
     RDKit          3D

 60 64  0  0  0  0  0  0  0  0999 V2000
   -6.4801   -2.5401    0.7562 C   0  0  0  0  0  0  0  0  0  0  0  0
   -5.4247   -1.7451    1.5151 C   0  0  0  0  0  0  0  0  0  0  0  0
   -4.2239   -1.3466    0.6429 C   0  0  0  0  0  0  0  0  0  0  0  0
   -3.4953   -2.5370    0.2284 N   0  0  0  0  0  0  0  0  0  0  0  0
   -2.3317   -2.2358   -0.4839 C   0  0  0  0  0  0  0  0  0  0  0  0
   -2.0566   -3.1101   -1.4629 N   0  0  0  0  0  0  0  0  0  0  0  0
   -0.9028   -2.9234   -2.0966 C   0  0  0  0  0  0  0  0  0  0  0  0
    0.0056   -1.9912   -1.8030 N   0  0  0  0  0  0  0  0  0  0  0  0
   -0.2746   -1.1315   -0.7972 C   0  0  0  0  0  0  0  0  0  0  0  0
    0.7926   -0.3109   -0.3819 N   0  0  0  0  0  0  0  0  0  0  0  0
    1.5439   -0.9664    0.7322 C   0  0  0  0  0  0  0  0  0  0  0  0
    3.0237   -1.2672    0.3935 C   0  0  0  0  0  0  0  0  0  0  0  0
    3.7178   -0.0549   -0.0753 N   0  0  0  0  0  0  0  0  0  0  0  0
    5.1001    0.0624   -0.0326 C   0  0  0  0  0  0  0  0  0  0  0  0
    5.7304    1.3065   -0.2089 C   0  0  0  0  0  0  0  0  0  0  0  0
    7.1226    1.4499   -0.1577 C   0  0  0  0  0  0  0  0  0  0  0  0
    7.9274    0.3419    0.0775 C   0  0  0  0  0  0  0  0  0  0  0  0
    7.3364   -0.9015    0.2642 C   0  0  0  0  0  0  0  0  0  0  0  0
    5.9424   -1.0337    0.2130 C   0  0  0  0  0  0  0  0  0  0  0  0
    2.9301    0.8472   -0.9427 C   0  0  0  0  0  0  0  0  0  0  0  0
    1.6689    0.1419   -1.4900 C   0  0  0  0  0  0  0  0  0  0  0  0
   -1.5124   -1.1532   -0.1280 C   0  0  0  0  0  0  0  0  0  0  0  0
   -2.0059   -0.2137    0.8566 N   0  0  0  0  0  0  0  0  0  0  0  0
   -1.3279    1.0262    1.2111 C   0  0  0  0  0  0  0  0  0  0  0  0
   -1.8710    2.2242    0.4517 C   0  0  0  0  0  0  0  0  0  0  0  0
   -1.5991    2.4032   -0.9114 C   0  0  0  0  0  0  0  0  0  0  0  0
   -2.1043    3.5079   -1.6002 C   0  0  0  0  0  0  0  0  0  0  0  0
   -2.8896    4.4470   -0.9347 C   0  0  0  0  0  0  0  0  0  0  0  0
   -3.1743    4.2793    0.4184 C   0  0  0  0  0  0  0  0  0  0  0  0
   -2.6698    3.1746    1.1071 C   0  0  0  0  0  0  0  0  0  0  0  0
   -3.2978   -0.3659    1.3957 C   0  0  0  0  0  0  0  0  0  0  0  0
   -3.7100    0.3141    2.3395 O   0  0  0  0  0  0  0  0  0  0  0  0
   -6.0996   -3.5172    0.4427 H   0  0  0  0  0  0  0  0  0  0  0  0
   -7.3512   -2.7142    1.3966 H   0  0  0  0  0  0  0  0  0  0  0  0
   -6.8171   -1.9969   -0.1329 H   0  0  0  0  0  0  0  0  0  0  0  0
   -5.0865   -2.3286    2.3810 H   0  0  0  0  0  0  0  0  0  0  0  0
   -5.9073   -0.8441    1.9143 H   0  0  0  0  0  0  0  0  0  0  0  0
   -4.5942   -0.8101   -0.2424 H   0  0  0  0  0  0  0  0  0  0  0  0
   -4.0129   -3.2240   -0.3116 H   0  0  0  0  0  0  0  0  0  0  0  0
   -0.6697   -3.6003   -2.9105 H   0  0  0  0  0  0  0  0  0  0  0  0
    1.0637   -1.8934    1.0726 H   0  0  0  0  0  0  0  0  0  0  0  0
    1.5278   -0.2772    1.5857 H   0  0  0  0  0  0  0  0  0  0  0  0
    3.0820   -2.0479   -0.3748 H   0  0  0  0  0  0  0  0  0  0  0  0
    3.4929   -1.6524    1.3072 H   0  0  0  0  0  0  0  0  0  0  0  0
    5.1369    2.2039   -0.3639 H   0  0  0  0  0  0  0  0  0  0  0  0
    7.5689    2.4308   -0.2887 H   0  0  0  0  0  0  0  0  0  0  0  0
    9.0076    0.4480    0.1206 H   0  0  0  0  0  0  0  0  0  0  0  0
    7.9549   -1.7756    0.4510 H   0  0  0  0  0  0  0  0  0  0  0  0
    5.5304   -2.0291    0.3544 H   0  0  0  0  0  0  0  0  0  0  0  0
    2.6378    1.7305   -0.3626 H   0  0  0  0  0  0  0  0  0  0  0  0
    3.5200    1.1813   -1.8051 H   0  0  0  0  0  0  0  0  0  0  0  0
    1.1180    0.8425   -2.1274 H   0  0  0  0  0  0  0  0  0  0  0  0
    1.9981   -0.6934   -2.1218 H   0  0  0  0  0  0  0  0  0  0  0  0
   -1.4739    1.1940    2.2872 H   0  0  0  0  0  0  0  0  0  0  0  0
   -0.2496    0.9955    1.1078 H   0  0  0  0  0  0  0  0  0  0  0  0
   -0.9931    1.6810   -1.4492 H   0  0  0  0  0  0  0  0  0  0  0  0
   -1.8850    3.6340   -2.6573 H   0  0  0  0  0  0  0  0  0  0  0  0
   -3.2830    5.3067   -1.4704 H   0  0  0  0  0  0  0  0  0  0  0  0
   -3.7920    5.0060    0.9403 H   0  0  0  0  0  0  0  0  0  0  0  0
   -2.9140    3.0521    2.1614 H   0  0  0  0  0  0  0  0  0  0  0  0
  1  2  1  0
  2  3  1  0
  3  4  1  0
  4  5  1  0
  5  6  2  0
  6  7  1  0
  7  8  2  0
  8  9  1  0
  9 10  1  0
 10 11  1  0
 11 12  1  0
 12 13  1  0
 13 14  1  0
 14 15  2  0
 15 16  1  0
 16 17  2  0
 17 18  1  0
 18 19  2  0
 13 20  1  0
 20 21  1  0
  9 22  2  0
 22 23  1  0
 23 24  1  0
 24 25  1  0
 25 26  2  0
 26 27  1  0
 27 28  2  0
 28 29  1  0
 29 30  2  0
 23 31  1  0
 31 32  2  0
 31  3  1  0
 22  5  1  0
 30 25  1  0
 21 10  1  0
 19 14  1  0
  1 33  1  0
  1 34  1  0
  1 35  1  0
  2 36  1  0
  2 37  1  0
  3 38  1  0
  4 39  1  0
  7 40  1  0
 11 41  1  0
 11 42  1  0
 12 43  1  0
 12 44  1  0
 15 45  1  0
 16 46  1  0
 17 47  1  0
 18 48  1  0
 19 49  1  0
 20 50  1  0
 20 51  1  0
 21 52  1  0
 21 53  1  0
 24 54  1  0
 24 55  1  0
 26 56  1  0
 27 57  1  0
 28 58  1  0
 29 59  1  0
 30 60  1  0
M  END
$$$$
