
     RDKit          3D

 52 57  0  0  0  0  0  0  0  0999 V2000
    0.8353    1.8955   -3.0421 C   0  0  0  0  0  0  0  0  0  0  0  0
    1.3252    0.9462   -2.0137 C   0  0  0  0  0  0  0  0  0  0  0  0
    2.6382    0.7565   -1.8603 N   0  0  0  0  0  0  0  0  0  0  0  0
    2.7675   -0.1667   -0.8531 N   0  0  0  0  0  0  0  0  0  0  0  0
    4.0702   -0.5817   -0.4379 C   0  0  0  0  0  0  0  0  0  0  0  0
    5.1976   -0.0368   -1.0782 C   0  0  0  0  0  0  0  0  0  0  0  0
    6.4869   -0.4183   -0.6978 C   0  0  0  0  0  0  0  0  0  0  0  0
    6.6658   -1.3457    0.3247 C   0  0  0  0  0  0  0  0  0  0  0  0
    5.5565   -1.8913    0.9668 C   0  0  0  0  0  0  0  0  0  0  0  0
    4.2631   -1.5130    0.5901 C   0  0  0  0  0  0  0  0  0  0  0  0
    1.5115   -0.5599   -0.3944 C   0  0  0  0  0  0  0  0  0  0  0  0
    0.5867    0.1655   -1.1097 C   0  0  0  0  0  0  0  0  0  0  0  0
   -0.8626   -0.0355   -0.8450 C   0  0  0  0  0  0  0  0  0  0  0  0
   -1.3310    1.2985   -0.2519 C   0  0  0  0  0  0  0  0  0  0  0  0
   -2.1171    2.1735   -1.0268 C   0  0  0  0  0  0  0  0  0  0  0  0
   -2.5571    3.3946   -0.5074 C   0  0  0  0  0  0  0  0  0  0  0  0
   -2.2111    3.7555    0.8004 C   0  0  0  0  0  0  0  0  0  0  0  0
   -2.6757    5.0358    1.3489 N   0  0  0  0  0  4  0  0  0  0  0  0
   -3.3528    5.7656    0.6103 O   0  0  0  0  0  0  0  0  0  0  0  0
   -2.3679    5.3099    2.5173 O   0  0  0  0  0  1  0  0  0  0  0  0
   -1.4279    2.9053    1.5876 C   0  0  0  0  0  0  0  0  0  0  0  0
   -0.9923    1.6861    1.0607 C   0  0  0  0  0  0  0  0  0  0  0  0
   -1.1301   -1.1635    0.0731 N   0  0  0  0  0  0  0  0  0  0  0  0
   -0.0371   -1.7466    0.7439 C   0  0  0  0  0  0  0  0  0  0  0  0
    1.2328   -1.4814    0.5621 N   0  0  0  0  0  0  0  0  0  0  0  0
   -0.3147   -2.8210    1.8236 C   0  0  0  0  0  0  0  0  0  0  0  0
    0.5764   -3.3031    2.5085 O   0  0  0  0  0  0  0  0  0  0  0  0
   -1.6230   -3.1992    1.9665 N   0  0  0  0  0  0  0  0  0  0  0  0
   -2.6760   -2.6641    1.2204 C   0  0  0  0  0  0  0  0  0  0  0  0
   -3.9595   -3.1706    1.4582 C   0  0  0  0  0  0  0  0  0  0  0  0
   -5.0443   -2.6789    0.7416 C   0  0  0  0  0  0  0  0  0  0  0  0
   -4.8429   -1.6871   -0.2098 C   0  0  0  0  0  0  0  0  0  0  0  0
   -3.5575   -1.1817   -0.4430 C   0  0  0  0  0  0  0  0  0  0  0  0
   -2.4393   -1.6481    0.2692 C   0  0  0  0  0  0  0  0  0  0  0  0
   -0.0886    1.5299   -3.5010 H   0  0  0  0  0  0  0  0  0  0  0  0
    1.5711    2.0313   -3.8417 H   0  0  0  0  0  0  0  0  0  0  0  0
    0.6365    2.8731   -2.5919 H   0  0  0  0  0  0  0  0  0  0  0  0
    5.0883    0.6906   -1.8805 H   0  0  0  0  0  0  0  0  0  0  0  0
    7.3489    0.0110   -1.2015 H   0  0  0  0  0  0  0  0  0  0  0  0
    7.6677   -1.6433    0.6221 H   0  0  0  0  0  0  0  0  0  0  0  0
    5.6927   -2.6154    1.7666 H   0  0  0  0  0  0  0  0  0  0  0  0
    3.4360   -1.9680    1.1258 H   0  0  0  0  0  0  0  0  0  0  0  0
   -1.3473   -0.2257   -1.8113 H   0  0  0  0  0  0  0  0  0  0  0  0
   -2.3941    1.9114   -2.0469 H   0  0  0  0  0  0  0  0  0  0  0  0
   -3.1637    4.0491   -1.1307 H   0  0  0  0  0  0  0  0  0  0  0  0
   -1.1455    3.1730    2.6041 H   0  0  0  0  0  0  0  0  0  0  0  0
   -0.3755    1.0396    1.6849 H   0  0  0  0  0  0  0  0  0  0  0  0
   -1.7929   -3.9139    2.6608 H   0  0  0  0  0  0  0  0  0  0  0  0
   -4.1239   -3.9496    2.1981 H   0  0  0  0  0  0  0  0  0  0  0  0
   -6.0426   -3.0699    0.9225 H   0  0  0  0  0  0  0  0  0  0  0  0
   -5.6878   -1.3019   -0.7768 H   0  0  0  0  0  0  0  0  0  0  0  0
   -3.4731   -0.4154   -1.2055 H   0  0  0  0  0  0  0  0  0  0  0  0
  1  2  1  0
  2  3  2  0
  3  4  1  0
  4  5  1  0
  5  6  2  0
  6  7  1  0
  7  8  2  0
  8  9  1  0
  9 10  2  0
  4 11  1  0
 11 12  2  0
 12 13  1  0
 13 14  1  0
 14 15  2  0
 15 16  1  0
 16 17  2  0
 17 18  1  0
 18 19  2  0
 18 20  1  0
 17 21  1  0
 21 22  2  0
 13 23  1  0
 23 24  1  0
 24 25  2  0
 24 26  1  0
 26 27  2  0
 26 28  1  0
 28 29  1  0
 29 30  2  0
 30 31  1  0
 31 32  2  0
 32 33  1  0
 33 34  2  0
 12  2  1  0
 22 14  1  0
 34 23  1  0
 10  5  1  0
 25 11  1  0
 34 29  1  0
  1 35  1  0
  1 36  1  0
  1 37  1  0
  6 38  1  0
  7 39  1  0
  8 40  1  0
  9 41  1  0
 10 42  1  0
 13 43  1  0
 15 44  1  0
 16 45  1  0
 21 46  1  0
 22 47  1  0
 28 48  1  0
 30 49  1  0
 31 50  1  0
 32 51  1  0
 33 52  1  0
M  CHG  2  18   1  20  -1
M  END
$$$$
