
     RDKit          3D

 52 55  0  0  0  0  0  0  0  0999 V2000
    3.0458   -2.2046   -1.6671 O   0  0  0  0  0  0  0  0  0  0  0  0
    3.0347   -0.9800   -1.5792 C   0  0  0  0  0  0  0  0  0  0  0  0
    1.9379   -0.1994   -1.9147 N   0  0  0  0  0  0  0  0  0  0  0  0
    0.7408   -0.9019   -2.2294 N   0  0  0  0  0  0  0  0  0  0  0  0
   -0.3051   -0.6222   -1.3148 C   0  0  0  0  0  0  0  0  0  0  0  0
   -0.8238    0.6521   -1.2172 C   0  0  0  0  0  0  0  0  0  0  0  0
   -1.8309    0.8592   -0.3030 C   0  0  0  0  0  0  0  0  0  0  0  0
   -2.3859    2.1003   -0.1070 N   0  0  0  0  0  0  0  0  0  0  0  0
   -3.4725    2.2712    0.8498 C   0  0  0  0  0  0  0  0  0  0  0  0
   -3.7193    3.7754    0.8114 C   0  0  0  0  0  0  0  0  0  0  0  0
   -3.4517    4.1234   -0.6462 C   0  0  0  0  0  0  0  0  0  0  0  0
   -2.2692    3.2287   -1.0168 C   0  0  0  0  0  0  0  0  0  0  0  0
   -2.2728   -0.1614    0.4524 N   0  0  0  0  0  0  0  0  0  0  0  0
   -1.7419   -1.3836    0.2917 C   0  0  0  0  0  0  0  0  0  0  0  0
   -2.2002   -2.4076    1.0828 N   0  0  0  0  0  0  0  0  0  0  0  0
   -3.5021   -2.3092    1.7219 C   0  0  0  0  0  0  0  0  0  0  0  0
   -3.9975   -3.7574    1.7765 C   0  0  0  0  0  0  0  0  0  0  0  0
   -2.7184   -4.5809    1.7328 C   0  0  0  0  0  0  0  0  0  0  0  0
   -1.8375   -3.7798    0.7782 C   0  0  0  0  0  0  0  0  0  0  0  0
   -0.7643   -1.6422   -0.5846 N   0  0  0  0  0  0  0  0  0  0  0  0
    4.2227   -0.2501   -1.0568 C   0  0  0  0  0  0  0  0  0  0  0  0
    4.4980    1.0756   -1.4248 C   0  0  0  0  0  0  0  0  0  0  0  0
    5.6278    1.7256   -0.9155 C   0  0  0  0  0  0  0  0  0  0  0  0
    6.4877    1.0433   -0.0426 C   0  0  0  0  0  0  0  0  0  0  0  0
    7.6727    1.7271    0.4920 N   0  0  0  0  0  4  0  0  0  0  0  0
    8.4091    1.0900    1.2584 O   0  0  0  0  0  0  0  0  0  0  0  0
    7.8624    2.9024    0.1463 O   0  0  0  0  0  1  0  0  0  0  0  0
    6.2268   -0.2849    0.3193 C   0  0  0  0  0  0  0  0  0  0  0  0
    5.0953   -0.9272   -0.1932 C   0  0  0  0  0  0  0  0  0  0  0  0
    1.8362    0.7451   -1.5510 H   0  0  0  0  0  0  0  0  0  0  0  0
    0.9104   -1.9139   -2.1193 H   0  0  0  0  0  0  0  0  0  0  0  0
   -0.4464    1.4474   -1.8435 H   0  0  0  0  0  0  0  0  0  0  0  0
   -3.2037    1.9451    1.8610 H   0  0  0  0  0  0  0  0  0  0  0  0
   -4.3680    1.7267    0.5198 H   0  0  0  0  0  0  0  0  0  0  0  0
   -2.9971    4.2929    1.4582 H   0  0  0  0  0  0  0  0  0  0  0  0
   -4.7290    4.0438    1.1351 H   0  0  0  0  0  0  0  0  0  0  0  0
   -4.3241    3.8612   -1.2566 H   0  0  0  0  0  0  0  0  0  0  0  0
   -3.2357    5.1823   -0.7998 H   0  0  0  0  0  0  0  0  0  0  0  0
   -1.3209    3.7457   -0.8410 H   0  0  0  0  0  0  0  0  0  0  0  0
   -2.3289    2.9415   -2.0707 H   0  0  0  0  0  0  0  0  0  0  0  0
   -4.2227   -1.6946    1.1695 H   0  0  0  0  0  0  0  0  0  0  0  0
   -3.3876   -1.8997    2.7325 H   0  0  0  0  0  0  0  0  0  0  0  0
   -4.6053   -3.9595    2.6638 H   0  0  0  0  0  0  0  0  0  0  0  0
   -4.6078   -3.9744    0.8903 H   0  0  0  0  0  0  0  0  0  0  0  0
   -2.2636   -4.6201    2.7302 H   0  0  0  0  0  0  0  0  0  0  0  0
   -2.8851   -5.6062    1.3884 H   0  0  0  0  0  0  0  0  0  0  0  0
   -0.7763   -3.9816    0.9583 H   0  0  0  0  0  0  0  0  0  0  0  0
   -2.0841   -4.0331   -0.2604 H   0  0  0  0  0  0  0  0  0  0  0  0
    3.8619    1.6101   -2.1276 H   0  0  0  0  0  0  0  0  0  0  0  0
    5.8284    2.7529   -1.2142 H   0  0  0  0  0  0  0  0  0  0  0  0
    6.8885   -0.8329    0.9898 H   0  0  0  0  0  0  0  0  0  0  0  0
    4.8923   -1.9607    0.0868 H   0  0  0  0  0  0  0  0  0  0  0  0
  1  2  2  0
  2  3  1  0
  3  4  1  0
  4  5  1  0
  5  6  2  0
  6  7  1  0
  7  8  1  0
  8  9  1  0
  9 10  1  0
 10 11  1  0
 11 12  1  0
  7 13  2  0
 13 14  1  0
 14 15  1  0
 15 16  1  0
 16 17  1  0
 17 18  1  0
 18 19  1  0
 14 20  2  0
  2 21  1  0
 21 22  2  0
 22 23  1  0
 23 24  2  0
 24 25  1  0
 25 26  2  0
 25 27  1  0
 24 28  1  0
 28 29  2  0
 20  5  1  0
 29 21  1  0
 12  8  1  0
 19 15  1  0
  3 30  1  0
  4 31  1  0
  6 32  1  0
  9 33  1  0
  9 34  1  0
 10 35  1  0
 10 36  1  0
 11 37  1  0
 11 38  1  0
 12 39  1  0
 12 40  1  0
 16 41  1  0
 16 42  1  0
 17 43  1  0
 17 44  1  0
 18 45  1  0
 18 46  1  0
 19 47  1  0
 19 48  1  0
 22 49  1  0
 23 50  1  0
 28 51  1  0
 29 52  1  0
M  CHG  2  25   1  27  -1
M  END
$$$$
