
     RDKit          3D

 60 63  0  0  0  0  0  0  0  0999 V2000
   -3.7706    0.8504    3.7373 C   0  0  0  0  0  0  0  0  0  0  0  0
   -4.2339    1.7811    2.6318 C   0  0  0  0  0  0  0  0  0  0  0  0
   -4.0710    1.1574    1.3519 O   0  0  0  0  0  0  0  0  0  0  0  0
   -5.0710    0.3153    0.9544 C   0  0  0  0  0  0  0  0  0  0  0  0
   -6.1003    0.1203    1.5884 O   0  0  0  0  0  0  0  0  0  0  0  0
   -4.7404   -0.3527   -0.3846 C   0  0  0  0  0  0  0  0  0  0  0  0
   -5.5064   -1.6649   -0.5921 C   0  0  0  0  0  0  0  0  0  0  0  0
   -5.0978   -2.7564    0.3987 C   0  0  0  0  0  0  0  0  0  0  0  0
   -3.6389   -2.6330    0.8235 C   0  0  0  0  0  0  0  0  0  0  0  0
   -2.7958   -1.9710   -0.2629 C   0  0  0  0  0  0  0  0  0  0  0  0
   -3.2568   -0.5793   -0.5150 N   0  0  0  0  0  0  0  0  0  0  0  0
   -2.5760    0.2086   -1.8606 S   0  0  0  0  0  6  0  0  0  0  0  0
   -2.8013   -0.6380   -3.0143 O   0  0  0  0  0  0  0  0  0  0  0  0
   -3.0239    1.5863   -1.8547 O   0  0  0  0  0  0  0  0  0  0  0  0
   -0.8397    0.2114   -1.4887 C   0  0  0  0  0  0  0  0  0  0  0  0
    0.0046   -0.7371   -2.0944 C   0  0  0  0  0  0  0  0  0  0  0  0
    1.3770   -0.7274   -1.8235 C   0  0  0  0  0  0  0  0  0  0  0  0
    1.8831    0.2565   -0.9870 C   0  0  0  0  0  0  0  0  0  0  0  0
    1.0331    1.2002   -0.3965 C   0  0  0  0  0  0  0  0  0  0  0  0
   -0.3335    1.1919   -0.6276 C   0  0  0  0  0  0  0  0  0  0  0  0
    1.7947    2.1114    0.5153 C   0  0  0  0  0  0  0  0  0  0  0  0
    3.2512    1.8197    0.0887 C   0  0  0  0  0  0  0  0  0  0  0  0
    3.7516    2.9245   -0.8521 C   0  0  0  0  0  0  0  0  0  0  0  0
    3.2184    0.5009   -0.5974 N   0  0  0  0  0  0  0  0  0  0  0  0
    4.3016   -0.3370   -0.8593 C   0  0  0  0  0  0  0  0  0  0  0  0
    4.2049   -1.3648   -1.5428 O   0  0  0  0  0  0  0  0  0  0  0  0
    5.6593    0.0719   -0.2161 C   0  0  0  0  0  0  0  0  0  0  0  0
    5.9031   -0.3323    1.2691 C   0  0  0  0  0  0  0  0  0  0  0  0
    7.3808   -0.5517    0.8997 C   0  0  0  0  0  0  0  0  0  0  0  0
    6.9042   -0.8055   -0.5468 C   0  0  0  0  0  0  0  0  0  0  0  0
   -2.7431    0.5162    3.5542 H   0  0  0  0  0  0  0  0  0  0  0  0
   -4.3911   -0.0501    3.7810 H   0  0  0  0  0  0  0  0  0  0  0  0
   -3.8151    1.3569    4.7070 H   0  0  0  0  0  0  0  0  0  0  0  0
   -5.2677    2.1162    2.7867 H   0  0  0  0  0  0  0  0  0  0  0  0
   -3.6012    2.6776    2.6267 H   0  0  0  0  0  0  0  0  0  0  0  0
   -5.0971    0.3490   -1.1496 H   0  0  0  0  0  0  0  0  0  0  0  0
   -6.5884   -1.5001   -0.5292 H   0  0  0  0  0  0  0  0  0  0  0  0
   -5.3108   -2.0273   -1.6106 H   0  0  0  0  0  0  0  0  0  0  0  0
   -5.2714   -3.7391   -0.0636 H   0  0  0  0  0  0  0  0  0  0  0  0
   -5.7301   -2.7279    1.2904 H   0  0  0  0  0  0  0  0  0  0  0  0
   -3.2431   -3.6299    1.0609 H   0  0  0  0  0  0  0  0  0  0  0  0
   -3.5798   -2.0459    1.7495 H   0  0  0  0  0  0  0  0  0  0  0  0
   -1.7520   -1.9444    0.0772 H   0  0  0  0  0  0  0  0  0  0  0  0
   -2.8455   -2.5691   -1.1846 H   0  0  0  0  0  0  0  0  0  0  0  0
   -0.3976   -1.4876   -2.7786 H   0  0  0  0  0  0  0  0  0  0  0  0
    2.0163   -1.4688   -2.2921 H   0  0  0  0  0  0  0  0  0  0  0  0
   -0.9929    1.9215   -0.1636 H   0  0  0  0  0  0  0  0  0  0  0  0
    1.6286    1.8034    1.5538 H   0  0  0  0  0  0  0  0  0  0  0  0
    1.5113    3.1628    0.3937 H   0  0  0  0  0  0  0  0  0  0  0  0
    3.9071    1.7724    0.9638 H   0  0  0  0  0  0  0  0  0  0  0  0
    3.8065    3.8836   -0.3230 H   0  0  0  0  0  0  0  0  0  0  0  0
    3.0711    3.0510   -1.7084 H   0  0  0  0  0  0  0  0  0  0  0  0
    4.7458    2.7028   -1.2593 H   0  0  0  0  0  0  0  0  0  0  0  0
    5.9075    1.1262   -0.4073 H   0  0  0  0  0  0  0  0  0  0  0  0
    5.7187    0.4537    2.0082 H   0  0  0  0  0  0  0  0  0  0  0  0
    5.3823   -1.2469    1.5790 H   0  0  0  0  0  0  0  0  0  0  0  0
    7.8784   -1.3935    1.3953 H   0  0  0  0  0  0  0  0  0  0  0  0
    8.0018    0.3467    1.0149 H   0  0  0  0  0  0  0  0  0  0  0  0
    6.6839   -1.8595   -0.7605 H   0  0  0  0  0  0  0  0  0  0  0  0
    7.5573   -0.4067   -1.3274 H   0  0  0  0  0  0  0  0  0  0  0  0
  1  2  1  0
  2  3  1  0
  3  4  1  0
  4  5  2  0
  4  6  1  0
  6  7  1  0
  7  8  1  0
  8  9  1  0
  9 10  1  0
 10 11  1  0
 11 12  1  0
 12 13  2  0
 12 14  2  0
 12 15  1  0
 15 16  2  0
 16 17  1  0
 17 18  2  0
 18 19  1  0
 19 20  2  0
 19 21  1  0
 21 22  1  0
 22 23  1  0
 22 24  1  0
 24 25  1  0
 25 26  2  0
 25 27  1  0
 27 28  1  0
 28 29  1  0
 29 30  1  0
 11  6  1  0
 20 15  1  0
 30 27  1  0
 24 18  1  0
  1 31  1  0
  1 32  1  0
  1 33  1  0
  2 34  1  0
  2 35  1  0
  6 36  1  0
  7 37  1  0
  7 38  1  0
  8 39  1  0
  8 40  1  0
  9 41  1  0
  9 42  1  0
 10 43  1  0
 10 44  1  0
 16 45  1  0
 17 46  1  0
 20 47  1  0
 21 48  1  0
 21 49  1  0
 22 50  1  0
 23 51  1  0
 23 52  1  0
 23 53  1  0
 27 54  1  0
 28 55  1  0
 28 56  1  0
 29 57  1  0
 29 58  1  0
 30 59  1  0
 30 60  1  0
M  END
$$$$
