
     RDKit          3D

 73 78  0  0  0  0  0  0  0  0999 V2000
   -8.9684   -2.9303   -0.4555 C   0  0  0  0  0  0  0  0  0  0  0  0
   -8.5285   -1.5024   -0.3237 C   0  0  0  0  0  0  0  0  0  0  0  0
   -9.4666   -0.4756   -0.2512 C   0  0  0  0  0  0  0  0  0  0  0  0
   -9.0435    0.8476   -0.1562 C   0  0  0  0  0  0  0  0  0  0  0  0
   -7.6746    1.1716   -0.1392 C   0  0  0  0  0  0  0  0  0  0  0  0
   -7.2989    2.6226    0.0081 C   0  0  0  0  0  0  0  0  0  0  0  0
   -6.7037    0.1510   -0.2622 C   0  0  0  0  0  0  0  0  0  0  0  0
   -5.3380    0.4593   -0.3152 N   0  0  0  0  0  0  0  0  0  0  0  0
   -4.9122    1.2183   -1.5157 C   0  0  0  0  0  0  0  0  0  0  0  0
   -3.6110    0.6736   -2.1329 C   0  0  0  0  0  0  0  0  0  0  0  0
   -2.5268    0.5212   -1.1525 N   0  0  0  0  0  0  0  0  0  0  0  0
   -1.2164    0.6340   -1.5941 C   0  0  0  0  0  0  0  0  0  0  0  0
   -0.9654    0.8384   -2.7841 O   0  0  0  0  0  0  0  0  0  0  0  0
   -0.0928    0.5481   -0.5636 C   0  0  0  0  0  0  0  0  0  0  0  0
    0.0017    1.8404    0.2532 C   0  0  0  0  0  0  0  0  0  0  0  0
    1.1611    1.7580    1.2412 C   0  0  0  0  0  0  0  0  0  0  0  0
    2.4851    1.4300    0.5477 C   0  0  0  0  0  0  0  0  0  0  0  0
    2.3371    0.2241   -0.2789 N   0  0  0  0  0  0  0  0  0  0  0  0
    3.5572   -0.2433   -0.8247 C   0  0  0  0  0  0  0  0  0  0  0  0
    3.5869   -0.6626   -2.1285 N   0  0  0  0  0  0  0  0  0  0  0  0
    4.7321   -1.1289   -2.6636 C   0  0  0  0  0  0  0  0  0  0  0  0
    5.9281   -1.2653   -2.0715 N   0  0  0  0  0  0  0  0  0  0  0  0
    5.8723   -0.8729   -0.7887 C   0  0  0  0  0  0  0  0  0  0  0  0
    4.7783   -0.3660   -0.1057 C   0  0  0  0  0  0  0  0  0  0  0  0
    5.1373   -0.0840    1.1996 N   0  0  0  0  0  0  0  0  0  0  0  0
    6.4131   -0.4056    1.3145 C   0  0  0  0  0  0  0  0  0  0  0  0
    6.8970   -0.9012    0.1238 N   0  0  0  0  0  0  0  0  0  0  0  0
    8.2366   -1.3649   -0.1808 C   0  0  0  0  0  0  0  0  0  0  0  0
    8.9539   -2.0485    0.9778 C   0  0  0  0  0  0  0  0  0  0  0  0
    9.5485   -1.0716    1.9923 C   0  0  0  0  0  0  0  0  0  0  0  0
    8.6560    0.1106    2.3721 C   0  0  0  0  0  0  0  0  0  0  0  0
    7.1963   -0.2713    2.5823 C   0  0  0  0  0  0  0  0  0  0  0  0
    1.2456    0.2879   -1.2720 C   0  0  0  0  0  0  0  0  0  0  0  0
   -2.9445    0.1016    0.1957 C   0  0  0  0  0  0  0  0  0  0  0  0
   -4.3613   -0.5063    0.2149 C   0  0  0  0  0  0  0  0  0  0  0  0
   -7.1627   -1.1781   -0.3397 C   0  0  0  0  0  0  0  0  0  0  0  0
   -8.2811   -3.5981    0.0746 H   0  0  0  0  0  0  0  0  0  0  0  0
   -9.9632   -3.0776   -0.0219 H   0  0  0  0  0  0  0  0  0  0  0  0
   -8.9986   -3.2157   -1.5116 H   0  0  0  0  0  0  0  0  0  0  0  0
  -10.5309   -0.6964   -0.2634 H   0  0  0  0  0  0  0  0  0  0  0  0
   -9.7916    1.6342   -0.0856 H   0  0  0  0  0  0  0  0  0  0  0  0
   -6.4154    2.7405    0.6438 H   0  0  0  0  0  0  0  0  0  0  0  0
   -8.1041    3.1909    0.4871 H   0  0  0  0  0  0  0  0  0  0  0  0
   -7.1079    3.0653   -0.9737 H   0  0  0  0  0  0  0  0  0  0  0  0
   -5.6871    1.2222   -2.2927 H   0  0  0  0  0  0  0  0  0  0  0  0
   -4.7404    2.2580   -1.2121 H   0  0  0  0  0  0  0  0  0  0  0  0
   -3.7873   -0.3199   -2.5644 H   0  0  0  0  0  0  0  0  0  0  0  0
   -3.2955    1.3312   -2.9506 H   0  0  0  0  0  0  0  0  0  0  0  0
   -0.2740   -0.3013    0.1030 H   0  0  0  0  0  0  0  0  0  0  0  0
    0.1453    2.6983   -0.4163 H   0  0  0  0  0  0  0  0  0  0  0  0
   -0.9250    2.0321    0.8022 H   0  0  0  0  0  0  0  0  0  0  0  0
    0.9413    0.9836    1.9870 H   0  0  0  0  0  0  0  0  0  0  0  0
    1.2546    2.7059    1.7827 H   0  0  0  0  0  0  0  0  0  0  0  0
    2.7977    2.2783   -0.0755 H   0  0  0  0  0  0  0  0  0  0  0  0
    3.2275    1.3054    1.3397 H   0  0  0  0  0  0  0  0  0  0  0  0
    4.6762   -1.4323   -3.7049 H   0  0  0  0  0  0  0  0  0  0  0  0
    8.8015   -0.5038   -0.5554 H   0  0  0  0  0  0  0  0  0  0  0  0
    8.1490   -2.0899   -0.9986 H   0  0  0  0  0  0  0  0  0  0  0  0
    8.2740   -2.7448    1.4850 H   0  0  0  0  0  0  0  0  0  0  0  0
    9.7745   -2.6584    0.5802 H   0  0  0  0  0  0  0  0  0  0  0  0
   10.4942   -0.6752    1.6015 H   0  0  0  0  0  0  0  0  0  0  0  0
    9.8067   -1.6350    2.8980 H   0  0  0  0  0  0  0  0  0  0  0  0
    9.0503    0.5411    3.3011 H   0  0  0  0  0  0  0  0  0  0  0  0
    8.7388    0.8988    1.6125 H   0  0  0  0  0  0  0  0  0  0  0  0
    7.1137   -1.1969    3.1645 H   0  0  0  0  0  0  0  0  0  0  0  0
    6.7216    0.5164    3.1816 H   0  0  0  0  0  0  0  0  0  0  0  0
    1.4570    1.0730   -2.0117 H   0  0  0  0  0  0  0  0  0  0  0  0
    1.1542   -0.6660   -1.8091 H   0  0  0  0  0  0  0  0  0  0  0  0
   -2.2380   -0.6274    0.5983 H   0  0  0  0  0  0  0  0  0  0  0  0
   -2.9204    0.9936    0.8307 H   0  0  0  0  0  0  0  0  0  0  0  0
   -4.6197   -0.7725    1.2464 H   0  0  0  0  0  0  0  0  0  0  0  0
   -4.3535   -1.4236   -0.3865 H   0  0  0  0  0  0  0  0  0  0  0  0
   -6.4532   -1.9932   -0.4466 H   0  0  0  0  0  0  0  0  0  0  0  0
  1  2  1  0
  2  3  2  0
  3  4  1  0
  4  5  2  0
  5  6  1  0
  5  7  1  0
  7  8  1  0
  8  9  1  0
  9 10  1  0
 10 11  1  0
 11 12  1  0
 12 13  2  0
 12 14  1  0
 14 15  1  0
 15 16  1  0
 16 17  1  0
 17 18  1  0
 18 19  1  0
 19 20  2  0
 20 21  1  0
 21 22  2  0
 22 23  1  0
 23 24  2  0
 24 25  1  0
 25 26  2  0
 26 27  1  0
 27 28  1  0
 28 29  1  0
 29 30  1  0
 30 31  1  0
 31 32  1  0
 18 33  1  0
 11 34  1  0
 34 35  1  0
  7 36  2  0
 36  2  1  0
 35  8  1  0
 33 14  1  0
 24 19  1  0
 32 26  1  0
 27 23  1  0
  1 37  1  0
  1 38  1  0
  1 39  1  0
  3 40  1  0
  4 41  1  0
  6 42  1  0
  6 43  1  0
  6 44  1  0
  9 45  1  0
  9 46  1  0
 10 47  1  0
 10 48  1  0
 14 49  1  0
 15 50  1  0
 15 51  1  0
 16 52  1  0
 16 53  1  0
 17 54  1  0
 17 55  1  0
 21 56  1  0
 28 57  1  0
 28 58  1  0
 29 59  1  0
 29 60  1  0
 30 61  1  0
 30 62  1  0
 31 63  1  0
 31 64  1  0
 32 65  1  0
 32 66  1  0
 33 67  1  0
 33 68  1  0
 34 69  1  0
 34 70  1  0
 35 71  1  0
 35 72  1  0
 36 73  1  0
M  END
$$$$
