
     RDKit          3D

 46 47  0  0  0  0  0  0  0  0999 V2000
    8.3580   -0.2429    2.6008 O   0  0  0  0  0  0  0  0  0  0  0  0
    7.3574   -0.2375    1.9058 C   0  0  0  0  0  0  0  0  0  0  0  0
    6.2280   -0.8365    2.3428 O   0  0  0  0  0  0  0  0  0  0  0  0
    7.1979    0.4581    0.5813 C   0  0  0  0  0  0  0  0  0  0  0  0
    6.5063   -0.4155   -0.4606 C   0  0  0  0  0  0  0  0  0  0  0  0
    5.0542   -0.0152   -0.6592 C   0  0  0  0  0  0  0  0  0  0  0  0
    4.6812    0.4545   -1.7293 O   0  0  0  0  0  0  0  0  0  0  0  0
    4.2735   -0.2495    0.4564 N   0  0  0  0  0  0  0  0  0  0  0  0
    2.8991    0.0068    0.6220 C   0  0  0  0  0  0  0  0  0  0  0  0
    2.3484   -0.2805    1.8805 C   0  0  0  0  0  0  0  0  0  0  0  0
    0.9925   -0.0589    2.1353 C   0  0  0  0  0  0  0  0  0  0  0  0
    0.1765    0.4409    1.1199 C   0  0  0  0  0  0  0  0  0  0  0  0
   -1.5447    0.7287    1.4301 S   0  0  0  0  0  6  0  0  0  0  0  0
   -1.9633    1.8713    0.6508 O   0  0  0  0  0  0  0  0  0  0  0  0
   -1.7760    0.6432    2.8552 O   0  0  0  0  0  0  0  0  0  0  0  0
   -2.2318   -0.6801    0.7714 N   0  0  0  0  0  0  0  0  0  0  0  0
   -3.6352   -0.5259    0.2995 C   0  0  0  0  0  0  0  0  0  0  0  0
   -3.6718   -0.1886   -1.1924 C   0  0  0  0  0  0  0  0  0  0  0  0
   -5.0917   -0.0414   -1.6841 C   0  0  0  0  0  0  0  0  0  0  0  0
   -5.7798    1.1645   -1.4946 C   0  0  0  0  0  0  0  0  0  0  0  0
   -7.1009    1.2989   -1.9206 C   0  0  0  0  0  0  0  0  0  0  0  0
   -7.7474    0.2298   -2.5368 C   0  0  0  0  0  0  0  0  0  0  0  0
   -7.0719   -0.9735   -2.7318 C   0  0  0  0  0  0  0  0  0  0  0  0
   -5.7488   -1.1098   -2.3067 C   0  0  0  0  0  0  0  0  0  0  0  0
    0.7114    0.7458   -0.1327 C   0  0  0  0  0  0  0  0  0  0  0  0
    2.0716    0.5226   -0.3790 C   0  0  0  0  0  0  0  0  0  0  0  0
    6.5021   -1.1803    3.2256 H   0  0  0  0  0  0  0  0  0  0  0  0
    8.2111    0.6882    0.2279 H   0  0  0  0  0  0  0  0  0  0  0  0
    6.6828    1.4109    0.7491 H   0  0  0  0  0  0  0  0  0  0  0  0
    7.0076   -0.2853   -1.4277 H   0  0  0  0  0  0  0  0  0  0  0  0
    6.5501   -1.4832   -0.2167 H   0  0  0  0  0  0  0  0  0  0  0  0
    4.7569   -0.6325    1.2664 H   0  0  0  0  0  0  0  0  0  0  0  0
    2.9674   -0.6848    2.6763 H   0  0  0  0  0  0  0  0  0  0  0  0
    0.5877   -0.2752    3.1216 H   0  0  0  0  0  0  0  0  0  0  0  0
   -2.1970   -1.3860    1.5117 H   0  0  0  0  0  0  0  0  0  0  0  0
   -4.1646    0.2194    0.9073 H   0  0  0  0  0  0  0  0  0  0  0  0
   -4.1503   -1.4802    0.4790 H   0  0  0  0  0  0  0  0  0  0  0  0
   -3.1580   -0.9723   -1.7649 H   0  0  0  0  0  0  0  0  0  0  0  0
   -3.1194    0.7350   -1.4041 H   0  0  0  0  0  0  0  0  0  0  0  0
   -5.2872    2.0084   -1.0131 H   0  0  0  0  0  0  0  0  0  0  0  0
   -7.6264    2.2383   -1.7697 H   0  0  0  0  0  0  0  0  0  0  0  0
   -8.7789    0.3341   -2.8614 H   0  0  0  0  0  0  0  0  0  0  0  0
   -7.5756   -1.8046   -3.2166 H   0  0  0  0  0  0  0  0  0  0  0  0
   -5.2346   -2.0549   -2.4671 H   0  0  0  0  0  0  0  0  0  0  0  0
    0.0790    1.1371   -0.9291 H   0  0  0  0  0  0  0  0  0  0  0  0
    2.4545    0.7587   -1.3679 H   0  0  0  0  0  0  0  0  0  0  0  0
  1  2  2  0
  2  3  1  0
  2  4  1  0
  4  5  1  0
  5  6  1  0
  6  7  2  0
  6  8  1  0
  8  9  1  0
  9 10  2  0
 10 11  1  0
 11 12  2  0
 12 13  1  0
 13 14  2  0
 13 15  2  0
 13 16  1  0
 16 17  1  0
 17 18  1  0
 18 19  1  0
 19 20  2  0
 20 21  1  0
 21 22  2  0
 22 23  1  0
 23 24  2  0
 12 25  1  0
 25 26  2  0
 26  9  1  0
 24 19  1  0
  3 27  1  0
  4 28  1  0
  4 29  1  0
  5 30  1  0
  5 31  1  0
  8 32  1  0
 10 33  1  0
 11 34  1  0
 16 35  1  0
 17 36  1  0
 17 37  1  0
 18 38  1  0
 18 39  1  0
 20 40  1  0
 21 41  1  0
 22 42  1  0
 23 43  1  0
 24 44  1  0
 25 45  1  0
 26 46  1  0
M  END
$$$$
