
     RDKit          3D

 39 41  0  0  0  0  0  0  0  0999 V2000
   -1.6314    0.6831   -2.5768 C   0  0  0  0  0  0  0  0  0  0  0  0
   -2.4412    0.2192   -1.3932 C   0  0  0  0  0  0  0  0  0  0  0  0
   -3.8150   -0.0016   -1.5863 C   0  0  0  0  0  0  0  0  0  0  0  0
   -4.6232   -0.4052   -0.5316 C   0  0  0  0  0  0  0  0  0  0  0  0
   -4.0605   -0.6267    0.7200 C   0  0  0  0  0  0  0  0  0  0  0  0
   -2.6821   -0.4446    0.9444 C   0  0  0  0  0  0  0  0  0  0  0  0
   -2.1709   -0.8396    2.3043 C   0  0  0  0  0  0  0  0  0  0  0  0
   -1.8719    0.0373   -0.1065 C   0  0  0  0  0  0  0  0  0  0  0  0
   -0.4841    0.2942    0.0293 N   0  0  0  0  0  0  0  0  0  0  0  0
    0.1408    0.8922    1.1041 C   0  0  0  0  0  0  0  0  0  0  0  0
   -0.4278    1.3496    2.0932 O   0  0  0  0  0  0  0  0  0  0  0  0
    1.6646    0.9804    1.0139 C   0  0  0  0  0  0  0  0  0  0  0  0
    2.2719    1.5066   -0.3018 C   0  0  0  0  0  0  0  0  0  0  0  0
    3.3678    0.4672   -0.6087 C   0  0  0  0  0  0  0  0  0  0  0  0
    2.7047   -0.8363   -1.0844 C   0  0  0  0  0  0  0  0  0  0  0  0
    2.1255   -1.4198    0.2120 C   0  0  0  0  0  0  0  0  0  0  0  0
    2.4423   -0.3353    1.2550 C   0  0  0  0  0  0  0  0  0  0  0  0
    3.8446    0.0837    0.7939 C   0  0  0  0  0  0  0  0  0  0  0  0
   -2.2578    0.8339   -3.4627 H   0  0  0  0  0  0  0  0  0  0  0  0
   -1.1462    1.6396   -2.3564 H   0  0  0  0  0  0  0  0  0  0  0  0
   -0.8743   -0.0646   -2.8345 H   0  0  0  0  0  0  0  0  0  0  0  0
   -4.2679    0.1531   -2.5633 H   0  0  0  0  0  0  0  0  0  0  0  0
   -5.6873   -0.5621   -0.6861 H   0  0  0  0  0  0  0  0  0  0  0  0
   -4.7022   -0.9706    1.5294 H   0  0  0  0  0  0  0  0  0  0  0  0
   -2.2727   -0.0105    3.0098 H   0  0  0  0  0  0  0  0  0  0  0  0
   -1.1330   -1.1828    2.2663 H   0  0  0  0  0  0  0  0  0  0  0  0
   -2.7464   -1.6862    2.6976 H   0  0  0  0  0  0  0  0  0  0  0  0
    0.0357    0.3150   -0.8338 H   0  0  0  0  0  0  0  0  0  0  0  0
    1.9565    1.6907    1.8029 H   0  0  0  0  0  0  0  0  0  0  0  0
    1.5635    1.6274   -1.1251 H   0  0  0  0  0  0  0  0  0  0  0  0
    2.7309    2.4872   -0.1246 H   0  0  0  0  0  0  0  0  0  0  0  0
    4.1410    0.8371   -1.2849 H   0  0  0  0  0  0  0  0  0  0  0  0
    3.4479   -1.5226   -1.5055 H   0  0  0  0  0  0  0  0  0  0  0  0
    1.9345   -0.6628   -1.8423 H   0  0  0  0  0  0  0  0  0  0  0  0
    2.6535   -2.3481    0.4634 H   0  0  0  0  0  0  0  0  0  0  0  0
    1.0671   -1.6715    0.1310 H   0  0  0  0  0  0  0  0  0  0  0  0
    2.3825   -0.6949    2.2847 H   0  0  0  0  0  0  0  0  0  0  0  0
    4.5667   -0.7399    0.7952 H   0  0  0  0  0  0  0  0  0  0  0  0
    4.2543    0.9283    1.3581 H   0  0  0  0  0  0  0  0  0  0  0  0
  1  2  1  0
  2  3  2  0
  3  4  1  0
  4  5  2  0
  5  6  1  0
  6  7  1  0
  6  8  2  0
  8  9  1  0
  9 10  1  0
 10 11  2  0
 10 12  1  0
 12 13  1  0
 13 14  1  0
 14 15  1  0
 15 16  1  0
 16 17  1  0
 17 18  1  0
  8  2  1  0
 17 12  1  0
 18 14  1  0
  1 19  1  0
  1 20  1  0
  1 21  1  0
  3 22  1  0
  4 23  1  0
  5 24  1  0
  7 25  1  0
  7 26  1  0
  7 27  1  0
  9 28  1  0
 12 29  1  0
 13 30  1  0
 13 31  1  0
 14 32  1  0
 15 33  1  0
 15 34  1  0
 16 35  1  0
 16 36  1  0
 17 37  1  0
 18 38  1  0
 18 39  1  0
M  END
$$$$
