
     RDKit          3D

 53 55  0  0  0  0  0  0  0  0999 V2000
    3.3102   -2.0756    2.8603 C   0  0  0  0  0  0  0  0  0  0  0  0
    4.1738   -1.0884    2.3108 O   0  0  0  0  0  0  0  0  0  0  0  0
    3.7170   -0.4012    1.2174 C   0  0  0  0  0  0  0  0  0  0  0  0
    2.4376   -0.5037    0.6754 C   0  0  0  0  0  0  0  0  0  0  0  0
    2.0888    0.2679   -0.4421 C   0  0  0  0  0  0  0  0  0  0  0  0
    0.7324    0.1738   -1.0219 C   0  0  0  0  0  0  0  0  0  0  0  0
   -0.1630   -0.6229   -0.5313 N   0  0  0  0  0  0  0  0  0  0  0  0
   -1.4072   -0.6173   -1.1262 N   0  0  0  0  0  0  0  0  0  0  0  0
   -2.0928    0.6670   -1.3610 C   0  0  0  0  0  0  0  0  0  0  0  0
   -3.5965    0.5048   -1.6668 C   0  0  0  0  0  0  0  0  0  0  0  0
   -4.2865   -0.2429   -0.5992 N   0  0  0  0  0  0  0  0  0  0  0  0
   -5.6445   -0.1046   -0.3674 C   0  0  0  0  0  0  0  0  0  0  0  0
   -6.2311   -0.5134    0.8434 C   0  0  0  0  0  0  0  0  0  0  0  0
   -7.6030   -0.3738    1.0910 C   0  0  0  0  0  0  0  0  0  0  0  0
   -8.4248    0.1834    0.1210 C   0  0  0  0  0  0  0  0  0  0  0  0
  -10.1101    0.3564    0.4148 Cl  0  0  0  0  0  0  0  0  0  0  0  0
   -7.8835    0.6014   -1.0873 C   0  0  0  0  0  0  0  0  0  0  0  0
   -6.5093    0.4581   -1.3217 C   0  0  0  0  0  0  0  0  0  0  0  0
   -3.4823   -1.2480    0.1296 C   0  0  0  0  0  0  0  0  0  0  0  0
   -2.2818   -1.7226   -0.7076 C   0  0  0  0  0  0  0  0  0  0  0  0
    3.0051    1.1514   -1.0288 C   0  0  0  0  0  0  0  0  0  0  0  0
    4.2901    1.2652   -0.5004 C   0  0  0  0  0  0  0  0  0  0  0  0
    5.2673    2.1028   -0.9690 O   0  0  0  0  0  0  0  0  0  0  0  0
    5.0423    2.7197   -2.2297 C   0  0  0  0  0  0  0  0  0  0  0  0
    4.6287    0.4786    0.6127 C   0  0  0  0  0  0  0  0  0  0  0  0
    5.9105    0.6043    1.1656 O   0  0  0  0  0  0  0  0  0  0  0  0
    6.8107   -0.2701    0.5755 C   0  0  0  0  0  0  0  0  0  0  0  0
    8.1505   -0.0857    1.2242 C   0  0  0  0  0  0  0  0  0  0  0  0
    6.5919   -1.0681   -0.3280 O   0  0  0  0  0  0  0  0  0  0  0  0
    3.0631   -2.8436    2.1199 H   0  0  0  0  0  0  0  0  0  0  0  0
    2.4057   -1.6194    3.2756 H   0  0  0  0  0  0  0  0  0  0  0  0
    3.8426   -2.5644    3.6818 H   0  0  0  0  0  0  0  0  0  0  0  0
    1.6923   -1.1684    1.1004 H   0  0  0  0  0  0  0  0  0  0  0  0
    0.5323    0.8048   -1.9044 H   0  0  0  0  0  0  0  0  0  0  0  0
   -1.9733    1.2733   -0.4548 H   0  0  0  0  0  0  0  0  0  0  0  0
   -1.6040    1.1783   -2.1952 H   0  0  0  0  0  0  0  0  0  0  0  0
   -3.7267   -0.0256   -2.6178 H   0  0  0  0  0  0  0  0  0  0  0  0
   -4.0177    1.5113   -1.7742 H   0  0  0  0  0  0  0  0  0  0  0  0
   -5.6188   -0.9308    1.6384 H   0  0  0  0  0  0  0  0  0  0  0  0
   -8.0130   -0.6985    2.0431 H   0  0  0  0  0  0  0  0  0  0  0  0
   -8.5171    1.0351   -1.8557 H   0  0  0  0  0  0  0  0  0  0  0  0
   -6.1323    0.7794   -2.2887 H   0  0  0  0  0  0  0  0  0  0  0  0
   -4.0850   -2.1322    0.3685 H   0  0  0  0  0  0  0  0  0  0  0  0
   -3.1290   -0.8065    1.0688 H   0  0  0  0  0  0  0  0  0  0  0  0
   -2.6387   -2.1974   -1.6297 H   0  0  0  0  0  0  0  0  0  0  0  0
   -1.6955   -2.4688   -0.1597 H   0  0  0  0  0  0  0  0  0  0  0  0
    2.6953    1.7412   -1.8843 H   0  0  0  0  0  0  0  0  0  0  0  0
    4.8405    1.9756   -3.0075 H   0  0  0  0  0  0  0  0  0  0  0  0
    5.9557    3.2538   -2.5085 H   0  0  0  0  0  0  0  0  0  0  0  0
    4.2331    3.4542   -2.1664 H   0  0  0  0  0  0  0  0  0  0  0  0
    8.5147    0.9281    1.0396 H   0  0  0  0  0  0  0  0  0  0  0  0
    8.0734   -0.2791    2.2971 H   0  0  0  0  0  0  0  0  0  0  0  0
    8.8617   -0.7970    0.7945 H   0  0  0  0  0  0  0  0  0  0  0  0
  1  2  1  0
  2  3  1  0
  3  4  2  0
  4  5  1  0
  5  6  1  0
  6  7  2  3
  7  8  1  0
  8  9  1  0
  9 10  1  0
 10 11  1  0
 11 12  1  0
 12 13  2  0
 13 14  1  0
 14 15  2  0
 15 16  1  0
 15 17  1  0
 17 18  2  0
 11 19  1  0
 19 20  1  0
  5 21  2  0
 21 22  1  0
 22 23  1  0
 23 24  1  0
 22 25  2  0
 25 26  1  0
 26 27  1  0
 27 28  1  0
 27 29  2  0
 25  3  1  0
 20  8  1  0
 18 12  1  0
  1 30  1  0
  1 31  1  0
  1 32  1  0
  4 33  1  0
  6 34  1  0
  9 35  1  0
  9 36  1  0
 10 37  1  0
 10 38  1  0
 13 39  1  0
 14 40  1  0
 17 41  1  0
 18 42  1  0
 19 43  1  0
 19 44  1  0
 20 45  1  0
 20 46  1  0
 21 47  1  0
 24 48  1  0
 24 49  1  0
 24 50  1  0
 28 51  1  0
 28 52  1  0
 28 53  1  0
M  END
$$$$
