
     RDKit          3D

 34 36  0  0  0  0  0  0  0  0999 V2000
    4.7188   -1.4853    0.9811 C   0  0  0  0  0  0  0  0  0  0  0  0
    3.8425   -0.5288    0.3309 N   0  0  0  0  0  0  0  0  0  0  0  0
    2.4145   -0.7335    0.4890 C   0  0  0  0  0  0  0  0  0  0  0  0
    1.5848    0.1782   -0.3503 C   0  0  0  0  0  0  0  0  0  0  0  0
    0.2279   -0.0510   -0.6001 C   0  0  0  0  0  0  0  0  0  0  0  0
   -0.4960    0.8919   -1.3319 C   0  0  0  0  0  0  0  0  0  0  0  0
   -1.9228    0.7221   -1.6648 C   0  0  0  0  0  0  0  0  0  0  0  0
   -2.3144    1.0506   -2.7837 O   0  0  0  0  0  0  0  0  0  0  0  0
   -2.8982    0.1402   -0.7093 C   0  0  0  0  0  0  0  0  0  0  0  0
   -2.7421    0.2903    0.6759 C   0  0  0  0  0  0  0  0  0  0  0  0
   -3.6707   -0.2800    1.5510 C   0  0  0  0  0  0  0  0  0  0  0  0
   -4.7612   -0.9910    1.0498 C   0  0  0  0  0  0  0  0  0  0  0  0
   -4.9373   -1.1207   -0.3274 C   0  0  0  0  0  0  0  0  0  0  0  0
   -4.0181   -0.5454   -1.2011 C   0  0  0  0  0  0  0  0  0  0  0  0
   -4.2742   -0.6887   -2.5386 O   0  0  0  0  0  0  0  0  0  0  0  0
    0.1737    2.0140   -1.8001 C   0  0  0  0  0  0  0  0  0  0  0  0
    1.4816    2.2672   -1.5502 N   0  0  0  0  0  0  0  0  0  0  0  0
    2.1554    1.3406   -0.8404 C   0  0  0  0  0  0  0  0  0  0  0  0
    3.4922    1.5821   -0.5964 N   0  0  0  0  0  0  0  0  0  0  0  0
    4.3604    0.6971   -0.0384 C   0  0  0  0  0  0  0  0  0  0  0  0
    5.5454    0.9989    0.0860 O   0  0  0  0  0  0  0  0  0  0  0  0
    5.7604   -1.3388    0.6818 H   0  0  0  0  0  0  0  0  0  0  0  0
    4.6387   -1.3555    2.0645 H   0  0  0  0  0  0  0  0  0  0  0  0
    4.4137   -2.4993    0.7070 H   0  0  0  0  0  0  0  0  0  0  0  0
    2.1963   -1.7746    0.2244 H   0  0  0  0  0  0  0  0  0  0  0  0
    2.1691   -0.5768    1.5460 H   0  0  0  0  0  0  0  0  0  0  0  0
   -0.2442   -0.9605   -0.2379 H   0  0  0  0  0  0  0  0  0  0  0  0
   -1.9186    0.8625    1.0948 H   0  0  0  0  0  0  0  0  0  0  0  0
   -3.5505   -0.1629    2.6258 H   0  0  0  0  0  0  0  0  0  0  0  0
   -5.4848   -1.4327    1.7310 H   0  0  0  0  0  0  0  0  0  0  0  0
   -5.7958   -1.6583   -0.7217 H   0  0  0  0  0  0  0  0  0  0  0  0
   -3.6886   -0.0655   -3.0247 H   0  0  0  0  0  0  0  0  0  0  0  0
   -0.3337    2.7669   -2.3991 H   0  0  0  0  0  0  0  0  0  0  0  0
    3.8759    2.4465   -0.9479 H   0  0  0  0  0  0  0  0  0  0  0  0
  1  2  1  0
  2  3  1  0
  3  4  1  0
  4  5  2  0
  5  6  1  0
  6  7  1  0
  7  8  2  0
  7  9  1  0
  9 10  2  0
 10 11  1  0
 11 12  2  0
 12 13  1  0
 13 14  2  0
 14 15  1  0
  6 16  2  0
 16 17  1  0
 17 18  2  0
 18 19  1  0
 19 20  1  0
 20 21  2  0
 20  2  1  0
 18  4  1  0
 14  9  1  0
  1 22  1  0
  1 23  1  0
  1 24  1  0
  3 25  1  0
  3 26  1  0
  5 27  1  0
 10 28  1  0
 11 29  1  0
 12 30  1  0
 13 31  1  0
 15 32  1  0
 16 33  1  0
 19 34  1  0
M  END
$$$$
