
     RDKit          3D

 58 62  0  0  0  0  0  0  0  0999 V2000
   -6.6015   -0.1518    0.5181 C   0  0  0  0  0  0  0  0  0  0  0  0
   -5.5924   -0.5986   -0.3751 O   0  0  0  0  0  0  0  0  0  0  0  0
   -4.9795    0.3324   -1.1669 C   0  0  0  0  0  0  0  0  0  0  0  0
   -5.2827    1.6986   -1.1638 C   0  0  0  0  0  0  0  0  0  0  0  0
   -4.6025    2.5786   -2.0088 C   0  0  0  0  0  0  0  0  0  0  0  0
   -3.6141    2.1016   -2.8629 C   0  0  0  0  0  0  0  0  0  0  0  0
   -3.3063    0.7425   -2.8750 C   0  0  0  0  0  0  0  0  0  0  0  0
   -3.9836   -0.1579   -2.0326 C   0  0  0  0  0  0  0  0  0  0  0  0
   -3.6134   -1.6299   -2.0688 C   0  0  0  0  0  0  0  0  0  0  0  0
   -2.7627   -2.0397   -0.9522 N   0  0  0  0  0  0  0  0  0  0  0  0
   -3.2746   -2.8843    0.0258 C   0  0  0  0  0  0  0  0  0  0  0  0
   -4.3945   -3.3900   -0.0215 O   0  0  0  0  0  0  0  0  0  0  0  0
   -2.4025   -3.2121    1.1907 C   0  0  0  0  0  0  0  0  0  0  0  0
   -2.9317   -4.0204    2.2096 C   0  0  0  0  0  0  0  0  0  0  0  0
   -2.1545   -4.3600    3.3135 C   0  0  0  0  0  0  0  0  0  0  0  0
   -0.8463   -3.8966    3.4017 C   0  0  0  0  0  0  0  0  0  0  0  0
   -0.3081   -3.0899    2.3923 C   0  0  0  0  0  0  0  0  0  0  0  0
   -1.0836   -2.7385    1.2824 C   0  0  0  0  0  0  0  0  0  0  0  0
   -0.6253   -1.9330    0.2155 N   0  0  0  0  0  0  0  0  0  0  0  0
    0.5623   -1.2871   -0.0799 C   0  0  0  0  0  0  0  0  0  0  0  0
    1.9838   -1.2110    0.9021 S   0  0  0  0  0  0  0  0  0  0  0  0
    3.0173   -0.0807   -0.0775 C   0  0  0  0  0  0  0  0  0  0  0  0
    4.3503    0.2081    0.6096 C   0  0  0  0  0  0  0  0  0  0  0  0
    4.8168   -0.5217    1.4868 O   0  0  0  0  0  0  0  0  0  0  0  0
    5.0339    1.3476    0.1777 N   0  0  0  0  0  0  0  0  0  0  0  0
    4.6259    2.1647   -0.9680 C   0  0  0  0  0  0  0  0  0  0  0  0
    5.7912    2.9465   -1.5629 C   0  0  0  0  0  0  0  0  0  0  0  0
    6.4744    3.8367   -0.5267 C   0  0  0  0  0  0  0  0  0  0  0  0
    6.4405    3.2480    0.8839 C   0  0  0  0  0  0  0  0  0  0  0  0
    6.2605    1.7347    0.8748 C   0  0  0  0  0  0  0  0  0  0  0  0
    0.4736   -0.6930   -1.2509 N   0  0  0  0  0  0  0  0  0  0  0  0
   -0.7826   -0.9046   -1.7379 N   0  0  0  0  0  0  0  0  0  0  0  0
   -1.4447   -1.6234   -0.8575 C   0  0  0  0  0  0  0  0  0  0  0  0
   -6.9687   -1.0219    1.0698 H   0  0  0  0  0  0  0  0  0  0  0  0
   -7.4477    0.2786   -0.0271 H   0  0  0  0  0  0  0  0  0  0  0  0
   -6.1981    0.5583    1.2472 H   0  0  0  0  0  0  0  0  0  0  0  0
   -6.0458    2.1127   -0.5132 H   0  0  0  0  0  0  0  0  0  0  0  0
   -4.8437    3.6384   -1.9963 H   0  0  0  0  0  0  0  0  0  0  0  0
   -3.0780    2.7856   -3.5158 H   0  0  0  0  0  0  0  0  0  0  0  0
   -2.5196    0.3854   -3.5380 H   0  0  0  0  0  0  0  0  0  0  0  0
   -3.0811   -1.8672   -2.9998 H   0  0  0  0  0  0  0  0  0  0  0  0
   -4.5311   -2.2291   -2.1016 H   0  0  0  0  0  0  0  0  0  0  0  0
   -3.9548   -4.3883    2.1449 H   0  0  0  0  0  0  0  0  0  0  0  0
   -2.5682   -4.9857    4.1014 H   0  0  0  0  0  0  0  0  0  0  0  0
   -0.2352   -4.1632    4.2621 H   0  0  0  0  0  0  0  0  0  0  0  0
    0.7175   -2.7746    2.5307 H   0  0  0  0  0  0  0  0  0  0  0  0
    2.4633    0.8552   -0.1994 H   0  0  0  0  0  0  0  0  0  0  0  0
    3.2239   -0.5247   -1.0563 H   0  0  0  0  0  0  0  0  0  0  0  0
    3.8466    2.8508   -0.6169 H   0  0  0  0  0  0  0  0  0  0  0  0
    4.1872    1.5232   -1.7382 H   0  0  0  0  0  0  0  0  0  0  0  0
    6.5283    2.2378   -1.9602 H   0  0  0  0  0  0  0  0  0  0  0  0
    5.4512    3.5533   -2.4091 H   0  0  0  0  0  0  0  0  0  0  0  0
    7.5124    4.0065   -0.8345 H   0  0  0  0  0  0  0  0  0  0  0  0
    5.9963    4.8231   -0.5100 H   0  0  0  0  0  0  0  0  0  0  0  0
    7.3542    3.5210    1.4232 H   0  0  0  0  0  0  0  0  0  0  0  0
    5.6051    3.7003    1.4335 H   0  0  0  0  0  0  0  0  0  0  0  0
    6.2447    1.3607    1.9042 H   0  0  0  0  0  0  0  0  0  0  0  0
    7.0981    1.2478    0.3613 H   0  0  0  0  0  0  0  0  0  0  0  0
  1  2  1  0
  2  3  1  0
  3  4  2  0
  4  5  1  0
  5  6  2  0
  6  7  1  0
  7  8  2  0
  8  9  1  0
  9 10  1  0
 10 11  1  0
 11 12  2  0
 11 13  1  0
 13 14  2  0
 14 15  1  0
 15 16  2  0
 16 17  1  0
 17 18  2  0
 18 19  1  0
 19 20  1  0
 20 21  1  0
 21 22  1  0
 22 23  1  0
 23 24  2  0
 23 25  1  0
 25 26  1  0
 26 27  1  0
 27 28  1  0
 28 29  1  0
 29 30  1  0
 20 31  2  0
 31 32  1  0
 32 33  2  0
  8  3  1  0
 33 10  1  0
 18 13  1  0
 33 19  1  0
 30 25  1  0
  1 34  1  0
  1 35  1  0
  1 36  1  0
  4 37  1  0
  5 38  1  0
  6 39  1  0
  7 40  1  0
  9 41  1  0
  9 42  1  0
 14 43  1  0
 15 44  1  0
 16 45  1  0
 17 46  1  0
 22 47  1  0
 22 48  1  0
 26 49  1  0
 26 50  1  0
 27 51  1  0
 27 52  1  0
 28 53  1  0
 28 54  1  0
 29 55  1  0
 29 56  1  0
 30 57  1  0
 30 58  1  0
M  END
$$$$
