
     RDKit          3D

 46 48  0  0  0  0  0  0  0  0999 V2000
   -0.7587    3.9051   -0.4819 N   0  0  0  0  0  0  0  0  0  0  0  0
    0.1760    2.9371   -0.4850 C   0  0  0  0  0  0  0  0  0  0  0  0
    1.3460    3.1038   -1.0251 N   0  0  0  0  0  0  0  0  0  0  0  0
    2.0445    1.8040   -0.8008 C   0  0  0  0  0  0  0  0  0  0  0  0
    1.0541    0.8667   -0.0561 C   0  0  0  0  0  0  0  0  0  0  0  0
    1.6199    0.3722    1.2843 C   0  0  0  0  0  0  0  0  0  0  0  0
    2.7600   -0.6077    1.1095 C   0  0  0  0  0  0  0  0  0  0  0  0
    2.5292   -1.8933    0.5846 C   0  0  0  0  0  0  0  0  0  0  0  0
    3.5876   -2.7892    0.4033 C   0  0  0  0  0  0  0  0  0  0  0  0
    4.8792   -2.4045    0.7553 C   0  0  0  0  0  0  0  0  0  0  0  0
    5.9448   -3.2408    0.5959 O   0  0  0  0  0  0  0  0  0  0  0  0
    5.1252   -1.1452    1.2900 C   0  0  0  0  0  0  0  0  0  0  0  0
    4.0685   -0.2485    1.4689 C   0  0  0  0  0  0  0  0  0  0  0  0
   -0.0953    1.7485    0.1055 N   0  0  0  0  0  0  0  0  0  0  0  0
   -1.3460    1.3256    0.7070 C   0  0  0  0  0  0  0  0  0  0  0  0
   -2.3183    0.7437   -0.3392 C   0  0  0  0  0  0  0  0  0  0  0  0
   -3.7820    0.8707    0.1387 C   0  0  0  0  0  0  0  0  0  0  0  0
   -4.2487   -0.3809    0.8819 C   0  0  0  0  0  0  0  0  0  0  0  0
   -4.2508   -1.5994   -0.0386 C   0  0  0  0  0  0  0  0  0  0  0  0
   -3.1656   -1.5463   -1.1210 C   0  0  0  0  0  0  0  0  0  0  0  0
   -1.9502   -0.7214   -0.6879 C   0  0  0  0  0  0  0  0  0  0  0  0
   -0.4597    4.6786   -1.0674 H   0  0  0  0  0  0  0  0  0  0  0  0
   -1.6755    3.5837   -0.7501 H   0  0  0  0  0  0  0  0  0  0  0  0
    2.3324    1.3768   -1.7682 H   0  0  0  0  0  0  0  0  0  0  0  0
    2.9628    1.9959   -0.2322 H   0  0  0  0  0  0  0  0  0  0  0  0
    0.7959    0.0231   -0.7094 H   0  0  0  0  0  0  0  0  0  0  0  0
    1.9411    1.2302    1.8926 H   0  0  0  0  0  0  0  0  0  0  0  0
    0.8469   -0.1327    1.8785 H   0  0  0  0  0  0  0  0  0  0  0  0
    1.5210   -2.2046    0.3163 H   0  0  0  0  0  0  0  0  0  0  0  0
    3.3856   -3.7771   -0.0049 H   0  0  0  0  0  0  0  0  0  0  0  0
    5.6382   -4.0773    0.2130 H   0  0  0  0  0  0  0  0  0  0  0  0
    6.1386   -0.8610    1.5681 H   0  0  0  0  0  0  0  0  0  0  0  0
    4.2775    0.7325    1.8900 H   0  0  0  0  0  0  0  0  0  0  0  0
   -1.8044    2.1971    1.1960 H   0  0  0  0  0  0  0  0  0  0  0  0
   -1.1778    0.6029    1.5176 H   0  0  0  0  0  0  0  0  0  0  0  0
   -2.2397    1.3456   -1.2599 H   0  0  0  0  0  0  0  0  0  0  0  0
   -4.4323    1.0181   -0.7349 H   0  0  0  0  0  0  0  0  0  0  0  0
   -3.9314    1.7582    0.7661 H   0  0  0  0  0  0  0  0  0  0  0  0
   -3.5905   -0.5672    1.7383 H   0  0  0  0  0  0  0  0  0  0  0  0
   -5.2552   -0.2192    1.2878 H   0  0  0  0  0  0  0  0  0  0  0  0
   -5.2302   -1.6820   -0.5280 H   0  0  0  0  0  0  0  0  0  0  0  0
   -4.1300   -2.5035    0.5714 H   0  0  0  0  0  0  0  0  0  0  0  0
   -2.8576   -2.5667   -1.3758 H   0  0  0  0  0  0  0  0  0  0  0  0
   -3.5892   -1.1074   -2.0358 H   0  0  0  0  0  0  0  0  0  0  0  0
   -1.2013   -0.7230   -1.4929 H   0  0  0  0  0  0  0  0  0  0  0  0
   -1.4847   -1.2210    0.1750 H   0  0  0  0  0  0  0  0  0  0  0  0
  1  2  1  0
  2  3  2  0
  3  4  1  0
  4  5  1  0
  5  6  1  0
  6  7  1  0
  7  8  2  0
  8  9  1  0
  9 10  2  0
 10 11  1  0
 10 12  1  0
 12 13  2  0
  5 14  1  0
 14 15  1  0
 15 16  1  0
 16 17  1  0
 17 18  1  0
 18 19  1  0
 19 20  1  0
 20 21  1  0
 14  2  1  0
 21 16  1  0
 13  7  1  0
  1 22  1  0
  1 23  1  0
  4 24  1  0
  4 25  1  0
  5 26  1  0
  6 27  1  0
  6 28  1  0
  8 29  1  0
  9 30  1  0
 11 31  1  0
 12 32  1  0
 13 33  1  0
 15 34  1  0
 15 35  1  0
 16 36  1  0
 17 37  1  0
 17 38  1  0
 18 39  1  0
 18 40  1  0
 19 41  1  0
 19 42  1  0
 20 43  1  0
 20 44  1  0
 21 45  1  0
 21 46  1  0
M  END
$$$$
