
     RDKit          3D

 52 53  0  0  0  0  0  0  0  0999 V2000
    8.0470   -1.8427   -0.9528 C   0  0  0  0  0  0  0  0  0  0  0  0
    6.6677   -2.1257   -0.7371 O   0  0  0  0  0  0  0  0  0  0  0  0
    5.8964   -1.1114   -0.2364 C   0  0  0  0  0  0  0  0  0  0  0  0
    6.3575    0.1541    0.1270 C   0  0  0  0  0  0  0  0  0  0  0  0
    5.4674    1.1023    0.6279 C   0  0  0  0  0  0  0  0  0  0  0  0
    4.1139    0.7915    0.7630 C   0  0  0  0  0  0  0  0  0  0  0  0
    3.6373   -0.4758    0.4048 C   0  0  0  0  0  0  0  0  0  0  0  0
    2.2630   -0.7091    0.5781 N   0  0  0  0  0  0  0  0  0  0  0  0
    1.5428   -1.8603    0.3206 C   0  0  0  0  0  0  0  0  0  0  0  0
    1.9869   -2.9148   -0.1230 O   0  0  0  0  0  0  0  0  0  0  0  0
    0.0430   -1.7244    0.6373 C   0  0  0  0  0  0  0  0  0  0  0  0
   -0.3327   -0.4056    1.1790 N   0  0  0  0  0  0  0  0  0  0  0  0
   -0.3688   -0.2832    2.6285 C   0  0  0  0  0  0  0  0  0  0  0  0
   -0.8108    0.6465    0.4111 C   0  0  0  0  0  0  0  0  0  0  0  0
   -1.1337    1.7355    0.8744 O   0  0  0  0  0  0  0  0  0  0  0  0
   -0.8571    0.4265   -1.0538 C   0  0  0  0  0  0  0  0  0  0  0  0
   -2.0064    0.4323   -1.7440 C   0  0  0  0  0  0  0  0  0  0  0  0
   -3.3403    0.6307   -1.1591 C   0  0  0  0  0  0  0  0  0  0  0  0
   -3.9621    1.8734   -1.3640 C   0  0  0  0  0  0  0  0  0  0  0  0
   -5.2243    2.1302   -0.8326 C   0  0  0  0  0  0  0  0  0  0  0  0
   -5.9293    3.2946   -0.9609 O   0  0  0  0  0  0  0  0  0  0  0  0
   -5.2578    4.3833   -1.5835 C   0  0  0  0  0  0  0  0  0  0  0  0
   -5.8697    1.1325   -0.1030 C   0  0  0  0  0  0  0  0  0  0  0  0
   -5.2610   -0.1085    0.1081 C   0  0  0  0  0  0  0  0  0  0  0  0
   -3.9909   -0.3682   -0.4102 C   0  0  0  0  0  0  0  0  0  0  0  0
   -3.3307   -1.5610   -0.2653 O   0  0  0  0  0  0  0  0  0  0  0  0
   -3.8070   -2.4358    0.7499 C   0  0  0  0  0  0  0  0  0  0  0  0
    4.5367   -1.4207   -0.0929 C   0  0  0  0  0  0  0  0  0  0  0  0
    8.5496   -1.5921   -0.0112 H   0  0  0  0  0  0  0  0  0  0  0  0
    8.5189   -2.7417   -1.3477 H   0  0  0  0  0  0  0  0  0  0  0  0
    8.1696   -1.0442   -1.6918 H   0  0  0  0  0  0  0  0  0  0  0  0
    7.4030    0.4314    0.0381 H   0  0  0  0  0  0  0  0  0  0  0  0
    5.8295    2.0870    0.9163 H   0  0  0  0  0  0  0  0  0  0  0  0
    3.4420    1.5489    1.1537 H   0  0  0  0  0  0  0  0  0  0  0  0
    1.7193    0.0589    0.9579 H   0  0  0  0  0  0  0  0  0  0  0  0
   -0.2240   -2.4924    1.3700 H   0  0  0  0  0  0  0  0  0  0  0  0
   -0.5076   -1.9284   -0.2857 H   0  0  0  0  0  0  0  0  0  0  0  0
   -1.2105   -0.8744    3.0029 H   0  0  0  0  0  0  0  0  0  0  0  0
   -0.4995    0.7541    2.9481 H   0  0  0  0  0  0  0  0  0  0  0  0
    0.5663   -0.6694    3.0459 H   0  0  0  0  0  0  0  0  0  0  0  0
    0.0897    0.2633   -1.5525 H   0  0  0  0  0  0  0  0  0  0  0  0
   -1.9928    0.2761   -2.8191 H   0  0  0  0  0  0  0  0  0  0  0  0
   -3.4302    2.6266   -1.9352 H   0  0  0  0  0  0  0  0  0  0  0  0
   -5.0525    4.1693   -2.6391 H   0  0  0  0  0  0  0  0  0  0  0  0
   -4.3410    4.6444   -1.0442 H   0  0  0  0  0  0  0  0  0  0  0  0
   -5.9240    5.2525   -1.5455 H   0  0  0  0  0  0  0  0  0  0  0  0
   -6.8577    1.3224    0.3117 H   0  0  0  0  0  0  0  0  0  0  0  0
   -5.8126   -0.8530    0.6762 H   0  0  0  0  0  0  0  0  0  0  0  0
   -3.0875   -3.2566    0.8470 H   0  0  0  0  0  0  0  0  0  0  0  0
   -4.7704   -2.8730    0.4702 H   0  0  0  0  0  0  0  0  0  0  0  0
   -3.8661   -1.9280    1.7234 H   0  0  0  0  0  0  0  0  0  0  0  0
    4.2114   -2.4154   -0.3804 H   0  0  0  0  0  0  0  0  0  0  0  0
  1  2  1  0
  2  3  1  0
  3  4  2  0
  4  5  1  0
  5  6  2  0
  6  7  1  0
  7  8  1  0
  8  9  1  0
  9 10  2  0
  9 11  1  0
 11 12  1  0
 12 13  1  0
 12 14  1  0
 14 15  2  0
 14 16  1  0
 16 17  2  3
 17 18  1  0
 18 19  2  0
 19 20  1  0
 20 21  1  0
 21 22  1  0
 20 23  2  0
 23 24  1  0
 24 25  2  0
 25 26  1  0
 26 27  1  0
  7 28  2  0
 28  3  1  0
 25 18  1  0
  1 29  1  0
  1 30  1  0
  1 31  1  0
  4 32  1  0
  5 33  1  0
  6 34  1  0
  8 35  1  0
 11 36  1  0
 11 37  1  0
 13 38  1  0
 13 39  1  0
 13 40  1  0
 16 41  1  0
 17 42  1  0
 19 43  1  0
 22 44  1  0
 22 45  1  0
 22 46  1  0
 23 47  1  0
 24 48  1  0
 27 49  1  0
 27 50  1  0
 27 51  1  0
 28 52  1  0
M  END
$$$$
