
     RDKit          3D

 56 60  0  0  0  0  0  0  0  0999 V2000
    4.5179    2.5699    0.6087 C   0  0  0  0  0  0  0  0  0  0  0  0
    4.5655    1.1541    0.1701 C   0  0  0  0  0  0  0  0  0  0  0  0
    3.9757    0.7834   -0.9741 N   0  0  0  0  0  0  0  0  0  0  0  0
    4.2058   -0.5479   -1.0529 N   0  0  0  0  0  0  0  0  0  0  0  0
    3.6888   -1.2818   -2.2056 C   0  0  0  0  0  0  0  0  0  0  0  0
    2.4421   -2.0722   -1.8795 C   0  0  0  0  0  0  0  0  0  0  0  0
    2.3515   -3.4242   -2.2433 C   0  0  0  0  0  0  0  0  0  0  0  0
    1.2019   -4.1614   -1.9564 C   0  0  0  0  0  0  0  0  0  0  0  0
    0.1222   -3.5525   -1.3170 C   0  0  0  0  0  0  0  0  0  0  0  0
    0.1791   -2.1979   -0.9707 C   0  0  0  0  0  0  0  0  0  0  0  0
   -1.0002   -1.5918   -0.2868 C   0  0  0  0  0  0  0  0  0  0  0  0
   -1.7653   -2.3114    0.3441 O   0  0  0  0  0  0  0  0  0  0  0  0
   -1.1646   -0.2306   -0.4461 N   0  0  0  0  0  0  0  0  0  0  0  0
   -2.2845    0.5429    0.1021 C   0  0  0  0  0  0  0  0  0  0  0  0
   -2.3550    0.4436    1.6472 C   0  0  0  0  0  0  0  0  0  0  0  0
   -3.5065    1.3061    2.1938 C   0  0  0  0  0  0  0  0  0  0  0  0
   -4.8333    0.8250    1.5817 C   0  0  0  0  0  0  0  0  0  0  0  0
   -4.7882    0.9552    0.0496 C   0  0  0  0  0  0  0  0  0  0  0  0
   -4.5446    2.4253   -0.3267 C   0  0  0  0  0  0  0  0  0  0  0  0
   -3.2157    2.9082    0.2756 C   0  0  0  0  0  0  0  0  0  0  0  0
   -3.2711    2.7739    1.8051 C   0  0  0  0  0  0  0  0  0  0  0  0
   -2.0711    2.0370   -0.2655 C   0  0  0  0  0  0  0  0  0  0  0  0
   -3.6383    0.0919   -0.4993 C   0  0  0  0  0  0  0  0  0  0  0  0
    1.3413   -1.4645   -1.2478 C   0  0  0  0  0  0  0  0  0  0  0  0
    4.9395   -1.0403    0.0017 C   0  0  0  0  0  0  0  0  0  0  0  0
    5.3157   -2.4684    0.1417 C   0  0  0  0  0  0  0  0  0  0  0  0
    5.1737    0.0526    0.8032 C   0  0  0  0  0  0  0  0  0  0  0  0
    6.1062    0.1165    2.4261 Br  0  0  0  0  0  0  0  0  0  0  0  0
    4.0541    2.6505    1.5970 H   0  0  0  0  0  0  0  0  0  0  0  0
    5.5283    2.9880    0.6630 H   0  0  0  0  0  0  0  0  0  0  0  0
    3.9361    3.1863   -0.0849 H   0  0  0  0  0  0  0  0  0  0  0  0
    3.4720   -0.5600   -3.0018 H   0  0  0  0  0  0  0  0  0  0  0  0
    4.4992   -1.9289   -2.5589 H   0  0  0  0  0  0  0  0  0  0  0  0
    3.1798   -3.9198   -2.7463 H   0  0  0  0  0  0  0  0  0  0  0  0
    1.1449   -5.2126   -2.2290 H   0  0  0  0  0  0  0  0  0  0  0  0
   -0.7688   -4.1357   -1.0912 H   0  0  0  0  0  0  0  0  0  0  0  0
   -0.6021    0.2284   -1.1495 H   0  0  0  0  0  0  0  0  0  0  0  0
   -1.4032    0.7662    2.0896 H   0  0  0  0  0  0  0  0  0  0  0  0
   -2.5067   -0.5929    1.9696 H   0  0  0  0  0  0  0  0  0  0  0  0
   -3.5488    1.2158    3.2850 H   0  0  0  0  0  0  0  0  0  0  0  0
   -5.0198   -0.2186    1.8638 H   0  0  0  0  0  0  0  0  0  0  0  0
   -5.6657    1.4165    1.9825 H   0  0  0  0  0  0  0  0  0  0  0  0
   -5.7389    0.6175   -0.3781 H   0  0  0  0  0  0  0  0  0  0  0  0
   -5.3701    3.0478    0.0397 H   0  0  0  0  0  0  0  0  0  0  0  0
   -4.5237    2.5345   -1.4180 H   0  0  0  0  0  0  0  0  0  0  0  0
   -3.0449    3.9555    0.0024 H   0  0  0  0  0  0  0  0  0  0  0  0
   -4.0750    3.4021    2.2079 H   0  0  0  0  0  0  0  0  0  0  0  0
   -2.3340    3.1334    2.2477 H   0  0  0  0  0  0  0  0  0  0  0  0
   -1.1127    2.3913    0.1375 H   0  0  0  0  0  0  0  0  0  0  0  0
   -2.0052    2.1519   -1.3559 H   0  0  0  0  0  0  0  0  0  0  0  0
   -3.6074    0.1635   -1.5944 H   0  0  0  0  0  0  0  0  0  0  0  0
   -3.8385   -0.9608   -0.2667 H   0  0  0  0  0  0  0  0  0  0  0  0
    1.4155   -0.4216   -0.9456 H   0  0  0  0  0  0  0  0  0  0  0  0
    4.4278   -3.0853    0.3113 H   0  0  0  0  0  0  0  0  0  0  0  0
    5.8251   -2.8286   -0.7575 H   0  0  0  0  0  0  0  0  0  0  0  0
    5.9944   -2.6253    0.9852 H   0  0  0  0  0  0  0  0  0  0  0  0
  1  2  1  0
  2  3  2  0
  3  4  1  0
  4  5  1  0
  5  6  1  0
  6  7  2  0
  7  8  1  0
  8  9  2  0
  9 10  1  0
 10 11  1  0
 11 12  2  0
 11 13  1  0
 13 14  1  0
 14 15  1  0
 15 16  1  0
 16 17  1  0
 17 18  1  0
 18 19  1  0
 19 20  1  0
 20 21  1  0
 20 22  1  0
 18 23  1  0
 10 24  2  0
  4 25  1  0
 25 26  1  0
 25 27  2  0
 27 28  1  0
 27  2  1  0
 24  6  1  0
 22 14  1  0
 23 14  1  0
 21 16  1  0
  1 29  1  0
  1 30  1  0
  1 31  1  0
  5 32  1  0
  5 33  1  0
  7 34  1  0
  8 35  1  0
  9 36  1  0
 13 37  1  0
 15 38  1  0
 15 39  1  0
 16 40  1  0
 17 41  1  0
 17 42  1  0
 18 43  1  0
 19 44  1  0
 19 45  1  0
 20 46  1  0
 21 47  1  0
 21 48  1  0
 22 49  1  0
 22 50  1  0
 23 51  1  0
 23 52  1  0
 24 53  1  0
 26 54  1  0
 26 55  1  0
 26 56  1  0
M  END
$$$$
