
     RDKit          3D

 51 53  0  0  0  0  0  0  0  0999 V2000
   -0.0160    5.8574   -0.3087 C   0  0  0  0  0  0  0  0  0  0  0  0
   -1.0675    4.7752   -0.5121 C   0  0  0  0  0  0  0  0  0  0  0  0
   -0.9291    4.1333   -1.8930 C   0  0  0  0  0  0  0  0  0  0  0  0
   -2.1975    2.8521   -2.1820 S   0  0  0  0  0  0  0  0  0  0  0  0
   -1.4958    1.4415   -1.3329 C   0  0  0  0  0  0  0  0  0  0  0  0
   -2.1453    0.2295   -1.4385 C   0  0  0  0  0  0  0  0  0  0  0  0
   -1.5999   -0.8480   -0.7712 C   0  0  0  0  0  0  0  0  0  0  0  0
   -2.1998   -2.1042   -0.8229 N   0  0  0  0  0  0  0  0  0  0  0  0
   -1.6375   -3.1260    0.0784 C   0  0  0  0  0  0  0  0  0  0  0  0
   -2.3882   -4.4669   -0.0879 C   0  0  0  0  0  0  0  0  0  0  0  0
   -2.3666   -5.0306   -1.4581 N   0  0  0  0  0  0  0  0  0  0  0  0
   -1.3905   -6.1112   -1.5797 C   0  0  0  0  0  0  0  0  0  0  0  0
   -2.0994   -3.9799   -2.4666 C   0  0  0  0  0  0  0  0  0  0  0  0
   -2.7107   -2.6022   -2.1172 C   0  0  0  0  0  0  0  0  0  0  0  0
   -0.4967   -0.6881   -0.0214 N   0  0  0  0  0  0  0  0  0  0  0  0
    0.0808    0.5253    0.0270 C   0  0  0  0  0  0  0  0  0  0  0  0
    1.3039    0.6702    0.8431 C   0  0  0  0  0  0  0  0  0  0  0  0
    1.9565    1.9102    0.9845 C   0  0  0  0  0  0  0  0  0  0  0  0
    3.1217    2.0506    1.7545 C   0  0  0  0  0  0  0  0  0  0  0  0
    3.6656    0.9480    2.4092 C   0  0  0  0  0  0  0  0  0  0  0  0
    4.7901    0.9428    3.1865 O   0  0  0  0  0  0  0  0  0  0  0  0
    5.5010    2.1710    3.2931 C   0  0  0  0  0  0  0  0  0  0  0  0
    3.0326   -0.2886    2.2890 C   0  0  0  0  0  0  0  0  0  0  0  0
    1.8727   -0.4261    1.5167 C   0  0  0  0  0  0  0  0  0  0  0  0
   -0.3755    1.6073   -0.6195 N   0  0  0  0  0  0  0  0  0  0  0  0
    0.9952    5.4456   -0.4150 H   0  0  0  0  0  0  0  0  0  0  0  0
   -0.1408    6.6618   -1.0397 H   0  0  0  0  0  0  0  0  0  0  0  0
   -0.1054    6.2924    0.6914 H   0  0  0  0  0  0  0  0  0  0  0  0
   -0.9556    4.0270    0.2822 H   0  0  0  0  0  0  0  0  0  0  0  0
   -2.0629    5.2246   -0.3965 H   0  0  0  0  0  0  0  0  0  0  0  0
    0.0739    3.7259   -2.0502 H   0  0  0  0  0  0  0  0  0  0  0  0
   -1.0803    4.9018   -2.6623 H   0  0  0  0  0  0  0  0  0  0  0  0
   -3.0624    0.1369   -2.0047 H   0  0  0  0  0  0  0  0  0  0  0  0
   -1.7447   -2.7970    1.1193 H   0  0  0  0  0  0  0  0  0  0  0  0
   -0.5689   -3.2844   -0.1243 H   0  0  0  0  0  0  0  0  0  0  0  0
   -2.0167   -5.1901    0.6490 H   0  0  0  0  0  0  0  0  0  0  0  0
   -3.4429   -4.2999    0.1685 H   0  0  0  0  0  0  0  0  0  0  0  0
   -0.3720   -5.7756   -1.3500 H   0  0  0  0  0  0  0  0  0  0  0  0
   -1.3999   -6.5266   -2.5941 H   0  0  0  0  0  0  0  0  0  0  0  0
   -1.6419   -6.9333   -0.9013 H   0  0  0  0  0  0  0  0  0  0  0  0
   -2.4929   -4.3122   -3.4332 H   0  0  0  0  0  0  0  0  0  0  0  0
   -1.0173   -3.8365   -2.5903 H   0  0  0  0  0  0  0  0  0  0  0  0
   -3.8032   -2.6846   -2.0504 H   0  0  0  0  0  0  0  0  0  0  0  0
   -2.4838   -1.9197   -2.9454 H   0  0  0  0  0  0  0  0  0  0  0  0
    1.5564    2.7925    0.4866 H   0  0  0  0  0  0  0  0  0  0  0  0
    3.5732    3.0348    1.8166 H   0  0  0  0  0  0  0  0  0  0  0  0
    4.8878    2.9423    3.7712 H   0  0  0  0  0  0  0  0  0  0  0  0
    6.3738    1.9980    3.9302 H   0  0  0  0  0  0  0  0  0  0  0  0
    5.8637    2.5012    2.3139 H   0  0  0  0  0  0  0  0  0  0  0  0
    3.4463   -1.1568    2.7948 H   0  0  0  0  0  0  0  0  0  0  0  0
    1.4123   -1.4104    1.4441 H   0  0  0  0  0  0  0  0  0  0  0  0
  1  2  1  0
  2  3  1  0
  3  4  1  0
  4  5  1  0
  5  6  2  0
  6  7  1  0
  7  8  1  0
  8  9  1  0
  9 10  1  0
 10 11  1  0
 11 12  1  0
 11 13  1  0
 13 14  1  0
  7 15  2  0
 15 16  1  0
 16 17  1  0
 17 18  2  0
 18 19  1  0
 19 20  2  0
 20 21  1  0
 21 22  1  0
 20 23  1  0
 23 24  2  0
 16 25  2  0
 25  5  1  0
 14  8  1  0
 24 17  1  0
  1 26  1  0
  1 27  1  0
  1 28  1  0
  2 29  1  0
  2 30  1  0
  3 31  1  0
  3 32  1  0
  6 33  1  0
  9 34  1  0
  9 35  1  0
 10 36  1  0
 10 37  1  0
 12 38  1  0
 12 39  1  0
 12 40  1  0
 13 41  1  0
 13 42  1  0
 14 43  1  0
 14 44  1  0
 18 45  1  0
 19 46  1  0
 22 47  1  0
 22 48  1  0
 22 49  1  0
 23 50  1  0
 24 51  1  0
M  END
$$$$
