
     RDKit          3D

 44 46  0  0  0  0  0  0  0  0999 V2000
    5.1328   -0.8846   -0.8419 C   0  0  0  0  0  0  0  0  0  0  0  0
    4.7213    0.5725   -0.5926 C   0  0  0  0  0  0  0  0  0  0  0  0
    5.8845    1.4918   -1.0087 C   0  0  0  0  0  0  0  0  0  0  0  0
    4.4409    0.7981    0.8984 C   0  0  0  0  0  0  0  0  0  0  0  0
    3.4801    0.8958   -1.4535 C   0  0  0  0  0  0  0  0  0  0  0  0
    3.5614    1.6313   -2.4432 O   0  0  0  0  0  0  0  0  0  0  0  0
    2.1502    0.2594   -1.0888 C   0  0  0  0  0  0  0  0  0  0  0  0
    1.0952    1.4871   -0.2582 S   0  0  0  0  0  0  0  0  0  0  0  0
   -0.4226    0.5475   -0.0809 C   0  0  0  0  0  0  0  0  0  0  0  0
   -0.3060   -0.7904   -0.2957 N   0  0  0  0  0  0  0  0  0  0  0  0
   -1.4255   -1.5151   -0.1670 C   0  0  0  0  0  0  0  0  0  0  0  0
   -2.6647   -0.9992    0.1761 C   0  0  0  0  0  0  0  0  0  0  0  0
   -2.7880    0.3625    0.4164 C   0  0  0  0  0  0  0  0  0  0  0  0
   -4.0817    0.9199    0.8097 C   0  0  0  0  0  0  0  0  0  0  0  0
   -4.6067    1.0791    2.0762 C   0  0  0  0  0  0  0  0  0  0  0  0
   -5.9047    1.6683    2.0502 C   0  0  0  0  0  0  0  0  0  0  0  0
   -6.3248    1.9352    0.7662 C   0  0  0  0  0  0  0  0  0  0  0  0
   -5.1611    1.4744   -0.3994 S   0  0  0  0  0  0  0  0  0  0  0  0
   -1.6337    1.1620    0.2858 C   0  0  0  0  0  0  0  0  0  0  0  0
   -1.6981    2.5722    0.5404 C   0  0  0  0  0  0  0  0  0  0  0  0
   -1.7657    3.7093    0.7662 N   0  0  0  0  0  0  0  0  0  0  0  0
   -3.6830   -2.0920    0.2749 C   0  0  0  0  0  0  0  0  0  0  0  0
   -2.9894   -3.2229   -0.4997 C   0  0  0  0  0  0  0  0  0  0  0  0
   -1.4820   -3.0082   -0.3255 C   0  0  0  0  0  0  0  0  0  0  0  0
    5.2906   -1.0721   -1.9103 H   0  0  0  0  0  0  0  0  0  0  0  0
    4.3668   -1.5884   -0.4997 H   0  0  0  0  0  0  0  0  0  0  0  0
    6.0623   -1.1297   -0.3157 H   0  0  0  0  0  0  0  0  0  0  0  0
    6.1486    1.3505   -2.0632 H   0  0  0  0  0  0  0  0  0  0  0  0
    6.7827    1.2928   -0.4133 H   0  0  0  0  0  0  0  0  0  0  0  0
    5.6209    2.5475   -0.8752 H   0  0  0  0  0  0  0  0  0  0  0  0
    5.3448    0.6420    1.4983 H   0  0  0  0  0  0  0  0  0  0  0  0
    4.0894    1.8193    1.0838 H   0  0  0  0  0  0  0  0  0  0  0  0
    3.6784    0.1119    1.2813 H   0  0  0  0  0  0  0  0  0  0  0  0
    2.3074   -0.6123   -0.4498 H   0  0  0  0  0  0  0  0  0  0  0  0
    1.6816   -0.0833   -2.0177 H   0  0  0  0  0  0  0  0  0  0  0  0
   -4.0856    0.7951    2.9829 H   0  0  0  0  0  0  0  0  0  0  0  0
   -6.4976    1.8911    2.9291 H   0  0  0  0  0  0  0  0  0  0  0  0
   -7.2586    2.3826    0.4539 H   0  0  0  0  0  0  0  0  0  0  0  0
   -4.6379   -1.8313   -0.1890 H   0  0  0  0  0  0  0  0  0  0  0  0
   -3.8377   -2.3693    1.3228 H   0  0  0  0  0  0  0  0  0  0  0  0
   -3.3123   -4.2151   -0.1696 H   0  0  0  0  0  0  0  0  0  0  0  0
   -3.2444   -3.1376   -1.5653 H   0  0  0  0  0  0  0  0  0  0  0  0
   -1.1128   -3.4923    0.5841 H   0  0  0  0  0  0  0  0  0  0  0  0
   -0.9153   -3.3551   -1.1934 H   0  0  0  0  0  0  0  0  0  0  0  0
  1  2  1  0
  2  3  1  0
  2  4  1  0
  2  5  1  0
  5  6  2  0
  5  7  1  0
  7  8  1  0
  8  9  1  0
  9 10  2  0
 10 11  1  0
 11 12  2  0
 12 13  1  0
 13 14  1  0
 14 15  2  0
 15 16  1  0
 16 17  2  0
 17 18  1  0
 13 19  2  0
 19 20  1  0
 20 21  3  0
 12 22  1  0
 22 23  1  0
 23 24  1  0
 19  9  1  0
 24 11  1  0
 18 14  1  0
  1 25  1  0
  1 26  1  0
  1 27  1  0
  3 28  1  0
  3 29  1  0
  3 30  1  0
  4 31  1  0
  4 32  1  0
  4 33  1  0
  7 34  1  0
  7 35  1  0
 15 36  1  0
 16 37  1  0
 17 38  1  0
 22 39  1  0
 22 40  1  0
 23 41  1  0
 23 42  1  0
 24 43  1  0
 24 44  1  0
M  END
$$$$
