
     RDKit          3D

 60 63  0  0  0  0  0  0  0  0999 V2000
   -7.7173    0.1749    2.7790 C   0  0  0  0  0  0  0  0  0  0  0  0
   -7.5382    0.8791    1.4391 C   0  0  0  0  0  0  0  0  0  0  0  0
   -8.6250    1.9357    1.2568 C   0  0  0  0  0  0  0  0  0  0  0  0
   -6.2853    1.5712    1.4189 O   0  0  0  0  0  0  0  0  0  0  0  0
   -5.1828    0.9305    0.9316 C   0  0  0  0  0  0  0  0  0  0  0  0
   -4.0721    1.7520    0.7399 C   0  0  0  0  0  0  0  0  0  0  0  0
   -2.8673    1.2320    0.2492 C   0  0  0  0  0  0  0  0  0  0  0  0
   -2.7343   -0.1314   -0.0641 C   0  0  0  0  0  0  0  0  0  0  0  0
   -1.4749   -0.7105   -0.5831 C   0  0  0  0  0  0  0  0  0  0  0  0
   -0.5448    0.0173   -1.3044 C   0  0  0  0  0  0  0  0  0  0  0  0
    0.6224   -0.6203   -1.7285 C   0  0  0  0  0  0  0  0  0  0  0  0
    1.6036    0.2350   -2.4323 C   0  0  0  0  0  0  0  0  0  0  0  0
    1.2517    0.9316   -3.3732 O   0  0  0  0  0  0  0  0  0  0  0  0
    2.8667    0.2416   -1.8953 N   0  0  0  0  0  0  0  0  0  0  0  0
    3.8644    1.2045   -2.3214 C   0  0  0  0  0  0  0  0  0  0  0  0
    5.2208    0.9282   -1.6467 C   0  0  0  0  0  0  0  0  0  0  0  0
    5.0914    0.6675   -0.1967 N   0  0  0  0  0  0  0  0  0  0  0  0
    4.7650    1.8803    0.5891 C   0  0  0  0  0  0  0  0  0  0  0  0
    5.9547    2.4488    1.3803 C   0  0  0  0  0  0  0  0  0  0  0  0
    6.5295    1.5067    2.2949 O   0  0  0  0  0  0  0  0  0  0  0  0
    6.4064    0.1457    1.8580 C   0  0  0  0  0  0  0  0  0  0  0  0
    6.3147    0.0218    0.3285 C   0  0  0  0  0  0  0  0  0  0  0  0
    0.8386   -1.9921   -1.4780 C   0  0  0  0  0  0  0  0  0  0  0  0
    1.9560   -2.7424   -1.9271 C   0  0  0  0  0  0  0  0  0  0  0  0
    2.0829   -4.0975   -1.6262 C   0  0  0  0  0  0  0  0  0  0  0  0
    1.0963   -4.7246   -0.8811 C   0  0  0  0  0  0  0  0  0  0  0  0
   -0.0134   -3.9944   -0.4512 C   0  0  0  0  0  0  0  0  0  0  0  0
   -0.1656   -2.6449   -0.7417 C   0  0  0  0  0  0  0  0  0  0  0  0
   -1.2743   -2.0245   -0.3056 N   0  0  0  0  0  0  0  0  0  0  0  0
   -3.8628   -0.9441    0.1531 C   0  0  0  0  0  0  0  0  0  0  0  0
   -5.0704   -0.4250    0.6433 C   0  0  0  0  0  0  0  0  0  0  0  0
   -8.6965   -0.3087    2.8407 H   0  0  0  0  0  0  0  0  0  0  0  0
   -7.6247    0.8846    3.6113 H   0  0  0  0  0  0  0  0  0  0  0  0
   -6.9466   -0.5881    2.9354 H   0  0  0  0  0  0  0  0  0  0  0  0
   -7.6290    0.1733    0.6060 H   0  0  0  0  0  0  0  0  0  0  0  0
   -9.6231    1.4857    1.2538 H   0  0  0  0  0  0  0  0  0  0  0  0
   -8.5823    2.6882    2.0518 H   0  0  0  0  0  0  0  0  0  0  0  0
   -8.4804    2.4683    0.3107 H   0  0  0  0  0  0  0  0  0  0  0  0
   -4.1415    2.8116    0.9763 H   0  0  0  0  0  0  0  0  0  0  0  0
   -2.0302    1.9173    0.1358 H   0  0  0  0  0  0  0  0  0  0  0  0
   -0.7040    1.0643   -1.5479 H   0  0  0  0  0  0  0  0  0  0  0  0
    3.0212   -0.1624   -0.9757 H   0  0  0  0  0  0  0  0  0  0  0  0
    3.4896    2.2028   -2.0733 H   0  0  0  0  0  0  0  0  0  0  0  0
    3.9627    1.1496   -3.4101 H   0  0  0  0  0  0  0  0  0  0  0  0
    5.6348    0.0289   -2.1235 H   0  0  0  0  0  0  0  0  0  0  0  0
    5.9203    1.7498   -1.8511 H   0  0  0  0  0  0  0  0  0  0  0  0
    4.3305    2.6729   -0.0296 H   0  0  0  0  0  0  0  0  0  0  0  0
    3.9894    1.5863    1.3047 H   0  0  0  0  0  0  0  0  0  0  0  0
    6.7451    2.7897    0.7014 H   0  0  0  0  0  0  0  0  0  0  0  0
    5.6349    3.3168    1.9659 H   0  0  0  0  0  0  0  0  0  0  0  0
    7.2815   -0.4002    2.2287 H   0  0  0  0  0  0  0  0  0  0  0  0
    5.5242   -0.2896    2.3410 H   0  0  0  0  0  0  0  0  0  0  0  0
    6.3079   -1.0367    0.0461 H   0  0  0  0  0  0  0  0  0  0  0  0
    7.2096    0.4837   -0.1124 H   0  0  0  0  0  0  0  0  0  0  0  0
    2.7312   -2.2770   -2.5346 H   0  0  0  0  0  0  0  0  0  0  0  0
    2.9452   -4.6573   -1.9789 H   0  0  0  0  0  0  0  0  0  0  0  0
    1.1781   -5.7806   -0.6383 H   0  0  0  0  0  0  0  0  0  0  0  0
   -0.7890   -4.4967    0.1236 H   0  0  0  0  0  0  0  0  0  0  0  0
   -3.8053   -2.0115   -0.0608 H   0  0  0  0  0  0  0  0  0  0  0  0
   -5.8899   -1.1179    0.7981 H   0  0  0  0  0  0  0  0  0  0  0  0
  1  2  1  0
  2  3  1  0
  2  4  1  0
  4  5  1  0
  5  6  2  0
  6  7  1  0
  7  8  2  0
  8  9  1  0
  9 10  2  0
 10 11  1  0
 11 12  1  0
 12 13  2  0
 12 14  1  0
 14 15  1  0
 15 16  1  0
 16 17  1  0
 17 18  1  0
 18 19  1  0
 19 20  1  0
 20 21  1  0
 21 22  1  0
 11 23  2  0
 23 24  1  0
 24 25  2  0
 25 26  1  0
 26 27  2  0
 27 28  1  0
 28 29  2  0
  8 30  1  0
 30 31  2  0
 31  5  1  0
 29  9  1  0
 22 17  1  0
 28 23  1  0
  1 32  1  0
  1 33  1  0
  1 34  1  0
  2 35  1  0
  3 36  1  0
  3 37  1  0
  3 38  1  0
  6 39  1  0
  7 40  1  0
 10 41  1  0
 14 42  1  0
 15 43  1  0
 15 44  1  0
 16 45  1  0
 16 46  1  0
 18 47  1  0
 18 48  1  0
 19 49  1  0
 19 50  1  0
 21 51  1  0
 21 52  1  0
 22 53  1  0
 22 54  1  0
 24 55  1  0
 25 56  1  0
 26 57  1  0
 27 58  1  0
 30 59  1  0
 31 60  1  0
M  END
$$$$
