
     RDKit          3D

 40 41  0  0  0  0  0  0  0  0999 V2000
   -5.0826   -2.8749   -0.6239 C   0  0  0  0  0  0  0  0  0  0  0  0
   -4.0357   -1.8663   -0.7450 N   0  0  0  0  0  0  0  0  0  0  0  0
   -4.5894   -0.4935   -0.7505 C   0  0  0  0  0  0  0  0  0  0  0  0
   -3.8180    0.5379    0.1014 C   0  0  0  0  0  0  0  0  0  0  0  0
   -2.3711    0.3789   -0.0250 N   0  0  0  0  0  0  0  0  0  0  0  0
   -1.5735    1.4950   -0.2218 C   0  0  0  0  0  0  0  0  0  0  0  0
   -2.0499    2.6304   -0.3340 O   0  0  0  0  0  0  0  0  0  0  0  0
   -0.0646    1.3033   -0.3058 C   0  0  0  0  0  0  0  0  0  0  0  0
    0.6904    1.7490    1.2918 S   0  0  0  0  0  0  0  0  0  0  0  0
    2.4000    1.4188    0.8897 C   0  0  0  0  0  0  0  0  0  0  0  0
    3.0863    2.3749    0.1272 C   0  0  0  0  0  0  0  0  0  0  0  0
    4.4414    2.2105   -0.1923 C   0  0  0  0  0  0  0  0  0  0  0  0
    5.1558    1.0907    0.2577 C   0  0  0  0  0  0  0  0  0  0  0  0
    6.6179    0.9073   -0.0789 C   0  0  0  0  0  0  0  0  0  0  0  0
    7.2066    2.0367   -0.5531 F   0  0  0  0  0  0  0  0  0  0  0  0
    6.8073   -0.0457   -1.0310 F   0  0  0  0  0  0  0  0  0  0  0  0
    7.3559    0.5185    0.9978 F   0  0  0  0  0  0  0  0  0  0  0  0
    4.4809    0.1269    1.0196 C   0  0  0  0  0  0  0  0  0  0  0  0
    3.1190    0.2981    1.3229 C   0  0  0  0  0  0  0  0  0  0  0  0
    2.4741   -0.7529    2.0987 N   0  0  0  0  0  4  0  0  0  0  0  0
    2.9583   -1.0066    3.2142 O   0  0  0  0  0  0  0  0  0  0  0  0
    1.5267   -1.3581    1.5679 O   0  0  0  0  0  1  0  0  0  0  0  0
   -1.8689   -0.9915    0.1115 C   0  0  0  0  0  0  0  0  0  0  0  0
   -2.9863   -2.0419    0.2728 C   0  0  0  0  0  0  0  0  0  0  0  0
   -5.8347   -2.7498   -1.4112 H   0  0  0  0  0  0  0  0  0  0  0  0
   -5.5921   -2.8196    0.3468 H   0  0  0  0  0  0  0  0  0  0  0  0
   -4.6636   -3.8802   -0.7339 H   0  0  0  0  0  0  0  0  0  0  0  0
   -4.5777   -0.1514   -1.7939 H   0  0  0  0  0  0  0  0  0  0  0  0
   -5.6401   -0.4737   -0.4300 H   0  0  0  0  0  0  0  0  0  0  0  0
   -4.0596    0.3995    1.1649 H   0  0  0  0  0  0  0  0  0  0  0  0
   -4.1369    1.5506   -0.1738 H   0  0  0  0  0  0  0  0  0  0  0  0
    0.3107    1.9634   -1.0951 H   0  0  0  0  0  0  0  0  0  0  0  0
    0.2178    0.2829   -0.5808 H   0  0  0  0  0  0  0  0  0  0  0  0
    2.5752    3.2735   -0.2186 H   0  0  0  0  0  0  0  0  0  0  0  0
    4.9400    2.9756   -0.7907 H   0  0  0  0  0  0  0  0  0  0  0  0
    5.0149   -0.7557    1.3743 H   0  0  0  0  0  0  0  0  0  0  0  0
   -1.1962   -1.0278    0.9743 H   0  0  0  0  0  0  0  0  0  0  0  0
   -1.2845   -1.2222   -0.7885 H   0  0  0  0  0  0  0  0  0  0  0  0
   -3.4162   -1.9709    1.2835 H   0  0  0  0  0  0  0  0  0  0  0  0
   -2.5375   -3.0398    0.1821 H   0  0  0  0  0  0  0  0  0  0  0  0
  1  2  1  0
  2  3  1  0
  3  4  1  0
  4  5  1  0
  5  6  1  0
  6  7  2  0
  6  8  1  0
  8  9  1  0
  9 10  1  0
 10 11  2  0
 11 12  1  0
 12 13  2  0
 13 14  1  0
 14 15  1  0
 14 16  1  0
 14 17  1  0
 13 18  1  0
 18 19  2  0
 19 20  1  0
 20 21  2  0
 20 22  1  0
  5 23  1  0
 23 24  1  0
 24  2  1  0
 19 10  1  0
  1 25  1  0
  1 26  1  0
  1 27  1  0
  3 28  1  0
  3 29  1  0
  4 30  1  0
  4 31  1  0
  8 32  1  0
  8 33  1  0
 11 34  1  0
 12 35  1  0
 18 36  1  0
 23 37  1  0
 23 38  1  0
 24 39  1  0
 24 40  1  0
M  CHG  2  20   1  22  -1
M  END
$$$$
