
     RDKit          3D

 37 40  0  0  0  0  0  0  0  0999 V2000
    6.0116   -0.0164   -0.3858 C   0  0  0  0  0  0  0  0  0  0  0  0
    4.7563   -0.6129   -0.0863 O   0  0  0  0  0  0  0  0  0  0  0  0
    3.6413    0.1623   -0.2662 C   0  0  0  0  0  0  0  0  0  0  0  0
    3.6274    1.4781   -0.7183 C   0  0  0  0  0  0  0  0  0  0  0  0
    2.4218    2.1700   -0.8761 C   0  0  0  0  0  0  0  0  0  0  0  0
    1.2351    1.4997   -0.5583 C   0  0  0  0  0  0  0  0  0  0  0  0
   -0.0618    1.9306   -0.6378 N   0  0  0  0  0  0  0  0  0  0  0  0
   -0.9505    0.9495   -0.2536 C   0  0  0  0  0  0  0  0  0  0  0  0
   -2.3596    0.9863   -0.2351 C   0  0  0  0  0  0  0  0  0  0  0  0
   -3.1280    2.2103   -0.6674 C   0  0  0  0  0  0  0  0  0  0  0  0
   -3.0336   -0.1943    0.1837 C   0  0  0  0  0  0  0  0  0  0  0  0
   -4.4425   -0.2778    0.1919 C   0  0  0  0  0  0  0  0  0  0  0  0
   -5.0738   -1.4425    0.5926 C   0  0  0  0  0  0  0  0  0  0  0  0
   -4.4143   -2.5388    0.9849 N   0  0  0  0  0  0  0  0  0  0  0  0
   -3.0626   -2.4510    0.9784 C   0  0  0  0  0  0  0  0  0  0  0  0
   -2.2988   -1.3262    0.6063 C   0  0  0  0  0  0  0  0  0  0  0  0
   -0.8646   -1.3026    0.6404 C   0  0  0  0  0  0  0  0  0  0  0  0
   -0.1056   -2.4969    1.1687 C   0  0  0  0  0  0  0  0  0  0  0  0
   -0.1904   -0.1515    0.1423 C   0  0  0  0  0  0  0  0  0  0  0  0
    1.1976    0.1916   -0.0857 C   0  0  0  0  0  0  0  0  0  0  0  0
    2.4343   -0.4817    0.0461 C   0  0  0  0  0  0  0  0  0  0  0  0
    6.0749    0.2606   -1.4433 H   0  0  0  0  0  0  0  0  0  0  0  0
    6.7901   -0.7600   -0.1899 H   0  0  0  0  0  0  0  0  0  0  0  0
    6.2040    0.8452    0.2619 H   0  0  0  0  0  0  0  0  0  0  0  0
    4.5437    2.0033   -0.9676 H   0  0  0  0  0  0  0  0  0  0  0  0
    2.4154    3.1931   -1.2389 H   0  0  0  0  0  0  0  0  0  0  0  0
   -0.3286    2.8466   -0.9640 H   0  0  0  0  0  0  0  0  0  0  0  0
   -3.7806    2.5547    0.1416 H   0  0  0  0  0  0  0  0  0  0  0  0
   -2.4704    3.0453   -0.9235 H   0  0  0  0  0  0  0  0  0  0  0  0
   -3.7298    1.9860   -1.5542 H   0  0  0  0  0  0  0  0  0  0  0  0
   -5.0665    0.5542   -0.1158 H   0  0  0  0  0  0  0  0  0  0  0  0
   -6.1569   -1.5189    0.6018 H   0  0  0  0  0  0  0  0  0  0  0  0
   -2.5900   -3.3779    1.2911 H   0  0  0  0  0  0  0  0  0  0  0  0
   -0.6181   -2.9597    2.0175 H   0  0  0  0  0  0  0  0  0  0  0  0
    0.0315   -3.2380    0.3760 H   0  0  0  0  0  0  0  0  0  0  0  0
    0.8687   -2.2066    1.5648 H   0  0  0  0  0  0  0  0  0  0  0  0
    2.4733   -1.5135    0.3776 H   0  0  0  0  0  0  0  0  0  0  0  0
  1  2  1  0
  2  3  1  0
  3  4  2  0
  4  5  1  0
  5  6  2  0
  6  7  1  0
  7  8  1  0
  8  9  2  0
  9 10  1  0
  9 11  1  0
 11 12  2  0
 12 13  1  0
 13 14  2  0
 14 15  1  0
 15 16  2  0
 16 17  1  0
 17 18  1  0
 17 19  2  0
 19 20  1  0
 20 21  2  0
 21  3  1  0
 20  6  1  0
 19  8  1  0
 16 11  1  0
  1 22  1  0
  1 23  1  0
  1 24  1  0
  4 25  1  0
  5 26  1  0
  7 27  1  0
 10 28  1  0
 10 29  1  0
 10 30  1  0
 12 31  1  0
 13 32  1  0
 15 33  1  0
 18 34  1  0
 18 35  1  0
 18 36  1  0
 21 37  1  0
M  END
$$$$
