
     RDKit          3D

 45 48  0  0  0  0  0  0  0  0999 V2000
   -5.7470    0.7002    1.2287 C   0  0  0  0  0  0  0  0  0  0  0  0
   -4.8847    1.4883    0.2623 C   0  0  0  0  0  0  0  0  0  0  0  0
   -3.5768    0.9042    0.2552 O   0  0  0  0  0  0  0  0  0  0  0  0
   -2.7049    1.4942   -0.6031 C   0  0  0  0  0  0  0  0  0  0  0  0
   -2.9374    2.4742   -1.2952 O   0  0  0  0  0  0  0  0  0  0  0  0
   -1.4005    0.7927   -0.5402 C   0  0  0  0  0  0  0  0  0  0  0  0
   -1.5156   -0.6820   -0.6065 C   0  0  0  0  0  0  0  0  0  0  0  0
   -2.1632   -1.2767   -1.4561 O   0  0  0  0  0  0  0  0  0  0  0  0
   -0.9146   -1.2357    0.4818 O   0  0  0  0  0  0  0  0  0  0  0  0
   -1.0068   -2.6630    0.5782 C   0  0  0  0  0  0  0  0  0  0  0  0
   -2.2834   -3.0538    1.2987 C   0  0  0  0  0  0  0  0  0  0  0  0
   -0.2344    1.4735   -0.3628 C   0  0  0  0  0  0  0  0  0  0  0  0
   -0.2689    2.9221    0.0702 C   0  0  0  0  0  0  0  0  0  0  0  0
    0.7838    3.5459    0.6580 C   0  0  0  0  0  0  0  0  0  0  0  0
    0.6689    5.3169    1.2412 Br  0  0  0  0  0  0  0  0  0  0  0  0
    2.0248    2.8465    0.8166 C   0  0  0  0  0  0  0  0  0  0  0  0
    3.1967    3.2048    1.3536 N   0  0  0  0  0  0  0  0  0  0  0  0
    4.0651    2.1381    1.0815 O   0  0  0  0  0  0  0  0  0  0  0  0
    3.4006    1.1753    0.3725 C   0  0  0  0  0  0  0  0  0  0  0  0
    3.8896   -0.0146   -0.1799 C   0  0  0  0  0  0  0  0  0  0  0  0
    5.2315   -0.4000   -0.0035 C   0  0  0  0  0  0  0  0  0  0  0  0
    5.6837   -1.5788   -0.5867 C   0  0  0  0  0  0  0  0  0  0  0  0
    4.8088   -2.3633   -1.3358 C   0  0  0  0  0  0  0  0  0  0  0  0
    3.4748   -1.9722   -1.5150 C   0  0  0  0  0  0  0  0  0  0  0  0
    2.9713   -0.7791   -0.9498 C   0  0  0  0  0  0  0  0  0  0  0  0
    1.6254   -0.3156   -1.0997 C   0  0  0  0  0  0  0  0  0  0  0  0
    0.7846   -0.9414   -1.9854 O   0  0  0  0  0  0  0  0  0  0  0  0
    1.1240    0.8131   -0.4228 C   0  0  0  0  0  0  0  0  0  0  0  0
    2.0936    1.5647    0.2467 C   0  0  0  0  0  0  0  0  0  0  0  0
   -5.8009   -0.3512    0.9275 H   0  0  0  0  0  0  0  0  0  0  0  0
   -6.7605    1.1087    1.2700 H   0  0  0  0  0  0  0  0  0  0  0  0
   -5.3157    0.7210    2.2351 H   0  0  0  0  0  0  0  0  0  0  0  0
   -4.8200    2.5322    0.5889 H   0  0  0  0  0  0  0  0  0  0  0  0
   -5.3175    1.4414   -0.7433 H   0  0  0  0  0  0  0  0  0  0  0  0
   -0.1395   -3.0018    1.1542 H   0  0  0  0  0  0  0  0  0  0  0  0
   -0.9421   -3.1357   -0.4086 H   0  0  0  0  0  0  0  0  0  0  0  0
   -2.3305   -2.5765    2.2831 H   0  0  0  0  0  0  0  0  0  0  0  0
   -3.1660   -2.7224    0.7425 H   0  0  0  0  0  0  0  0  0  0  0  0
   -2.3391   -4.1382    1.4290 H   0  0  0  0  0  0  0  0  0  0  0  0
   -1.1941    3.4811   -0.0385 H   0  0  0  0  0  0  0  0  0  0  0  0
    5.9166    0.2099    0.5811 H   0  0  0  0  0  0  0  0  0  0  0  0
    6.7173   -1.8898   -0.4545 H   0  0  0  0  0  0  0  0  0  0  0  0
    5.1637   -3.2909   -1.7802 H   0  0  0  0  0  0  0  0  0  0  0  0
    2.8293   -2.6374   -2.0837 H   0  0  0  0  0  0  0  0  0  0  0  0
    1.3100   -1.3287   -2.7054 H   0  0  0  0  0  0  0  0  0  0  0  0
  1  2  1  0
  2  3  1  0
  3  4  1  0
  4  5  2  0
  4  6  1  0
  6  7  1  0
  7  8  2  0
  7  9  1  0
  9 10  1  0
 10 11  1  0
  6 12  2  3
 12 13  1  0
 13 14  2  0
 14 15  1  0
 14 16  1  0
 16 17  2  0
 17 18  1  0
 18 19  1  0
 19 20  1  0
 20 21  2  0
 21 22  1  0
 22 23  2  0
 23 24  1  0
 24 25  2  0
 25 26  1  0
 26 27  1  0
 26 28  2  0
 28 29  1  0
 28 12  1  0
 29 16  1  0
 29 19  2  0
 25 20  1  0
  1 30  1  0
  1 31  1  0
  1 32  1  0
  2 33  1  0
  2 34  1  0
 10 35  1  0
 10 36  1  0
 11 37  1  0
 11 38  1  0
 11 39  1  0
 13 40  1  0
 21 41  1  0
 22 42  1  0
 23 43  1  0
 24 44  1  0
 27 45  1  0
M  END
$$$$
