
     RDKit          3D

 58 60  0  0  0  0  0  0  0  0999 V2000
   -4.4422    2.5790    2.6478 C   0  0  0  0  0  0  0  0  0  0  0  0
   -4.8783    1.9953    1.4229 O   0  0  0  0  0  0  0  0  0  0  0  0
   -4.5622    0.6827    1.1809 C   0  0  0  0  0  0  0  0  0  0  0  0
   -3.8739   -0.1460    2.0791 C   0  0  0  0  0  0  0  0  0  0  0  0
   -3.5990   -1.4771    1.7464 C   0  0  0  0  0  0  0  0  0  0  0  0
   -2.9210   -2.3726    2.5379 O   0  0  0  0  0  0  0  0  0  0  0  0
   -2.4603   -1.9074    3.8013 C   0  0  0  0  0  0  0  0  0  0  0  0
   -4.0216   -1.9789    0.5034 C   0  0  0  0  0  0  0  0  0  0  0  0
   -3.6951   -3.3265    0.1444 N   0  0  0  0  0  0  0  0  0  0  0  0
   -2.4668   -3.5702   -0.9948 S   0  0  0  0  0  6  0  0  0  0  0  0
   -2.7826   -2.8601   -2.2148 O   0  0  0  0  0  0  0  0  0  0  0  0
   -2.1867   -4.9910   -1.0005 O   0  0  0  0  0  0  0  0  0  0  0  0
   -1.0598   -2.7623   -0.2573 C   0  0  0  0  0  0  0  0  0  0  0  0
   -0.1758   -3.4971    0.5376 C   0  0  0  0  0  0  0  0  0  0  0  0
    0.9163   -2.8566    1.1313 C   0  0  0  0  0  0  0  0  0  0  0  0
    1.1281   -1.4881    0.9279 C   0  0  0  0  0  0  0  0  0  0  0  0
    2.4463   -0.7439    1.7565 Cl  0  0  0  0  0  0  0  0  0  0  0  0
    0.2551   -0.7700    0.1042 C   0  0  0  0  0  0  0  0  0  0  0  0
    0.3938    0.6754   -0.1127 C   0  0  0  0  0  0  0  0  0  0  0  0
   -0.4437    1.4815    0.2532 O   0  0  0  0  0  0  0  0  0  0  0  0
    1.5241    0.9056   -0.8154 O   0  0  0  0  0  0  0  0  0  0  0  0
    1.7352    2.2663   -1.2142 C   0  0  0  0  0  0  0  0  0  0  0  0
    2.2787    3.1040   -0.0621 C   0  0  0  0  0  0  0  0  0  0  0  0
    2.6540    2.3357   -2.4501 C   0  0  0  0  0  0  0  0  0  0  0  0
    2.2472    2.8789   -3.4826 O   0  0  0  0  0  0  0  0  0  0  0  0
    3.9280    1.8157   -2.3873 N   0  0  0  0  0  0  0  0  0  0  0  0
    4.5493    1.0636   -1.3082 C   0  0  0  0  0  0  0  0  0  0  0  0
    5.7571    0.3996   -1.9580 C   0  0  0  0  0  0  0  0  0  0  0  0
    6.1586    1.4033   -3.0310 C   0  0  0  0  0  0  0  0  0  0  0  0
    4.8156    1.9045   -3.5394 C   0  0  0  0  0  0  0  0  0  0  0  0
   -0.8393   -1.4031   -0.4976 C   0  0  0  0  0  0  0  0  0  0  0  0
   -4.6995   -1.1649   -0.3984 C   0  0  0  0  0  0  0  0  0  0  0  0
   -4.9718    0.1598   -0.0576 C   0  0  0  0  0  0  0  0  0  0  0  0
   -5.8281    1.1290   -1.2059 Cl  0  0  0  0  0  0  0  0  0  0  0  0
   -3.3486    2.5689    2.7216 H   0  0  0  0  0  0  0  0  0  0  0  0
   -4.9077    2.0801    3.5074 H   0  0  0  0  0  0  0  0  0  0  0  0
   -4.7644    3.6267    2.6576 H   0  0  0  0  0  0  0  0  0  0  0  0
   -3.5526    0.2483    3.0332 H   0  0  0  0  0  0  0  0  0  0  0  0
   -3.2980   -1.6032    4.4407 H   0  0  0  0  0  0  0  0  0  0  0  0
   -1.9502   -2.7398    4.2955 H   0  0  0  0  0  0  0  0  0  0  0  0
   -1.7345   -1.0936    3.6832 H   0  0  0  0  0  0  0  0  0  0  0  0
   -3.5644   -3.9466    0.9437 H   0  0  0  0  0  0  0  0  0  0  0  0
   -0.3343   -4.5608    0.7074 H   0  0  0  0  0  0  0  0  0  0  0  0
    1.5920   -3.4310    1.7624 H   0  0  0  0  0  0  0  0  0  0  0  0
    0.7796    2.6969   -1.5453 H   0  0  0  0  0  0  0  0  0  0  0  0
    3.0468    2.5706    0.5038 H   0  0  0  0  0  0  0  0  0  0  0  0
    2.6914    4.0540   -0.4157 H   0  0  0  0  0  0  0  0  0  0  0  0
    1.4815    3.3297    0.6528 H   0  0  0  0  0  0  0  0  0  0  0  0
    4.8701    1.7778   -0.5428 H   0  0  0  0  0  0  0  0  0  0  0  0
    3.8681    0.3337   -0.8699 H   0  0  0  0  0  0  0  0  0  0  0  0
    6.5578    0.1899   -1.2428 H   0  0  0  0  0  0  0  0  0  0  0  0
    5.4576   -0.5453   -2.4293 H   0  0  0  0  0  0  0  0  0  0  0  0
    6.7218    2.2271   -2.5763 H   0  0  0  0  0  0  0  0  0  0  0  0
    6.7723    0.9643   -3.8233 H   0  0  0  0  0  0  0  0  0  0  0  0
    4.4157    1.2521   -4.3270 H   0  0  0  0  0  0  0  0  0  0  0  0
    4.8637    2.9316   -3.9179 H   0  0  0  0  0  0  0  0  0  0  0  0
   -1.5203   -0.8327   -1.1275 H   0  0  0  0  0  0  0  0  0  0  0  0
   -5.0231   -1.5630   -1.3602 H   0  0  0  0  0  0  0  0  0  0  0  0
  1  2  1  0
  2  3  1  0
  3  4  2  0
  4  5  1  0
  5  6  1  0
  6  7  1  0
  5  8  2  0
  8  9  1  0
  9 10  1  0
 10 11  2  0
 10 12  2  0
 10 13  1  0
 13 14  2  0
 14 15  1  0
 15 16  2  0
 16 17  1  0
 16 18  1  0
 18 19  1  0
 19 20  2  0
 19 21  1  0
 21 22  1  0
 22 23  1  0
 22 24  1  0
 24 25  2  0
 24 26  1  0
 26 27  1  0
 27 28  1  0
 28 29  1  0
 29 30  1  0
 18 31  2  0
  8 32  1  0
 32 33  2  0
 33 34  1  0
 33  3  1  0
 31 13  1  0
 30 26  1  0
  1 35  1  0
  1 36  1  0
  1 37  1  0
  4 38  1  0
  7 39  1  0
  7 40  1  0
  7 41  1  0
  9 42  1  0
 14 43  1  0
 15 44  1  0
 22 45  1  0
 23 46  1  0
 23 47  1  0
 23 48  1  0
 27 49  1  0
 27 50  1  0
 28 51  1  0
 28 52  1  0
 29 53  1  0
 29 54  1  0
 30 55  1  0
 30 56  1  0
 31 57  1  0
 32 58  1  0
M  END
$$$$
