
     RDKit          3D

 45 47  0  0  0  0  0  0  0  0999 V2000
    0.9443   -0.6307   -2.2877 O   0  0  0  0  0  0  0  0  0  0  0  0
    1.2943   -0.3168   -1.1602 C   0  0  0  0  0  0  0  0  0  0  0  0
    2.5943   -0.2239   -0.7295 N   0  0  0  0  0  0  0  0  0  0  0  0
    3.6974   -0.5944   -1.5743 C   0  0  0  0  0  0  0  0  0  0  0  0
    4.9627   -0.2596   -0.8806 C   0  0  0  0  0  0  0  0  0  0  0  0
    5.7945    0.8414   -0.8983 C   0  0  0  0  0  0  0  0  0  0  0  0
    6.8479    0.5593    0.0060 C   0  0  0  0  0  0  0  0  0  0  0  0
    6.5911   -0.6908    0.5174 C   0  0  0  0  0  0  0  0  0  0  0  0
    5.4485   -1.1966   -0.0121 O   0  0  0  0  0  0  0  0  0  0  0  0
    0.2591    0.0103   -0.0651 C   0  0  0  0  0  0  0  0  0  0  0  0
   -1.1426   -0.3480   -0.4309 C   0  0  0  0  0  0  0  0  0  0  0  0
   -2.1581    0.5233   -0.3110 C   0  0  0  0  0  0  0  0  0  0  0  0
   -3.6037    0.2758   -0.6618 C   0  0  0  0  0  0  0  0  0  0  0  0
   -3.9770   -1.1502   -0.9869 C   0  0  0  0  0  0  0  0  0  0  0  0
   -4.2508   -2.0679    0.0403 C   0  0  0  0  0  0  0  0  0  0  0  0
   -4.5727   -3.3918   -0.2599 C   0  0  0  0  0  0  0  0  0  0  0  0
   -4.6193   -3.8145   -1.5877 C   0  0  0  0  0  0  0  0  0  0  0  0
   -4.3423   -2.9139   -2.6160 C   0  0  0  0  0  0  0  0  0  0  0  0
   -4.0200   -1.5887   -2.3179 C   0  0  0  0  0  0  0  0  0  0  0  0
    0.7257    0.5105    1.0368 N   0  0  0  0  0  0  0  0  0  0  0  0
   -0.1448    0.7074    2.0757 C   0  0  0  0  0  0  0  0  0  0  0  0
   -0.7706   -0.1883    2.6290 O   0  0  0  0  0  0  0  0  0  0  0  0
   -0.2059    2.1003    2.4800 C   0  0  0  0  0  0  0  0  0  0  0  0
   -0.8920    2.7074    3.5188 C   0  0  0  0  0  0  0  0  0  0  0  0
   -0.6193    4.0954    3.4371 C   0  0  0  0  0  0  0  0  0  0  0  0
    0.2155    4.2565    2.3556 C   0  0  0  0  0  0  0  0  0  0  0  0
    0.9130    5.9164    1.7465 Br  0  0  0  0  0  0  0  0  0  0  0  0
    0.4715    3.0578    1.7684 O   0  0  0  0  0  0  0  0  0  0  0  0
    2.7479   -0.0194    0.2535 H   0  0  0  0  0  0  0  0  0  0  0  0
    3.6269   -1.6684   -1.7820 H   0  0  0  0  0  0  0  0  0  0  0  0
    3.6134   -0.0576   -2.5255 H   0  0  0  0  0  0  0  0  0  0  0  0
    5.6514    1.7401   -1.4829 H   0  0  0  0  0  0  0  0  0  0  0  0
    7.6883    1.1895    0.2575 H   0  0  0  0  0  0  0  0  0  0  0  0
    7.0952   -1.3288    1.2286 H   0  0  0  0  0  0  0  0  0  0  0  0
   -1.2730   -1.3396   -0.8532 H   0  0  0  0  0  0  0  0  0  0  0  0
   -1.9602    1.5296    0.0556 H   0  0  0  0  0  0  0  0  0  0  0  0
   -4.2293    0.6147    0.1759 H   0  0  0  0  0  0  0  0  0  0  0  0
   -3.8721    0.9229   -1.5069 H   0  0  0  0  0  0  0  0  0  0  0  0
   -4.2059   -1.7566    1.0839 H   0  0  0  0  0  0  0  0  0  0  0  0
   -4.7820   -4.0953    0.5418 H   0  0  0  0  0  0  0  0  0  0  0  0
   -4.8671   -4.8465   -1.8210 H   0  0  0  0  0  0  0  0  0  0  0  0
   -4.3725   -3.2446   -3.6525 H   0  0  0  0  0  0  0  0  0  0  0  0
   -3.7959   -0.9017   -3.1311 H   0  0  0  0  0  0  0  0  0  0  0  0
   -1.5164    2.1972    4.2413 H   0  0  0  0  0  0  0  0  0  0  0  0
   -0.9895    4.8787    4.0853 H   0  0  0  0  0  0  0  0  0  0  0  0
  1  2  2  0
  2  3  1  0
  3  4  1  0
  4  5  1  0
  5  6  2  0
  6  7  1  0
  7  8  2  0
  8  9  1  0
  2 10  1  0
 10 11  1  0
 11 12  2  3
 12 13  1  0
 13 14  1  0
 14 15  2  0
 15 16  1  0
 16 17  2  0
 17 18  1  0
 18 19  2  0
 10 20  2  3
 20 21  1  0
 21 22  2  0
 21 23  1  0
 23 24  2  0
 24 25  1  0
 25 26  2  0
 26 27  1  0
 26 28  1  0
  9  5  1  0
 19 14  1  0
 28 23  1  0
  3 29  1  0
  4 30  1  0
  4 31  1  0
  6 32  1  0
  7 33  1  0
  8 34  1  0
 11 35  1  0
 12 36  1  0
 13 37  1  0
 13 38  1  0
 15 39  1  0
 16 40  1  0
 17 41  1  0
 18 42  1  0
 19 43  1  0
 24 44  1  0
 25 45  1  0
M  END
$$$$
