
     RDKit          3D

 53 56  0  0  0  0  0  0  0  0999 V2000
    5.6277    1.3572   -1.6041 C   0  0  0  0  0  0  0  0  0  0  0  0
    5.5539   -0.0632   -1.6145 O   0  0  0  0  0  0  0  0  0  0  0  0
    4.3100   -0.6184   -1.4999 C   0  0  0  0  0  0  0  0  0  0  0  0
    4.2894   -2.0121   -1.4991 C   0  0  0  0  0  0  0  0  0  0  0  0
    3.0843   -2.7119   -1.3842 C   0  0  0  0  0  0  0  0  0  0  0  0
    1.8753   -2.0225   -1.2664 C   0  0  0  0  0  0  0  0  0  0  0  0
    0.6486   -2.6206   -1.1603 O   0  0  0  0  0  0  0  0  0  0  0  0
    0.6220   -4.0202   -0.9164 C   0  0  0  0  0  0  0  0  0  0  0  0
    1.8813   -0.6161   -1.2764 C   0  0  0  0  0  0  0  0  0  0  0  0
    0.6066    0.1851   -1.1233 C   0  0  0  0  0  0  0  0  0  0  0  0
    0.4197    0.5977    0.2763 N   0  0  0  0  0  0  0  0  0  0  0  0
   -0.7313    1.4359    0.4090 N   0  0  0  0  0  0  0  0  0  0  0  0
   -1.9956    0.9029    0.6875 C   0  0  0  0  0  0  0  0  0  0  0  0
   -2.1513   -0.5596    0.9316 C   0  0  0  0  0  0  0  0  0  0  0  0
   -3.1917   -1.2357    0.2841 C   0  0  0  0  0  0  0  0  0  0  0  0
   -3.3971   -2.5943    0.5231 C   0  0  0  0  0  0  0  0  0  0  0  0
   -2.5703   -3.2797    1.4146 C   0  0  0  0  0  0  0  0  0  0  0  0
   -1.5278   -2.6149    2.0723 C   0  0  0  0  0  0  0  0  0  0  0  0
   -0.6603   -3.3424    3.0559 C   0  0  0  0  0  0  0  0  0  0  0  0
   -1.3389   -1.2447    1.8431 C   0  0  0  0  0  0  0  0  0  0  0  0
   -3.0645    1.6421    0.7303 N   0  0  0  0  0  0  0  0  0  0  0  0
   -2.9444    3.0232    0.5285 C   0  0  0  0  0  0  0  0  0  0  0  0
   -4.0988    3.8082    0.5789 C   0  0  0  0  0  0  0  0  0  0  0  0
   -4.0303    5.1923    0.3942 C   0  0  0  0  0  0  0  0  0  0  0  0
   -2.8007    5.8063    0.1575 C   0  0  0  0  0  0  0  0  0  0  0  0
   -1.6402    5.0357    0.1049 C   0  0  0  0  0  0  0  0  0  0  0  0
   -1.7220    3.6502    0.2911 C   0  0  0  0  0  0  0  0  0  0  0  0
   -0.5180    2.8069    0.2309 C   0  0  0  0  0  0  0  0  0  0  0  0
    0.5898    3.3058    0.0292 O   0  0  0  0  0  0  0  0  0  0  0  0
    3.1067    0.0755   -1.3881 C   0  0  0  0  0  0  0  0  0  0  0  0
    5.0931    1.7863   -2.4580 H   0  0  0  0  0  0  0  0  0  0  0  0
    6.6814    1.6376   -1.6965 H   0  0  0  0  0  0  0  0  0  0  0  0
    5.2565    1.7652   -0.6581 H   0  0  0  0  0  0  0  0  0  0  0  0
    5.2229   -2.5623   -1.5895 H   0  0  0  0  0  0  0  0  0  0  0  0
    3.1273   -3.7956   -1.3964 H   0  0  0  0  0  0  0  0  0  0  0  0
   -0.4208   -4.3140   -0.7646 H   0  0  0  0  0  0  0  0  0  0  0  0
    1.1768   -4.2764   -0.0076 H   0  0  0  0  0  0  0  0  0  0  0  0
    0.9984   -4.5763   -1.7810 H   0  0  0  0  0  0  0  0  0  0  0  0
    0.6658    1.0622   -1.7816 H   0  0  0  0  0  0  0  0  0  0  0  0
   -0.2566   -0.3917   -1.4747 H   0  0  0  0  0  0  0  0  0  0  0  0
    1.2238    1.1801    0.5317 H   0  0  0  0  0  0  0  0  0  0  0  0
   -3.8463   -0.7039   -0.4022 H   0  0  0  0  0  0  0  0  0  0  0  0
   -4.2065   -3.1168    0.0201 H   0  0  0  0  0  0  0  0  0  0  0  0
   -2.7474   -4.3374    1.5966 H   0  0  0  0  0  0  0  0  0  0  0  0
    0.3530   -2.9270    3.0629 H   0  0  0  0  0  0  0  0  0  0  0  0
   -1.0847   -3.2616    4.0612 H   0  0  0  0  0  0  0  0  0  0  0  0
   -0.5738   -4.4017    2.7919 H   0  0  0  0  0  0  0  0  0  0  0  0
   -0.5565   -0.7129    2.3789 H   0  0  0  0  0  0  0  0  0  0  0  0
   -5.0588    3.3335    0.7671 H   0  0  0  0  0  0  0  0  0  0  0  0
   -4.9383    5.7890    0.4375 H   0  0  0  0  0  0  0  0  0  0  0  0
   -2.7473    6.8829    0.0147 H   0  0  0  0  0  0  0  0  0  0  0  0
   -0.6796    5.5107   -0.0804 H   0  0  0  0  0  0  0  0  0  0  0  0
    3.0853    1.1616   -1.3823 H   0  0  0  0  0  0  0  0  0  0  0  0
  1  2  1  0
  2  3  1  0
  3  4  2  0
  4  5  1  0
  5  6  2  0
  6  7  1  0
  7  8  1  0
  6  9  1  0
  9 10  1  0
 10 11  1  0
 11 12  1  0
 12 13  1  0
 13 14  1  0
 14 15  2  0
 15 16  1  0
 16 17  2  0
 17 18  1  0
 18 19  1  0
 18 20  2  0
 13 21  2  0
 21 22  1  0
 22 23  2  0
 23 24  1  0
 24 25  2  0
 25 26  1  0
 26 27  2  0
 27 28  1  0
 28 29  2  0
  9 30  2  0
 30  3  1  0
 28 12  1  0
 20 14  1  0
 27 22  1  0
  1 31  1  0
  1 32  1  0
  1 33  1  0
  4 34  1  0
  5 35  1  0
  8 36  1  0
  8 37  1  0
  8 38  1  0
 10 39  1  0
 10 40  1  0
 11 41  1  0
 15 42  1  0
 16 43  1  0
 17 44  1  0
 19 45  1  0
 19 46  1  0
 19 47  1  0
 20 48  1  0
 23 49  1  0
 24 50  1  0
 25 51  1  0
 26 52  1  0
 30 53  1  0
M  END
$$$$
