
     RDKit          3D

 71 75  0  0  0  0  0  0  0  0999 V2000
   -2.0188    5.0015    4.6059 C   0  0  0  0  0  0  0  0  0  0  0  0
   -1.8762    3.5885    4.6751 O   0  0  0  0  0  0  0  0  0  0  0  0
   -1.8446    2.9123    3.4871 C   0  0  0  0  0  0  0  0  0  0  0  0
   -1.6769    1.5323    3.6028 C   0  0  0  0  0  0  0  0  0  0  0  0
   -1.6268    0.7165    2.4677 C   0  0  0  0  0  0  0  0  0  0  0  0
   -1.7475    1.2672    1.1858 C   0  0  0  0  0  0  0  0  0  0  0  0
   -1.6869    0.4363   -0.0973 C   0  0  0  0  0  0  0  0  0  0  0  0
   -2.1486   -1.0427    0.0024 C   0  0  0  0  0  0  0  0  0  0  0  0
   -3.6546   -1.1597    0.3063 C   0  0  0  0  0  0  0  0  0  0  0  0
   -4.1996   -2.5190    0.3817 N   0  0  0  0  0  0  0  0  0  0  0  0
   -4.0667   -3.3140   -0.8501 C   0  0  0  0  0  0  0  0  0  0  0  0
   -3.0683   -4.4757   -0.7198 C   0  0  0  0  0  0  0  0  0  0  0  0
   -3.3940   -5.3877    0.3374 O   0  0  0  0  0  0  0  0  0  0  0  0
   -4.0838   -4.7640    1.4309 C   0  0  0  0  0  0  0  0  0  0  0  0
   -3.7616   -3.2680    1.5716 C   0  0  0  0  0  0  0  0  0  0  0  0
   -0.3191    0.5533   -0.7913 C   0  0  0  0  0  0  0  0  0  0  0  0
   -0.1954    1.2381   -2.0140 C   0  0  0  0  0  0  0  0  0  0  0  0
   -1.3505    1.7573   -2.5410 O   0  0  0  0  0  0  0  0  0  0  0  0
   -1.2597    2.5457   -3.7204 C   0  0  0  0  0  0  0  0  0  0  0  0
    1.0581    1.3470   -2.6293 C   0  0  0  0  0  0  0  0  0  0  0  0
    2.2127    0.8021   -2.0449 C   0  0  0  0  0  0  0  0  0  0  0  0
    3.4490    0.8855   -2.6304 O   0  0  0  0  0  0  0  0  0  0  0  0
    3.6221    1.7331   -3.7566 C   0  0  0  0  0  0  0  0  0  0  0  0
    2.1242    0.1139   -0.8185 C   0  0  0  0  0  0  0  0  0  0  0  0
    3.2832   -0.4895   -0.1109 C   0  0  0  0  0  0  0  0  0  0  0  0
    4.7024   -0.4555   -0.5231 C   0  0  0  0  0  0  0  0  0  0  0  0
    5.2489   -1.5060   -1.2725 C   0  0  0  0  0  0  0  0  0  0  0  0
    6.5955   -1.4807   -1.6402 C   0  0  0  0  0  0  0  0  0  0  0  0
    7.4032   -0.4092   -1.2597 C   0  0  0  0  0  0  0  0  0  0  0  0
    6.8672    0.6389   -0.5120 C   0  0  0  0  0  0  0  0  0  0  0  0
    5.5211    0.6164   -0.1423 C   0  0  0  0  0  0  0  0  0  0  0  0
    3.0738   -1.1346    1.0483 C   0  0  0  0  0  0  0  0  0  0  0  0
    1.7548   -1.2841    1.6601 C   0  0  0  0  0  0  0  0  0  0  0  0
    1.6044   -1.9029    2.7064 O   0  0  0  0  0  0  0  0  0  0  0  0
    0.7031   -0.6973    0.9905 O   0  0  0  0  0  0  0  0  0  0  0  0
    0.8542    0.0024   -0.2291 C   0  0  0  0  0  0  0  0  0  0  0  0
   -1.9099    2.6600    1.0812 C   0  0  0  0  0  0  0  0  0  0  0  0
   -1.9609    3.4748    2.2185 C   0  0  0  0  0  0  0  0  0  0  0  0
   -1.1730    5.4583    4.0806 H   0  0  0  0  0  0  0  0  0  0  0  0
   -2.9711    5.2805    4.1420 H   0  0  0  0  0  0  0  0  0  0  0  0
   -2.0221    5.3879    5.6297 H   0  0  0  0  0  0  0  0  0  0  0  0
   -1.5780    1.0833    4.5886 H   0  0  0  0  0  0  0  0  0  0  0  0
   -1.4814   -0.3507    2.6132 H   0  0  0  0  0  0  0  0  0  0  0  0
   -2.4413    0.8949   -0.7506 H   0  0  0  0  0  0  0  0  0  0  0  0
   -1.5695   -1.5897    0.7504 H   0  0  0  0  0  0  0  0  0  0  0  0
   -1.9414   -1.5311   -0.9581 H   0  0  0  0  0  0  0  0  0  0  0  0
   -3.8908   -0.6441    1.2444 H   0  0  0  0  0  0  0  0  0  0  0  0
   -4.2141   -0.6173   -0.4668 H   0  0  0  0  0  0  0  0  0  0  0  0
   -5.0564   -3.7395   -1.0585 H   0  0  0  0  0  0  0  0  0  0  0  0
   -3.8156   -2.6927   -1.7173 H   0  0  0  0  0  0  0  0  0  0  0  0
   -3.0419   -5.0523   -1.6505 H   0  0  0  0  0  0  0  0  0  0  0  0
   -2.0536   -4.1002   -0.5440 H   0  0  0  0  0  0  0  0  0  0  0  0
   -5.1596   -4.9197    1.2872 H   0  0  0  0  0  0  0  0  0  0  0  0
   -3.7981   -5.2973    2.3433 H   0  0  0  0  0  0  0  0  0  0  0  0
   -2.6818   -3.1695    1.7266 H   0  0  0  0  0  0  0  0  0  0  0  0
   -4.2654   -2.8670    2.4578 H   0  0  0  0  0  0  0  0  0  0  0  0
   -2.2634    2.9154   -3.9527 H   0  0  0  0  0  0  0  0  0  0  0  0
   -0.6119    3.4149   -3.5669 H   0  0  0  0  0  0  0  0  0  0  0  0
   -0.9234    1.9427   -4.5697 H   0  0  0  0  0  0  0  0  0  0  0  0
    1.1379    1.8545   -3.5819 H   0  0  0  0  0  0  0  0  0  0  0  0
    4.6896    1.7542   -3.9968 H   0  0  0  0  0  0  0  0  0  0  0  0
    3.0935    1.3356   -4.6296 H   0  0  0  0  0  0  0  0  0  0  0  0
    3.3097    2.7595   -3.5360 H   0  0  0  0  0  0  0  0  0  0  0  0
    4.6273   -2.3439   -1.5786 H   0  0  0  0  0  0  0  0  0  0  0  0
    7.0134   -2.2964   -2.2243 H   0  0  0  0  0  0  0  0  0  0  0  0
    8.4514   -0.3907   -1.5470 H   0  0  0  0  0  0  0  0  0  0  0  0
    7.4973    1.4740   -0.2169 H   0  0  0  0  0  0  0  0  0  0  0  0
    5.1115    1.4396    0.4383 H   0  0  0  0  0  0  0  0  0  0  0  0
    3.8804   -1.5914    1.6133 H   0  0  0  0  0  0  0  0  0  0  0  0
   -1.9964    3.1237    0.0999 H   0  0  0  0  0  0  0  0  0  0  0  0
   -2.0894    4.5418    2.0746 H   0  0  0  0  0  0  0  0  0  0  0  0
  1  2  1  0
  2  3  1  0
  3  4  2  0
  4  5  1  0
  5  6  2  0
  6  7  1  0
  7  8  1  0
  8  9  1  0
  9 10  1  0
 10 11  1  0
 11 12  1  0
 12 13  1  0
 13 14  1  0
 14 15  1  0
  7 16  1  0
 16 17  2  0
 17 18  1  0
 18 19  1  0
 17 20  1  0
 20 21  2  0
 21 22  1  0
 22 23  1  0
 21 24  1  0
 24 25  1  0
 25 26  1  0
 26 27  2  0
 27 28  1  0
 28 29  2  0
 29 30  1  0
 30 31  2  0
 25 32  2  0
 32 33  1  0
 33 34  2  0
 33 35  1  0
 35 36  1  0
  6 37  1  0
 37 38  2  0
 38  3  1  0
 15 10  1  0
 36 16  1  0
 36 24  2  0
 31 26  1  0
  1 39  1  0
  1 40  1  0
  1 41  1  0
  4 42  1  0
  5 43  1  0
  7 44  1  0
  8 45  1  0
  8 46  1  0
  9 47  1  0
  9 48  1  0
 11 49  1  0
 11 50  1  0
 12 51  1  0
 12 52  1  0
 14 53  1  0
 14 54  1  0
 15 55  1  0
 15 56  1  0
 19 57  1  0
 19 58  1  0
 19 59  1  0
 20 60  1  0
 23 61  1  0
 23 62  1  0
 23 63  1  0
 27 64  1  0
 28 65  1  0
 29 66  1  0
 30 67  1  0
 31 68  1  0
 32 69  1  0
 37 70  1  0
 38 71  1  0
M  END
$$$$
