
     RDKit          3D

 59 62  0  0  0  0  0  0  0  0999 V2000
   -6.3393   -2.2389   -1.7524 C   0  0  0  0  0  0  0  0  0  0  0  0
   -6.1110   -0.7440   -1.6160 C   0  0  0  0  0  0  0  0  0  0  0  0
   -5.8636   -0.3426   -0.2438 N   0  0  0  0  0  0  0  0  0  0  0  0
   -4.6423   -0.1420    0.3730 C   0  0  0  0  0  0  0  0  0  0  0  0
   -3.3559   -0.3610   -0.2774 C   0  0  0  0  0  0  0  0  0  0  0  0
   -3.1785   -1.3208   -1.0254 O   0  0  0  0  0  0  0  0  0  0  0  0
   -2.3289    0.5556   -0.0248 N   0  0  0  0  0  0  0  0  0  0  0  0
   -2.5613    1.9120    0.4757 C   0  0  0  0  0  0  0  0  0  0  0  0
   -1.5362    2.9053   -0.0603 C   0  0  0  0  0  0  0  0  0  0  0  0
   -0.1069    2.4837    0.2805 C   0  0  0  0  0  0  0  0  0  0  0  0
    0.1035    0.9606    0.2256 C   0  0  0  0  0  0  0  0  0  0  0  0
    1.4721    0.6203   -0.3469 C   0  0  0  0  0  0  0  0  0  0  0  0
    1.6317    0.0064   -1.3960 O   0  0  0  0  0  0  0  0  0  0  0  0
    2.5230    1.0671    0.4282 N   0  0  0  0  0  0  0  0  0  0  0  0
    3.9023    0.7910    0.0674 C   0  0  0  0  0  0  0  0  0  0  0  0
    4.3274   -0.6257    0.4585 C   0  0  0  0  0  0  0  0  0  0  0  0
    5.7642   -0.8979    0.0932 C   0  0  0  0  0  0  0  0  0  0  0  0
    6.7968   -0.6263    0.9986 C   0  0  0  0  0  0  0  0  0  0  0  0
    8.1275   -0.8648    0.6465 C   0  0  0  0  0  0  0  0  0  0  0  0
    8.4486   -1.3661   -0.6203 C   0  0  0  0  0  0  0  0  0  0  0  0
    9.8756   -1.6538   -0.9803 C   0  0  0  0  0  0  0  0  0  0  0  0
    7.4162   -1.6448   -1.5222 C   0  0  0  0  0  0  0  0  0  0  0  0
    6.0858   -1.4054   -1.1717 C   0  0  0  0  0  0  0  0  0  0  0  0
   -1.0002    0.2628   -0.5714 C   0  0  0  0  0  0  0  0  0  0  0  0
   -4.8885    0.2086    1.6957 C   0  0  0  0  0  0  0  0  0  0  0  0
   -6.2998    0.2760    1.8440 C   0  0  0  0  0  0  0  0  0  0  0  0
   -7.4738    0.6414    3.0626 S   0  0  0  0  0  0  0  0  0  0  0  0
   -8.7345    0.3334    1.9339 C   0  0  0  0  0  0  0  0  0  0  0  0
   -8.2936   -0.0355    0.6806 C   0  0  0  0  0  0  0  0  0  0  0  0
   -6.8709   -0.0609    0.6552 C   0  0  0  0  0  0  0  0  0  0  0  0
   -7.2182   -2.5596   -1.1819 H   0  0  0  0  0  0  0  0  0  0  0  0
   -5.4797   -2.8094   -1.3863 H   0  0  0  0  0  0  0  0  0  0  0  0
   -6.5026   -2.5026   -2.8018 H   0  0  0  0  0  0  0  0  0  0  0  0
   -5.2651   -0.4207   -2.2307 H   0  0  0  0  0  0  0  0  0  0  0  0
   -6.9871   -0.1908   -1.9725 H   0  0  0  0  0  0  0  0  0  0  0  0
   -2.4968    1.8727    1.5686 H   0  0  0  0  0  0  0  0  0  0  0  0
   -3.5661    2.2478    0.1994 H   0  0  0  0  0  0  0  0  0  0  0  0
   -1.6376    2.9766   -1.1507 H   0  0  0  0  0  0  0  0  0  0  0  0
   -1.7327    3.9061    0.3401 H   0  0  0  0  0  0  0  0  0  0  0  0
    0.5828    3.0101   -0.3912 H   0  0  0  0  0  0  0  0  0  0  0  0
    0.1364    2.8312    1.2933 H   0  0  0  0  0  0  0  0  0  0  0  0
    0.0743    0.5671    1.2515 H   0  0  0  0  0  0  0  0  0  0  0  0
    2.3354    1.4593    1.3420 H   0  0  0  0  0  0  0  0  0  0  0  0
    4.5200    1.5359    0.5805 H   0  0  0  0  0  0  0  0  0  0  0  0
    4.0198    0.9467   -1.0112 H   0  0  0  0  0  0  0  0  0  0  0  0
    3.6802   -1.3701   -0.0232 H   0  0  0  0  0  0  0  0  0  0  0  0
    4.1870   -0.7738    1.5375 H   0  0  0  0  0  0  0  0  0  0  0  0
    6.5739   -0.2320    1.9874 H   0  0  0  0  0  0  0  0  0  0  0  0
    8.9143   -0.6574    1.3688 H   0  0  0  0  0  0  0  0  0  0  0  0
   10.0164   -1.6568   -2.0662 H   0  0  0  0  0  0  0  0  0  0  0  0
   10.1707   -2.6307   -0.5858 H   0  0  0  0  0  0  0  0  0  0  0  0
   10.5402   -0.8870   -0.5687 H   0  0  0  0  0  0  0  0  0  0  0  0
    7.6397   -2.0505   -2.5061 H   0  0  0  0  0  0  0  0  0  0  0  0
    5.2988   -1.6218   -1.8920 H   0  0  0  0  0  0  0  0  0  0  0  0
   -0.9993    0.5827   -1.6215 H   0  0  0  0  0  0  0  0  0  0  0  0
   -0.8381   -0.8221   -0.5698 H   0  0  0  0  0  0  0  0  0  0  0  0
   -4.1500    0.3859    2.4649 H   0  0  0  0  0  0  0  0  0  0  0  0
   -9.7601    0.4401    2.2596 H   0  0  0  0  0  0  0  0  0  0  0  0
   -8.9462   -0.2709   -0.1498 H   0  0  0  0  0  0  0  0  0  0  0  0
  1  2  1  0
  2  3  1  0
  3  4  1  0
  4  5  1  0
  5  6  2  0
  5  7  1  0
  7  8  1  0
  8  9  1  0
  9 10  1  0
 10 11  1  0
 11 12  1  0
 12 13  2  0
 12 14  1  0
 14 15  1  0
 15 16  1  0
 16 17  1  0
 17 18  2  0
 18 19  1  0
 19 20  2  0
 20 21  1  0
 20 22  1  0
 22 23  2  0
 11 24  1  0
  4 25  2  0
 25 26  1  0
 26 27  1  0
 27 28  1  0
 28 29  2  0
 29 30  1  0
 30  3  1  0
 24  7  1  0
 30 26  2  0
 23 17  1  0
  1 31  1  0
  1 32  1  0
  1 33  1  0
  2 34  1  0
  2 35  1  0
  8 36  1  0
  8 37  1  0
  9 38  1  0
  9 39  1  0
 10 40  1  0
 10 41  1  0
 11 42  1  0
 14 43  1  0
 15 44  1  0
 15 45  1  0
 16 46  1  0
 16 47  1  0
 18 48  1  0
 19 49  1  0
 21 50  1  0
 21 51  1  0
 21 52  1  0
 22 53  1  0
 23 54  1  0
 24 55  1  0
 24 56  1  0
 25 57  1  0
 28 58  1  0
 29 59  1  0
M  END
$$$$
