
     RDKit          3D

 56 59  0  0  0  0  0  0  0  0999 V2000
    0.3678   -0.5049   -5.3614 C   0  0  0  0  0  0  0  0  0  0  0  0
   -0.0687   -0.6133   -4.0129 O   0  0  0  0  0  0  0  0  0  0  0  0
   -1.3615   -0.2590   -3.7311 C   0  0  0  0  0  0  0  0  0  0  0  0
   -2.2989    0.1491   -4.6859 C   0  0  0  0  0  0  0  0  0  0  0  0
   -3.6021    0.4959   -4.3076 C   0  0  0  0  0  0  0  0  0  0  0  0
   -3.9854    0.4385   -2.9657 C   0  0  0  0  0  0  0  0  0  0  0  0
   -5.3633    0.7954   -2.5133 C   0  0  0  0  0  0  0  0  0  0  0  0
   -6.3701    1.2584   -3.5351 C   0  0  0  0  0  0  0  0  0  0  0  0
   -5.6619    0.7032   -1.3248 O   0  0  0  0  0  0  0  0  0  0  0  0
   -3.0506    0.0283   -2.0077 C   0  0  0  0  0  0  0  0  0  0  0  0
   -1.7392   -0.3290   -2.3770 C   0  0  0  0  0  0  0  0  0  0  0  0
   -0.7631   -0.7557   -1.3013 C   0  0  0  0  0  0  0  0  0  0  0  0
    0.1140    0.6736   -0.6047 S   0  0  0  0  0  0  0  0  0  0  0  0
    1.2153   -0.1155    0.5102 C   0  0  0  0  0  0  0  0  0  0  0  0
    1.0691   -1.3870    0.6948 N   0  0  0  0  0  0  0  0  0  0  0  0
    1.9318   -2.0522    1.5646 C   0  0  0  0  0  0  0  0  0  0  0  0
    1.7457   -3.4191    1.7855 C   0  0  0  0  0  0  0  0  0  0  0  0
    2.5970   -4.1251    2.6466 C   0  0  0  0  0  0  0  0  0  0  0  0
    2.3511   -5.5740    2.8408 C   0  0  0  0  0  0  0  0  0  0  0  0
    1.4677   -6.2240    2.3155 O   0  0  0  0  0  0  0  0  0  0  0  0
    3.2323   -6.1423    3.6822 O   0  0  0  0  0  0  0  0  0  0  0  0
    3.6449   -3.4554    3.2908 C   0  0  0  0  0  0  0  0  0  0  0  0
    3.8352   -2.0897    3.0717 C   0  0  0  0  0  0  0  0  0  0  0  0
    2.9749   -1.3995    2.2091 C   0  0  0  0  0  0  0  0  0  0  0  0
    3.1408    0.0401    1.9517 C   0  0  0  0  0  0  0  0  0  0  0  0
    4.1013    0.6163    2.4606 O   0  0  0  0  0  0  0  0  0  0  0  0
    2.1953    0.6499    1.1273 N   0  0  0  0  0  0  0  0  0  0  0  0
    2.3371    2.1018    0.9529 C   0  0  0  0  0  0  0  0  0  0  0  0
    1.5188    2.8962    1.9530 C   0  0  0  0  0  0  0  0  0  0  0  0
    0.3440    3.5567    1.5627 C   0  0  0  0  0  0  0  0  0  0  0  0
   -0.4068    4.2840    2.4891 C   0  0  0  0  0  0  0  0  0  0  0  0
    0.0111    4.3675    3.8160 C   0  0  0  0  0  0  0  0  0  0  0  0
    1.1791    3.7237    4.2175 C   0  0  0  0  0  0  0  0  0  0  0  0
    1.9280    2.9929    3.2930 C   0  0  0  0  0  0  0  0  0  0  0  0
   -0.1759   -1.2016   -6.0073 H   0  0  0  0  0  0  0  0  0  0  0  0
    1.4262   -0.7798   -5.3919 H   0  0  0  0  0  0  0  0  0  0  0  0
    0.2812    0.5240   -5.7262 H   0  0  0  0  0  0  0  0  0  0  0  0
   -2.0487    0.2081   -5.7406 H   0  0  0  0  0  0  0  0  0  0  0  0
   -4.2952    0.8034   -5.0854 H   0  0  0  0  0  0  0  0  0  0  0  0
   -6.5732    0.4617   -4.2551 H   0  0  0  0  0  0  0  0  0  0  0  0
   -6.0130    2.1597   -4.0412 H   0  0  0  0  0  0  0  0  0  0  0  0
   -7.3080    1.5066   -3.0285 H   0  0  0  0  0  0  0  0  0  0  0  0
   -3.3418   -0.0133   -0.9578 H   0  0  0  0  0  0  0  0  0  0  0  0
   -1.3118   -1.2722   -0.5039 H   0  0  0  0  0  0  0  0  0  0  0  0
   -0.0483   -1.4810   -1.7070 H   0  0  0  0  0  0  0  0  0  0  0  0
    0.9287   -3.9321    1.2805 H   0  0  0  0  0  0  0  0  0  0  0  0
    2.9513   -7.0813    3.7162 H   0  0  0  0  0  0  0  0  0  0  0  0
    4.3157   -3.9853    3.9630 H   0  0  0  0  0  0  0  0  0  0  0  0
    4.6485   -1.5680    3.5715 H   0  0  0  0  0  0  0  0  0  0  0  0
    3.3890    2.3931    1.0659 H   0  0  0  0  0  0  0  0  0  0  0  0
    2.0790    2.3951   -0.0693 H   0  0  0  0  0  0  0  0  0  0  0  0
    0.0008    3.5165    0.5305 H   0  0  0  0  0  0  0  0  0  0  0  0
   -1.3171    4.7876    2.1726 H   0  0  0  0  0  0  0  0  0  0  0  0
   -0.5715    4.9366    4.5362 H   0  0  0  0  0  0  0  0  0  0  0  0
    1.5112    3.7910    5.2509 H   0  0  0  0  0  0  0  0  0  0  0  0
    2.8423    2.5056    3.6284 H   0  0  0  0  0  0  0  0  0  0  0  0
  1  2  1  0
  2  3  1  0
  3  4  2  0
  4  5  1  0
  5  6  2  0
  6  7  1  0
  7  8  1  0
  7  9  2  0
  6 10  1  0
 10 11  2  0
 11 12  1  0
 12 13  1  0
 13 14  1  0
 14 15  2  0
 15 16  1  0
 16 17  2  0
 17 18  1  0
 18 19  1  0
 19 20  2  0
 19 21  1  0
 18 22  2  0
 22 23  1  0
 23 24  2  0
 24 25  1  0
 25 26  2  0
 25 27  1  0
 27 28  1  0
 28 29  1  0
 29 30  2  0
 30 31  1  0
 31 32  2  0
 32 33  1  0
 33 34  2  0
 11  3  1  0
 27 14  1  0
 34 29  1  0
 24 16  1  0
  1 35  1  0
  1 36  1  0
  1 37  1  0
  4 38  1  0
  5 39  1  0
  8 40  1  0
  8 41  1  0
  8 42  1  0
 10 43  1  0
 12 44  1  0
 12 45  1  0
 17 46  1  0
 21 47  1  0
 22 48  1  0
 23 49  1  0
 28 50  1  0
 28 51  1  0
 30 52  1  0
 31 53  1  0
 32 54  1  0
 33 55  1  0
 34 56  1  0
M  END
$$$$
