
     RDKit          3D

 38 40  0  0  0  0  0  0  0  0999 V2000
   -0.7019   -0.2412   -2.0647 O   0  0  0  0  0  0  0  0  0  0  0  0
   -0.5719    0.9631   -1.8981 C   0  0  0  0  0  0  0  0  0  0  0  0
   -1.6482    1.9149   -1.4224 C   0  0  0  0  0  0  0  0  0  0  0  0
   -2.7004    1.2521   -0.5644 C   0  0  0  0  0  0  0  0  0  0  0  0
   -3.8684    0.7356   -1.1394 C   0  0  0  0  0  0  0  0  0  0  0  0
   -4.8271    0.1040   -0.3466 C   0  0  0  0  0  0  0  0  0  0  0  0
   -4.6270   -0.0213    1.0284 C   0  0  0  0  0  0  0  0  0  0  0  0
   -3.4652    0.4876    1.6277 C   0  0  0  0  0  0  0  0  0  0  0  0
   -3.2315    0.3262    3.1097 C   0  0  0  0  0  0  0  0  0  0  0  0
   -4.3864    0.2664    3.8321 F   0  0  0  0  0  0  0  0  0  0  0  0
   -2.5451   -0.8124    3.4082 F   0  0  0  0  0  0  0  0  0  0  0  0
   -2.5099    1.3490    3.6508 F   0  0  0  0  0  0  0  0  0  0  0  0
   -2.5024    1.1148    0.8187 C   0  0  0  0  0  0  0  0  0  0  0  0
    0.5718    1.6595   -2.1423 O   0  0  0  0  0  0  0  0  0  0  0  0
    1.6981    0.8653   -2.5251 C   0  0  0  0  0  0  0  0  0  0  0  0
    2.2178    0.1169   -1.4097 N   0  0  0  0  0  0  0  0  0  0  0  0
    2.7383   -1.1399   -1.5469 C   0  0  0  0  0  0  0  0  0  0  0  0
    2.8342   -1.8297   -2.5439 O   0  0  0  0  0  0  0  0  0  0  0  0
    3.2677   -1.5145   -0.2369 C   0  0  0  0  0  0  0  0  0  0  0  0
    3.8549   -2.6888    0.1914 C   0  0  0  0  0  0  0  0  0  0  0  0
    4.2899   -2.7371    1.5203 C   0  0  0  0  0  0  0  0  0  0  0  0
    4.1357   -1.6238    2.3740 C   0  0  0  0  0  0  0  0  0  0  0  0
    3.5442   -0.4429    1.9134 C   0  0  0  0  0  0  0  0  0  0  0  0
    3.1176   -0.4228    0.5993 C   0  0  0  0  0  0  0  0  0  0  0  0
    2.4862    0.6425   -0.1777 C   0  0  0  0  0  0  0  0  0  0  0  0
    2.2869    1.7645    0.2478 O   0  0  0  0  0  0  0  0  0  0  0  0
   -2.1099    2.3786   -2.3026 H   0  0  0  0  0  0  0  0  0  0  0  0
   -1.1834    2.7211   -0.8400 H   0  0  0  0  0  0  0  0  0  0  0  0
   -4.0353    0.8111   -2.2124 H   0  0  0  0  0  0  0  0  0  0  0  0
   -5.7280   -0.2990   -0.8039 H   0  0  0  0  0  0  0  0  0  0  0  0
   -5.3816   -0.5234    1.6328 H   0  0  0  0  0  0  0  0  0  0  0  0
   -1.5888    1.4984    1.2753 H   0  0  0  0  0  0  0  0  0  0  0  0
    1.4507    0.2123   -3.3707 H   0  0  0  0  0  0  0  0  0  0  0  0
    2.4822    1.5559   -2.8540 H   0  0  0  0  0  0  0  0  0  0  0  0
    3.9731   -3.5346   -0.4783 H   0  0  0  0  0  0  0  0  0  0  0  0
    4.7556   -3.6442    1.9024 H   0  0  0  0  0  0  0  0  0  0  0  0
    4.4841   -1.6863    3.4040 H   0  0  0  0  0  0  0  0  0  0  0  0
    3.4234    0.4218    2.5580 H   0  0  0  0  0  0  0  0  0  0  0  0
  1  2  2  0
  2  3  1  0
  3  4  1  0
  4  5  2  0
  5  6  1  0
  6  7  2  0
  7  8  1  0
  8  9  1  0
  9 10  1  0
  9 11  1  0
  9 12  1  0
  8 13  2  0
  2 14  1  0
 14 15  1  0
 15 16  1  0
 16 17  1  0
 17 18  2  0
 17 19  1  0
 19 20  2  0
 20 21  1  0
 21 22  2  0
 22 23  1  0
 23 24  2  0
 24 25  1  0
 25 26  2  0
 13  4  1  0
 25 16  1  0
 24 19  1  0
  3 27  1  0
  3 28  1  0
  5 29  1  0
  6 30  1  0
  7 31  1  0
 13 32  1  0
 15 33  1  0
 15 34  1  0
 20 35  1  0
 21 36  1  0
 22 37  1  0
 23 38  1  0
M  END
$$$$
