
     RDKit          3D

 44 46  0  0  0  0  0  0  0  0999 V2000
    7.5729   -1.0432   -2.6735 C   0  0  0  0  0  0  0  0  0  0  0  0
    7.2036   -0.9924   -1.3001 O   0  0  0  0  0  0  0  0  0  0  0  0
    5.8948   -0.7106   -1.0220 C   0  0  0  0  0  0  0  0  0  0  0  0
    4.8727   -0.5484   -1.9542 C   0  0  0  0  0  0  0  0  0  0  0  0
    3.5689   -0.2664   -1.5250 C   0  0  0  0  0  0  0  0  0  0  0  0
    3.2697   -0.1407   -0.1629 C   0  0  0  0  0  0  0  0  0  0  0  0
    1.9335    0.1408    0.1766 N   0  0  0  0  0  0  0  0  0  0  0  0
    1.3917    0.3225    1.4363 C   0  0  0  0  0  0  0  0  0  0  0  0
    2.0021    0.3087    2.5030 O   0  0  0  0  0  0  0  0  0  0  0  0
   -0.1117    0.6185    1.4043 C   0  0  0  0  0  0  0  0  0  0  0  0
   -0.8137   -0.2206    0.4926 O   0  0  0  0  0  0  0  0  0  0  0  0
   -1.3261    0.4822   -0.5434 C   0  0  0  0  0  0  0  0  0  0  0  0
   -0.4356    0.8955   -1.4485 N   0  0  0  0  0  0  0  0  0  0  0  0
   -1.3677    1.7425   -2.5507 S   0  0  0  0  0  0  0  0  0  0  0  0
   -2.8794    1.5701   -1.8697 N   0  0  0  0  0  0  0  0  0  0  0  0
   -2.7263    0.8073   -0.7779 C   0  0  0  0  0  0  0  0  0  0  0  0
   -3.7678    0.4524    0.0492 N   0  0  0  0  0  0  0  0  0  0  0  0
   -5.0807    1.0774   -0.1895 C   0  0  0  0  0  0  0  0  0  0  0  0
   -6.1468    0.5632    0.7861 C   0  0  0  0  0  0  0  0  0  0  0  0
   -5.5597    0.2981    2.1673 C   0  0  0  0  0  0  0  0  0  0  0  0
   -4.3965   -0.6982    2.1052 C   0  0  0  0  0  0  0  0  0  0  0  0
   -3.8157   -0.8567    0.6974 C   0  0  0  0  0  0  0  0  0  0  0  0
    4.2950   -0.3038    0.7659 C   0  0  0  0  0  0  0  0  0  0  0  0
    5.5968   -0.5888    0.3361 C   0  0  0  0  0  0  0  0  0  0  0  0
    8.6468   -1.2522   -2.7240 H   0  0  0  0  0  0  0  0  0  0  0  0
    7.0515   -1.8555   -3.1936 H   0  0  0  0  0  0  0  0  0  0  0  0
    7.3975   -0.0788   -3.1643 H   0  0  0  0  0  0  0  0  0  0  0  0
    5.0500   -0.6416   -3.0197 H   0  0  0  0  0  0  0  0  0  0  0  0
    2.7898   -0.1509   -2.2743 H   0  0  0  0  0  0  0  0  0  0  0  0
    1.2776    0.2248   -0.5992 H   0  0  0  0  0  0  0  0  0  0  0  0
   -0.5109    0.4028    2.4017 H   0  0  0  0  0  0  0  0  0  0  0  0
   -0.2539    1.6918    1.2188 H   0  0  0  0  0  0  0  0  0  0  0  0
   -4.9856    2.1648   -0.0625 H   0  0  0  0  0  0  0  0  0  0  0  0
   -5.4231    0.8875   -1.2152 H   0  0  0  0  0  0  0  0  0  0  0  0
   -6.5807   -0.3670    0.3962 H   0  0  0  0  0  0  0  0  0  0  0  0
   -6.9690    1.2856    0.8512 H   0  0  0  0  0  0  0  0  0  0  0  0
   -6.3352   -0.0745    2.8480 H   0  0  0  0  0  0  0  0  0  0  0  0
   -5.2011    1.2447    2.5926 H   0  0  0  0  0  0  0  0  0  0  0  0
   -3.6114   -0.3646    2.7964 H   0  0  0  0  0  0  0  0  0  0  0  0
   -4.7269   -1.6813    2.4626 H   0  0  0  0  0  0  0  0  0  0  0  0
   -2.8470   -1.3565    0.7720 H   0  0  0  0  0  0  0  0  0  0  0  0
   -4.4475   -1.5312    0.1030 H   0  0  0  0  0  0  0  0  0  0  0  0
    4.1194   -0.2212    1.8336 H   0  0  0  0  0  0  0  0  0  0  0  0
    6.3854   -0.7176    1.0742 H   0  0  0  0  0  0  0  0  0  0  0  0
  1  2  1  0
  2  3  1  0
  3  4  2  0
  4  5  1  0
  5  6  2  0
  6  7  1  0
  7  8  1  0
  8  9  2  0
  8 10  1  0
 10 11  1  0
 11 12  1  0
 12 13  2  0
 13 14  1  0
 14 15  1  0
 15 16  2  0
 16 17  1  0
 17 18  1  0
 18 19  1  0
 19 20  1  0
 20 21  1  0
 21 22  1  0
  6 23  1  0
 23 24  2  0
 24  3  1  0
 16 12  1  0
 22 17  1  0
  1 25  1  0
  1 26  1  0
  1 27  1  0
  4 28  1  0
  5 29  1  0
  7 30  1  0
 10 31  1  0
 10 32  1  0
 18 33  1  0
 18 34  1  0
 19 35  1  0
 19 36  1  0
 20 37  1  0
 20 38  1  0
 21 39  1  0
 21 40  1  0
 22 41  1  0
 22 42  1  0
 23 43  1  0
 24 44  1  0
M  END
$$$$
