
     RDKit          3D

 37 39  0  0  0  0  0  0  0  0999 V2000
   -4.3388    2.2735    0.7642 C   0  0  0  0  0  0  0  0  0  0  0  0
   -4.1420    0.8287    0.4128 C   0  0  0  0  0  0  0  0  0  0  0  0
   -5.1636   -0.0401    0.4250 C   0  0  0  0  0  0  0  0  0  0  0  0
   -5.0224   -1.4655    0.0894 C   0  0  0  0  0  0  0  0  0  0  0  0
   -5.9938   -2.2125    0.1166 O   0  0  0  0  0  0  0  0  0  0  0  0
   -3.7560   -1.9049   -0.2525 O   0  0  0  0  0  0  0  0  0  0  0  0
   -2.6620   -1.0186   -0.2754 C   0  0  0  0  0  0  0  0  0  0  0  0
   -1.4290   -1.5657   -0.6330 C   0  0  0  0  0  0  0  0  0  0  0  0
   -0.2987   -0.7525   -0.6871 C   0  0  0  0  0  0  0  0  0  0  0  0
    0.8526   -1.3984   -1.0365 O   0  0  0  0  0  0  0  0  0  0  0  0
    1.9803   -0.6201   -1.4637 C   0  0  0  0  0  0  0  0  0  0  0  0
    2.7901   -1.4779   -2.4455 C   0  0  0  0  0  0  0  0  0  0  0  0
    2.6457   -2.6639   -2.7018 O   0  0  0  0  0  0  0  0  0  0  0  0
    3.7506   -0.7759   -3.0951 O   0  0  0  0  0  0  0  0  0  0  0  0
    2.8458   -0.1969   -0.2853 C   0  0  0  0  0  0  0  0  0  0  0  0
    3.5191    1.0353   -0.3141 C   0  0  0  0  0  0  0  0  0  0  0  0
    4.3268    1.4284    0.7543 C   0  0  0  0  0  0  0  0  0  0  0  0
    4.4766    0.5940    1.8600 C   0  0  0  0  0  0  0  0  0  0  0  0
    3.8236   -0.6361    1.8974 C   0  0  0  0  0  0  0  0  0  0  0  0
    3.0163   -1.0323    0.8301 C   0  0  0  0  0  0  0  0  0  0  0  0
   -0.4192    0.5977   -0.3605 C   0  0  0  0  0  0  0  0  0  0  0  0
   -1.6655    1.1346   -0.0008 C   0  0  0  0  0  0  0  0  0  0  0  0
   -2.8101    0.3309    0.0442 C   0  0  0  0  0  0  0  0  0  0  0  0
   -5.3829    2.4934    1.0136 H   0  0  0  0  0  0  0  0  0  0  0  0
   -4.0644    2.9194   -0.0766 H   0  0  0  0  0  0  0  0  0  0  0  0
   -3.7338    2.5481    1.6349 H   0  0  0  0  0  0  0  0  0  0  0  0
   -6.1714    0.2616    0.6879 H   0  0  0  0  0  0  0  0  0  0  0  0
   -1.3521   -2.6232   -0.8721 H   0  0  0  0  0  0  0  0  0  0  0  0
    1.6307    0.2459   -2.0420 H   0  0  0  0  0  0  0  0  0  0  0  0
    4.1854   -1.4524   -3.6567 H   0  0  0  0  0  0  0  0  0  0  0  0
    3.4256    1.6949   -1.1747 H   0  0  0  0  0  0  0  0  0  0  0  0
    4.8441    2.3839    0.7222 H   0  0  0  0  0  0  0  0  0  0  0  0
    5.1066    0.8997    2.6913 H   0  0  0  0  0  0  0  0  0  0  0  0
    3.9435   -1.2899    2.7576 H   0  0  0  0  0  0  0  0  0  0  0  0
    2.5162   -1.9988    0.8757 H   0  0  0  0  0  0  0  0  0  0  0  0
    0.4372    1.2642   -0.3520 H   0  0  0  0  0  0  0  0  0  0  0  0
   -1.7112    2.1915    0.2497 H   0  0  0  0  0  0  0  0  0  0  0  0
  1  2  1  0
  2  3  2  0
  3  4  1  0
  4  5  2  0
  4  6  1  0
  6  7  1  0
  7  8  2  0
  8  9  1  0
  9 10  1  0
 10 11  1  0
 11 12  1  0
 12 13  2  0
 12 14  1  0
 11 15  1  0
 15 16  2  0
 16 17  1  0
 17 18  2  0
 18 19  1  0
 19 20  2  0
  9 21  2  0
 21 22  1  0
 22 23  2  0
 23  2  1  0
 23  7  1  0
 20 15  1  0
  1 24  1  0
  1 25  1  0
  1 26  1  0
  3 27  1  0
  8 28  1  0
 11 29  1  0
 14 30  1  0
 16 31  1  0
 17 32  1  0
 18 33  1  0
 19 34  1  0
 20 35  1  0
 21 36  1  0
 22 37  1  0
M  END
$$$$
