
     RDKit          3D

 52 55  0  0  0  0  0  0  0  0999 V2000
    5.4410   -2.0247   -1.6672 C   0  0  0  0  0  0  0  0  0  0  0  0
    6.2116   -0.8114   -1.1632 C   0  0  0  0  0  0  0  0  0  0  0  0
    5.3346    0.4532   -1.0522 C   0  0  0  0  0  0  0  0  0  0  0  0
    6.1464    1.6953   -0.6644 C   0  0  0  0  0  0  0  0  0  0  0  0
    4.0916    0.2857   -0.2330 N   0  0  0  0  0  0  0  0  0  0  0  0
    2.8970    0.4189   -0.9643 C   0  0  0  0  0  0  0  0  0  0  0  0
    2.8714    0.6588   -2.1734 O   0  0  0  0  0  0  0  0  0  0  0  0
    1.6152    0.2569   -0.2213 C   0  0  0  0  0  0  0  0  0  0  0  0
    0.4781    0.3827   -0.9373 C   0  0  0  0  0  0  0  0  0  0  0  0
   -0.8981    0.2711   -0.4493 C   0  0  0  0  0  0  0  0  0  0  0  0
   -1.5753    1.4000    0.0114 C   0  0  0  0  0  0  0  0  0  0  0  0
   -2.8987    1.2995    0.4725 C   0  0  0  0  0  0  0  0  0  0  0  0
   -3.5776    0.0645    0.4466 C   0  0  0  0  0  0  0  0  0  0  0  0
   -2.8859   -1.0660   -0.0342 C   0  0  0  0  0  0  0  0  0  0  0  0
   -1.5525   -0.9605   -0.4648 C   0  0  0  0  0  0  0  0  0  0  0  0
   -3.5551   -2.4166   -0.0565 C   0  0  0  0  0  0  0  0  0  0  0  0
   -5.0705   -2.2806   -0.0899 C   0  0  0  0  0  0  0  0  0  0  0  0
   -5.5235   -1.3418    1.0171 C   0  0  0  0  0  0  0  0  0  0  0  0
   -4.8941   -0.0353    0.8781 N   0  0  0  0  0  0  0  0  0  0  0  0
   -5.6362    1.1524    1.2808 C   0  0  0  0  0  0  0  0  0  0  0  0
   -4.7220    2.1788    1.9308 C   0  0  0  0  0  0  0  0  0  0  0  0
   -3.5954    2.5385    0.9733 C   0  0  0  0  0  0  0  0  0  0  0  0
    1.6382   -0.0258    1.2216 C   0  0  0  0  0  0  0  0  0  0  0  0
    0.6584   -0.1854    1.9367 O   0  0  0  0  0  0  0  0  0  0  0  0
    2.8902   -0.1067    1.7542 N   0  0  0  0  0  0  0  0  0  0  0  0
    4.1045    0.0262    1.1370 C   0  0  0  0  0  0  0  0  0  0  0  0
    5.4169   -0.1524    2.1656 S   0  0  0  0  0  0  0  0  0  0  0  0
    4.6676   -2.3314   -0.9565 H   0  0  0  0  0  0  0  0  0  0  0  0
    6.1215   -2.8712   -1.8051 H   0  0  0  0  0  0  0  0  0  0  0  0
    4.9636   -1.8150   -2.6298 H   0  0  0  0  0  0  0  0  0  0  0  0
    6.6931   -1.0633   -0.2156 H   0  0  0  0  0  0  0  0  0  0  0  0
    7.0296   -0.6085   -1.8667 H   0  0  0  0  0  0  0  0  0  0  0  0
    5.0352    0.6596   -2.0865 H   0  0  0  0  0  0  0  0  0  0  0  0
    6.8850    1.9206   -1.4421 H   0  0  0  0  0  0  0  0  0  0  0  0
    6.7004    1.5723    0.2679 H   0  0  0  0  0  0  0  0  0  0  0  0
    5.4938    2.5688   -0.5604 H   0  0  0  0  0  0  0  0  0  0  0  0
    0.5206    0.5921   -2.0063 H   0  0  0  0  0  0  0  0  0  0  0  0
   -1.0747    2.3652    0.0265 H   0  0  0  0  0  0  0  0  0  0  0  0
   -1.0319   -1.8476   -0.8175 H   0  0  0  0  0  0  0  0  0  0  0  0
   -3.2311   -2.9863   -0.9354 H   0  0  0  0  0  0  0  0  0  0  0  0
   -3.2465   -2.9736    0.8366 H   0  0  0  0  0  0  0  0  0  0  0  0
   -5.5384   -3.2640    0.0293 H   0  0  0  0  0  0  0  0  0  0  0  0
   -5.3876   -1.8842   -1.0634 H   0  0  0  0  0  0  0  0  0  0  0  0
   -5.2781   -1.7607    2.0008 H   0  0  0  0  0  0  0  0  0  0  0  0
   -6.6147   -1.2442    0.9710 H   0  0  0  0  0  0  0  0  0  0  0  0
   -6.1279    1.5836    0.4001 H   0  0  0  0  0  0  0  0  0  0  0  0
   -6.4277    0.8854    1.9912 H   0  0  0  0  0  0  0  0  0  0  0  0
   -5.2890    3.0773    2.1983 H   0  0  0  0  0  0  0  0  0  0  0  0
   -4.3054    1.7675    2.8597 H   0  0  0  0  0  0  0  0  0  0  0  0
   -3.9910    3.0910    0.1123 H   0  0  0  0  0  0  0  0  0  0  0  0
   -2.8839    3.1911    1.4929 H   0  0  0  0  0  0  0  0  0  0  0  0
    2.9071   -0.2995    2.7483 H   0  0  0  0  0  0  0  0  0  0  0  0
  1  2  1  0
  2  3  1  0
  3  4  1  0
  3  5  1  0
  5  6  1  0
  6  7  2  0
  6  8  1  0
  8  9  2  3
  9 10  1  0
 10 11  2  0
 11 12  1  0
 12 13  2  0
 13 14  1  0
 14 15  2  0
 14 16  1  0
 16 17  1  0
 17 18  1  0
 18 19  1  0
 19 20  1  0
 20 21  1  0
 21 22  1  0
  8 23  1  0
 23 24  2  0
 23 25  1  0
 25 26  1  0
 26 27  2  0
 26  5  1  0
 15 10  1  0
 22 12  1  0
 19 13  1  0
  1 28  1  0
  1 29  1  0
  1 30  1  0
  2 31  1  0
  2 32  1  0
  3 33  1  0
  4 34  1  0
  4 35  1  0
  4 36  1  0
  9 37  1  0
 11 38  1  0
 15 39  1  0
 16 40  1  0
 16 41  1  0
 17 42  1  0
 17 43  1  0
 18 44  1  0
 18 45  1  0
 20 46  1  0
 20 47  1  0
 21 48  1  0
 21 49  1  0
 22 50  1  0
 22 51  1  0
 25 52  1  0
M  END
$$$$
