
     RDKit          3D

 43 46  0  0  0  0  0  0  0  0999 V2000
   -0.8706    2.5727   -6.6496 N   0  0  0  0  0  0  0  0  0  0  0  0
   -1.2212    3.0186   -5.6372 C   0  0  0  0  0  0  0  0  0  0  0  0
   -1.7127    3.6403   -4.3995 C   0  0  0  0  0  0  0  0  0  0  0  0
   -2.4978    2.6559   -3.5405 C   0  0  0  0  0  0  0  0  0  0  0  0
   -1.6617    1.8835   -2.6384 N   0  0  0  0  0  0  0  0  0  0  0  0
   -1.8605    1.6970   -1.3030 C   0  0  0  0  0  0  0  0  0  0  0  0
   -0.8442    0.8678   -0.8889 C   0  0  0  0  0  0  0  0  0  0  0  0
   -0.7026    0.3956    0.4500 C   0  0  0  0  0  0  0  0  0  0  0  0
   -0.6925   -0.8931    0.8600 C   0  0  0  0  0  0  0  0  0  0  0  0
   -0.8854   -1.9636   -0.0687 C   0  0  0  0  0  0  0  0  0  0  0  0
   -1.0563   -2.8419   -0.8086 N   0  0  0  0  0  0  0  0  0  0  0  0
   -0.5129   -1.1486    2.2663 C   0  0  0  0  0  0  0  0  0  0  0  0
   -0.3491   -0.2258    3.2008 N   0  0  0  0  0  0  0  0  0  0  0  0
   -0.1940   -0.7925    4.4545 C   0  0  0  0  0  0  0  0  0  0  0  0
    0.0006   -0.0902    5.6609 C   0  0  0  0  0  0  0  0  0  0  0  0
    0.1439   -0.7957    6.8603 C   0  0  0  0  0  0  0  0  0  0  0  0
    0.0953   -2.1860    6.8693 C   0  0  0  0  0  0  0  0  0  0  0  0
   -0.0973   -2.9036    5.6849 C   0  0  0  0  0  0  0  0  0  0  0  0
   -0.2396   -2.1833    4.4871 C   0  0  0  0  0  0  0  0  0  0  0  0
   -0.4843   -2.7692    2.8933 S   0  0  0  0  0  0  0  0  0  0  0  0
   -0.0364    0.6432   -2.0442 C   0  0  0  0  0  0  0  0  0  0  0  0
    1.2061   -0.1181   -2.1747 C   0  0  0  0  0  0  0  0  0  0  0  0
    2.2184   -0.0211   -1.2070 C   0  0  0  0  0  0  0  0  0  0  0  0
    3.3941   -0.7641   -1.3402 C   0  0  0  0  0  0  0  0  0  0  0  0
    3.5600   -1.5967   -2.4412 C   0  0  0  0  0  0  0  0  0  0  0  0
    4.6890   -2.3065   -2.5652 F   0  0  0  0  0  0  0  0  0  0  0  0
    2.5758   -1.6974   -3.4161 C   0  0  0  0  0  0  0  0  0  0  0  0
    1.4002   -0.9550   -3.2851 C   0  0  0  0  0  0  0  0  0  0  0  0
   -0.5722    1.2631   -3.1090 N   0  0  0  0  0  0  0  0  0  0  0  0
   -0.8812    4.0844   -3.8390 H   0  0  0  0  0  0  0  0  0  0  0  0
   -2.3802    4.4630   -4.6823 H   0  0  0  0  0  0  0  0  0  0  0  0
   -3.0730    1.9387   -4.1380 H   0  0  0  0  0  0  0  0  0  0  0  0
   -3.2023    3.2121   -2.9110 H   0  0  0  0  0  0  0  0  0  0  0  0
   -2.7003    2.1340   -0.7798 H   0  0  0  0  0  0  0  0  0  0  0  0
   -0.6109    1.1832    1.1988 H   0  0  0  0  0  0  0  0  0  0  0  0
    0.0377    0.9948    5.6506 H   0  0  0  0  0  0  0  0  0  0  0  0
    0.2941   -0.2516    7.7901 H   0  0  0  0  0  0  0  0  0  0  0  0
    0.2084   -2.7235    7.8089 H   0  0  0  0  0  0  0  0  0  0  0  0
   -0.1352   -3.9888    5.6933 H   0  0  0  0  0  0  0  0  0  0  0  0
    2.1125    0.6444   -0.3542 H   0  0  0  0  0  0  0  0  0  0  0  0
    4.1832   -0.6934   -0.5985 H   0  0  0  0  0  0  0  0  0  0  0  0
    2.7253   -2.3487   -4.2712 H   0  0  0  0  0  0  0  0  0  0  0  0
    0.6300   -1.0335   -4.0508 H   0  0  0  0  0  0  0  0  0  0  0  0
  1  2  3  0
  2  3  1  0
  3  4  1  0
  4  5  1  0
  5  6  1  0
  6  7  2  0
  7  8  1  0
  8  9  2  3
  9 10  1  0
 10 11  3  0
  9 12  1  0
 12 13  2  0
 13 14  1  0
 14 15  2  0
 15 16  1  0
 16 17  2  0
 17 18  1  0
 18 19  2  0
 19 20  1  0
  7 21  1  0
 21 22  1  0
 22 23  2  0
 23 24  1  0
 24 25  2  0
 25 26  1  0
 25 27  1  0
 27 28  2  0
 21 29  2  0
 29  5  1  0
 20 12  1  0
 28 22  1  0
 19 14  1  0
  3 30  1  0
  3 31  1  0
  4 32  1  0
  4 33  1  0
  6 34  1  0
  8 35  1  0
 15 36  1  0
 16 37  1  0
 17 38  1  0
 18 39  1  0
 23 40  1  0
 24 41  1  0
 27 42  1  0
 28 43  1  0
M  END
$$$$
