
     RDKit          3D

 32 33  0  0  0  0  0  0  0  0999 V2000
   -4.7735   -0.9308    1.5948 C   0  0  0  0  0  0  0  0  0  0  0  0
   -4.7615   -0.5310    0.1314 C   0  0  0  0  0  0  0  0  0  0  0  0
   -3.4267   -0.6041   -0.3904 O   0  0  0  0  0  0  0  0  0  0  0  0
   -2.6654    0.5055   -0.2213 C   0  0  0  0  0  0  0  0  0  0  0  0
   -3.0168    1.5412    0.3218 O   0  0  0  0  0  0  0  0  0  0  0  0
   -1.3072    0.3021   -0.7954 C   0  0  0  0  0  0  0  0  0  0  0  0
   -0.3807    1.3465   -0.6860 C   0  0  0  0  0  0  0  0  0  0  0  0
    0.9093    1.2061   -1.2049 C   0  0  0  0  0  0  0  0  0  0  0  0
    1.2958    0.0177   -1.8408 C   0  0  0  0  0  0  0  0  0  0  0  0
    2.6930   -0.1352   -2.3915 C   0  0  0  0  0  0  0  0  0  0  0  0
    3.7005   -1.3674   -1.5210 S   0  0  0  0  0  0  0  0  0  0  0  0
    3.7349   -0.6945    0.0908 C   0  0  0  0  0  0  0  0  0  0  0  0
    3.1519   -1.3023    1.0993 N   0  0  0  0  0  0  0  0  0  0  0  0
    3.3142   -0.6062    2.2827 N   0  0  0  0  0  0  0  0  0  0  0  0
    4.0228    0.4888    2.1269 C   0  0  0  0  0  0  0  0  0  0  0  0
    4.3222    1.3512    3.1175 N   0  0  0  0  0  0  0  0  0  0  0  0
    4.5409    0.7573    0.5108 S   0  0  0  0  0  0  0  0  0  0  0  0
    0.3618   -1.0231   -1.9548 C   0  0  0  0  0  0  0  0  0  0  0  0
   -0.9288   -0.8845   -1.4347 C   0  0  0  0  0  0  0  0  0  0  0  0
   -4.3401   -1.9280    1.7243 H   0  0  0  0  0  0  0  0  0  0  0  0
   -4.1716   -0.2416    2.1954 H   0  0  0  0  0  0  0  0  0  0  0  0
   -5.7943   -0.9358    1.9871 H   0  0  0  0  0  0  0  0  0  0  0  0
   -5.3698   -1.2339   -0.4472 H   0  0  0  0  0  0  0  0  0  0  0  0
   -5.1936    0.4655   -0.0162 H   0  0  0  0  0  0  0  0  0  0  0  0
   -0.6597    2.2751   -0.1909 H   0  0  0  0  0  0  0  0  0  0  0  0
    1.6080    2.0337   -1.1020 H   0  0  0  0  0  0  0  0  0  0  0  0
    3.2188    0.8263   -2.3905 H   0  0  0  0  0  0  0  0  0  0  0  0
    2.6214   -0.4370   -3.4430 H   0  0  0  0  0  0  0  0  0  0  0  0
    4.5272    2.3102    2.8648 H   0  0  0  0  0  0  0  0  0  0  0  0
    3.7547    1.2624    3.9546 H   0  0  0  0  0  0  0  0  0  0  0  0
    0.6367   -1.9581   -2.4405 H   0  0  0  0  0  0  0  0  0  0  0  0
   -1.6246   -1.7143   -1.5313 H   0  0  0  0  0  0  0  0  0  0  0  0
  1  2  1  0
  2  3  1  0
  3  4  1  0
  4  5  2  0
  4  6  1  0
  6  7  2  0
  7  8  1  0
  8  9  2  0
  9 10  1  0
 10 11  1  0
 11 12  1  0
 12 13  2  0
 13 14  1  0
 14 15  2  0
 15 16  1  0
 15 17  1  0
  9 18  1  0
 18 19  2  0
 19  6  1  0
 17 12  1  0
  1 20  1  0
  1 21  1  0
  1 22  1  0
  2 23  1  0
  2 24  1  0
  7 25  1  0
  8 26  1  0
 10 27  1  0
 10 28  1  0
 16 29  1  0
 16 30  1  0
 18 31  1  0
 19 32  1  0
M  END
$$$$
