
     RDKit          3D

 61 65  0  0  0  0  0  0  0  0999 V2000
   -9.7006    2.0170   -2.0379 C   0  0  0  0  0  0  0  0  0  0  0  0
   -9.4939    0.8479   -1.2557 O   0  0  0  0  0  0  0  0  0  0  0  0
   -8.2087    0.5819   -0.8736 C   0  0  0  0  0  0  0  0  0  0  0  0
   -8.0532   -0.5626   -0.0932 C   0  0  0  0  0  0  0  0  0  0  0  0
   -6.7898   -0.9539    0.3678 C   0  0  0  0  0  0  0  0  0  0  0  0
   -5.6510   -0.2015    0.0555 C   0  0  0  0  0  0  0  0  0  0  0  0
   -4.3470   -0.5940    0.5201 N   0  0  0  0  0  0  0  0  0  0  0  0
   -3.9455   -1.8747    0.9309 C   0  0  0  0  0  0  0  0  0  0  0  0
   -4.7544   -2.9329    0.9061 O   0  0  0  0  0  0  0  0  0  0  0  0
   -2.6124   -1.8301    1.2875 C   0  0  0  0  0  0  0  0  0  0  0  0
   -2.1500   -0.5229    1.0671 C   0  0  0  0  0  0  0  0  0  0  0  0
   -0.8959   -0.0145    1.2653 N   0  0  0  0  0  0  0  0  0  0  0  0
   -0.1968    0.5883    0.0935 C   0  0  0  0  0  0  0  0  0  0  0  0
    0.6314   -0.4695   -0.6748 C   0  0  0  0  0  0  0  0  0  0  0  0
    1.6084   -1.1414    0.2251 N   0  0  0  0  0  0  0  0  0  0  0  0
    2.8698   -0.5548    0.3331 C   0  0  0  0  0  0  0  0  0  0  0  0
    3.6090   -0.2636   -0.8287 C   0  0  0  0  0  0  0  0  0  0  0  0
    4.8868    0.3086   -0.7793 C   0  0  0  0  0  0  0  0  0  0  0  0
    5.4732    0.5844    0.4542 C   0  0  0  0  0  0  0  0  0  0  0  0
    6.8185    1.1979    0.5646 C   0  0  0  0  0  0  0  0  0  0  0  0
    7.0277    2.0231    1.4495 O   0  0  0  0  0  0  0  0  0  0  0  0
    7.9146    0.8375   -0.3593 C   0  0  0  0  0  0  0  0  0  0  0  0
    8.0547   -0.4359   -0.9154 C   0  0  0  0  0  0  0  0  0  0  0  0
    9.1274   -0.6929   -1.7674 C   0  0  0  0  0  0  0  0  0  0  0  0
   10.0261    0.3309   -2.0253 C   0  0  0  0  0  0  0  0  0  0  0  0
    9.9269    1.5674   -1.4913 N   0  0  0  0  0  0  0  0  0  0  0  0
    8.8796    1.7906   -0.6585 C   0  0  0  0  0  0  0  0  0  0  0  0
    4.7653    0.3101    1.6235 C   0  0  0  0  0  0  0  0  0  0  0  0
    3.4889   -0.2657    1.5581 C   0  0  0  0  0  0  0  0  0  0  0  0
    0.9418   -1.7361    1.4082 C   0  0  0  0  0  0  0  0  0  0  0  0
    0.0578   -0.7139    2.1634 C   0  0  0  0  0  0  0  0  0  0  0  0
   -3.2292    0.2358    0.6619 C   0  0  0  0  0  0  0  0  0  0  0  0
   -3.2735    1.5616    0.5127 O   0  0  0  0  0  0  0  0  0  0  0  0
   -5.8159    0.9480   -0.7310 C   0  0  0  0  0  0  0  0  0  0  0  0
   -7.0830    1.3361   -1.1919 C   0  0  0  0  0  0  0  0  0  0  0  0
  -10.7714    2.0920   -2.2505 H   0  0  0  0  0  0  0  0  0  0  0  0
   -9.4067    2.9175   -1.4885 H   0  0  0  0  0  0  0  0  0  0  0  0
   -9.1753    1.9486   -2.9963 H   0  0  0  0  0  0  0  0  0  0  0  0
   -8.9249   -1.1577    0.1681 H   0  0  0  0  0  0  0  0  0  0  0  0
   -6.7430   -1.8350    0.9991 H   0  0  0  0  0  0  0  0  0  0  0  0
   -4.2411   -3.7075    1.1946 H   0  0  0  0  0  0  0  0  0  0  0  0
   -2.0403   -2.6780    1.6335 H   0  0  0  0  0  0  0  0  0  0  0  0
   -0.9006    1.0641   -0.5985 H   0  0  0  0  0  0  0  0  0  0  0  0
    0.4662    1.3808    0.4620 H   0  0  0  0  0  0  0  0  0  0  0  0
    1.1037    0.0031   -1.5417 H   0  0  0  0  0  0  0  0  0  0  0  0
   -0.0426   -1.2376   -1.0751 H   0  0  0  0  0  0  0  0  0  0  0  0
    3.2015   -0.5103   -1.8068 H   0  0  0  0  0  0  0  0  0  0  0  0
    5.3969    0.5339   -1.7118 H   0  0  0  0  0  0  0  0  0  0  0  0
    7.3570   -1.2355   -0.6833 H   0  0  0  0  0  0  0  0  0  0  0  0
    9.2652   -1.6718   -2.2139 H   0  0  0  0  0  0  0  0  0  0  0  0
   10.8781    0.1774   -2.6822 H   0  0  0  0  0  0  0  0  0  0  0  0
    8.8378    2.7900   -0.2317 H   0  0  0  0  0  0  0  0  0  0  0  0
    5.2020    0.5395    2.5938 H   0  0  0  0  0  0  0  0  0  0  0  0
    2.9916   -0.4603    2.5026 H   0  0  0  0  0  0  0  0  0  0  0  0
    0.3093   -2.5556    1.0457 H   0  0  0  0  0  0  0  0  0  0  0  0
    1.6617   -2.2057    2.0882 H   0  0  0  0  0  0  0  0  0  0  0  0
    0.6928    0.0503    2.6268 H   0  0  0  0  0  0  0  0  0  0  0  0
   -0.4688   -1.2088    2.9884 H   0  0  0  0  0  0  0  0  0  0  0  0
   -2.4409    1.8741    0.9173 H   0  0  0  0  0  0  0  0  0  0  0  0
   -4.9686    1.5553   -1.0356 H   0  0  0  0  0  0  0  0  0  0  0  0
   -7.1465    2.2312   -1.8012 H   0  0  0  0  0  0  0  0  0  0  0  0
  1  2  1  0
  2  3  1  0
  3  4  2  0
  4  5  1  0
  5  6  2  0
  6  7  1  0
  7  8  1  0
  8  9  1  0
  8 10  2  0
 10 11  1  0
 11 12  1  0
 12 13  1  0
 13 14  1  0
 14 15  1  0
 15 16  1  0
 16 17  2  0
 17 18  1  0
 18 19  2  0
 19 20  1  0
 20 21  2  0
 20 22  1  0
 22 23  2  0
 23 24  1  0
 24 25  2  0
 25 26  1  0
 26 27  2  0
 19 28  1  0
 28 29  2  0
 15 30  1  0
 30 31  1  0
 11 32  2  0
 32 33  1  0
  6 34  1  0
 34 35  2  0
 35  3  1  0
 32  7  1  0
 31 12  1  0
 29 16  1  0
 27 22  1  0
  1 36  1  0
  1 37  1  0
  1 38  1  0
  4 39  1  0
  5 40  1  0
  9 41  1  0
 10 42  1  0
 13 43  1  0
 13 44  1  0
 14 45  1  0
 14 46  1  0
 17 47  1  0
 18 48  1  0
 23 49  1  0
 24 50  1  0
 25 51  1  0
 27 52  1  0
 28 53  1  0
 29 54  1  0
 30 55  1  0
 30 56  1  0
 31 57  1  0
 31 58  1  0
 33 59  1  0
 34 60  1  0
 35 61  1  0
M  END
$$$$
