
     RDKit          3D

 47 49  0  0  0  0  0  0  0  0999 V2000
    7.5384   -1.0939   -1.7579 C   0  0  0  0  0  0  0  0  0  0  0  0
    7.2344    0.1866   -0.9985 C   0  0  0  0  0  0  0  0  0  0  0  0
    6.0420    0.7948   -1.4914 O   0  0  0  0  0  0  0  0  0  0  0  0
    4.8427    0.4379   -0.9441 C   0  0  0  0  0  0  0  0  0  0  0  0
    3.7466    1.1410   -1.4429 C   0  0  0  0  0  0  0  0  0  0  0  0
    2.4513    0.8830   -0.9773 C   0  0  0  0  0  0  0  0  0  0  0  0
    2.2244   -0.0906    0.0044 C   0  0  0  0  0  0  0  0  0  0  0  0
    0.8933   -0.3591    0.4836 N   0  0  0  0  0  0  0  0  0  0  0  0
    0.4436   -1.5336    1.1115 C   0  0  0  0  0  0  0  0  0  0  0  0
    1.2217   -2.5972    1.3139 O   0  0  0  0  0  0  0  0  0  0  0  0
   -0.8985   -1.3974    1.3987 C   0  0  0  0  0  0  0  0  0  0  0  0
   -1.3098   -0.1416    0.9299 C   0  0  0  0  0  0  0  0  0  0  0  0
   -2.5849    0.3313    1.0060 N   0  0  0  0  0  0  0  0  0  0  0  0
   -3.0212    0.8730    2.2947 C   0  0  0  0  0  0  0  0  0  0  0  0
   -3.2056    0.9210   -0.1905 C   0  0  0  0  0  0  0  0  0  0  0  0
   -4.6603    0.5218   -0.3142 C   0  0  0  0  0  0  0  0  0  0  0  0
   -5.6646    1.4966   -0.4129 C   0  0  0  0  0  0  0  0  0  0  0  0
   -7.0027    1.1221   -0.5499 C   0  0  0  0  0  0  0  0  0  0  0  0
   -7.3504   -0.2282   -0.5937 C   0  0  0  0  0  0  0  0  0  0  0  0
   -6.3614   -1.2059   -0.4984 C   0  0  0  0  0  0  0  0  0  0  0  0
   -5.0235   -0.8333   -0.3627 C   0  0  0  0  0  0  0  0  0  0  0  0
   -0.2062    0.5106    0.4205 C   0  0  0  0  0  0  0  0  0  0  0  0
   -0.1118    1.7756    0.0050 O   0  0  0  0  0  0  0  0  0  0  0  0
    3.3304   -0.7970    0.4970 C   0  0  0  0  0  0  0  0  0  0  0  0
    4.6270   -0.5367    0.0256 C   0  0  0  0  0  0  0  0  0  0  0  0
    6.7580   -1.8451   -1.6053 H   0  0  0  0  0  0  0  0  0  0  0  0
    8.4950   -1.5158   -1.4363 H   0  0  0  0  0  0  0  0  0  0  0  0
    7.5839   -0.8980   -2.8347 H   0  0  0  0  0  0  0  0  0  0  0  0
    8.0453    0.9008   -1.1867 H   0  0  0  0  0  0  0  0  0  0  0  0
    7.2158    0.0355    0.0870 H   0  0  0  0  0  0  0  0  0  0  0  0
    3.8965    1.8979   -2.2099 H   0  0  0  0  0  0  0  0  0  0  0  0
    1.6389    1.4410   -1.4326 H   0  0  0  0  0  0  0  0  0  0  0  0
    0.6645   -3.2979    1.6972 H   0  0  0  0  0  0  0  0  0  0  0  0
   -1.5276   -2.1440    1.8635 H   0  0  0  0  0  0  0  0  0  0  0  0
   -2.6711    0.2507    3.1284 H   0  0  0  0  0  0  0  0  0  0  0  0
   -2.6323    1.8892    2.4353 H   0  0  0  0  0  0  0  0  0  0  0  0
   -4.1132    0.9087    2.3625 H   0  0  0  0  0  0  0  0  0  0  0  0
   -3.1090    2.0151   -0.1597 H   0  0  0  0  0  0  0  0  0  0  0  0
   -2.6996    0.5837   -1.1072 H   0  0  0  0  0  0  0  0  0  0  0  0
   -5.4132    2.5551   -0.3829 H   0  0  0  0  0  0  0  0  0  0  0  0
   -7.7748    1.8842   -0.6249 H   0  0  0  0  0  0  0  0  0  0  0  0
   -8.3920   -0.5185   -0.7007 H   0  0  0  0  0  0  0  0  0  0  0  0
   -6.6312   -2.2582   -0.5272 H   0  0  0  0  0  0  0  0  0  0  0  0
   -4.2562   -1.6019   -0.2867 H   0  0  0  0  0  0  0  0  0  0  0  0
   -0.9405    2.2007    0.2846 H   0  0  0  0  0  0  0  0  0  0  0  0
    3.2294   -1.5426    1.2787 H   0  0  0  0  0  0  0  0  0  0  0  0
    5.4384   -1.1216    0.4443 H   0  0  0  0  0  0  0  0  0  0  0  0
  1  2  1  0
  2  3  1  0
  3  4  1  0
  4  5  2  0
  5  6  1  0
  6  7  2  0
  7  8  1  0
  8  9  1  0
  9 10  1  0
  9 11  2  0
 11 12  1  0
 12 13  1  0
 13 14  1  0
 13 15  1  0
 15 16  1  0
 16 17  2  0
 17 18  1  0
 18 19  2  0
 19 20  1  0
 20 21  2  0
 12 22  2  0
 22 23  1  0
  7 24  1  0
 24 25  2  0
 25  4  1  0
 22  8  1  0
 21 16  1  0
  1 26  1  0
  1 27  1  0
  1 28  1  0
  2 29  1  0
  2 30  1  0
  5 31  1  0
  6 32  1  0
 10 33  1  0
 11 34  1  0
 14 35  1  0
 14 36  1  0
 14 37  1  0
 15 38  1  0
 15 39  1  0
 17 40  1  0
 18 41  1  0
 19 42  1  0
 20 43  1  0
 21 44  1  0
 23 45  1  0
 24 46  1  0
 25 47  1  0
M  END
$$$$
