
     RDKit          3D

 41 42  0  0  0  0  0  0  0  0999 V2000
    3.0360    3.0940    0.9286 C   0  0  0  0  0  0  0  0  0  0  0  0
    2.3911    1.7447    1.1526 C   0  0  0  0  0  0  0  0  0  0  0  0
    1.3682    1.7013    1.9585 N   0  0  0  0  0  0  0  0  0  0  0  0
    0.6633    0.5308    2.0867 N   0  0  0  0  0  0  0  0  0  0  0  0
   -0.0481    0.0067    1.0015 C   0  0  0  0  0  0  0  0  0  0  0  0
    0.0614    0.3677   -0.1688 O   0  0  0  0  0  0  0  0  0  0  0  0
   -0.9890   -1.1115    1.4091 C   0  0  0  0  0  0  0  0  0  0  0  0
   -2.2816   -0.5051    2.5406 S   0  0  0  0  0  0  0  0  0  0  0  0
   -3.1692    0.6550    1.4406 C   0  0  0  0  0  0  0  0  0  0  0  0
   -3.8893   -0.0157    0.2964 C   0  0  0  0  0  0  0  0  0  0  0  0
   -3.3224    0.0591   -0.9909 C   0  0  0  0  0  0  0  0  0  0  0  0
   -3.9346   -0.5501   -2.0876 C   0  0  0  0  0  0  0  0  0  0  0  0
   -5.1293   -1.2417   -1.9216 C   0  0  0  0  0  0  0  0  0  0  0  0
   -5.7143   -1.3195   -0.6592 C   0  0  0  0  0  0  0  0  0  0  0  0
   -5.1027   -0.7101    0.4435 C   0  0  0  0  0  0  0  0  0  0  0  0
   -6.0038   -0.8558    2.1109 Br  0  0  0  0  0  0  0  0  0  0  0  0
    3.0175    0.5916    0.4586 C   0  0  0  0  0  0  0  0  0  0  0  0
    3.4650   -0.5047    1.2060 C   0  0  0  0  0  0  0  0  0  0  0  0
    4.0534   -1.5943    0.5622 C   0  0  0  0  0  0  0  0  0  0  0  0
    4.1960   -1.5896   -0.8268 C   0  0  0  0  0  0  0  0  0  0  0  0
    3.7490   -0.4841   -1.5665 C   0  0  0  0  0  0  0  0  0  0  0  0
    3.8972   -0.4813   -3.0258 N   0  0  0  0  0  4  0  0  0  0  0  0
    4.2217   -1.5448   -3.5730 O   0  0  0  0  0  0  0  0  0  0  0  0
    3.6997    0.5864   -3.6224 O   0  0  0  0  0  1  0  0  0  0  0  0
    3.1638    0.6164   -0.9305 C   0  0  0  0  0  0  0  0  0  0  0  0
    3.1770    3.5936    1.8917 H   0  0  0  0  0  0  0  0  0  0  0  0
    4.0107    3.0022    0.4421 H   0  0  0  0  0  0  0  0  0  0  0  0
    2.3785    3.7054    0.3038 H   0  0  0  0  0  0  0  0  0  0  0  0
    0.1442    0.4838    2.9639 H   0  0  0  0  0  0  0  0  0  0  0  0
   -0.4071   -1.8839    1.9232 H   0  0  0  0  0  0  0  0  0  0  0  0
   -1.4306   -1.5758    0.5237 H   0  0  0  0  0  0  0  0  0  0  0  0
   -2.4618    1.4058    1.0709 H   0  0  0  0  0  0  0  0  0  0  0  0
   -3.8856    1.2211    2.0461 H   0  0  0  0  0  0  0  0  0  0  0  0
   -2.3881    0.5965   -1.1522 H   0  0  0  0  0  0  0  0  0  0  0  0
   -3.4756   -0.4817   -3.0712 H   0  0  0  0  0  0  0  0  0  0  0  0
   -5.6081   -1.7159   -2.7744 H   0  0  0  0  0  0  0  0  0  0  0  0
   -6.6527   -1.8571   -0.5436 H   0  0  0  0  0  0  0  0  0  0  0  0
    3.3555   -0.5096    2.2886 H   0  0  0  0  0  0  0  0  0  0  0  0
    4.3994   -2.4472    1.1424 H   0  0  0  0  0  0  0  0  0  0  0  0
    4.6539   -2.4475   -1.3162 H   0  0  0  0  0  0  0  0  0  0  0  0
    2.7917    1.4648   -1.5006 H   0  0  0  0  0  0  0  0  0  0  0  0
  1  2  1  0
  2  3  2  3
  3  4  1  0
  4  5  1  0
  5  6  2  0
  5  7  1  0
  7  8  1  0
  8  9  1  0
  9 10  1  0
 10 11  2  0
 11 12  1  0
 12 13  2  0
 13 14  1  0
 14 15  2  0
 15 16  1  0
  2 17  1  0
 17 18  2  0
 18 19  1  0
 19 20  2  0
 20 21  1  0
 21 22  1  0
 22 23  2  0
 22 24  1  0
 21 25  2  0
 15 10  1  0
 25 17  1  0
  1 26  1  0
  1 27  1  0
  1 28  1  0
  4 29  1  0
  7 30  1  0
  7 31  1  0
  9 32  1  0
  9 33  1  0
 11 34  1  0
 12 35  1  0
 13 36  1  0
 14 37  1  0
 18 38  1  0
 19 39  1  0
 20 40  1  0
 25 41  1  0
M  CHG  2  22   1  24  -1
M  END
$$$$
