
     RDKit          3D

 34 36  0  0  0  0  0  0  0  0999 V2000
    0.7943   -0.7177    1.2662 O   0  0  0  0  0  0  0  0  0  0  0  0
    1.5020    0.2280    0.9346 C   0  0  0  0  0  0  0  0  0  0  0  0
    1.1876    1.5699    1.1398 N   0  0  0  0  0  0  0  0  0  0  0  0
    0.1177    2.0891    1.8055 C   0  0  0  0  0  0  0  0  0  0  0  0
    0.3325    3.4960    2.6856 S   0  0  0  0  0  0  0  0  0  0  0  0
   -1.0974    1.4920    1.8088 N   0  0  0  0  0  0  0  0  0  0  0  0
   -1.7640    0.7851    0.7831 C   0  0  0  0  0  0  0  0  0  0  0  0
   -1.3209    0.7785   -0.5630 C   0  0  0  0  0  0  0  0  0  0  0  0
   -2.0251    0.0950   -1.5647 C   0  0  0  0  0  0  0  0  0  0  0  0
   -3.1716   -0.5532   -1.1797 C   0  0  0  0  0  0  0  0  0  0  0  0
   -4.0688   -1.3006   -1.9335 N   0  0  0  0  0  0  0  0  0  0  0  0
   -5.0919   -1.7590   -1.0910 C   0  0  0  0  0  0  0  0  0  0  0  0
   -6.0454   -2.4452   -1.4118 O   0  0  0  0  0  0  0  0  0  0  0  0
   -4.8042   -1.2713    0.1920 N   0  0  0  0  0  0  0  0  0  0  0  0
   -3.6259   -0.5338    0.1355 C   0  0  0  0  0  0  0  0  0  0  0  0
   -2.9547    0.1306    1.1355 C   0  0  0  0  0  0  0  0  0  0  0  0
    2.8136   -0.0622    0.2824 C   0  0  0  0  0  0  0  0  0  0  0  0
    3.1247   -1.3955   -0.0287 C   0  0  0  0  0  0  0  0  0  0  0  0
    4.3374   -1.7184   -0.6448 C   0  0  0  0  0  0  0  0  0  0  0  0
    5.2524   -0.7139   -0.9562 C   0  0  0  0  0  0  0  0  0  0  0  0
    4.9554    0.6128   -0.6505 C   0  0  0  0  0  0  0  0  0  0  0  0
    3.7442    0.9291   -0.0362 C   0  0  0  0  0  0  0  0  0  0  0  0
    3.5024    2.2179    0.2491 F   0  0  0  0  0  0  0  0  0  0  0  0
    1.9732    2.2105    1.1161 H   0  0  0  0  0  0  0  0  0  0  0  0
   -1.6820    1.7622    2.5925 H   0  0  0  0  0  0  0  0  0  0  0  0
   -0.4328    1.3290   -0.8569 H   0  0  0  0  0  0  0  0  0  0  0  0
   -1.6791    0.0908   -2.5907 H   0  0  0  0  0  0  0  0  0  0  0  0
   -4.0204   -1.5047   -2.9177 H   0  0  0  0  0  0  0  0  0  0  0  0
   -5.3736   -1.4546    1.0014 H   0  0  0  0  0  0  0  0  0  0  0  0
   -3.3244    0.1244    2.1532 H   0  0  0  0  0  0  0  0  0  0  0  0
    2.4210   -2.1931    0.2076 H   0  0  0  0  0  0  0  0  0  0  0  0
    4.5657   -2.7561   -0.8798 H   0  0  0  0  0  0  0  0  0  0  0  0
    6.1963   -0.9660   -1.4343 H   0  0  0  0  0  0  0  0  0  0  0  0
    5.6618    1.4039   -0.8850 H   0  0  0  0  0  0  0  0  0  0  0  0
  1  2  2  0
  2  3  1  0
  3  4  1  0
  4  5  2  0
  4  6  1  0
  6  7  1  0
  7  8  2  0
  8  9  1  0
  9 10  2  0
 10 11  1  0
 11 12  1  0
 12 13  2  0
 12 14  1  0
 14 15  1  0
 15 16  2  0
  2 17  1  0
 17 18  2  0
 18 19  1  0
 19 20  2  0
 20 21  1  0
 21 22  2  0
 22 23  1  0
 16  7  1  0
 22 17  1  0
 15 10  1  0
  3 24  1  0
  6 25  1  0
  8 26  1  0
  9 27  1  0
 11 28  1  0
 14 29  1  0
 16 30  1  0
 18 31  1  0
 19 32  1  0
 20 33  1  0
 21 34  1  0
M  END
$$$$
