
     RDKit          3D

 37 40  0  0  0  0  0  0  0  0999 V2000
    5.8855    1.6745   -1.5942 C   0  0  0  0  0  0  0  0  0  0  0  0
    4.7177    1.2475   -0.7515 C   0  0  0  0  0  0  0  0  0  0  0  0
    4.3767    1.9732    0.3929 C   0  0  0  0  0  0  0  0  0  0  0  0
    3.3103    1.5731    1.2067 C   0  0  0  0  0  0  0  0  0  0  0  0
    2.5734    0.4186    0.8797 C   0  0  0  0  0  0  0  0  0  0  0  0
    1.5010   -0.0901    1.5914 N   0  0  0  0  0  0  0  0  0  0  0  0
    1.0622   -1.1685    1.0027 C   0  0  0  0  0  0  0  0  0  0  0  0
    0.0262   -1.9877    1.3514 N   0  0  0  0  0  0  0  0  0  0  0  0
   -0.8162   -1.7208    2.4076 C   0  0  0  0  0  0  0  0  0  0  0  0
   -0.7199   -0.7829    3.1956 O   0  0  0  0  0  0  0  0  0  0  0  0
   -1.9062   -2.7651    2.6173 C   0  0  0  0  0  0  0  0  0  0  0  0
   -2.5517   -3.4673    1.0724 S   0  0  0  0  0  0  0  0  0  0  0  0
   -3.1432   -2.0206    0.3048 C   0  0  0  0  0  0  0  0  0  0  0  0
   -3.0943   -1.8489   -1.0012 N   0  0  0  0  0  0  0  0  0  0  0  0
   -3.6056   -0.5889   -1.1822 C   0  0  0  0  0  0  0  0  0  0  0  0
   -3.8133    0.1655   -2.3437 C   0  0  0  0  0  0  0  0  0  0  0  0
   -4.3574    1.4521   -2.2065 C   0  0  0  0  0  0  0  0  0  0  0  0
   -4.6839    1.9707   -0.9462 C   0  0  0  0  0  0  0  0  0  0  0  0
   -4.4828    1.2273    0.2234 C   0  0  0  0  0  0  0  0  0  0  0  0
   -3.9443   -0.0402    0.0432 C   0  0  0  0  0  0  0  0  0  0  0  0
   -3.6508   -0.9597    1.0053 O   0  0  0  0  0  0  0  0  0  0  0  0
    1.8783   -1.6608   -0.4104 S   0  0  0  0  0  0  0  0  0  0  0  0
    2.9338   -0.3061   -0.2585 C   0  0  0  0  0  0  0  0  0  0  0  0
    4.0028    0.0852   -1.0831 C   0  0  0  0  0  0  0  0  0  0  0  0
    6.8040    1.2101   -1.2224 H   0  0  0  0  0  0  0  0  0  0  0  0
    6.0047    2.7630   -1.5736 H   0  0  0  0  0  0  0  0  0  0  0  0
    5.7396    1.3841   -2.6399 H   0  0  0  0  0  0  0  0  0  0  0  0
    4.9383    2.8646    0.6663 H   0  0  0  0  0  0  0  0  0  0  0  0
    3.0437    2.1419    2.0922 H   0  0  0  0  0  0  0  0  0  0  0  0
   -0.1688   -2.7610    0.7298 H   0  0  0  0  0  0  0  0  0  0  0  0
   -2.7308   -2.3132    3.1781 H   0  0  0  0  0  0  0  0  0  0  0  0
   -1.4859   -3.5744    3.2226 H   0  0  0  0  0  0  0  0  0  0  0  0
   -3.5572   -0.2370   -3.3174 H   0  0  0  0  0  0  0  0  0  0  0  0
   -4.5254    2.0573   -3.0954 H   0  0  0  0  0  0  0  0  0  0  0  0
   -5.1007    2.9739   -0.8733 H   0  0  0  0  0  0  0  0  0  0  0  0
   -4.7245    1.6125    1.2061 H   0  0  0  0  0  0  0  0  0  0  0  0
    4.2647   -0.5019   -1.9588 H   0  0  0  0  0  0  0  0  0  0  0  0
  1  2  1  0
  2  3  2  0
  3  4  1  0
  4  5  2  0
  5  6  1  0
  6  7  2  0
  7  8  1  0
  8  9  1  0
  9 10  2  0
  9 11  1  0
 11 12  1  0
 12 13  1  0
 13 14  2  0
 14 15  1  0
 15 16  2  0
 16 17  1  0
 17 18  2  0
 18 19  1  0
 19 20  2  0
 20 21  1  0
  7 22  1  0
 22 23  1  0
 23 24  2  0
 24  2  1  0
 23  5  1  0
 21 13  1  0
 20 15  1  0
  1 25  1  0
  1 26  1  0
  1 27  1  0
  3 28  1  0
  4 29  1  0
  8 30  1  0
 11 31  1  0
 11 32  1  0
 16 33  1  0
 17 34  1  0
 18 35  1  0
 19 36  1  0
 24 37  1  0
M  END
$$$$
