
     RDKit          3D

 38 39  0  0  0  0  0  0  0  0999 V2000
    4.5932   -1.8221    0.2061 C   0  0  0  0  0  0  0  0  0  0  0  0
    5.2264   -0.6102   -0.4645 C   0  0  0  0  0  0  0  0  0  0  0  0
    4.2957    0.0788   -1.4623 C   0  0  0  0  0  0  0  0  0  0  0  0
    3.1573    0.7554   -0.7997 C   0  0  0  0  0  0  0  0  0  0  0  0
    3.1125    1.9229   -0.1961 N   0  0  0  0  0  0  0  0  0  0  0  0
    1.8170    2.0752    0.2530 N   0  0  0  0  0  0  0  0  0  0  0  0
    1.1611    0.9903   -0.1088 C   0  0  0  0  0  0  0  0  0  0  0  0
   -0.2336    0.6227    0.1082 C   0  0  0  0  0  0  0  0  0  0  0  0
   -1.0751    1.5078    0.8049 C   0  0  0  0  0  0  0  0  0  0  0  0
   -2.4169    1.1949    1.0324 C   0  0  0  0  0  0  0  0  0  0  0  0
   -3.3056    1.9958    1.7014 O   0  0  0  0  0  0  0  0  0  0  0  0
   -2.7891    3.1527    2.3458 C   0  0  0  0  0  0  0  0  0  0  0  0
   -2.9217   -0.0180    0.5359 C   0  0  0  0  0  0  0  0  0  0  0  0
   -4.2324   -0.3589    0.7898 O   0  0  0  0  0  0  0  0  0  0  0  0
   -5.0689    0.1185   -0.2624 C   0  0  0  0  0  0  0  0  0  0  0  0
   -2.0960   -0.9290   -0.1438 C   0  0  0  0  0  0  0  0  0  0  0  0
   -2.6910   -2.0900   -0.5652 O   0  0  0  0  0  0  0  0  0  0  0  0
   -1.8477   -3.1106   -1.0808 C   0  0  0  0  0  0  0  0  0  0  0  0
   -0.7567   -0.5949   -0.3603 C   0  0  0  0  0  0  0  0  0  0  0  0
    1.9547    0.1016   -0.7898 O   0  0  0  0  0  0  0  0  0  0  0  0
    4.2546   -2.5501   -0.5381 H   0  0  0  0  0  0  0  0  0  0  0  0
    5.3232   -2.3163    0.8552 H   0  0  0  0  0  0  0  0  0  0  0  0
    3.7368   -1.5366    0.8245 H   0  0  0  0  0  0  0  0  0  0  0  0
    5.5543    0.0989    0.3053 H   0  0  0  0  0  0  0  0  0  0  0  0
    6.1258   -0.9413   -0.9974 H   0  0  0  0  0  0  0  0  0  0  0  0
    4.8680    0.8313   -2.0180 H   0  0  0  0  0  0  0  0  0  0  0  0
    3.9299   -0.6452   -2.1998 H   0  0  0  0  0  0  0  0  0  0  0  0
   -0.6535    2.4446    1.1605 H   0  0  0  0  0  0  0  0  0  0  0  0
   -3.6111    3.6263    2.8912 H   0  0  0  0  0  0  0  0  0  0  0  0
   -2.0144    2.8901    3.0739 H   0  0  0  0  0  0  0  0  0  0  0  0
   -2.4163    3.8759    1.6133 H   0  0  0  0  0  0  0  0  0  0  0  0
   -6.0968   -0.1779   -0.0329 H   0  0  0  0  0  0  0  0  0  0  0  0
   -5.0405    1.2113   -0.3317 H   0  0  0  0  0  0  0  0  0  0  0  0
   -4.7959   -0.3288   -1.2245 H   0  0  0  0  0  0  0  0  0  0  0  0
   -1.4008   -2.8054   -2.0324 H   0  0  0  0  0  0  0  0  0  0  0  0
   -2.4678   -3.9916   -1.2727 H   0  0  0  0  0  0  0  0  0  0  0  0
   -1.0786   -3.3965   -0.3555 H   0  0  0  0  0  0  0  0  0  0  0  0
   -0.1004   -1.2717   -0.8984 H   0  0  0  0  0  0  0  0  0  0  0  0
  1  2  1  0
  2  3  1  0
  3  4  1  0
  4  5  2  0
  5  6  1  0
  6  7  2  0
  7  8  1  0
  8  9  2  0
  9 10  1  0
 10 11  1  0
 11 12  1  0
 10 13  2  0
 13 14  1  0
 14 15  1  0
 13 16  1  0
 16 17  1  0
 17 18  1  0
 16 19  2  0
  7 20  1  0
 20  4  1  0
 19  8  1  0
  1 21  1  0
  1 22  1  0
  1 23  1  0
  2 24  1  0
  2 25  1  0
  3 26  1  0
  3 27  1  0
  9 28  1  0
 12 29  1  0
 12 30  1  0
 12 31  1  0
 15 32  1  0
 15 33  1  0
 15 34  1  0
 18 35  1  0
 18 36  1  0
 18 37  1  0
 19 38  1  0
M  END
$$$$
