
     RDKit          3D

 66 68  0  0  0  0  0  0  0  0999 V2000
   -6.9045   -2.5307    4.1762 C   0  0  0  0  0  0  0  0  0  0  0  0
   -6.5433   -2.4538    2.7034 C   0  0  0  0  0  0  0  0  0  0  0  0
   -6.0967   -1.1219    2.4291 O   0  0  0  0  0  0  0  0  0  0  0  0
   -5.6194   -1.0134    1.1457 C   0  0  0  0  0  0  0  0  0  0  0  0
   -6.5110   -1.0526    0.0697 C   0  0  0  0  0  0  0  0  0  0  0  0
   -6.0359   -0.9180   -1.2341 C   0  0  0  0  0  0  0  0  0  0  0  0
   -4.6738   -0.7349   -1.4615 C   0  0  0  0  0  0  0  0  0  0  0  0
   -3.7858   -0.6694   -0.3849 C   0  0  0  0  0  0  0  0  0  0  0  0
   -4.2512   -0.7822    0.9331 C   0  0  0  0  0  0  0  0  0  0  0  0
   -3.3081   -0.7316    2.0621 C   0  0  0  0  0  0  0  0  0  0  0  0
   -2.4409    0.2434    2.3803 C   0  0  0  0  0  0  0  0  0  0  0  0
   -2.3269    1.4815    1.6872 C   0  0  0  0  0  0  0  0  0  0  0  0
   -3.4151    2.1532    1.1673 O   0  0  0  0  0  0  0  0  0  0  0  0
   -3.0338    3.3345    0.5699 N   0  0  0  0  0  0  0  0  0  0  0  0
   -1.7097    3.4095    0.7221 C   0  0  0  0  0  0  0  0  0  0  0  0
   -0.9675    4.5769    0.1901 C   0  0  0  0  0  0  0  0  0  0  0  0
   -1.2250    2.2717    1.4034 C   0  0  0  0  0  0  0  0  0  0  0  0
    0.4259    1.9667    1.7110 S   0  0  0  0  0  6  0  0  0  0  0  0
    0.8953    3.1686    2.3635 O   0  0  0  0  0  0  0  0  0  0  0  0
    0.4968    0.6786    2.3640 O   0  0  0  0  0  0  0  0  0  0  0  0
    1.2202    1.8225    0.2096 N   0  0  0  0  0  0  0  0  0  0  0  0
    0.6816    0.7689   -0.6923 C   0  0  0  0  0  0  0  0  0  0  0  0
    1.6573    0.4828   -1.8232 C   0  0  0  0  0  0  0  0  0  0  0  0
    2.9661   -0.1070   -1.2699 C   0  0  0  0  0  0  0  0  0  0  0  0
    4.1215    0.0835   -2.2557 C   0  0  0  0  0  0  0  0  0  0  0  0
    4.1039    1.0162   -3.0621 O   0  0  0  0  0  0  0  0  0  0  0  0
    5.2072   -0.7849   -2.1720 N   0  0  0  0  0  0  0  0  0  0  0  0
    5.3052   -1.9421   -1.2778 C   0  0  0  0  0  0  0  0  0  0  0  0
    4.7775   -3.2092   -1.9337 C   0  0  0  0  0  0  0  0  0  0  0  0
    6.3266   -0.5721   -3.0930 C   0  0  0  0  0  0  0  0  0  0  0  0
    7.3641    0.3688   -2.5010 C   0  0  0  0  0  0  0  0  0  0  0  0
    3.3326    0.5135    0.0900 C   0  0  0  0  0  0  0  0  0  0  0  0
    2.7059    1.8902    0.2743 C   0  0  0  0  0  0  0  0  0  0  0  0
   -6.0435   -2.2683    4.8004 H   0  0  0  0  0  0  0  0  0  0  0  0
   -7.7014   -1.8164    4.4125 H   0  0  0  0  0  0  0  0  0  0  0  0
   -7.2423   -3.5363    4.4424 H   0  0  0  0  0  0  0  0  0  0  0  0
   -5.7472   -3.1764    2.4845 H   0  0  0  0  0  0  0  0  0  0  0  0
   -7.4280   -2.6961    2.1032 H   0  0  0  0  0  0  0  0  0  0  0  0
   -7.5762   -1.1720    0.2445 H   0  0  0  0  0  0  0  0  0  0  0  0
   -6.7292   -0.9466   -2.0707 H   0  0  0  0  0  0  0  0  0  0  0  0
   -4.3036   -0.6266   -2.4780 H   0  0  0  0  0  0  0  0  0  0  0  0
   -2.7282   -0.5215   -0.5841 H   0  0  0  0  0  0  0  0  0  0  0  0
   -3.3454   -1.6113    2.7023 H   0  0  0  0  0  0  0  0  0  0  0  0
   -1.7949    0.0898    3.2416 H   0  0  0  0  0  0  0  0  0  0  0  0
   -1.6250    5.2460   -0.3753 H   0  0  0  0  0  0  0  0  0  0  0  0
   -0.1663    4.2552   -0.4821 H   0  0  0  0  0  0  0  0  0  0  0  0
   -0.5272    5.1566    1.0075 H   0  0  0  0  0  0  0  0  0  0  0  0
   -0.2632    1.1219   -1.1194 H   0  0  0  0  0  0  0  0  0  0  0  0
    0.4815   -0.1544   -0.1362 H   0  0  0  0  0  0  0  0  0  0  0  0
    1.8327    1.4089   -2.3843 H   0  0  0  0  0  0  0  0  0  0  0  0
    1.2125   -0.2251   -2.5329 H   0  0  0  0  0  0  0  0  0  0  0  0
    2.7969   -1.1806   -1.1338 H   0  0  0  0  0  0  0  0  0  0  0  0
    4.7535   -1.7569   -0.3538 H   0  0  0  0  0  0  0  0  0  0  0  0
    6.3549   -2.0741   -0.9923 H   0  0  0  0  0  0  0  0  0  0  0  0
    4.8501   -4.0530   -1.2411 H   0  0  0  0  0  0  0  0  0  0  0  0
    3.7297   -3.0979   -2.2300 H   0  0  0  0  0  0  0  0  0  0  0  0
    5.3502   -3.4571   -2.8332 H   0  0  0  0  0  0  0  0  0  0  0  0
    6.7825   -1.5384   -3.3334 H   0  0  0  0  0  0  0  0  0  0  0  0
    5.9562   -0.1527   -4.0350 H   0  0  0  0  0  0  0  0  0  0  0  0
    7.7702   -0.0278   -1.5643 H   0  0  0  0  0  0  0  0  0  0  0  0
    6.9289    1.3506   -2.2853 H   0  0  0  0  0  0  0  0  0  0  0  0
    8.1928    0.5091   -3.2013 H   0  0  0  0  0  0  0  0  0  0  0  0
    2.9793   -0.1507    0.8903 H   0  0  0  0  0  0  0  0  0  0  0  0
    4.4193    0.5985    0.2122 H   0  0  0  0  0  0  0  0  0  0  0  0
    3.0520    2.5821   -0.5027 H   0  0  0  0  0  0  0  0  0  0  0  0
    3.0391    2.3143    1.2273 H   0  0  0  0  0  0  0  0  0  0  0  0
  1  2  1  0
  2  3  1  0
  3  4  1  0
  4  5  2  0
  5  6  1  0
  6  7  2  0
  7  8  1  0
  8  9  2  0
  9 10  1  0
 10 11  2  3
 11 12  1  0
 12 13  1  0
 13 14  1  0
 14 15  2  0
 15 16  1  0
 15 17  1  0
 17 18  1  0
 18 19  2  0
 18 20  2  0
 18 21  1  0
 21 22  1  0
 22 23  1  0
 23 24  1  0
 24 25  1  0
 25 26  2  0
 25 27  1  0
 27 28  1  0
 28 29  1  0
 27 30  1  0
 30 31  1  0
 24 32  1  0
 32 33  1  0
  9  4  1  0
 17 12  2  0
 33 21  1  0
  1 34  1  0
  1 35  1  0
  1 36  1  0
  2 37  1  0
  2 38  1  0
  5 39  1  0
  6 40  1  0
  7 41  1  0
  8 42  1  0
 10 43  1  0
 11 44  1  0
 16 45  1  0
 16 46  1  0
 16 47  1  0
 22 48  1  0
 22 49  1  0
 23 50  1  0
 23 51  1  0
 24 52  1  0
 28 53  1  0
 28 54  1  0
 29 55  1  0
 29 56  1  0
 29 57  1  0
 30 58  1  0
 30 59  1  0
 31 60  1  0
 31 61  1  0
 31 62  1  0
 32 63  1  0
 32 64  1  0
 33 65  1  0
 33 66  1  0
M  END
$$$$
