
     RDKit          3D

 47 49  0  0  0  0  0  0  0  0999 V2000
    4.2855    4.0613   -1.7137 C   0  0  0  0  0  0  0  0  0  0  0  0
    3.4452    2.8235   -1.5556 C   0  0  0  0  0  0  0  0  0  0  0  0
    3.7418    1.9198   -0.5257 C   0  0  0  0  0  0  0  0  0  0  0  0
    2.9884    0.7575   -0.3524 C   0  0  0  0  0  0  0  0  0  0  0  0
    1.9225    0.4644   -1.2104 C   0  0  0  0  0  0  0  0  0  0  0  0
    1.0959   -0.7901   -0.9877 C   0  0  0  0  0  0  0  0  0  0  0  0
    1.0042   -1.6507   -2.2516 C   0  0  0  0  0  0  0  0  0  0  0  0
   -0.2199   -0.4150   -0.4964 N   0  0  0  0  0  0  0  0  0  0  0  0
   -1.0393   -1.3150    0.1478 C   0  0  0  0  0  0  0  0  0  0  0  0
   -0.7353   -2.4916    0.3027 O   0  0  0  0  0  0  0  0  0  0  0  0
   -2.2722   -0.7532    0.6598 C   0  0  0  0  0  0  0  0  0  0  0  0
   -3.0077   -1.1153    1.8342 C   0  0  0  0  0  0  0  0  0  0  0  0
   -2.6938   -2.0995    2.8715 C   0  0  0  0  0  0  0  0  0  0  0  0
   -3.7163   -2.8899    3.4192 C   0  0  0  0  0  0  0  0  0  0  0  0
   -3.4374   -3.8249    4.4192 C   0  0  0  0  0  0  0  0  0  0  0  0
   -2.1342   -3.9764    4.8869 C   0  0  0  0  0  0  0  0  0  0  0  0
   -1.1111   -3.1916    4.3589 C   0  0  0  0  0  0  0  0  0  0  0  0
   -1.3893   -2.2547    3.3592 C   0  0  0  0  0  0  0  0  0  0  0  0
   -4.1274   -0.3768    1.9285 N   0  0  0  0  0  0  0  0  0  0  0  0
   -4.1427    0.4564    0.8371 O   0  0  0  0  0  0  0  0  0  0  0  0
   -3.0480    0.2278    0.0712 C   0  0  0  0  0  0  0  0  0  0  0  0
   -2.9675    1.0190   -1.1729 C   0  0  0  0  0  0  0  0  0  0  0  0
    1.6214    1.3735   -2.2385 C   0  0  0  0  0  0  0  0  0  0  0  0
    2.3731    2.5463   -2.4248 C   0  0  0  0  0  0  0  0  0  0  0  0
    2.0107    3.4831   -3.5451 C   0  0  0  0  0  0  0  0  0  0  0  0
    3.6594    4.9578   -1.6631 H   0  0  0  0  0  0  0  0  0  0  0  0
    5.0361    4.1416   -0.9199 H   0  0  0  0  0  0  0  0  0  0  0  0
    4.8161    4.0391   -2.6709 H   0  0  0  0  0  0  0  0  0  0  0  0
    4.5673    2.1160    0.1559 H   0  0  0  0  0  0  0  0  0  0  0  0
    3.2445    0.0822    0.4616 H   0  0  0  0  0  0  0  0  0  0  0  0
    1.5726   -1.4002   -0.2096 H   0  0  0  0  0  0  0  0  0  0  0  0
    0.5038   -2.6024   -2.0441 H   0  0  0  0  0  0  0  0  0  0  0  0
    0.4310   -1.1563   -3.0437 H   0  0  0  0  0  0  0  0  0  0  0  0
    2.0011   -1.8773   -2.6456 H   0  0  0  0  0  0  0  0  0  0  0  0
   -0.4070    0.5718   -0.3852 H   0  0  0  0  0  0  0  0  0  0  0  0
   -4.7405   -2.7823    3.0666 H   0  0  0  0  0  0  0  0  0  0  0  0
   -4.2386   -4.4329    4.8308 H   0  0  0  0  0  0  0  0  0  0  0  0
   -1.9157   -4.7052    5.6632 H   0  0  0  0  0  0  0  0  0  0  0  0
   -0.0937   -3.3081    4.7236 H   0  0  0  0  0  0  0  0  0  0  0  0
   -0.5730   -1.6504    2.9732 H   0  0  0  0  0  0  0  0  0  0  0  0
   -3.9545    1.3860   -1.4723 H   0  0  0  0  0  0  0  0  0  0  0  0
   -2.3122    1.8839   -1.0331 H   0  0  0  0  0  0  0  0  0  0  0  0
   -2.5751    0.4148   -1.9966 H   0  0  0  0  0  0  0  0  0  0  0  0
    0.7874    1.1674   -2.9074 H   0  0  0  0  0  0  0  0  0  0  0  0
    1.1756    3.0963   -4.1390 H   0  0  0  0  0  0  0  0  0  0  0  0
    1.7083    4.4556   -3.1440 H   0  0  0  0  0  0  0  0  0  0  0  0
    2.8606    3.6148   -4.2222 H   0  0  0  0  0  0  0  0  0  0  0  0
  1  2  1  0
  2  3  2  0
  3  4  1  0
  4  5  2  0
  5  6  1  0
  6  7  1  0
  6  8  1  0
  8  9  1  0
  9 10  2  0
  9 11  1  0
 11 12  1  0
 12 13  1  0
 13 14  2  0
 14 15  1  0
 15 16  2  0
 16 17  1  0
 17 18  2  0
 12 19  2  0
 19 20  1  0
 20 21  1  0
 21 22  1  0
  5 23  1  0
 23 24  2  0
 24 25  1  0
 24  2  1  0
 21 11  2  0
 18 13  1  0
  1 26  1  0
  1 27  1  0
  1 28  1  0
  3 29  1  0
  4 30  1  0
  6 31  1  0
  7 32  1  0
  7 33  1  0
  7 34  1  0
  8 35  1  0
 14 36  1  0
 15 37  1  0
 16 38  1  0
 17 39  1  0
 18 40  1  0
 22 41  1  0
 22 42  1  0
 22 43  1  0
 23 44  1  0
 25 45  1  0
 25 46  1  0
 25 47  1  0
M  END
$$$$
