
     RDKit          3D

 53 56  0  0  0  0  0  0  0  0999 V2000
    5.1080    3.8208    3.4569 C   0  0  0  0  0  0  0  0  0  0  0  0
    5.1942    4.3622    2.1448 O   0  0  0  0  0  0  0  0  0  0  0  0
    4.7853    3.5616    1.1126 C   0  0  0  0  0  0  0  0  0  0  0  0
    5.0050    4.0967   -0.1587 C   0  0  0  0  0  0  0  0  0  0  0  0
    4.6424    3.3848   -1.3023 C   0  0  0  0  0  0  0  0  0  0  0  0
    4.0419    2.1312   -1.1766 C   0  0  0  0  0  0  0  0  0  0  0  0
    3.7622    1.4222   -2.3174 O   0  0  0  0  0  0  0  0  0  0  0  0
    2.5743    1.9200   -2.9333 C   0  0  0  0  0  0  0  0  0  0  0  0
    3.8259    1.5676    0.0903 C   0  0  0  0  0  0  0  0  0  0  0  0
    3.2200    0.2522    0.2431 C   0  0  0  0  0  0  0  0  0  0  0  0
    3.7703   -0.7510    1.0192 C   0  0  0  0  0  0  0  0  0  0  0  0
    2.7717   -2.1417    0.9538 S   0  0  0  0  0  0  0  0  0  0  0  0
    1.7033   -1.3155   -0.0835 C   0  0  0  0  0  0  0  0  0  0  0  0
    0.5834   -1.8951   -0.6164 N   0  0  0  0  0  0  0  0  0  0  0  0
    0.0564   -3.1310   -0.3163 C   0  0  0  0  0  0  0  0  0  0  0  0
    0.4491   -3.9308    0.5294 O   0  0  0  0  0  0  0  0  0  0  0  0
   -1.1525   -3.4658   -1.1576 C   0  0  0  0  0  0  0  0  0  0  0  0
   -2.3176   -2.7498   -0.6791 N   0  0  0  0  0  0  0  0  0  0  0  0
   -3.1836   -3.1715    0.3040 C   0  0  0  0  0  0  0  0  0  0  0  0
   -2.9967   -4.2634    1.0374 O   0  0  0  0  0  0  0  0  0  0  0  0
   -4.2230   -2.2669    0.3431 C   0  0  0  0  0  0  0  0  0  0  0  0
   -3.9277   -1.2210   -0.5816 C   0  0  0  0  0  0  0  0  0  0  0  0
   -2.7248   -1.5323   -1.1769 C   0  0  0  0  0  0  0  0  0  0  0  0
   -1.9874   -0.8854   -2.0734 O   0  0  0  0  0  0  0  0  0  0  0  0
   -4.8295   -0.0508   -0.7922 C   0  0  0  0  0  0  0  0  0  0  0  0
   -5.8570    0.0844    0.3440 C   0  0  0  0  0  0  0  0  0  0  0  0
   -6.4854   -1.2677    0.7159 C   0  0  0  0  0  0  0  0  0  0  0  0
   -5.4321   -2.2691    1.2178 C   0  0  0  0  0  0  0  0  0  0  0  0
    2.0286   -0.0801   -0.3813 N   0  0  0  0  0  0  0  0  0  0  0  0
    4.1937    2.3016    1.2344 C   0  0  0  0  0  0  0  0  0  0  0  0
    5.5315    4.5550    4.1496 H   0  0  0  0  0  0  0  0  0  0  0  0
    4.0648    3.6522    3.7440 H   0  0  0  0  0  0  0  0  0  0  0  0
    5.6979    2.9022    3.5449 H   0  0  0  0  0  0  0  0  0  0  0  0
    5.4737    5.0728   -0.2588 H   0  0  0  0  0  0  0  0  0  0  0  0
    4.8460    3.8003   -2.2850 H   0  0  0  0  0  0  0  0  0  0  0  0
    2.2484    1.1835   -3.6752 H   0  0  0  0  0  0  0  0  0  0  0  0
    2.7772    2.8579   -3.4595 H   0  0  0  0  0  0  0  0  0  0  0  0
    1.7602    2.0582   -2.2122 H   0  0  0  0  0  0  0  0  0  0  0  0
    4.6850   -0.7447    1.5943 H   0  0  0  0  0  0  0  0  0  0  0  0
    0.0595   -1.2740   -1.2260 H   0  0  0  0  0  0  0  0  0  0  0  0
   -1.3563   -4.5408   -1.1124 H   0  0  0  0  0  0  0  0  0  0  0  0
   -0.9755   -3.2161   -2.2093 H   0  0  0  0  0  0  0  0  0  0  0  0
   -2.0551   -4.5166    1.0384 H   0  0  0  0  0  0  0  0  0  0  0  0
   -2.4989   -0.0946   -2.3332 H   0  0  0  0  0  0  0  0  0  0  0  0
   -4.2463    0.8742   -0.8680 H   0  0  0  0  0  0  0  0  0  0  0  0
   -5.3581   -0.1842   -1.7441 H   0  0  0  0  0  0  0  0  0  0  0  0
   -6.6403    0.7901    0.0444 H   0  0  0  0  0  0  0  0  0  0  0  0
   -5.3679    0.5068    1.2312 H   0  0  0  0  0  0  0  0  0  0  0  0
   -6.9935   -1.6807   -0.1648 H   0  0  0  0  0  0  0  0  0  0  0  0
   -7.2493   -1.1244    1.4886 H   0  0  0  0  0  0  0  0  0  0  0  0
   -5.8717   -3.2720    1.2641 H   0  0  0  0  0  0  0  0  0  0  0  0
   -5.1295   -1.9952    2.2361 H   0  0  0  0  0  0  0  0  0  0  0  0
    3.9998    1.8735    2.2132 H   0  0  0  0  0  0  0  0  0  0  0  0
  1  2  1  0
  2  3  1  0
  3  4  2  0
  4  5  1  0
  5  6  2  0
  6  7  1  0
  7  8  1  0
  6  9  1  0
  9 10  1  0
 10 11  2  0
 11 12  1  0
 12 13  1  0
 13 14  1  0
 14 15  1  0
 15 16  2  0
 15 17  1  0
 17 18  1  0
 18 19  1  0
 19 20  1  0
 19 21  2  0
 21 22  1  0
 22 23  2  0
 23 24  1  0
 22 25  1  0
 25 26  1  0
 26 27  1  0
 27 28  1  0
 13 29  2  0
  9 30  2  0
 30  3  1  0
 29 10  1  0
 23 18  1  0
 28 21  1  0
  1 31  1  0
  1 32  1  0
  1 33  1  0
  4 34  1  0
  5 35  1  0
  8 36  1  0
  8 37  1  0
  8 38  1  0
 11 39  1  0
 14 40  1  0
 17 41  1  0
 17 42  1  0
 20 43  1  0
 24 44  1  0
 25 45  1  0
 25 46  1  0
 26 47  1  0
 26 48  1  0
 27 49  1  0
 27 50  1  0
 28 51  1  0
 28 52  1  0
 30 53  1  0
M  END
$$$$
