
     RDKit          3D

 52 54  0  0  0  0  0  0  0  0999 V2000
   -5.7308   -3.3552    2.0308 C   0  0  0  0  0  0  0  0  0  0  0  0
   -4.5249   -2.5034    1.6604 C   0  0  0  0  0  0  0  0  0  0  0  0
   -4.8761   -1.0183    1.6445 C   0  0  0  0  0  0  0  0  0  0  0  0
   -3.6765   -0.0639    1.5723 C   0  0  0  0  0  0  0  0  0  0  0  0
   -2.7851   -0.0715    0.3066 C   0  0  0  0  0  0  0  0  0  0  0  0
   -3.5717   -0.0452   -1.0181 C   0  0  0  0  0  0  0  0  0  0  0  0
   -4.4716    1.1754   -1.1652 C   0  0  0  0  0  0  0  0  0  0  0  0
   -1.7496   -1.2240    0.3433 C   0  0  0  0  0  0  0  0  0  0  0  0
   -0.6295   -1.0234   -0.5863 N   0  0  0  0  0  0  0  0  0  0  0  0
    0.3472   -0.0955   -0.2467 C   0  0  0  0  0  0  0  0  0  0  0  0
    0.3614    0.5460    0.7941 O   0  0  0  0  0  0  0  0  0  0  0  0
    1.3890   -0.0187   -1.3113 C   0  0  0  0  0  0  0  0  0  0  0  0
    2.4679    0.7759   -1.3885 C   0  0  0  0  0  0  0  0  0  0  0  0
    2.9023    1.8056   -0.5025 C   0  0  0  0  0  0  0  0  0  0  0  0
    2.1142    2.7757    0.0684 C   0  0  0  0  0  0  0  0  0  0  0  0
    2.9570    3.5703    0.7825 N   0  0  0  0  0  0  0  0  0  0  0  0
    4.2480    3.2321    0.6633 N   0  0  0  0  0  0  0  0  0  0  0  0
    4.2392    2.1280   -0.1045 C   0  0  0  0  0  0  0  0  0  0  0  0
    5.4897    1.4419   -0.4350 C   0  0  0  0  0  0  0  0  0  0  0  0
    5.5793    0.0435   -0.3972 C   0  0  0  0  0  0  0  0  0  0  0  0
    6.7765   -0.5987   -0.7247 C   0  0  0  0  0  0  0  0  0  0  0  0
    7.8951    0.1506   -1.0859 C   0  0  0  0  0  0  0  0  0  0  0  0
    7.8218    1.5420   -1.1132 C   0  0  0  0  0  0  0  0  0  0  0  0
    6.6258    2.1848   -0.7857 C   0  0  0  0  0  0  0  0  0  0  0  0
    1.0454   -1.1948   -2.5324 S   0  0  0  0  0  0  0  0  0  0  0  0
   -0.4269   -1.7412   -1.7458 C   0  0  0  0  0  0  0  0  0  0  0  0
   -1.3626   -2.9614   -2.3942 S   0  0  0  0  0  0  0  0  0  0  0  0
   -6.0924   -3.1093    3.0344 H   0  0  0  0  0  0  0  0  0  0  0  0
   -6.5511   -3.2024    1.3222 H   0  0  0  0  0  0  0  0  0  0  0  0
   -5.4631   -4.4164    2.0177 H   0  0  0  0  0  0  0  0  0  0  0  0
   -4.1826   -2.8183    0.6708 H   0  0  0  0  0  0  0  0  0  0  0  0
   -3.7170   -2.6952    2.3751 H   0  0  0  0  0  0  0  0  0  0  0  0
   -5.4217   -0.7786    2.5669 H   0  0  0  0  0  0  0  0  0  0  0  0
   -5.5751   -0.8176    0.8252 H   0  0  0  0  0  0  0  0  0  0  0  0
   -4.0758    0.9533    1.6862 H   0  0  0  0  0  0  0  0  0  0  0  0
   -3.0464   -0.2202    2.4575 H   0  0  0  0  0  0  0  0  0  0  0  0
   -2.2159    0.8677    0.3491 H   0  0  0  0  0  0  0  0  0  0  0  0
   -2.8680   -0.0291   -1.8579 H   0  0  0  0  0  0  0  0  0  0  0  0
   -4.1699   -0.9563   -1.1294 H   0  0  0  0  0  0  0  0  0  0  0  0
   -5.2704    1.1877   -0.4190 H   0  0  0  0  0  0  0  0  0  0  0  0
   -4.9423    1.1758   -2.1537 H   0  0  0  0  0  0  0  0  0  0  0  0
   -3.8942    2.1002   -1.0668 H   0  0  0  0  0  0  0  0  0  0  0  0
   -1.3176   -1.2905    1.3498 H   0  0  0  0  0  0  0  0  0  0  0  0
   -2.2263   -2.1834    0.1451 H   0  0  0  0  0  0  0  0  0  0  0  0
    3.1335    0.6228   -2.2392 H   0  0  0  0  0  0  0  0  0  0  0  0
    1.0512    2.9687    0.0452 H   0  0  0  0  0  0  0  0  0  0  0  0
    2.7226    4.3738    1.3558 H   0  0  0  0  0  0  0  0  0  0  0  0
    4.7270   -0.5581   -0.0925 H   0  0  0  0  0  0  0  0  0  0  0  0
    6.8382   -1.6833   -0.6887 H   0  0  0  0  0  0  0  0  0  0  0  0
    8.8273   -0.3492   -1.3364 H   0  0  0  0  0  0  0  0  0  0  0  0
    8.6953    2.1294   -1.3836 H   0  0  0  0  0  0  0  0  0  0  0  0
    6.5802    3.2720   -0.8023 H   0  0  0  0  0  0  0  0  0  0  0  0
  1  2  1  0
  2  3  1  0
  3  4  1  0
  4  5  1  0
  5  6  1  0
  6  7  1  0
  5  8  1  0
  8  9  1  0
  9 10  1  0
 10 11  2  0
 10 12  1  0
 12 13  2  3
 13 14  1  0
 14 15  2  0
 15 16  1  0
 16 17  1  0
 17 18  2  0
 18 19  1  0
 19 20  2  0
 20 21  1  0
 21 22  2  0
 22 23  1  0
 23 24  2  0
 12 25  1  0
 25 26  1  0
 26 27  2  0
 26  9  1  0
 18 14  1  0
 24 19  1  0
  1 28  1  0
  1 29  1  0
  1 30  1  0
  2 31  1  0
  2 32  1  0
  3 33  1  0
  3 34  1  0
  4 35  1  0
  4 36  1  0
  5 37  1  0
  6 38  1  0
  6 39  1  0
  7 40  1  0
  7 41  1  0
  7 42  1  0
  8 43  1  0
  8 44  1  0
 13 45  1  0
 15 46  1  0
 16 47  1  0
 20 48  1  0
 21 49  1  0
 22 50  1  0
 23 51  1  0
 24 52  1  0
M  END
$$$$
