
     RDKit          3D

 41 43  0  0  0  0  0  0  0  0999 V2000
   -3.2074   -1.3375    1.9481 O   0  0  0  0  0  0  0  0  0  0  0  0
   -3.3945   -0.5411    1.0365 C   0  0  0  0  0  0  0  0  0  0  0  0
   -2.4853   -0.1527    0.0686 N   0  0  0  0  0  0  0  0  0  0  0  0
   -1.1699   -0.6323   -0.1139 C   0  0  0  0  0  0  0  0  0  0  0  0
   -0.6030   -1.6556    0.6437 C   0  0  0  0  0  0  0  0  0  0  0  0
    0.7047   -2.0767    0.3928 C   0  0  0  0  0  0  0  0  0  0  0  0
    1.4599   -1.4761   -0.6153 C   0  0  0  0  0  0  0  0  0  0  0  0
    0.9159   -0.4397   -1.3741 C   0  0  0  0  0  0  0  0  0  0  0  0
    1.5991    0.1898   -2.4394 N   0  0  0  0  0  0  0  0  0  0  0  0
    2.8992    0.0974   -2.8069 C   0  0  0  0  0  0  0  0  0  0  0  0
    3.2932    0.1701   -4.4311 S   0  0  0  0  0  0  0  0  0  0  0  0
    3.9046   -0.0251   -1.8989 N   0  0  0  0  0  0  0  0  0  0  0  0
    3.9951    0.5622   -0.6373 C   0  0  0  0  0  0  0  0  0  0  0  0
    3.1089    1.2531   -0.1427 O   0  0  0  0  0  0  0  0  0  0  0  0
    5.2633    0.3360    0.0540 C   0  0  0  0  0  0  0  0  0  0  0  0
    5.6157    0.8129    1.3045 C   0  0  0  0  0  0  0  0  0  0  0  0
    6.9252    0.4137    1.6981 C   0  0  0  0  0  0  0  0  0  0  0  0
    7.5364   -0.3579    0.7365 C   0  0  0  0  0  0  0  0  0  0  0  0
    6.5334   -0.5955   -0.6267 S   0  0  0  0  0  0  0  0  0  0  0  0
   -0.4052   -0.0384   -1.1297 C   0  0  0  0  0  0  0  0  0  0  0  0
   -4.7216    0.1316    0.9497 C   0  0  0  0  0  0  0  0  0  0  0  0
   -5.3858    0.4552    2.1391 C   0  0  0  0  0  0  0  0  0  0  0  0
   -6.6294    1.0869    2.0966 C   0  0  0  0  0  0  0  0  0  0  0  0
   -7.2172    1.3867    0.8678 C   0  0  0  0  0  0  0  0  0  0  0  0
   -6.5689    1.0483   -0.3204 C   0  0  0  0  0  0  0  0  0  0  0  0
   -5.3236    0.4169   -0.2834 C   0  0  0  0  0  0  0  0  0  0  0  0
   -2.7594    0.6124   -0.5331 H   0  0  0  0  0  0  0  0  0  0  0  0
   -1.1535   -2.1532    1.4360 H   0  0  0  0  0  0  0  0  0  0  0  0
    1.1311   -2.8835    0.9839 H   0  0  0  0  0  0  0  0  0  0  0  0
    2.4555   -1.8610   -0.8038 H   0  0  0  0  0  0  0  0  0  0  0  0
    1.0013    0.6028   -3.1468 H   0  0  0  0  0  0  0  0  0  0  0  0
    4.8018   -0.2433   -2.3119 H   0  0  0  0  0  0  0  0  0  0  0  0
    4.9522    1.4233    1.9083 H   0  0  0  0  0  0  0  0  0  0  0  0
    7.3927    0.6790    2.6389 H   0  0  0  0  0  0  0  0  0  0  0  0
    8.5252   -0.7953    0.7696 H   0  0  0  0  0  0  0  0  0  0  0  0
   -0.8326    0.7638   -1.7248 H   0  0  0  0  0  0  0  0  0  0  0  0
   -4.9331    0.2161    3.0995 H   0  0  0  0  0  0  0  0  0  0  0  0
   -7.1409    1.3398    3.0221 H   0  0  0  0  0  0  0  0  0  0  0  0
   -8.1888    1.8745    0.8369 H   0  0  0  0  0  0  0  0  0  0  0  0
   -7.0414    1.2660   -1.2754 H   0  0  0  0  0  0  0  0  0  0  0  0
   -4.8530    0.1267   -1.2185 H   0  0  0  0  0  0  0  0  0  0  0  0
  1  2  2  0
  2  3  1  0
  3  4  1  0
  4  5  2  0
  5  6  1  0
  6  7  2  0
  7  8  1  0
  8  9  1  0
  9 10  1  0
 10 11  2  0
 10 12  1  0
 12 13  1  0
 13 14  2  0
 13 15  1  0
 15 16  2  0
 16 17  1  0
 17 18  2  0
 18 19  1  0
  8 20  2  0
  2 21  1  0
 21 22  2  0
 22 23  1  0
 23 24  2  0
 24 25  1  0
 25 26  2  0
 20  4  1  0
 26 21  1  0
 19 15  1  0
  3 27  1  0
  5 28  1  0
  6 29  1  0
  7 30  1  0
  9 31  1  0
 12 32  1  0
 16 33  1  0
 17 34  1  0
 18 35  1  0
 20 36  1  0
 22 37  1  0
 23 38  1  0
 24 39  1  0
 25 40  1  0
 26 41  1  0
M  END
$$$$
