
     RDKit          3D

 33 35  0  0  0  0  0  0  0  0999 V2000
   -4.8766   -2.4947    1.6645 C   0  0  0  0  0  0  0  0  0  0  0  0
   -4.5141   -1.3335    0.7880 C   0  0  0  0  0  0  0  0  0  0  0  0
   -5.5116   -0.5764    0.1874 C   0  0  0  0  0  0  0  0  0  0  0  0
   -5.1378    0.4921   -0.6174 C   0  0  0  0  0  0  0  0  0  0  0  0
   -3.7860    0.7739   -0.8006 C   0  0  0  0  0  0  0  0  0  0  0  0
   -2.8484   -0.0282   -0.1698 C   0  0  0  0  0  0  0  0  0  0  0  0
   -1.4668    0.1380   -0.2606 N   0  0  0  0  0  0  0  0  0  0  0  0
   -0.7549    1.0625   -0.9931 C   0  0  0  0  0  0  0  0  0  0  0  0
   -1.2798    1.8966   -1.7261 O   0  0  0  0  0  0  0  0  0  0  0  0
    0.6981    0.9600   -0.8315 C   0  0  0  0  0  0  0  0  0  0  0  0
    1.4564    0.2693    0.0962 C   0  0  0  0  0  0  0  0  0  0  0  0
    2.8737    0.4254   -0.0880 C   0  0  0  0  0  0  0  0  0  0  0  0
    3.9587   -0.1170    0.6443 C   0  0  0  0  0  0  0  0  0  0  0  0
    5.2768    0.1873    0.2650 C   0  0  0  0  0  0  0  0  0  0  0  0
    6.3958   -0.3805    1.0289 N   0  0  0  0  0  4  0  0  0  0  0  0
    6.1233   -1.1186    1.9865 O   0  0  0  0  0  0  0  0  0  0  0  0
    7.5457   -0.0890    0.6711 O   0  0  0  0  0  1  0  0  0  0  0  0
    5.5355    1.0187   -0.8239 C   0  0  0  0  0  0  0  0  0  0  0  0
    4.4750    1.5625   -1.5540 C   0  0  0  0  0  0  0  0  0  0  0  0
    3.1528    1.2567   -1.1731 C   0  0  0  0  0  0  0  0  0  0  0  0
    1.7095    1.8152   -1.9190 S   0  0  0  0  0  0  0  0  0  0  0  0
   -3.1955   -1.0700    0.6186 N   0  0  0  0  0  0  0  0  0  0  0  0
   -5.4447   -3.2362    1.0941 H   0  0  0  0  0  0  0  0  0  0  0  0
   -5.4781   -2.1547    2.5132 H   0  0  0  0  0  0  0  0  0  0  0  0
   -3.9782   -2.9819    2.0569 H   0  0  0  0  0  0  0  0  0  0  0  0
   -6.5603   -0.8096    0.3402 H   0  0  0  0  0  0  0  0  0  0  0  0
   -5.8920    1.1060   -1.1021 H   0  0  0  0  0  0  0  0  0  0  0  0
   -3.5087    1.6113   -1.4288 H   0  0  0  0  0  0  0  0  0  0  0  0
   -0.9835   -0.5667    0.2729 H   0  0  0  0  0  0  0  0  0  0  0  0
    1.0381   -0.3262    0.8984 H   0  0  0  0  0  0  0  0  0  0  0  0
    3.7545   -0.7651    1.4941 H   0  0  0  0  0  0  0  0  0  0  0  0
    6.5544    1.2591   -1.1233 H   0  0  0  0  0  0  0  0  0  0  0  0
    4.6685    2.2136   -2.4034 H   0  0  0  0  0  0  0  0  0  0  0  0
  1  2  1  0
  2  3  2  0
  3  4  1  0
  4  5  2  0
  5  6  1  0
  6  7  1  0
  7  8  1  0
  8  9  2  0
  8 10  1  0
 10 11  2  0
 11 12  1  0
 12 13  2  0
 13 14  1  0
 14 15  1  0
 15 16  2  0
 15 17  1  0
 14 18  2  0
 18 19  1  0
 19 20  2  0
 20 21  1  0
  6 22  2  0
 22  2  1  0
 21 10  1  0
 20 12  1  0
  1 23  1  0
  1 24  1  0
  1 25  1  0
  3 26  1  0
  4 27  1  0
  5 28  1  0
  7 29  1  0
 11 30  1  0
 13 31  1  0
 18 32  1  0
 19 33  1  0
M  CHG  2  15   1  17  -1
M  END
$$$$
