
     RDKit          3D

 39 41  0  0  0  0  0  0  0  0999 V2000
   -3.2606    1.0452   -2.5833 F   0  0  0  0  0  0  0  0  0  0  0  0
   -3.9093    0.7971   -1.4360 C   0  0  0  0  0  0  0  0  0  0  0  0
   -5.1107    1.4586   -1.1934 C   0  0  0  0  0  0  0  0  0  0  0  0
   -5.8077    1.2145   -0.0117 C   0  0  0  0  0  0  0  0  0  0  0  0
   -5.2994    0.3078    0.9181 C   0  0  0  0  0  0  0  0  0  0  0  0
   -4.0937   -0.3529    0.6678 C   0  0  0  0  0  0  0  0  0  0  0  0
   -3.3761   -0.1069   -0.5131 C   0  0  0  0  0  0  0  0  0  0  0  0
   -2.0866   -0.8350   -0.8138 C   0  0  0  0  0  0  0  0  0  0  0  0
   -1.1350   -0.8326    0.3113 N   0  0  0  0  0  0  0  0  0  0  0  0
   -0.5381    0.5028    0.5440 C   0  0  0  0  0  0  0  0  0  0  0  0
    0.8606    0.7355   -0.0761 C   0  0  0  0  0  0  0  0  0  0  0  0
    1.8209   -0.2890    0.3703 N   0  0  0  0  0  0  0  0  0  0  0  0
    3.1757   -0.0210    0.4588 C   0  0  0  0  0  0  0  0  0  0  0  0
    3.7731    1.0142   -0.2817 C   0  0  0  0  0  0  0  0  0  0  0  0
    5.1444    1.2909   -0.2028 C   0  0  0  0  0  0  0  0  0  0  0  0
    5.9544    0.5288    0.6278 C   0  0  0  0  0  0  0  0  0  0  0  0
    7.6379    0.8621    0.7310 Cl  0  0  0  0  0  0  0  0  0  0  0  0
    5.4030   -0.5036    1.3741 C   0  0  0  0  0  0  0  0  0  0  0  0
    4.0303   -0.7712    1.2849 C   0  0  0  0  0  0  0  0  0  0  0  0
    1.2465   -1.5667    0.8221 C   0  0  0  0  0  0  0  0  0  0  0  0
   -0.0831   -1.8497    0.0861 C   0  0  0  0  0  0  0  0  0  0  0  0
   -5.4954    2.1578   -1.9289 H   0  0  0  0  0  0  0  0  0  0  0  0
   -6.7458    1.7272    0.1840 H   0  0  0  0  0  0  0  0  0  0  0  0
   -5.8413    0.1127    1.8404 H   0  0  0  0  0  0  0  0  0  0  0  0
   -3.7068   -1.0589    1.4005 H   0  0  0  0  0  0  0  0  0  0  0  0
   -2.3714   -1.8685   -1.0537 H   0  0  0  0  0  0  0  0  0  0  0  0
   -1.6069   -0.4259   -1.7124 H   0  0  0  0  0  0  0  0  0  0  0  0
   -1.2082    1.3113    0.2293 H   0  0  0  0  0  0  0  0  0  0  0  0
   -0.4430    0.6151    1.6325 H   0  0  0  0  0  0  0  0  0  0  0  0
    0.7916    0.7187   -1.1703 H   0  0  0  0  0  0  0  0  0  0  0  0
    1.1881    1.7363    0.2306 H   0  0  0  0  0  0  0  0  0  0  0  0
    3.1790    1.6184   -0.9621 H   0  0  0  0  0  0  0  0  0  0  0  0
    5.5647    2.0972   -0.7969 H   0  0  0  0  0  0  0  0  0  0  0  0
    6.0255   -1.1044    2.0309 H   0  0  0  0  0  0  0  0  0  0  0  0
    3.6373   -1.5743    1.9021 H   0  0  0  0  0  0  0  0  0  0  0  0
    1.0825   -1.5397    1.9062 H   0  0  0  0  0  0  0  0  0  0  0  0
    1.9257   -2.3983    0.5988 H   0  0  0  0  0  0  0  0  0  0  0  0
    0.1464   -1.9290   -0.9860 H   0  0  0  0  0  0  0  0  0  0  0  0
   -0.4683   -2.8249    0.4059 H   0  0  0  0  0  0  0  0  0  0  0  0
  1  2  1  0
  2  3  2  0
  3  4  1  0
  4  5  2  0
  5  6  1  0
  6  7  2  0
  7  8  1  0
  8  9  1  0
  9 10  1  0
 10 11  1  0
 11 12  1  0
 12 13  1  0
 13 14  2  0
 14 15  1  0
 15 16  2  0
 16 17  1  0
 16 18  1  0
 18 19  2  0
 12 20  1  0
 20 21  1  0
  7  2  1  0
 21  9  1  0
 19 13  1  0
  3 22  1  0
  4 23  1  0
  5 24  1  0
  6 25  1  0
  8 26  1  0
  8 27  1  0
 10 28  1  0
 10 29  1  0
 11 30  1  0
 11 31  1  0
 14 32  1  0
 15 33  1  0
 18 34  1  0
 19 35  1  0
 20 36  1  0
 20 37  1  0
 21 38  1  0
 21 39  1  0
M  END
$$$$
