
     RDKit          3D

 39 41  0  0  0  0  0  0  0  0999 V2000
   -2.6042    0.0846    1.9230 C   0  0  0  0  0  0  0  0  0  0  0  0
   -2.6879    0.3583    0.4633 C   0  0  0  0  0  0  0  0  0  0  0  0
   -3.8770    0.7856   -0.0813 N   0  0  0  0  0  0  0  0  0  0  0  0
   -3.7381    1.0498   -1.4197 C   0  0  0  0  0  0  0  0  0  0  0  0
   -4.6794    1.5097   -2.3489 C   0  0  0  0  0  0  0  0  0  0  0  0
   -4.2510    1.7022   -3.6649 C   0  0  0  0  0  0  0  0  0  0  0  0
   -2.9335    1.4456   -4.0328 C   0  0  0  0  0  0  0  0  0  0  0  0
   -2.0079    0.9857   -3.0891 C   0  0  0  0  0  0  0  0  0  0  0  0
   -2.4125    0.7824   -1.7515 C   0  0  0  0  0  0  0  0  0  0  0  0
   -1.7475    0.3173   -0.5627 C   0  0  0  0  0  0  0  0  0  0  0  0
   -0.3372   -0.0909   -0.4925 C   0  0  0  0  0  0  0  0  0  0  0  0
    0.5034    0.4206   -1.2386 O   0  0  0  0  0  0  0  0  0  0  0  0
    0.0816   -1.2217    0.4648 C   0  0  0  0  0  0  0  0  0  0  0  0
   -0.4163   -2.5567   -0.0760 C   0  0  0  0  0  0  0  0  0  0  0  0
    1.5146   -1.3172    0.5508 O   0  0  0  0  0  0  0  0  0  0  0  0
    2.0935   -0.3174    1.2808 C   0  0  0  0  0  0  0  0  0  0  0  0
    1.4645    0.5078    1.9316 O   0  0  0  0  0  0  0  0  0  0  0  0
    3.5315   -0.4126    1.1804 C   0  0  0  0  0  0  0  0  0  0  0  0
    4.3664   -1.2385    0.4400 C   0  0  0  0  0  0  0  0  0  0  0  0
    5.7014   -0.8676    0.7430 C   0  0  0  0  0  0  0  0  0  0  0  0
    5.5947    0.1580    1.6505 C   0  0  0  0  0  0  0  0  0  0  0  0
    6.5866    0.9366    2.3237 N   0  0  0  0  0  4  0  0  0  0  0  0
    6.2046    1.8002    3.1225 O   0  0  0  0  0  0  0  0  0  0  0  0
    7.7655    0.6715    2.0505 O   0  0  0  0  0  1  0  0  0  0  0  0
    4.2974    0.4481    1.9303 O   0  0  0  0  0  0  0  0  0  0  0  0
   -1.7106    0.5477    2.3527 H   0  0  0  0  0  0  0  0  0  0  0  0
   -3.4700    0.4904    2.4574 H   0  0  0  0  0  0  0  0  0  0  0  0
   -2.5736   -0.9933    2.1085 H   0  0  0  0  0  0  0  0  0  0  0  0
   -4.7370    0.9193    0.4331 H   0  0  0  0  0  0  0  0  0  0  0  0
   -5.7061    1.7153   -2.0643 H   0  0  0  0  0  0  0  0  0  0  0  0
   -4.9563    2.0617   -4.4107 H   0  0  0  0  0  0  0  0  0  0  0  0
   -2.6159    1.6061   -5.0600 H   0  0  0  0  0  0  0  0  0  0  0  0
   -0.9800    0.7956   -3.3876 H   0  0  0  0  0  0  0  0  0  0  0  0
   -0.3200   -1.0696    1.4679 H   0  0  0  0  0  0  0  0  0  0  0  0
   -0.0208   -2.7431   -1.0811 H   0  0  0  0  0  0  0  0  0  0  0  0
   -0.0713   -3.3801    0.5587 H   0  0  0  0  0  0  0  0  0  0  0  0
   -1.5087   -2.5916   -0.1286 H   0  0  0  0  0  0  0  0  0  0  0  0
    4.0397   -2.0108   -0.2448 H   0  0  0  0  0  0  0  0  0  0  0  0
    6.6173   -1.2891    0.3510 H   0  0  0  0  0  0  0  0  0  0  0  0
  1  2  1  0
  2  3  1  0
  3  4  1  0
  4  5  2  0
  5  6  1  0
  6  7  2  0
  7  8  1  0
  8  9  2  0
  9 10  1  0
 10 11  1  0
 11 12  2  0
 11 13  1  0
 13 14  1  0
 13 15  1  0
 15 16  1  0
 16 17  2  0
 16 18  1  0
 18 19  2  0
 19 20  1  0
 20 21  2  0
 21 22  1  0
 22 23  2  0
 22 24  1  0
 21 25  1  0
 10  2  2  0
 25 18  1  0
  9  4  1  0
  1 26  1  0
  1 27  1  0
  1 28  1  0
  3 29  1  0
  5 30  1  0
  6 31  1  0
  7 32  1  0
  8 33  1  0
 13 34  1  0
 14 35  1  0
 14 36  1  0
 14 37  1  0
 19 38  1  0
 20 39  1  0
M  CHG  2  22   1  24  -1
M  END
$$$$
