
     RDKit          3D

 40 42  0  0  0  0  0  0  0  0999 V2000
    4.4245   -3.1022   -1.7333 C   0  0  0  0  0  0  0  0  0  0  0  0
    3.9360   -1.8140   -1.1465 C   0  0  0  0  0  0  0  0  0  0  0  0
    4.4852   -0.7328   -1.2911 O   0  0  0  0  0  0  0  0  0  0  0  0
    2.7870   -2.0226   -0.4486 O   0  0  0  0  0  0  0  0  0  0  0  0
    2.2440   -0.8637    0.2127 C   0  0  0  0  0  0  0  0  0  0  0  0
    1.5772    0.0976   -0.7786 C   0  0  0  0  0  0  0  0  0  0  0  0
    0.4968    0.8611   -0.1396 N   0  0  0  0  0  0  0  0  0  0  0  0
    0.7710    2.0712    0.4871 C   0  0  0  0  0  0  0  0  0  0  0  0
    1.9676    2.5627    0.5949 N   0  0  0  0  0  0  0  0  0  0  0  0
    2.2114    3.7639    1.2006 C   0  0  0  0  0  0  0  0  0  0  0  0
    3.2796    4.3529    1.0709 O   0  0  0  0  0  0  0  0  0  0  0  0
    1.2403    4.3534    1.9571 N   0  0  0  0  0  0  0  0  0  0  0  0
   -0.0827    4.1802    1.6943 C   0  0  0  0  0  0  0  0  0  0  0  0
   -0.9362    5.0275    1.8947 O   0  0  0  0  0  0  0  0  0  0  0  0
   -0.3851    2.8473    1.0693 C   0  0  0  0  0  0  0  0  0  0  0  0
   -1.6000    2.3908    1.0686 N   0  0  0  0  0  0  0  0  0  0  0  0
   -1.8373    1.1259    0.4996 C   0  0  0  0  0  0  0  0  0  0  0  0
   -3.1525    0.6497    0.5537 C   0  0  0  0  0  0  0  0  0  0  0  0
   -3.5023   -0.6023    0.0338 C   0  0  0  0  0  0  0  0  0  0  0  0
   -4.9307   -1.0639    0.1205 C   0  0  0  0  0  0  0  0  0  0  0  0
   -2.5018   -1.3973   -0.5470 C   0  0  0  0  0  0  0  0  0  0  0  0
   -2.8160   -2.7561   -1.1143 C   0  0  0  0  0  0  0  0  0  0  0  0
   -1.1792   -0.9145   -0.6041 C   0  0  0  0  0  0  0  0  0  0  0  0
   -0.8185    0.3463   -0.0959 C   0  0  0  0  0  0  0  0  0  0  0  0
    5.3685   -2.9267   -2.2573 H   0  0  0  0  0  0  0  0  0  0  0  0
    3.6922   -3.4843   -2.4488 H   0  0  0  0  0  0  0  0  0  0  0  0
    4.6009   -3.8296   -0.9368 H   0  0  0  0  0  0  0  0  0  0  0  0
    1.5136   -1.2475    0.9334 H   0  0  0  0  0  0  0  0  0  0  0  0
    3.0217   -0.3597    0.7998 H   0  0  0  0  0  0  0  0  0  0  0  0
    1.2242   -0.4327   -1.6708 H   0  0  0  0  0  0  0  0  0  0  0  0
    2.3348    0.7835   -1.1788 H   0  0  0  0  0  0  0  0  0  0  0  0
    1.4907    5.2796    2.2714 H   0  0  0  0  0  0  0  0  0  0  0  0
   -3.9097    1.2808    1.0161 H   0  0  0  0  0  0  0  0  0  0  0  0
   -5.0016   -1.9644    0.7388 H   0  0  0  0  0  0  0  0  0  0  0  0
   -5.5736   -0.3009    0.5722 H   0  0  0  0  0  0  0  0  0  0  0  0
   -5.3249   -1.2742   -0.8787 H   0  0  0  0  0  0  0  0  0  0  0  0
   -3.2367   -3.4043   -0.3391 H   0  0  0  0  0  0  0  0  0  0  0  0
   -1.9182   -3.2493   -1.5018 H   0  0  0  0  0  0  0  0  0  0  0  0
   -3.5264   -2.6665   -1.9421 H   0  0  0  0  0  0  0  0  0  0  0  0
   -0.4339   -1.5648   -1.0527 H   0  0  0  0  0  0  0  0  0  0  0  0
  1  2  1  0
  2  3  2  0
  2  4  1  0
  4  5  1  0
  5  6  1  0
  6  7  1  0
  7  8  1  0
  8  9  2  0
  9 10  1  0
 10 11  2  0
 10 12  1  0
 12 13  1  0
 13 14  2  0
 13 15  1  0
 15 16  2  0
 16 17  1  0
 17 18  2  0
 18 19  1  0
 19 20  1  0
 19 21  2  0
 21 22  1  0
 21 23  1  0
 23 24  2  0
 24  7  1  0
 15  8  1  0
 24 17  1  0
  1 25  1  0
  1 26  1  0
  1 27  1  0
  5 28  1  0
  5 29  1  0
  6 30  1  0
  6 31  1  0
 12 32  1  0
 18 33  1  0
 20 34  1  0
 20 35  1  0
 20 36  1  0
 22 37  1  0
 22 38  1  0
 22 39  1  0
 23 40  1  0
M  END
$$$$
