
     RDKit          3D

 40 42  0  0  0  0  0  0  0  0999 V2000
    2.9506   -1.1569   -5.0398 N   0  0  0  0  0  0  0  0  0  0  0  0
    3.4475   -0.7251   -4.0838 C   0  0  0  0  0  0  0  0  0  0  0  0
    4.0427   -0.1915   -2.9023 C   0  0  0  0  0  0  0  0  0  0  0  0
    5.4560   -0.0031   -2.9386 C   0  0  0  0  0  0  0  0  0  0  0  0
    6.6055    0.1567   -2.9549 N   0  0  0  0  0  0  0  0  0  0  0  0
    3.3127    0.1311   -1.8037 C   0  0  0  0  0  0  0  0  0  0  0  0
    1.8540   -0.0213   -1.7405 C   0  0  0  0  0  0  0  0  0  0  0  0
    1.1271    0.1690   -0.6227 C   0  0  0  0  0  0  0  0  0  0  0  0
   -0.3203    0.0102   -0.6364 C   0  0  0  0  0  0  0  0  0  0  0  0
   -1.1092    0.0472    0.4589 C   0  0  0  0  0  0  0  0  0  0  0  0
   -2.5073   -0.0874    0.4167 N   0  0  0  0  0  0  0  0  0  0  0  0
   -3.3915    0.2826    1.5467 C   0  0  0  0  0  0  0  0  0  0  0  0
   -4.7752    0.7149    1.0367 C   0  0  0  0  0  0  0  0  0  0  0  0
   -5.4695   -0.3074    0.3097 O   0  0  0  0  0  0  0  0  0  0  0  0
   -4.5842   -1.2216   -0.3508 C   0  0  0  0  0  0  0  0  0  0  0  0
   -3.2425   -0.5971   -0.7652 C   0  0  0  0  0  0  0  0  0  0  0  0
   -0.4656    0.2195    1.8298 C   0  0  0  0  0  0  0  0  0  0  0  0
    1.0232   -0.1306    1.8594 C   0  0  0  0  0  0  0  0  0  0  0  0
    1.7585    0.5436    0.7002 C   0  0  0  0  0  0  0  0  0  0  0  0
    3.2492    0.1883    0.7276 C   0  0  0  0  0  0  0  0  0  0  0  0
    3.9433    0.6950   -0.5358 C   0  0  0  0  0  0  0  0  0  0  0  0
    1.3304   -0.3098   -2.6515 H   0  0  0  0  0  0  0  0  0  0  0  0
   -0.7721   -0.1262   -1.6147 H   0  0  0  0  0  0  0  0  0  0  0  0
   -2.9652    1.1141    2.1180 H   0  0  0  0  0  0  0  0  0  0  0  0
   -3.4898   -0.5833    2.2115 H   0  0  0  0  0  0  0  0  0  0  0  0
   -4.6829    1.5866    0.3781 H   0  0  0  0  0  0  0  0  0  0  0  0
   -5.4115    1.0077    1.8780 H   0  0  0  0  0  0  0  0  0  0  0  0
   -4.4171   -2.0692    0.3244 H   0  0  0  0  0  0  0  0  0  0  0  0
   -5.1079   -1.6059   -1.2319 H   0  0  0  0  0  0  0  0  0  0  0  0
   -3.4138    0.2365   -1.4560 H   0  0  0  0  0  0  0  0  0  0  0  0
   -2.6573   -1.3663   -1.2814 H   0  0  0  0  0  0  0  0  0  0  0  0
   -0.5993    1.2597    2.1523 H   0  0  0  0  0  0  0  0  0  0  0  0
   -0.9681   -0.4195    2.5659 H   0  0  0  0  0  0  0  0  0  0  0  0
    1.4519    0.1839    2.8185 H   0  0  0  0  0  0  0  0  0  0  0  0
    1.1412   -1.2213    1.8020 H   0  0  0  0  0  0  0  0  0  0  0  0
    1.6621    1.6330    0.8168 H   0  0  0  0  0  0  0  0  0  0  0  0
    3.3857   -0.8985    0.8097 H   0  0  0  0  0  0  0  0  0  0  0  0
    3.7214    0.6349    1.6110 H   0  0  0  0  0  0  0  0  0  0  0  0
    5.0047    0.4368   -0.4563 H   0  0  0  0  0  0  0  0  0  0  0  0
    3.8826    1.7907   -0.5714 H   0  0  0  0  0  0  0  0  0  0  0  0
  1  2  3  0
  2  3  1  0
  3  4  1  0
  4  5  3  0
  3  6  2  3
  6  7  1  0
  7  8  2  0
  8  9  1  0
  9 10  2  0
 10 11  1  0
 11 12  1  0
 12 13  1  0
 13 14  1  0
 14 15  1  0
 15 16  1  0
 10 17  1  0
 17 18  1  0
 18 19  1  0
 19 20  1  0
 20 21  1  0
 21  6  1  0
 19  8  1  0
 16 11  1  0
  7 22  1  0
  9 23  1  0
 12 24  1  0
 12 25  1  0
 13 26  1  0
 13 27  1  0
 15 28  1  0
 15 29  1  0
 16 30  1  0
 16 31  1  0
 17 32  1  0
 17 33  1  0
 18 34  1  0
 18 35  1  0
 19 36  1  0
 20 37  1  0
 20 38  1  0
 21 39  1  0
 21 40  1  0
M  END
$$$$
