
     RDKit          3D

 46 49  0  0  0  0  0  0  0  0999 V2000
    9.0152   -1.1178   -0.5840 O   0  0  0  0  0  0  0  0  0  0  0  0
    8.3045   -1.2604    0.4219 N   0  0  0  0  0  4  0  0  0  0  0  0
    8.7389   -1.4410    1.5688 O   0  0  0  0  0  1  0  0  0  0  0  0
    6.8483   -1.2136    0.2422 C   0  0  0  0  0  0  0  0  0  0  0  0
    6.3126   -1.0301   -1.0385 C   0  0  0  0  0  0  0  0  0  0  0  0
    4.9261   -0.9835   -1.2038 C   0  0  0  0  0  0  0  0  0  0  0  0
    4.0700   -1.1274   -0.1004 C   0  0  0  0  0  0  0  0  0  0  0  0
    2.5725   -1.0497   -0.2838 C   0  0  0  0  0  0  0  0  0  0  0  0
    2.2020    0.3259   -0.2412 O   0  0  0  0  0  0  0  0  0  0  0  0
    0.8750    0.6197   -0.3861 C   0  0  0  0  0  0  0  0  0  0  0  0
   -0.1537   -0.2978   -0.5834 C   0  0  0  0  0  0  0  0  0  0  0  0
   -1.4769    0.1452   -0.7164 C   0  0  0  0  0  0  0  0  0  0  0  0
   -1.8032    1.5070   -0.6445 C   0  0  0  0  0  0  0  0  0  0  0  0
   -3.2011    1.9452   -0.7819 C   0  0  0  0  0  0  0  0  0  0  0  0
   -3.5189    3.1540   -1.3596 N   0  0  0  0  0  0  0  0  0  0  0  0
   -4.8351    3.3857   -1.4949 N   0  0  0  0  0  0  0  0  0  0  0  0
   -5.3909    2.3186   -0.9225 C   0  0  0  0  0  0  0  0  0  0  0  0
   -4.4322    1.3953   -0.4431 C   0  0  0  0  0  0  0  0  0  0  0  0
   -4.6593    0.1543    0.2697 C   0  0  0  0  0  0  0  0  0  0  0  0
   -4.0904   -0.0560    1.5332 C   0  0  0  0  0  0  0  0  0  0  0  0
   -4.3190   -1.2515    2.2192 C   0  0  0  0  0  0  0  0  0  0  0  0
   -5.1219   -2.2354    1.6452 C   0  0  0  0  0  0  0  0  0  0  0  0
   -5.3994   -3.7097    2.4873 Cl  0  0  0  0  0  0  0  0  0  0  0  0
   -5.7016   -2.0332    0.3937 C   0  0  0  0  0  0  0  0  0  0  0  0
   -5.4736   -0.8372   -0.2926 C   0  0  0  0  0  0  0  0  0  0  0  0
   -0.7479    2.4182   -0.4665 C   0  0  0  0  0  0  0  0  0  0  0  0
   -1.0090    3.7655   -0.4313 O   0  0  0  0  0  0  0  0  0  0  0  0
    0.5730    1.9815   -0.3326 C   0  0  0  0  0  0  0  0  0  0  0  0
    4.6217   -1.2983    1.1789 C   0  0  0  0  0  0  0  0  0  0  0  0
    6.0070   -1.3469    1.3541 C   0  0  0  0  0  0  0  0  0  0  0  0
    6.9545   -0.9167   -1.9100 H   0  0  0  0  0  0  0  0  0  0  0  0
    4.5138   -0.8256   -2.1994 H   0  0  0  0  0  0  0  0  0  0  0  0
    2.3036   -1.4959   -1.2496 H   0  0  0  0  0  0  0  0  0  0  0  0
    2.0760   -1.6104    0.5180 H   0  0  0  0  0  0  0  0  0  0  0  0
    0.0281   -1.3657   -0.6455 H   0  0  0  0  0  0  0  0  0  0  0  0
   -2.2504   -0.5989   -0.8925 H   0  0  0  0  0  0  0  0  0  0  0  0
   -2.8603    3.8588   -1.6757 H   0  0  0  0  0  0  0  0  0  0  0  0
   -6.4701    2.2588   -0.8629 H   0  0  0  0  0  0  0  0  0  0  0  0
   -3.4685    0.7107    1.9912 H   0  0  0  0  0  0  0  0  0  0  0  0
   -3.8718   -1.4050    3.1976 H   0  0  0  0  0  0  0  0  0  0  0  0
   -6.3304   -2.7992   -0.0525 H   0  0  0  0  0  0  0  0  0  0  0  0
   -5.9265   -0.6912   -1.2713 H   0  0  0  0  0  0  0  0  0  0  0  0
   -0.1971    4.2322   -0.1664 H   0  0  0  0  0  0  0  0  0  0  0  0
    1.3842    2.6905   -0.1931 H   0  0  0  0  0  0  0  0  0  0  0  0
    3.9726   -1.3873    2.0488 H   0  0  0  0  0  0  0  0  0  0  0  0
    6.4099   -1.4816    2.3559 H   0  0  0  0  0  0  0  0  0  0  0  0
  1  2  2  0
  2  3  1  0
  2  4  1  0
  4  5  2  0
  5  6  1  0
  6  7  2  0
  7  8  1  0
  8  9  1  0
  9 10  1  0
 10 11  2  0
 11 12  1  0
 12 13  2  0
 13 14  1  0
 14 15  1  0
 15 16  1  0
 16 17  2  0
 17 18  1  0
 18 19  1  0
 19 20  2  0
 20 21  1  0
 21 22  2  0
 22 23  1  0
 22 24  1  0
 24 25  2  0
 13 26  1  0
 26 27  1  0
 26 28  2  0
  7 29  1  0
 29 30  2  0
 30  4  1  0
 28 10  1  0
 18 14  2  0
 25 19  1  0
  5 31  1  0
  6 32  1  0
  8 33  1  0
  8 34  1  0
 11 35  1  0
 12 36  1  0
 15 37  1  0
 17 38  1  0
 20 39  1  0
 21 40  1  0
 24 41  1  0
 25 42  1  0
 27 43  1  0
 28 44  1  0
 29 45  1  0
 30 46  1  0
M  CHG  2   2   1   3  -1
M  END
$$$$
