
     RDKit          3D

 45 48  0  0  0  0  0  0  0  0999 V2000
    1.4941    0.5852   -6.3580 O   0  0  0  0  0  0  0  0  0  0  0  0
    1.5209    1.3607   -5.4228 C   0  0  0  0  0  0  0  0  0  0  0  0
    2.2762    2.4690   -5.4268 O   0  0  0  0  0  0  0  0  0  0  0  0
    0.7864    1.2559   -4.1581 C   0  0  0  0  0  0  0  0  0  0  0  0
   -0.0252    0.2090   -3.9449 C   0  0  0  0  0  0  0  0  0  0  0  0
   -0.8095    0.0368   -2.7712 C   0  0  0  0  0  0  0  0  0  0  0  0
   -2.1824   -0.0538   -2.7996 C   0  0  0  0  0  0  0  0  0  0  0  0
   -2.6077   -0.1561   -1.4937 N   0  0  0  0  0  0  0  0  0  0  0  0
   -3.9442   -0.2568   -1.0122 C   0  0  0  0  0  0  0  0  0  0  0  0
   -4.1727   -0.3488    0.3701 C   0  0  0  0  0  0  0  0  0  0  0  0
   -5.4748   -0.4485    0.8648 C   0  0  0  0  0  0  0  0  0  0  0  0
   -6.5562   -0.4572   -0.0132 C   0  0  0  0  0  0  0  0  0  0  0  0
   -6.3382   -0.3666   -1.3870 C   0  0  0  0  0  0  0  0  0  0  0  0
   -5.0373   -0.2665   -1.8902 C   0  0  0  0  0  0  0  0  0  0  0  0
   -1.5604   -0.1483   -0.6351 N   0  0  0  0  0  0  0  0  0  0  0  0
   -0.4666   -0.0702   -1.4034 C   0  0  0  0  0  0  0  0  0  0  0  0
    0.9532   -0.1258   -0.7300 C   0  0  0  0  0  0  0  0  0  0  0  0
    2.1894   -0.1711   -1.3424 C   0  0  0  0  0  0  0  0  0  0  0  0
    3.1618   -0.2198   -0.3101 C   0  0  0  0  0  0  0  0  0  0  0  0
    2.4723   -0.2121    0.8846 C   0  0  0  0  0  0  0  0  0  0  0  0
    2.8559   -0.2497    2.2943 C   0  0  0  0  0  0  0  0  0  0  0  0
    1.8849   -0.2410    3.3109 C   0  0  0  0  0  0  0  0  0  0  0  0
    2.2485   -0.2767    4.6619 C   0  0  0  0  0  0  0  0  0  0  0  0
    3.6024   -0.3219    5.0082 C   0  0  0  0  0  0  0  0  0  0  0  0
    3.9936   -0.3593    6.4226 N   0  0  0  0  0  4  0  0  0  0  0  0
    3.0915   -0.3495    7.2722 O   0  0  0  0  0  0  0  0  0  0  0  0
    5.2047   -0.3982    6.6843 O   0  0  0  0  0  1  0  0  0  0  0  0
    4.5873   -0.3315    4.0139 C   0  0  0  0  0  0  0  0  0  0  0  0
    4.2096   -0.2954    2.6661 C   0  0  0  0  0  0  0  0  0  0  0  0
    1.1339   -0.1620    0.6269 O   0  0  0  0  0  0  0  0  0  0  0  0
    2.7182    2.4554   -6.3016 H   0  0  0  0  0  0  0  0  0  0  0  0
    0.9228    2.0490   -3.4326 H   0  0  0  0  0  0  0  0  0  0  0  0
   -0.1546   -0.5333   -4.7327 H   0  0  0  0  0  0  0  0  0  0  0  0
   -2.8734   -0.0288   -3.6280 H   0  0  0  0  0  0  0  0  0  0  0  0
   -3.3439   -0.3443    1.0763 H   0  0  0  0  0  0  0  0  0  0  0  0
   -5.6420   -0.5194    1.9367 H   0  0  0  0  0  0  0  0  0  0  0  0
   -7.5691   -0.5351    0.3736 H   0  0  0  0  0  0  0  0  0  0  0  0
   -7.1848   -0.3742   -2.0694 H   0  0  0  0  0  0  0  0  0  0  0  0
   -4.9174   -0.1991   -2.9665 H   0  0  0  0  0  0  0  0  0  0  0  0
    2.3885   -0.1893   -2.4023 H   0  0  0  0  0  0  0  0  0  0  0  0
    4.2344   -0.2654   -0.4329 H   0  0  0  0  0  0  0  0  0  0  0  0
    0.8256   -0.2064    3.0560 H   0  0  0  0  0  0  0  0  0  0  0  0
    1.4672   -0.2687    5.4191 H   0  0  0  0  0  0  0  0  0  0  0  0
    5.6453   -0.3666    4.2661 H   0  0  0  0  0  0  0  0  0  0  0  0
    4.9916   -0.3037    1.9099 H   0  0  0  0  0  0  0  0  0  0  0  0
  1  2  2  0
  2  3  1  0
  2  4  1  0
  4  5  2  3
  5  6  1  0
  6  7  2  0
  7  8  1  0
  8  9  1  0
  9 10  2  0
 10 11  1  0
 11 12  2  0
 12 13  1  0
 13 14  2  0
  8 15  1  0
 15 16  2  0
 16 17  1  0
 17 18  2  0
 18 19  1  0
 19 20  2  0
 20 21  1  0
 21 22  2  0
 22 23  1  0
 23 24  2  0
 24 25  1  0
 25 26  2  0
 25 27  1  0
 24 28  1  0
 28 29  2  0
 20 30  1  0
 16  6  1  0
 30 17  1  0
 14  9  1  0
 29 21  1  0
  3 31  1  0
  4 32  1  0
  5 33  1  0
  7 34  1  0
 10 35  1  0
 11 36  1  0
 12 37  1  0
 13 38  1  0
 14 39  1  0
 18 40  1  0
 19 41  1  0
 22 42  1  0
 23 43  1  0
 28 44  1  0
 29 45  1  0
M  CHG  2  25   1  27  -1
M  END
$$$$
