
     RDKit          3D

 59 62  0  0  0  0  0  0  0  0999 V2000
    6.5639   -0.3030   -6.9071 C   0  0  0  0  0  0  0  0  0  0  0  0
    5.8916   -0.6068   -5.6018 C   0  0  0  0  0  0  0  0  0  0  0  0
    6.1170    0.2032   -4.4834 C   0  0  0  0  0  0  0  0  0  0  0  0
    5.5153   -0.0966   -3.2597 C   0  0  0  0  0  0  0  0  0  0  0  0
    4.6881   -1.2201   -3.1281 C   0  0  0  0  0  0  0  0  0  0  0  0
    4.0186   -1.5173   -1.8117 C   0  0  0  0  0  0  0  0  0  0  0  0
    2.8404   -0.6976   -1.6444 N   0  0  0  0  0  0  0  0  0  0  0  0
    2.8525    0.4381   -0.8652 C   0  0  0  0  0  0  0  0  0  0  0  0
    3.8075    0.7812   -0.1773 O   0  0  0  0  0  0  0  0  0  0  0  0
    1.5690    1.2390   -0.9767 C   0  0  0  0  0  0  0  0  0  0  0  0
    1.4878    2.3884    0.0272 C   0  0  0  0  0  0  0  0  0  0  0  0
    1.3387    1.9316    1.4816 C   0  0  0  0  0  0  0  0  0  0  0  0
    0.0746    1.2450    1.7318 N   0  0  0  0  0  0  0  0  0  0  0  0
    0.1331   -0.1531    1.7399 N   0  0  0  0  0  0  0  0  0  0  0  0
   -0.9324   -0.8707    1.9601 C   0  0  0  0  0  0  0  0  0  0  0  0
   -0.7928   -2.3661    1.9764 C   0  0  0  0  0  0  0  0  0  0  0  0
   -2.1986   -0.2131    2.1698 C   0  0  0  0  0  0  0  0  0  0  0  0
   -3.4992   -0.6559    2.3467 C   0  0  0  0  0  0  0  0  0  0  0  0
   -4.0614   -2.0278    2.2458 C   0  0  0  0  0  0  0  0  0  0  0  0
   -4.2539    0.4991    2.5898 N   0  0  0  0  0  0  0  0  0  0  0  0
   -5.6022    0.6530    3.0402 C   0  0  0  0  0  0  0  0  0  0  0  0
   -6.3004   -0.3749    3.6860 C   0  0  0  0  0  0  0  0  0  0  0  0
   -7.6169   -0.1730    4.1159 C   0  0  0  0  0  0  0  0  0  0  0  0
   -8.2420    1.0562    3.9182 C   0  0  0  0  0  0  0  0  0  0  0  0
   -7.5488    2.0939    3.3028 C   0  0  0  0  0  0  0  0  0  0  0  0
   -6.2343    1.8977    2.8725 C   0  0  0  0  0  0  0  0  0  0  0  0
   -3.5215    1.6180    2.3382 N   0  0  0  0  0  0  0  0  0  0  0  0
   -2.2727    1.1835    2.1590 C   0  0  0  0  0  0  0  0  0  0  0  0
   -1.0945    2.0097    1.9311 C   0  0  0  0  0  0  0  0  0  0  0  0
   -1.1178    3.2381    1.9064 O   0  0  0  0  0  0  0  0  0  0  0  0
    4.4699   -2.0344   -4.2465 C   0  0  0  0  0  0  0  0  0  0  0  0
    5.0743   -1.7346   -5.4701 C   0  0  0  0  0  0  0  0  0  0  0  0
    6.7283    0.7741   -7.0207 H   0  0  0  0  0  0  0  0  0  0  0  0
    5.9444   -0.6275   -7.7498 H   0  0  0  0  0  0  0  0  0  0  0  0
    7.5294   -0.8157   -6.9587 H   0  0  0  0  0  0  0  0  0  0  0  0
    6.7602    1.0772   -4.5570 H   0  0  0  0  0  0  0  0  0  0  0  0
    5.6916    0.5532   -2.4031 H   0  0  0  0  0  0  0  0  0  0  0  0
    4.7218   -1.3686   -0.9848 H   0  0  0  0  0  0  0  0  0  0  0  0
    3.6932   -2.5625   -1.7753 H   0  0  0  0  0  0  0  0  0  0  0  0
    2.0988   -0.8096   -2.3214 H   0  0  0  0  0  0  0  0  0  0  0  0
    0.7092    0.5683   -0.8764 H   0  0  0  0  0  0  0  0  0  0  0  0
    1.5411    1.6580   -1.9902 H   0  0  0  0  0  0  0  0  0  0  0  0
    0.6384    3.0263   -0.2452 H   0  0  0  0  0  0  0  0  0  0  0  0
    2.3872    3.0112   -0.0539 H   0  0  0  0  0  0  0  0  0  0  0  0
    2.1614    1.2763    1.7863 H   0  0  0  0  0  0  0  0  0  0  0  0
    1.3794    2.8133    2.1323 H   0  0  0  0  0  0  0  0  0  0  0  0
   -1.2167   -2.7821    1.0584 H   0  0  0  0  0  0  0  0  0  0  0  0
    0.2628   -2.6475    2.0300 H   0  0  0  0  0  0  0  0  0  0  0  0
   -1.3077   -2.7856    2.8446 H   0  0  0  0  0  0  0  0  0  0  0  0
   -4.0357   -2.5313    3.2165 H   0  0  0  0  0  0  0  0  0  0  0  0
   -5.0849   -2.0234    1.8601 H   0  0  0  0  0  0  0  0  0  0  0  0
   -3.4881   -2.6340    1.5387 H   0  0  0  0  0  0  0  0  0  0  0  0
   -5.8440   -1.3288    3.9209 H   0  0  0  0  0  0  0  0  0  0  0  0
   -8.1508   -0.9738    4.6224 H   0  0  0  0  0  0  0  0  0  0  0  0
   -9.2627    1.2104    4.2581 H   0  0  0  0  0  0  0  0  0  0  0  0
   -8.0253    3.0604    3.1591 H   0  0  0  0  0  0  0  0  0  0  0  0
   -5.7158    2.7287    2.3945 H   0  0  0  0  0  0  0  0  0  0  0  0
    3.8309   -2.9109   -4.1736 H   0  0  0  0  0  0  0  0  0  0  0  0
    4.9007   -2.3868   -6.3231 H   0  0  0  0  0  0  0  0  0  0  0  0
  1  2  1  0
  2  3  2  0
  3  4  1  0
  4  5  2  0
  5  6  1  0
  6  7  1  0
  7  8  1  0
  8  9  2  0
  8 10  1  0
 10 11  1  0
 11 12  1  0
 12 13  1  0
 13 14  1  0
 14 15  2  0
 15 16  1  0
 15 17  1  0
 17 18  2  0
 18 19  1  0
 18 20  1  0
 20 21  1  0
 21 22  2  0
 22 23  1  0
 23 24  2  0
 24 25  1  0
 25 26  2  0
 20 27  1  0
 27 28  2  0
 28 29  1  0
 29 30  2  0
  5 31  1  0
 31 32  2  0
 32  2  1  0
 29 13  1  0
 28 17  1  0
 26 21  1  0
  1 33  1  0
  1 34  1  0
  1 35  1  0
  3 36  1  0
  4 37  1  0
  6 38  1  0
  6 39  1  0
  7 40  1  0
 10 41  1  0
 10 42  1  0
 11 43  1  0
 11 44  1  0
 12 45  1  0
 12 46  1  0
 16 47  1  0
 16 48  1  0
 16 49  1  0
 19 50  1  0
 19 51  1  0
 19 52  1  0
 22 53  1  0
 23 54  1  0
 24 55  1  0
 25 56  1  0
 26 57  1  0
 31 58  1  0
 32 59  1  0
M  END
$$$$
