
     RDKit          3D

 41 42  0  0  0  0  0  0  0  0999 V2000
   -7.3370   -0.2384    2.9040 C   0  0  0  0  0  0  0  0  0  0  0  0
   -6.4514   -1.2842    2.5253 O   0  0  0  0  0  0  0  0  0  0  0  0
   -5.2106   -0.9120    2.0861 C   0  0  0  0  0  0  0  0  0  0  0  0
   -4.4000   -1.9670    1.6626 C   0  0  0  0  0  0  0  0  0  0  0  0
   -3.1074   -1.7298    1.1884 C   0  0  0  0  0  0  0  0  0  0  0  0
   -2.6015   -0.4258    1.1387 C   0  0  0  0  0  0  0  0  0  0  0  0
   -1.2047   -0.1607    0.6290 C   0  0  0  0  0  0  0  0  0  0  0  0
   -1.1394    0.3645   -0.7905 C   0  0  0  0  0  0  0  0  0  0  0  0
   -2.0960    0.7055   -1.4746 O   0  0  0  0  0  0  0  0  0  0  0  0
    0.1909    0.4162   -1.1497 O   0  0  0  0  0  0  0  0  0  0  0  0
    0.3239    0.8736   -2.4715 N   0  0  0  0  0  0  0  0  0  0  0  0
    1.5674    0.9477   -2.8548 C   0  0  0  0  0  0  0  0  0  0  0  0
    1.8114    1.2994   -4.1586 N   0  0  0  0  0  0  0  0  0  0  0  0
    2.7453    0.6894   -1.9827 C   0  0  0  0  0  0  0  0  0  0  0  0
    3.7155   -0.2247   -2.4016 C   0  0  0  0  0  0  0  0  0  0  0  0
    4.8440   -0.4580   -1.6082 C   0  0  0  0  0  0  0  0  0  0  0  0
    5.0085    0.2298   -0.4036 C   0  0  0  0  0  0  0  0  0  0  0  0
    6.0598    0.0967    0.4607 O   0  0  0  0  0  0  0  0  0  0  0  0
    7.0654   -0.8467    0.1121 C   0  0  0  0  0  0  0  0  0  0  0  0
    4.0389    1.1549   -0.0014 C   0  0  0  0  0  0  0  0  0  0  0  0
    2.9095    1.3912   -0.7876 C   0  0  0  0  0  0  0  0  0  0  0  0
   -3.4188    0.6312    1.5608 C   0  0  0  0  0  0  0  0  0  0  0  0
   -4.7145    0.3899    2.0323 C   0  0  0  0  0  0  0  0  0  0  0  0
   -6.9494    0.3131    3.7669 H   0  0  0  0  0  0  0  0  0  0  0  0
   -8.2861   -0.6952    3.2007 H   0  0  0  0  0  0  0  0  0  0  0  0
   -7.5396    0.4332    2.0630 H   0  0  0  0  0  0  0  0  0  0  0  0
   -4.7822   -2.9843    1.6962 H   0  0  0  0  0  0  0  0  0  0  0  0
   -2.5058   -2.5731    0.8575 H   0  0  0  0  0  0  0  0  0  0  0  0
   -0.7193    0.5685    1.2891 H   0  0  0  0  0  0  0  0  0  0  0  0
   -0.6211   -1.0882    0.6788 H   0  0  0  0  0  0  0  0  0  0  0  0
    2.6460    1.8508   -4.3221 H   0  0  0  0  0  0  0  0  0  0  0  0
    0.9853    1.6885   -4.6048 H   0  0  0  0  0  0  0  0  0  0  0  0
    3.5895   -0.7654   -3.3368 H   0  0  0  0  0  0  0  0  0  0  0  0
    5.5729   -1.1812   -1.9590 H   0  0  0  0  0  0  0  0  0  0  0  0
    6.6536   -1.8596    0.0538 H   0  0  0  0  0  0  0  0  0  0  0  0
    7.5617   -0.5664   -0.8229 H   0  0  0  0  0  0  0  0  0  0  0  0
    7.8199   -0.8391    0.9046 H   0  0  0  0  0  0  0  0  0  0  0  0
    4.1691    1.6979    0.9320 H   0  0  0  0  0  0  0  0  0  0  0  0
    2.1721    2.1236   -0.4709 H   0  0  0  0  0  0  0  0  0  0  0  0
   -3.0576    1.6566    1.5149 H   0  0  0  0  0  0  0  0  0  0  0  0
   -5.3086    1.2421    2.3438 H   0  0  0  0  0  0  0  0  0  0  0  0
  1  2  1  0
  2  3  1  0
  3  4  2  0
  4  5  1  0
  5  6  2  0
  6  7  1  0
  7  8  1  0
  8  9  2  0
  8 10  1  0
 10 11  1  0
 11 12  2  3
 12 13  1  0
 12 14  1  0
 14 15  2  0
 15 16  1  0
 16 17  2  0
 17 18  1  0
 18 19  1  0
 17 20  1  0
 20 21  2  0
  6 22  1  0
 22 23  2  0
 23  3  1  0
 21 14  1  0
  1 24  1  0
  1 25  1  0
  1 26  1  0
  4 27  1  0
  5 28  1  0
  7 29  1  0
  7 30  1  0
 13 31  1  0
 13 32  1  0
 15 33  1  0
 16 34  1  0
 19 35  1  0
 19 36  1  0
 19 37  1  0
 20 38  1  0
 21 39  1  0
 22 40  1  0
 23 41  1  0
M  END
$$$$
