
     RDKit          3D

 40 43  0  0  0  0  0  0  0  0999 V2000
    1.7398   -2.6150   -0.4230 O   0  0  0  0  0  0  0  0  0  0  0  0
    2.0818   -1.6460    0.5944 S   0  0  0  0  0  6  0  0  0  0  0  0
    2.5152   -2.0361    1.9182 O   0  0  0  0  0  0  0  0  0  0  0  0
    3.2903   -0.5468   -0.0290 C   0  0  0  0  0  0  0  0  0  0  0  0
    3.2904    0.8266    0.3084 C   0  0  0  0  0  0  0  0  0  0  0  0
    4.2619    1.7367   -0.1803 C   0  0  0  0  0  0  0  0  0  0  0  0
    5.3105    1.3486   -1.0341 C   0  0  0  0  0  0  0  0  0  0  0  0
    5.3315   -0.0206   -1.3638 C   0  0  0  0  0  0  0  0  0  0  0  0
    6.1983   -0.6833   -2.1370 N   0  0  0  0  0  0  0  0  0  0  0  0
    5.7792   -2.0014   -2.1274 O   0  0  0  0  0  0  0  0  0  0  0  0
    4.6480   -2.1742   -1.3530 N   0  0  0  0  0  0  0  0  0  0  0  0
    4.3353   -0.9662   -0.8671 C   0  0  0  0  0  0  0  0  0  0  0  0
    0.6947   -0.6552    0.7787 N   0  0  0  0  0  0  0  0  0  0  0  0
    0.0708   -0.1884   -0.5174 C   0  0  0  0  0  0  0  0  0  0  0  0
   -1.2391   -0.9297   -0.8323 C   0  0  0  0  0  0  0  0  0  0  0  0
   -2.2514   -0.7165    0.2259 N   0  0  0  0  0  0  0  0  0  0  0  0
   -3.3088    0.1808   -0.0132 C   0  0  0  0  0  0  0  0  0  0  0  0
   -4.5079    0.0045    0.7011 C   0  0  0  0  0  0  0  0  0  0  0  0
   -5.6051    0.8546    0.5201 C   0  0  0  0  0  0  0  0  0  0  0  0
   -5.5289    1.9103   -0.3831 C   0  0  0  0  0  0  0  0  0  0  0  0
   -4.3553    2.1131   -1.1021 C   0  0  0  0  0  0  0  0  0  0  0  0
   -3.2660    1.2595   -0.9163 C   0  0  0  0  0  0  0  0  0  0  0  0
   -2.1483    1.5328   -1.6090 F   0  0  0  0  0  0  0  0  0  0  0  0
   -1.6929   -0.5839    1.5953 C   0  0  0  0  0  0  0  0  0  0  0  0
   -0.3172   -1.2635    1.7168 C   0  0  0  0  0  0  0  0  0  0  0  0
    2.5221    1.2106    0.9817 H   0  0  0  0  0  0  0  0  0  0  0  0
    4.1970    2.7824    0.1244 H   0  0  0  0  0  0  0  0  0  0  0  0
    6.0535    2.0440   -1.4041 H   0  0  0  0  0  0  0  0  0  0  0  0
   -0.1063    0.8883   -0.4127 H   0  0  0  0  0  0  0  0  0  0  0  0
    0.7674   -0.3082   -1.3535 H   0  0  0  0  0  0  0  0  0  0  0  0
   -1.6134   -0.6663   -1.8275 H   0  0  0  0  0  0  0  0  0  0  0  0
   -1.0378   -2.0076   -0.8797 H   0  0  0  0  0  0  0  0  0  0  0  0
   -4.6029   -0.8280    1.3949 H   0  0  0  0  0  0  0  0  0  0  0  0
   -6.5200    0.6825    1.0819 H   0  0  0  0  0  0  0  0  0  0  0  0
   -6.3801    2.5707   -0.5265 H   0  0  0  0  0  0  0  0  0  0  0  0
   -4.2739    2.9348   -1.8066 H   0  0  0  0  0  0  0  0  0  0  0  0
   -2.3761   -1.0433    2.3189 H   0  0  0  0  0  0  0  0  0  0  0  0
   -1.5826    0.4772    1.8579 H   0  0  0  0  0  0  0  0  0  0  0  0
    0.0488   -1.1422    2.7423 H   0  0  0  0  0  0  0  0  0  0  0  0
   -0.4223   -2.3356    1.5099 H   0  0  0  0  0  0  0  0  0  0  0  0
  1  2  2  0
  2  3  2  0
  2  4  1  0
  4  5  2  0
  5  6  1  0
  6  7  2  0
  7  8  1  0
  8  9  2  0
  9 10  1  0
 10 11  1  0
 11 12  2  0
  2 13  1  0
 13 14  1  0
 14 15  1  0
 15 16  1  0
 16 17  1  0
 17 18  2  0
 18 19  1  0
 19 20  2  0
 20 21  1  0
 21 22  2  0
 22 23  1  0
 16 24  1  0
 24 25  1  0
 12  4  1  0
 25 13  1  0
 12  8  1  0
 22 17  1  0
  5 26  1  0
  6 27  1  0
  7 28  1  0
 14 29  1  0
 14 30  1  0
 15 31  1  0
 15 32  1  0
 18 33  1  0
 19 34  1  0
 20 35  1  0
 21 36  1  0
 24 37  1  0
 24 38  1  0
 25 39  1  0
 25 40  1  0
M  END
$$$$
