
     RDKit          3D

 38 39  0  0  0  0  0  0  0  0999 V2000
   -5.9969   -0.3154    2.3360 C   0  0  0  0  0  0  0  0  0  0  0  0
   -5.3162   -0.0942    1.1092 O   0  0  0  0  0  0  0  0  0  0  0  0
   -4.0048    0.3070    1.1718 C   0  0  0  0  0  0  0  0  0  0  0  0
   -3.2917    0.4922    2.3599 C   0  0  0  0  0  0  0  0  0  0  0  0
   -1.9561    0.8995    2.3232 C   0  0  0  0  0  0  0  0  0  0  0  0
   -1.3172    1.1199    1.0999 C   0  0  0  0  0  0  0  0  0  0  0  0
    0.1185    1.5450    1.0913 C   0  0  0  0  0  0  0  0  0  0  0  0
    0.6138    2.0841    2.1647 N   0  0  0  0  0  0  0  0  0  0  0  0
    0.8813    1.3590   -0.0432 N   0  0  0  0  0  0  0  0  0  0  0  0
    2.2623    1.2767    0.2415 O   0  0  0  0  0  0  0  0  0  0  0  0
    2.8228    0.1468   -0.3123 C   0  0  0  0  0  0  0  0  0  0  0  0
    2.1773   -0.6591   -0.9734 O   0  0  0  0  0  0  0  0  0  0  0  0
    4.2826    0.0727    0.0718 C   0  0  0  0  0  0  0  0  0  0  0  0
    5.0119   -0.9445   -0.7520 C   0  0  0  0  0  0  0  0  0  0  0  0
    5.1978   -2.2879   -0.4891 C   0  0  0  0  0  0  0  0  0  0  0  0
    5.9543   -2.9385   -1.5063 C   0  0  0  0  0  0  0  0  0  0  0  0
    6.3236   -2.0711   -2.5093 C   0  0  0  0  0  0  0  0  0  0  0  0
    5.7628   -0.4823   -2.2225 S   0  0  0  0  0  0  0  0  0  0  0  0
   -2.0288    0.9495   -0.0948 C   0  0  0  0  0  0  0  0  0  0  0  0
   -3.3688    0.5413   -0.0658 C   0  0  0  0  0  0  0  0  0  0  0  0
   -4.1432    0.3460   -1.1837 O   0  0  0  0  0  0  0  0  0  0  0  0
   -3.5564    0.5941   -2.4527 C   0  0  0  0  0  0  0  0  0  0  0  0
   -5.5338   -1.1291    2.9036 H   0  0  0  0  0  0  0  0  0  0  0  0
   -6.0501    0.6028    2.9301 H   0  0  0  0  0  0  0  0  0  0  0  0
   -7.0219   -0.6173    2.0998 H   0  0  0  0  0  0  0  0  0  0  0  0
   -3.7433    0.3303    3.3328 H   0  0  0  0  0  0  0  0  0  0  0  0
   -1.4144    1.0429    3.2563 H   0  0  0  0  0  0  0  0  0  0  0  0
    1.5865    2.3300    1.9517 H   0  0  0  0  0  0  0  0  0  0  0  0
    0.5819    0.5869   -0.6484 H   0  0  0  0  0  0  0  0  0  0  0  0
    4.7356    1.0626   -0.0575 H   0  0  0  0  0  0  0  0  0  0  0  0
    4.3415   -0.1948    1.1328 H   0  0  0  0  0  0  0  0  0  0  0  0
    4.8036   -2.7882    0.3876 H   0  0  0  0  0  0  0  0  0  0  0  0
    6.2111   -3.9907   -1.5044 H   0  0  0  0  0  0  0  0  0  0  0  0
    6.8961   -2.2932   -3.3994 H   0  0  0  0  0  0  0  0  0  0  0  0
   -1.5395    1.1607   -1.0376 H   0  0  0  0  0  0  0  0  0  0  0  0
   -4.3141    0.3947   -3.2165 H   0  0  0  0  0  0  0  0  0  0  0  0
   -3.2542    1.6420   -2.5504 H   0  0  0  0  0  0  0  0  0  0  0  0
   -2.7138   -0.0803   -2.6366 H   0  0  0  0  0  0  0  0  0  0  0  0
  1  2  1  0
  2  3  1  0
  3  4  2  0
  4  5  1  0
  5  6  2  0
  6  7  1  0
  7  8  2  3
  7  9  1  0
  9 10  1  0
 10 11  1  0
 11 12  2  0
 11 13  1  0
 13 14  1  0
 14 15  2  0
 15 16  1  0
 16 17  2  0
 17 18  1  0
  6 19  1  0
 19 20  2  0
 20 21  1  0
 21 22  1  0
 20  3  1  0
 18 14  1  0
  1 23  1  0
  1 24  1  0
  1 25  1  0
  4 26  1  0
  5 27  1  0
  8 28  1  0
  9 29  1  0
 13 30  1  0
 13 31  1  0
 15 32  1  0
 16 33  1  0
 17 34  1  0
 19 35  1  0
 22 36  1  0
 22 37  1  0
 22 38  1  0
M  END
$$$$
