
     RDKit          3D

 41 43  0  0  0  0  0  0  0  0999 V2000
   -2.9706   -0.4529    1.4921 C   0  0  0  0  0  0  0  0  0  0  0  0
   -2.5253    0.1239    0.1720 C   0  0  0  0  0  0  0  0  0  0  0  0
   -3.3980    0.4216   -0.8161 C   0  0  0  0  0  0  0  0  0  0  0  0
   -4.8507    0.2370   -0.7570 C   0  0  0  0  0  0  0  0  0  0  0  0
   -5.6720    1.2678   -0.2887 C   0  0  0  0  0  0  0  0  0  0  0  0
   -7.0554    1.0896   -0.2300 C   0  0  0  0  0  0  0  0  0  0  0  0
   -7.6216   -0.1177   -0.6384 C   0  0  0  0  0  0  0  0  0  0  0  0
   -6.8064   -1.1483   -1.1056 C   0  0  0  0  0  0  0  0  0  0  0  0
   -5.4228   -0.9723   -1.1653 C   0  0  0  0  0  0  0  0  0  0  0  0
   -1.1012    0.3784   -0.0786 C   0  0  0  0  0  0  0  0  0  0  0  0
   -0.0008    0.2069    0.6717 C   0  0  0  0  0  0  0  0  0  0  0  0
    0.1717   -0.3940    2.2774 S   0  0  0  0  0  0  0  0  0  0  0  0
    1.9231   -0.2215    2.2833 C   0  0  0  0  0  0  0  0  0  0  0  0
    2.8785   -0.5774    3.6034 S   0  0  0  0  0  0  0  0  0  0  0  0
    2.3133    0.2798    1.0612 N   0  0  0  0  0  0  0  0  0  0  0  0
    3.6661    0.4649    0.7139 N   0  0  0  0  0  0  0  0  0  0  0  0
    4.2803   -0.6051    0.0831 C   0  0  0  0  0  0  0  0  0  0  0  0
    3.7764   -1.7200   -0.0081 O   0  0  0  0  0  0  0  0  0  0  0  0
    5.6020   -0.3271   -0.5350 C   0  0  0  0  0  0  0  0  0  0  0  0
    6.0068   -1.1151   -1.6126 C   0  0  0  0  0  0  0  0  0  0  0  0
    7.2377   -0.8520   -2.1823 C   0  0  0  0  0  0  0  0  0  0  0  0
    8.0691    0.1192   -1.7477 N   0  0  0  0  0  0  0  0  0  0  0  0
    7.6626    0.8518   -0.6898 C   0  0  0  0  0  0  0  0  0  0  0  0
    6.4484    0.6715   -0.0512 C   0  0  0  0  0  0  0  0  0  0  0  0
    1.3410    0.5730    0.1226 C   0  0  0  0  0  0  0  0  0  0  0  0
    1.5349    1.0934   -0.9692 O   0  0  0  0  0  0  0  0  0  0  0  0
   -4.0522   -0.6039    1.5571 H   0  0  0  0  0  0  0  0  0  0  0  0
   -2.5175   -1.4357    1.6569 H   0  0  0  0  0  0  0  0  0  0  0  0
   -2.7089    0.2195    2.3153 H   0  0  0  0  0  0  0  0  0  0  0  0
   -3.0611    0.8361   -1.7648 H   0  0  0  0  0  0  0  0  0  0  0  0
   -5.2398    2.2117    0.0344 H   0  0  0  0  0  0  0  0  0  0  0  0
   -7.6910    1.8920    0.1351 H   0  0  0  0  0  0  0  0  0  0  0  0
   -8.6988   -0.2559   -0.5919 H   0  0  0  0  0  0  0  0  0  0  0  0
   -7.2477   -2.0895   -1.4227 H   0  0  0  0  0  0  0  0  0  0  0  0
   -4.7954   -1.7827   -1.5285 H   0  0  0  0  0  0  0  0  0  0  0  0
   -0.9175    0.7852   -1.0782 H   0  0  0  0  0  0  0  0  0  0  0  0
    3.8934    1.4035    0.4004 H   0  0  0  0  0  0  0  0  0  0  0  0
    5.3790   -1.9114   -1.9998 H   0  0  0  0  0  0  0  0  0  0  0  0
    7.6010   -1.4315   -3.0266 H   0  0  0  0  0  0  0  0  0  0  0  0
    8.3673    1.6085   -0.3553 H   0  0  0  0  0  0  0  0  0  0  0  0
    6.2022    1.2784    0.8118 H   0  0  0  0  0  0  0  0  0  0  0  0
  1  2  1  0
  2  3  2  3
  3  4  1  0
  4  5  2  0
  5  6  1  0
  6  7  2  0
  7  8  1  0
  8  9  2  0
  2 10  1  0
 10 11  2  3
 11 12  1  0
 12 13  1  0
 13 14  2  0
 13 15  1  0
 15 16  1  0
 16 17  1  0
 17 18  2  0
 17 19  1  0
 19 20  2  0
 20 21  1  0
 21 22  2  0
 22 23  1  0
 23 24  2  0
 15 25  1  0
 25 26  2  0
  9  4  1  0
 25 11  1  0
 24 19  1  0
  1 27  1  0
  1 28  1  0
  1 29  1  0
  3 30  1  0
  5 31  1  0
  6 32  1  0
  7 33  1  0
  8 34  1  0
  9 35  1  0
 10 36  1  0
 16 37  1  0
 20 38  1  0
 21 39  1  0
 23 40  1  0
 24 41  1  0
M  END
$$$$
