
     RDKit          3D

 38 39  0  0  0  0  0  0  0  0999 V2000
    6.1731    1.1076    0.1726 C   0  0  0  0  0  0  0  0  0  0  0  0
    4.8746    0.3362    0.3474 C   0  0  0  0  0  0  0  0  0  0  0  0
    4.2471   -0.0152   -1.0000 C   0  0  0  0  0  0  0  0  0  0  0  0
    2.9825   -0.7642   -0.8238 C   0  0  0  0  0  0  0  0  0  0  0  0
    2.7732   -2.0619   -0.7981 N   0  0  0  0  0  0  0  0  0  0  0  0
    1.4182   -2.2300   -0.6002 N   0  0  0  0  0  0  0  0  0  0  0  0
    0.8947   -1.0227   -0.5208 C   0  0  0  0  0  0  0  0  0  0  0  0
   -0.4901   -0.6138   -0.3138 C   0  0  0  0  0  0  0  0  0  0  0  0
   -0.8630    0.7413   -0.2882 C   0  0  0  0  0  0  0  0  0  0  0  0
   -2.1948    1.1135   -0.0882 C   0  0  0  0  0  0  0  0  0  0  0  0
   -2.6487    2.4067   -0.0482 O   0  0  0  0  0  0  0  0  0  0  0  0
   -1.7419    3.4333   -0.4254 C   0  0  0  0  0  0  0  0  0  0  0  0
   -3.1579    0.1098    0.1088 C   0  0  0  0  0  0  0  0  0  0  0  0
   -4.4792    0.4671    0.2681 O   0  0  0  0  0  0  0  0  0  0  0  0
   -4.7726    0.6261    1.6552 C   0  0  0  0  0  0  0  0  0  0  0  0
   -2.8132   -1.2511    0.0678 C   0  0  0  0  0  0  0  0  0  0  0  0
   -3.8372   -2.1438    0.2501 O   0  0  0  0  0  0  0  0  0  0  0  0
   -3.5429   -3.5239    0.0789 C   0  0  0  0  0  0  0  0  0  0  0  0
   -1.4765   -1.6001   -0.1365 C   0  0  0  0  0  0  0  0  0  0  0  0
    1.8369   -0.0341   -0.6555 O   0  0  0  0  0  0  0  0  0  0  0  0
    6.6095    1.3416    1.1486 H   0  0  0  0  0  0  0  0  0  0  0  0
    6.9043    0.5232   -0.3958 H   0  0  0  0  0  0  0  0  0  0  0  0
    6.0001    2.0496   -0.3571 H   0  0  0  0  0  0  0  0  0  0  0  0
    4.1762    0.9380    0.9420 H   0  0  0  0  0  0  0  0  0  0  0  0
    5.0725   -0.5778    0.9211 H   0  0  0  0  0  0  0  0  0  0  0  0
    4.0547    0.8988   -1.5746 H   0  0  0  0  0  0  0  0  0  0  0  0
    4.9441   -0.6223   -1.5896 H   0  0  0  0  0  0  0  0  0  0  0  0
   -0.0950    1.4961   -0.4247 H   0  0  0  0  0  0  0  0  0  0  0  0
   -1.3524    3.2696   -1.4359 H   0  0  0  0  0  0  0  0  0  0  0  0
   -2.2913    4.3797   -0.4300 H   0  0  0  0  0  0  0  0  0  0  0  0
   -0.9291    3.5243    0.3023 H   0  0  0  0  0  0  0  0  0  0  0  0
   -5.8259    0.9084    1.7442 H   0  0  0  0  0  0  0  0  0  0  0  0
   -4.6265   -0.3097    2.2059 H   0  0  0  0  0  0  0  0  0  0  0  0
   -4.1709    1.4256    2.1017 H   0  0  0  0  0  0  0  0  0  0  0  0
   -3.1503   -3.7257   -0.9234 H   0  0  0  0  0  0  0  0  0  0  0  0
   -4.4783   -4.0811    0.1880 H   0  0  0  0  0  0  0  0  0  0  0  0
   -2.8539   -3.8767    0.8533 H   0  0  0  0  0  0  0  0  0  0  0  0
   -1.1701   -2.6428   -0.1599 H   0  0  0  0  0  0  0  0  0  0  0  0
  1  2  1  0
  2  3  1  0
  3  4  1  0
  4  5  2  0
  5  6  1  0
  6  7  2  0
  7  8  1  0
  8  9  2  0
  9 10  1  0
 10 11  1  0
 11 12  1  0
 10 13  2  0
 13 14  1  0
 14 15  1  0
 13 16  1  0
 16 17  1  0
 17 18  1  0
 16 19  2  0
  7 20  1  0
 20  4  1  0
 19  8  1  0
  1 21  1  0
  1 22  1  0
  1 23  1  0
  2 24  1  0
  2 25  1  0
  3 26  1  0
  3 27  1  0
  9 28  1  0
 12 29  1  0
 12 30  1  0
 12 31  1  0
 15 32  1  0
 15 33  1  0
 15 34  1  0
 18 35  1  0
 18 36  1  0
 18 37  1  0
 19 38  1  0
M  END
$$$$
