
     RDKit          3D

 55 58  0  0  0  0  0  0  0  0999 V2000
    3.6050   -3.5793   -4.4334 C   0  0  0  0  0  0  0  0  0  0  0  0
    2.6568   -2.6687   -3.8931 O   0  0  0  0  0  0  0  0  0  0  0  0
    2.7302   -2.4024   -2.5508 C   0  0  0  0  0  0  0  0  0  0  0  0
    3.8325   -2.7353   -1.7569 C   0  0  0  0  0  0  0  0  0  0  0  0
    3.8268   -2.4723   -0.3872 C   0  0  0  0  0  0  0  0  0  0  0  0
    2.7157   -1.8822    0.2093 C   0  0  0  0  0  0  0  0  0  0  0  0
    1.5948   -1.5299   -0.5578 C   0  0  0  0  0  0  0  0  0  0  0  0
    0.3641   -0.8963    0.0761 C   0  0  0  0  0  0  0  0  0  0  0  0
    0.2726    0.6011   -0.2477 C   0  0  0  0  0  0  0  0  0  0  0  0
    0.5600    1.2576    1.0772 C   0  0  0  0  0  0  0  0  0  0  0  0
    0.7563    2.7221    1.1925 C   0  0  0  0  0  0  0  0  0  0  0  0
    1.1071    3.2635    2.4359 C   0  0  0  0  0  0  0  0  0  0  0  0
    1.2979    4.6394    2.5749 C   0  0  0  0  0  0  0  0  0  0  0  0
    1.1371    5.4803    1.4751 C   0  0  0  0  0  0  0  0  0  0  0  0
    0.7826    4.9479    0.2366 C   0  0  0  0  0  0  0  0  0  0  0  0
    0.5913    3.5712    0.0925 C   0  0  0  0  0  0  0  0  0  0  0  0
    0.5789    0.4618    2.1012 N   0  0  0  0  0  0  0  0  0  0  0  0
    0.3669   -0.9198    1.5639 N   0  0  0  0  0  0  0  0  0  0  0  0
   -0.7864   -1.9280    2.3330 S   0  0  0  0  0  6  0  0  0  0  0  0
   -0.5899   -1.8812    3.7685 O   0  0  0  0  0  0  0  0  0  0  0  0
   -0.8230   -3.1975    1.6331 O   0  0  0  0  0  0  0  0  0  0  0  0
   -2.3155   -1.0800    1.9839 C   0  0  0  0  0  0  0  0  0  0  0  0
   -2.6527    0.0529    2.7288 C   0  0  0  0  0  0  0  0  0  0  0  0
   -3.8486    0.7208    2.4634 C   0  0  0  0  0  0  0  0  0  0  0  0
   -4.7203    0.2485    1.4728 C   0  0  0  0  0  0  0  0  0  0  0  0
   -5.9934    0.9832    1.1701 C   0  0  0  0  0  0  0  0  0  0  0  0
   -4.3707   -0.8920    0.7356 C   0  0  0  0  0  0  0  0  0  0  0  0
   -3.1755   -1.5646    0.9954 C   0  0  0  0  0  0  0  0  0  0  0  0
    1.6253   -1.7632   -1.9519 C   0  0  0  0  0  0  0  0  0  0  0  0
    0.4896   -1.3827   -2.6325 O   0  0  0  0  0  0  0  0  0  0  0  0
    0.7217   -0.7155   -3.8700 C   0  0  0  0  0  0  0  0  0  0  0  0
    3.3152   -3.7861   -5.4679 H   0  0  0  0  0  0  0  0  0  0  0  0
    4.6056   -3.1360   -4.4519 H   0  0  0  0  0  0  0  0  0  0  0  0
    3.6015   -4.5300   -3.8902 H   0  0  0  0  0  0  0  0  0  0  0  0
    4.7165   -3.2057   -2.1735 H   0  0  0  0  0  0  0  0  0  0  0  0
    4.6866   -2.7409    0.2216 H   0  0  0  0  0  0  0  0  0  0  0  0
    2.7342   -1.7037    1.2835 H   0  0  0  0  0  0  0  0  0  0  0  0
   -0.5204   -1.4100   -0.3157 H   0  0  0  0  0  0  0  0  0  0  0  0
   -0.7481    0.8655   -0.5465 H   0  0  0  0  0  0  0  0  0  0  0  0
    0.9754    0.9328   -1.0168 H   0  0  0  0  0  0  0  0  0  0  0  0
    1.2370    2.6200    3.3046 H   0  0  0  0  0  0  0  0  0  0  0  0
    1.5732    5.0530    3.5422 H   0  0  0  0  0  0  0  0  0  0  0  0
    1.2865    6.5517    1.5846 H   0  0  0  0  0  0  0  0  0  0  0  0
    0.6546    5.6073   -0.6185 H   0  0  0  0  0  0  0  0  0  0  0  0
    0.3106    3.1901   -0.8844 H   0  0  0  0  0  0  0  0  0  0  0  0
   -1.9869    0.4185    3.5084 H   0  0  0  0  0  0  0  0  0  0  0  0
   -4.1002    1.6086    3.0403 H   0  0  0  0  0  0  0  0  0  0  0  0
   -6.7731    0.2907    0.8361 H   0  0  0  0  0  0  0  0  0  0  0  0
   -5.8192    1.7264    0.3861 H   0  0  0  0  0  0  0  0  0  0  0  0
   -6.3733    1.4925    2.0620 H   0  0  0  0  0  0  0  0  0  0  0  0
   -5.0343   -1.2683   -0.0404 H   0  0  0  0  0  0  0  0  0  0  0  0
   -2.9266   -2.4578    0.4257 H   0  0  0  0  0  0  0  0  0  0  0  0
    1.6571   -0.1448   -3.8756 H   0  0  0  0  0  0  0  0  0  0  0  0
   -0.0970   -0.0045   -4.0181 H   0  0  0  0  0  0  0  0  0  0  0  0
    0.6881   -1.4288   -4.6978 H   0  0  0  0  0  0  0  0  0  0  0  0
  1  2  1  0
  2  3  1  0
  3  4  2  0
  4  5  1  0
  5  6  2  0
  6  7  1  0
  7  8  1  0
  8  9  1  0
  9 10  1  0
 10 11  1  0
 11 12  2  0
 12 13  1  0
 13 14  2  0
 14 15  1  0
 15 16  2  0
 10 17  2  0
 17 18  1  0
 18 19  1  0
 19 20  2  0
 19 21  2  0
 19 22  1  0
 22 23  2  0
 23 24  1  0
 24 25  2  0
 25 26  1  0
 25 27  1  0
 27 28  2  0
  7 29  2  0
 29 30  1  0
 30 31  1  0
 29  3  1  0
 18  8  1  0
 28 22  1  0
 16 11  1  0
  1 32  1  0
  1 33  1  0
  1 34  1  0
  4 35  1  0
  5 36  1  0
  6 37  1  0
  8 38  1  0
  9 39  1  0
  9 40  1  0
 12 41  1  0
 13 42  1  0
 14 43  1  0
 15 44  1  0
 16 45  1  0
 23 46  1  0
 24 47  1  0
 26 48  1  0
 26 49  1  0
 26 50  1  0
 27 51  1  0
 28 52  1  0
 31 53  1  0
 31 54  1  0
 31 55  1  0
M  END
$$$$
