
     RDKit          3D

 57 61  0  0  0  0  0  0  0  0999 V2000
    7.3670   -0.8634   -2.8898 C   0  0  0  0  0  0  0  0  0  0  0  0
    6.2251   -1.6548   -2.3244 C   0  0  0  0  0  0  0  0  0  0  0  0
    4.9333   -1.4985   -2.8371 C   0  0  0  0  0  0  0  0  0  0  0  0
    3.8731   -2.2538   -2.3309 C   0  0  0  0  0  0  0  0  0  0  0  0
    4.0901   -3.1922   -1.3129 C   0  0  0  0  0  0  0  0  0  0  0  0
    2.9446   -3.9999   -0.7566 C   0  0  0  0  0  0  0  0  0  0  0  0
    2.4660   -3.4494    0.4941 N   0  0  0  0  0  0  0  0  0  0  0  0
    2.8746   -3.9614    1.6828 N   0  0  0  0  0  0  0  0  0  0  0  0
    2.2758   -3.2678    2.6513 N   0  0  0  0  0  0  0  0  0  0  0  0
    1.4802   -2.3419    2.0513 C   0  0  0  0  0  0  0  0  0  0  0  0
    0.6206   -1.3350    2.6090 C   0  0  0  0  0  0  0  0  0  0  0  0
    0.4470   -1.1137    3.8023 O   0  0  0  0  0  0  0  0  0  0  0  0
   -0.0270   -0.5961    1.6253 N   0  0  0  0  0  0  0  0  0  0  0  0
    0.1381   -0.7952    0.2597 C   0  0  0  0  0  0  0  0  0  0  0  0
   -0.6638    0.1064   -0.6716 C   0  0  0  0  0  0  0  0  0  0  0  0
   -2.1695   -0.1766   -0.5751 C   0  0  0  0  0  0  0  0  0  0  0  0
   -2.9175    0.8063    0.3171 C   0  0  0  0  0  0  0  0  0  0  0  0
   -2.6661    2.2254   -0.0528 N   0  0  0  0  0  0  0  0  0  0  0  0
   -4.0415    3.1262   -0.5425 S   0  0  0  0  0  6  0  0  0  0  0  0
   -3.6267    4.4904   -0.7863 O   0  0  0  0  0  0  0  0  0  0  0  0
   -4.7182    2.3486   -1.5584 O   0  0  0  0  0  0  0  0  0  0  0  0
   -5.0367    3.1341    0.9299 C   0  0  0  0  0  0  0  0  0  0  0  0
   -4.5776    3.8350    2.0525 C   0  0  0  0  0  0  0  0  0  0  0  0
   -5.3540    3.8545    3.2116 C   0  0  0  0  0  0  0  0  0  0  0  0
   -6.5733    3.1822    3.2330 C   0  0  0  0  0  0  0  0  0  0  0  0
   -7.3164    3.2023    4.3465 F   0  0  0  0  0  0  0  0  0  0  0  0
   -7.0356    2.4910    2.1154 C   0  0  0  0  0  0  0  0  0  0  0  0
   -6.2668    2.4671    0.9511 C   0  0  0  0  0  0  0  0  0  0  0  0
   -1.4828    2.4647   -0.9204 C   0  0  0  0  0  0  0  0  0  0  0  0
   -0.3265    1.5857   -0.4686 C   0  0  0  0  0  0  0  0  0  0  0  0
    0.9127   -1.7111   -0.2552 N   0  0  0  0  0  0  0  0  0  0  0  0
    1.5616   -2.4436    0.6837 C   0  0  0  0  0  0  0  0  0  0  0  0
    5.3866   -3.3522   -0.8056 C   0  0  0  0  0  0  0  0  0  0  0  0
    6.4451   -2.5949   -1.3120 C   0  0  0  0  0  0  0  0  0  0  0  0
    7.0359    0.1364   -3.1892 H   0  0  0  0  0  0  0  0  0  0  0  0
    8.1609   -0.7328   -2.1466 H   0  0  0  0  0  0  0  0  0  0  0  0
    7.7818   -1.3767   -3.7626 H   0  0  0  0  0  0  0  0  0  0  0  0
    4.7431   -0.7824   -3.6330 H   0  0  0  0  0  0  0  0  0  0  0  0
    2.8746   -2.0998   -2.7350 H   0  0  0  0  0  0  0  0  0  0  0  0
    2.1011   -4.0300   -1.4555 H   0  0  0  0  0  0  0  0  0  0  0  0
    3.2525   -5.0375   -0.5822 H   0  0  0  0  0  0  0  0  0  0  0  0
   -0.6057    0.1462    1.9866 H   0  0  0  0  0  0  0  0  0  0  0  0
   -0.3602   -0.1657   -1.6932 H   0  0  0  0  0  0  0  0  0  0  0  0
   -2.5978   -0.1128   -1.5849 H   0  0  0  0  0  0  0  0  0  0  0  0
   -2.3548   -1.2007   -0.2296 H   0  0  0  0  0  0  0  0  0  0  0  0
   -3.9845    0.5651    0.2803 H   0  0  0  0  0  0  0  0  0  0  0  0
   -2.6180    0.6824    1.3631 H   0  0  0  0  0  0  0  0  0  0  0  0
   -3.6283    4.3660    2.0234 H   0  0  0  0  0  0  0  0  0  0  0  0
   -5.0212    4.3906    4.0949 H   0  0  0  0  0  0  0  0  0  0  0  0
   -7.9939    1.9818    2.1592 H   0  0  0  0  0  0  0  0  0  0  0  0
   -6.6300    1.9337    0.0750 H   0  0  0  0  0  0  0  0  0  0  0  0
   -1.7293    2.2676   -1.9703 H   0  0  0  0  0  0  0  0  0  0  0  0
   -1.1784    3.5128   -0.8278 H   0  0  0  0  0  0  0  0  0  0  0  0
    0.5749    1.8322   -1.0430 H   0  0  0  0  0  0  0  0  0  0  0  0
   -0.0884    1.8102    0.5776 H   0  0  0  0  0  0  0  0  0  0  0  0
    5.5810   -4.0647   -0.0056 H   0  0  0  0  0  0  0  0  0  0  0  0
    7.4431   -2.7403   -0.9042 H   0  0  0  0  0  0  0  0  0  0  0  0
  1  2  1  0
  2  3  2  0
  3  4  1  0
  4  5  2  0
  5  6  1  0
  6  7  1  0
  7  8  1  0
  8  9  2  0
  9 10  1  0
 10 11  1  0
 11 12  2  0
 11 13  1  0
 13 14  1  0
 14 15  1  0
 15 16  1  0
 16 17  1  0
 17 18  1  0
 18 19  1  0
 19 20  2  0
 19 21  2  0
 19 22  1  0
 22 23  2  0
 23 24  1  0
 24 25  2  0
 25 26  1  0
 25 27  1  0
 27 28  2  0
 18 29  1  0
 29 30  1  0
 14 31  2  0
 31 32  1  0
  5 33  1  0
 33 34  2  0
 34  2  1  0
 32  7  1  0
 32 10  2  0
 30 15  1  0
 28 22  1  0
  1 35  1  0
  1 36  1  0
  1 37  1  0
  3 38  1  0
  4 39  1  0
  6 40  1  0
  6 41  1  0
 13 42  1  0
 15 43  1  0
 16 44  1  0
 16 45  1  0
 17 46  1  0
 17 47  1  0
 23 48  1  0
 24 49  1  0
 27 50  1  0
 28 51  1  0
 29 52  1  0
 29 53  1  0
 30 54  1  0
 30 55  1  0
 33 56  1  0
 34 57  1  0
M  END
$$$$
