
     RDKit          3D

 46 48  0  0  0  0  0  0  0  0999 V2000
   -6.0694   -0.7848    0.4721 C   0  0  0  0  0  0  0  0  0  0  0  0
   -5.5225    0.5348    0.8630 C   0  0  0  0  0  0  0  0  0  0  0  0
   -6.3088    1.2546    1.7170 O   0  0  0  0  0  0  0  0  0  0  0  0
   -5.7030    2.4509    1.9141 C   0  0  0  0  0  0  0  0  0  0  0  0
   -4.5282    2.5102    1.2061 C   0  0  0  0  0  0  0  0  0  0  0  0
   -4.3796    1.2543    0.5398 C   0  0  0  0  0  0  0  0  0  0  0  0
   -3.2688    0.8705   -0.3212 C   0  0  0  0  0  0  0  0  0  0  0  0
   -2.5690    1.7094   -0.8787 O   0  0  0  0  0  0  0  0  0  0  0  0
   -3.0359   -0.4842   -0.4131 N   0  0  0  0  0  0  0  0  0  0  0  0
   -1.8625   -1.0001   -1.0789 C   0  0  0  0  0  0  0  0  0  0  0  0
   -0.7823   -1.3226   -0.0773 C   0  0  0  0  0  0  0  0  0  0  0  0
   -0.7182   -2.5878    0.5206 C   0  0  0  0  0  0  0  0  0  0  0  0
    0.2666   -2.8727    1.4678 C   0  0  0  0  0  0  0  0  0  0  0  0
    1.1930   -1.8951    1.8327 C   0  0  0  0  0  0  0  0  0  0  0  0
    1.1372   -0.6175    1.2597 C   0  0  0  0  0  0  0  0  0  0  0  0
    2.1538    0.4352    1.6212 C   0  0  0  0  0  0  0  0  0  0  0  0
    3.2458    0.4062    0.6772 N   0  0  0  0  0  0  0  0  0  0  0  0
    3.5461    1.4746   -0.1325 C   0  0  0  0  0  0  0  0  0  0  0  0
    3.0068    2.5709   -0.0194 O   0  0  0  0  0  0  0  0  0  0  0  0
    4.5825    1.2367   -1.1287 C   0  0  0  0  0  0  0  0  0  0  0  0
    5.4179    2.2362   -1.7182 C   0  0  0  0  0  0  0  0  0  0  0  0
    6.2417    1.5938   -2.6078 C   0  0  0  0  0  0  0  0  0  0  0  0
    5.9619    0.2681   -2.6333 O   0  0  0  0  0  0  0  0  0  0  0  0
    4.9385    0.0509   -1.7568 C   0  0  0  0  0  0  0  0  0  0  0  0
    4.4419   -1.3433   -1.7131 C   0  0  0  0  0  0  0  0  0  0  0  0
    0.1474   -0.3421    0.3032 C   0  0  0  0  0  0  0  0  0  0  0  0
   -7.1607   -0.8006    0.5698 H   0  0  0  0  0  0  0  0  0  0  0  0
   -5.8286   -1.0166   -0.5699 H   0  0  0  0  0  0  0  0  0  0  0  0
   -5.6598   -1.5744    1.1099 H   0  0  0  0  0  0  0  0  0  0  0  0
   -6.2225    3.1380    2.5690 H   0  0  0  0  0  0  0  0  0  0  0  0
   -3.8441    3.3470    1.1670 H   0  0  0  0  0  0  0  0  0  0  0  0
   -3.4627   -1.0792    0.2816 H   0  0  0  0  0  0  0  0  0  0  0  0
   -2.1629   -1.9090   -1.6113 H   0  0  0  0  0  0  0  0  0  0  0  0
   -1.4941   -0.2930   -1.8307 H   0  0  0  0  0  0  0  0  0  0  0  0
   -1.4345   -3.3611    0.2504 H   0  0  0  0  0  0  0  0  0  0  0  0
    0.3117   -3.8579    1.9245 H   0  0  0  0  0  0  0  0  0  0  0  0
    1.9561   -2.1360    2.5710 H   0  0  0  0  0  0  0  0  0  0  0  0
    2.5731    0.2342    2.6138 H   0  0  0  0  0  0  0  0  0  0  0  0
    1.6808    1.4228    1.6624 H   0  0  0  0  0  0  0  0  0  0  0  0
    3.7467   -0.4601    0.5713 H   0  0  0  0  0  0  0  0  0  0  0  0
    5.4042    3.2975   -1.5064 H   0  0  0  0  0  0  0  0  0  0  0  0
    7.0302    1.9195   -3.2712 H   0  0  0  0  0  0  0  0  0  0  0  0
    4.9069   -1.8874   -0.8865 H   0  0  0  0  0  0  0  0  0  0  0  0
    3.3552   -1.3683   -1.5844 H   0  0  0  0  0  0  0  0  0  0  0  0
    4.6740   -1.8719   -2.6430 H   0  0  0  0  0  0  0  0  0  0  0  0
    0.0984    0.6493   -0.1494 H   0  0  0  0  0  0  0  0  0  0  0  0
  1  2  1  0
  2  3  1  0
  3  4  1  0
  4  5  2  0
  5  6  1  0
  6  7  1  0
  7  8  2  0
  7  9  1  0
  9 10  1  0
 10 11  1  0
 11 12  2  0
 12 13  1  0
 13 14  2  0
 14 15  1  0
 15 16  1  0
 16 17  1  0
 17 18  1  0
 18 19  2  0
 18 20  1  0
 20 21  1  0
 21 22  2  0
 22 23  1  0
 23 24  1  0
 24 25  1  0
 15 26  2  0
  6  2  2  0
 26 11  1  0
 24 20  2  0
  1 27  1  0
  1 28  1  0
  1 29  1  0
  4 30  1  0
  5 31  1  0
  9 32  1  0
 10 33  1  0
 10 34  1  0
 12 35  1  0
 13 36  1  0
 14 37  1  0
 16 38  1  0
 16 39  1  0
 17 40  1  0
 21 41  1  0
 22 42  1  0
 25 43  1  0
 25 44  1  0
 25 45  1  0
 26 46  1  0
M  END
$$$$
