
     RDKit          3D

 42 44  0  0  0  0  0  0  0  0999 V2000
    1.9406    0.5558    2.8470 C   0  0  0  0  0  0  0  0  0  0  0  0
    2.1958   -0.1739    1.6536 O   0  0  0  0  0  0  0  0  0  0  0  0
    1.1386   -0.3997    0.8096 C   0  0  0  0  0  0  0  0  0  0  0  0
   -0.1743    0.0546    1.0225 C   0  0  0  0  0  0  0  0  0  0  0  0
   -1.2286   -0.1971    0.1196 C   0  0  0  0  0  0  0  0  0  0  0  0
   -2.5159    0.2436    0.3896 N   0  0  0  0  0  0  0  0  0  0  0  0
   -2.8833    0.9789    1.5994 C   0  0  0  0  0  0  0  0  0  0  0  0
   -4.3868    1.1834    1.4576 C   0  0  0  0  0  0  0  0  0  0  0  0
   -4.8283   -0.1015    0.7829 C   0  0  0  0  0  0  0  0  0  0  0  0
   -3.6988   -0.3891   -0.2075 C   0  0  0  0  0  0  0  0  0  0  0  0
   -0.8659   -0.8818   -1.0593 C   0  0  0  0  0  0  0  0  0  0  0  0
   -1.7700   -1.1152   -2.0718 O   0  0  0  0  0  0  0  0  0  0  0  0
   -1.6896   -0.0580   -3.0312 C   0  0  0  0  0  0  0  0  0  0  0  0
    0.4292   -1.3738   -1.2731 C   0  0  0  0  0  0  0  0  0  0  0  0
    1.4413   -1.1402   -0.3407 C   0  0  0  0  0  0  0  0  0  0  0  0
    2.8379   -1.6508   -0.6021 C   0  0  0  0  0  0  0  0  0  0  0  0
    3.7807   -0.5502   -0.9410 C   0  0  0  0  0  0  0  0  0  0  0  0
    3.7263    0.2621   -1.9553 N   0  0  0  0  0  0  0  0  0  0  0  0
    4.8098    1.1059   -1.8219 C   0  0  0  0  0  0  0  0  0  0  0  0
    5.2520    2.3431   -2.8404 S   0  0  0  0  0  0  0  0  0  0  0  0
    5.5306    0.8090   -0.7106 N   0  0  0  0  0  0  0  0  0  0  0  0
    4.9935   -0.2610   -0.0966 C   0  0  0  0  0  0  0  0  0  0  0  0
    5.3802   -0.8973    0.8539 O   0  0  0  0  0  0  0  0  0  0  0  0
    1.2261    0.0295    3.4883 H   0  0  0  0  0  0  0  0  0  0  0  0
    2.8839    0.6369    3.3946 H   0  0  0  0  0  0  0  0  0  0  0  0
    1.6007    1.5704    2.6193 H   0  0  0  0  0  0  0  0  0  0  0  0
   -0.3943    0.6157    1.9228 H   0  0  0  0  0  0  0  0  0  0  0  0
   -2.3671    1.9420    1.6710 H   0  0  0  0  0  0  0  0  0  0  0  0
   -2.6723    0.3824    2.4939 H   0  0  0  0  0  0  0  0  0  0  0  0
   -4.8808    1.3498    2.4190 H   0  0  0  0  0  0  0  0  0  0  0  0
   -4.5946    2.0424    0.8067 H   0  0  0  0  0  0  0  0  0  0  0  0
   -5.8008   -0.0128    0.2909 H   0  0  0  0  0  0  0  0  0  0  0  0
   -4.8930   -0.9109    1.5211 H   0  0  0  0  0  0  0  0  0  0  0  0
   -3.9264    0.0772   -1.1721 H   0  0  0  0  0  0  0  0  0  0  0  0
   -3.5926   -1.4721   -0.3345 H   0  0  0  0  0  0  0  0  0  0  0  0
   -1.9522    0.9070   -2.5849 H   0  0  0  0  0  0  0  0  0  0  0  0
   -2.4135   -0.2728   -3.8226 H   0  0  0  0  0  0  0  0  0  0  0  0
   -0.6951   -0.0058   -3.4882 H   0  0  0  0  0  0  0  0  0  0  0  0
    0.6401   -1.9190   -2.1908 H   0  0  0  0  0  0  0  0  0  0  0  0
    2.8370   -2.3540   -1.4441 H   0  0  0  0  0  0  0  0  0  0  0  0
    3.1925   -2.2152    0.2666 H   0  0  0  0  0  0  0  0  0  0  0  0
    6.3874    1.2622   -0.4413 H   0  0  0  0  0  0  0  0  0  0  0  0
  1  2  1  0
  2  3  1  0
  3  4  2  0
  4  5  1  0
  5  6  1  0
  6  7  1  0
  7  8  1  0
  8  9  1  0
  9 10  1  0
  5 11  2  0
 11 12  1  0
 12 13  1  0
 11 14  1  0
 14 15  2  0
 15 16  1  0
 16 17  1  0
 17 18  2  0
 18 19  1  0
 19 20  2  0
 19 21  1  0
 21 22  1  0
 22 23  2  0
 15  3  1  0
 22 17  1  0
 10  6  1  0
  1 24  1  0
  1 25  1  0
  1 26  1  0
  4 27  1  0
  7 28  1  0
  7 29  1  0
  8 30  1  0
  8 31  1  0
  9 32  1  0
  9 33  1  0
 10 34  1  0
 10 35  1  0
 13 36  1  0
 13 37  1  0
 13 38  1  0
 14 39  1  0
 16 40  1  0
 16 41  1  0
 21 42  1  0
M  END
$$$$
