
     RDKit          3D

 49 51  0  0  0  0  0  0  0  0999 V2000
   -3.2573   -3.8589    0.4297 C   0  0  0  0  0  0  0  0  0  0  0  0
   -2.7023   -2.4758    0.6614 C   0  0  0  0  0  0  0  0  0  0  0  0
   -2.9167   -1.8727    2.0075 C   0  0  0  0  0  0  0  0  0  0  0  0
   -2.3957   -0.6481    2.1700 C   0  0  0  0  0  0  0  0  0  0  0  0
   -2.5176    0.1143    3.4551 C   0  0  0  0  0  0  0  0  0  0  0  0
   -1.7239   -0.0537    1.1256 N   0  0  0  0  0  0  0  0  0  0  0  0
   -1.5729   -0.6447   -0.1064 C   0  0  0  0  0  0  0  0  0  0  0  0
   -0.9719   -0.1465   -1.1399 N   0  0  0  0  0  0  0  0  0  0  0  0
   -0.4248    1.0978   -1.0509 C   0  0  0  0  0  0  0  0  0  0  0  0
    0.8365    1.2683   -1.2489 N   0  0  0  0  0  0  0  0  0  0  0  0
    1.8520    0.1317   -1.7923 S   0  0  0  0  0  6  0  0  0  0  0  0
    3.1672    0.7542   -1.7965 O   0  0  0  0  0  0  0  0  0  0  0  0
    1.3386   -0.4447   -3.0209 O   0  0  0  0  0  0  0  0  0  0  0  0
    1.8538   -1.1088   -0.4969 C   0  0  0  0  0  0  0  0  0  0  0  0
    2.9569   -2.1087   -0.7448 C   0  0  0  0  0  0  0  0  0  0  0  0
    2.7347   -3.2147   -1.5787 C   0  0  0  0  0  0  0  0  0  0  0  0
    3.7507   -4.1430   -1.8089 C   0  0  0  0  0  0  0  0  0  0  0  0
    4.9979   -3.9755   -1.2108 C   0  0  0  0  0  0  0  0  0  0  0  0
    5.2320   -2.8774   -0.3854 C   0  0  0  0  0  0  0  0  0  0  0  0
    4.2177   -1.9471   -0.1532 C   0  0  0  0  0  0  0  0  0  0  0  0
   -1.2882    2.1192   -0.7306 N   0  0  0  0  0  0  0  0  0  0  0  0
   -1.0907    3.5105   -0.6101 C   0  0  0  0  0  0  0  0  0  0  0  0
    0.1634    4.1285   -0.6867 C   0  0  0  0  0  0  0  0  0  0  0  0
    0.3075    5.5101   -0.5066 C   0  0  0  0  0  0  0  0  0  0  0  0
   -0.7997    6.3042   -0.2267 C   0  0  0  0  0  0  0  0  0  0  0  0
   -2.0560    5.7176   -0.1195 C   0  0  0  0  0  0  0  0  0  0  0  0
   -2.1949    4.3375   -0.3015 C   0  0  0  0  0  0  0  0  0  0  0  0
   -3.9409    3.5976   -0.1086 Br  0  0  0  0  0  0  0  0  0  0  0  0
   -2.0775   -1.9025   -0.3205 N   0  0  0  0  0  0  0  0  0  0  0  0
   -2.4403   -4.5343    0.1595 H   0  0  0  0  0  0  0  0  0  0  0  0
   -3.7563   -4.2475    1.3210 H   0  0  0  0  0  0  0  0  0  0  0  0
   -3.9782   -3.8247   -0.3924 H   0  0  0  0  0  0  0  0  0  0  0  0
   -3.4591   -2.4150    2.7688 H   0  0  0  0  0  0  0  0  0  0  0  0
   -3.0436    1.0600    3.2875 H   0  0  0  0  0  0  0  0  0  0  0  0
   -3.0718   -0.4477    4.2142 H   0  0  0  0  0  0  0  0  0  0  0  0
   -1.5252    0.3371    3.8606 H   0  0  0  0  0  0  0  0  0  0  0  0
   -1.3639    0.8822    1.2706 H   0  0  0  0  0  0  0  0  0  0  0  0
    0.8990   -1.6324   -0.4783 H   0  0  0  0  0  0  0  0  0  0  0  0
    1.9981   -0.5985    0.4607 H   0  0  0  0  0  0  0  0  0  0  0  0
    1.7699   -3.3534   -2.0653 H   0  0  0  0  0  0  0  0  0  0  0  0
    3.5704   -4.9919   -2.4632 H   0  0  0  0  0  0  0  0  0  0  0  0
    5.7907   -4.6949   -1.3970 H   0  0  0  0  0  0  0  0  0  0  0  0
    6.2092   -2.7393    0.0699 H   0  0  0  0  0  0  0  0  0  0  0  0
    4.4254   -1.0871    0.4801 H   0  0  0  0  0  0  0  0  0  0  0  0
   -2.2628    1.8780   -0.8868 H   0  0  0  0  0  0  0  0  0  0  0  0
    1.0658    3.5635   -0.9016 H   0  0  0  0  0  0  0  0  0  0  0  0
    1.2944    5.9613   -0.5887 H   0  0  0  0  0  0  0  0  0  0  0  0
   -0.6816    7.3763   -0.0903 H   0  0  0  0  0  0  0  0  0  0  0  0
   -2.9181    6.3396    0.1067 H   0  0  0  0  0  0  0  0  0  0  0  0
  1  2  1  0
  2  3  1  0
  3  4  2  0
  4  5  1  0
  4  6  1  0
  6  7  1  0
  7  8  2  3
  8  9  1  0
  9 10  2  3
 10 11  1  0
 11 12  2  0
 11 13  2  0
 11 14  1  0
 14 15  1  0
 15 16  2  0
 16 17  1  0
 17 18  2  0
 18 19  1  0
 19 20  2  0
  9 21  1  0
 21 22  1  0
 22 23  2  0
 23 24  1  0
 24 25  2  0
 25 26  1  0
 26 27  2  0
 27 28  1  0
  7 29  1  0
 29  2  2  0
 20 15  1  0
 27 22  1  0
  1 30  1  0
  1 31  1  0
  1 32  1  0
  3 33  1  0
  5 34  1  0
  5 35  1  0
  5 36  1  0
  6 37  1  0
 14 38  1  0
 14 39  1  0
 16 40  1  0
 17 41  1  0
 18 42  1  0
 19 43  1  0
 20 44  1  0
 21 45  1  0
 23 46  1  0
 24 47  1  0
 25 48  1  0
 26 49  1  0
M  END
$$$$
