
     RDKit          3D

 46 48  0  0  0  0  0  0  0  0999 V2000
   -1.1015    2.0081    3.1050 O   0  0  0  0  0  0  0  0  0  0  0  0
   -0.4417    1.2510    2.3988 C   0  0  0  0  0  0  0  0  0  0  0  0
    1.0007    0.9288    2.7586 C   0  0  0  0  0  0  0  0  0  0  0  0
    1.9682    1.0353    1.5743 C   0  0  0  0  0  0  0  0  0  0  0  0
    1.7931   -0.0406    0.5751 N   0  0  0  0  0  0  0  0  0  0  0  0
    2.2192    0.3616   -0.7748 C   0  0  0  0  0  0  0  0  0  0  0  0
    3.6732    0.8115   -0.9336 C   0  0  0  0  0  0  0  0  0  0  0  0
    4.7058   -0.2993   -1.1003 C   0  0  0  0  0  0  0  0  0  0  0  0
    4.4254   -1.6304   -0.4156 C   0  0  0  0  0  0  0  0  0  0  0  0
    3.8495   -1.5220    0.9908 C   0  0  0  0  0  0  0  0  0  0  0  0
    2.3285   -1.3380    1.0020 C   0  0  0  0  0  0  0  0  0  0  0  0
   -0.8863    0.5711    1.2833 N   0  0  0  0  0  0  0  0  0  0  0  0
   -2.1645    0.5947    0.6968 C   0  0  0  0  0  0  0  0  0  0  0  0
   -3.2524    1.2939    1.2253 C   0  0  0  0  0  0  0  0  0  0  0  0
   -4.4966    1.2601    0.5852 C   0  0  0  0  0  0  0  0  0  0  0  0
   -4.6596    0.5239   -0.5839 C   0  0  0  0  0  0  0  0  0  0  0  0
   -3.5708   -0.1569   -1.1326 C   0  0  0  0  0  0  0  0  0  0  0  0
   -2.3341   -0.1347   -0.4873 C   0  0  0  0  0  0  0  0  0  0  0  0
   -3.6442   -0.8761   -2.2992 O   0  0  0  0  0  0  0  0  0  0  0  0
   -4.8305   -0.5539   -3.0349 C   0  0  0  0  0  0  0  0  0  0  0  0
   -6.0410   -0.5241   -2.1165 C   0  0  0  0  0  0  0  0  0  0  0  0
   -5.9110    0.5183   -1.1435 O   0  0  0  0  0  0  0  0  0  0  0  0
    1.0279   -0.0534    3.2400 H   0  0  0  0  0  0  0  0  0  0  0  0
    1.3135    1.6590    3.5159 H   0  0  0  0  0  0  0  0  0  0  0  0
    1.7886    2.0089    1.0986 H   0  0  0  0  0  0  0  0  0  0  0  0
    2.9966    1.0560    1.9520 H   0  0  0  0  0  0  0  0  0  0  0  0
    1.5755    1.1979   -1.0789 H   0  0  0  0  0  0  0  0  0  0  0  0
    1.9885   -0.4369   -1.4915 H   0  0  0  0  0  0  0  0  0  0  0  0
    3.9719    1.4548   -0.0980 H   0  0  0  0  0  0  0  0  0  0  0  0
    3.7382    1.4592   -1.8182 H   0  0  0  0  0  0  0  0  0  0  0  0
    4.8391   -0.4978   -2.1719 H   0  0  0  0  0  0  0  0  0  0  0  0
    5.6743    0.0839   -0.7537 H   0  0  0  0  0  0  0  0  0  0  0  0
    5.3715   -2.1847   -0.3667 H   0  0  0  0  0  0  0  0  0  0  0  0
    3.7611   -2.2352   -1.0454 H   0  0  0  0  0  0  0  0  0  0  0  0
    4.3577   -0.7402    1.5655 H   0  0  0  0  0  0  0  0  0  0  0  0
    4.0624   -2.4660    1.5094 H   0  0  0  0  0  0  0  0  0  0  0  0
    1.8747   -2.1126    0.3693 H   0  0  0  0  0  0  0  0  0  0  0  0
    1.9655   -1.5714    2.0092 H   0  0  0  0  0  0  0  0  0  0  0  0
   -0.1672    0.0387    0.7903 H   0  0  0  0  0  0  0  0  0  0  0  0
   -3.1677    1.8714    2.1407 H   0  0  0  0  0  0  0  0  0  0  0  0
   -5.3373    1.8011    1.0105 H   0  0  0  0  0  0  0  0  0  0  0  0
   -1.5048   -0.6826   -0.9259 H   0  0  0  0  0  0  0  0  0  0  0  0
   -4.6801    0.4120   -3.5330 H   0  0  0  0  0  0  0  0  0  0  0  0
   -4.9597   -1.3192   -3.8066 H   0  0  0  0  0  0  0  0  0  0  0  0
   -6.1700   -1.4783   -1.5907 H   0  0  0  0  0  0  0  0  0  0  0  0
   -6.9495   -0.3272   -2.6941 H   0  0  0  0  0  0  0  0  0  0  0  0
  1  2  2  0
  2  3  1  0
  3  4  1  0
  4  5  1  0
  5  6  1  0
  6  7  1  0
  7  8  1  0
  8  9  1  0
  9 10  1  0
 10 11  1  0
  2 12  1  0
 12 13  1  0
 13 14  2  0
 14 15  1  0
 15 16  2  0
 16 17  1  0
 17 18  2  0
 17 19  1  0
 19 20  1  0
 20 21  1  0
 21 22  1  0
 11  5  1  0
 18 13  1  0
 22 16  1  0
  3 23  1  0
  3 24  1  0
  4 25  1  0
  4 26  1  0
  6 27  1  0
  6 28  1  0
  7 29  1  0
  7 30  1  0
  8 31  1  0
  8 32  1  0
  9 33  1  0
  9 34  1  0
 10 35  1  0
 10 36  1  0
 11 37  1  0
 11 38  1  0
 12 39  1  0
 14 40  1  0
 15 41  1  0
 18 42  1  0
 20 43  1  0
 20 44  1  0
 21 45  1  0
 21 46  1  0
M  END
$$$$
