
     RDKit          3D

 39 41  0  0  0  0  0  0  0  0999 V2000
    2.6061    0.8328   -2.7655 O   0  0  0  0  0  0  0  0  0  0  0  0
    3.2669    0.6378   -1.7504 C   0  0  0  0  0  0  0  0  0  0  0  0
    4.5203    1.1209   -1.7015 O   0  0  0  0  0  0  0  0  0  0  0  0
    2.7715   -0.1433   -0.5223 C   0  0  0  0  0  0  0  0  0  0  0  0
    3.5687   -0.1131    0.7869 C   0  0  0  0  0  0  0  0  0  0  0  0
    2.9385   -0.0485    2.0448 C   0  0  0  0  0  0  0  0  0  0  0  0
    3.6760   -0.0809    3.2331 C   0  0  0  0  0  0  0  0  0  0  0  0
    5.0590   -0.2121    3.1947 C   0  0  0  0  0  0  0  0  0  0  0  0
    5.7026   -0.3291    1.9688 C   0  0  0  0  0  0  0  0  0  0  0  0
    4.9642   -0.2953    0.7817 C   0  0  0  0  0  0  0  0  0  0  0  0
    1.3324    0.1774   -0.3917 N   0  0  0  0  0  0  0  0  0  0  0  0
    0.4163   -0.8121   -0.6980 C   0  0  0  0  0  0  0  0  0  0  0  0
    0.6764   -1.9594   -1.0337 O   0  0  0  0  0  0  0  0  0  0  0  0
   -0.9716   -0.2979   -0.5639 C   0  0  0  0  0  0  0  0  0  0  0  0
   -2.0356   -1.0835   -0.7786 C   0  0  0  0  0  0  0  0  0  0  0  0
   -3.4445   -0.6898   -0.6624 C   0  0  0  0  0  0  0  0  0  0  0  0
   -4.2555   -1.3383    0.2827 C   0  0  0  0  0  0  0  0  0  0  0  0
   -5.6064   -1.0049    0.4053 C   0  0  0  0  0  0  0  0  0  0  0  0
   -6.1396   -0.0304   -0.4240 C   0  0  0  0  0  0  0  0  0  0  0  0
   -7.4603    0.2947   -0.3064 O   0  0  0  0  0  0  0  0  0  0  0  0
   -5.3466    0.6126   -1.3713 C   0  0  0  0  0  0  0  0  0  0  0  0
   -5.9420    1.5594   -2.1602 O   0  0  0  0  0  0  0  0  0  0  0  0
   -4.0005    0.2869   -1.5017 C   0  0  0  0  0  0  0  0  0  0  0  0
   -0.9471    1.3495   -0.0911 S   0  0  0  0  0  0  0  0  0  0  0  0
    0.8128    1.4239   -0.0944 C   0  0  0  0  0  0  0  0  0  0  0  0
    1.6168    2.8528    0.2210 S   0  0  0  0  0  0  0  0  0  0  0  0
    4.6267    1.6152   -2.5425 H   0  0  0  0  0  0  0  0  0  0  0  0
    2.8580   -1.1916   -0.8415 H   0  0  0  0  0  0  0  0  0  0  0  0
    1.8579    0.0204    2.1365 H   0  0  0  0  0  0  0  0  0  0  0  0
    3.1653   -0.0114    4.1903 H   0  0  0  0  0  0  0  0  0  0  0  0
    5.6317   -0.2384    4.1178 H   0  0  0  0  0  0  0  0  0  0  0  0
    6.7818   -0.4548    1.9323 H   0  0  0  0  0  0  0  0  0  0  0  0
    5.5083   -0.4247   -0.1516 H   0  0  0  0  0  0  0  0  0  0  0  0
   -1.8839   -2.1290   -1.0464 H   0  0  0  0  0  0  0  0  0  0  0  0
   -3.8417   -2.1057    0.9338 H   0  0  0  0  0  0  0  0  0  0  0  0
   -6.2353   -1.5014    1.1384 H   0  0  0  0  0  0  0  0  0  0  0  0
   -7.6011    0.9920   -0.9775 H   0  0  0  0  0  0  0  0  0  0  0  0
   -5.2627    1.9410   -2.7430 H   0  0  0  0  0  0  0  0  0  0  0  0
   -3.3838    0.7781   -2.2485 H   0  0  0  0  0  0  0  0  0  0  0  0
  1  2  2  0
  2  3  1  0
  2  4  1  0
  4  5  1  0
  5  6  2  0
  6  7  1  0
  7  8  2  0
  8  9  1  0
  9 10  2  0
  4 11  1  0
 11 12  1  0
 12 13  2  0
 12 14  1  0
 14 15  2  3
 15 16  1  0
 16 17  2  0
 17 18  1  0
 18 19  2  0
 19 20  1  0
 19 21  1  0
 21 22  1  0
 21 23  2  0
 14 24  1  0
 24 25  1  0
 25 26  2  0
 10  5  1  0
 25 11  1  0
 23 16  1  0
  3 27  1  0
  4 28  1  0
  6 29  1  0
  7 30  1  0
  8 31  1  0
  9 32  1  0
 10 33  1  0
 15 34  1  0
 17 35  1  0
 18 36  1  0
 20 37  1  0
 22 38  1  0
 23 39  1  0
M  END
$$$$
