
     RDKit          3D

 58 62  0  0  0  0  0  0  0  0999 V2000
   -7.5216    2.5199    0.8374 C   0  0  0  0  0  0  0  0  0  0  0  0
   -6.5676    2.2152   -0.1706 O   0  0  0  0  0  0  0  0  0  0  0  0
   -5.3279    1.8213    0.2443 C   0  0  0  0  0  0  0  0  0  0  0  0
   -4.8754    1.7858    1.5652 C   0  0  0  0  0  0  0  0  0  0  0  0
   -3.5786    1.3452    1.8522 C   0  0  0  0  0  0  0  0  0  0  0  0
   -2.7305    0.9272    0.8218 C   0  0  0  0  0  0  0  0  0  0  0  0
   -1.3504    0.4666    1.1507 C   0  0  0  0  0  0  0  0  0  0  0  0
   -0.7004    1.0696    2.0894 N   0  0  0  0  0  0  0  0  0  0  0  0
    0.6700    0.6399    2.3606 C   0  0  0  0  0  0  0  0  0  0  0  0
    1.6058    1.0841    1.2365 C   0  0  0  0  0  0  0  0  0  0  0  0
    2.4900    1.9177    1.4646 O   0  0  0  0  0  0  0  0  0  0  0  0
    1.5106    0.4380   -0.0010 N   0  0  0  0  0  0  0  0  0  0  0  0
    2.5258    0.7846   -1.0033 C   0  0  0  0  0  0  0  0  0  0  0  0
    3.8397    0.0210   -0.8277 C   0  0  0  0  0  0  0  0  0  0  0  0
    4.2837   -0.7246   -1.6952 O   0  0  0  0  0  0  0  0  0  0  0  0
    4.5104    0.2984    0.3489 N   0  0  0  0  0  0  0  0  0  0  0  0
    5.8909   -0.0825    0.5318 C   0  0  0  0  0  0  0  0  0  0  0  0
    6.7495    0.8849   -0.1962 C   0  0  0  0  0  0  0  0  0  0  0  0
    7.3644    0.8472   -1.4297 C   0  0  0  0  0  0  0  0  0  0  0  0
    7.9976    2.0923   -1.6045 C   0  0  0  0  0  0  0  0  0  0  0  0
    7.7308    2.8165   -0.4633 C   0  0  0  0  0  0  0  0  0  0  0  0
    6.9789    2.0907    0.4037 O   0  0  0  0  0  0  0  0  0  0  0  0
    0.5036   -0.5111   -0.2082 C   0  0  0  0  0  0  0  0  0  0  0  0
    0.7951   -1.7515   -1.3421 S   0  0  0  0  0  0  0  0  0  0  0  0
   -0.6731   -2.5149   -0.9901 C   0  0  0  0  0  0  0  0  0  0  0  0
   -1.4039   -1.8512   -0.0248 C   0  0  0  0  0  0  0  0  0  0  0  0
   -0.7636   -0.6062    0.3484 C   0  0  0  0  0  0  0  0  0  0  0  0
   -2.7236   -2.3862    0.4684 C   0  0  0  0  0  0  0  0  0  0  0  0
   -3.0208   -3.8077   -0.0490 C   0  0  0  0  0  0  0  0  0  0  0  0
   -2.6040   -3.9774   -1.5143 C   0  0  0  0  0  0  0  0  0  0  0  0
   -1.0915   -3.7819   -1.6725 C   0  0  0  0  0  0  0  0  0  0  0  0
   -3.1719    0.9950   -0.5060 C   0  0  0  0  0  0  0  0  0  0  0  0
   -4.4665    1.4350   -0.7874 C   0  0  0  0  0  0  0  0  0  0  0  0
   -8.4805    2.7158    0.3499 H   0  0  0  0  0  0  0  0  0  0  0  0
   -7.2361    3.4229    1.3795 H   0  0  0  0  0  0  0  0  0  0  0  0
   -7.6642    1.6774    1.5187 H   0  0  0  0  0  0  0  0  0  0  0  0
   -5.5029    2.0977    2.3952 H   0  0  0  0  0  0  0  0  0  0  0  0
   -3.2350    1.3264    2.8837 H   0  0  0  0  0  0  0  0  0  0  0  0
    1.0017    1.1319    3.2827 H   0  0  0  0  0  0  0  0  0  0  0  0
    0.7571   -0.4379    2.5466 H   0  0  0  0  0  0  0  0  0  0  0  0
    2.7503    1.8565   -0.9419 H   0  0  0  0  0  0  0  0  0  0  0  0
    2.1382    0.6184   -2.0134 H   0  0  0  0  0  0  0  0  0  0  0  0
    4.1718    1.0871    0.9039 H   0  0  0  0  0  0  0  0  0  0  0  0
    6.1063   -0.0666    1.6024 H   0  0  0  0  0  0  0  0  0  0  0  0
    6.0445   -1.0976    0.1582 H   0  0  0  0  0  0  0  0  0  0  0  0
    7.3254    0.0212   -2.1211 H   0  0  0  0  0  0  0  0  0  0  0  0
    8.5622    2.4276   -2.4632 H   0  0  0  0  0  0  0  0  0  0  0  0
    7.9823    3.8124   -0.1342 H   0  0  0  0  0  0  0  0  0  0  0  0
   -2.7349   -2.3898    1.5645 H   0  0  0  0  0  0  0  0  0  0  0  0
   -3.5325   -1.7266    0.1372 H   0  0  0  0  0  0  0  0  0  0  0  0
   -4.0891   -4.0147    0.0617 H   0  0  0  0  0  0  0  0  0  0  0  0
   -2.4844   -4.5431    0.5613 H   0  0  0  0  0  0  0  0  0  0  0  0
   -3.1457   -3.2429   -2.1187 H   0  0  0  0  0  0  0  0  0  0  0  0
   -2.8849   -4.9696   -1.8780 H   0  0  0  0  0  0  0  0  0  0  0  0
   -0.5648   -4.6268   -1.2065 H   0  0  0  0  0  0  0  0  0  0  0  0
   -0.8312   -3.7699   -2.7394 H   0  0  0  0  0  0  0  0  0  0  0  0
   -2.5217    0.7123   -1.3305 H   0  0  0  0  0  0  0  0  0  0  0  0
   -4.8075    1.4770   -1.8202 H   0  0  0  0  0  0  0  0  0  0  0  0
  1  2  1  0
  2  3  1  0
  3  4  2  0
  4  5  1  0
  5  6  2  0
  6  7  1  0
  7  8  2  0
  8  9  1  0
  9 10  1  0
 10 11  2  0
 10 12  1  0
 12 13  1  0
 13 14  1  0
 14 15  2  0
 14 16  1  0
 16 17  1  0
 17 18  1  0
 18 19  2  0
 19 20  1  0
 20 21  2  0
 21 22  1  0
 12 23  1  0
 23 24  1  0
 24 25  1  0
 25 26  2  0
 26 27  1  0
 26 28  1  0
 28 29  1  0
 29 30  1  0
 30 31  1  0
  6 32  1  0
 32 33  2  0
 33  3  1  0
 27  7  1  0
 22 18  1  0
 27 23  2  0
 31 25  1  0
  1 34  1  0
  1 35  1  0
  1 36  1  0
  4 37  1  0
  5 38  1  0
  9 39  1  0
  9 40  1  0
 13 41  1  0
 13 42  1  0
 16 43  1  0
 17 44  1  0
 17 45  1  0
 19 46  1  0
 20 47  1  0
 21 48  1  0
 28 49  1  0
 28 50  1  0
 29 51  1  0
 29 52  1  0
 30 53  1  0
 30 54  1  0
 31 55  1  0
 31 56  1  0
 32 57  1  0
 33 58  1  0
M  END
$$$$
