
     RDKit          3D

 40 41  0  0  0  0  0  0  0  0999 V2000
   -5.5153   -0.8329   -1.6238 C   0  0  0  0  0  0  0  0  0  0  0  0
   -4.4193   -0.1613   -0.9285 N   0  0  0  0  0  0  0  0  0  0  0  0
   -3.1202   -0.5294   -1.5260 C   0  0  0  0  0  0  0  0  0  0  0  0
   -1.9218   -0.3328   -0.5774 C   0  0  0  0  0  0  0  0  0  0  0  0
   -2.0686   -1.1103    0.6609 N   0  0  0  0  0  0  0  0  0  0  0  0
   -1.0332   -1.4864    1.5029 C   0  0  0  0  0  0  0  0  0  0  0  0
   -1.2338   -2.1671    2.5138 O   0  0  0  0  0  0  0  0  0  0  0  0
    0.3847   -1.0539    1.1622 C   0  0  0  0  0  0  0  0  0  0  0  0
    0.6559    0.6710    1.6893 S   0  0  0  0  0  0  0  0  0  0  0  0
    2.3528    0.8602    1.1682 C   0  0  0  0  0  0  0  0  0  0  0  0
    3.3555    0.3892    2.0266 C   0  0  0  0  0  0  0  0  0  0  0  0
    4.7112    0.5399    1.7041 C   0  0  0  0  0  0  0  0  0  0  0  0
    5.1044    1.1735    0.5144 C   0  0  0  0  0  0  0  0  0  0  0  0
    6.5722    1.3450    0.1937 C   0  0  0  0  0  0  0  0  0  0  0  0
    7.2967    0.2210    0.4465 F   0  0  0  0  0  0  0  0  0  0  0  0
    7.1471    2.3386    0.9226 F   0  0  0  0  0  0  0  0  0  0  0  0
    6.8006    1.6511   -1.1130 F   0  0  0  0  0  0  0  0  0  0  0  0
    4.1115    1.6633   -0.3455 C   0  0  0  0  0  0  0  0  0  0  0  0
    2.7570    1.4955   -0.0127 C   0  0  0  0  0  0  0  0  0  0  0  0
    1.7781    1.9911   -0.9594 N   0  0  0  0  0  4  0  0  0  0  0  0
    1.7603    3.2124   -1.1604 O   0  0  0  0  0  0  0  0  0  0  0  0
    1.0731    1.1504   -1.5354 O   0  0  0  0  0  1  0  0  0  0  0  0
   -3.4441   -1.4450    1.0407 C   0  0  0  0  0  0  0  0  0  0  0  0
   -4.4582   -0.4065    0.5271 C   0  0  0  0  0  0  0  0  0  0  0  0
   -5.4790   -0.6218   -2.6985 H   0  0  0  0  0  0  0  0  0  0  0  0
   -6.4819   -0.4632   -1.2652 H   0  0  0  0  0  0  0  0  0  0  0  0
   -5.4871   -1.9198   -1.4820 H   0  0  0  0  0  0  0  0  0  0  0  0
   -2.9648    0.0683   -2.4302 H   0  0  0  0  0  0  0  0  0  0  0  0
   -3.1286   -1.5843   -1.8326 H   0  0  0  0  0  0  0  0  0  0  0  0
   -1.0086   -0.6318   -1.0951 H   0  0  0  0  0  0  0  0  0  0  0  0
   -1.8278    0.7228   -0.2974 H   0  0  0  0  0  0  0  0  0  0  0  0
    1.0728   -1.7047    1.7120 H   0  0  0  0  0  0  0  0  0  0  0  0
    0.5987   -1.1938    0.1009 H   0  0  0  0  0  0  0  0  0  0  0  0
    3.0937   -0.0945    2.9681 H   0  0  0  0  0  0  0  0  0  0  0  0
    5.4657    0.1623    2.3960 H   0  0  0  0  0  0  0  0  0  0  0  0
    4.3899    2.1694   -1.2706 H   0  0  0  0  0  0  0  0  0  0  0  0
   -3.5246   -1.5249    2.1300 H   0  0  0  0  0  0  0  0  0  0  0  0
   -3.6644   -2.4332    0.6193 H   0  0  0  0  0  0  0  0  0  0  0  0
   -4.2341    0.5517    1.0140 H   0  0  0  0  0  0  0  0  0  0  0  0
   -5.4670   -0.6791    0.8619 H   0  0  0  0  0  0  0  0  0  0  0  0
  1  2  1  0
  2  3  1  0
  3  4  1  0
  4  5  1  0
  5  6  1  0
  6  7  2  0
  6  8  1  0
  8  9  1  0
  9 10  1  0
 10 11  2  0
 11 12  1  0
 12 13  2  0
 13 14  1  0
 14 15  1  0
 14 16  1  0
 14 17  1  0
 13 18  1  0
 18 19  2  0
 19 20  1  0
 20 21  2  0
 20 22  1  0
  5 23  1  0
 23 24  1  0
 24  2  1  0
 19 10  1  0
  1 25  1  0
  1 26  1  0
  1 27  1  0
  3 28  1  0
  3 29  1  0
  4 30  1  0
  4 31  1  0
  8 32  1  0
  8 33  1  0
 11 34  1  0
 12 35  1  0
 18 36  1  0
 23 37  1  0
 23 38  1  0
 24 39  1  0
 24 40  1  0
M  CHG  2  20   1  22  -1
M  END
$$$$
