
     RDKit          3D

 62 66  0  0  0  0  0  0  0  0999 V2000
   -6.4963   -1.8559   -3.4032 C   0  0  0  0  0  0  0  0  0  0  0  0
   -6.4060   -0.9320   -2.2133 C   0  0  0  0  0  0  0  0  0  0  0  0
   -7.3789   -0.9407   -1.2790 C   0  0  0  0  0  0  0  0  0  0  0  0
   -7.3648   -0.0224   -0.1312 C   0  0  0  0  0  0  0  0  0  0  0  0
   -8.4223   -0.0418    0.7897 C   0  0  0  0  0  0  0  0  0  0  0  0
   -8.4278    0.8371    1.8721 C   0  0  0  0  0  0  0  0  0  0  0  0
   -7.3845    1.7480    2.0268 C   0  0  0  0  0  0  0  0  0  0  0  0
   -6.3228    1.7803    1.1140 C   0  0  0  0  0  0  0  0  0  0  0  0
   -6.2959    0.8785    0.0463 C   0  0  0  0  0  0  0  0  0  0  0  0
   -5.2507    0.8052   -0.9175 N   0  0  0  0  0  0  0  0  0  0  0  0
   -4.0038    1.3974   -1.0230 C   0  0  0  0  0  0  0  0  0  0  0  0
   -3.1537    2.2750    0.2050 S   0  0  0  0  0  0  0  0  0  0  0  0
   -2.4844    0.8755    1.1460 C   0  0  0  0  0  0  0  0  0  0  0  0
   -1.2934    0.2233    0.4619 C   0  0  0  0  0  0  0  0  0  0  0  0
   -1.2292   -0.9989    0.3567 O   0  0  0  0  0  0  0  0  0  0  0  0
   -0.2958    1.1239    0.1273 N   0  0  0  0  0  0  0  0  0  0  0  0
    0.9983    0.8491   -0.3579 C   0  0  0  0  0  0  0  0  0  0  0  0
    1.4633   -0.4302   -0.6718 C   0  0  0  0  0  0  0  0  0  0  0  0
    2.7813   -0.6210   -1.1122 C   0  0  0  0  0  0  0  0  0  0  0  0
    3.6470    0.4704   -1.2085 C   0  0  0  0  0  0  0  0  0  0  0  0
    5.3451    0.2397   -1.6998 S   0  0  0  0  0  6  0  0  0  0  0  0
    5.8792    1.5459   -2.0196 O   0  0  0  0  0  0  0  0  0  0  0  0
    5.3834   -0.8325   -2.6658 O   0  0  0  0  0  0  0  0  0  0  0  0
    6.1041   -0.2803   -0.2577 N   0  0  0  0  0  0  0  0  0  0  0  0
    5.8177   -1.6679    0.1750 C   0  0  0  0  0  0  0  0  0  0  0  0
    6.8736   -2.1086    1.1836 C   0  0  0  0  0  0  0  0  0  0  0  0
    6.9382   -1.1703    2.3981 C   0  0  0  0  0  0  0  0  0  0  0  0
    5.7077   -1.3189    3.3026 C   0  0  0  0  0  0  0  0  0  0  0  0
    7.1207    0.2845    1.9251 C   0  0  0  0  0  0  0  0  0  0  0  0
    6.1033    0.6989    0.8639 C   0  0  0  0  0  0  0  0  0  0  0  0
    3.1852    1.7593   -0.9299 C   0  0  0  0  0  0  0  0  0  0  0  0
    1.8665    1.9441   -0.5061 C   0  0  0  0  0  0  0  0  0  0  0  0
   -3.4354    1.0659   -2.1617 N   0  0  0  0  0  0  0  0  0  0  0  0
   -4.2560    0.1715   -2.7998 N   0  0  0  0  0  0  0  0  0  0  0  0
   -5.3138   -0.0262   -2.0379 C   0  0  0  0  0  0  0  0  0  0  0  0
   -5.6667   -2.5674   -3.3915 H   0  0  0  0  0  0  0  0  0  0  0  0
   -7.4356   -2.4189   -3.4237 H   0  0  0  0  0  0  0  0  0  0  0  0
   -6.4360   -1.2740   -4.3292 H   0  0  0  0  0  0  0  0  0  0  0  0
   -8.2274   -1.6157   -1.3633 H   0  0  0  0  0  0  0  0  0  0  0  0
   -9.2494   -0.7399    0.6699 H   0  0  0  0  0  0  0  0  0  0  0  0
   -9.2515    0.8224    2.5841 H   0  0  0  0  0  0  0  0  0  0  0  0
   -7.4046    2.4565    2.8516 H   0  0  0  0  0  0  0  0  0  0  0  0
   -5.5650    2.5426    1.2661 H   0  0  0  0  0  0  0  0  0  0  0  0
   -3.2661    0.1230    1.3148 H   0  0  0  0  0  0  0  0  0  0  0  0
   -2.1523    1.2266    2.1234 H   0  0  0  0  0  0  0  0  0  0  0  0
   -0.5248    2.1036    0.2498 H   0  0  0  0  0  0  0  0  0  0  0  0
    0.8209   -1.3023   -0.5943 H   0  0  0  0  0  0  0  0  0  0  0  0
    3.1215   -1.6226   -1.3664 H   0  0  0  0  0  0  0  0  0  0  0  0
    5.8544   -2.3537   -0.6759 H   0  0  0  0  0  0  0  0  0  0  0  0
    4.8189   -1.7328    0.6125 H   0  0  0  0  0  0  0  0  0  0  0  0
    7.8591   -2.1129    0.6955 H   0  0  0  0  0  0  0  0  0  0  0  0
    6.6725   -3.1409    1.5017 H   0  0  0  0  0  0  0  0  0  0  0  0
    7.8148   -1.4453    2.9986 H   0  0  0  0  0  0  0  0  0  0  0  0
    4.7815   -1.0375    2.7930 H   0  0  0  0  0  0  0  0  0  0  0  0
    5.8024   -0.6854    4.1935 H   0  0  0  0  0  0  0  0  0  0  0  0
    5.6049   -2.3607    3.6350 H   0  0  0  0  0  0  0  0  0  0  0  0
    8.1369    0.4017    1.5183 H   0  0  0  0  0  0  0  0  0  0  0  0
    7.0470    0.9681    2.7817 H   0  0  0  0  0  0  0  0  0  0  0  0
    5.0983    0.7659    1.3071 H   0  0  0  0  0  0  0  0  0  0  0  0
    6.3792    1.6985    0.4982 H   0  0  0  0  0  0  0  0  0  0  0  0
    3.8383    2.6223   -1.0348 H   0  0  0  0  0  0  0  0  0  0  0  0
    1.5297    2.9530   -0.2833 H   0  0  0  0  0  0  0  0  0  0  0  0
  1  2  1  0
  2  3  2  0
  3  4  1  0
  4  5  2  0
  5  6  1  0
  6  7  2  0
  7  8  1  0
  8  9  2  0
  9 10  1  0
 10 11  1  0
 11 12  1  0
 12 13  1  0
 13 14  1  0
 14 15  2  0
 14 16  1  0
 16 17  1  0
 17 18  2  0
 18 19  1  0
 19 20  2  0
 20 21  1  0
 21 22  2  0
 21 23  2  0
 21 24  1  0
 24 25  1  0
 25 26  1  0
 26 27  1  0
 27 28  1  0
 27 29  1  0
 29 30  1  0
 20 31  1  0
 31 32  2  0
 11 33  2  0
 33 34  1  0
 34 35  2  0
 35  2  1  0
  9  4  1  0
 35 10  1  0
 32 17  1  0
 30 24  1  0
  1 36  1  0
  1 37  1  0
  1 38  1  0
  3 39  1  0
  5 40  1  0
  6 41  1  0
  7 42  1  0
  8 43  1  0
 13 44  1  0
 13 45  1  0
 16 46  1  0
 18 47  1  0
 19 48  1  0
 25 49  1  0
 25 50  1  0
 26 51  1  0
 26 52  1  0
 27 53  1  0
 28 54  1  0
 28 55  1  0
 28 56  1  0
 29 57  1  0
 29 58  1  0
 30 59  1  0
 30 60  1  0
 31 61  1  0
 32 62  1  0
M  END
$$$$
