
     RDKit          3D

 44 47  0  0  0  0  0  0  0  0999 V2000
    7.9970   -2.0291    1.0408 C   0  0  0  0  0  0  0  0  0  0  0  0
    6.5920   -1.4547    1.0696 C   0  0  0  0  0  0  0  0  0  0  0  0
    6.3522   -0.8186   -0.1833 O   0  0  0  0  0  0  0  0  0  0  0  0
    5.1393   -0.2128   -0.3787 C   0  0  0  0  0  0  0  0  0  0  0  0
    4.1012   -0.1967    0.5594 C   0  0  0  0  0  0  0  0  0  0  0  0
    2.8907    0.4451    0.2696 C   0  0  0  0  0  0  0  0  0  0  0  0
    2.7049    1.0717   -0.9681 C   0  0  0  0  0  0  0  0  0  0  0  0
    1.4349    1.7705   -1.3096 C   0  0  0  0  0  0  0  0  0  0  0  0
    1.5030    2.7913   -1.9820 O   0  0  0  0  0  0  0  0  0  0  0  0
    0.2884    1.1520   -0.8450 N   0  0  0  0  0  0  0  0  0  0  0  0
   -1.0420    1.6042   -0.9813 C   0  0  0  0  0  0  0  0  0  0  0  0
   -1.3953    2.8257   -1.5541 C   0  0  0  0  0  0  0  0  0  0  0  0
   -2.7372    3.2019   -1.6461 C   0  0  0  0  0  0  0  0  0  0  0  0
   -3.7374    2.3592   -1.1622 C   0  0  0  0  0  0  0  0  0  0  0  0
   -3.4104    1.1291   -0.5783 C   0  0  0  0  0  0  0  0  0  0  0  0
   -4.4749    0.2628   -0.0750 C   0  0  0  0  0  0  0  0  0  0  0  0
   -5.7827    0.4623   -0.0913 N   0  0  0  0  0  0  0  0  0  0  0  0
   -6.2831   -0.6638    0.5075 C   0  0  0  0  0  0  0  0  0  0  0  0
   -7.5918   -1.0652    0.7925 C   0  0  0  0  0  0  0  0  0  0  0  0
   -7.7490   -2.3014    1.4254 C   0  0  0  0  0  0  0  0  0  0  0  0
   -6.6207   -3.0584    1.7363 C   0  0  0  0  0  0  0  0  0  0  0  0
   -5.3364   -2.7114    1.4809 N   0  0  0  0  0  0  0  0  0  0  0  0
   -5.2469   -1.5154    0.8714 C   0  0  0  0  0  0  0  0  0  0  0  0
   -4.0797   -0.9200    0.4971 O   0  0  0  0  0  0  0  0  0  0  0  0
   -2.0553    0.7649   -0.4942 C   0  0  0  0  0  0  0  0  0  0  0  0
    3.7422    1.0784   -1.9040 C   0  0  0  0  0  0  0  0  0  0  0  0
    4.9470    0.4347   -1.6118 C   0  0  0  0  0  0  0  0  0  0  0  0
    6.1891    0.4612   -2.8161 Cl  0  0  0  0  0  0  0  0  0  0  0  0
    8.2325   -2.5310    1.9834 H   0  0  0  0  0  0  0  0  0  0  0  0
    8.7336   -1.2375    0.8677 H   0  0  0  0  0  0  0  0  0  0  0  0
    8.1029   -2.7477    0.2212 H   0  0  0  0  0  0  0  0  0  0  0  0
    6.5199   -0.7270    1.8859 H   0  0  0  0  0  0  0  0  0  0  0  0
    5.8758   -2.2694    1.2253 H   0  0  0  0  0  0  0  0  0  0  0  0
    4.2041   -0.6670    1.5325 H   0  0  0  0  0  0  0  0  0  0  0  0
    2.1167    0.4729    1.0331 H   0  0  0  0  0  0  0  0  0  0  0  0
    0.3976    0.2414   -0.4177 H   0  0  0  0  0  0  0  0  0  0  0  0
   -0.6488    3.5140   -1.9388 H   0  0  0  0  0  0  0  0  0  0  0  0
   -3.0000    4.1561   -2.0967 H   0  0  0  0  0  0  0  0  0  0  0  0
   -4.7784    2.6689   -1.2425 H   0  0  0  0  0  0  0  0  0  0  0  0
   -8.4386   -0.4419    0.5314 H   0  0  0  0  0  0  0  0  0  0  0  0
   -8.7397   -2.6701    1.6733 H   0  0  0  0  0  0  0  0  0  0  0  0
   -6.7342   -4.0226    2.2292 H   0  0  0  0  0  0  0  0  0  0  0  0
   -1.7913   -0.1895   -0.0435 H   0  0  0  0  0  0  0  0  0  0  0  0
    3.6088    1.5829   -2.8589 H   0  0  0  0  0  0  0  0  0  0  0  0
  1  2  1  0
  2  3  1  0
  3  4  1  0
  4  5  2  0
  5  6  1  0
  6  7  2  0
  7  8  1  0
  8  9  2  0
  8 10  1  0
 10 11  1  0
 11 12  2  0
 12 13  1  0
 13 14  2  0
 14 15  1  0
 15 16  1  0
 16 17  2  0
 17 18  1  0
 18 19  2  0
 19 20  1  0
 20 21  2  0
 21 22  1  0
 22 23  2  0
 23 24  1  0
 15 25  2  0
  7 26  1  0
 26 27  2  0
 27 28  1  0
 27  4  1  0
 25 11  1  0
 24 16  1  0
 23 18  1  0
  1 29  1  0
  1 30  1  0
  1 31  1  0
  2 32  1  0
  2 33  1  0
  5 34  1  0
  6 35  1  0
 10 36  1  0
 12 37  1  0
 13 38  1  0
 14 39  1  0
 19 40  1  0
 20 41  1  0
 21 42  1  0
 25 43  1  0
 26 44  1  0
M  END
$$$$
