
     RDKit          3D

 55 57  0  0  0  0  0  0  0  0999 V2000
   -9.5790    1.3852   -1.7508 C   0  0  0  0  0  0  0  0  0  0  0  0
   -9.0983    0.3536   -0.9021 O   0  0  0  0  0  0  0  0  0  0  0  0
   -7.7784    0.4015   -0.5277 C   0  0  0  0  0  0  0  0  0  0  0  0
   -6.9097    1.4541   -0.8330 C   0  0  0  0  0  0  0  0  0  0  0  0
   -5.5808    1.4194   -0.4052 C   0  0  0  0  0  0  0  0  0  0  0  0
   -5.1058    0.3322    0.3308 C   0  0  0  0  0  0  0  0  0  0  0  0
   -3.7140    0.2930    0.7896 C   0  0  0  0  0  0  0  0  0  0  0  0
   -2.6476    0.0537    0.0151 C   0  0  0  0  0  0  0  0  0  0  0  0
   -2.6142   -0.2757   -1.6678 S   0  0  0  0  0  0  0  0  0  0  0  0
   -0.8615   -0.4407   -1.6988 C   0  0  0  0  0  0  0  0  0  0  0  0
   -0.0329   -0.7578   -3.1106 S   0  0  0  0  0  0  0  0  0  0  0  0
   -0.3547   -0.2643   -0.4276 N   0  0  0  0  0  0  0  0  0  0  0  0
    1.0670   -0.2980   -0.0787 C   0  0  0  0  0  0  0  0  0  0  0  0
    1.7041    1.0928   -0.1955 C   0  0  0  0  0  0  0  0  0  0  0  0
    3.0545    1.1995    0.5109 C   0  0  0  0  0  0  0  0  0  0  0  0
    4.1611    0.3822   -0.1370 C   0  0  0  0  0  0  0  0  0  0  0  0
    3.9456   -0.3677   -1.0802 O   0  0  0  0  0  0  0  0  0  0  0  0
    5.3809    0.5997    0.4833 N   0  0  0  0  0  0  0  0  0  0  0  0
    6.6212    0.0043    0.1721 C   0  0  0  0  0  0  0  0  0  0  0  0
    6.7954   -0.9732   -0.8101 C   0  0  0  0  0  0  0  0  0  0  0  0
    8.0589   -1.5168   -1.0574 C   0  0  0  0  0  0  0  0  0  0  0  0
    9.1660   -1.0847   -0.3279 C   0  0  0  0  0  0  0  0  0  0  0  0
    9.0048   -0.1087    0.6590 C   0  0  0  0  0  0  0  0  0  0  0  0
   10.1438    0.3911    1.4655 C   0  0  0  0  0  0  0  0  0  0  0  0
   10.0786    1.2427    2.3326 O   0  0  0  0  0  0  0  0  0  0  0  0
   11.3083   -0.1960    1.1476 O   0  0  0  0  0  0  0  0  0  0  0  0
    7.7336    0.4290    0.9078 C   0  0  0  0  0  0  0  0  0  0  0  0
   -1.2686    0.0406    0.5669 C   0  0  0  0  0  0  0  0  0  0  0  0
   -1.0045    0.2902    1.7352 O   0  0  0  0  0  0  0  0  0  0  0  0
   -5.9714   -0.7219    0.6457 C   0  0  0  0  0  0  0  0  0  0  0  0
   -7.3054   -0.6965    0.2198 C   0  0  0  0  0  0  0  0  0  0  0  0
   -8.2217   -1.6858    0.4802 O   0  0  0  0  0  0  0  0  0  0  0  0
   -7.7721   -2.8375    1.1782 C   0  0  0  0  0  0  0  0  0  0  0  0
   -9.5560    2.3544   -1.2439 H   0  0  0  0  0  0  0  0  0  0  0  0
  -10.6239    1.1614   -1.9904 H   0  0  0  0  0  0  0  0  0  0  0  0
   -9.0210    1.4172   -2.6932 H   0  0  0  0  0  0  0  0  0  0  0  0
   -7.2360    2.3193   -1.3991 H   0  0  0  0  0  0  0  0  0  0  0  0
   -4.9229    2.2498   -0.6516 H   0  0  0  0  0  0  0  0  0  0  0  0
   -3.5828    0.4685    1.8566 H   0  0  0  0  0  0  0  0  0  0  0  0
    1.5787   -1.0234   -0.7171 H   0  0  0  0  0  0  0  0  0  0  0  0
    1.1579   -0.6606    0.9522 H   0  0  0  0  0  0  0  0  0  0  0  0
    1.8075    1.3659   -1.2530 H   0  0  0  0  0  0  0  0  0  0  0  0
    1.0336    1.8386    0.2508 H   0  0  0  0  0  0  0  0  0  0  0  0
    3.3666    2.2509    0.5024 H   0  0  0  0  0  0  0  0  0  0  0  0
    2.9570    0.8870    1.5574 H   0  0  0  0  0  0  0  0  0  0  0  0
    5.3941    1.2829    1.2310 H   0  0  0  0  0  0  0  0  0  0  0  0
    5.9641   -1.3438   -1.4027 H   0  0  0  0  0  0  0  0  0  0  0  0
    8.1764   -2.2783   -1.8251 H   0  0  0  0  0  0  0  0  0  0  0  0
   10.1429   -1.5169   -0.5341 H   0  0  0  0  0  0  0  0  0  0  0  0
   11.9595    0.2263    1.7462 H   0  0  0  0  0  0  0  0  0  0  0  0
    7.6271    1.1895    1.6794 H   0  0  0  0  0  0  0  0  0  0  0  0
   -5.5831   -1.5551    1.2222 H   0  0  0  0  0  0  0  0  0  0  0  0
   -8.6196   -3.5236    1.2719 H   0  0  0  0  0  0  0  0  0  0  0  0
   -6.9850   -3.3560    0.6208 H   0  0  0  0  0  0  0  0  0  0  0  0
   -7.4383   -2.5815    2.1895 H   0  0  0  0  0  0  0  0  0  0  0  0
  1  2  1  0
  2  3  1  0
  3  4  2  0
  4  5  1  0
  5  6  2  0
  6  7  1  0
  7  8  2  3
  8  9  1  0
  9 10  1  0
 10 11  2  0
 10 12  1  0
 12 13  1  0
 13 14  1  0
 14 15  1  0
 15 16  1  0
 16 17  2  0
 16 18  1  0
 18 19  1  0
 19 20  2  0
 20 21  1  0
 21 22  2  0
 22 23  1  0
 23 24  1  0
 24 25  2  0
 24 26  1  0
 23 27  2  0
 12 28  1  0
 28 29  2  0
  6 30  1  0
 30 31  2  0
 31 32  1  0
 32 33  1  0
 31  3  1  0
 28  8  1  0
 27 19  1  0
  1 34  1  0
  1 35  1  0
  1 36  1  0
  4 37  1  0
  5 38  1  0
  7 39  1  0
 13 40  1  0
 13 41  1  0
 14 42  1  0
 14 43  1  0
 15 44  1  0
 15 45  1  0
 18 46  1  0
 20 47  1  0
 21 48  1  0
 22 49  1  0
 26 50  1  0
 27 51  1  0
 30 52  1  0
 33 53  1  0
 33 54  1  0
 33 55  1  0
M  END
$$$$
