
     RDKit          3D

 33 35  0  0  0  0  0  0  0  0999 V2000
    1.4704    2.1578   -0.7891 O   0  0  0  0  0  0  0  0  0  0  0  0
    1.6498    1.1113   -0.1777 C   0  0  0  0  0  0  0  0  0  0  0  0
    0.7165    0.1544    0.1637 N   0  0  0  0  0  0  0  0  0  0  0  0
   -0.6516    0.1807   -0.0660 C   0  0  0  0  0  0  0  0  0  0  0  0
   -1.3910    1.5093   -0.8648 S   0  0  0  0  0  0  0  0  0  0  0  0
   -2.8919    0.8027   -0.7263 C   0  0  0  0  0  0  0  0  0  0  0  0
   -2.8761   -0.4089   -0.0983 C   0  0  0  0  0  0  0  0  0  0  0  0
   -1.5692   -0.8088    0.2999 C   0  0  0  0  0  0  0  0  0  0  0  0
   -1.2569   -2.0546    0.9801 C   0  0  0  0  0  0  0  0  0  0  0  0
   -2.0700   -2.9053    1.3130 O   0  0  0  0  0  0  0  0  0  0  0  0
    0.0580   -2.2572    1.2458 O   0  0  0  0  0  0  0  0  0  0  0  0
   -4.2448   -0.9812   -0.0119 C   0  0  0  0  0  0  0  0  0  0  0  0
   -5.1407    0.2426   -0.3833 C   0  0  0  0  0  0  0  0  0  0  0  0
   -4.2353    1.2467   -1.1606 C   0  0  0  0  0  0  0  0  0  0  0  0
    3.0528    0.7758    0.1896 C   0  0  0  0  0  0  0  0  0  0  0  0
    4.0286    1.0020   -0.7964 C   0  0  0  0  0  0  0  0  0  0  0  0
    5.3708    0.7114   -0.5484 C   0  0  0  0  0  0  0  0  0  0  0  0
    5.7523    0.2012    0.6895 C   0  0  0  0  0  0  0  0  0  0  0  0
    4.7935   -0.0098    1.6820 C   0  0  0  0  0  0  0  0  0  0  0  0
    3.4447    0.2802    1.4399 C   0  0  0  0  0  0  0  0  0  0  0  0
    2.3449    0.0340    2.7497 Cl  0  0  0  0  0  0  0  0  0  0  0  0
    1.0376   -0.6736    0.6611 H   0  0  0  0  0  0  0  0  0  0  0  0
    0.0403   -3.1253    1.7034 H   0  0  0  0  0  0  0  0  0  0  0  0
   -4.3706   -1.7847   -0.7451 H   0  0  0  0  0  0  0  0  0  0  0  0
   -4.4872   -1.3566    0.9860 H   0  0  0  0  0  0  0  0  0  0  0  0
   -5.4906    0.7207    0.5414 H   0  0  0  0  0  0  0  0  0  0  0  0
   -6.0261   -0.0493   -0.9565 H   0  0  0  0  0  0  0  0  0  0  0  0
   -4.3583    1.1176   -2.2408 H   0  0  0  0  0  0  0  0  0  0  0  0
   -4.4620    2.2801   -0.8849 H   0  0  0  0  0  0  0  0  0  0  0  0
    3.7386    1.4089   -1.7646 H   0  0  0  0  0  0  0  0  0  0  0  0
    6.1164    0.8899   -1.3201 H   0  0  0  0  0  0  0  0  0  0  0  0
    6.7986   -0.0209    0.8873 H   0  0  0  0  0  0  0  0  0  0  0  0
    5.1087   -0.3911    2.6510 H   0  0  0  0  0  0  0  0  0  0  0  0
  1  2  2  0
  2  3  1  0
  3  4  1  0
  4  5  1  0
  5  6  1  0
  6  7  2  0
  7  8  1  0
  8  9  1  0
  9 10  2  0
  9 11  1  0
  7 12  1  0
 12 13  1  0
 13 14  1  0
  2 15  1  0
 15 16  2  0
 16 17  1  0
 17 18  2  0
 18 19  1  0
 19 20  2  0
 20 21  1  0
  8  4  2  0
 20 15  1  0
 14  6  1  0
  3 22  1  0
 11 23  1  0
 12 24  1  0
 12 25  1  0
 13 26  1  0
 13 27  1  0
 14 28  1  0
 14 29  1  0
 16 30  1  0
 17 31  1  0
 18 32  1  0
 19 33  1  0
M  END
$$$$
