
     RDKit          3D

 41 44  0  0  0  0  0  0  0  0999 V2000
   -2.0983   -1.5218    1.3373 O   0  0  0  0  0  0  0  0  0  0  0  0
   -1.8272   -0.3334    1.3892 C   0  0  0  0  0  0  0  0  0  0  0  0
   -2.6954    0.5428    1.9425 O   0  0  0  0  0  0  0  0  0  0  0  0
   -0.5529    0.3214    0.8884 C   0  0  0  0  0  0  0  0  0  0  0  0
    0.3792    0.5388    2.0868 C   0  0  0  0  0  0  0  0  0  0  0  0
    1.8133    0.6815    1.6794 C   0  0  0  0  0  0  0  0  0  0  0  0
    2.4415    1.8483    1.2919 C   0  0  0  0  0  0  0  0  0  0  0  0
    3.7368    1.5523    0.9662 N   0  0  0  0  0  0  0  0  0  0  0  0
    3.9797    0.2116    1.1512 C   0  0  0  0  0  0  0  0  0  0  0  0
    5.1515   -0.5280    0.9506 C   0  0  0  0  0  0  0  0  0  0  0  0
    5.1054   -1.8997    1.2149 C   0  0  0  0  0  0  0  0  0  0  0  0
    3.9328   -2.5049    1.6596 C   0  0  0  0  0  0  0  0  0  0  0  0
    2.7694   -1.7507    1.8532 C   0  0  0  0  0  0  0  0  0  0  0  0
    2.7896   -0.3637    1.5972 C   0  0  0  0  0  0  0  0  0  0  0  0
   -0.8854    1.6225    0.2491 N   0  0  0  0  0  0  0  0  0  0  0  0
   -0.8604    1.7373   -1.4194 S   0  0  0  0  0  6  0  0  0  0  0  0
    0.4178    1.2300   -1.8689 O   0  0  0  0  0  0  0  0  0  0  0  0
   -1.3000    3.0663   -1.7761 O   0  0  0  0  0  0  0  0  0  0  0  0
   -2.0903    0.6058   -1.9529 C   0  0  0  0  0  0  0  0  0  0  0  0
   -1.7594   -0.4785   -2.7947 C   0  0  0  0  0  0  0  0  0  0  0  0
   -2.7169   -1.4111   -3.2561 C   0  0  0  0  0  0  0  0  0  0  0  0
   -4.0796   -1.3378   -2.9207 C   0  0  0  0  0  0  0  0  0  0  0  0
   -4.4623   -0.2657   -2.0789 C   0  0  0  0  0  0  0  0  0  0  0  0
   -5.7069   -0.0213   -1.6431 N   0  0  0  0  0  0  0  0  0  0  0  0
   -5.6225    1.3493   -0.7137 S   0  0  0  0  0  0  0  0  0  0  0  0
   -3.9935    1.6584   -0.7703 N   0  0  0  0  0  0  0  0  0  0  0  0
   -3.4460    0.7334   -1.5769 C   0  0  0  0  0  0  0  0  0  0  0  0
   -3.4669   -0.0042    2.2044 H   0  0  0  0  0  0  0  0  0  0  0  0
   -0.0945   -0.3599    0.1625 H   0  0  0  0  0  0  0  0  0  0  0  0
    0.2977   -0.3028    2.7873 H   0  0  0  0  0  0  0  0  0  0  0  0
    0.0741    1.4285    2.6541 H   0  0  0  0  0  0  0  0  0  0  0  0
    2.0674    2.8593    1.1956 H   0  0  0  0  0  0  0  0  0  0  0  0
    4.4174    2.2171    0.6265 H   0  0  0  0  0  0  0  0  0  0  0  0
    6.0650   -0.0594    0.5999 H   0  0  0  0  0  0  0  0  0  0  0  0
    5.9989   -2.5021    1.0684 H   0  0  0  0  0  0  0  0  0  0  0  0
    3.9184   -3.5738    1.8576 H   0  0  0  0  0  0  0  0  0  0  0  0
    1.8627   -2.2375    2.1990 H   0  0  0  0  0  0  0  0  0  0  0  0
   -1.6517    2.1458    0.6840 H   0  0  0  0  0  0  0  0  0  0  0  0
   -0.7229   -0.6116   -3.1125 H   0  0  0  0  0  0  0  0  0  0  0  0
   -2.3826   -2.2232   -3.9039 H   0  0  0  0  0  0  0  0  0  0  0  0
   -4.8027   -2.0594   -3.2829 H   0  0  0  0  0  0  0  0  0  0  0  0
  1  2  2  0
  2  3  1  0
  2  4  1  0
  4  5  1  0
  5  6  1  0
  6  7  2  0
  7  8  1  0
  8  9  1  0
  9 10  2  0
 10 11  1  0
 11 12  2  0
 12 13  1  0
 13 14  2  0
  4 15  1  0
 15 16  1  0
 16 17  2  0
 16 18  2  0
 16 19  1  0
 19 20  2  0
 20 21  1  0
 21 22  2  0
 22 23  1  0
 23 24  2  0
 24 25  1  0
 25 26  1  0
 26 27  2  0
 14  6  1  0
 27 19  1  0
 14  9  1  0
 27 23  1  0
  3 28  1  0
  4 29  1  0
  5 30  1  0
  5 31  1  0
  7 32  1  0
  8 33  1  0
 10 34  1  0
 11 35  1  0
 12 36  1  0
 13 37  1  0
 15 38  1  0
 20 39  1  0
 21 40  1  0
 22 41  1  0
M  END
$$$$
