
     RDKit          3D

 59 63  0  0  0  0  0  0  0  0999 V2000
   -7.6611    0.2540   -3.1312 C   0  0  0  0  0  0  0  0  0  0  0  0
   -6.5848   -0.2723   -2.2300 C   0  0  0  0  0  0  0  0  0  0  0  0
   -5.6063   -1.1391   -2.7292 C   0  0  0  0  0  0  0  0  0  0  0  0
   -4.5814   -1.6024   -1.9019 C   0  0  0  0  0  0  0  0  0  0  0  0
   -4.5147   -1.2056   -0.5600 C   0  0  0  0  0  0  0  0  0  0  0  0
   -3.3848   -1.6817    0.3146 C   0  0  0  0  0  0  0  0  0  0  0  0
   -2.2286   -0.8335    0.1498 N   0  0  0  0  0  0  0  0  0  0  0  0
   -1.1774   -1.1806   -0.6653 C   0  0  0  0  0  0  0  0  0  0  0  0
   -1.1194   -2.2741   -1.2172 O   0  0  0  0  0  0  0  0  0  0  0  0
   -0.1726   -0.1527   -0.8310 C   0  0  0  0  0  0  0  0  0  0  0  0
   -0.2474    1.2177   -0.6369 C   0  0  0  0  0  0  0  0  0  0  0  0
    1.0152    1.7533   -0.9970 C   0  0  0  0  0  0  0  0  0  0  0  0
    1.4419    3.1532   -0.9811 C   0  0  0  0  0  0  0  0  0  0  0  0
    0.8274    4.0848   -0.1320 C   0  0  0  0  0  0  0  0  0  0  0  0
    1.2435    5.4181   -0.1225 C   0  0  0  0  0  0  0  0  0  0  0  0
    2.2752    5.8350   -0.9611 C   0  0  0  0  0  0  0  0  0  0  0  0
    2.8947    4.9207   -1.8095 C   0  0  0  0  0  0  0  0  0  0  0  0
    2.4807    3.5878   -1.8179 C   0  0  0  0  0  0  0  0  0  0  0  0
    1.8347    0.7718   -1.3954 N   0  0  0  0  0  0  0  0  0  0  0  0
    1.1156   -0.3623   -1.2600 N   0  0  0  0  0  0  0  0  0  0  0  0
    1.7817   -1.6174   -1.5577 C   0  0  0  0  0  0  0  0  0  0  0  0
    2.4275   -2.2860   -0.3499 C   0  0  0  0  0  0  0  0  0  0  0  0
    3.4513   -1.4654    0.4019 C   0  0  0  0  0  0  0  0  0  0  0  0
    3.2517   -2.0792    1.7471 C   0  0  0  0  0  0  0  0  0  0  0  0
    4.2379   -1.9301    2.8337 C   0  0  0  0  0  0  0  0  0  0  0  0
    4.0916   -2.6557    4.0189 C   0  0  0  0  0  0  0  0  0  0  0  0
    5.0330   -2.5090    5.0354 C   0  0  0  0  0  0  0  0  0  0  0  0
    6.0897   -1.6364    4.8304 C   0  0  0  0  0  0  0  0  0  0  0  0
    6.2597   -0.9155    3.6994 N   0  0  0  0  0  0  0  0  0  0  0  0
    5.3277   -1.0758    2.7269 C   0  0  0  0  0  0  0  0  0  0  0  0
    2.1377   -2.7260    1.8839 N   0  0  0  0  0  0  0  0  0  0  0  0
    1.4579   -2.6426    0.6448 O   0  0  0  0  0  0  0  0  0  0  0  0
   -5.4836   -0.3221   -0.0664 C   0  0  0  0  0  0  0  0  0  0  0  0
   -6.5088    0.1415   -0.8952 C   0  0  0  0  0  0  0  0  0  0  0  0
   -7.9439   -0.4953   -3.8781 H   0  0  0  0  0  0  0  0  0  0  0  0
   -8.5631    0.5011   -2.5626 H   0  0  0  0  0  0  0  0  0  0  0  0
   -7.3120    1.1534   -3.6450 H   0  0  0  0  0  0  0  0  0  0  0  0
   -5.6321   -1.4582   -3.7685 H   0  0  0  0  0  0  0  0  0  0  0  0
   -3.8245   -2.2714   -2.3102 H   0  0  0  0  0  0  0  0  0  0  0  0
   -3.1411   -2.7258    0.0898 H   0  0  0  0  0  0  0  0  0  0  0  0
   -3.6759   -1.6391    1.3700 H   0  0  0  0  0  0  0  0  0  0  0  0
   -2.2695    0.0917    0.5401 H   0  0  0  0  0  0  0  0  0  0  0  0
   -1.1161    1.7757   -0.3193 H   0  0  0  0  0  0  0  0  0  0  0  0
    0.0325    3.7845    0.5446 H   0  0  0  0  0  0  0  0  0  0  0  0
    0.7638    6.1296    0.5445 H   0  0  0  0  0  0  0  0  0  0  0  0
    2.6004    6.8710   -0.9518 H   0  0  0  0  0  0  0  0  0  0  0  0
    3.6995    5.2420   -2.4648 H   0  0  0  0  0  0  0  0  0  0  0  0
    2.9728    2.8846   -2.4870 H   0  0  0  0  0  0  0  0  0  0  0  0
    1.0551   -2.2827   -2.0295 H   0  0  0  0  0  0  0  0  0  0  0  0
    2.5447   -1.4039   -2.3168 H   0  0  0  0  0  0  0  0  0  0  0  0
    2.8879   -3.2236   -0.6867 H   0  0  0  0  0  0  0  0  0  0  0  0
    4.4578   -1.6008    0.0048 H   0  0  0  0  0  0  0  0  0  0  0  0
    3.2089   -0.4036    0.4790 H   0  0  0  0  0  0  0  0  0  0  0  0
    3.2515   -3.3328    4.1548 H   0  0  0  0  0  0  0  0  0  0  0  0
    4.9427   -3.0624    5.9646 H   0  0  0  0  0  0  0  0  0  0  0  0
    6.8480   -1.4870    5.5947 H   0  0  0  0  0  0  0  0  0  0  0  0
    5.5019   -0.4641    1.8463 H   0  0  0  0  0  0  0  0  0  0  0  0
   -5.4466    0.0140    0.9670 H   0  0  0  0  0  0  0  0  0  0  0  0
   -7.2487    0.8306   -0.4916 H   0  0  0  0  0  0  0  0  0  0  0  0
  1  2  1  0
  2  3  2  0
  3  4  1  0
  4  5  2  0
  5  6  1  0
  6  7  1  0
  7  8  1  0
  8  9  2  0
  8 10  1  0
 10 11  2  0
 11 12  1  0
 12 13  1  0
 13 14  2  0
 14 15  1  0
 15 16  2  0
 16 17  1  0
 17 18  2  0
 12 19  2  0
 19 20  1  0
 20 21  1  0
 21 22  1  0
 22 23  1  0
 23 24  1  0
 24 25  1  0
 25 26  2  0
 26 27  1  0
 27 28  2  0
 28 29  1  0
 29 30  2  0
 24 31  2  0
 31 32  1  0
  5 33  1  0
 33 34  2  0
 34  2  1  0
 20 10  1  0
 32 22  1  0
 18 13  1  0
 30 25  1  0
  1 35  1  0
  1 36  1  0
  1 37  1  0
  3 38  1  0
  4 39  1  0
  6 40  1  0
  6 41  1  0
  7 42  1  0
 11 43  1  0
 14 44  1  0
 15 45  1  0
 16 46  1  0
 17 47  1  0
 18 48  1  0
 21 49  1  0
 21 50  1  0
 22 51  1  0
 23 52  1  0
 23 53  1  0
 26 54  1  0
 27 55  1  0
 28 56  1  0
 30 57  1  0
 33 58  1  0
 34 59  1  0
M  END
$$$$
