
     RDKit          3D

 50 52  0  0  0  0  0  0  0  0999 V2000
    2.0474   -0.9973   -1.7885 O   0  0  0  0  0  0  0  0  0  0  0  0
    2.0502    0.4379   -1.7622 C   0  0  0  0  0  0  0  0  0  0  0  0
    3.0925    0.9412   -0.7455 C   0  0  0  0  0  0  0  0  0  0  0  0
    4.4330    0.8943   -1.2498 O   0  0  0  0  0  0  0  0  0  0  0  0
    4.9178   -0.4326   -1.4643 C   0  0  0  0  0  0  0  0  0  0  0  0
    6.4114   -0.3410   -1.5497 C   0  0  0  0  0  0  0  0  0  0  0  0
    7.1829    0.5889   -2.2215 C   0  0  0  0  0  0  0  0  0  0  0  0
    8.5788    0.3409   -2.0866 C   0  0  0  0  0  0  0  0  0  0  0  0
    8.8303   -0.7746   -1.3204 C   0  0  0  0  0  0  0  0  0  0  0  0
    7.3902   -1.5144   -0.7711 S   0  0  0  0  0  0  0  0  0  0  0  0
    0.6311    0.9568   -1.4333 C   0  0  0  0  0  0  0  0  0  0  0  0
    0.1121    0.4109   -0.1602 N   0  0  0  0  0  0  0  0  0  0  0  0
   -0.6272    1.4551    0.5890 C   0  0  0  0  0  0  0  0  0  0  0  0
   -1.5938    0.9006    1.6609 C   0  0  0  0  0  0  0  0  0  0  0  0
   -2.6278    0.0587    1.0376 N   0  0  0  0  0  0  0  0  0  0  0  0
   -3.8717   -0.1124    1.6195 C   0  0  0  0  0  0  0  0  0  0  0  0
   -4.0897    0.1258    2.9859 C   0  0  0  0  0  0  0  0  0  0  0  0
   -5.3450   -0.0432    3.5812 C   0  0  0  0  0  0  0  0  0  0  0  0
   -6.4282   -0.4610    2.8174 C   0  0  0  0  0  0  0  0  0  0  0  0
   -6.2584   -0.7191    1.4545 C   0  0  0  0  0  0  0  0  0  0  0  0
   -7.4215   -1.1484    0.5979 C   0  0  0  0  0  0  0  0  0  0  0  0
   -7.0682   -2.0354   -0.3751 F   0  0  0  0  0  0  0  0  0  0  0  0
   -8.4177   -1.7535    1.3043 F   0  0  0  0  0  0  0  0  0  0  0  0
   -8.0054   -0.1010   -0.0476 F   0  0  0  0  0  0  0  0  0  0  0  0
   -4.9863   -0.5345    0.8761 C   0  0  0  0  0  0  0  0  0  0  0  0
   -2.2757   -0.5624   -0.2490 C   0  0  0  0  0  0  0  0  0  0  0  0
   -0.7472   -0.7850   -0.3615 C   0  0  0  0  0  0  0  0  0  0  0  0
    1.7236   -1.2671   -0.9083 H   0  0  0  0  0  0  0  0  0  0  0  0
    2.3306    0.7713   -2.7675 H   0  0  0  0  0  0  0  0  0  0  0  0
    3.0477    0.3791    0.1947 H   0  0  0  0  0  0  0  0  0  0  0  0
    2.9033    1.9946   -0.5135 H   0  0  0  0  0  0  0  0  0  0  0  0
    4.5277   -0.8174   -2.4123 H   0  0  0  0  0  0  0  0  0  0  0  0
    4.6086   -1.0889   -0.6427 H   0  0  0  0  0  0  0  0  0  0  0  0
    6.7557    1.4147   -2.7781 H   0  0  0  0  0  0  0  0  0  0  0  0
    9.3574    0.9502   -2.5282 H   0  0  0  0  0  0  0  0  0  0  0  0
    9.7912   -1.1934   -1.0553 H   0  0  0  0  0  0  0  0  0  0  0  0
    0.6897    2.0527   -1.3945 H   0  0  0  0  0  0  0  0  0  0  0  0
   -0.0538    0.7190   -2.2573 H   0  0  0  0  0  0  0  0  0  0  0  0
   -1.2178    2.0717   -0.1033 H   0  0  0  0  0  0  0  0  0  0  0  0
    0.1006    2.1160    1.0741 H   0  0  0  0  0  0  0  0  0  0  0  0
   -2.0457    1.7615    2.1685 H   0  0  0  0  0  0  0  0  0  0  0  0
   -1.0387    0.3163    2.4046 H   0  0  0  0  0  0  0  0  0  0  0  0
   -3.2690    0.4302    3.6298 H   0  0  0  0  0  0  0  0  0  0  0  0
   -5.4685    0.1490    4.6441 H   0  0  0  0  0  0  0  0  0  0  0  0
   -7.4016   -0.5871    3.2881 H   0  0  0  0  0  0  0  0  0  0  0  0
   -4.8884   -0.7107   -0.1935 H   0  0  0  0  0  0  0  0  0  0  0  0
   -2.7539   -1.5440   -0.3512 H   0  0  0  0  0  0  0  0  0  0  0  0
   -2.6217    0.0746   -1.0719 H   0  0  0  0  0  0  0  0  0  0  0  0
   -0.5321   -1.2841   -1.3138 H   0  0  0  0  0  0  0  0  0  0  0  0
   -0.4585   -1.5038    0.4171 H   0  0  0  0  0  0  0  0  0  0  0  0
  1  2  1  0
  2  3  1  0
  3  4  1  0
  4  5  1  0
  5  6  1  0
  6  7  2  0
  7  8  1  0
  8  9  2  0
  9 10  1  0
  2 11  1  0
 11 12  1  0
 12 13  1  0
 13 14  1  0
 14 15  1  0
 15 16  1  0
 16 17  2  0
 17 18  1  0
 18 19  2  0
 19 20  1  0
 20 21  1  0
 21 22  1  0
 21 23  1  0
 21 24  1  0
 20 25  2  0
 15 26  1  0
 26 27  1  0
 10  6  1  0
 27 12  1  0
 25 16  1  0
  1 28  1  0
  2 29  1  0
  3 30  1  0
  3 31  1  0
  5 32  1  0
  5 33  1  0
  7 34  1  0
  8 35  1  0
  9 36  1  0
 11 37  1  0
 11 38  1  0
 13 39  1  0
 13 40  1  0
 14 41  1  0
 14 42  1  0
 17 43  1  0
 18 44  1  0
 19 45  1  0
 25 46  1  0
 26 47  1  0
 26 48  1  0
 27 49  1  0
 27 50  1  0
M  END
$$$$
