
     RDKit          3D

 52 54  0  0  0  0  0  0  0  0999 V2000
    2.6935   -0.4058    2.4519 O   0  0  0  0  0  0  0  0  0  0  0  0
    2.1178   -0.5445    1.3797 C   0  0  0  0  0  0  0  0  0  0  0  0
    2.4501   -1.4027    0.3489 N   0  0  0  0  0  0  0  0  0  0  0  0
    3.5596   -2.2685    0.2763 C   0  0  0  0  0  0  0  0  0  0  0  0
    3.6591   -3.0874   -0.8565 C   0  0  0  0  0  0  0  0  0  0  0  0
    4.7315   -3.9708   -1.0068 C   0  0  0  0  0  0  0  0  0  0  0  0
    5.7159   -4.0429   -0.0253 C   0  0  0  0  0  0  0  0  0  0  0  0
    5.6267   -3.2313    1.1031 C   0  0  0  0  0  0  0  0  0  0  0  0
    4.5533   -2.3470    1.2534 C   0  0  0  0  0  0  0  0  0  0  0  0
    0.8686    0.2410    1.0959 C   0  0  0  0  0  0  0  0  0  0  0  0
    0.7878    0.9657   -0.0341 C   0  0  0  0  0  0  0  0  0  0  0  0
   -0.3980    1.8411   -0.3372 C   0  0  0  0  0  0  0  0  0  0  0  0
    0.0007    3.1922   -0.9101 C   0  0  0  0  0  0  0  0  0  0  0  0
    0.9181    4.0278   -0.2512 C   0  0  0  0  0  0  0  0  0  0  0  0
    1.2651    5.2685   -0.7888 C   0  0  0  0  0  0  0  0  0  0  0  0
    0.6987    5.6924   -1.9886 C   0  0  0  0  0  0  0  0  0  0  0  0
   -0.2158    4.8771   -2.6516 C   0  0  0  0  0  0  0  0  0  0  0  0
   -0.5641    3.6354   -2.1161 C   0  0  0  0  0  0  0  0  0  0  0  0
   -1.2831    2.0139    0.9041 C   0  0  0  0  0  0  0  0  0  0  0  0
   -1.3991    0.6840    1.6414 C   0  0  0  0  0  0  0  0  0  0  0  0
   -2.0842   -0.2538    0.8023 O   0  0  0  0  0  0  0  0  0  0  0  0
   -2.4324   -1.4458    1.5053 C   0  0  0  0  0  0  0  0  0  0  0  0
   -3.1450   -2.3987    0.5507 C   0  0  0  0  0  0  0  0  0  0  0  0
   -4.3678   -1.7962   -0.1524 C   0  0  0  0  0  0  0  0  0  0  0  0
   -5.4267   -1.2380    0.7898 C   0  0  0  0  0  0  0  0  0  0  0  0
   -5.8146   -2.2310    1.7275 O   0  0  0  0  0  0  0  0  0  0  0  0
   -0.1172    0.2086    2.0613 O   0  0  0  0  0  0  0  0  0  0  0  0
    1.8002   -1.4482   -0.4252 H   0  0  0  0  0  0  0  0  0  0  0  0
    2.9039   -3.0520   -1.6372 H   0  0  0  0  0  0  0  0  0  0  0  0
    4.7969   -4.6017   -1.8892 H   0  0  0  0  0  0  0  0  0  0  0  0
    6.5512   -4.7289   -0.1377 H   0  0  0  0  0  0  0  0  0  0  0  0
    6.3922   -3.2825    1.8733 H   0  0  0  0  0  0  0  0  0  0  0  0
    4.5249   -1.7312    2.1470 H   0  0  0  0  0  0  0  0  0  0  0  0
    1.6047    0.9700   -0.7519 H   0  0  0  0  0  0  0  0  0  0  0  0
   -0.9770    1.3061   -1.1034 H   0  0  0  0  0  0  0  0  0  0  0  0
    1.3721    3.7174    0.6882 H   0  0  0  0  0  0  0  0  0  0  0  0
    1.9783    5.9038   -0.2697 H   0  0  0  0  0  0  0  0  0  0  0  0
    0.9697    6.6586   -2.4062 H   0  0  0  0  0  0  0  0  0  0  0  0
   -0.6592    5.2085   -3.5870 H   0  0  0  0  0  0  0  0  0  0  0  0
   -1.2824    3.0165   -2.6496 H   0  0  0  0  0  0  0  0  0  0  0  0
   -0.8535    2.7589    1.5864 H   0  0  0  0  0  0  0  0  0  0  0  0
   -2.2735    2.3747    0.6002 H   0  0  0  0  0  0  0  0  0  0  0  0
   -1.9993    0.8474    2.5448 H   0  0  0  0  0  0  0  0  0  0  0  0
   -1.5267   -1.9328    1.8839 H   0  0  0  0  0  0  0  0  0  0  0  0
   -3.0742   -1.2014    2.3587 H   0  0  0  0  0  0  0  0  0  0  0  0
   -2.4379   -2.7094   -0.2288 H   0  0  0  0  0  0  0  0  0  0  0  0
   -3.4338   -3.3047    1.0958 H   0  0  0  0  0  0  0  0  0  0  0  0
   -4.0524   -1.0084   -0.8462 H   0  0  0  0  0  0  0  0  0  0  0  0
   -4.8205   -2.5900   -0.7597 H   0  0  0  0  0  0  0  0  0  0  0  0
   -5.0560   -0.3643    1.3344 H   0  0  0  0  0  0  0  0  0  0  0  0
   -6.3099   -0.9349    0.2183 H   0  0  0  0  0  0  0  0  0  0  0  0
   -6.5365   -1.8546    2.2600 H   0  0  0  0  0  0  0  0  0  0  0  0
  1  2  2  0
  2  3  1  0
  3  4  1  0
  4  5  2  0
  5  6  1  0
  6  7  2  0
  7  8  1  0
  8  9  2  0
  2 10  1  0
 10 11  2  0
 11 12  1  0
 12 13  1  0
 13 14  2  0
 14 15  1  0
 15 16  2  0
 16 17  1  0
 17 18  2  0
 12 19  1  0
 19 20  1  0
 20 21  1  0
 21 22  1  0
 22 23  1  0
 23 24  1  0
 24 25  1  0
 25 26  1  0
 20 27  1  0
  9  4  1  0
 27 10  1  0
 18 13  1  0
  3 28  1  0
  5 29  1  0
  6 30  1  0
  7 31  1  0
  8 32  1  0
  9 33  1  0
 11 34  1  0
 12 35  1  0
 14 36  1  0
 15 37  1  0
 16 38  1  0
 17 39  1  0
 18 40  1  0
 19 41  1  0
 19 42  1  0
 20 43  1  0
 22 44  1  0
 22 45  1  0
 23 46  1  0
 23 47  1  0
 24 48  1  0
 24 49  1  0
 25 50  1  0
 25 51  1  0
 26 52  1  0
M  END
$$$$
