
     RDKit          3D

 53 56  0  0  0  0  0  0  0  0999 V2000
    7.8680    2.0729   -0.4522 C   0  0  0  0  0  0  0  0  0  0  0  0
    7.2945    1.9559    0.9531 C   0  0  0  0  0  0  0  0  0  0  0  0
    5.7825    1.7392    0.9482 C   0  0  0  0  0  0  0  0  0  0  0  0
    5.4979    0.4905    0.3190 O   0  0  0  0  0  0  0  0  0  0  0  0
    4.1836    0.1307    0.2144 C   0  0  0  0  0  0  0  0  0  0  0  0
    3.9598   -1.0858   -0.4285 C   0  0  0  0  0  0  0  0  0  0  0  0
    2.6592   -1.5741   -0.6034 C   0  0  0  0  0  0  0  0  0  0  0  0
    1.5391   -0.8613   -0.1400 C   0  0  0  0  0  0  0  0  0  0  0  0
    0.1642   -1.3725   -0.3231 C   0  0  0  0  0  0  0  0  0  0  0  0
   -0.8447   -0.6397    0.1754 N   0  0  0  0  0  0  0  0  0  0  0  0
   -2.0986   -1.0923    0.0010 C   0  0  0  0  0  0  0  0  0  0  0  0
   -3.1677   -0.3006    0.4769 N   0  0  0  0  0  0  0  0  0  0  0  0
   -3.8816    0.4027   -0.6184 C   0  0  0  0  0  0  0  0  0  0  0  0
   -3.8413    1.9414   -0.4610 C   0  0  0  0  0  0  0  0  0  0  0  0
   -4.2959    2.4602    0.8473 N   0  0  0  0  0  0  0  0  0  0  0  0
   -5.7183    2.7891    0.8409 C   0  0  0  0  0  0  0  0  0  0  0  0
   -3.9845    1.5096    1.9416 C   0  0  0  0  0  0  0  0  0  0  0  0
   -2.8035    0.5689    1.6169 C   0  0  0  0  0  0  0  0  0  0  0  0
   -2.3590   -2.3142   -0.6507 C   0  0  0  0  0  0  0  0  0  0  0  0
   -3.6432   -2.8937   -0.8223 C   0  0  0  0  0  0  0  0  0  0  0  0
   -3.8021   -4.1075   -1.4864 C   0  0  0  0  0  0  0  0  0  0  0  0
   -2.6829   -4.7615   -1.9805 C   0  0  0  0  0  0  0  0  0  0  0  0
   -1.4162   -4.2004   -1.7969 C   0  0  0  0  0  0  0  0  0  0  0  0
   -1.2341   -2.9919   -1.1344 C   0  0  0  0  0  0  0  0  0  0  0  0
    0.0092   -2.5313   -0.9839 N   0  0  0  0  0  0  0  0  0  0  0  0
    1.7903    0.3641    0.5068 C   0  0  0  0  0  0  0  0  0  0  0  0
    3.0922    0.8561    0.6834 C   0  0  0  0  0  0  0  0  0  0  0  0
    7.7066    1.1552   -1.0264 H   0  0  0  0  0  0  0  0  0  0  0  0
    8.9463    2.2549   -0.4053 H   0  0  0  0  0  0  0  0  0  0  0  0
    7.4068    2.9041   -0.9950 H   0  0  0  0  0  0  0  0  0  0  0  0
    7.5286    2.8667    1.5152 H   0  0  0  0  0  0  0  0  0  0  0  0
    7.7841    1.1156    1.4590 H   0  0  0  0  0  0  0  0  0  0  0  0
    5.2974    2.5600    0.4062 H   0  0  0  0  0  0  0  0  0  0  0  0
    5.4295    1.7212    1.9863 H   0  0  0  0  0  0  0  0  0  0  0  0
    4.8033   -1.6632   -0.7991 H   0  0  0  0  0  0  0  0  0  0  0  0
    2.5272   -2.5285   -1.1108 H   0  0  0  0  0  0  0  0  0  0  0  0
   -3.4827    0.1463   -1.6086 H   0  0  0  0  0  0  0  0  0  0  0  0
   -4.9273    0.0724   -0.6020 H   0  0  0  0  0  0  0  0  0  0  0  0
   -4.3978    2.4101   -1.2823 H   0  0  0  0  0  0  0  0  0  0  0  0
   -2.8016    2.2690   -0.5941 H   0  0  0  0  0  0  0  0  0  0  0  0
   -5.9289    3.5665    0.0983 H   0  0  0  0  0  0  0  0  0  0  0  0
   -6.0235    3.1932    1.8126 H   0  0  0  0  0  0  0  0  0  0  0  0
   -6.3450    1.9190    0.6152 H   0  0  0  0  0  0  0  0  0  0  0  0
   -3.7533    2.0854    2.8448 H   0  0  0  0  0  0  0  0  0  0  0  0
   -4.8576    0.8828    2.1702 H   0  0  0  0  0  0  0  0  0  0  0  0
   -1.9135    1.1785    1.4121 H   0  0  0  0  0  0  0  0  0  0  0  0
   -2.5915   -0.0546    2.4939 H   0  0  0  0  0  0  0  0  0  0  0  0
   -4.5213   -2.3962   -0.4167 H   0  0  0  0  0  0  0  0  0  0  0  0
   -4.7915   -4.5399   -1.6093 H   0  0  0  0  0  0  0  0  0  0  0  0
   -2.7860   -5.7107   -2.4999 H   0  0  0  0  0  0  0  0  0  0  0  0
   -0.5431   -4.7263   -2.1777 H   0  0  0  0  0  0  0  0  0  0  0  0
    0.9579    0.9568    0.8845 H   0  0  0  0  0  0  0  0  0  0  0  0
    3.2100    1.8070    1.1916 H   0  0  0  0  0  0  0  0  0  0  0  0
  1  2  1  0
  2  3  1  0
  3  4  1  0
  4  5  1  0
  5  6  2  0
  6  7  1  0
  7  8  2  0
  8  9  1  0
  9 10  2  0
 10 11  1  0
 11 12  1  0
 12 13  1  0
 13 14  1  0
 14 15  1  0
 15 16  1  0
 15 17  1  0
 17 18  1  0
 11 19  2  0
 19 20  1  0
 20 21  2  0
 21 22  1  0
 22 23  2  0
 23 24  1  0
 24 25  2  0
  8 26  1  0
 26 27  2  0
 27  5  1  0
 25  9  1  0
 18 12  1  0
 24 19  1  0
  1 28  1  0
  1 29  1  0
  1 30  1  0
  2 31  1  0
  2 32  1  0
  3 33  1  0
  3 34  1  0
  6 35  1  0
  7 36  1  0
 13 37  1  0
 13 38  1  0
 14 39  1  0
 14 40  1  0
 16 41  1  0
 16 42  1  0
 16 43  1  0
 17 44  1  0
 17 45  1  0
 18 46  1  0
 18 47  1  0
 20 48  1  0
 21 49  1  0
 22 50  1  0
 23 51  1  0
 26 52  1  0
 27 53  1  0
M  END
$$$$
