
     RDKit          3D

 50 53  0  0  0  0  0  0  0  0999 V2000
   -6.8559    0.0198    0.9774 C   0  0  0  0  0  0  0  0  0  0  0  0
   -5.8222    0.5272    1.8118 O   0  0  0  0  0  0  0  0  0  0  0  0
   -4.6140    0.6626    1.1614 C   0  0  0  0  0  0  0  0  0  0  0  0
   -3.6664    1.2273    1.8912 N   0  0  0  0  0  0  0  0  0  0  0  0
   -2.4990    1.3371    1.2785 C   0  0  0  0  0  0  0  0  0  0  0  0
   -1.4641    1.9584    2.0223 N   0  0  0  0  0  0  0  0  0  0  0  0
   -0.1668    1.5597    1.7940 N   0  0  0  0  0  0  0  0  0  0  0  0
    0.3691    2.0907    0.7372 C   0  0  0  0  0  0  0  0  0  0  0  0
    1.7080    1.7756    0.3224 C   0  0  0  0  0  0  0  0  0  0  0  0
    2.4455    2.2046   -0.7622 C   0  0  0  0  0  0  0  0  0  0  0  0
    3.7058    1.5632   -0.6737 C   0  0  0  0  0  0  0  0  0  0  0  0
    3.6800    0.7880    0.4690 C   0  0  0  0  0  0  0  0  0  0  0  0
    4.6203   -0.0999    1.1516 C   0  0  0  0  0  0  0  0  0  0  0  0
    4.1218   -1.2104    1.8584 C   0  0  0  0  0  0  0  0  0  0  0  0
    4.9792   -2.1099    2.5062 C   0  0  0  0  0  0  0  0  0  0  0  0
    6.3596   -1.9203    2.4695 C   0  0  0  0  0  0  0  0  0  0  0  0
    6.8868   -0.8266    1.7893 C   0  0  0  0  0  0  0  0  0  0  0  0
    6.0140    0.0679    1.1474 C   0  0  0  0  0  0  0  0  0  0  0  0
    6.6189    1.2041    0.4913 N   0  0  0  0  0  4  0  0  0  0  0  0
    6.5363    2.2987    1.0604 O   0  0  0  0  0  0  0  0  0  0  0  0
    7.1892    0.9893   -0.5867 O   0  0  0  0  0  1  0  0  0  0  0  0
    2.4572    0.9111    1.0667 O   0  0  0  0  0  0  0  0  0  0  0  0
   -2.2687    0.9235    0.0317 N   0  0  0  0  0  0  0  0  0  0  0  0
   -3.2799    0.3599   -0.6205 C   0  0  0  0  0  0  0  0  0  0  0  0
   -3.0553   -0.0719   -1.9239 N   0  0  0  0  0  0  0  0  0  0  0  0
   -4.0927   -0.8830   -2.5784 C   0  0  0  0  0  0  0  0  0  0  0  0
   -3.6222   -2.3417   -2.6946 C   0  0  0  0  0  0  0  0  0  0  0  0
   -2.4143   -2.4969   -3.4604 O   0  0  0  0  0  0  0  0  0  0  0  0
   -1.5948   -1.3155   -3.4830 C   0  0  0  0  0  0  0  0  0  0  0  0
   -1.6685   -0.5056   -2.1786 C   0  0  0  0  0  0  0  0  0  0  0  0
   -4.4841    0.2210   -0.0845 N   0  0  0  0  0  0  0  0  0  0  0  0
   -6.6237   -0.9906    0.6247 H   0  0  0  0  0  0  0  0  0  0  0  0
   -7.0548    0.6941    0.1373 H   0  0  0  0  0  0  0  0  0  0  0  0
   -7.7687   -0.0436    1.5773 H   0  0  0  0  0  0  0  0  0  0  0  0
   -1.7745    1.8691    2.9903 H   0  0  0  0  0  0  0  0  0  0  0  0
   -0.1880    2.8112    0.1104 H   0  0  0  0  0  0  0  0  0  0  0  0
    2.1134    2.8920   -1.5286 H   0  0  0  0  0  0  0  0  0  0  0  0
    4.5278    1.6621   -1.3717 H   0  0  0  0  0  0  0  0  0  0  0  0
    3.0471   -1.3927    1.9034 H   0  0  0  0  0  0  0  0  0  0  0  0
    4.5615   -2.9607    3.0395 H   0  0  0  0  0  0  0  0  0  0  0  0
    7.0177   -2.6234    2.9738 H   0  0  0  0  0  0  0  0  0  0  0  0
    7.9640   -0.6707    1.7658 H   0  0  0  0  0  0  0  0  0  0  0  0
   -5.0704   -0.8408   -2.0869 H   0  0  0  0  0  0  0  0  0  0  0  0
   -4.2388   -0.4753   -3.5861 H   0  0  0  0  0  0  0  0  0  0  0  0
   -3.4432   -2.7671   -1.7001 H   0  0  0  0  0  0  0  0  0  0  0  0
   -4.3933   -2.9505   -3.1781 H   0  0  0  0  0  0  0  0  0  0  0  0
   -0.5656   -1.6343   -3.6735 H   0  0  0  0  0  0  0  0  0  0  0  0
   -1.9105   -0.7044   -4.3350 H   0  0  0  0  0  0  0  0  0  0  0  0
   -1.0071    0.3651   -2.2543 H   0  0  0  0  0  0  0  0  0  0  0  0
   -1.3159   -1.1477   -1.3605 H   0  0  0  0  0  0  0  0  0  0  0  0
  1  2  1  0
  2  3  1  0
  3  4  2  0
  4  5  1  0
  5  6  1  0
  6  7  1  0
  7  8  2  3
  8  9  1  0
  9 10  2  0
 10 11  1  0
 11 12  2  0
 12 13  1  0
 13 14  2  0
 14 15  1  0
 15 16  2  0
 16 17  1  0
 17 18  2  0
 18 19  1  0
 19 20  2  0
 19 21  1  0
 12 22  1  0
  5 23  2  0
 23 24  1  0
 24 25  1  0
 25 26  1  0
 26 27  1  0
 27 28  1  0
 28 29  1  0
 29 30  1  0
 24 31  2  0
 31  3  1  0
 22  9  1  0
 30 25  1  0
 18 13  1  0
  1 32  1  0
  1 33  1  0
  1 34  1  0
  6 35  1  0
  8 36  1  0
 10 37  1  0
 11 38  1  0
 14 39  1  0
 15 40  1  0
 16 41  1  0
 17 42  1  0
 26 43  1  0
 26 44  1  0
 27 45  1  0
 27 46  1  0
 29 47  1  0
 29 48  1  0
 30 49  1  0
 30 50  1  0
M  CHG  2  19   1  21  -1
M  END
$$$$
