
     RDKit          3D

 60 64  0  0  0  0  0  0  0  0999 V2000
    1.8648   -1.8079    0.6902 C   0  0  0  0  0  0  0  0  0  0  0  0
    1.9515   -0.4019    0.0600 C   0  0  0  0  0  0  0  0  0  0  0  0
    1.4750   -0.4839   -1.4166 C   0  0  0  0  0  0  0  0  0  0  0  0
   -0.0216   -0.7320   -1.5557 C   0  0  0  0  0  0  0  0  0  0  0  0
   -0.8662    0.3453   -0.8477 C   0  0  0  0  0  0  0  0  0  0  0  0
   -0.4303    0.5098    0.6348 C   0  0  0  0  0  0  0  0  0  0  0  0
   -1.2070    1.6563    1.3425 C   0  0  0  0  0  0  0  0  0  0  0  0
   -2.5518    2.0002    0.7073 C   0  0  0  0  0  0  0  0  0  0  0  0
   -3.1814    0.7565    0.1600 C   0  0  0  0  0  0  0  0  0  0  0  0
   -4.2901    0.2266    0.7108 C   0  0  0  0  0  0  0  0  0  0  0  0
   -4.9206   -1.0568    0.2732 C   0  0  0  0  0  0  0  0  0  0  0  0
   -6.3108   -0.8169    0.1103 O   0  0  0  0  0  0  0  0  0  0  0  0
   -4.3405   -1.6000   -1.0310 C   0  0  0  0  0  0  0  0  0  0  0  0
   -2.8261   -1.3900   -1.1094 C   0  0  0  0  0  0  0  0  0  0  0  0
   -2.4253    0.1056   -0.9985 C   0  0  0  0  0  0  0  0  0  0  0  0
   -2.9356    0.8123   -2.2654 C   0  0  0  0  0  0  0  0  0  0  0  0
   -2.2416    0.8554   -3.3603 N   0  0  0  0  0  0  0  0  0  0  0  0
   -2.9825    1.5252   -4.3404 O   0  0  0  0  0  0  0  0  0  0  0  0
    1.1067    0.6495    0.8368 C   0  0  0  0  0  0  0  0  0  0  0  0
    1.3844    0.5253    2.2391 O   0  0  0  0  0  0  0  0  0  0  0  0
    1.7134    1.9788    0.3632 C   0  0  0  0  0  0  0  0  0  0  0  0
    3.2176    1.7190    0.3071 C   0  0  0  0  0  0  0  0  0  0  0  0
    3.4059    0.2030    0.0620 C   0  0  0  0  0  0  0  0  0  0  0  0
    4.4163   -0.4221    0.9868 C   0  0  0  0  0  0  0  0  0  0  0  0
    4.5898   -0.2394    2.2964 C   0  0  0  0  0  0  0  0  0  0  0  0
    5.7046   -1.0881    2.7073 C   0  0  0  0  0  0  0  0  0  0  0  0
    6.1370   -1.1705    3.8420 O   0  0  0  0  0  0  0  0  0  0  0  0
    6.1802   -1.7565    1.6227 O   0  0  0  0  0  0  0  0  0  0  0  0
    5.4126   -1.3935    0.4768 C   0  0  0  0  0  0  0  0  0  0  0  0
    2.2163   -1.8250    1.7262 H   0  0  0  0  0  0  0  0  0  0  0  0
    0.8371   -2.1827    0.7119 H   0  0  0  0  0  0  0  0  0  0  0  0
    2.4628   -2.5295    0.1229 H   0  0  0  0  0  0  0  0  0  0  0  0
    1.7221    0.4376   -1.9587 H   0  0  0  0  0  0  0  0  0  0  0  0
    2.0188   -1.2847   -1.9351 H   0  0  0  0  0  0  0  0  0  0  0  0
   -0.2481   -1.7274   -1.1622 H   0  0  0  0  0  0  0  0  0  0  0  0
   -0.2671   -0.7608   -2.6230 H   0  0  0  0  0  0  0  0  0  0  0  0
   -0.6282    1.2993   -1.3414 H   0  0  0  0  0  0  0  0  0  0  0  0
   -0.7304   -0.4134    1.1542 H   0  0  0  0  0  0  0  0  0  0  0  0
   -0.6232    2.5806    1.3841 H   0  0  0  0  0  0  0  0  0  0  0  0
   -1.3695    1.3629    2.3885 H   0  0  0  0  0  0  0  0  0  0  0  0
   -3.1904    2.4961    1.4475 H   0  0  0  0  0  0  0  0  0  0  0  0
   -2.4106    2.7243   -0.1047 H   0  0  0  0  0  0  0  0  0  0  0  0
   -4.7691    0.7196    1.5542 H   0  0  0  0  0  0  0  0  0  0  0  0
   -4.7964   -1.7930    1.0759 H   0  0  0  0  0  0  0  0  0  0  0  0
   -6.7190   -1.6592   -0.1506 H   0  0  0  0  0  0  0  0  0  0  0  0
   -4.8350   -1.1335   -1.8926 H   0  0  0  0  0  0  0  0  0  0  0  0
   -4.5715   -2.6697   -1.1109 H   0  0  0  0  0  0  0  0  0  0  0  0
   -2.3560   -1.9650   -0.3006 H   0  0  0  0  0  0  0  0  0  0  0  0
   -2.4772   -1.8156   -2.0582 H   0  0  0  0  0  0  0  0  0  0  0  0
   -3.9564    1.2385   -2.2328 H   0  0  0  0  0  0  0  0  0  0  0  0
   -2.4179    1.4329   -5.1301 H   0  0  0  0  0  0  0  0  0  0  0  0
    0.9666    1.2701    2.7043 H   0  0  0  0  0  0  0  0  0  0  0  0
    1.3488    2.2689   -0.6271 H   0  0  0  0  0  0  0  0  0  0  0  0
    1.5200    2.8098    1.0490 H   0  0  0  0  0  0  0  0  0  0  0  0
    3.6824    2.0580    1.2393 H   0  0  0  0  0  0  0  0  0  0  0  0
    3.6748    2.3063   -0.4977 H   0  0  0  0  0  0  0  0  0  0  0  0
    3.8297    0.1037   -0.9477 H   0  0  0  0  0  0  0  0  0  0  0  0
    4.0357    0.3783    2.9803 H   0  0  0  0  0  0  0  0  0  0  0  0
    6.0771   -0.9457   -0.2687 H   0  0  0  0  0  0  0  0  0  0  0  0
    4.9457   -2.2911    0.0616 H   0  0  0  0  0  0  0  0  0  0  0  0
  1  2  1  0
  2  3  1  0
  3  4  1  0
  4  5  1  0
  5  6  1  0
  6  7  1  0
  7  8  1  0
  8  9  1  0
  9 10  2  0
 10 11  1  0
 11 12  1  0
 11 13  1  0
 13 14  1  0
 14 15  1  0
 15 16  1  0
 16 17  2  3
 17 18  1  0
  6 19  1  0
 19 20  1  0
 19 21  1  0
 21 22  1  0
 22 23  1  0
 23 24  1  0
 24 25  2  0
 25 26  1  0
 26 27  2  0
 26 28  1  0
 28 29  1  0
 19  2  1  0
 29 24  1  0
 23  2  1  0
 15  5  1  0
 15  9  1  0
  1 30  1  0
  1 31  1  0
  1 32  1  0
  3 33  1  0
  3 34  1  0
  4 35  1  0
  4 36  1  0
  5 37  1  0
  6 38  1  0
  7 39  1  0
  7 40  1  0
  8 41  1  0
  8 42  1  0
 10 43  1  0
 11 44  1  0
 12 45  1  0
 13 46  1  0
 13 47  1  0
 14 48  1  0
 14 49  1  0
 16 50  1  0
 18 51  1  0
 20 52  1  0
 21 53  1  0
 21 54  1  0
 22 55  1  0
 22 56  1  0
 23 57  1  0
 25 58  1  0
 29 59  1  0
 29 60  1  0
M  END
$$$$
