
     RDKit          3D

 42 45  0  0  0  0  0  0  0  0999 V2000
   -1.3378    0.7824   -0.8631 O   0  0  0  0  0  0  0  0  0  0  0  0
   -1.7765    0.9969    0.2575 C   0  0  0  0  0  0  0  0  0  0  0  0
   -0.9655    0.9510    1.5079 C   0  0  0  0  0  0  0  0  0  0  0  0
    0.3136    0.5991    1.6979 C   0  0  0  0  0  0  0  0  0  0  0  0
    1.2212    0.1131    0.7198 C   0  0  0  0  0  0  0  0  0  0  0  0
    1.0608   -0.7613   -0.3469 C   0  0  0  0  0  0  0  0  0  0  0  0
    2.3202   -0.9314   -0.9714 C   0  0  0  0  0  0  0  0  0  0  0  0
    3.2174   -0.1808   -0.2478 C   0  0  0  0  0  0  0  0  0  0  0  0
    4.6496    0.0935   -0.3319 C   0  0  0  0  0  0  0  0  0  0  0  0
    5.1000    1.3986   -0.0529 C   0  0  0  0  0  0  0  0  0  0  0  0
    6.4540    1.7347   -0.1319 C   0  0  0  0  0  0  0  0  0  0  0  0
    7.3883    0.7695   -0.4900 C   0  0  0  0  0  0  0  0  0  0  0  0
    6.9675   -0.5309   -0.7639 C   0  0  0  0  0  0  0  0  0  0  0  0
    5.6094   -0.8715   -0.6852 C   0  0  0  0  0  0  0  0  0  0  0  0
    5.2111   -2.5269   -1.0013 Cl  0  0  0  0  0  0  0  0  0  0  0  0
    2.5589    0.4414    0.7723 O   0  0  0  0  0  0  0  0  0  0  0  0
   -1.9447    1.4808    2.8340 S   0  0  0  0  0  0  0  0  0  0  0  0
   -3.3765    1.6949    1.8370 C   0  0  0  0  0  0  0  0  0  0  0  0
   -4.8001    2.2799    2.4816 S   0  0  0  0  0  0  0  0  0  0  0  0
   -3.0883    1.3468    0.5333 N   0  0  0  0  0  0  0  0  0  0  0  0
   -4.0608    1.3728   -0.5675 C   0  0  0  0  0  0  0  0  0  0  0  0
   -4.7882    0.0337   -0.8109 C   0  0  0  0  0  0  0  0  0  0  0  0
   -3.9382   -1.1048   -1.3631 C   0  0  0  0  0  0  0  0  0  0  0  0
   -3.7190   -1.9989   -0.1683 C   0  0  0  0  0  0  0  0  0  0  0  0
   -5.0059   -1.8132    0.5997 C   0  0  0  0  0  0  0  0  0  0  0  0
   -5.3823   -0.4446    0.4102 O   0  0  0  0  0  0  0  0  0  0  0  0
    0.7444    0.7034    2.6918 H   0  0  0  0  0  0  0  0  0  0  0  0
    0.1343   -1.2293   -0.6497 H   0  0  0  0  0  0  0  0  0  0  0  0
    2.5368   -1.5309   -1.8441 H   0  0  0  0  0  0  0  0  0  0  0  0
    4.3848    2.1722    0.2242 H   0  0  0  0  0  0  0  0  0  0  0  0
    6.7739    2.7508    0.0863 H   0  0  0  0  0  0  0  0  0  0  0  0
    8.4429    1.0260   -0.5514 H   0  0  0  0  0  0  0  0  0  0  0  0
    7.7060   -1.2824   -1.0334 H   0  0  0  0  0  0  0  0  0  0  0  0
   -4.8103    2.1405   -0.3505 H   0  0  0  0  0  0  0  0  0  0  0  0
   -3.5535    1.6814   -1.4892 H   0  0  0  0  0  0  0  0  0  0  0  0
   -5.6045    0.2329   -1.5161 H   0  0  0  0  0  0  0  0  0  0  0  0
   -3.0182   -0.7884   -1.8578 H   0  0  0  0  0  0  0  0  0  0  0  0
   -4.5235   -1.6544   -2.1119 H   0  0  0  0  0  0  0  0  0  0  0  0
   -2.8720   -1.6384    0.4242 H   0  0  0  0  0  0  0  0  0  0  0  0
   -3.5287   -3.0422   -0.4335 H   0  0  0  0  0  0  0  0  0  0  0  0
   -5.8058   -2.4448    0.1983 H   0  0  0  0  0  0  0  0  0  0  0  0
   -4.8949   -2.0213    1.6673 H   0  0  0  0  0  0  0  0  0  0  0  0
  1  2  2  0
  2  3  1  0
  3  4  2  3
  4  5  1  0
  5  6  2  0
  6  7  1  0
  7  8  2  0
  8  9  1  0
  9 10  2  0
 10 11  1  0
 11 12  2  0
 12 13  1  0
 13 14  2  0
 14 15  1  0
  8 16  1  0
  3 17  1  0
 17 18  1  0
 18 19  2  0
 18 20  1  0
 20 21  1  0
 21 22  1  0
 22 23  1  0
 23 24  1  0
 24 25  1  0
 25 26  1  0
 20  2  1  0
 26 22  1  0
 16  5  1  0
 14  9  1  0
  4 27  1  0
  6 28  1  0
  7 29  1  0
 10 30  1  0
 11 31  1  0
 12 32  1  0
 13 33  1  0
 21 34  1  0
 21 35  1  0
 22 36  1  0
 23 37  1  0
 23 38  1  0
 24 39  1  0
 24 40  1  0
 25 41  1  0
 25 42  1  0
M  END
$$$$
