
     RDKit          3D

 37 39  0  0  0  0  0  0  0  0999 V2000
   -0.6480   -0.6107    0.4961 C   0  0  0  0  0  0  0  0  0  0  0  0
   -0.3062    0.7200   -0.1428 C   0  0  0  0  0  0  0  0  0  0  0  0
    0.8583    1.3049   -0.1001 N   0  0  0  0  0  0  0  0  0  0  0  0
    1.9215    0.6476    0.4593 N   0  0  0  0  0  0  0  0  0  0  0  0
    2.4217   -0.5240   -0.1081 C   0  0  0  0  0  0  0  0  0  0  0  0
    1.8701   -1.1824   -0.9837 O   0  0  0  0  0  0  0  0  0  0  0  0
    3.7509   -0.9634    0.4026 C   0  0  0  0  0  0  0  0  0  0  0  0
    4.5693   -1.7281   -0.4411 C   0  0  0  0  0  0  0  0  0  0  0  0
    5.8205   -2.1651   -0.0031 C   0  0  0  0  0  0  0  0  0  0  0  0
    6.2555   -1.8475    1.2831 C   0  0  0  0  0  0  0  0  0  0  0  0
    5.4344   -1.1010    2.1278 C   0  0  0  0  0  0  0  0  0  0  0  0
    5.9687   -0.7255    3.7202 Cl  0  0  0  0  0  0  0  0  0  0  0  0
    4.1828   -0.6585    1.6994 C   0  0  0  0  0  0  0  0  0  0  0  0
   -1.4134    1.4582   -0.8588 C   0  0  0  0  0  0  0  0  0  0  0  0
   -2.1488    0.6402   -1.8971 C   0  0  0  0  0  0  0  0  0  0  0  0
   -1.6809    0.0133   -2.8285 O   0  0  0  0  0  0  0  0  0  0  0  0
   -3.5826    0.7124   -1.6198 C   0  0  0  0  0  0  0  0  0  0  0  0
   -4.6267    0.1441   -2.3258 C   0  0  0  0  0  0  0  0  0  0  0  0
   -5.9218    0.3549   -1.8433 C   0  0  0  0  0  0  0  0  0  0  0  0
   -6.1429    1.1165   -0.6788 C   0  0  0  0  0  0  0  0  0  0  0  0
   -5.0724    1.6798    0.0223 C   0  0  0  0  0  0  0  0  0  0  0  0
   -3.8004    1.4625   -0.4741 C   0  0  0  0  0  0  0  0  0  0  0  0
   -2.5205    1.9181    0.0656 C   0  0  0  0  0  0  0  0  0  0  0  0
   -2.4150    2.5481    1.1017 O   0  0  0  0  0  0  0  0  0  0  0  0
   -1.6448   -0.5632    0.9431 H   0  0  0  0  0  0  0  0  0  0  0  0
   -0.6506   -1.3920   -0.2681 H   0  0  0  0  0  0  0  0  0  0  0  0
    0.0525   -0.8744    1.2910 H   0  0  0  0  0  0  0  0  0  0  0  0
    2.6278    1.2921    0.8049 H   0  0  0  0  0  0  0  0  0  0  0  0
    4.2315   -1.9831   -1.4450 H   0  0  0  0  0  0  0  0  0  0  0  0
    6.4519   -2.7548   -0.6638 H   0  0  0  0  0  0  0  0  0  0  0  0
    7.2295   -2.1909    1.6230 H   0  0  0  0  0  0  0  0  0  0  0  0
    3.5497   -0.1056    2.3875 H   0  0  0  0  0  0  0  0  0  0  0  0
   -1.0142    2.3472   -1.3625 H   0  0  0  0  0  0  0  0  0  0  0  0
   -4.4446   -0.4443   -3.2204 H   0  0  0  0  0  0  0  0  0  0  0  0
   -6.7709   -0.0757   -2.3718 H   0  0  0  0  0  0  0  0  0  0  0  0
   -7.1604    1.2655   -0.3209 H   0  0  0  0  0  0  0  0  0  0  0  0
   -5.2317    2.2649    0.9232 H   0  0  0  0  0  0  0  0  0  0  0  0
  1  2  1  0
  2  3  2  3
  3  4  1  0
  4  5  1  0
  5  6  2  0
  5  7  1  0
  7  8  2  0
  8  9  1  0
  9 10  2  0
 10 11  1  0
 11 12  1  0
 11 13  2  0
  2 14  1  0
 14 15  1  0
 15 16  2  0
 15 17  1  0
 17 18  2  0
 18 19  1  0
 19 20  2  0
 20 21  1  0
 21 22  2  0
 22 23  1  0
 23 24  2  0
 13  7  1  0
 23 14  1  0
 22 17  1  0
  1 25  1  0
  1 26  1  0
  1 27  1  0
  4 28  1  0
  8 29  1  0
  9 30  1  0
 10 31  1  0
 13 32  1  0
 14 33  1  0
 18 34  1  0
 19 35  1  0
 20 36  1  0
 21 37  1  0
M  END
$$$$
