
     RDKit          3D

 40 42  0  0  0  0  0  0  0  0999 V2000
    5.3557    2.4071   -0.5261 C   0  0  0  0  0  0  0  0  0  0  0  0
    5.0441    1.5362    0.6765 C   0  0  0  0  0  0  0  0  0  0  0  0
    4.0150    0.5925    0.3507 O   0  0  0  0  0  0  0  0  0  0  0  0
    2.7330    1.0295    0.5097 C   0  0  0  0  0  0  0  0  0  0  0  0
    2.4157    2.1455    0.8968 O   0  0  0  0  0  0  0  0  0  0  0  0
    1.7644   -0.0618    0.1380 C   0  0  0  0  0  0  0  0  0  0  0  0
    0.4600    0.2494    0.2090 N   0  0  0  0  0  0  0  0  0  0  0  0
   -0.4205   -0.7129   -0.1053 C   0  0  0  0  0  0  0  0  0  0  0  0
   -1.8141   -0.4276   -0.0788 N   0  0  0  0  0  0  0  0  0  0  0  0
   -2.4929    0.6888    0.4734 C   0  0  0  0  0  0  0  0  0  0  0  0
   -1.9570    1.4197    1.5455 C   0  0  0  0  0  0  0  0  0  0  0  0
   -2.6538    2.4807    2.1293 C   0  0  0  0  0  0  0  0  0  0  0  0
   -3.9203    2.8157    1.6704 C   0  0  0  0  0  0  0  0  0  0  0  0
   -4.4952    2.0797    0.6378 C   0  0  0  0  0  0  0  0  0  0  0  0
   -3.8042    1.0069    0.0439 C   0  0  0  0  0  0  0  0  0  0  0  0
   -4.4919    0.2385   -1.0531 C   0  0  0  0  0  0  0  0  0  0  0  0
   -0.0054   -2.0085   -0.4783 C   0  0  0  0  0  0  0  0  0  0  0  0
   -0.8734   -3.0887   -0.7872 C   0  0  0  0  0  0  0  0  0  0  0  0
   -0.3670   -4.3336   -1.1547 C   0  0  0  0  0  0  0  0  0  0  0  0
    1.0066   -4.5185   -1.2146 C   0  0  0  0  0  0  0  0  0  0  0  0
    1.8622   -3.4601   -0.8991 C   0  0  0  0  0  0  0  0  0  0  0  0
    1.3809   -2.2108   -0.5276 C   0  0  0  0  0  0  0  0  0  0  0  0
    2.2625   -1.2571   -0.2303 N   0  0  0  0  0  0  0  0  0  0  0  0
    5.6293    1.7891   -1.3876 H   0  0  0  0  0  0  0  0  0  0  0  0
    4.4819    2.9963   -0.8218 H   0  0  0  0  0  0  0  0  0  0  0  0
    6.1801    3.0912   -0.3064 H   0  0  0  0  0  0  0  0  0  0  0  0
    5.9325    0.9584    0.9518 H   0  0  0  0  0  0  0  0  0  0  0  0
    4.7708    2.1400    1.5495 H   0  0  0  0  0  0  0  0  0  0  0  0
   -2.2074   -0.6864   -0.9761 H   0  0  0  0  0  0  0  0  0  0  0  0
   -0.9785    1.1752    1.9496 H   0  0  0  0  0  0  0  0  0  0  0  0
   -2.2007    3.0384    2.9445 H   0  0  0  0  0  0  0  0  0  0  0  0
   -4.4633    3.6413    2.1220 H   0  0  0  0  0  0  0  0  0  0  0  0
   -5.4947    2.3450    0.3003 H   0  0  0  0  0  0  0  0  0  0  0  0
   -5.5246    0.5743   -1.1964 H   0  0  0  0  0  0  0  0  0  0  0  0
   -3.9631    0.3785   -2.0013 H   0  0  0  0  0  0  0  0  0  0  0  0
   -4.5297   -0.8277   -0.8068 H   0  0  0  0  0  0  0  0  0  0  0  0
   -1.9526   -2.9672   -0.7235 H   0  0  0  0  0  0  0  0  0  0  0  0
   -1.0416   -5.1544   -1.3854 H   0  0  0  0  0  0  0  0  0  0  0  0
    1.4189   -5.4839   -1.4975 H   0  0  0  0  0  0  0  0  0  0  0  0
    2.9384   -3.6184   -0.9408 H   0  0  0  0  0  0  0  0  0  0  0  0
  1  2  1  0
  2  3  1  0
  3  4  1  0
  4  5  2  0
  4  6  1  0
  6  7  2  0
  7  8  1  0
  8  9  1  0
  9 10  1  0
 10 11  2  0
 11 12  1  0
 12 13  2  0
 13 14  1  0
 14 15  2  0
 15 16  1  0
  8 17  2  0
 17 18  1  0
 18 19  2  0
 19 20  1  0
 20 21  2  0
 21 22  1  0
 22 23  2  0
 23  6  1  0
 15 10  1  0
 22 17  1  0
  1 24  1  0
  1 25  1  0
  1 26  1  0
  2 27  1  0
  2 28  1  0
  9 29  1  0
 11 30  1  0
 12 31  1  0
 13 32  1  0
 14 33  1  0
 16 34  1  0
 16 35  1  0
 16 36  1  0
 18 37  1  0
 19 38  1  0
 20 39  1  0
 21 40  1  0
M  END
$$$$
