
     RDKit          3D

 45 47  0  0  0  0  0  0  0  0999 V2000
    4.8893   -1.9131   -4.0710 C   0  0  0  0  0  0  0  0  0  0  0  0
    3.9079   -1.7277   -2.9304 C   0  0  0  0  0  0  0  0  0  0  0  0
    2.6849   -1.4662   -3.2580 N   0  0  0  0  0  0  0  0  0  0  0  0
    4.4242   -1.9047   -1.5136 C   0  0  0  0  0  0  0  0  0  0  0  0
    5.6835   -1.1776   -1.3205 C   0  0  0  0  0  0  0  0  0  0  0  0
    6.6633   -0.5776   -1.1604 N   0  0  0  0  0  0  0  0  0  0  0  0
    3.4799   -1.5045   -0.4068 C   0  0  0  0  0  0  0  0  0  0  0  0
    3.0308   -2.3495    0.3747 O   0  0  0  0  0  0  0  0  0  0  0  0
    3.1226   -0.0188   -0.2672 C   0  0  0  0  0  0  0  0  0  0  0  0
    1.9134    0.2001    0.4607 O   0  0  0  0  0  0  0  0  0  0  0  0
    0.8109   -0.2825   -0.1644 C   0  0  0  0  0  0  0  0  0  0  0  0
    0.7936   -0.8065   -1.2668 O   0  0  0  0  0  0  0  0  0  0  0  0
   -0.3944    0.0225    0.6272 C   0  0  0  0  0  0  0  0  0  0  0  0
   -1.4093    0.7020   -0.0506 C   0  0  0  0  0  0  0  0  0  0  0  0
   -2.5558    1.0447    0.6439 C   0  0  0  0  0  0  0  0  0  0  0  0
   -3.6889    1.7724    0.0330 C   0  0  0  0  0  0  0  0  0  0  0  0
   -3.5124    2.6928   -1.0185 C   0  0  0  0  0  0  0  0  0  0  0  0
   -4.5976    3.3702   -1.5862 C   0  0  0  0  0  0  0  0  0  0  0  0
   -5.8867    3.1453   -1.1118 C   0  0  0  0  0  0  0  0  0  0  0  0
   -6.0835    2.2470   -0.0682 C   0  0  0  0  0  0  0  0  0  0  0  0
   -7.8310    1.9401    0.5858 Br  0  0  0  0  0  0  0  0  0  0  0  0
   -5.0024    1.5700    0.4997 C   0  0  0  0  0  0  0  0  0  0  0  0
   -2.7068    0.7173    1.9503 N   0  0  0  0  0  0  0  0  0  0  0  0
   -1.7425    0.0387    2.5950 C   0  0  0  0  0  0  0  0  0  0  0  0
   -1.9545   -0.2921    3.9269 C   0  0  0  0  0  0  0  0  0  0  0  0
   -1.0185   -1.0156    4.6684 C   0  0  0  0  0  0  0  0  0  0  0  0
    0.1609   -1.4279    4.0674 C   0  0  0  0  0  0  0  0  0  0  0  0
    0.3993   -1.1050    2.7327 C   0  0  0  0  0  0  0  0  0  0  0  0
   -0.5415   -0.3553    1.9793 C   0  0  0  0  0  0  0  0  0  0  0  0
    4.3568   -2.0292   -5.0196 H   0  0  0  0  0  0  0  0  0  0  0  0
    5.5417   -1.0387   -4.1407 H   0  0  0  0  0  0  0  0  0  0  0  0
    5.4934   -2.8075   -3.8960 H   0  0  0  0  0  0  0  0  0  0  0  0
    2.0009   -1.3950   -2.4838 H   0  0  0  0  0  0  0  0  0  0  0  0
    4.6214   -2.9787   -1.3983 H   0  0  0  0  0  0  0  0  0  0  0  0
    3.0526    0.4649   -1.2470 H   0  0  0  0  0  0  0  0  0  0  0  0
    3.9285    0.4684    0.2907 H   0  0  0  0  0  0  0  0  0  0  0  0
   -1.2946    0.9416   -1.1030 H   0  0  0  0  0  0  0  0  0  0  0  0
   -2.5190    2.9131   -1.4036 H   0  0  0  0  0  0  0  0  0  0  0  0
   -4.4330    4.0775   -2.3955 H   0  0  0  0  0  0  0  0  0  0  0  0
   -6.7251    3.6750   -1.5557 H   0  0  0  0  0  0  0  0  0  0  0  0
   -5.1781    0.8713    1.3165 H   0  0  0  0  0  0  0  0  0  0  0  0
   -2.8826    0.0186    4.4024 H   0  0  0  0  0  0  0  0  0  0  0  0
   -1.2203   -1.2598    5.7081 H   0  0  0  0  0  0  0  0  0  0  0  0
    0.8928   -2.0027    4.6296 H   0  0  0  0  0  0  0  0  0  0  0  0
    1.3258   -1.4571    2.2833 H   0  0  0  0  0  0  0  0  0  0  0  0
  1  2  1  0
  2  3  2  3
  2  4  1  0
  4  5  1  0
  5  6  3  0
  4  7  1  0
  7  8  2  0
  7  9  1  0
  9 10  1  0
 10 11  1  0
 11 12  2  0
 11 13  1  0
 13 14  2  0
 14 15  1  0
 15 16  1  0
 16 17  2  0
 17 18  1  0
 18 19  2  0
 19 20  1  0
 20 21  1  0
 20 22  2  0
 15 23  2  0
 23 24  1  0
 24 25  2  0
 25 26  1  0
 26 27  2  0
 27 28  1  0
 28 29  2  0
 29 13  1  0
 22 16  1  0
 29 24  1  0
  1 30  1  0
  1 31  1  0
  1 32  1  0
  3 33  1  0
  4 34  1  0
  9 35  1  0
  9 36  1  0
 14 37  1  0
 17 38  1  0
 18 39  1  0
 19 40  1  0
 22 41  1  0
 25 42  1  0
 26 43  1  0
 27 44  1  0
 28 45  1  0
M  END
$$$$
