
     RDKit          3D

 44 46  0  0  0  0  0  0  0  0999 V2000
    4.0846    2.3807   -0.9633 C   0  0  0  0  0  0  0  0  0  0  0  0
    2.6991    2.0675   -1.1219 O   0  0  0  0  0  0  0  0  0  0  0  0
    2.4463    0.7404   -1.3174 C   0  0  0  0  0  0  0  0  0  0  0  0
    3.3064   -0.1238   -1.4003 O   0  0  0  0  0  0  0  0  0  0  0  0
    0.9567    0.5138   -1.4252 C   0  0  0  0  0  0  0  0  0  0  0  0
    0.5061   -0.8210   -1.9897 C   0  0  0  0  0  0  0  0  0  0  0  0
    1.3887   -1.5624   -2.9654 C   0  0  0  0  0  0  0  0  0  0  0  0
   -0.6588   -1.3443   -1.7406 N   0  0  0  0  0  0  0  0  0  0  0  0
   -1.5400   -0.6821   -0.9200 C   0  0  0  0  0  0  0  0  0  0  0  0
   -1.1579    0.3173   -0.1178 C   0  0  0  0  0  0  0  0  0  0  0  0
   -2.1630    1.0071    0.7108 C   0  0  0  0  0  0  0  0  0  0  0  0
   -1.8590    2.0408    1.3039 O   0  0  0  0  0  0  0  0  0  0  0  0
   -3.4168    0.4380    0.7466 N   0  0  0  0  0  0  0  0  0  0  0  0
   -4.4210    1.0506    1.5953 C   0  0  0  0  0  0  0  0  0  0  0  0
   -3.8336   -0.5666   -0.1165 C   0  0  0  0  0  0  0  0  0  0  0  0
   -5.0085   -0.9382   -0.1532 O   0  0  0  0  0  0  0  0  0  0  0  0
   -2.8528   -1.1074   -0.9397 N   0  0  0  0  0  0  0  0  0  0  0  0
   -3.2287   -2.1915   -1.8433 C   0  0  0  0  0  0  0  0  0  0  0  0
    0.2661    0.7959   -0.0759 C   0  0  0  0  0  0  0  0  0  0  0  0
    0.9875    0.2453    1.1565 C   0  0  0  0  0  0  0  0  0  0  0  0
    1.2984    1.1182    2.2141 C   0  0  0  0  0  0  0  0  0  0  0  0
    1.9554    0.6549    3.3563 C   0  0  0  0  0  0  0  0  0  0  0  0
    2.3036   -0.6883    3.4564 C   0  0  0  0  0  0  0  0  0  0  0  0
    3.1138   -1.2606    4.8617 Cl  0  0  0  0  0  0  0  0  0  0  0  0
    1.9936   -1.5722    2.4268 C   0  0  0  0  0  0  0  0  0  0  0  0
    1.3342   -1.1100    1.2840 C   0  0  0  0  0  0  0  0  0  0  0  0
    4.6396    2.1291   -1.8723 H   0  0  0  0  0  0  0  0  0  0  0  0
    4.1704    3.4570   -0.7908 H   0  0  0  0  0  0  0  0  0  0  0  0
    4.4988    1.8566   -0.0962 H   0  0  0  0  0  0  0  0  0  0  0  0
    0.5934    1.2381   -2.1716 H   0  0  0  0  0  0  0  0  0  0  0  0
    0.7932   -2.2669   -3.5540 H   0  0  0  0  0  0  0  0  0  0  0  0
    1.8669   -0.8576   -3.6503 H   0  0  0  0  0  0  0  0  0  0  0  0
    2.1472   -2.1268   -2.4176 H   0  0  0  0  0  0  0  0  0  0  0  0
   -4.9903    1.7673    0.9947 H   0  0  0  0  0  0  0  0  0  0  0  0
   -5.1076    0.2924    1.9844 H   0  0  0  0  0  0  0  0  0  0  0  0
   -3.9635    1.5758    2.4387 H   0  0  0  0  0  0  0  0  0  0  0  0
   -2.6722   -3.0954   -1.5741 H   0  0  0  0  0  0  0  0  0  0  0  0
   -4.2958   -2.4236   -1.7893 H   0  0  0  0  0  0  0  0  0  0  0  0
   -2.9983   -1.9019   -2.8740 H   0  0  0  0  0  0  0  0  0  0  0  0
    0.2569    1.8922    0.0133 H   0  0  0  0  0  0  0  0  0  0  0  0
    1.0197    2.1703    2.1618 H   0  0  0  0  0  0  0  0  0  0  0  0
    2.1853    1.3458    4.1631 H   0  0  0  0  0  0  0  0  0  0  0  0
    2.2589   -2.6233    2.5064 H   0  0  0  0  0  0  0  0  0  0  0  0
    1.0968   -1.8315    0.5058 H   0  0  0  0  0  0  0  0  0  0  0  0
  1  2  1  0
  2  3  1  0
  3  4  2  0
  3  5  1  0
  5  6  1  0
  6  7  1  0
  6  8  2  0
  8  9  1  0
  9 10  2  0
 10 11  1  0
 11 12  2  0
 11 13  1  0
 13 14  1  0
 13 15  1  0
 15 16  2  0
 15 17  1  0
 17 18  1  0
 10 19  1  0
 19 20  1  0
 20 21  2  0
 21 22  1  0
 22 23  2  0
 23 24  1  0
 23 25  1  0
 25 26  2  0
 19  5  1  0
 26 20  1  0
 17  9  1  0
  1 27  1  0
  1 28  1  0
  1 29  1  0
  5 30  1  0
  7 31  1  0
  7 32  1  0
  7 33  1  0
 14 34  1  0
 14 35  1  0
 14 36  1  0
 18 37  1  0
 18 38  1  0
 18 39  1  0
 19 40  1  0
 21 41  1  0
 22 42  1  0
 25 43  1  0
 26 44  1  0
M  END
$$$$
