
     RDKit          3D

 49 52  0  0  0  0  0  0  0  0999 V2000
    8.1785    0.6351    1.0140 C   0  0  0  0  0  0  0  0  0  0  0  0
    7.3289   -0.5211    0.7324 N   0  0  0  0  0  0  0  0  0  0  0  0
    7.5683   -1.6917    1.5764 C   0  0  0  0  0  0  0  0  0  0  0  0
    6.0310   -0.2997    0.2499 C   0  0  0  0  0  0  0  0  0  0  0  0
    5.0539   -1.3109    0.2377 C   0  0  0  0  0  0  0  0  0  0  0  0
    3.7575   -1.1003   -0.2584 C   0  0  0  0  0  0  0  0  0  0  0  0
    3.3869    0.1420   -0.7649 C   0  0  0  0  0  0  0  0  0  0  0  0
    2.0599    0.3860   -1.3363 C   0  0  0  0  0  0  0  0  0  0  0  0
    0.8766    0.2564   -0.7190 C   0  0  0  0  0  0  0  0  0  0  0  0
   -0.3857    0.5096   -1.3361 C   0  0  0  0  0  0  0  0  0  0  0  0
   -1.3037    0.2825   -0.3983 C   0  0  0  0  0  0  0  0  0  0  0  0
   -2.7670    0.3889   -0.5145 C   0  0  0  0  0  0  0  0  0  0  0  0
   -3.3747    1.0804   -1.5704 C   0  0  0  0  0  0  0  0  0  0  0  0
   -4.7669    1.1799   -1.6584 C   0  0  0  0  0  0  0  0  0  0  0  0
   -5.5896    0.5972   -0.6872 C   0  0  0  0  0  0  0  0  0  0  0  0
   -5.0010   -0.1137    0.3702 C   0  0  0  0  0  0  0  0  0  0  0  0
   -3.5993   -0.1966    0.4525 C   0  0  0  0  0  0  0  0  0  0  0  0
   -5.8359   -0.7410    1.4605 C   0  0  0  0  0  0  0  0  0  0  0  0
   -7.3034   -0.9124    1.0730 C   0  0  0  0  0  0  0  0  0  0  0  0
   -7.8432    0.3695    0.4522 C   0  0  0  0  0  0  0  0  0  0  0  0
   -7.0880    0.6985   -0.8342 C   0  0  0  0  0  0  0  0  0  0  0  0
   -0.7823   -0.1193    0.8482 O   0  0  0  0  0  0  0  0  0  0  0  0
    0.5888   -0.1427    0.6906 C   0  0  0  0  0  0  0  0  0  0  0  0
    1.3802   -0.4434    1.5649 O   0  0  0  0  0  0  0  0  0  0  0  0
    4.3425    1.1552   -0.7962 C   0  0  0  0  0  0  0  0  0  0  0  0
    5.6365    0.9331   -0.2992 C   0  0  0  0  0  0  0  0  0  0  0  0
    8.3854    1.2071    0.1032 H   0  0  0  0  0  0  0  0  0  0  0  0
    9.1564    0.3236    1.3986 H   0  0  0  0  0  0  0  0  0  0  0  0
    7.7207    1.2884    1.7650 H   0  0  0  0  0  0  0  0  0  0  0  0
    8.6138   -1.7377    1.9020 H   0  0  0  0  0  0  0  0  0  0  0  0
    6.9431   -1.6651    2.4759 H   0  0  0  0  0  0  0  0  0  0  0  0
    7.3866   -2.6214    1.0268 H   0  0  0  0  0  0  0  0  0  0  0  0
    5.2708   -2.3042    0.6175 H   0  0  0  0  0  0  0  0  0  0  0  0
    3.0488   -1.9245   -0.2339 H   0  0  0  0  0  0  0  0  0  0  0  0
    2.0870    0.7206   -2.3718 H   0  0  0  0  0  0  0  0  0  0  0  0
   -0.5390    0.8113   -2.3584 H   0  0  0  0  0  0  0  0  0  0  0  0
   -2.7801    1.5641   -2.3405 H   0  0  0  0  0  0  0  0  0  0  0  0
   -5.2074    1.7217   -2.4929 H   0  0  0  0  0  0  0  0  0  0  0  0
   -3.1591   -0.7355    1.2908 H   0  0  0  0  0  0  0  0  0  0  0  0
   -5.7684   -0.1013    2.3495 H   0  0  0  0  0  0  0  0  0  0  0  0
   -5.4256   -1.7225    1.7266 H   0  0  0  0  0  0  0  0  0  0  0  0
   -7.4070   -1.7385    0.3580 H   0  0  0  0  0  0  0  0  0  0  0  0
   -7.8892   -1.1796    1.9596 H   0  0  0  0  0  0  0  0  0  0  0  0
   -7.7404    1.1954    1.1675 H   0  0  0  0  0  0  0  0  0  0  0  0
   -8.9119    0.2640    0.2346 H   0  0  0  0  0  0  0  0  0  0  0  0
   -7.3639    1.7101   -1.1551 H   0  0  0  0  0  0  0  0  0  0  0  0
   -7.3990    0.0037   -1.6245 H   0  0  0  0  0  0  0  0  0  0  0  0
    4.0992    2.1334   -1.2039 H   0  0  0  0  0  0  0  0  0  0  0  0
    6.3303    1.7655   -0.3595 H   0  0  0  0  0  0  0  0  0  0  0  0
  1  2  1  0
  2  3  1  0
  2  4  1  0
  4  5  2  0
  5  6  1  0
  6  7  2  0
  7  8  1  0
  8  9  2  3
  9 10  1  0
 10 11  2  0
 11 12  1  0
 12 13  2  0
 13 14  1  0
 14 15  2  0
 15 16  1  0
 16 17  2  0
 16 18  1  0
 18 19  1  0
 19 20  1  0
 20 21  1  0
 11 22  1  0
 22 23  1  0
 23 24  2  0
  7 25  1  0
 25 26  2  0
 26  4  1  0
 23  9  1  0
 17 12  1  0
 21 15  1  0
  1 27  1  0
  1 28  1  0
  1 29  1  0
  3 30  1  0
  3 31  1  0
  3 32  1  0
  5 33  1  0
  6 34  1  0
  8 35  1  0
 10 36  1  0
 13 37  1  0
 14 38  1  0
 17 39  1  0
 18 40  1  0
 18 41  1  0
 19 42  1  0
 19 43  1  0
 20 44  1  0
 20 45  1  0
 21 46  1  0
 21 47  1  0
 25 48  1  0
 26 49  1  0
M  END
$$$$
