
     RDKit          3D

 80 86  0  0  0  0  0  0  0  0999 V2000
   -5.9521   -0.2656    0.8599 C   0  0  0  0  0  0  0  0  0  0  0  0
   -4.5300   -0.0537    1.2938 C   0  0  0  0  0  0  0  0  0  0  0  0
   -4.2308    0.2852    2.6352 C   0  0  0  0  0  0  0  0  0  0  0  0
   -5.4458    0.3066    3.8724 Cl  0  0  0  0  0  0  0  0  0  0  0  0
   -2.9287    0.6194    3.0458 C   0  0  0  0  0  0  0  0  0  0  0  0
   -1.8845    0.6357    2.1311 C   0  0  0  0  0  0  0  0  0  0  0  0
   -2.1586    0.2729    0.8199 C   0  0  0  0  0  0  0  0  0  0  0  0
   -3.4470   -0.1246    0.4073 C   0  0  0  0  0  0  0  0  0  0  0  0
   -3.3731   -0.5429   -0.9473 N   0  0  0  0  0  0  0  0  0  0  0  0
   -4.3089   -1.3727   -1.6680 C   0  0  0  0  0  0  0  0  0  0  0  0
   -3.9770   -2.8475   -1.5393 C   0  0  0  0  0  0  0  0  0  0  0  0
   -3.3234   -3.5170   -2.5857 C   0  0  0  0  0  0  0  0  0  0  0  0
   -2.9878   -4.8676   -2.4688 C   0  0  0  0  0  0  0  0  0  0  0  0
   -3.2978   -5.5662   -1.3041 C   0  0  0  0  0  0  0  0  0  0  0  0
   -3.9417   -4.9137   -0.2552 C   0  0  0  0  0  0  0  0  0  0  0  0
   -4.2769   -3.5626   -0.3705 C   0  0  0  0  0  0  0  0  0  0  0  0
   -2.0746   -0.3596   -1.4770 C   0  0  0  0  0  0  0  0  0  0  0  0
   -1.7100   -0.6315   -2.6156 O   0  0  0  0  0  0  0  0  0  0  0  0
   -1.2088    0.1875   -0.3330 C   0  0  1  0  0  0  0  0  0  0  0  0
   -0.6367    1.5277   -0.6218 C   0  0  0  0  0  0  0  0  0  0  0  0
    0.7352    1.4170   -0.8955 C   0  0  0  0  0  0  0  0  0  0  0  0
    1.2468    2.6578   -1.1435 C   0  0  0  0  0  0  0  0  0  0  0  0
    2.5194    2.9963   -1.3442 O   0  0  0  0  0  0  0  0  0  0  0  0
    0.1670    3.5597   -1.0841 N   0  0  0  0  0  0  0  0  0  0  0  0
    0.2415    4.9630   -1.3168 C   0  0  0  0  0  0  0  0  0  0  0  0
    1.0466    5.4602   -2.3510 C   0  0  0  0  0  0  0  0  0  0  0  0
    1.1160    6.8353   -2.5777 C   0  0  0  0  0  0  0  0  0  0  0  0
    0.3914    7.7140   -1.7732 C   0  0  0  0  0  0  0  0  0  0  0  0
   -0.4085    7.2224   -0.7413 C   0  0  0  0  0  0  0  0  0  0  0  0
   -0.4900    5.8476   -0.5133 C   0  0  0  0  0  0  0  0  0  0  0  0
   -1.0031    2.8391   -0.7695 C   0  0  0  0  0  0  0  0  0  0  0  0
   -2.2265    3.3649   -0.7177 O   0  0  0  0  0  0  0  0  0  0  0  0
    1.1684    0.0088   -0.8240 C   0  0  1  0  0  0  0  0  0  0  0  0
    2.4504   -0.3124   -0.0583 C   0  0  0  0  0  0  0  0  0  0  0  0
    2.5241   -1.7392    0.3216 N   0  0  0  0  0  0  0  0  0  0  0  0
    3.6315   -2.2654    0.9518 C   0  0  0  0  0  0  0  0  0  0  0  0
    3.7922   -3.4607    1.1632 O   0  0  0  0  0  0  0  0  0  0  0  0
    4.5132   -1.2959    1.3053 O   0  0  0  0  0  0  0  0  0  0  0  0
    5.7530   -1.6170    1.9827 C   0  0  0  0  0  0  0  0  0  0  0  0
    6.6705   -2.4542    1.0853 C   0  0  0  0  0  0  0  0  0  0  0  0
    5.5002   -2.2922    3.3354 C   0  0  0  0  0  0  0  0  0  0  0  0
    6.4198   -0.2557    2.2339 C   0  0  0  0  0  0  0  0  0  0  0  0
    1.4666   -2.6299   -0.1753 C   0  0  0  0  0  0  0  0  0  0  0  0
    0.0325   -2.0358   -0.0656 C   0  0  0  0  0  0  0  0  0  0  0  0
    0.0288   -0.5828   -0.0746 N   0  0  0  0  0  0  0  0  0  0  0  0
   -6.6787    0.1724    1.5496 H   0  0  0  0  0  0  0  0  0  0  0  0
   -6.1384    0.2461   -0.0886 H   0  0  0  0  0  0  0  0  0  0  0  0
   -6.1797   -1.3302    0.7699 H   0  0  0  0  0  0  0  0  0  0  0  0
   -2.7313    0.8815    4.0828 H   0  0  0  0  0  0  0  0  0  0  0  0
   -0.8773    0.9076    2.4333 H   0  0  0  0  0  0  0  0  0  0  0  0
   -4.2635   -1.0869   -2.7281 H   0  0  0  0  0  0  0  0  0  0  0  0
   -5.3421   -1.1965   -1.3735 H   0  0  0  0  0  0  0  0  0  0  0  0
   -3.0591   -2.9843   -3.4985 H   0  0  0  0  0  0  0  0  0  0  0  0
   -2.4792   -5.3727   -3.2870 H   0  0  0  0  0  0  0  0  0  0  0  0
   -3.0358   -6.6172   -1.2130 H   0  0  0  0  0  0  0  0  0  0  0  0
   -4.1792   -5.4551    0.6564 H   0  0  0  0  0  0  0  0  0  0  0  0
   -4.7683   -3.0765    0.4666 H   0  0  0  0  0  0  0  0  0  0  0  0
    2.6316    3.9428   -1.1470 H   0  0  0  0  0  0  0  0  0  0  0  0
    1.5890    4.7928   -3.0187 H   0  0  0  0  0  0  0  0  0  0  0  0
    1.7273    7.2218   -3.3913 H   0  0  0  0  0  0  0  0  0  0  0  0
    0.4484    8.7852   -1.9515 H   0  0  0  0  0  0  0  0  0  0  0  0
   -0.9613    7.9133   -0.1078 H   0  0  0  0  0  0  0  0  0  0  0  0
   -1.0896    5.4895    0.3224 H   0  0  0  0  0  0  0  0  0  0  0  0
   -2.2418    4.1769   -1.2543 H   0  0  0  0  0  0  0  0  0  0  0  0
    1.2078   -0.4059   -1.8407 H   0  0  0  0  0  0  0  0  0  0  0  0
    2.5199    0.2750    0.8673 H   0  0  0  0  0  0  0  0  0  0  0  0
    3.3313   -0.0682   -0.6651 H   0  0  0  0  0  0  0  0  0  0  0  0
    7.6670   -2.5654    1.5260 H   0  0  0  0  0  0  0  0  0  0  0  0
    6.7750   -1.9925    0.0968 H   0  0  0  0  0  0  0  0  0  0  0  0
    6.2727   -3.4598    0.9200 H   0  0  0  0  0  0  0  0  0  0  0  0
    6.4221   -2.3644    3.9224 H   0  0  0  0  0  0  0  0  0  0  0  0
    5.1111   -3.3083    3.2201 H   0  0  0  0  0  0  0  0  0  0  0  0
    4.7589   -1.7337    3.9173 H   0  0  0  0  0  0  0  0  0  0  0  0
    6.5745    0.2822    1.2899 H   0  0  0  0  0  0  0  0  0  0  0  0
    7.3892   -0.3624    2.7321 H   0  0  0  0  0  0  0  0  0  0  0  0
    5.7794    0.3838    2.8541 H   0  0  0  0  0  0  0  0  0  0  0  0
    1.7009   -2.8095   -1.2318 H   0  0  0  0  0  0  0  0  0  0  0  0
    1.5066   -3.5992    0.3331 H   0  0  0  0  0  0  0  0  0  0  0  0
   -0.4118   -2.3720    0.8778 H   0  0  0  0  0  0  0  0  0  0  0  0
   -0.5688   -2.4648   -0.8741 H   0  0  0  0  0  0  0  0  0  0  0  0
  1  2  1  0
  2  3  2  0
  3  4  1  0
  3  5  1  0
  5  6  2  0
  6  7  1  0
  7  8  2  0
  8  9  1  0
  9 10  1  0
 10 11  1  0
 11 12  2  0
 12 13  1  0
 13 14  2  0
 14 15  1  0
 15 16  2  0
  9 17  1  0
 17 18  2  0
 17 19  1  0
 19 20  1  0
 20 21  1  0
 21 22  2  0
 22 23  1  0
 22 24  1  0
 24 25  1  0
 25 26  2  0
 26 27  1  0
 27 28  2  0
 28 29  1  0
 29 30  2  0
 24 31  1  0
 31 32  1  0
 21 33  1  0
 33 34  1  0
 34 35  1  0
 35 36  1  0
 36 37  2  0
 36 38  1  0
 38 39  1  0
 39 40  1  0
 39 41  1  0
 39 42  1  0
 35 43  1  0
 43 44  1  0
 44 45  1  0
  8  2  1  0
 16 11  1  0
 19 45  1  1
 19  7  1  0
 31 20  2  0
 45 33  1  0
 30 25  1  0
  1 46  1  0
  1 47  1  0
  1 48  1  0
  5 49  1  0
  6 50  1  0
 10 51  1  0
 10 52  1  0
 12 53  1  0
 13 54  1  0
 14 55  1  0
 15 56  1  0
 16 57  1  0
 23 58  1  0
 26 59  1  0
 27 60  1  0
 28 61  1  0
 29 62  1  0
 30 63  1  0
 32 64  1  0
 33 65  1  6
 34 66  1  0
 34 67  1  0
 40 68  1  0
 40 69  1  0
 40 70  1  0
 41 71  1  0
 41 72  1  0
 41 73  1  0
 42 74  1  0
 42 75  1  0
 42 76  1  0
 43 77  1  0
 43 78  1  0
 44 79  1  0
 44 80  1  0
M  END
$$$$
