
     RDKit          3D

 72 76  0  0  0  0  0  0  0  0999 V2000
   10.5944   -1.6909   -0.5398 C   0  0  0  0  0  0  0  0  0  0  0  0
    9.9609   -0.5061   -1.0080 O   0  0  0  0  0  0  0  0  0  0  0  0
    8.6276   -0.3700   -0.7301 C   0  0  0  0  0  0  0  0  0  0  0  0
    7.8223   -1.3211   -0.1035 C   0  0  0  0  0  0  0  0  0  0  0  0
    6.4676   -1.0547    0.1215 C   0  0  0  0  0  0  0  0  0  0  0  0
    5.9033    0.1640   -0.2850 C   0  0  0  0  0  0  0  0  0  0  0  0
    4.4899    0.4408   -0.0277 C   0  0  0  0  0  0  0  0  0  0  0  0
    4.1625    1.5147    0.6992 N   0  0  0  0  0  0  0  0  0  0  0  0
    2.5308    1.5188    0.9584 S   0  0  0  0  0  0  0  0  0  0  0  0
    2.1713    0.1398    0.0163 C   0  0  0  0  0  0  0  0  0  0  0  0
    0.8269   -0.4068   -0.1181 C   0  0  0  0  0  0  0  0  0  0  0  0
    0.6558   -1.6023   -0.3748 O   0  0  0  0  0  0  0  0  0  0  0  0
   -0.2853    0.4320    0.1257 N   0  0  0  0  0  0  0  0  0  0  0  0
   -0.3705    1.7141   -0.5186 C   0  0  0  0  0  0  0  0  0  0  0  0
   -0.9502    2.8076    0.1397 C   0  0  0  0  0  0  0  0  0  0  0  0
   -1.0116    4.0613   -0.4765 C   0  0  0  0  0  0  0  0  0  0  0  0
   -0.4858    4.2262   -1.7505 C   0  0  0  0  0  0  0  0  0  0  0  0
   -0.5420    5.4277   -2.3376 F   0  0  0  0  0  0  0  0  0  0  0  0
    0.1043    3.1616   -2.4190 C   0  0  0  0  0  0  0  0  0  0  0  0
    0.1651    1.9085   -1.8036 C   0  0  0  0  0  0  0  0  0  0  0  0
   -1.5474   -0.2975    0.4010 C   0  0  0  0  0  0  0  0  0  0  0  0
   -2.3150   -0.7554   -0.8771 C   0  0  0  0  0  0  0  0  0  0  0  0
   -2.2388   -0.1920   -1.9670 O   0  0  0  0  0  0  0  0  0  0  0  0
   -3.1434   -1.8507   -0.6685 N   0  0  0  0  0  0  0  0  0  0  0  0
   -4.0414   -2.3401   -1.7027 C   0  0  0  0  0  0  0  0  0  0  0  0
   -5.3918   -1.6267   -1.6565 C   0  0  0  0  0  0  0  0  0  0  0  0
   -6.1497   -2.3197   -0.5262 C   0  0  0  0  0  0  0  0  0  0  0  0
   -5.5731   -3.7346   -0.4403 C   0  0  0  0  0  0  0  0  0  0  0  0
   -4.4296   -3.7944   -1.4533 C   0  0  0  0  0  0  0  0  0  0  0  0
   -2.4447    0.3590    1.4515 C   0  0  0  0  0  0  0  0  0  0  0  0
   -3.6410    1.0173    1.1206 C   0  0  0  0  0  0  0  0  0  0  0  0
   -4.4313    1.6115    2.1132 C   0  0  0  0  0  0  0  0  0  0  0  0
   -4.0365    1.5645    3.4491 C   0  0  0  0  0  0  0  0  0  0  0  0
   -4.7075    2.1095    4.5073 O   0  0  0  0  0  0  0  0  0  0  0  0
   -5.9321    2.7751    4.2231 C   0  0  0  0  0  0  0  0  0  0  0  0
   -2.8455    0.9183    3.7852 C   0  0  0  0  0  0  0  0  0  0  0  0
   -2.0546    0.3232    2.8003 C   0  0  0  0  0  0  0  0  0  0  0  0
    3.3685   -0.3673   -0.4594 C   0  0  0  0  0  0  0  0  0  0  0  0
    3.4648   -1.4814   -1.2247 N   0  0  0  0  0  0  0  0  0  0  0  0
    6.7136    1.1190   -0.9075 C   0  0  0  0  0  0  0  0  0  0  0  0
    8.0663    0.8470   -1.1331 C   0  0  0  0  0  0  0  0  0  0  0  0
   10.5214   -1.7753    0.5500 H   0  0  0  0  0  0  0  0  0  0  0  0
   11.6563   -1.6254   -0.7952 H   0  0  0  0  0  0  0  0  0  0  0  0
   10.1843   -2.5761   -1.0362 H   0  0  0  0  0  0  0  0  0  0  0  0
    8.2148   -2.2754    0.2328 H   0  0  0  0  0  0  0  0  0  0  0  0
    5.8565   -1.7988    0.6309 H   0  0  0  0  0  0  0  0  0  0  0  0
   -1.3192    2.7227    1.1568 H   0  0  0  0  0  0  0  0  0  0  0  0
   -1.4541    4.9100    0.0355 H   0  0  0  0  0  0  0  0  0  0  0  0
    0.5089    3.3067   -3.4151 H   0  0  0  0  0  0  0  0  0  0  0  0
    0.5995    1.0829   -2.3623 H   0  0  0  0  0  0  0  0  0  0  0  0
   -1.2532   -1.2493    0.8750 H   0  0  0  0  0  0  0  0  0  0  0  0
   -3.3134   -2.1410    0.2862 H   0  0  0  0  0  0  0  0  0  0  0  0
   -3.5582   -2.2185   -2.6786 H   0  0  0  0  0  0  0  0  0  0  0  0
   -5.9252   -1.7872   -2.6010 H   0  0  0  0  0  0  0  0  0  0  0  0
   -5.3137   -0.5485   -1.4939 H   0  0  0  0  0  0  0  0  0  0  0  0
   -5.9819   -1.7947    0.4225 H   0  0  0  0  0  0  0  0  0  0  0  0
   -7.2294   -2.3276   -0.7095 H   0  0  0  0  0  0  0  0  0  0  0  0
   -6.3312   -4.4936   -0.6592 H   0  0  0  0  0  0  0  0  0  0  0  0
   -5.2012   -3.9277    0.5728 H   0  0  0  0  0  0  0  0  0  0  0  0
   -3.5983   -4.4094   -1.0953 H   0  0  0  0  0  0  0  0  0  0  0  0
   -4.7990   -4.2422   -2.3827 H   0  0  0  0  0  0  0  0  0  0  0  0
   -3.9673    1.0959    0.0843 H   0  0  0  0  0  0  0  0  0  0  0  0
   -5.3435    2.1123    1.8030 H   0  0  0  0  0  0  0  0  0  0  0  0
   -6.6580    2.0923    3.7691 H   0  0  0  0  0  0  0  0  0  0  0  0
   -6.3523    3.1200    5.1740 H   0  0  0  0  0  0  0  0  0  0  0  0
   -5.7641    3.6540    3.5906 H   0  0  0  0  0  0  0  0  0  0  0  0
   -2.5279    0.8861    4.8250 H   0  0  0  0  0  0  0  0  0  0  0  0
   -1.1238   -0.1609    3.0937 H   0  0  0  0  0  0  0  0  0  0  0  0
    4.3193   -1.7378   -1.7093 H   0  0  0  0  0  0  0  0  0  0  0  0
    2.6374   -2.0145   -1.4977 H   0  0  0  0  0  0  0  0  0  0  0  0
    6.2995    2.0768   -1.2181 H   0  0  0  0  0  0  0  0  0  0  0  0
    8.6899    1.5940   -1.6202 H   0  0  0  0  0  0  0  0  0  0  0  0
  1  2  1  0
  2  3  1  0
  3  4  2  0
  4  5  1  0
  5  6  2  0
  6  7  1  0
  7  8  2  0
  8  9  1  0
  9 10  1  0
 10 11  1  0
 11 12  2  0
 11 13  1  0
 13 14  1  0
 14 15  2  0
 15 16  1  0
 16 17  2  0
 17 18  1  0
 17 19  1  0
 19 20  2  0
 13 21  1  0
 21 22  1  0
 22 23  2  0
 22 24  1  0
 24 25  1  0
 25 26  1  0
 26 27  1  0
 27 28  1  0
 28 29  1  0
 21 30  1  0
 30 31  2  0
 31 32  1  0
 32 33  2  0
 33 34  1  0
 34 35  1  0
 33 36  1  0
 36 37  2  0
 10 38  2  0
 38 39  1  0
  6 40  1  0
 40 41  2  0
 41  3  1  0
 38  7  1  0
 20 14  1  0
 29 25  1  0
 37 30  1  0
  1 42  1  0
  1 43  1  0
  1 44  1  0
  4 45  1  0
  5 46  1  0
 15 47  1  0
 16 48  1  0
 19 49  1  0
 20 50  1  0
 21 51  1  0
 24 52  1  0
 25 53  1  0
 26 54  1  0
 26 55  1  0
 27 56  1  0
 27 57  1  0
 28 58  1  0
 28 59  1  0
 29 60  1  0
 29 61  1  0
 31 62  1  0
 32 63  1  0
 35 64  1  0
 35 65  1  0
 35 66  1  0
 36 67  1  0
 37 68  1  0
 39 69  1  0
 39 70  1  0
 40 71  1  0
 41 72  1  0
M  END
$$$$
