
     RDKit          3D

 39 41  0  0  0  0  0  0  0  0999 V2000
    3.2186    3.0602   -0.8793 O   0  0  0  0  0  0  0  0  0  0  0  0
    2.3497    2.5148   -0.2151 C   0  0  0  0  0  0  0  0  0  0  0  0
    1.4925    3.2891    0.4929 O   0  0  0  0  0  0  0  0  0  0  0  0
    2.0306    1.0131   -0.1590 C   0  0  0  0  0  0  0  0  0  0  0  0
    3.1946    0.0298   -0.2318 C   0  0  0  0  0  0  0  0  0  0  0  0
    4.5294    0.3914    0.0043 C   0  0  0  0  0  0  0  0  0  0  0  0
    5.5512   -0.5592   -0.0691 C   0  0  0  0  0  0  0  0  0  0  0  0
    5.2574   -1.8838   -0.3816 C   0  0  0  0  0  0  0  0  0  0  0  0
    3.9407   -2.2622   -0.6239 C   0  0  0  0  0  0  0  0  0  0  0  0
    2.9182   -1.3148   -0.5506 C   0  0  0  0  0  0  0  0  0  0  0  0
    1.0672    0.6869    0.9139 N   0  0  0  0  0  0  0  0  0  0  0  0
   -0.2422    0.4188    0.5510 C   0  0  0  0  0  0  0  0  0  0  0  0
   -0.6695    0.4345   -0.5946 O   0  0  0  0  0  0  0  0  0  0  0  0
   -1.0727    0.1188    1.7520 C   0  0  0  0  0  0  0  0  0  0  0  0
   -2.3603   -0.2527    1.8132 C   0  0  0  0  0  0  0  0  0  0  0  0
   -3.2901   -0.4579    0.6964 C   0  0  0  0  0  0  0  0  0  0  0  0
   -3.9185   -1.7076    0.5652 C   0  0  0  0  0  0  0  0  0  0  0  0
   -4.8439   -1.9352   -0.4564 C   0  0  0  0  0  0  0  0  0  0  0  0
   -5.1402   -0.9094   -1.3395 C   0  0  0  0  0  0  0  0  0  0  0  0
   -6.0420   -1.1302   -2.3402 O   0  0  0  0  0  0  0  0  0  0  0  0
   -4.5292    0.3351   -1.2156 C   0  0  0  0  0  0  0  0  0  0  0  0
   -4.8620    1.2996   -2.1272 O   0  0  0  0  0  0  0  0  0  0  0  0
   -3.6144    0.5744   -0.1947 C   0  0  0  0  0  0  0  0  0  0  0  0
   -0.1063    0.2801    3.1712 S   0  0  0  0  0  0  0  0  0  0  0  0
    1.3372    0.7205    2.2661 C   0  0  0  0  0  0  0  0  0  0  0  0
    2.7497    1.1254    3.0567 S   0  0  0  0  0  0  0  0  0  0  0  0
    1.8135    4.2027    0.3300 H   0  0  0  0  0  0  0  0  0  0  0  0
    1.5137    0.8745   -1.1201 H   0  0  0  0  0  0  0  0  0  0  0  0
    4.8048    1.4140    0.2550 H   0  0  0  0  0  0  0  0  0  0  0  0
    6.5800   -0.2620    0.1199 H   0  0  0  0  0  0  0  0  0  0  0  0
    6.0556   -2.6193   -0.4379 H   0  0  0  0  0  0  0  0  0  0  0  0
    3.7093   -3.2948   -0.8728 H   0  0  0  0  0  0  0  0  0  0  0  0
    1.8968   -1.6348   -0.7529 H   0  0  0  0  0  0  0  0  0  0  0  0
   -2.8054   -0.4664    2.7848 H   0  0  0  0  0  0  0  0  0  0  0  0
   -3.6910   -2.5168    1.2559 H   0  0  0  0  0  0  0  0  0  0  0  0
   -5.3267   -2.9018   -0.5616 H   0  0  0  0  0  0  0  0  0  0  0  0
   -6.0804   -0.2813   -2.8244 H   0  0  0  0  0  0  0  0  0  0  0  0
   -4.2676    2.0574   -1.9888 H   0  0  0  0  0  0  0  0  0  0  0  0
   -3.1480    1.5490   -0.0918 H   0  0  0  0  0  0  0  0  0  0  0  0
  1  2  2  0
  2  3  1  0
  2  4  1  0
  4  5  1  0
  5  6  2  0
  6  7  1  0
  7  8  2  0
  8  9  1  0
  9 10  2  0
  4 11  1  0
 11 12  1  0
 12 13  2  0
 12 14  1  0
 14 15  2  3
 15 16  1  0
 16 17  2  0
 17 18  1  0
 18 19  2  0
 19 20  1  0
 19 21  1  0
 21 22  1  0
 21 23  2  0
 14 24  1  0
 24 25  1  0
 25 26  2  0
 10  5  1  0
 25 11  1  0
 23 16  1  0
  3 27  1  0
  4 28  1  0
  6 29  1  0
  7 30  1  0
  8 31  1  0
  9 32  1  0
 10 33  1  0
 15 34  1  0
 17 35  1  0
 18 36  1  0
 20 37  1  0
 22 38  1  0
 23 39  1  0
M  END
$$$$
