
     RDKit          3D

 41 43  0  0  0  0  0  0  0  0999 V2000
   -4.0972    1.0740    3.0790 C   0  0  0  0  0  0  0  0  0  0  0  0
   -5.0010    0.8713    1.9985 O   0  0  0  0  0  0  0  0  0  0  0  0
   -4.4800    0.3441    0.8481 C   0  0  0  0  0  0  0  0  0  0  0  0
   -5.4144    0.1316   -0.1667 C   0  0  0  0  0  0  0  0  0  0  0  0
   -5.0261   -0.4000   -1.3987 C   0  0  0  0  0  0  0  0  0  0  0  0
   -3.6885   -0.7260   -1.6246 C   0  0  0  0  0  0  0  0  0  0  0  0
   -3.1915   -1.2530   -2.7949 O   0  0  0  0  0  0  0  0  0  0  0  0
   -4.1239   -1.4853   -3.8444 C   0  0  0  0  0  0  0  0  0  0  0  0
   -2.7378   -0.5161   -0.6025 C   0  0  0  0  0  0  0  0  0  0  0  0
   -1.4005   -0.8622   -0.8994 N   0  0  0  0  0  0  0  0  0  0  0  0
   -0.3072   -0.8496   -0.0686 C   0  0  0  0  0  0  0  0  0  0  0  0
   -0.2852   -0.5815    1.1291 O   0  0  0  0  0  0  0  0  0  0  0  0
    0.8483   -1.2165   -0.7484 N   0  0  0  0  0  0  0  0  0  0  0  0
    2.0606   -1.0502   -0.0294 N   0  0  0  0  0  0  0  0  0  0  0  0
    3.0528   -0.3031   -0.6358 C   0  0  0  0  0  0  0  0  0  0  0  0
    2.9939   -0.0005   -1.8279 O   0  0  0  0  0  0  0  0  0  0  0  0
    4.1443    0.1102    0.2240 C   0  0  0  0  0  0  0  0  0  0  0  0
    4.4077   -0.1716    1.5644 C   0  0  0  0  0  0  0  0  0  0  0  0
    5.6065    0.5077    1.8307 C   0  0  0  0  0  0  0  0  0  0  0  0
    6.4447    0.6925    2.8817 O   0  0  0  0  0  0  0  0  0  0  0  0
    7.4366    1.4916    2.3889 C   0  0  0  0  0  0  0  0  0  0  0  0
    7.2574    1.8186    1.0626 C   0  0  0  0  0  0  0  0  0  0  0  0
    6.0558    1.1573    0.7406 C   0  0  0  0  0  0  0  0  0  0  0  0
    5.1639    0.9202   -0.2664 N   0  0  0  0  0  0  0  0  0  0  0  0
   -3.1399    0.0215    0.6257 C   0  0  0  0  0  0  0  0  0  0  0  0
   -3.6503    0.1284    3.4037 H   0  0  0  0  0  0  0  0  0  0  0  0
   -3.3281    1.8081    2.8172 H   0  0  0  0  0  0  0  0  0  0  0  0
   -4.6688    1.4775    3.9204 H   0  0  0  0  0  0  0  0  0  0  0  0
   -6.4583    0.3841    0.0057 H   0  0  0  0  0  0  0  0  0  0  0  0
   -5.7926   -0.5437   -2.1521 H   0  0  0  0  0  0  0  0  0  0  0  0
   -4.5844   -0.5494   -4.1775 H   0  0  0  0  0  0  0  0  0  0  0  0
   -3.5736   -1.9048   -4.6920 H   0  0  0  0  0  0  0  0  0  0  0  0
   -4.8814   -2.2171   -3.5449 H   0  0  0  0  0  0  0  0  0  0  0  0
   -1.2752   -1.2601   -1.8228 H   0  0  0  0  0  0  0  0  0  0  0  0
    0.9185   -0.9116   -1.7184 H   0  0  0  0  0  0  0  0  0  0  0  0
    1.9468   -1.0081    0.9818 H   0  0  0  0  0  0  0  0  0  0  0  0
    3.8325   -0.7754    2.2508 H   0  0  0  0  0  0  0  0  0  0  0  0
    8.2048    1.7432    3.1081 H   0  0  0  0  0  0  0  0  0  0  0  0
    7.8949    2.4319    0.4441 H   0  0  0  0  0  0  0  0  0  0  0  0
    5.2426    1.2801   -1.2104 H   0  0  0  0  0  0  0  0  0  0  0  0
   -2.4066    0.1917    1.4029 H   0  0  0  0  0  0  0  0  0  0  0  0
  1  2  1  0
  2  3  1  0
  3  4  2  0
  4  5  1  0
  5  6  2  0
  6  7  1  0
  7  8  1  0
  6  9  1  0
  9 10  1  0
 10 11  1  0
 11 12  2  0
 11 13  1  0
 13 14  1  0
 14 15  1  0
 15 16  2  0
 15 17  1  0
 17 18  2  0
 18 19  1  0
 19 20  1  0
 20 21  1  0
 21 22  2  0
 22 23  1  0
 23 24  1  0
  9 25  2  0
 25  3  1  0
 24 17  1  0
 23 19  2  0
  1 26  1  0
  1 27  1  0
  1 28  1  0
  4 29  1  0
  5 30  1  0
  8 31  1  0
  8 32  1  0
  8 33  1  0
 10 34  1  0
 13 35  1  0
 14 36  1  0
 18 37  1  0
 21 38  1  0
 22 39  1  0
 24 40  1  0
 25 41  1  0
M  END
$$$$
