
     RDKit          3D

 43 46  0  0  0  0  0  0  0  0999 V2000
    4.1276   -1.0065    1.2848 O   0  0  0  0  0  0  0  0  0  0  0  0
    3.0983   -0.6830    0.7358 C   0  0  0  0  0  0  0  0  0  0  0  0
    2.7175    0.5787    0.0330 C   0  0  0  0  0  0  0  0  0  0  0  0
    3.4116    1.7022   -0.1815 C   0  0  0  0  0  0  0  0  0  0  0  0
    4.7532    1.9754    0.1916 C   0  0  0  0  0  0  0  0  0  0  0  0
    5.8818    1.1712    0.3048 C   0  0  0  0  0  0  0  0  0  0  0  0
    6.9737    1.9874    0.6871 C   0  0  0  0  0  0  0  0  0  0  0  0
    6.4751    3.2598    0.7696 C   0  0  0  0  0  0  0  0  0  0  0  0
    5.1572    3.2691    0.4614 O   0  0  0  0  0  0  0  0  0  0  0  0
    1.3888    0.4829   -0.4140 O   0  0  0  0  0  0  0  0  0  0  0  0
    0.9332   -0.7613   -0.0412 C   0  0  0  0  0  0  0  0  0  0  0  0
    1.8974   -1.5021    0.6369 C   0  0  0  0  0  0  0  0  0  0  0  0
    1.6687   -2.7849    1.0921 C   0  0  0  0  0  0  0  0  0  0  0  0
    0.4094   -3.3279    0.8413 C   0  0  0  0  0  0  0  0  0  0  0  0
   -0.5676   -2.5785    0.1605 C   0  0  0  0  0  0  0  0  0  0  0  0
   -1.7755   -3.1940   -0.0321 O   0  0  0  0  0  0  0  0  0  0  0  0
   -0.3336   -1.2673   -0.2934 C   0  0  0  0  0  0  0  0  0  0  0  0
   -1.3367   -0.4688   -1.0913 C   0  0  0  0  0  0  0  0  0  0  0  0
   -2.7386   -0.7084   -0.6814 N   0  0  0  0  0  0  0  0  0  0  0  0
   -3.0563   -0.0613    0.6106 C   0  0  0  0  0  0  0  0  0  0  0  0
   -3.8869    1.2139    0.4842 C   0  0  0  0  0  0  0  0  0  0  0  0
   -5.2096    0.9491   -0.2319 C   0  0  0  0  0  0  0  0  0  0  0  0
   -5.0904   -0.1586   -1.2773 C   0  0  0  0  0  0  0  0  0  0  0  0
   -3.6528   -0.3069   -1.7676 C   0  0  0  0  0  0  0  0  0  0  0  0
    2.8957    2.5262   -0.6679 H   0  0  0  0  0  0  0  0  0  0  0  0
    5.9219    0.1055    0.1267 H   0  0  0  0  0  0  0  0  0  0  0  0
    7.9935    1.6814    0.8710 H   0  0  0  0  0  0  0  0  0  0  0  0
    6.9055    4.2200    1.0162 H   0  0  0  0  0  0  0  0  0  0  0  0
    2.4363   -3.3435    1.6165 H   0  0  0  0  0  0  0  0  0  0  0  0
    0.1739   -4.3365    1.1736 H   0  0  0  0  0  0  0  0  0  0  0  0
   -2.4025   -2.4974   -0.3305 H   0  0  0  0  0  0  0  0  0  0  0  0
   -1.1155    0.6051   -1.0437 H   0  0  0  0  0  0  0  0  0  0  0  0
   -1.2009   -0.7786   -2.1364 H   0  0  0  0  0  0  0  0  0  0  0  0
   -3.6249   -0.7874    1.2060 H   0  0  0  0  0  0  0  0  0  0  0  0
   -2.1533    0.1516    1.1954 H   0  0  0  0  0  0  0  0  0  0  0  0
   -4.0847    1.6373    1.4755 H   0  0  0  0  0  0  0  0  0  0  0  0
   -3.3136    1.9695   -0.0679 H   0  0  0  0  0  0  0  0  0  0  0  0
   -5.9828    0.6715    0.4945 H   0  0  0  0  0  0  0  0  0  0  0  0
   -5.5503    1.8781   -0.7045 H   0  0  0  0  0  0  0  0  0  0  0  0
   -5.7594    0.0541   -2.1189 H   0  0  0  0  0  0  0  0  0  0  0  0
   -5.4289   -1.1091   -0.8448 H   0  0  0  0  0  0  0  0  0  0  0  0
   -3.3349    0.6413   -2.2221 H   0  0  0  0  0  0  0  0  0  0  0  0
   -3.6205   -1.0694   -2.5546 H   0  0  0  0  0  0  0  0  0  0  0  0
  1  2  2  0
  2  3  1  0
  3  4  2  3
  4  5  1  0
  5  6  2  0
  6  7  1  0
  7  8  2  0
  8  9  1  0
  3 10  1  0
 10 11  1  0
 11 12  2  0
 12 13  1  0
 13 14  2  0
 14 15  1  0
 15 16  1  0
 15 17  2  0
 17 18  1  0
 18 19  1  0
 19 20  1  0
 20 21  1  0
 21 22  1  0
 22 23  1  0
 23 24  1  0
 12  2  1  0
 24 19  1  0
  9  5  1  0
 17 11  1  0
  4 25  1  0
  6 26  1  0
  7 27  1  0
  8 28  1  0
 13 29  1  0
 14 30  1  0
 16 31  1  0
 18 32  1  0
 18 33  1  0
 20 34  1  0
 20 35  1  0
 21 36  1  0
 21 37  1  0
 22 38  1  0
 22 39  1  0
 23 40  1  0
 23 41  1  0
 24 42  1  0
 24 43  1  0
M  END
$$$$
