
     RDKit          3D

 40 41  0  0  0  0  0  0  0  0999 V2000
   -5.2370    0.7414    0.2255 C   0  0  0  0  0  0  0  0  0  0  0  0
   -4.6125   -0.3404   -0.5313 N   0  0  0  0  0  0  0  0  0  0  0  0
   -3.4255    0.1202   -1.2773 C   0  0  0  0  0  0  0  0  0  0  0  0
   -2.0643   -0.2207   -0.6388 C   0  0  0  0  0  0  0  0  0  0  0  0
   -1.9276   -1.6480   -0.3179 N   0  0  0  0  0  0  0  0  0  0  0  0
   -0.7317   -2.3013   -0.0625 C   0  0  0  0  0  0  0  0  0  0  0  0
   -0.6917   -3.5056    0.2063 O   0  0  0  0  0  0  0  0  0  0  0  0
    0.5630   -1.5056   -0.1182 C   0  0  0  0  0  0  0  0  0  0  0  0
    0.8174   -0.6145    1.4527 S   0  0  0  0  0  0  0  0  0  0  0  0
    2.3795    0.1650    1.0782 C   0  0  0  0  0  0  0  0  0  0  0  0
    3.5444   -0.5900    1.2746 C   0  0  0  0  0  0  0  0  0  0  0  0
    4.8118   -0.0375    1.0429 C   0  0  0  0  0  0  0  0  0  0  0  0
    4.9517    1.2932    0.6200 C   0  0  0  0  0  0  0  0  0  0  0  0
    6.3145    1.8946    0.3607 C   0  0  0  0  0  0  0  0  0  0  0  0
    7.3432    1.1162    0.7938 F   0  0  0  0  0  0  0  0  0  0  0  0
    6.4726    3.1016    0.9691 F   0  0  0  0  0  0  0  0  0  0  0  0
    6.5332    2.1088   -0.9650 F   0  0  0  0  0  0  0  0  0  0  0  0
    3.7941    2.0605    0.4228 C   0  0  0  0  0  0  0  0  0  0  0  0
    2.5301    1.4910    0.6525 C   0  0  0  0  0  0  0  0  0  0  0  0
    1.3734    2.3338    0.4167 N   0  0  0  0  0  4  0  0  0  0  0  0
    1.2828    3.3633    1.0974 O   0  0  0  0  0  0  0  0  0  0  0  0
    0.5949    1.9921   -0.4849 O   0  0  0  0  0  1  0  0  0  0  0  0
   -3.1842   -2.3898   -0.1757 C   0  0  0  0  0  0  0  0  0  0  0  0
   -4.3138   -1.4885    0.3506 C   0  0  0  0  0  0  0  0  0  0  0  0
   -5.5717    1.5387   -0.4478 H   0  0  0  0  0  0  0  0  0  0  0  0
   -6.1300    0.3796    0.7487 H   0  0  0  0  0  0  0  0  0  0  0  0
   -4.5549    1.1781    0.9640 H   0  0  0  0  0  0  0  0  0  0  0  0
   -3.4631   -0.3693   -2.2595 H   0  0  0  0  0  0  0  0  0  0  0  0
   -3.4741    1.1963   -1.4847 H   0  0  0  0  0  0  0  0  0  0  0  0
   -1.2690    0.0754   -1.3265 H   0  0  0  0  0  0  0  0  0  0  0  0
   -1.9391    0.3397    0.2943 H   0  0  0  0  0  0  0  0  0  0  0  0
    0.5775   -0.8282   -0.9740 H   0  0  0  0  0  0  0  0  0  0  0  0
    1.3843   -2.2157   -0.2670 H   0  0  0  0  0  0  0  0  0  0  0  0
    3.4807   -1.6215    1.6226 H   0  0  0  0  0  0  0  0  0  0  0  0
    5.6949   -0.6569    1.2059 H   0  0  0  0  0  0  0  0  0  0  0  0
    3.8797    3.0969    0.0929 H   0  0  0  0  0  0  0  0  0  0  0  0
   -3.0496   -3.2397    0.5021 H   0  0  0  0  0  0  0  0  0  0  0  0
   -3.4390   -2.7930   -1.1633 H   0  0  0  0  0  0  0  0  0  0  0  0
   -4.0191   -1.1358    1.3492 H   0  0  0  0  0  0  0  0  0  0  0  0
   -5.2254   -2.0843    0.4721 H   0  0  0  0  0  0  0  0  0  0  0  0
  1  2  1  0
  2  3  1  0
  3  4  1  0
  4  5  1  0
  5  6  1  0
  6  7  2  0
  6  8  1  0
  8  9  1  0
  9 10  1  0
 10 11  2  0
 11 12  1  0
 12 13  2  0
 13 14  1  0
 14 15  1  0
 14 16  1  0
 14 17  1  0
 13 18  1  0
 18 19  2  0
 19 20  1  0
 20 21  2  0
 20 22  1  0
  5 23  1  0
 23 24  1  0
 24  2  1  0
 19 10  1  0
  1 25  1  0
  1 26  1  0
  1 27  1  0
  3 28  1  0
  3 29  1  0
  4 30  1  0
  4 31  1  0
  8 32  1  0
  8 33  1  0
 11 34  1  0
 12 35  1  0
 18 36  1  0
 23 37  1  0
 23 38  1  0
 24 39  1  0
 24 40  1  0
M  CHG  2  20   1  22  -1
M  END
$$$$
