
     RDKit          3D

 47 48  0  0  0  0  0  0  0  0999 V2000
   -1.8827    3.4982   -2.6479 C   0  0  0  0  0  0  0  0  0  0  0  0
   -1.9821    1.7209   -2.9796 S   0  0  0  0  0  0  0  0  0  0  0  0
   -0.8411    1.1085   -1.6958 C   0  0  0  0  0  0  0  0  0  0  0  0
   -1.4544    1.1959   -0.2996 C   0  0  0  0  0  0  0  0  0  0  0  0
   -0.5642    0.5124    0.7438 C   0  0  0  0  0  0  0  0  0  0  0  0
    0.6830    1.3001    0.9169 N   0  0  0  0  0  0  0  0  0  0  0  0
    2.0500    0.4389    1.3990 S   0  0  0  0  0  6  0  0  0  0  0  0
    2.9556    1.3903    2.0005 O   0  0  0  0  0  0  0  0  0  0  0  0
    1.6163   -0.7586    2.0839 O   0  0  0  0  0  0  0  0  0  0  0  0
    2.7262   -0.0183   -0.1770 C   0  0  0  0  0  0  0  0  0  0  0  0
    2.6755   -1.3476   -0.6011 C   0  0  0  0  0  0  0  0  0  0  0  0
    3.1987   -1.6890   -1.8494 C   0  0  0  0  0  0  0  0  0  0  0  0
    3.7663   -0.7084   -2.6752 C   0  0  0  0  0  0  0  0  0  0  0  0
    4.3587   -1.0860   -4.0017 C   0  0  0  0  0  0  0  0  0  0  0  0
    3.8325    0.6171   -2.2238 C   0  0  0  0  0  0  0  0  0  0  0  0
    3.3121    0.9657   -0.9770 C   0  0  0  0  0  0  0  0  0  0  0  0
   -1.2878    0.5042    2.1024 C   0  0  0  0  0  0  0  0  0  0  0  0
   -1.1569    1.4599    2.8752 O   0  0  0  0  0  0  0  0  0  0  0  0
   -2.1165   -0.5553    2.3889 N   0  0  0  0  0  0  0  0  0  0  0  0
   -2.2690   -1.7897    1.6338 C   0  0  0  0  0  0  0  0  0  0  0  0
   -3.0306   -2.7217    2.5679 C   0  0  0  0  0  0  0  0  0  0  0  0
   -3.8301   -1.7636    3.4407 C   0  0  0  0  0  0  0  0  0  0  0  0
   -2.8670   -0.6026    3.6312 C   0  0  0  0  0  0  0  0  0  0  0  0
   -2.3270    3.7371   -1.6789 H   0  0  0  0  0  0  0  0  0  0  0  0
   -2.4392    4.0357   -3.4205 H   0  0  0  0  0  0  0  0  0  0  0  0
   -0.8434    3.8355   -2.6733 H   0  0  0  0  0  0  0  0  0  0  0  0
   -0.6197    0.0637   -1.9392 H   0  0  0  0  0  0  0  0  0  0  0  0
    0.0999    1.6638   -1.7600 H   0  0  0  0  0  0  0  0  0  0  0  0
   -1.6141    2.2441   -0.0174 H   0  0  0  0  0  0  0  0  0  0  0  0
   -2.4415    0.7161   -0.2985 H   0  0  0  0  0  0  0  0  0  0  0  0
   -0.3275   -0.5000    0.4084 H   0  0  0  0  0  0  0  0  0  0  0  0
    0.5634    2.1211    1.5230 H   0  0  0  0  0  0  0  0  0  0  0  0
    2.2406   -2.1197    0.0290 H   0  0  0  0  0  0  0  0  0  0  0  0
    3.1655   -2.7269   -2.1751 H   0  0  0  0  0  0  0  0  0  0  0  0
    3.8253   -1.9362   -4.4395 H   0  0  0  0  0  0  0  0  0  0  0  0
    4.2852   -0.2561   -4.7124 H   0  0  0  0  0  0  0  0  0  0  0  0
    5.4123   -1.3543   -3.8779 H   0  0  0  0  0  0  0  0  0  0  0  0
    4.2934    1.3852   -2.8418 H   0  0  0  0  0  0  0  0  0  0  0  0
    3.3663    1.9969   -0.6350 H   0  0  0  0  0  0  0  0  0  0  0  0
   -2.8459   -1.5651    0.7309 H   0  0  0  0  0  0  0  0  0  0  0  0
   -1.2973   -2.2026    1.3502 H   0  0  0  0  0  0  0  0  0  0  0  0
   -3.6577   -3.4374    2.0295 H   0  0  0  0  0  0  0  0  0  0  0  0
   -2.3247   -3.2854    3.1900 H   0  0  0  0  0  0  0  0  0  0  0  0
   -4.7231   -1.4278    2.8998 H   0  0  0  0  0  0  0  0  0  0  0  0
   -4.1474   -2.2090    4.3873 H   0  0  0  0  0  0  0  0  0  0  0  0
   -3.3755    0.3475    3.8202 H   0  0  0  0  0  0  0  0  0  0  0  0
   -2.1601   -0.7975    4.4456 H   0  0  0  0  0  0  0  0  0  0  0  0
  1  2  1  0
  2  3  1  0
  3  4  1  0
  4  5  1  0
  5  6  1  0
  6  7  1  0
  7  8  2  0
  7  9  2  0
  7 10  1  0
 10 11  2  0
 11 12  1  0
 12 13  2  0
 13 14  1  0
 13 15  1  0
 15 16  2  0
  5 17  1  0
 17 18  2  0
 17 19  1  0
 19 20  1  0
 20 21  1  0
 21 22  1  0
 22 23  1  0
 16 10  1  0
 23 19  1  0
  1 24  1  0
  1 25  1  0
  1 26  1  0
  3 27  1  0
  3 28  1  0
  4 29  1  0
  4 30  1  0
  5 31  1  0
  6 32  1  0
 11 33  1  0
 12 34  1  0
 14 35  1  0
 14 36  1  0
 14 37  1  0
 15 38  1  0
 16 39  1  0
 20 40  1  0
 20 41  1  0
 21 42  1  0
 21 43  1  0
 22 44  1  0
 22 45  1  0
 23 46  1  0
 23 47  1  0
M  END
$$$$
