
     RDKit          3D

 33 35  0  0  0  0  0  0  0  0999 V2000
    0.8517    0.3975    0.1199 O   0  0  0  0  0  0  0  0  0  0  0  0
    0.9722    0.8711   -1.0002 C   0  0  0  0  0  0  0  0  0  0  0  0
    2.1991    0.7923   -1.8537 C   0  0  0  0  0  0  0  0  0  0  0  0
    3.3818    0.2091   -1.6070 C   0  0  0  0  0  0  0  0  0  0  0  0
    3.7500   -0.4557   -0.4044 C   0  0  0  0  0  0  0  0  0  0  0  0
    3.6185   -0.0828    0.9222 C   0  0  0  0  0  0  0  0  0  0  0  0
    4.1517   -1.0437    1.8307 C   0  0  0  0  0  0  0  0  0  0  0  0
    4.7005   -2.1200    1.1753 C   0  0  0  0  0  0  0  0  0  0  0  0
    4.5794   -1.9652   -0.5202 S   0  0  0  0  0  0  0  0  0  0  0  0
    1.8989    1.5814   -3.3797 S   0  0  0  0  0  0  0  0  0  0  0  0
    0.2560    2.0221   -2.9584 C   0  0  0  0  0  0  0  0  0  0  0  0
   -0.7666    2.8840   -3.9513 S   0  0  0  0  0  0  0  0  0  0  0  0
   -0.0103    1.5731   -1.6859 N   0  0  0  0  0  0  0  0  0  0  0  0
   -1.3983    1.6849   -1.0764 N   0  0  0  0  0  0  0  0  0  0  0  0
   -2.3569    0.2904   -1.3110 S   0  0  0  0  0  6  0  0  0  0  0  0
   -1.5262   -0.7545   -1.8712 O   0  0  0  0  0  0  0  0  0  0  0  0
   -3.5487    0.7487   -1.9926 O   0  0  0  0  0  0  0  0  0  0  0  0
   -2.7956   -0.1372    0.3503 C   0  0  0  0  0  0  0  0  0  0  0  0
   -1.9611   -0.9778    1.0914 C   0  0  0  0  0  0  0  0  0  0  0  0
   -2.3233   -1.3351    2.3902 C   0  0  0  0  0  0  0  0  0  0  0  0
   -3.5184   -0.8654    2.9373 C   0  0  0  0  0  0  0  0  0  0  0  0
   -4.3577   -0.0396    2.1878 C   0  0  0  0  0  0  0  0  0  0  0  0
   -4.0014    0.3241    0.8888 C   0  0  0  0  0  0  0  0  0  0  0  0
    4.1363    0.2102   -2.3931 H   0  0  0  0  0  0  0  0  0  0  0  0
    3.1491    0.8404    1.2408 H   0  0  0  0  0  0  0  0  0  0  0  0
    4.1325   -0.9458    2.9091 H   0  0  0  0  0  0  0  0  0  0  0  0
    5.1732   -2.9898    1.6102 H   0  0  0  0  0  0  0  0  0  0  0  0
   -1.9260    2.4912   -1.4283 H   0  0  0  0  0  0  0  0  0  0  0  0
   -1.0291   -1.3516    0.6721 H   0  0  0  0  0  0  0  0  0  0  0  0
   -1.6731   -1.9816    2.9749 H   0  0  0  0  0  0  0  0  0  0  0  0
   -3.7982   -1.1484    3.9494 H   0  0  0  0  0  0  0  0  0  0  0  0
   -5.2922    0.3155    2.6157 H   0  0  0  0  0  0  0  0  0  0  0  0
   -4.6677    0.9580    0.3083 H   0  0  0  0  0  0  0  0  0  0  0  0
  1  2  2  0
  2  3  1  0
  3  4  2  3
  4  5  1  0
  5  6  2  0
  6  7  1  0
  7  8  2  0
  8  9  1  0
  3 10  1  0
 10 11  1  0
 11 12  2  0
 11 13  1  0
 13 14  1  0
 14 15  1  0
 15 16  2  0
 15 17  2  0
 15 18  1  0
 18 19  2  0
 19 20  1  0
 20 21  2  0
 21 22  1  0
 22 23  2  0
 13  2  1  0
 23 18  1  0
  9  5  1  0
  4 24  1  0
  6 25  1  0
  7 26  1  0
  8 27  1  0
 14 28  1  0
 19 29  1  0
 20 30  1  0
 21 31  1  0
 22 32  1  0
 23 33  1  0
M  END
$$$$
