
     RDKit          3D

 57 60  0  0  0  0  0  0  0  0999 V2000
    5.1460   -0.2845    3.2661 O   0  0  0  0  0  0  0  0  0  0  0  0
    4.5450    0.7056    2.4012 S   0  0  0  0  0  6  0  0  0  0  0  0
    4.7833    2.1209    2.5724 O   0  0  0  0  0  0  0  0  0  0  0  0
    4.9681    0.2842    0.8351 N   0  0  0  0  0  0  0  0  0  0  0  0
    4.7784    1.2460   -0.2556 C   0  0  0  0  0  0  0  0  0  0  0  0
    6.0601    2.0268   -0.5184 C   0  0  0  0  0  0  0  0  0  0  0  0
    6.9200    1.1098   -1.3869 C   0  0  0  0  0  0  0  0  0  0  0  0
    5.9656    0.1017   -2.0256 C   0  0  0  0  0  0  0  0  0  0  0  0
    4.5652    0.4965   -1.5666 C   0  0  0  0  0  0  0  0  0  0  0  0
    2.7927    0.4145    2.3901 C   0  0  0  0  0  0  0  0  0  0  0  0
    2.3218   -0.9040    2.3794 C   0  0  0  0  0  0  0  0  0  0  0  0
    0.9474   -1.1425    2.3748 C   0  0  0  0  0  0  0  0  0  0  0  0
    0.0600   -0.0597    2.3843 C   0  0  0  0  0  0  0  0  0  0  0  0
   -1.6877   -0.3844    2.3719 S   0  0  0  0  0  6  0  0  0  0  0  0
   -2.3893    0.8783    2.2777 O   0  0  0  0  0  0  0  0  0  0  0  0
   -1.9546   -1.3241    3.4387 O   0  0  0  0  0  0  0  0  0  0  0  0
   -1.8992   -1.1918    0.8861 N   0  0  0  0  0  0  0  0  0  0  0  0
   -1.6738   -0.3581   -0.3455 C   0  0  0  0  0  0  0  0  0  0  0  0
   -2.9921    0.1069   -0.9916 C   0  0  0  0  0  0  0  0  0  0  0  0
   -3.8420   -1.0460   -1.3867 N   0  0  0  0  0  0  0  0  0  0  0  0
   -5.1578   -0.6656   -1.6892 C   0  0  0  0  0  0  0  0  0  0  0  0
   -5.3895    0.1925   -2.7790 C   0  0  0  0  0  0  0  0  0  0  0  0
   -6.6779    0.6115   -3.1254 C   0  0  0  0  0  0  0  0  0  0  0  0
   -7.7707    0.1790   -2.3826 C   0  0  0  0  0  0  0  0  0  0  0  0
   -7.5705   -0.6715   -1.2995 C   0  0  0  0  0  0  0  0  0  0  0  0
   -6.2776   -1.0883   -0.9588 C   0  0  0  0  0  0  0  0  0  0  0  0
   -3.5963   -2.2856   -0.6192 C   0  0  0  0  0  0  0  0  0  0  0  0
   -3.1810   -1.9802    0.8285 C   0  0  0  0  0  0  0  0  0  0  0  0
    0.5296    1.2580    2.4142 C   0  0  0  0  0  0  0  0  0  0  0  0
    1.9050    1.4963    2.4180 C   0  0  0  0  0  0  0  0  0  0  0  0
    5.7323   -0.3885    0.7874 H   0  0  0  0  0  0  0  0  0  0  0  0
    3.9288    1.9033   -0.0467 H   0  0  0  0  0  0  0  0  0  0  0  0
    6.5859    2.3289    0.3929 H   0  0  0  0  0  0  0  0  0  0  0  0
    5.8240    2.9370   -1.0841 H   0  0  0  0  0  0  0  0  0  0  0  0
    7.6620    0.5846   -0.7741 H   0  0  0  0  0  0  0  0  0  0  0  0
    7.4678    1.6829   -2.1425 H   0  0  0  0  0  0  0  0  0  0  0  0
    6.2089   -0.9098   -1.6795 H   0  0  0  0  0  0  0  0  0  0  0  0
    6.0434    0.1005   -3.1177 H   0  0  0  0  0  0  0  0  0  0  0  0
    3.9086   -0.3740   -1.4671 H   0  0  0  0  0  0  0  0  0  0  0  0
    4.1196    1.1714   -2.3081 H   0  0  0  0  0  0  0  0  0  0  0  0
    3.0186   -1.7400    2.3799 H   0  0  0  0  0  0  0  0  0  0  0  0
    0.5709   -2.1636    2.3705 H   0  0  0  0  0  0  0  0  0  0  0  0
   -1.0501    0.5133   -0.1231 H   0  0  0  0  0  0  0  0  0  0  0  0
   -1.1012   -0.9709   -1.0530 H   0  0  0  0  0  0  0  0  0  0  0  0
   -2.7493    0.7081   -1.8752 H   0  0  0  0  0  0  0  0  0  0  0  0
   -3.5312    0.7481   -0.2817 H   0  0  0  0  0  0  0  0  0  0  0  0
   -4.5545    0.5254   -3.3910 H   0  0  0  0  0  0  0  0  0  0  0  0
   -6.8228    1.2695   -3.9783 H   0  0  0  0  0  0  0  0  0  0  0  0
   -8.7740    0.5012   -2.6469 H   0  0  0  0  0  0  0  0  0  0  0  0
   -8.4199   -1.0103   -0.7110 H   0  0  0  0  0  0  0  0  0  0  0  0
   -6.1733   -1.7310   -0.0901 H   0  0  0  0  0  0  0  0  0  0  0  0
   -2.7786   -2.8227   -1.1175 H   0  0  0  0  0  0  0  0  0  0  0  0
   -4.4490   -2.9732   -0.6428 H   0  0  0  0  0  0  0  0  0  0  0  0
   -3.0226   -2.9229    1.3632 H   0  0  0  0  0  0  0  0  0  0  0  0
   -3.9840   -1.4261    1.3288 H   0  0  0  0  0  0  0  0  0  0  0  0
   -0.1631    2.0970    2.4415 H   0  0  0  0  0  0  0  0  0  0  0  0
    2.2748    2.5195    2.4480 H   0  0  0  0  0  0  0  0  0  0  0  0
  1  2  2  0
  2  3  2  0
  2  4  1  0
  4  5  1  0
  5  6  1  0
  6  7  1  0
  7  8  1  0
  8  9  1  0
  2 10  1  0
 10 11  2  0
 11 12  1  0
 12 13  2  0
 13 14  1  0
 14 15  2  0
 14 16  2  0
 14 17  1  0
 17 18  1  0
 18 19  1  0
 19 20  1  0
 20 21  1  0
 21 22  2  0
 22 23  1  0
 23 24  2  0
 24 25  1  0
 25 26  2  0
 20 27  1  0
 27 28  1  0
 13 29  1  0
 29 30  2  0
  9  5  1  0
 30 10  1  0
 28 17  1  0
 26 21  1  0
  4 31  1  0
  5 32  1  0
  6 33  1  0
  6 34  1  0
  7 35  1  0
  7 36  1  0
  8 37  1  0
  8 38  1  0
  9 39  1  0
  9 40  1  0
 11 41  1  0
 12 42  1  0
 18 43  1  0
 18 44  1  0
 19 45  1  0
 19 46  1  0
 22 47  1  0
 23 48  1  0
 24 49  1  0
 25 50  1  0
 26 51  1  0
 27 52  1  0
 27 53  1  0
 28 54  1  0
 28 55  1  0
 29 56  1  0
 30 57  1  0
M  END
$$$$
