
     RDKit          3D

 35 37  0  0  0  0  0  0  0  0999 V2000
   -7.2143   -0.1572    0.4182 C   0  0  0  0  0  0  0  0  0  0  0  0
   -5.8188   -0.6923    0.2115 C   0  0  0  0  0  0  0  0  0  0  0  0
   -5.6342   -1.8796   -0.0291 O   0  0  0  0  0  0  0  0  0  0  0  0
   -4.8569    0.2912    0.3565 N   0  0  0  0  0  0  0  0  0  0  0  0
   -3.4592    0.1497    0.2362 C   0  0  0  0  0  0  0  0  0  0  0  0
   -2.8175   -1.0483   -0.0708 C   0  0  0  0  0  0  0  0  0  0  0  0
   -1.4202   -1.0997   -0.1724 C   0  0  0  0  0  0  0  0  0  0  0  0
   -0.6340    0.0420    0.0296 C   0  0  0  0  0  0  0  0  0  0  0  0
    0.8148   -0.0552   -0.0855 C   0  0  0  0  0  0  0  0  0  0  0  0
    1.7279    0.9653    0.0877 C   0  0  0  0  0  0  0  0  0  0  0  0
    2.9616    0.4001   -0.1196 N   0  0  0  0  0  0  0  0  0  0  0  0
    4.2244    0.9861   -0.0674 C   0  0  0  0  0  0  0  0  0  0  0  0
    5.3150    0.2322   -0.3084 C   0  0  0  0  0  0  0  0  0  0  0  0
    6.7150    0.7589   -0.2784 C   0  0  0  0  0  0  0  0  0  0  0  0
    5.1212   -1.1848   -0.6178 C   0  0  0  0  0  0  0  0  0  0  0  0
    3.8941   -1.7401   -0.6653 C   0  0  0  0  0  0  0  0  0  0  0  0
    2.7462   -0.9401   -0.4101 C   0  0  0  0  0  0  0  0  0  0  0  0
    1.4639   -1.2329   -0.3945 N   0  0  0  0  0  0  0  0  0  0  0  0
   -1.2833    1.2429    0.3370 C   0  0  0  0  0  0  0  0  0  0  0  0
   -2.6803    1.2950    0.4387 C   0  0  0  0  0  0  0  0  0  0  0  0
   -7.9329   -0.8141   -0.0806 H   0  0  0  0  0  0  0  0  0  0  0  0
   -7.4348   -0.1241    1.4883 H   0  0  0  0  0  0  0  0  0  0  0  0
   -7.3168    0.8438   -0.0106 H   0  0  0  0  0  0  0  0  0  0  0  0
   -5.1883    1.2199    0.5826 H   0  0  0  0  0  0  0  0  0  0  0  0
   -3.3685   -1.9681   -0.2396 H   0  0  0  0  0  0  0  0  0  0  0  0
   -0.9477   -2.0511   -0.4136 H   0  0  0  0  0  0  0  0  0  0  0  0
    1.6239    2.0112    0.3321 H   0  0  0  0  0  0  0  0  0  0  0  0
    4.2681    2.0415    0.1695 H   0  0  0  0  0  0  0  0  0  0  0  0
    7.1971    0.6261   -1.2527 H   0  0  0  0  0  0  0  0  0  0  0  0
    7.3079    0.2332    0.4775 H   0  0  0  0  0  0  0  0  0  0  0  0
    6.7406    1.8271   -0.0375 H   0  0  0  0  0  0  0  0  0  0  0  0
    5.9998   -1.7939   -0.8123 H   0  0  0  0  0  0  0  0  0  0  0  0
    3.7516   -2.7898   -0.8944 H   0  0  0  0  0  0  0  0  0  0  0  0
   -0.7210    2.1571    0.5025 H   0  0  0  0  0  0  0  0  0  0  0  0
   -3.1443    2.2479    0.6792 H   0  0  0  0  0  0  0  0  0  0  0  0
  1  2  1  0
  2  3  2  0
  2  4  1  0
  4  5  1  0
  5  6  2  0
  6  7  1  0
  7  8  2  0
  8  9  1  0
  9 10  2  0
 10 11  1  0
 11 12  1  0
 12 13  2  0
 13 14  1  0
 13 15  1  0
 15 16  2  0
 16 17  1  0
 17 18  2  0
  8 19  1  0
 19 20  2  0
 20  5  1  0
 18  9  1  0
 17 11  1  0
  1 21  1  0
  1 22  1  0
  1 23  1  0
  4 24  1  0
  6 25  1  0
  7 26  1  0
 10 27  1  0
 12 28  1  0
 14 29  1  0
 14 30  1  0
 14 31  1  0
 15 32  1  0
 16 33  1  0
 19 34  1  0
 20 35  1  0
M  END
$$$$
