
     RDKit          3D

 40 43  0  0  0  0  0  0  0  0999 V2000
   -5.1382    1.3888    1.6979 C   0  0  0  0  0  0  0  0  0  0  0  0
   -4.7399    0.2522    2.5675 C   0  0  0  0  0  0  0  0  0  0  0  0
   -5.5268   -0.0256    3.6813 N   0  0  0  0  0  0  0  0  0  0  0  0
   -5.0802   -1.0711    4.3540 N   0  0  0  0  0  0  0  0  0  0  0  0
   -3.7268   -1.7561    3.6610 S   0  0  0  0  0  0  0  0  0  0  0  0
   -3.6479   -0.5909    2.4045 C   0  0  0  0  0  0  0  0  0  0  0  0
   -2.6687   -0.5938    1.3680 C   0  0  0  0  0  0  0  0  0  0  0  0
   -2.9569   -0.3803    0.0955 N   0  0  0  0  0  0  0  0  0  0  0  0
   -1.8011   -0.5171   -0.6403 N   0  0  0  0  0  0  0  0  0  0  0  0
   -0.8249   -0.7788    0.1986 C   0  0  0  0  0  0  0  0  0  0  0  0
    0.8237   -1.0746   -0.2214 S   0  0  0  0  0  0  0  0  0  0  0  0
    0.6432   -1.4538   -1.9878 C   0  0  0  0  0  0  0  0  0  0  0  0
    2.0118   -1.6534   -2.6018 C   0  0  0  0  0  0  0  0  0  0  0  0
    2.4831   -2.7825   -2.7468 O   0  0  0  0  0  0  0  0  0  0  0  0
    2.8181   -0.4689   -3.0416 C   0  0  0  0  0  0  0  0  0  0  0  0
    4.1005   -0.7016   -3.5627 C   0  0  0  0  0  0  0  0  0  0  0  0
    4.9055    0.3616   -3.9839 C   0  0  0  0  0  0  0  0  0  0  0  0
    4.4368    1.6738   -3.8892 C   0  0  0  0  0  0  0  0  0  0  0  0
    5.2612    2.7676   -4.3148 C   0  0  0  0  0  0  0  0  0  0  0  0
    5.9266    3.6554   -4.6559 N   0  0  0  0  0  0  0  0  0  0  0  0
    3.1577    1.9140   -3.3782 C   0  0  0  0  0  0  0  0  0  0  0  0
    2.3524    0.8494   -2.9515 C   0  0  0  0  0  0  0  0  0  0  0  0
   -1.3119   -0.7836    1.4775 N   0  0  0  0  0  0  0  0  0  0  0  0
   -0.5300   -0.9884    2.7203 C   0  0  0  0  0  0  0  0  0  0  0  0
    0.6199   -0.0859    3.1121 C   0  0  0  0  0  0  0  0  0  0  0  0
   -0.6371   -0.0757    3.9213 C   0  0  0  0  0  0  0  0  0  0  0  0
   -5.8546    2.0385    2.2099 H   0  0  0  0  0  0  0  0  0  0  0  0
   -5.6082    1.0170    0.7816 H   0  0  0  0  0  0  0  0  0  0  0  0
   -4.2707    1.9977    1.4252 H   0  0  0  0  0  0  0  0  0  0  0  0
    0.0896   -0.6819   -2.5296 H   0  0  0  0  0  0  0  0  0  0  0  0
    0.0787   -2.3855   -2.1043 H   0  0  0  0  0  0  0  0  0  0  0  0
    4.4848   -1.7183   -3.6410 H   0  0  0  0  0  0  0  0  0  0  0  0
    5.8977    0.1539   -4.3806 H   0  0  0  0  0  0  0  0  0  0  0  0
    2.7764    2.9316   -3.3082 H   0  0  0  0  0  0  0  0  0  0  0  0
    1.3699    1.0883   -2.5538 H   0  0  0  0  0  0  0  0  0  0  0  0
   -0.3844   -2.0476    2.9257 H   0  0  0  0  0  0  0  0  0  0  0  0
    0.8353    0.7928    2.5137 H   0  0  0  0  0  0  0  0  0  0  0  0
    1.5012   -0.5499    3.5416 H   0  0  0  0  0  0  0  0  0  0  0  0
   -0.6112   -0.5315    4.9052 H   0  0  0  0  0  0  0  0  0  0  0  0
   -1.2548    0.8142    3.8680 H   0  0  0  0  0  0  0  0  0  0  0  0
  1  2  1  0
  2  3  1  0
  3  4  2  0
  4  5  1  0
  5  6  1  0
  6  7  1  0
  7  8  2  0
  8  9  1  0
  9 10  2  0
 10 11  1  0
 11 12  1  0
 12 13  1  0
 13 14  2  0
 13 15  1  0
 15 16  2  0
 16 17  1  0
 17 18  2  0
 18 19  1  0
 19 20  3  0
 18 21  1  0
 21 22  2  0
 10 23  1  0
 23 24  1  0
 24 25  1  0
 25 26  1  0
  6  2  2  0
 23  7  1  0
 26 24  1  0
 22 15  1  0
  1 27  1  0
  1 28  1  0
  1 29  1  0
 12 30  1  0
 12 31  1  0
 16 32  1  0
 17 33  1  0
 21 34  1  0
 22 35  1  0
 24 36  1  0
 25 37  1  0
 25 38  1  0
 26 39  1  0
 26 40  1  0
M  END
$$$$
