
     RDKit          3D

 51 53  0  0  0  0  0  0  0  0999 V2000
   -7.1881    0.0349   -2.2119 C   0  0  0  0  0  0  0  0  0  0  0  0
   -6.2729    0.1866   -1.0282 C   0  0  0  0  0  0  0  0  0  0  0  0
   -6.2699    1.3912   -0.3123 C   0  0  0  0  0  0  0  0  0  0  0  0
   -5.4287    1.5631    0.7877 C   0  0  0  0  0  0  0  0  0  0  0  0
   -4.5812    0.5367    1.2005 C   0  0  0  0  0  0  0  0  0  0  0  0
   -3.8029    0.8418    2.2836 O   0  0  0  0  0  0  0  0  0  0  0  0
   -3.1306   -0.2257    2.9565 C   0  0  0  0  0  0  0  0  0  0  0  0
   -1.7958   -0.4240    2.3484 C   0  0  0  0  0  0  0  0  0  0  0  0
   -0.8887    0.3875    1.7144 C   0  0  0  0  0  0  0  0  0  0  0  0
    0.2008   -0.4643    1.3807 C   0  0  0  0  0  0  0  0  0  0  0  0
    1.4113   -0.0563    0.6456 C   0  0  0  0  0  0  0  0  0  0  0  0
    1.4159    1.0175    0.0379 O   0  0  0  0  0  0  0  0  0  0  0  0
    2.5467   -0.8807    0.6347 N   0  0  0  0  0  0  0  0  0  0  0  0
    2.7647   -2.0066    1.5309 C   0  0  0  0  0  0  0  0  0  0  0  0
    3.6387   -0.5375   -0.2763 C   0  0  0  0  0  0  0  0  0  0  0  0
    4.6353    0.4389    0.3570 C   0  0  0  0  0  0  0  0  0  0  0  0
    5.7647    0.7729   -0.5850 C   0  0  0  0  0  0  0  0  0  0  0  0
    5.6225    1.8085   -1.5186 C   0  0  0  0  0  0  0  0  0  0  0  0
    6.6580    2.1081   -2.4050 C   0  0  0  0  0  0  0  0  0  0  0  0
    7.8418    1.3737   -2.3690 C   0  0  0  0  0  0  0  0  0  0  0  0
    7.9906    0.3381   -1.4481 C   0  0  0  0  0  0  0  0  0  0  0  0
    6.9563    0.0366   -0.5604 C   0  0  0  0  0  0  0  0  0  0  0  0
   -0.0634   -1.7217    1.7785 N   0  0  0  0  0  0  0  0  0  0  0  0
   -1.2973   -1.6865    2.3949 O   0  0  0  0  0  0  0  0  0  0  0  0
   -4.5690   -0.6630    0.4879 C   0  0  0  0  0  0  0  0  0  0  0  0
   -5.4122   -0.8528   -0.6239 C   0  0  0  0  0  0  0  0  0  0  0  0
   -5.3619   -2.1599   -1.3687 C   0  0  0  0  0  0  0  0  0  0  0  0
   -6.6089   -0.1694   -3.1179 H   0  0  0  0  0  0  0  0  0  0  0  0
   -7.7680    0.9465   -2.3916 H   0  0  0  0  0  0  0  0  0  0  0  0
   -7.8988   -0.7795   -2.0408 H   0  0  0  0  0  0  0  0  0  0  0  0
   -6.9213    2.2105   -0.6078 H   0  0  0  0  0  0  0  0  0  0  0  0
   -5.4373    2.5071    1.3267 H   0  0  0  0  0  0  0  0  0  0  0  0
   -3.7325   -1.1411    2.9882 H   0  0  0  0  0  0  0  0  0  0  0  0
   -2.9952    0.0920    3.9966 H   0  0  0  0  0  0  0  0  0  0  0  0
   -0.9897    1.4424    1.5025 H   0  0  0  0  0  0  0  0  0  0  0  0
    2.3176   -1.8195    2.5096 H   0  0  0  0  0  0  0  0  0  0  0  0
    2.3382   -2.9053    1.0772 H   0  0  0  0  0  0  0  0  0  0  0  0
    3.8378   -2.1593    1.6818 H   0  0  0  0  0  0  0  0  0  0  0  0
    4.1349   -1.4656   -0.5855 H   0  0  0  0  0  0  0  0  0  0  0  0
    3.2147   -0.0968   -1.1872 H   0  0  0  0  0  0  0  0  0  0  0  0
    4.1275    1.3635    0.6590 H   0  0  0  0  0  0  0  0  0  0  0  0
    5.0438    0.0163    1.2838 H   0  0  0  0  0  0  0  0  0  0  0  0
    4.7017    2.3873   -1.5599 H   0  0  0  0  0  0  0  0  0  0  0  0
    6.5398    2.9146   -3.1241 H   0  0  0  0  0  0  0  0  0  0  0  0
    8.6476    1.6080   -3.0594 H   0  0  0  0  0  0  0  0  0  0  0  0
    8.9134   -0.2355   -1.4215 H   0  0  0  0  0  0  0  0  0  0  0  0
    7.0876   -0.7758    0.1506 H   0  0  0  0  0  0  0  0  0  0  0  0
   -3.8964   -1.4699    0.7627 H   0  0  0  0  0  0  0  0  0  0  0  0
   -6.3504   -2.6301   -1.3813 H   0  0  0  0  0  0  0  0  0  0  0  0
   -5.0207   -1.9976   -2.3960 H   0  0  0  0  0  0  0  0  0  0  0  0
   -4.6701   -2.8661   -0.8977 H   0  0  0  0  0  0  0  0  0  0  0  0
  1  2  1  0
  2  3  2  0
  3  4  1  0
  4  5  2  0
  5  6  1  0
  6  7  1  0
  7  8  1  0
  8  9  2  0
  9 10  1  0
 10 11  1  0
 11 12  2  0
 11 13  1  0
 13 14  1  0
 13 15  1  0
 15 16  1  0
 16 17  1  0
 17 18  2  0
 18 19  1  0
 19 20  2  0
 20 21  1  0
 21 22  2  0
 10 23  2  0
 23 24  1  0
  5 25  1  0
 25 26  2  0
 26 27  1  0
 26  2  1  0
 24  8  1  0
 22 17  1  0
  1 28  1  0
  1 29  1  0
  1 30  1  0
  3 31  1  0
  4 32  1  0
  7 33  1  0
  7 34  1  0
  9 35  1  0
 14 36  1  0
 14 37  1  0
 14 38  1  0
 15 39  1  0
 15 40  1  0
 16 41  1  0
 16 42  1  0
 18 43  1  0
 19 44  1  0
 20 45  1  0
 21 46  1  0
 22 47  1  0
 25 48  1  0
 27 49  1  0
 27 50  1  0
 27 51  1  0
M  END
$$$$
