
     RDKit          3D

 50 53  0  0  0  0  0  0  0  0999 V2000
   -6.1906    0.4296    1.1919 C   0  0  0  0  0  0  0  0  0  0  0  0
   -4.9289   -0.0091    0.4517 C   0  0  0  0  0  0  0  0  0  0  0  0
   -5.1412    0.0332   -1.0706 C   0  0  0  0  0  0  0  0  0  0  0  0
   -3.8421    0.2812   -1.8545 C   0  0  0  0  0  0  0  0  0  0  0  0
   -3.9404   -0.2910   -3.2671 C   0  0  0  0  0  0  0  0  0  0  0  0
   -2.6145   -0.2686   -1.1142 C   0  0  0  0  0  0  0  0  0  0  0  0
   -2.5174    0.3300    0.2101 N   0  0  0  0  0  0  0  0  0  0  0  0
   -1.2822    0.6350    0.7334 C   0  0  0  0  0  0  0  0  0  0  0  0
   -1.2133    1.3921    1.8430 N   0  0  0  0  0  0  0  0  0  0  0  0
    0.0080    1.6736    2.3453 C   0  0  0  0  0  0  0  0  0  0  0  0
    1.1730    1.2207    1.7812 C   0  0  0  0  0  0  0  0  0  0  0  0
    1.0314    0.4445    0.6538 C   0  0  0  0  0  0  0  0  0  0  0  0
   -0.1795    0.1564    0.1248 N   0  0  0  0  0  0  0  0  0  0  0  0
    2.2338   -0.0936   -0.0728 C   0  0  0  0  0  0  0  0  0  0  0  0
    3.4083   -0.2997    0.8954 C   0  0  0  0  0  0  0  0  0  0  0  0
    4.6343   -0.8510    0.1880 C   0  0  0  0  0  0  0  0  0  0  0  0
    5.2922   -0.1299   -0.8215 C   0  0  0  0  0  0  0  0  0  0  0  0
    6.4175   -0.6603   -1.4582 C   0  0  0  0  0  0  0  0  0  0  0  0
    6.8945   -1.9157   -1.0917 C   0  0  0  0  0  0  0  0  0  0  0  0
    8.2794   -2.5678   -1.8764 Cl  0  0  0  0  0  0  0  0  0  0  0  0
    6.2556   -2.6456   -0.0937 C   0  0  0  0  0  0  0  0  0  0  0  0
    5.1304   -2.1157    0.5432 C   0  0  0  0  0  0  0  0  0  0  0  0
    3.7168    1.0046    1.6413 C   0  0  0  0  0  0  0  0  0  0  0  0
    2.4915    1.5420    2.3477 C   0  0  0  0  0  0  0  0  0  0  0  0
    2.5732    2.2672    3.3340 O   0  0  0  0  0  0  0  0  0  0  0  0
   -3.7128    0.8239    0.8792 C   0  0  0  0  0  0  0  0  0  0  0  0
   -6.4339    1.4757    0.9771 H   0  0  0  0  0  0  0  0  0  0  0  0
   -6.0607    0.3286    2.2745 H   0  0  0  0  0  0  0  0  0  0  0  0
   -7.0469   -0.1864    0.8978 H   0  0  0  0  0  0  0  0  0  0  0  0
   -4.7321   -1.0546    0.7288 H   0  0  0  0  0  0  0  0  0  0  0  0
   -5.6038   -0.9137   -1.3783 H   0  0  0  0  0  0  0  0  0  0  0  0
   -5.8593    0.8185   -1.3404 H   0  0  0  0  0  0  0  0  0  0  0  0
   -3.7154    1.3692   -1.9491 H   0  0  0  0  0  0  0  0  0  0  0  0
   -4.8044    0.1258   -3.7953 H   0  0  0  0  0  0  0  0  0  0  0  0
   -4.0464   -1.3809   -3.2480 H   0  0  0  0  0  0  0  0  0  0  0  0
   -3.0439   -0.0490   -3.8476 H   0  0  0  0  0  0  0  0  0  0  0  0
   -2.6836   -1.3589   -1.0131 H   0  0  0  0  0  0  0  0  0  0  0  0
   -1.7298   -0.0545   -1.7268 H   0  0  0  0  0  0  0  0  0  0  0  0
    0.0086    2.2918    3.2389 H   0  0  0  0  0  0  0  0  0  0  0  0
    2.4929    0.6139   -0.8701 H   0  0  0  0  0  0  0  0  0  0  0  0
    1.9756   -1.0452   -0.5542 H   0  0  0  0  0  0  0  0  0  0  0  0
    3.0873   -1.0358    1.6481 H   0  0  0  0  0  0  0  0  0  0  0  0
    4.9395    0.8530   -1.1267 H   0  0  0  0  0  0  0  0  0  0  0  0
    6.9157   -0.0894   -2.2375 H   0  0  0  0  0  0  0  0  0  0  0  0
    6.6264   -3.6260    0.1939 H   0  0  0  0  0  0  0  0  0  0  0  0
    4.6459   -2.7035    1.3208 H   0  0  0  0  0  0  0  0  0  0  0  0
    4.4913    0.8205    2.3957 H   0  0  0  0  0  0  0  0  0  0  0  0
    4.0806    1.7886    0.9672 H   0  0  0  0  0  0  0  0  0  0  0  0
   -3.8667    1.8829    0.6358 H   0  0  0  0  0  0  0  0  0  0  0  0
   -3.6140    0.7436    1.9693 H   0  0  0  0  0  0  0  0  0  0  0  0
  1  2  1  0
  2  3  1  0
  3  4  1  0
  4  5  1  0
  4  6  1  0
  6  7  1  0
  7  8  1  0
  8  9  2  0
  9 10  1  0
 10 11  2  0
 11 12  1  0
 12 13  2  0
 12 14  1  0
 14 15  1  0
 15 16  1  0
 16 17  2  0
 17 18  1  0
 18 19  2  0
 19 20  1  0
 19 21  1  0
 21 22  2  0
 15 23  1  0
 23 24  1  0
 24 25  2  0
  7 26  1  0
 26  2  1  0
 13  8  1  0
 22 16  1  0
 24 11  1  0
  1 27  1  0
  1 28  1  0
  1 29  1  0
  2 30  1  0
  3 31  1  0
  3 32  1  0
  4 33  1  0
  5 34  1  0
  5 35  1  0
  5 36  1  0
  6 37  1  0
  6 38  1  0
 10 39  1  0
 14 40  1  0
 14 41  1  0
 15 42  1  0
 17 43  1  0
 18 44  1  0
 21 45  1  0
 22 46  1  0
 23 47  1  0
 23 48  1  0
 26 49  1  0
 26 50  1  0
M  END
$$$$
