
     RDKit          3D

 30 31  0  0  0  0  0  0  0  0999 V2000
    0.1871    1.1310   -2.7263 C   0  0  0  0  0  0  0  0  0  0  0  0
    0.4660    0.6369   -1.4192 O   0  0  0  0  0  0  0  0  0  0  0  0
   -0.5874    0.4366   -0.5618 C   0  0  0  0  0  0  0  0  0  0  0  0
   -1.9245    0.6789   -0.9208 C   0  0  0  0  0  0  0  0  0  0  0  0
   -2.9736    0.4533   -0.0200 C   0  0  0  0  0  0  0  0  0  0  0  0
   -4.6441    0.7999   -0.5446 S   0  0  0  0  0  0  0  0  0  0  0  0
   -5.4616   -0.7541   -0.0902 C   0  0  0  0  0  0  0  0  0  0  0  0
   -2.6828    0.0043    1.2651 C   0  0  0  0  0  0  0  0  0  0  0  0
   -1.3595   -0.2425    1.6362 C   0  0  0  0  0  0  0  0  0  0  0  0
   -0.2964   -0.0360    0.7361 C   0  0  0  0  0  0  0  0  0  0  0  0
    1.0862   -0.3435    1.2595 C   0  0  0  0  0  0  0  0  0  0  0  0
    1.1826   -0.7901    2.3989 O   0  0  0  0  0  0  0  0  0  0  0  0
    2.1300   -0.0929    0.4043 N   0  0  0  0  0  0  0  0  0  0  0  0
    3.4685   -0.2784    0.6269 C   0  0  0  0  0  0  0  0  0  0  0  0
    4.3532    0.0067   -0.3025 N   0  0  0  0  0  0  0  0  0  0  0  0
    5.6226   -0.2665    0.1689 C   0  0  0  0  0  0  0  0  0  0  0  0
    5.6840   -0.7570    1.4545 C   0  0  0  0  0  0  0  0  0  0  0  0
    4.0990   -0.8791    2.0919 S   0  0  0  0  0  0  0  0  0  0  0  0
    1.1409    1.2328   -3.2527 H   0  0  0  0  0  0  0  0  0  0  0  0
   -0.2759    2.1221   -2.6825 H   0  0  0  0  0  0  0  0  0  0  0  0
   -0.4303    0.4247   -3.2906 H   0  0  0  0  0  0  0  0  0  0  0  0
   -2.1814    1.0455   -1.9103 H   0  0  0  0  0  0  0  0  0  0  0  0
   -4.9322   -1.6079   -0.5220 H   0  0  0  0  0  0  0  0  0  0  0  0
   -5.5130   -0.8659    0.9958 H   0  0  0  0  0  0  0  0  0  0  0  0
   -6.4825   -0.7456   -0.4816 H   0  0  0  0  0  0  0  0  0  0  0  0
   -3.4697   -0.1470    1.9994 H   0  0  0  0  0  0  0  0  0  0  0  0
   -1.1607   -0.5952    2.6480 H   0  0  0  0  0  0  0  0  0  0  0  0
    1.9263    0.2708   -0.5186 H   0  0  0  0  0  0  0  0  0  0  0  0
    6.4767   -0.0879   -0.4727 H   0  0  0  0  0  0  0  0  0  0  0  0
    6.5524   -1.0399    2.0310 H   0  0  0  0  0  0  0  0  0  0  0  0
  1  2  1  0
  2  3  1  0
  3  4  2  0
  4  5  1  0
  5  6  1  0
  6  7  1  0
  5  8  2  0
  8  9  1  0
  9 10  2  0
 10 11  1  0
 11 12  2  0
 11 13  1  0
 13 14  1  0
 14 15  2  0
 15 16  1  0
 16 17  2  0
 17 18  1  0
 10  3  1  0
 18 14  1  0
  1 19  1  0
  1 20  1  0
  1 21  1  0
  4 22  1  0
  7 23  1  0
  7 24  1  0
  7 25  1  0
  8 26  1  0
  9 27  1  0
 13 28  1  0
 16 29  1  0
 17 30  1  0
M  END
$$$$
