
     RDKit          3D

 53 56  0  0  0  0  0  0  0  0999 V2000
   -0.7970    1.0608    2.5787 C   0  0  0  0  0  0  0  0  0  0  0  0
   -1.2762    0.4322    1.2967 C   0  0  0  0  0  0  0  0  0  0  0  0
   -0.3568   -0.1065    0.3823 C   0  0  0  0  0  0  0  0  0  0  0  0
    0.9622   -0.0343    0.7389 O   0  0  0  0  0  0  0  0  0  0  0  0
    1.9504   -0.0296   -0.2934 C   0  0  0  0  0  0  0  0  0  0  0  0
    2.5955   -1.4130   -0.3564 C   0  0  0  0  0  0  0  0  0  0  0  0
    3.0252    1.0257    0.0440 C   0  0  0  0  0  0  0  0  0  0  0  0
    3.0732    1.6390    1.1084 O   0  0  0  0  0  0  0  0  0  0  0  0
    3.9349    1.2496   -0.9751 N   0  0  0  0  0  0  0  0  0  0  0  0
    5.1265    2.0411   -0.7374 C   0  0  0  0  0  0  0  0  0  0  0  0
    6.2706    1.1521   -0.3043 C   0  0  0  0  0  0  0  0  0  0  0  0
    6.6169    1.0502    1.0412 C   0  0  0  0  0  0  0  0  0  0  0  0
    7.6436    0.1835    1.4060 C   0  0  0  0  0  0  0  0  0  0  0  0
    8.2883   -0.5611    0.4255 C   0  0  0  0  0  0  0  0  0  0  0  0
    7.8732   -0.4126   -0.8877 C   0  0  0  0  0  0  0  0  0  0  0  0
    6.8769    0.4151   -1.2735 N   0  0  0  0  0  0  0  0  0  0  0  0
   -0.8227   -0.7231   -0.7805 C   0  0  0  0  0  0  0  0  0  0  0  0
   -2.1966   -0.8004   -1.0471 C   0  0  0  0  0  0  0  0  0  0  0  0
   -3.1376   -0.2856   -0.1477 C   0  0  0  0  0  0  0  0  0  0  0  0
   -4.5937   -0.3561   -0.3662 C   0  0  0  0  0  0  0  0  0  0  0  0
   -5.4239    0.1881    0.5461 C   0  0  0  0  0  0  0  0  0  0  0  0
   -4.9211    0.8175    1.7919 C   0  0  0  0  0  0  0  0  0  0  0  0
   -5.6823    1.2810    2.6350 O   0  0  0  0  0  0  0  0  0  0  0  0
   -3.5494    0.8495    1.9643 O   0  0  0  0  0  0  0  0  0  0  0  0
   -2.6513    0.3201    1.0126 C   0  0  0  0  0  0  0  0  0  0  0  0
   -6.9241    0.2136    0.3881 C   0  0  0  0  0  0  0  0  0  0  0  0
   -7.3908   -0.1190   -1.0284 C   0  0  0  0  0  0  0  0  0  0  0  0
   -6.6287   -1.3161   -1.5754 C   0  0  0  0  0  0  0  0  0  0  0  0
   -5.1224   -1.0411   -1.6067 C   0  0  0  0  0  0  0  0  0  0  0  0
   -0.6073    0.2815    3.3251 H   0  0  0  0  0  0  0  0  0  0  0  0
    0.1229    1.6339    2.4170 H   0  0  0  0  0  0  0  0  0  0  0  0
   -1.5281    1.7672    2.9882 H   0  0  0  0  0  0  0  0  0  0  0  0
    1.5309    0.2613   -1.2646 H   0  0  0  0  0  0  0  0  0  0  0  0
    3.1140   -1.6414    0.5834 H   0  0  0  0  0  0  0  0  0  0  0  0
    1.8418   -2.1951   -0.4976 H   0  0  0  0  0  0  0  0  0  0  0  0
    3.3261   -1.4863   -1.1689 H   0  0  0  0  0  0  0  0  0  0  0  0
    4.0223    0.5643   -1.7142 H   0  0  0  0  0  0  0  0  0  0  0  0
    5.3870    2.5277   -1.6844 H   0  0  0  0  0  0  0  0  0  0  0  0
    4.9315    2.8285   -0.0003 H   0  0  0  0  0  0  0  0  0  0  0  0
    6.0853    1.6246    1.7959 H   0  0  0  0  0  0  0  0  0  0  0  0
    7.9319    0.0847    2.4494 H   0  0  0  0  0  0  0  0  0  0  0  0
    9.0913   -1.2445    0.6791 H   0  0  0  0  0  0  0  0  0  0  0  0
    8.3439   -0.9743   -1.6904 H   0  0  0  0  0  0  0  0  0  0  0  0
   -0.1435   -1.1787   -1.4944 H   0  0  0  0  0  0  0  0  0  0  0  0
   -2.5025   -1.2859   -1.9701 H   0  0  0  0  0  0  0  0  0  0  0  0
   -7.3607   -0.5068    1.0925 H   0  0  0  0  0  0  0  0  0  0  0  0
   -7.3213    1.2023    0.6503 H   0  0  0  0  0  0  0  0  0  0  0  0
   -8.4672   -0.3259   -1.0238 H   0  0  0  0  0  0  0  0  0  0  0  0
   -7.2345    0.7473   -1.6844 H   0  0  0  0  0  0  0  0  0  0  0  0
   -6.9798   -1.5593   -2.5848 H   0  0  0  0  0  0  0  0  0  0  0  0
   -6.8289   -2.1953   -0.9484 H   0  0  0  0  0  0  0  0  0  0  0  0
   -4.8944   -0.4117   -2.4776 H   0  0  0  0  0  0  0  0  0  0  0  0
   -4.6237   -2.0061   -1.7568 H   0  0  0  0  0  0  0  0  0  0  0  0
  1  2  1  0
  2  3  2  0
  3  4  1  0
  4  5  1  0
  5  6  1  0
  5  7  1  0
  7  8  2  0
  7  9  1  0
  9 10  1  0
 10 11  1  0
 11 12  2  0
 12 13  1  0
 13 14  2  0
 14 15  1  0
 15 16  2  0
  3 17  1  0
 17 18  2  0
 18 19  1  0
 19 20  1  0
 20 21  2  0
 21 22  1  0
 22 23  2  0
 22 24  1  0
 24 25  1  0
 21 26  1  0
 26 27  1  0
 27 28  1  0
 28 29  1  0
 25  2  1  0
 16 11  1  0
 25 19  2  0
 29 20  1  0
  1 30  1  0
  1 31  1  0
  1 32  1  0
  5 33  1  0
  6 34  1  0
  6 35  1  0
  6 36  1  0
  9 37  1  0
 10 38  1  0
 10 39  1  0
 12 40  1  0
 13 41  1  0
 14 42  1  0
 15 43  1  0
 17 44  1  0
 18 45  1  0
 26 46  1  0
 26 47  1  0
 27 48  1  0
 27 49  1  0
 28 50  1  0
 28 51  1  0
 29 52  1  0
 29 53  1  0
M  END
$$$$
