
     RDKit          3D

 39 41  0  0  0  0  0  0  0  0999 V2000
   -4.6691    2.5014   -1.3818 C   0  0  0  0  0  0  0  0  0  0  0  0
   -4.0487    1.3344   -0.6742 C   0  0  0  0  0  0  0  0  0  0  0  0
   -2.6890    1.3075   -0.4302 C   0  0  0  0  0  0  0  0  0  0  0  0
   -2.1677    0.2000    0.2402 C   0  0  0  0  0  0  0  0  0  0  0  0
   -0.7094    0.1766    0.4901 C   0  0  0  0  0  0  0  0  0  0  0  0
   -0.3063    0.2102    1.6458 O   0  0  0  0  0  0  0  0  0  0  0  0
    0.0489    0.1333   -0.6725 N   0  0  0  0  0  0  0  0  0  0  0  0
    1.4089    0.2618   -0.7658 N   0  0  0  0  0  0  0  0  0  0  0  0
    2.1452   -0.0962    0.2367 C   0  0  0  0  0  0  0  0  0  0  0  0
    3.6140    0.0726    0.2062 C   0  0  0  0  0  0  0  0  0  0  0  0
    4.3571   -0.3250    1.3238 C   0  0  0  0  0  0  0  0  0  0  0  0
    5.7458   -0.1782    1.3284 C   0  0  0  0  0  0  0  0  0  0  0  0
    6.3948    0.3658    0.2184 C   0  0  0  0  0  0  0  0  0  0  0  0
    5.6439    0.7636   -0.8980 C   0  0  0  0  0  0  0  0  0  0  0  0
    6.3271    1.3364   -2.0645 N   0  0  0  0  0  4  0  0  0  0  0  0
    7.5601    1.4499   -2.0107 O   0  0  0  0  0  0  0  0  0  0  0  0
    5.6328    1.6715   -3.0342 O   0  0  0  0  0  1  0  0  0  0  0  0
    4.2511    0.6202   -0.9115 C   0  0  0  0  0  0  0  0  0  0  0  0
   -2.9994   -0.8540    0.6734 C   0  0  0  0  0  0  0  0  0  0  0  0
   -2.5523   -2.0063    1.3679 C   0  0  0  0  0  0  0  0  0  0  0  0
   -3.4448   -3.0065    1.7481 C   0  0  0  0  0  0  0  0  0  0  0  0
   -4.7910   -2.8725    1.4405 C   0  0  0  0  0  0  0  0  0  0  0  0
   -5.2348   -1.7384    0.7562 C   0  0  0  0  0  0  0  0  0  0  0  0
   -4.3669   -0.7266    0.3668 C   0  0  0  0  0  0  0  0  0  0  0  0
   -4.8717    0.3322   -0.2924 N   0  0  0  0  0  0  0  0  0  0  0  0
   -5.7485    2.3590   -1.4965 H   0  0  0  0  0  0  0  0  0  0  0  0
   -4.5054    3.4205   -0.8106 H   0  0  0  0  0  0  0  0  0  0  0  0
   -4.2326    2.6146   -2.3791 H   0  0  0  0  0  0  0  0  0  0  0  0
   -2.0530    2.1328   -0.7345 H   0  0  0  0  0  0  0  0  0  0  0  0
   -0.4247    0.2286   -1.5667 H   0  0  0  0  0  0  0  0  0  0  0  0
    1.7423   -0.5681    1.1472 H   0  0  0  0  0  0  0  0  0  0  0  0
    3.8632   -0.7462    2.1974 H   0  0  0  0  0  0  0  0  0  0  0  0
    6.3222   -0.4862    2.1985 H   0  0  0  0  0  0  0  0  0  0  0  0
    7.4778    0.4740    0.2387 H   0  0  0  0  0  0  0  0  0  0  0  0
    3.6630    0.9279   -1.7738 H   0  0  0  0  0  0  0  0  0  0  0  0
   -1.5016   -2.1262    1.6265 H   0  0  0  0  0  0  0  0  0  0  0  0
   -3.0887   -3.8820    2.2851 H   0  0  0  0  0  0  0  0  0  0  0  0
   -5.5002   -3.6428    1.7317 H   0  0  0  0  0  0  0  0  0  0  0  0
   -6.2923   -1.6398    0.5201 H   0  0  0  0  0  0  0  0  0  0  0  0
  1  2  1  0
  2  3  2  0
  3  4  1  0
  4  5  1  0
  5  6  2  0
  5  7  1  0
  7  8  1  0
  8  9  2  3
  9 10  1  0
 10 11  2  0
 11 12  1  0
 12 13  2  0
 13 14  1  0
 14 15  1  0
 15 16  2  0
 15 17  1  0
 14 18  2  0
  4 19  2  0
 19 20  1  0
 20 21  2  0
 21 22  1  0
 22 23  2  0
 23 24  1  0
 24 25  2  0
 25  2  1  0
 18 10  1  0
 24 19  1  0
  1 26  1  0
  1 27  1  0
  1 28  1  0
  3 29  1  0
  7 30  1  0
  9 31  1  0
 11 32  1  0
 12 33  1  0
 13 34  1  0
 18 35  1  0
 20 36  1  0
 21 37  1  0
 22 38  1  0
 23 39  1  0
M  CHG  2  15   1  17  -1
M  END
$$$$
