
     RDKit          3D

 51 54  0  0  0  0  0  0  0  0999 V2000
    7.5764   -1.5325    2.2739 C   0  0  0  0  0  0  0  0  0  0  0  0
    6.3916   -1.2141    1.4107 C   0  0  0  0  0  0  0  0  0  0  0  0
    6.5613   -0.9325    0.0509 C   0  0  0  0  0  0  0  0  0  0  0  0
    5.4625   -0.6062   -0.7468 C   0  0  0  0  0  0  0  0  0  0  0  0
    4.1757   -0.5406   -0.1953 C   0  0  0  0  0  0  0  0  0  0  0  0
    2.9938   -0.2032   -1.0698 C   0  0  0  0  0  0  0  0  0  0  0  0
    2.6782   -1.3103   -1.9622 N   0  0  0  0  0  0  0  0  0  0  0  0
    1.6096   -1.0702   -3.2213 S   0  0  0  0  0  6  0  0  0  0  0  0
    2.0767    0.0608   -3.9922 O   0  0  0  0  0  0  0  0  0  0  0  0
    1.3719   -2.3619   -3.8245 O   0  0  0  0  0  0  0  0  0  0  0  0
    0.1198   -0.5873   -2.3808 C   0  0  0  0  0  0  0  0  0  0  0  0
   -0.6070   -1.5595   -1.6724 C   0  0  0  0  0  0  0  0  0  0  0  0
   -1.7766   -1.2038   -0.9925 C   0  0  0  0  0  0  0  0  0  0  0  0
   -2.2034    0.1143   -1.0464 C   0  0  0  0  0  0  0  0  0  0  0  0
   -1.4820    1.0698   -1.7677 C   0  0  0  0  0  0  0  0  0  0  0  0
   -0.3156    0.7399   -2.4427 C   0  0  0  0  0  0  0  0  0  0  0  0
   -2.1153    2.4200   -1.6691 C   0  0  0  0  0  0  0  0  0  0  0  0
   -3.4037    2.1121   -0.8970 C   0  0  0  0  0  0  0  0  0  0  0  0
   -3.3377    0.7075   -0.4611 N   0  0  0  0  0  0  0  0  0  0  0  0
   -4.2679    0.0697    0.3553 C   0  0  0  0  0  0  0  0  0  0  0  0
   -4.1619   -1.1139    0.6972 O   0  0  0  0  0  0  0  0  0  0  0  0
   -5.4671    0.9540    0.8262 C   0  0  0  0  0  0  0  0  0  0  0  0
   -5.2507    1.8124    2.1035 C   0  0  0  0  0  0  0  0  0  0  0  0
   -5.9349    0.6947    2.9093 C   0  0  0  0  0  0  0  0  0  0  0  0
   -6.6191    0.2556    1.6035 C   0  0  0  0  0  0  0  0  0  0  0  0
    4.0083   -0.8165    1.1678 C   0  0  0  0  0  0  0  0  0  0  0  0
    5.1087   -1.1424    1.9648 C   0  0  0  0  0  0  0  0  0  0  0  0
    7.2924   -2.1949    3.0984 H   0  0  0  0  0  0  0  0  0  0  0  0
    8.3527   -2.0467    1.6976 H   0  0  0  0  0  0  0  0  0  0  0  0
    7.9954   -0.6106    2.6888 H   0  0  0  0  0  0  0  0  0  0  0  0
    7.5511   -0.9697   -0.3990 H   0  0  0  0  0  0  0  0  0  0  0  0
    5.6126   -0.4057   -1.8064 H   0  0  0  0  0  0  0  0  0  0  0  0
    2.1277    0.0148   -0.4353 H   0  0  0  0  0  0  0  0  0  0  0  0
    3.2231    0.7057   -1.6370 H   0  0  0  0  0  0  0  0  0  0  0  0
    2.7056   -2.2560   -1.5873 H   0  0  0  0  0  0  0  0  0  0  0  0
   -0.2711   -2.5944   -1.6515 H   0  0  0  0  0  0  0  0  0  0  0  0
   -2.3296   -1.9640   -0.4504 H   0  0  0  0  0  0  0  0  0  0  0  0
    0.2378    1.4916   -2.9987 H   0  0  0  0  0  0  0  0  0  0  0  0
   -2.3322    2.8457   -2.6532 H   0  0  0  0  0  0  0  0  0  0  0  0
   -1.4746    3.1043   -1.1038 H   0  0  0  0  0  0  0  0  0  0  0  0
   -4.2827    2.2313   -1.5411 H   0  0  0  0  0  0  0  0  0  0  0  0
   -3.5218    2.7705   -0.0305 H   0  0  0  0  0  0  0  0  0  0  0  0
   -5.8778    1.5363   -0.0092 H   0  0  0  0  0  0  0  0  0  0  0  0
   -5.8056    2.7577    2.0941 H   0  0  0  0  0  0  0  0  0  0  0  0
   -4.2132    2.0160    2.3821 H   0  0  0  0  0  0  0  0  0  0  0  0
   -6.6032    1.0255    3.7081 H   0  0  0  0  0  0  0  0  0  0  0  0
   -5.2372   -0.0478    3.3132 H   0  0  0  0  0  0  0  0  0  0  0  0
   -6.7207   -0.8243    1.4667 H   0  0  0  0  0  0  0  0  0  0  0  0
   -7.5991    0.7203    1.4416 H   0  0  0  0  0  0  0  0  0  0  0  0
    3.0211   -0.7784    1.6232 H   0  0  0  0  0  0  0  0  0  0  0  0
    4.9575   -1.3435    3.0233 H   0  0  0  0  0  0  0  0  0  0  0  0
  1  2  1  0
  2  3  2  0
  3  4  1  0
  4  5  2  0
  5  6  1  0
  6  7  1  0
  7  8  1  0
  8  9  2  0
  8 10  2  0
  8 11  1  0
 11 12  2  0
 12 13  1  0
 13 14  2  0
 14 15  1  0
 15 16  2  0
 15 17  1  0
 17 18  1  0
 18 19  1  0
 19 20  1  0
 20 21  2  0
 20 22  1  0
 22 23  1  0
 23 24  1  0
 24 25  1  0
  5 26  1  0
 26 27  2  0
 27  2  1  0
 16 11  1  0
 25 22  1  0
 19 14  1  0
  1 28  1  0
  1 29  1  0
  1 30  1  0
  3 31  1  0
  4 32  1  0
  6 33  1  0
  6 34  1  0
  7 35  1  0
 12 36  1  0
 13 37  1  0
 16 38  1  0
 17 39  1  0
 17 40  1  0
 18 41  1  0
 18 42  1  0
 22 43  1  0
 23 44  1  0
 23 45  1  0
 24 46  1  0
 24 47  1  0
 25 48  1  0
 25 49  1  0
 26 50  1  0
 27 51  1  0
M  END
$$$$
