
     RDKit          3D

 36 37  0  0  0  0  0  0  0  0999 V2000
   -0.5783   -2.6466    1.4391 C   0  0  0  0  0  0  0  0  0  0  0  0
    0.2391   -2.4078    0.3016 O   0  0  0  0  0  0  0  0  0  0  0  0
    1.3277   -1.5948    0.4618 C   0  0  0  0  0  0  0  0  0  0  0  0
    1.8036   -1.1329    1.6923 C   0  0  0  0  0  0  0  0  0  0  0  0
    2.9330   -0.3124    1.7506 C   0  0  0  0  0  0  0  0  0  0  0  0
    3.5977    0.0462    0.5822 C   0  0  0  0  0  0  0  0  0  0  0  0
    3.1302   -0.4078   -0.6501 C   0  0  0  0  0  0  0  0  0  0  0  0
    1.9884   -1.2231   -0.7250 C   0  0  0  0  0  0  0  0  0  0  0  0
    1.4999   -1.6953   -2.0824 C   0  0  0  0  0  0  0  0  0  0  0  0
    0.0536   -1.3603   -2.4327 C   0  0  0  0  0  0  0  0  0  0  0  0
   -0.5932   -2.1189   -3.1538 O   0  0  0  0  0  0  0  0  0  0  0  0
   -0.3655   -0.1072   -2.0232 N   0  0  0  0  0  0  0  0  0  0  0  0
   -1.6931    0.2037   -1.8026 C   0  0  0  0  0  0  0  0  0  0  0  0
   -2.6354   -0.2521   -2.4429 O   0  0  0  0  0  0  0  0  0  0  0  0
   -1.9722    1.2394   -0.7501 C   0  0  0  0  0  0  0  0  0  0  0  0
   -3.3189    1.5448   -0.4900 C   0  0  0  0  0  0  0  0  0  0  0  0
   -3.6673    2.4729    0.4941 C   0  0  0  0  0  0  0  0  0  0  0  0
   -2.6735    3.1072    1.2342 C   0  0  0  0  0  0  0  0  0  0  0  0
   -1.3308    2.8205    0.9904 C   0  0  0  0  0  0  0  0  0  0  0  0
   -0.9841    1.8944    0.0020 C   0  0  0  0  0  0  0  0  0  0  0  0
    0.3431    1.6400   -0.2223 O   0  0  0  0  0  0  0  0  0  0  0  0
   -1.4372   -3.2407    1.1137 H   0  0  0  0  0  0  0  0  0  0  0  0
   -0.9593   -1.7077    1.8562 H   0  0  0  0  0  0  0  0  0  0  0  0
   -0.0394   -3.2260    2.1955 H   0  0  0  0  0  0  0  0  0  0  0  0
    1.3253   -1.4057    2.6272 H   0  0  0  0  0  0  0  0  0  0  0  0
    3.3048    0.0288    2.7133 H   0  0  0  0  0  0  0  0  0  0  0  0
    4.4869    0.6705    0.6304 H   0  0  0  0  0  0  0  0  0  0  0  0
    3.6659   -0.1240   -1.5542 H   0  0  0  0  0  0  0  0  0  0  0  0
    2.1233   -1.2750   -2.8819 H   0  0  0  0  0  0  0  0  0  0  0  0
    1.6195   -2.7853   -2.1226 H   0  0  0  0  0  0  0  0  0  0  0  0
    0.2784    0.3901   -1.4169 H   0  0  0  0  0  0  0  0  0  0  0  0
   -4.1101    1.0540   -1.0564 H   0  0  0  0  0  0  0  0  0  0  0  0
   -4.7156    2.6958    0.6794 H   0  0  0  0  0  0  0  0  0  0  0  0
   -2.9470    3.8295    1.9994 H   0  0  0  0  0  0  0  0  0  0  0  0
   -0.5721    3.3320    1.5757 H   0  0  0  0  0  0  0  0  0  0  0  0
    0.8728    2.0536    0.4849 H   0  0  0  0  0  0  0  0  0  0  0  0
  1  2  1  0
  2  3  1  0
  3  4  2  0
  4  5  1  0
  5  6  2  0
  6  7  1  0
  7  8  2  0
  8  9  1  0
  9 10  1  0
 10 11  2  0
 10 12  1  0
 12 13  1  0
 13 14  2  0
 13 15  1  0
 15 16  2  0
 16 17  1  0
 17 18  2  0
 18 19  1  0
 19 20  2  0
 20 21  1  0
  8  3  1  0
 20 15  1  0
  1 22  1  0
  1 23  1  0
  1 24  1  0
  4 25  1  0
  5 26  1  0
  6 27  1  0
  7 28  1  0
  9 29  1  0
  9 30  1  0
 12 31  1  0
 16 32  1  0
 17 33  1  0
 18 34  1  0
 19 35  1  0
 21 36  1  0
M  END
$$$$
