
     RDKit          3D

 55 58  0  0  0  0  0  0  0  0999 V2000
    7.5565    1.1384    0.1995 C   0  0  0  0  0  0  0  0  0  0  0  0
    6.2007    1.2559   -0.2149 O   0  0  0  0  0  0  0  0  0  0  0  0
    5.4295    0.1237   -0.1786 C   0  0  0  0  0  0  0  0  0  0  0  0
    5.8610   -1.1193    0.2967 C   0  0  0  0  0  0  0  0  0  0  0  0
    4.9908   -2.2128    0.3163 C   0  0  0  0  0  0  0  0  0  0  0  0
    3.6811   -2.0736   -0.1320 C   0  0  0  0  0  0  0  0  0  0  0  0
    3.2408   -0.8408   -0.6079 C   0  0  0  0  0  0  0  0  0  0  0  0
    4.1108    0.2638   -0.6500 C   0  0  0  0  0  0  0  0  0  0  0  0
    3.5871    1.5875   -1.1560 C   0  0  0  0  0  0  0  0  0  0  0  0
    3.0303    2.3710   -0.0595 N   0  0  0  0  0  0  0  0  0  0  0  0
    1.7799    3.4256   -0.3708 S   0  0  0  0  0  6  0  0  0  0  0  0
    1.9547    3.9595   -1.7028 O   0  0  0  0  0  0  0  0  0  0  0  0
    1.6609    4.2846    0.7865 O   0  0  0  0  0  0  0  0  0  0  0  0
    0.3854    2.3254   -0.3646 C   0  0  0  0  0  0  0  0  0  0  0  0
   -0.2411    1.9822   -1.5740 C   0  0  0  0  0  0  0  0  0  0  0  0
   -1.3356    1.1098   -1.5749 C   0  0  0  0  0  0  0  0  0  0  0  0
   -1.7790    0.5955   -0.3663 C   0  0  0  0  0  0  0  0  0  0  0  0
   -1.1604    0.9617    0.8337 C   0  0  0  0  0  0  0  0  0  0  0  0
   -0.0797    1.8301    0.8577 C   0  0  0  0  0  0  0  0  0  0  0  0
   -1.8789    0.3769    2.0089 C   0  0  0  0  0  0  0  0  0  0  0  0
   -2.7780   -0.6766    1.3270 C   0  0  0  0  0  0  0  0  0  0  0  0
   -2.1658   -2.0744    1.4893 C   0  0  0  0  0  0  0  0  0  0  0  0
   -2.8480   -0.2899   -0.1058 N   0  0  0  0  0  0  0  0  0  0  0  0
   -3.7802   -0.7281   -1.0441 C   0  0  0  0  0  0  0  0  0  0  0  0
   -3.6789   -0.4845   -2.2531 O   0  0  0  0  0  0  0  0  0  0  0  0
   -4.9987   -1.5208   -0.4854 C   0  0  0  0  0  0  0  0  0  0  0  0
   -6.0457   -2.0505   -1.5113 C   0  0  0  0  0  0  0  0  0  0  0  0
   -7.1336   -1.7342   -0.4694 C   0  0  0  0  0  0  0  0  0  0  0  0
   -6.1683   -0.6871    0.1144 C   0  0  0  0  0  0  0  0  0  0  0  0
    8.1034    0.4302   -0.4321 H   0  0  0  0  0  0  0  0  0  0  0  0
    8.0266    2.1196    0.0827 H   0  0  0  0  0  0  0  0  0  0  0  0
    7.6226    0.8620    1.2568 H   0  0  0  0  0  0  0  0  0  0  0  0
    6.8695   -1.2725    0.6665 H   0  0  0  0  0  0  0  0  0  0  0  0
    5.3370   -3.1739    0.6885 H   0  0  0  0  0  0  0  0  0  0  0  0
    3.0026   -2.9225   -0.1096 H   0  0  0  0  0  0  0  0  0  0  0  0
    2.2112   -0.7400   -0.9465 H   0  0  0  0  0  0  0  0  0  0  0  0
    2.8328    1.3907   -1.9267 H   0  0  0  0  0  0  0  0  0  0  0  0
    4.3842    2.1571   -1.6463 H   0  0  0  0  0  0  0  0  0  0  0  0
    3.6639    2.6542    0.6848 H   0  0  0  0  0  0  0  0  0  0  0  0
    0.1149    2.3893   -2.5185 H   0  0  0  0  0  0  0  0  0  0  0  0
   -1.8076    0.8515   -2.5171 H   0  0  0  0  0  0  0  0  0  0  0  0
    0.3858    2.1227    1.7944 H   0  0  0  0  0  0  0  0  0  0  0  0
   -2.4902    1.1548    2.4797 H   0  0  0  0  0  0  0  0  0  0  0  0
   -1.1973   -0.0511    2.7496 H   0  0  0  0  0  0  0  0  0  0  0  0
   -3.7797   -0.6695    1.7680 H   0  0  0  0  0  0  0  0  0  0  0  0
   -1.1477   -2.1141    1.0855 H   0  0  0  0  0  0  0  0  0  0  0  0
   -2.7459   -2.8391    0.9668 H   0  0  0  0  0  0  0  0  0  0  0  0
   -2.1205   -2.3521    2.5476 H   0  0  0  0  0  0  0  0  0  0  0  0
   -4.6961   -2.3366    0.1824 H   0  0  0  0  0  0  0  0  0  0  0  0
   -6.1347   -1.4559   -2.4279 H   0  0  0  0  0  0  0  0  0  0  0  0
   -5.9492   -3.1053   -1.7829 H   0  0  0  0  0  0  0  0  0  0  0  0
   -8.0751   -1.3459   -0.8655 H   0  0  0  0  0  0  0  0  0  0  0  0
   -7.3471   -2.5656    0.2121 H   0  0  0  0  0  0  0  0  0  0  0  0
   -6.1818   -0.5985    1.2038 H   0  0  0  0  0  0  0  0  0  0  0  0
   -6.2789    0.3118   -0.3240 H   0  0  0  0  0  0  0  0  0  0  0  0
  1  2  1  0
  2  3  1  0
  3  4  2  0
  4  5  1  0
  5  6  2  0
  6  7  1  0
  7  8  2  0
  8  9  1  0
  9 10  1  0
 10 11  1  0
 11 12  2  0
 11 13  2  0
 11 14  1  0
 14 15  2  0
 15 16  1  0
 16 17  2  0
 17 18  1  0
 18 19  2  0
 18 20  1  0
 20 21  1  0
 21 22  1  0
 21 23  1  0
 23 24  1  0
 24 25  2  0
 24 26  1  0
 26 27  1  0
 27 28  1  0
 28 29  1  0
  8  3  1  0
 19 14  1  0
 29 26  1  0
 23 17  1  0
  1 30  1  0
  1 31  1  0
  1 32  1  0
  4 33  1  0
  5 34  1  0
  6 35  1  0
  7 36  1  0
  9 37  1  0
  9 38  1  0
 10 39  1  0
 15 40  1  0
 16 41  1  0
 19 42  1  0
 20 43  1  0
 20 44  1  0
 21 45  1  0
 22 46  1  0
 22 47  1  0
 22 48  1  0
 26 49  1  0
 27 50  1  0
 27 51  1  0
 28 52  1  0
 28 53  1  0
 29 54  1  0
 29 55  1  0
M  END
$$$$
