
     RDKit          3D

 47 49  0  0  0  0  0  0  0  0999 V2000
   -6.3681   -0.7744    0.8277 C   0  0  0  0  0  0  0  0  0  0  0  0
   -4.9887   -0.3607    0.5732 N   0  0  0  0  0  0  0  0  0  0  0  0
   -4.4814   -0.9845   -0.6681 C   0  0  0  0  0  0  0  0  0  0  0  0
   -3.0352   -0.5528   -0.9857 C   0  0  0  0  0  0  0  0  0  0  0  0
   -2.9521    0.9314   -1.0777 N   0  0  0  0  0  0  0  0  0  0  0  0
   -1.5523    1.5834   -1.7693 S   0  0  0  0  0  6  0  0  0  0  0  0
   -1.6904    3.0243   -1.8005 O   0  0  0  0  0  0  0  0  0  0  0  0
   -1.2523    0.8384   -2.9742 O   0  0  0  0  0  0  0  0  0  0  0  0
   -0.2755    1.2024   -0.5857 C   0  0  0  0  0  0  0  0  0  0  0  0
    0.4538    0.0178   -0.7106 C   0  0  0  0  0  0  0  0  0  0  0  0
    1.4806   -0.2638    0.1963 C   0  0  0  0  0  0  0  0  0  0  0  0
    1.8045    0.6477    1.2068 C   0  0  0  0  0  0  0  0  0  0  0  0
    2.8152    0.4311    2.1643 N   0  0  0  0  0  0  0  0  0  0  0  0
    3.8651   -0.4550    2.1936 C   0  0  0  0  0  0  0  0  0  0  0  0
    4.5675   -0.7428    3.6820 S   0  0  0  0  0  0  0  0  0  0  0  0
    4.2793   -0.9438    0.9732 N   0  0  0  0  0  0  0  0  0  0  0  0
    5.2653   -1.8823    0.7031 C   0  0  0  0  0  0  0  0  0  0  0  0
    5.5741   -2.8182    1.4267 O   0  0  0  0  0  0  0  0  0  0  0  0
    5.9006   -1.7967   -0.6482 C   0  0  0  0  0  0  0  0  0  0  0  0
    6.1164   -0.4907   -1.3766 C   0  0  0  0  0  0  0  0  0  0  0  0
    5.1129   -1.4801   -1.8983 C   0  0  0  0  0  0  0  0  0  0  0  0
    1.0578    1.8274    1.3261 C   0  0  0  0  0  0  0  0  0  0  0  0
    0.0320    2.1175    0.4224 C   0  0  0  0  0  0  0  0  0  0  0  0
   -3.4653    1.5856    0.1580 C   0  0  0  0  0  0  0  0  0  0  0  0
   -4.9030    1.1105    0.4516 C   0  0  0  0  0  0  0  0  0  0  0  0
   -6.7332   -0.3354    1.7627 H   0  0  0  0  0  0  0  0  0  0  0  0
   -6.4259   -1.8620    0.9468 H   0  0  0  0  0  0  0  0  0  0  0  0
   -7.0474   -0.4794    0.0198 H   0  0  0  0  0  0  0  0  0  0  0  0
   -4.4977   -2.0759   -0.5625 H   0  0  0  0  0  0  0  0  0  0  0  0
   -5.1280   -0.7253   -1.5174 H   0  0  0  0  0  0  0  0  0  0  0  0
   -2.3615   -0.9169   -0.2018 H   0  0  0  0  0  0  0  0  0  0  0  0
   -2.7417   -1.0078   -1.9371 H   0  0  0  0  0  0  0  0  0  0  0  0
    0.2218   -0.6957   -1.4990 H   0  0  0  0  0  0  0  0  0  0  0  0
    1.9729   -1.2288    0.1163 H   0  0  0  0  0  0  0  0  0  0  0  0
    2.7237    0.9542    3.0314 H   0  0  0  0  0  0  0  0  0  0  0  0
    4.0594   -0.3197    0.2140 H   0  0  0  0  0  0  0  0  0  0  0  0
    6.6956   -2.5315   -0.7660 H   0  0  0  0  0  0  0  0  0  0  0  0
    5.7616    0.4359   -0.9429 H   0  0  0  0  0  0  0  0  0  0  0  0
    7.0455   -0.3737   -1.9266 H   0  0  0  0  0  0  0  0  0  0  0  0
    5.3649   -2.0305   -2.7996 H   0  0  0  0  0  0  0  0  0  0  0  0
    4.0594   -1.2409   -1.8259 H   0  0  0  0  0  0  0  0  0  0  0  0
    1.2832    2.5498    2.1080 H   0  0  0  0  0  0  0  0  0  0  0  0
   -0.5145    3.0543    0.5096 H   0  0  0  0  0  0  0  0  0  0  0  0
   -2.8162    1.3424    1.0067 H   0  0  0  0  0  0  0  0  0  0  0  0
   -3.4818    2.6728    0.0317 H   0  0  0  0  0  0  0  0  0  0  0  0
   -5.2325    1.5752    1.3886 H   0  0  0  0  0  0  0  0  0  0  0  0
   -5.5687    1.4672   -0.3460 H   0  0  0  0  0  0  0  0  0  0  0  0
  1  2  1  0
  2  3  1  0
  3  4  1  0
  4  5  1  0
  5  6  1  0
  6  7  2  0
  6  8  2  0
  6  9  1  0
  9 10  2  0
 10 11  1  0
 11 12  2  0
 12 13  1  0
 13 14  1  0
 14 15  2  0
 14 16  1  0
 16 17  1  0
 17 18  2  0
 17 19  1  0
 19 20  1  0
 20 21  1  0
 12 22  1  0
 22 23  2  0
  5 24  1  0
 24 25  1  0
 25  2  1  0
 23  9  1  0
 21 19  1  0
  1 26  1  0
  1 27  1  0
  1 28  1  0
  3 29  1  0
  3 30  1  0
  4 31  1  0
  4 32  1  0
 10 33  1  0
 11 34  1  0
 13 35  1  0
 16 36  1  0
 19 37  1  0
 20 38  1  0
 20 39  1  0
 21 40  1  0
 21 41  1  0
 22 42  1  0
 23 43  1  0
 24 44  1  0
 24 45  1  0
 25 46  1  0
 25 47  1  0
M  END
$$$$
