
     RDKit          3D

 53 56  0  0  0  0  0  0  0  0999 V2000
   -0.5540   -2.9914   -2.7663 C   0  0  0  0  0  0  0  0  0  0  0  0
    0.5355   -2.3778   -3.4454 O   0  0  0  0  0  0  0  0  0  0  0  0
    1.2779   -1.4824   -2.7269 C   0  0  0  0  0  0  0  0  0  0  0  0
    2.1704   -0.7202   -3.4793 C   0  0  0  0  0  0  0  0  0  0  0  0
    2.9698    0.2513   -2.8713 C   0  0  0  0  0  0  0  0  0  0  0  0
    2.8809    0.4737   -1.4959 C   0  0  0  0  0  0  0  0  0  0  0  0
    3.6160    1.4171   -0.8265 O   0  0  0  0  0  0  0  0  0  0  0  0
    3.9371    2.5842   -1.5779 C   0  0  0  0  0  0  0  0  0  0  0  0
    2.0175   -0.3155   -0.7189 C   0  0  0  0  0  0  0  0  0  0  0  0
    1.8748   -0.0896    0.7708 C   0  0  0  0  0  0  0  0  0  0  0  0
    1.0306    1.0676    1.1336 N   0  0  0  0  0  0  0  0  0  0  0  0
   -0.2842    0.9869    0.5534 N   0  0  0  0  0  0  0  0  0  0  0  0
   -1.2747    0.1447    1.0716 C   0  0  0  0  0  0  0  0  0  0  0  0
   -1.0550   -0.5517    2.3699 C   0  0  0  0  0  0  0  0  0  0  0  0
   -1.3783   -1.9102    2.4637 C   0  0  0  0  0  0  0  0  0  0  0  0
   -1.1959   -2.5879    3.6686 C   0  0  0  0  0  0  0  0  0  0  0  0
   -0.7094   -1.9074    4.7861 C   0  0  0  0  0  0  0  0  0  0  0  0
   -0.4205   -0.5385    4.7164 C   0  0  0  0  0  0  0  0  0  0  0  0
    0.1196    0.1874    5.9130 C   0  0  0  0  0  0  0  0  0  0  0  0
   -0.5929    0.1349    3.4993 C   0  0  0  0  0  0  0  0  0  0  0  0
   -2.3979   -0.0698    0.4529 N   0  0  0  0  0  0  0  0  0  0  0  0
   -2.6415    0.5948   -0.7564 C   0  0  0  0  0  0  0  0  0  0  0  0
   -3.8305    0.3255   -1.4387 C   0  0  0  0  0  0  0  0  0  0  0  0
   -4.1248    0.9717   -2.6429 C   0  0  0  0  0  0  0  0  0  0  0  0
   -3.2297    1.8986   -3.1761 C   0  0  0  0  0  0  0  0  0  0  0  0
   -2.0406    2.1790   -2.5050 C   0  0  0  0  0  0  0  0  0  0  0  0
   -1.7569    1.5250   -1.3002 C   0  0  0  0  0  0  0  0  0  0  0  0
   -0.5007    1.7813   -0.5792 C   0  0  0  0  0  0  0  0  0  0  0  0
    0.2825    2.6461   -0.9730 O   0  0  0  0  0  0  0  0  0  0  0  0
    1.2159   -1.2900   -1.3478 C   0  0  0  0  0  0  0  0  0  0  0  0
   -1.2375   -2.2434   -2.3501 H   0  0  0  0  0  0  0  0  0  0  0  0
   -1.1131   -3.5825   -3.4980 H   0  0  0  0  0  0  0  0  0  0  0  0
   -0.1956   -3.6753   -1.9902 H   0  0  0  0  0  0  0  0  0  0  0  0
    2.2387   -0.8772   -4.5530 H   0  0  0  0  0  0  0  0  0  0  0  0
    3.6540    0.8173   -3.4945 H   0  0  0  0  0  0  0  0  0  0  0  0
    4.7702    2.3870   -2.2596 H   0  0  0  0  0  0  0  0  0  0  0  0
    3.0676    2.9714   -2.1205 H   0  0  0  0  0  0  0  0  0  0  0  0
    4.2602    3.3555   -0.8722 H   0  0  0  0  0  0  0  0  0  0  0  0
    1.4941   -0.9998    1.2487 H   0  0  0  0  0  0  0  0  0  0  0  0
    2.8685    0.0559    1.2120 H   0  0  0  0  0  0  0  0  0  0  0  0
    1.4720    1.8910    0.7010 H   0  0  0  0  0  0  0  0  0  0  0  0
   -1.7698   -2.4417    1.5999 H   0  0  0  0  0  0  0  0  0  0  0  0
   -1.4363   -3.6457    3.7391 H   0  0  0  0  0  0  0  0  0  0  0  0
   -0.5669   -2.4506    5.7182 H   0  0  0  0  0  0  0  0  0  0  0  0
   -0.1991    1.2350    5.9105 H   0  0  0  0  0  0  0  0  0  0  0  0
   -0.2483   -0.2613    6.8417 H   0  0  0  0  0  0  0  0  0  0  0  0
    1.2132    0.1494    5.9109 H   0  0  0  0  0  0  0  0  0  0  0  0
   -0.3715    1.1979    3.4351 H   0  0  0  0  0  0  0  0  0  0  0  0
   -4.5338   -0.3918   -1.0230 H   0  0  0  0  0  0  0  0  0  0  0  0
   -5.0547    0.7517   -3.1618 H   0  0  0  0  0  0  0  0  0  0  0  0
   -3.4575    2.4009   -4.1132 H   0  0  0  0  0  0  0  0  0  0  0  0
   -1.3367    2.8970   -2.9194 H   0  0  0  0  0  0  0  0  0  0  0  0
    0.5414   -1.8782   -0.7333 H   0  0  0  0  0  0  0  0  0  0  0  0
  1  2  1  0
  2  3  1  0
  3  4  2  0
  4  5  1  0
  5  6  2  0
  6  7  1  0
  7  8  1  0
  6  9  1  0
  9 10  1  0
 10 11  1  0
 11 12  1  0
 12 13  1  0
 13 14  1  0
 14 15  2  0
 15 16  1  0
 16 17  2  0
 17 18  1  0
 18 19  1  0
 18 20  2  0
 13 21  2  0
 21 22  1  0
 22 23  2  0
 23 24  1  0
 24 25  2  0
 25 26  1  0
 26 27  2  0
 27 28  1  0
 28 29  2  0
  9 30  2  0
 30  3  1  0
 28 12  1  0
 20 14  1  0
 27 22  1  0
  1 31  1  0
  1 32  1  0
  1 33  1  0
  4 34  1  0
  5 35  1  0
  8 36  1  0
  8 37  1  0
  8 38  1  0
 10 39  1  0
 10 40  1  0
 11 41  1  0
 15 42  1  0
 16 43  1  0
 17 44  1  0
 19 45  1  0
 19 46  1  0
 19 47  1  0
 20 48  1  0
 23 49  1  0
 24 50  1  0
 25 51  1  0
 26 52  1  0
 30 53  1  0
M  END
$$$$
