
     RDKit          3D

 51 53  0  0  0  0  0  0  0  0999 V2000
   -1.7697    5.6593   -1.5243 C   0  0  0  0  0  0  0  0  0  0  0  0
   -0.5077    4.8375   -1.2987 C   0  0  0  0  0  0  0  0  0  0  0  0
   -0.0709    4.0320   -2.5249 C   0  0  0  0  0  0  0  0  0  0  0  0
   -1.2191    2.6777   -2.9718 S   0  0  0  0  0  0  0  0  0  0  0  0
   -0.7378    1.4025   -1.8110 C   0  0  0  0  0  0  0  0  0  0  0  0
   -1.3577    0.1734   -1.8901 C   0  0  0  0  0  0  0  0  0  0  0  0
   -0.9733   -0.7972   -0.9859 C   0  0  0  0  0  0  0  0  0  0  0  0
   -1.5638   -2.0554   -0.9903 N   0  0  0  0  0  0  0  0  0  0  0  0
   -1.8725   -2.7094   -2.2748 C   0  0  0  0  0  0  0  0  0  0  0  0
   -1.3708   -4.1738   -2.3144 C   0  0  0  0  0  0  0  0  0  0  0  0
   -1.7938   -5.0358   -1.1926 N   0  0  0  0  0  0  0  0  0  0  0  0
   -2.9579   -5.8484   -1.5321 C   0  0  0  0  0  0  0  0  0  0  0  0
   -2.0415   -4.2483    0.0356 C   0  0  0  0  0  0  0  0  0  0  0  0
   -1.2040   -2.9528    0.1206 C   0  0  0  0  0  0  0  0  0  0  0  0
   -0.0495   -0.5201   -0.0503 N   0  0  0  0  0  0  0  0  0  0  0  0
    0.5121    0.7039   -0.0420 C   0  0  0  0  0  0  0  0  0  0  0  0
    1.5311    0.9914    0.9896 C   0  0  0  0  0  0  0  0  0  0  0  0
    2.1377    2.2575    1.0950 C   0  0  0  0  0  0  0  0  0  0  0  0
    3.0950    2.5302    2.0796 C   0  0  0  0  0  0  0  0  0  0  0  0
    3.4780    1.5469    2.9910 C   0  0  0  0  0  0  0  0  0  0  0  0
    4.4150    1.9443    3.9035 O   0  0  0  0  0  0  0  0  0  0  0  0
    4.8014    0.9899    4.8837 C   0  0  0  0  0  0  0  0  0  0  0  0
    2.8990    0.2825    2.9033 C   0  0  0  0  0  0  0  0  0  0  0  0
    1.9395    0.0128    1.9157 C   0  0  0  0  0  0  0  0  0  0  0  0
    0.2044    1.6838   -0.9036 N   0  0  0  0  0  0  0  0  0  0  0  0
   -1.6473    6.3314   -2.3814 H   0  0  0  0  0  0  0  0  0  0  0  0
   -1.9784    6.2747   -0.6425 H   0  0  0  0  0  0  0  0  0  0  0  0
   -2.6418    5.0246   -1.7007 H   0  0  0  0  0  0  0  0  0  0  0  0
    0.3051    5.5302   -1.0443 H   0  0  0  0  0  0  0  0  0  0  0  0
   -0.6450    4.1897   -0.4255 H   0  0  0  0  0  0  0  0  0  0  0  0
    0.9379    3.6300   -2.3827 H   0  0  0  0  0  0  0  0  0  0  0  0
   -0.0122    4.7001   -3.3913 H   0  0  0  0  0  0  0  0  0  0  0  0
   -2.1340   -0.0092   -2.6203 H   0  0  0  0  0  0  0  0  0  0  0  0
   -2.9590   -2.6878   -2.4221 H   0  0  0  0  0  0  0  0  0  0  0  0
   -1.4144   -2.1856   -3.1222 H   0  0  0  0  0  0  0  0  0  0  0  0
   -0.2721   -4.1502   -2.2949 H   0  0  0  0  0  0  0  0  0  0  0  0
   -1.6326   -4.6253   -3.2801 H   0  0  0  0  0  0  0  0  0  0  0  0
   -3.8276   -5.2371   -1.8004 H   0  0  0  0  0  0  0  0  0  0  0  0
   -2.7306   -6.5123   -2.3728 H   0  0  0  0  0  0  0  0  0  0  0  0
   -3.2362   -6.4929   -0.6898 H   0  0  0  0  0  0  0  0  0  0  0  0
   -1.8216   -4.8776    0.9046 H   0  0  0  0  0  0  0  0  0  0  0  0
   -3.1007   -3.9652    0.1002 H   0  0  0  0  0  0  0  0  0  0  0  0
   -1.4197   -2.4685    1.0813 H   0  0  0  0  0  0  0  0  0  0  0  0
   -0.1340   -3.1987    0.0935 H   0  0  0  0  0  0  0  0  0  0  0  0
    1.8647    3.0543    0.4048 H   0  0  0  0  0  0  0  0  0  0  0  0
    3.5412    3.5209    2.1347 H   0  0  0  0  0  0  0  0  0  0  0  0
    5.2942    0.1263    4.4215 H   0  0  0  0  0  0  0  0  0  0  0  0
    3.9441    0.6790    5.4924 H   0  0  0  0  0  0  0  0  0  0  0  0
    5.5259    1.4707    5.5495 H   0  0  0  0  0  0  0  0  0  0  0  0
    3.1657   -0.5200    3.5836 H   0  0  0  0  0  0  0  0  0  0  0  0
    1.5053   -0.9858    1.8748 H   0  0  0  0  0  0  0  0  0  0  0  0
  1  2  1  0
  2  3  1  0
  3  4  1  0
  4  5  1  0
  5  6  2  0
  6  7  1  0
  7  8  1  0
  8  9  1  0
  9 10  1  0
 10 11  1  0
 11 12  1  0
 11 13  1  0
 13 14  1  0
  7 15  2  0
 15 16  1  0
 16 17  1  0
 17 18  2  0
 18 19  1  0
 19 20  2  0
 20 21  1  0
 21 22  1  0
 20 23  1  0
 23 24  2  0
 16 25  2  0
 25  5  1  0
 14  8  1  0
 24 17  1  0
  1 26  1  0
  1 27  1  0
  1 28  1  0
  2 29  1  0
  2 30  1  0
  3 31  1  0
  3 32  1  0
  6 33  1  0
  9 34  1  0
  9 35  1  0
 10 36  1  0
 10 37  1  0
 12 38  1  0
 12 39  1  0
 12 40  1  0
 13 41  1  0
 13 42  1  0
 14 43  1  0
 14 44  1  0
 18 45  1  0
 19 46  1  0
 22 47  1  0
 22 48  1  0
 22 49  1  0
 23 50  1  0
 24 51  1  0
M  END
$$$$
