
     RDKit          3D

 40 42  0  0  0  0  0  0  0  0999 V2000
    5.9816    0.1019   -1.1122 C   0  0  0  0  0  0  0  0  0  0  0  0
    5.4735    0.2562    0.3130 C   0  0  0  0  0  0  0  0  0  0  0  0
    3.9692    0.1810    0.3828 C   0  0  0  0  0  0  0  0  0  0  0  0
    3.1940    1.3392    0.2511 C   0  0  0  0  0  0  0  0  0  0  0  0
    1.7996    1.2673    0.3001 C   0  0  0  0  0  0  0  0  0  0  0  0
    1.1613    0.0343    0.4748 C   0  0  0  0  0  0  0  0  0  0  0  0
   -0.3191   -0.0089    0.5201 C   0  0  0  0  0  0  0  0  0  0  0  0
   -1.0562    1.0598    0.5776 N   0  0  0  0  0  0  0  0  0  0  0  0
   -2.4877    0.5865    0.5690 N   0  0  0  0  0  0  0  0  0  0  0  0
   -3.4636    1.0503    1.8932 S   0  0  0  0  0  6  0  0  0  0  0  0
   -3.3020    2.8213    1.8390 C   0  0  0  0  0  0  0  0  0  0  0  0
   -2.8410    0.5512    3.1037 O   0  0  0  0  0  0  0  0  0  0  0  0
   -4.8353    0.7028    1.5786 O   0  0  0  0  0  0  0  0  0  0  0  0
   -2.5105   -0.8731    0.2945 C   0  0  0  0  0  0  0  0  0  0  0  0
   -3.0146   -1.0900   -1.1140 C   0  0  0  0  0  0  0  0  0  0  0  0
   -4.2678   -1.5514   -1.4802 C   0  0  0  0  0  0  0  0  0  0  0  0
   -4.4339   -1.6358   -2.8920 C   0  0  0  0  0  0  0  0  0  0  0  0
   -3.3073   -1.2267   -3.5668 C   0  0  0  0  0  0  0  0  0  0  0  0
   -2.0640   -0.7389   -2.5025 S   0  0  0  0  0  0  0  0  0  0  0  0
   -1.0716   -1.3162    0.5463 C   0  0  0  0  0  0  0  0  0  0  0  0
    1.9306   -1.1262    0.6030 C   0  0  0  0  0  0  0  0  0  0  0  0
    3.3262   -1.0514    0.5541 C   0  0  0  0  0  0  0  0  0  0  0  0
    7.0744    0.1604   -1.1327 H   0  0  0  0  0  0  0  0  0  0  0  0
    5.5873    0.8903   -1.7622 H   0  0  0  0  0  0  0  0  0  0  0  0
    5.6854   -0.8631   -1.5374 H   0  0  0  0  0  0  0  0  0  0  0  0
    5.9115   -0.5224    0.9493 H   0  0  0  0  0  0  0  0  0  0  0  0
    5.8146    1.2130    0.7268 H   0  0  0  0  0  0  0  0  0  0  0  0
    3.6706    2.3069    0.1085 H   0  0  0  0  0  0  0  0  0  0  0  0
    1.2192    2.1816    0.1954 H   0  0  0  0  0  0  0  0  0  0  0  0
   -3.9386    3.2388    2.6224 H   0  0  0  0  0  0  0  0  0  0  0  0
   -2.2627    3.0958    2.0257 H   0  0  0  0  0  0  0  0  0  0  0  0
   -3.6364    3.1772    0.8628 H   0  0  0  0  0  0  0  0  0  0  0  0
   -3.1706   -1.4160    0.9821 H   0  0  0  0  0  0  0  0  0  0  0  0
   -5.0388   -1.8071   -0.7615 H   0  0  0  0  0  0  0  0  0  0  0  0
   -5.3378   -1.9701   -3.3865 H   0  0  0  0  0  0  0  0  0  0  0  0
   -3.1564   -1.1804   -4.6365 H   0  0  0  0  0  0  0  0  0  0  0  0
   -0.9736   -1.7343    1.5550 H   0  0  0  0  0  0  0  0  0  0  0  0
   -0.6940   -2.0399   -0.1799 H   0  0  0  0  0  0  0  0  0  0  0  0
    1.4730   -2.1000    0.7479 H   0  0  0  0  0  0  0  0  0  0  0  0
    3.9113   -1.9639    0.6522 H   0  0  0  0  0  0  0  0  0  0  0  0
  1  2  1  0
  2  3  1  0
  3  4  2  0
  4  5  1  0
  5  6  2  0
  6  7  1  0
  7  8  2  0
  8  9  1  0
  9 10  1  0
 10 11  1  0
 10 12  2  0
 10 13  2  0
  9 14  1  0
 14 15  1  0
 15 16  2  0
 16 17  1  0
 17 18  2  0
 18 19  1  0
 14 20  1  0
  6 21  1  0
 21 22  2  0
 22  3  1  0
 20  7  1  0
 19 15  1  0
  1 23  1  0
  1 24  1  0
  1 25  1  0
  2 26  1  0
  2 27  1  0
  4 28  1  0
  5 29  1  0
 11 30  1  0
 11 31  1  0
 11 32  1  0
 14 33  1  0
 16 34  1  0
 17 35  1  0
 18 36  1  0
 20 37  1  0
 20 38  1  0
 21 39  1  0
 22 40  1  0
M  END
$$$$
