
     RDKit          3D

 55 58  0  0  0  0  0  0  0  0999 V2000
   -8.7300   -1.7251    2.3920 C   0  0  0  0  0  0  0  0  0  0  0  0
   -7.5893   -2.3297    1.5801 C   0  0  0  0  0  0  0  0  0  0  0  0
   -8.1116   -2.9234    0.2761 C   0  0  0  0  0  0  0  0  0  0  0  0
   -6.6485   -1.2972    1.2298 O   0  0  0  0  0  0  0  0  0  0  0  0
   -5.7079   -1.0054    2.1627 C   0  0  0  0  0  0  0  0  0  0  0  0
   -5.5959   -1.5346    3.2566 O   0  0  0  0  0  0  0  0  0  0  0  0
   -4.8020    0.0692    1.6723 C   0  0  0  0  0  0  0  0  0  0  0  0
   -3.7615    0.4903    2.5084 C   0  0  0  0  0  0  0  0  0  0  0  0
   -2.8805    1.4918    2.0915 C   0  0  0  0  0  0  0  0  0  0  0  0
   -3.0313    2.0932    0.8356 C   0  0  0  0  0  0  0  0  0  0  0  0
   -2.0597    3.1500    0.3755 C   0  0  0  0  0  0  0  0  0  0  0  0
   -1.0390    2.5340   -0.4191 O   0  0  0  0  0  0  0  0  0  0  0  0
    0.1154    2.2473    0.2288 C   0  0  0  0  0  0  0  0  0  0  0  0
    0.3711    2.5047    1.3941 O   0  0  0  0  0  0  0  0  0  0  0  0
    1.0669    1.5554   -0.6838 C   0  0  0  0  0  0  0  0  0  0  0  0
    0.7245    1.1999   -1.9948 C   0  0  0  0  0  0  0  0  0  0  0  0
    1.6500    0.5437   -2.8062 C   0  0  0  0  0  0  0  0  0  0  0  0
    2.9211    0.2387   -2.3135 C   0  0  0  0  0  0  0  0  0  0  0  0
    3.2878    0.5866   -1.0036 C   0  0  0  0  0  0  0  0  0  0  0  0
    4.6098    0.2838   -0.4686 C   0  0  0  0  0  0  0  0  0  0  0  0
    5.1373    0.5774    0.7024 N   0  0  0  0  0  0  0  0  0  0  0  0
    6.4176    0.0617    0.6980 N   0  0  0  0  0  0  0  0  0  0  0  0
    6.5843   -0.5164   -0.4754 C   0  0  0  0  0  0  0  0  0  0  0  0
    7.7388   -1.2234   -1.0154 C   0  0  0  0  0  0  0  0  0  0  0  0
    7.7299   -1.7885   -2.3002 C   0  0  0  0  0  0  0  0  0  0  0  0
    8.8514   -2.4645   -2.7906 C   0  0  0  0  0  0  0  0  0  0  0  0
    9.9951   -2.5842   -2.0023 C   0  0  0  0  0  0  0  0  0  0  0  0
   10.0204   -2.0284   -0.7258 C   0  0  0  0  0  0  0  0  0  0  0  0
    8.8998   -1.3522   -0.2360 C   0  0  0  0  0  0  0  0  0  0  0  0
    5.4732   -0.4136   -1.2736 O   0  0  0  0  0  0  0  0  0  0  0  0
    2.3467    1.2463   -0.1967 C   0  0  0  0  0  0  0  0  0  0  0  0
   -4.0675    1.6639   -0.0038 C   0  0  0  0  0  0  0  0  0  0  0  0
   -4.9499    0.6618    0.4117 C   0  0  0  0  0  0  0  0  0  0  0  0
   -8.3577   -1.2964    3.3292 H   0  0  0  0  0  0  0  0  0  0  0  0
   -9.2118   -0.9079    1.8429 H   0  0  0  0  0  0  0  0  0  0  0  0
   -9.4864   -2.4781    2.6341 H   0  0  0  0  0  0  0  0  0  0  0  0
   -7.0923   -3.1253    2.1494 H   0  0  0  0  0  0  0  0  0  0  0  0
   -8.5932   -2.1555   -0.3400 H   0  0  0  0  0  0  0  0  0  0  0  0
   -7.2841   -3.3292   -0.3167 H   0  0  0  0  0  0  0  0  0  0  0  0
   -8.8318   -3.7257    0.4637 H   0  0  0  0  0  0  0  0  0  0  0  0
   -3.6266    0.0361    3.4880 H   0  0  0  0  0  0  0  0  0  0  0  0
   -2.0674    1.7940    2.7505 H   0  0  0  0  0  0  0  0  0  0  0  0
   -2.5776    3.8771   -0.2606 H   0  0  0  0  0  0  0  0  0  0  0  0
   -1.6561    3.7222    1.2198 H   0  0  0  0  0  0  0  0  0  0  0  0
   -0.2610    1.4234   -2.3975 H   0  0  0  0  0  0  0  0  0  0  0  0
    1.3804    0.2670   -3.8241 H   0  0  0  0  0  0  0  0  0  0  0  0
    3.6243   -0.2740   -2.9676 H   0  0  0  0  0  0  0  0  0  0  0  0
    6.8496   -1.7086   -2.9352 H   0  0  0  0  0  0  0  0  0  0  0  0
    8.8316   -2.8976   -3.7877 H   0  0  0  0  0  0  0  0  0  0  0  0
   10.8670   -3.1107   -2.3835 H   0  0  0  0  0  0  0  0  0  0  0  0
   10.9114   -2.1201   -0.1087 H   0  0  0  0  0  0  0  0  0  0  0  0
    8.9380   -0.9223    0.7644 H   0  0  0  0  0  0  0  0  0  0  0  0
    2.6120    1.5216    0.8251 H   0  0  0  0  0  0  0  0  0  0  0  0
   -4.1905    2.1051   -0.9905 H   0  0  0  0  0  0  0  0  0  0  0  0
   -5.7441    0.3506   -0.2611 H   0  0  0  0  0  0  0  0  0  0  0  0
  1  2  1  0
  2  3  1  0
  2  4  1  0
  4  5  1  0
  5  6  2  0
  5  7  1  0
  7  8  2  0
  8  9  1  0
  9 10  2  0
 10 11  1  0
 11 12  1  0
 12 13  1  0
 13 14  2  0
 13 15  1  0
 15 16  2  0
 16 17  1  0
 17 18  2  0
 18 19  1  0
 19 20  1  0
 20 21  2  0
 21 22  1  0
 22 23  2  0
 23 24  1  0
 24 25  2  0
 25 26  1  0
 26 27  2  0
 27 28  1  0
 28 29  2  0
 23 30  1  0
 19 31  2  0
 10 32  1  0
 32 33  2  0
 33  7  1  0
 31 15  1  0
 30 20  1  0
 29 24  1  0
  1 34  1  0
  1 35  1  0
  1 36  1  0
  2 37  1  0
  3 38  1  0
  3 39  1  0
  3 40  1  0
  8 41  1  0
  9 42  1  0
 11 43  1  0
 11 44  1  0
 16 45  1  0
 17 46  1  0
 18 47  1  0
 25 48  1  0
 26 49  1  0
 27 50  1  0
 28 51  1  0
 29 52  1  0
 31 53  1  0
 32 54  1  0
 33 55  1  0
M  END
$$$$
