
     RDKit          3D

 55 58  0  0  0  0  0  0  0  0999 V2000
    0.4523    0.3692    1.2135 O   0  0  0  0  0  0  0  0  0  0  0  0
    0.5019   -0.7633    0.7357 C   0  0  0  0  0  0  0  0  0  0  0  0
    1.7470   -1.2050    0.0830 C   0  0  0  0  0  0  0  0  0  0  0  0
    2.8669   -0.3655    0.0127 C   0  0  0  0  0  0  0  0  0  0  0  0
    4.0579   -0.7800   -0.6086 C   0  0  0  0  0  0  0  0  0  0  0  0
    5.1488    0.0917   -0.6585 N   0  0  0  0  0  0  0  0  0  0  0  0
    6.2614   -0.1249   -1.6054 C   0  0  0  0  0  0  0  0  0  0  0  0
    7.5044   -0.6282   -0.8584 C   0  0  0  0  0  0  0  0  0  0  0  0
    7.9892    0.2887    0.1375 O   0  0  0  0  0  0  0  0  0  0  0  0
    6.9904    1.2160    0.5909 C   0  0  0  0  0  0  0  0  0  0  0  0
    5.5828    0.6019    0.6691 C   0  0  0  0  0  0  0  0  0  0  0  0
    4.0707   -2.0707   -1.1603 C   0  0  0  0  0  0  0  0  0  0  0  0
    2.9521   -2.9131   -1.0943 C   0  0  0  0  0  0  0  0  0  0  0  0
    1.7918   -2.4712   -0.4696 C   0  0  0  0  0  0  0  0  0  0  0  0
    0.6745   -3.2975   -0.4023 N   0  0  0  0  0  0  0  0  0  0  0  0
   -0.5071   -2.9433    0.1912 C   0  0  0  0  0  0  0  0  0  0  0  0
   -1.7271   -4.0950    0.1436 S   0  0  0  0  0  0  0  0  0  0  0  0
   -0.5661   -1.6762    0.7706 N   0  0  0  0  0  0  0  0  0  0  0  0
   -1.7903   -1.1758    1.4156 C   0  0  0  0  0  0  0  0  0  0  0  0
   -2.6744   -0.4010    0.4315 C   0  0  0  0  0  0  0  0  0  0  0  0
   -3.9198    0.1461    1.1387 C   0  0  0  0  0  0  0  0  0  0  0  0
   -4.8762    0.7839    0.2153 N   0  0  0  0  0  0  0  0  0  0  0  0
   -4.3549    2.0475   -0.3335 C   0  0  0  0  0  0  0  0  0  0  0  0
   -5.3460    2.6869   -1.3091 C   0  0  0  0  0  0  0  0  0  0  0  0
   -6.7063    2.9055   -0.6604 C   0  0  0  0  0  0  0  0  0  0  0  0
   -7.2054    1.6104   -0.0342 C   0  0  0  0  0  0  0  0  0  0  0  0
   -6.1589    1.0101    0.9050 C   0  0  0  0  0  0  0  0  0  0  0  0
    2.7942    0.6377    0.4274 H   0  0  0  0  0  0  0  0  0  0  0  0
    5.9999   -0.7917   -2.4326 H   0  0  0  0  0  0  0  0  0  0  0  0
    6.4901    0.8439   -2.0674 H   0  0  0  0  0  0  0  0  0  0  0  0
    7.2923   -1.5785   -0.3555 H   0  0  0  0  0  0  0  0  0  0  0  0
    8.3228   -0.8044   -1.5635 H   0  0  0  0  0  0  0  0  0  0  0  0
    7.2993    1.5720    1.5790 H   0  0  0  0  0  0  0  0  0  0  0  0
    6.9995    2.0809   -0.0828 H   0  0  0  0  0  0  0  0  0  0  0  0
    5.6066   -0.2258    1.3901 H   0  0  0  0  0  0  0  0  0  0  0  0
    4.8842    1.3645    1.0297 H   0  0  0  0  0  0  0  0  0  0  0  0
    4.9627   -2.4681   -1.6350 H   0  0  0  0  0  0  0  0  0  0  0  0
    3.0102   -3.9061   -1.5314 H   0  0  0  0  0  0  0  0  0  0  0  0
    0.7083   -4.2216   -0.8185 H   0  0  0  0  0  0  0  0  0  0  0  0
   -1.5113   -0.5205    2.2502 H   0  0  0  0  0  0  0  0  0  0  0  0
   -2.3514   -2.0031    1.8610 H   0  0  0  0  0  0  0  0  0  0  0  0
   -2.0892    0.4150   -0.0061 H   0  0  0  0  0  0  0  0  0  0  0  0
   -2.9728   -1.0551   -0.3966 H   0  0  0  0  0  0  0  0  0  0  0  0
   -4.4150   -0.7034    1.6272 H   0  0  0  0  0  0  0  0  0  0  0  0
   -3.6259    0.8421    1.9353 H   0  0  0  0  0  0  0  0  0  0  0  0
   -4.1250    2.7554    0.4735 H   0  0  0  0  0  0  0  0  0  0  0  0
   -3.4271    1.8727   -0.8879 H   0  0  0  0  0  0  0  0  0  0  0  0
   -4.9487    3.6444   -1.6644 H   0  0  0  0  0  0  0  0  0  0  0  0
   -5.4604    2.0421   -2.1899 H   0  0  0  0  0  0  0  0  0  0  0  0
   -6.6244    3.6796    0.1123 H   0  0  0  0  0  0  0  0  0  0  0  0
   -7.4251    3.2664   -1.4041 H   0  0  0  0  0  0  0  0  0  0  0  0
   -7.4462    0.8892   -0.8255 H   0  0  0  0  0  0  0  0  0  0  0  0
   -8.1327    1.8002    0.5180 H   0  0  0  0  0  0  0  0  0  0  0  0
   -6.0219    1.6684    1.7731 H   0  0  0  0  0  0  0  0  0  0  0  0
   -6.5524    0.0568    1.2787 H   0  0  0  0  0  0  0  0  0  0  0  0
  1  2  2  0
  2  3  1  0
  3  4  2  0
  4  5  1  0
  5  6  1  0
  6  7  1  0
  7  8  1  0
  8  9  1  0
  9 10  1  0
 10 11  1  0
  5 12  2  0
 12 13  1  0
 13 14  2  0
 14 15  1  0
 15 16  1  0
 16 17  2  0
 16 18  1  0
 18 19  1  0
 19 20  1  0
 20 21  1  0
 21 22  1  0
 22 23  1  0
 23 24  1  0
 24 25  1  0
 25 26  1  0
 26 27  1  0
 18  2  1  0
 27 22  1  0
 14  3  1  0
 11  6  1  0
  4 28  1  0
  7 29  1  0
  7 30  1  0
  8 31  1  0
  8 32  1  0
 10 33  1  0
 10 34  1  0
 11 35  1  0
 11 36  1  0
 12 37  1  0
 13 38  1  0
 15 39  1  0
 19 40  1  0
 19 41  1  0
 20 42  1  0
 20 43  1  0
 21 44  1  0
 21 45  1  0
 23 46  1  0
 23 47  1  0
 24 48  1  0
 24 49  1  0
 25 50  1  0
 25 51  1  0
 26 52  1  0
 26 53  1  0
 27 54  1  0
 27 55  1  0
M  END
$$$$
