
     RDKit          3D

 60 65  0  0  0  0  0  0  0  0999 V2000
    1.6314   -1.2195    1.6618 O   0  0  0  0  0  0  0  0  0  0  0  0
    2.1370   -1.5103    0.5803 C   0  0  0  0  0  0  0  0  0  0  0  0
    2.2676   -2.9710    0.1691 C   0  0  0  0  0  0  0  0  0  0  0  0
    1.0392   -3.4468   -1.0868 S   0  0  0  0  0  0  0  0  0  0  0  0
   -0.3105   -2.4504   -0.5416 C   0  0  0  0  0  0  0  0  0  0  0  0
   -0.4667   -1.3757   -1.2368 N   0  0  0  0  0  0  0  0  0  0  0  0
   -1.3434   -0.4126   -0.7559 C   0  0  0  0  0  0  0  0  0  0  0  0
   -1.4165    0.6992   -1.5160 N   0  0  0  0  0  0  0  0  0  0  0  0
   -2.1654    1.7335   -1.0598 C   0  0  0  0  0  0  0  0  0  0  0  0
   -2.8866    1.6779    0.1382 C   0  0  0  0  0  0  0  0  0  0  0  0
   -2.8023    0.5070    0.8974 C   0  0  0  0  0  0  0  0  0  0  0  0
   -2.0149   -0.5483    0.4379 C   0  0  0  0  0  0  0  0  0  0  0  0
   -1.8791   -1.8148    1.1679 C   0  0  0  0  0  0  0  0  0  0  0  0
   -2.5619   -1.9522    2.1819 O   0  0  0  0  0  0  0  0  0  0  0  0
   -1.0224   -2.7735    0.6104 N   0  0  0  0  0  0  0  0  0  0  0  0
   -0.9493   -4.0599    1.2435 C   0  0  0  0  0  0  0  0  0  0  0  0
   -1.0562   -5.2421    0.4936 C   0  0  0  0  0  0  0  0  0  0  0  0
   -0.9780   -6.4929    1.1129 C   0  0  0  0  0  0  0  0  0  0  0  0
   -0.8037   -6.5788    2.4922 C   0  0  0  0  0  0  0  0  0  0  0  0
   -0.7174   -5.4157    3.2538 C   0  0  0  0  0  0  0  0  0  0  0  0
   -0.7965   -4.1652    2.6347 C   0  0  0  0  0  0  0  0  0  0  0  0
   -3.6688    2.8562    0.6537 C   0  0  0  0  0  0  0  0  0  0  0  0
   -3.9377    3.9179   -0.4132 C   0  0  0  0  0  0  0  0  0  0  0  0
   -2.6744    4.2066   -1.2173 C   0  0  0  0  0  0  0  0  0  0  0  0
   -2.2187    2.9483   -1.9509 C   0  0  0  0  0  0  0  0  0  0  0  0
    2.6019   -0.6342   -0.3852 N   0  0  0  0  0  0  0  0  0  0  0  0
    2.6194    0.7877   -0.3524 C   0  0  0  0  0  0  0  0  0  0  0  0
    2.2638    1.4905    0.8062 C   0  0  0  0  0  0  0  0  0  0  0  0
    2.3006    2.8837    0.8398 C   0  0  0  0  0  0  0  0  0  0  0  0
    2.6946    3.5976   -0.2862 C   0  0  0  0  0  0  0  0  0  0  0  0
    3.0558    2.9340   -1.4651 C   0  0  0  0  0  0  0  0  0  0  0  0
    3.4489    3.6897   -2.5859 C   0  0  0  0  0  0  0  0  0  0  0  0
    3.8082    3.0730   -3.7807 C   0  0  0  0  0  0  0  0  0  0  0  0
    3.7780    1.6893   -3.8702 C   0  0  0  0  0  0  0  0  0  0  0  0
    3.3908    0.9236   -2.7632 C   0  0  0  0  0  0  0  0  0  0  0  0
    3.0214    1.5134   -1.5241 C   0  0  0  0  0  0  0  0  0  0  0  0
    3.2723   -3.1443   -0.2304 H   0  0  0  0  0  0  0  0  0  0  0  0
    2.1540   -3.6038    1.0540 H   0  0  0  0  0  0  0  0  0  0  0  0
   -3.3318    0.4210    1.8439 H   0  0  0  0  0  0  0  0  0  0  0  0
   -1.2347   -5.2104   -0.5794 H   0  0  0  0  0  0  0  0  0  0  0  0
   -1.0642   -7.3987    0.5176 H   0  0  0  0  0  0  0  0  0  0  0  0
   -0.7463   -7.5514    2.9752 H   0  0  0  0  0  0  0  0  0  0  0  0
   -0.5912   -5.4783    4.3327 H   0  0  0  0  0  0  0  0  0  0  0  0
   -0.7165   -3.2734    3.2539 H   0  0  0  0  0  0  0  0  0  0  0  0
   -4.6255    2.5182    1.0700 H   0  0  0  0  0  0  0  0  0  0  0  0
   -3.0965    3.3104    1.4726 H   0  0  0  0  0  0  0  0  0  0  0  0
   -4.7305    3.5722   -1.0894 H   0  0  0  0  0  0  0  0  0  0  0  0
   -4.3013    4.8351    0.0640 H   0  0  0  0  0  0  0  0  0  0  0  0
   -1.8813    4.5574   -0.5439 H   0  0  0  0  0  0  0  0  0  0  0  0
   -2.8612    5.0085   -1.9411 H   0  0  0  0  0  0  0  0  0  0  0  0
   -1.2318    3.1228   -2.3962 H   0  0  0  0  0  0  0  0  0  0  0  0
   -2.9150    2.7324   -2.7712 H   0  0  0  0  0  0  0  0  0  0  0  0
    2.8282   -1.0549   -1.2736 H   0  0  0  0  0  0  0  0  0  0  0  0
    1.9577    0.9838    1.7161 H   0  0  0  0  0  0  0  0  0  0  0  0
    2.0225    3.4101    1.7502 H   0  0  0  0  0  0  0  0  0  0  0  0
    2.7181    4.6855   -0.2341 H   0  0  0  0  0  0  0  0  0  0  0  0
    3.4671    4.7775   -2.5362 H   0  0  0  0  0  0  0  0  0  0  0  0
    4.1034    3.6722   -4.6394 H   0  0  0  0  0  0  0  0  0  0  0  0
    4.0420    1.1970   -4.8040 H   0  0  0  0  0  0  0  0  0  0  0  0
    3.3743   -0.1542   -2.9053 H   0  0  0  0  0  0  0  0  0  0  0  0
  1  2  2  0
  2  3  1  0
  3  4  1  0
  4  5  1  0
  5  6  2  0
  6  7  1  0
  7  8  2  0
  8  9  1  0
  9 10  2  0
 10 11  1  0
 11 12  2  0
 12 13  1  0
 13 14  2  0
 13 15  1  0
 15 16  1  0
 16 17  2  0
 17 18  1  0
 18 19  2  0
 19 20  1  0
 20 21  2  0
 10 22  1  0
 22 23  1  0
 23 24  1  0
 24 25  1  0
  2 26  1  0
 26 27  1  0
 27 28  2  0
 28 29  1  0
 29 30  2  0
 30 31  1  0
 31 32  2  0
 32 33  1  0
 33 34  2  0
 34 35  1  0
 35 36  2  0
 15  5  1  0
 21 16  1  0
 36 27  1  0
 12  7  1  0
 36 31  1  0
 25  9  1  0
  3 37  1  0
  3 38  1  0
 11 39  1  0
 17 40  1  0
 18 41  1  0
 19 42  1  0
 20 43  1  0
 21 44  1  0
 22 45  1  0
 22 46  1  0
 23 47  1  0
 23 48  1  0
 24 49  1  0
 24 50  1  0
 25 51  1  0
 25 52  1  0
 26 53  1  0
 28 54  1  0
 29 55  1  0
 30 56  1  0
 32 57  1  0
 33 58  1  0
 34 59  1  0
 35 60  1  0
M  END
$$$$
