
     RDKit          3D

 80 85  0  0  0  0  0  0  0  0999 V2000
    6.2325   -0.8873    2.3064 C   0  0  0  0  0  0  0  0  0  0  0  0
    5.4304   -0.4896    1.0645 C   0  0  0  0  0  0  0  0  0  0  0  0
    5.7472   -1.4257   -0.1010 C   0  0  0  0  0  0  0  0  0  0  0  0
    4.6785   -1.4230   -1.1922 C   0  0  0  0  0  0  0  0  0  0  0  0
    3.8662   -0.1057   -1.3123 C   0  0  0  0  0  0  0  0  0  0  0  0
    4.8235    1.0065   -1.7879 C   0  0  0  0  0  0  0  0  0  0  0  0
    4.9116    2.1487   -1.3679 O   0  0  0  0  0  0  0  0  0  0  0  0
    5.5953    0.6414   -2.8339 O   0  0  0  0  0  0  0  0  0  0  0  0
    2.8595   -0.2857   -2.4749 C   0  0  0  0  0  0  0  0  0  0  0  0
    1.4868   -0.7535   -2.0193 C   0  0  0  0  0  0  0  0  0  0  0  0
    0.7943    0.2485   -1.0631 C   0  0  0  0  0  0  0  0  0  0  0  0
    0.7881    1.6536   -1.7406 C   0  0  0  0  0  0  0  0  0  0  0  0
    1.6575    0.3725    0.1980 C   0  0  0  0  0  0  0  0  0  0  0  0
    1.0689    0.6005    1.3936 C   0  0  0  0  0  0  0  0  0  0  0  0
   -0.4027    0.6415    1.6803 C   0  0  0  0  0  0  0  0  0  0  0  0
   -1.2929    0.6874    0.4286 C   0  0  0  0  0  0  0  0  0  0  0  0
   -2.8363    0.6128    0.7315 C   0  0  0  0  0  0  0  0  0  0  0  0
   -3.2660    1.9175    1.4792 C   0  0  0  0  0  0  0  0  0  0  0  0
   -4.7562    1.8887    1.8036 C   0  0  0  0  0  0  0  0  0  0  0  0
   -5.3702    0.5932    1.2756 C   0  0  0  0  0  0  0  0  0  0  0  0
   -6.7269    0.5672    1.6752 O   0  0  0  0  0  0  0  0  0  0  0  0
   -4.7098   -0.4861    1.9371 O   0  0  0  0  0  0  0  0  0  0  0  0
   -3.3036   -0.5455    1.6435 C   0  0  0  0  0  0  0  0  0  0  0  0
   -5.2044    0.4274   -0.2689 C   0  0  0  0  0  0  0  0  0  0  0  0
   -5.7984   -0.9334   -0.7128 C   0  0  0  0  0  0  0  0  0  0  0  0
   -5.9914    1.5121   -1.0400 C   0  0  0  0  0  0  0  0  0  0  0  0
   -3.6686    0.5776   -0.5928 C   0  0  0  0  0  0  0  0  0  0  0  0
   -3.1171   -0.4301   -1.6120 C   0  0  0  0  0  0  0  0  0  0  0  0
   -1.6478   -0.1607   -1.9339 C   0  0  0  0  0  0  0  0  0  0  0  0
   -0.7127   -0.2464   -0.6989 C   0  0  0  0  0  0  0  0  0  0  0  0
   -0.6611   -1.7337   -0.2409 C   0  0  0  0  0  0  0  0  0  0  0  0
    3.2041    0.3141    0.0811 C   0  0  0  0  0  0  0  0  0  0  0  0
    3.9093   -0.3914    1.3154 C   0  0  0  0  0  0  0  0  0  0  0  0
    3.2854   -1.7409    1.7265 C   0  0  0  0  0  0  0  0  0  0  0  0
    6.0356   -1.9184    2.6136 H   0  0  0  0  0  0  0  0  0  0  0  0
    5.9989   -0.2272    3.1483 H   0  0  0  0  0  0  0  0  0  0  0  0
    7.3068   -0.8064    2.1084 H   0  0  0  0  0  0  0  0  0  0  0  0
    5.7799    0.5168    0.7964 H   0  0  0  0  0  0  0  0  0  0  0  0
    5.8754   -2.4566    0.2501 H   0  0  0  0  0  0  0  0  0  0  0  0
    6.7146   -1.1359   -0.5322 H   0  0  0  0  0  0  0  0  0  0  0  0
    3.9847   -2.2532   -1.0247 H   0  0  0  0  0  0  0  0  0  0  0  0
    5.1724   -1.6810   -2.1386 H   0  0  0  0  0  0  0  0  0  0  0  0
    6.1099    1.4510   -3.0388 H   0  0  0  0  0  0  0  0  0  0  0  0
    3.2447   -1.0195   -3.1981 H   0  0  0  0  0  0  0  0  0  0  0  0
    2.7625    0.6339   -3.0668 H   0  0  0  0  0  0  0  0  0  0  0  0
    0.8761   -0.9157   -2.9142 H   0  0  0  0  0  0  0  0  0  0  0  0
    1.6101   -1.7324   -1.5426 H   0  0  0  0  0  0  0  0  0  0  0  0
    0.1679    2.3869   -1.2213 H   0  0  0  0  0  0  0  0  0  0  0  0
    1.7861    2.1050   -1.7706 H   0  0  0  0  0  0  0  0  0  0  0  0
    0.4351    1.5955   -2.7764 H   0  0  0  0  0  0  0  0  0  0  0  0
    1.6797    0.7518    2.2805 H   0  0  0  0  0  0  0  0  0  0  0  0
   -0.5922    1.5250    2.3003 H   0  0  0  0  0  0  0  0  0  0  0  0
   -0.6372   -0.2333    2.2956 H   0  0  0  0  0  0  0  0  0  0  0  0
   -1.1813    1.7072    0.0423 H   0  0  0  0  0  0  0  0  0  0  0  0
   -3.0425    2.8060    0.8743 H   0  0  0  0  0  0  0  0  0  0  0  0
   -2.7116    2.0358    2.4173 H   0  0  0  0  0  0  0  0  0  0  0  0
   -4.8856    1.9394    2.8939 H   0  0  0  0  0  0  0  0  0  0  0  0
   -5.2653    2.7754    1.4107 H   0  0  0  0  0  0  0  0  0  0  0  0
   -6.9911   -0.3652    1.5906 H   0  0  0  0  0  0  0  0  0  0  0  0
   -2.7868   -0.5331    2.6080 H   0  0  0  0  0  0  0  0  0  0  0  0
   -3.1380   -1.5257    1.2007 H   0  0  0  0  0  0  0  0  0  0  0  0
   -5.2970   -1.7782   -0.2302 H   0  0  0  0  0  0  0  0  0  0  0  0
   -6.8643   -1.0008   -0.4664 H   0  0  0  0  0  0  0  0  0  0  0  0
   -5.7249   -1.0731   -1.7969 H   0  0  0  0  0  0  0  0  0  0  0  0
   -5.6383    2.5211   -0.8038 H   0  0  0  0  0  0  0  0  0  0  0  0
   -5.8785    1.3766   -2.1214 H   0  0  0  0  0  0  0  0  0  0  0  0
   -7.0632    1.4725   -0.8109 H   0  0  0  0  0  0  0  0  0  0  0  0
   -3.5299    1.5634   -1.0647 H   0  0  0  0  0  0  0  0  0  0  0  0
   -3.6845   -0.3458   -2.5472 H   0  0  0  0  0  0  0  0  0  0  0  0
   -3.2372   -1.4607   -1.2647 H   0  0  0  0  0  0  0  0  0  0  0  0
   -1.5942    0.8343   -2.3882 H   0  0  0  0  0  0  0  0  0  0  0  0
   -1.3283   -0.8692   -2.7067 H   0  0  0  0  0  0  0  0  0  0  0  0
    0.0644   -1.9032    0.5598 H   0  0  0  0  0  0  0  0  0  0  0  0
   -1.6188   -2.1049    0.1132 H   0  0  0  0  0  0  0  0  0  0  0  0
   -0.3950   -2.3957   -1.0728 H   0  0  0  0  0  0  0  0  0  0  0  0
    3.4608    1.3755    0.2192 H   0  0  0  0  0  0  0  0  0  0  0  0
    3.7903    0.2753    2.1812 H   0  0  0  0  0  0  0  0  0  0  0  0
    3.8390   -2.1966    2.5517 H   0  0  0  0  0  0  0  0  0  0  0  0
    3.2560   -2.4653    0.9110 H   0  0  0  0  0  0  0  0  0  0  0  0
    2.2615   -1.6240    2.0905 H   0  0  0  0  0  0  0  0  0  0  0  0
  1  2  1  0
  2  3  1  0
  3  4  1  0
  4  5  1  0
  5  6  1  0
  6  7  2  0
  6  8  1  0
  5  9  1  0
  9 10  1  0
 10 11  1  0
 11 12  1  0
 11 13  1  0
 13 14  2  0
 14 15  1  0
 15 16  1  0
 16 17  1  0
 17 18  1  0
 18 19  1  0
 19 20  1  0
 20 21  1  0
 20 22  1  0
 22 23  1  0
 20 24  1  0
 24 25  1  0
 24 26  1  0
 24 27  1  0
 27 28  1  0
 28 29  1  0
 29 30  1  0
 30 31  1  0
 13 32  1  0
 32 33  1  0
 33 34  1  0
 33  2  1  0
 32  5  1  0
 30 11  1  0
 30 16  1  0
 23 17  1  0
 27 17  1  0
  1 35  1  0
  1 36  1  0
  1 37  1  0
  2 38  1  0
  3 39  1  0
  3 40  1  0
  4 41  1  0
  4 42  1  0
  8 43  1  0
  9 44  1  0
  9 45  1  0
 10 46  1  0
 10 47  1  0
 12 48  1  0
 12 49  1  0
 12 50  1  0
 14 51  1  0
 15 52  1  0
 15 53  1  0
 16 54  1  0
 18 55  1  0
 18 56  1  0
 19 57  1  0
 19 58  1  0
 21 59  1  0
 23 60  1  0
 23 61  1  0
 25 62  1  0
 25 63  1  0
 25 64  1  0
 26 65  1  0
 26 66  1  0
 26 67  1  0
 27 68  1  0
 28 69  1  0
 28 70  1  0
 29 71  1  0
 29 72  1  0
 31 73  1  0
 31 74  1  0
 31 75  1  0
 32 76  1  0
 33 77  1  0
 34 78  1  0
 34 79  1  0
 34 80  1  0
M  END
$$$$
