
     RDKit          3D

 46 49  0  0  0  0  0  0  0  0999 V2000
    8.8278   -1.1129   -1.9284 O   0  0  0  0  0  0  0  0  0  0  0  0
    8.1951   -1.3857   -0.8980 N   0  0  0  0  0  4  0  0  0  0  0  0
    8.7141   -1.7205    0.1766 O   0  0  0  0  0  1  0  0  0  0  0  0
    6.7302   -1.3109   -0.9555 C   0  0  0  0  0  0  0  0  0  0  0  0
    6.1006   -0.9356   -2.1489 C   0  0  0  0  0  0  0  0  0  0  0  0
    4.7062   -0.8647   -2.1984 C   0  0  0  0  0  0  0  0  0  0  0  0
    3.9349   -1.1750   -1.0675 C   0  0  0  0  0  0  0  0  0  0  0  0
    2.4287   -1.0728   -1.1193 C   0  0  0  0  0  0  0  0  0  0  0  0
    2.0707    0.2569   -0.7552 O   0  0  0  0  0  0  0  0  0  0  0  0
    0.7385    0.5626   -0.7199 C   0  0  0  0  0  0  0  0  0  0  0  0
    0.4587    1.8750   -0.3307 C   0  0  0  0  0  0  0  0  0  0  0  0
   -0.8595    2.3300   -0.2479 C   0  0  0  0  0  0  0  0  0  0  0  0
   -1.9223    1.4731   -0.5538 C   0  0  0  0  0  0  0  0  0  0  0  0
   -3.2923    1.9641   -0.4400 C   0  0  0  0  0  0  0  0  0  0  0  0
   -3.7916    2.9195   -1.2891 N   0  0  0  0  0  0  0  0  0  0  0  0
   -5.0745    3.2471   -1.0609 N   0  0  0  0  0  0  0  0  0  0  0  0
   -5.4202    2.4437   -0.0530 C   0  0  0  0  0  0  0  0  0  0  0  0
   -4.3540    1.6238    0.3846 C   0  0  0  0  0  0  0  0  0  0  0  0
   -4.3322    0.6224    1.4343 C   0  0  0  0  0  0  0  0  0  0  0  0
   -5.3417   -0.3482    1.4915 C   0  0  0  0  0  0  0  0  0  0  0  0
   -5.3351   -1.3177    2.4985 C   0  0  0  0  0  0  0  0  0  0  0  0
   -4.3211   -1.3159    3.4539 C   0  0  0  0  0  0  0  0  0  0  0  0
   -4.3094   -2.5121    4.6903 Cl  0  0  0  0  0  0  0  0  0  0  0  0
   -3.3159   -0.3522    3.4140 C   0  0  0  0  0  0  0  0  0  0  0  0
   -3.3230    0.6167    2.4067 C   0  0  0  0  0  0  0  0  0  0  0  0
   -1.6333    0.1594   -0.9501 C   0  0  0  0  0  0  0  0  0  0  0  0
   -2.6628   -0.6816   -1.2812 O   0  0  0  0  0  0  0  0  0  0  0  0
   -0.3138   -0.2988   -1.0329 C   0  0  0  0  0  0  0  0  0  0  0  0
    4.5805   -1.5366    0.1253 C   0  0  0  0  0  0  0  0  0  0  0  0
    5.9744   -1.6103    0.1847 C   0  0  0  0  0  0  0  0  0  0  0  0
    6.6758   -0.6909   -3.0395 H   0  0  0  0  0  0  0  0  0  0  0  0
    4.2222   -0.5571   -3.1241 H   0  0  0  0  0  0  0  0  0  0  0  0
    2.0836   -1.3033   -2.1350 H   0  0  0  0  0  0  0  0  0  0  0  0
    1.9910   -1.7986   -0.4222 H   0  0  0  0  0  0  0  0  0  0  0  0
    1.2760    2.5495   -0.0838 H   0  0  0  0  0  0  0  0  0  0  0  0
   -1.0475    3.3518    0.0744 H   0  0  0  0  0  0  0  0  0  0  0  0
   -3.3061    3.3795   -2.0508 H   0  0  0  0  0  0  0  0  0  0  0  0
   -6.4317    2.4903    0.3296 H   0  0  0  0  0  0  0  0  0  0  0  0
   -6.1309   -0.3676    0.7429 H   0  0  0  0  0  0  0  0  0  0  0  0
   -6.1196   -2.0689    2.5278 H   0  0  0  0  0  0  0  0  0  0  0  0
   -2.5269   -0.3459    4.1610 H   0  0  0  0  0  0  0  0  0  0  0  0
   -2.5381    1.3693    2.3923 H   0  0  0  0  0  0  0  0  0  0  0  0
   -2.3246   -1.5836   -1.3938 H   0  0  0  0  0  0  0  0  0  0  0  0
   -0.1300   -1.3184   -1.3487 H   0  0  0  0  0  0  0  0  0  0  0  0
    3.9982   -1.7550    1.0191 H   0  0  0  0  0  0  0  0  0  0  0  0
    6.4507   -1.8939    1.1211 H   0  0  0  0  0  0  0  0  0  0  0  0
  1  2  2  0
  2  3  1  0
  2  4  1  0
  4  5  2  0
  5  6  1  0
  6  7  2  0
  7  8  1  0
  8  9  1  0
  9 10  1  0
 10 11  2  0
 11 12  1  0
 12 13  2  0
 13 14  1  0
 14 15  1  0
 15 16  1  0
 16 17  2  0
 17 18  1  0
 18 19  1  0
 19 20  2  0
 20 21  1  0
 21 22  2  0
 22 23  1  0
 22 24  1  0
 24 25  2  0
 13 26  1  0
 26 27  1  0
 26 28  2  0
  7 29  1  0
 29 30  2  0
 30  4  1  0
 28 10  1  0
 18 14  2  0
 25 19  1  0
  5 31  1  0
  6 32  1  0
  8 33  1  0
  8 34  1  0
 11 35  1  0
 12 36  1  0
 15 37  1  0
 17 38  1  0
 20 39  1  0
 21 40  1  0
 24 41  1  0
 25 42  1  0
 27 43  1  0
 28 44  1  0
 29 45  1  0
 30 46  1  0
M  CHG  2   2   1   3  -1
M  END
$$$$
