
     RDKit          3D

 42 45  0  0  0  0  0  0  0  0999 V2000
    5.7718    0.8013   -0.6412 C   0  0  0  0  0  0  0  0  0  0  0  0
    5.4733    0.1474    0.6223 N   0  0  0  0  0  0  0  0  0  0  0  0
    5.1830    1.0258    1.7439 C   0  0  0  0  0  0  0  0  0  0  0  0
    5.1010   -1.1963    0.7297 C   0  0  0  0  0  0  0  0  0  0  0  0
    4.7393   -1.6748    1.8087 O   0  0  0  0  0  0  0  0  0  0  0  0
    5.2143   -2.0594   -0.5288 C   0  0  0  0  0  0  0  0  0  0  0  0
    4.0397   -3.4482   -0.5135 S   0  0  0  0  0  0  0  0  0  0  0  0
    2.5290   -2.5609   -0.5011 C   0  0  0  0  0  0  0  0  0  0  0  0
    2.4510   -1.3318   -0.9579 N   0  0  0  0  0  0  0  0  0  0  0  0
    1.1553   -0.8695   -0.8152 C   0  0  0  0  0  0  0  0  0  0  0  0
    0.6868    0.4043   -1.1715 C   0  0  0  0  0  0  0  0  0  0  0  0
   -0.6632    0.7366   -0.9658 C   0  0  0  0  0  0  0  0  0  0  0  0
   -1.5832   -0.1664   -0.4117 C   0  0  0  0  0  0  0  0  0  0  0  0
   -2.9555    0.1973   -0.2080 N   0  0  0  0  0  0  0  0  0  0  0  0
   -3.9410   -0.6513    0.2632 C   0  0  0  0  0  0  0  0  0  0  0  0
   -3.9232   -1.8253    0.5872 O   0  0  0  0  0  0  0  0  0  0  0  0
   -5.1810    0.1140    0.3271 C   0  0  0  0  0  0  0  0  0  0  0  0
   -6.4478   -0.2664    0.7305 C   0  0  0  0  0  0  0  0  0  0  0  0
   -7.4556    0.7016    0.6803 C   0  0  0  0  0  0  0  0  0  0  0  0
   -7.1766    2.0088    0.2341 C   0  0  0  0  0  0  0  0  0  0  0  0
   -5.8861    2.3659   -0.1689 C   0  0  0  0  0  0  0  0  0  0  0  0
   -4.9089    1.3892   -0.1096 C   0  0  0  0  0  0  0  0  0  0  0  0
   -3.4925    1.4484   -0.4529 C   0  0  0  0  0  0  0  0  0  0  0  0
   -3.0004    2.4838   -0.8654 O   0  0  0  0  0  0  0  0  0  0  0  0
   -1.1067   -1.4443   -0.0604 C   0  0  0  0  0  0  0  0  0  0  0  0
    0.2499   -1.7730   -0.2655 C   0  0  0  0  0  0  0  0  0  0  0  0
    1.0741   -3.2463    0.0788 S   0  0  0  0  0  0  0  0  0  0  0  0
    6.3276    1.7261   -0.4592 H   0  0  0  0  0  0  0  0  0  0  0  0
    4.8311    1.0289   -1.1507 H   0  0  0  0  0  0  0  0  0  0  0  0
    6.3870    0.1568   -1.2736 H   0  0  0  0  0  0  0  0  0  0  0  0
    5.0902    0.4750    2.6837 H   0  0  0  0  0  0  0  0  0  0  0  0
    5.9912    1.7560    1.8480 H   0  0  0  0  0  0  0  0  0  0  0  0
    4.2408    1.5460    1.5440 H   0  0  0  0  0  0  0  0  0  0  0  0
    5.0305   -1.4885   -1.4405 H   0  0  0  0  0  0  0  0  0  0  0  0
    6.2318   -2.4599   -0.5708 H   0  0  0  0  0  0  0  0  0  0  0  0
    1.3699    1.1287   -1.6043 H   0  0  0  0  0  0  0  0  0  0  0  0
   -0.9534    1.7386   -1.2692 H   0  0  0  0  0  0  0  0  0  0  0  0
   -6.6482   -1.2773    1.0720 H   0  0  0  0  0  0  0  0  0  0  0  0
   -8.4674    0.4444    0.9893 H   0  0  0  0  0  0  0  0  0  0  0  0
   -7.9759    2.7474    0.2036 H   0  0  0  0  0  0  0  0  0  0  0  0
   -5.6568    3.3692   -0.5144 H   0  0  0  0  0  0  0  0  0  0  0  0
   -1.7451   -2.2022    0.3791 H   0  0  0  0  0  0  0  0  0  0  0  0
  1  2  1  0
  2  3  1  0
  2  4  1  0
  4  5  2  0
  4  6  1  0
  6  7  1  0
  7  8  1  0
  8  9  2  0
  9 10  1  0
 10 11  2  0
 11 12  1  0
 12 13  2  0
 13 14  1  0
 14 15  1  0
 15 16  2  0
 15 17  1  0
 17 18  2  0
 18 19  1  0
 19 20  2  0
 20 21  1  0
 21 22  2  0
 22 23  1  0
 23 24  2  0
 13 25  1  0
 25 26  2  0
 26 27  1  0
 27  8  1  0
 26 10  1  0
 23 14  1  0
 22 17  1  0
  1 28  1  0
  1 29  1  0
  1 30  1  0
  3 31  1  0
  3 32  1  0
  3 33  1  0
  6 34  1  0
  6 35  1  0
 11 36  1  0
 12 37  1  0
 18 38  1  0
 19 39  1  0
 20 40  1  0
 21 41  1  0
 25 42  1  0
M  END
$$$$
