
     RDKit          3D

 53 57  0  0  0  0  0  0  0  0999 V2000
    4.6769    0.1517    0.8104 C   0  0  0  0  0  0  0  0  0  0  0  0
    3.9698    0.2129    2.1348 C   0  0  0  0  0  0  0  0  0  0  0  0
    4.5789    0.9304    3.1812 C   0  0  0  0  0  0  0  0  0  0  0  0
    3.9853    1.0148    4.4428 C   0  0  0  0  0  0  0  0  0  0  0  0
    2.7705    0.3835    4.6860 C   0  0  0  0  0  0  0  0  0  0  0  0
    2.1443   -0.3260    3.6630 C   0  0  0  0  0  0  0  0  0  0  0  0
    2.7305   -0.4050    2.3873 C   0  0  0  0  0  0  0  0  0  0  0  0
    1.8306   -1.3231    1.1498 S   0  0  0  0  0  6  0  0  0  0  0  0
    1.8333   -2.7053    1.5847 O   0  0  0  0  0  0  0  0  0  0  0  0
    2.2779   -0.9823   -0.1842 O   0  0  0  0  0  0  0  0  0  0  0  0
    0.2460   -0.7959    1.3114 N   0  0  0  0  0  0  0  0  0  0  0  0
   -0.0498    0.4279    0.6579 C   0  0  0  0  0  0  0  0  0  0  0  0
    0.5625    1.5119    1.1669 N   0  0  0  0  0  0  0  0  0  0  0  0
    0.2404    2.6825    0.5951 C   0  0  0  0  0  0  0  0  0  0  0  0
    0.8391    3.8485    1.0549 C   0  0  0  0  0  0  0  0  0  0  0  0
    0.5308    5.0903    0.4982 C   0  0  0  0  0  0  0  0  0  0  0  0
   -0.3927    5.1677   -0.5367 C   0  0  0  0  0  0  0  0  0  0  0  0
   -0.9997    4.0021   -1.0079 C   0  0  0  0  0  0  0  0  0  0  0  0
   -0.7017    2.7592   -0.4635 C   0  0  0  0  0  0  0  0  0  0  0  0
   -1.3104    1.6596   -0.9541 N   0  0  0  0  0  0  0  0  0  0  0  0
   -0.9749    0.4698   -0.4090 C   0  0  0  0  0  0  0  0  0  0  0  0
   -1.5541   -0.7261   -0.9026 N   0  0  0  0  0  0  0  0  0  0  0  0
   -0.5928   -1.4733   -1.7575 C   0  0  0  0  0  0  0  0  0  0  0  0
   -1.2133   -2.0994   -3.0182 C   0  0  0  0  0  0  0  0  0  0  0  0
   -2.5979   -2.6224   -2.7530 C   0  0  0  0  0  0  0  0  0  0  0  0
   -3.0667   -3.8240   -3.2856 C   0  0  0  0  0  0  0  0  0  0  0  0
   -4.3725   -4.2356   -3.0161 C   0  0  0  0  0  0  0  0  0  0  0  0
   -5.2125   -3.4430   -2.2315 C   0  0  0  0  0  0  0  0  0  0  0  0
   -4.7530   -2.2321   -1.7128 C   0  0  0  0  0  0  0  0  0  0  0  0
   -3.4423   -1.8193   -1.9664 C   0  0  0  0  0  0  0  0  0  0  0  0
   -2.8916   -0.5017   -1.4694 C   0  0  0  0  0  0  0  0  0  0  0  0
    5.6919    0.5559    0.8817 H   0  0  0  0  0  0  0  0  0  0  0  0
    4.7800   -0.8838    0.4742 H   0  0  0  0  0  0  0  0  0  0  0  0
    4.1433    0.7450    0.0641 H   0  0  0  0  0  0  0  0  0  0  0  0
    5.5330    1.4297    3.0202 H   0  0  0  0  0  0  0  0  0  0  0  0
    4.4764    1.5717    5.2370 H   0  0  0  0  0  0  0  0  0  0  0  0
    2.3081    0.4458    5.6678 H   0  0  0  0  0  0  0  0  0  0  0  0
    1.1926   -0.8139    3.8624 H   0  0  0  0  0  0  0  0  0  0  0  0
   -0.4169   -1.5393    1.0917 H   0  0  0  0  0  0  0  0  0  0  0  0
    1.5594    3.7857    1.8671 H   0  0  0  0  0  0  0  0  0  0  0  0
    1.0109    5.9906    0.8742 H   0  0  0  0  0  0  0  0  0  0  0  0
   -0.6413    6.1295   -0.9792 H   0  0  0  0  0  0  0  0  0  0  0  0
   -1.7190    4.0634   -1.8209 H   0  0  0  0  0  0  0  0  0  0  0  0
    0.2529   -0.8498   -2.0744 H   0  0  0  0  0  0  0  0  0  0  0  0
   -0.1820   -2.2863   -1.1464 H   0  0  0  0  0  0  0  0  0  0  0  0
   -1.2816   -1.3438   -3.8104 H   0  0  0  0  0  0  0  0  0  0  0  0
   -0.5551   -2.8949   -3.3879 H   0  0  0  0  0  0  0  0  0  0  0  0
   -2.4248   -4.4441   -3.9062 H   0  0  0  0  0  0  0  0  0  0  0  0
   -4.7382   -5.1752   -3.4215 H   0  0  0  0  0  0  0  0  0  0  0  0
   -6.2295   -3.7697   -2.0281 H   0  0  0  0  0  0  0  0  0  0  0  0
   -5.4209   -1.6179   -1.1154 H   0  0  0  0  0  0  0  0  0  0  0  0
   -2.8749    0.2011   -2.3128 H   0  0  0  0  0  0  0  0  0  0  0  0
   -3.5550   -0.0981   -0.6932 H   0  0  0  0  0  0  0  0  0  0  0  0
  1  2  1  0
  2  3  2  0
  3  4  1  0
  4  5  2  0
  5  6  1  0
  6  7  2  0
  7  8  1  0
  8  9  2  0
  8 10  2  0
  8 11  1  0
 11 12  1  0
 12 13  2  0
 13 14  1  0
 14 15  2  0
 15 16  1  0
 16 17  2  0
 17 18  1  0
 18 19  2  0
 19 20  1  0
 20 21  2  0
 21 22  1  0
 22 23  1  0
 23 24  1  0
 24 25  1  0
 25 26  2  0
 26 27  1  0
 27 28  2  0
 28 29  1  0
 29 30  2  0
 30 31  1  0
  7  2  1  0
 21 12  1  0
 31 22  1  0
 19 14  1  0
 30 25  1  0
  1 32  1  0
  1 33  1  0
  1 34  1  0
  3 35  1  0
  4 36  1  0
  5 37  1  0
  6 38  1  0
 11 39  1  0
 15 40  1  0
 16 41  1  0
 17 42  1  0
 18 43  1  0
 23 44  1  0
 23 45  1  0
 24 46  1  0
 24 47  1  0
 26 48  1  0
 27 49  1  0
 28 50  1  0
 29 51  1  0
 31 52  1  0
 31 53  1  0
M  END
$$$$
