
     RDKit          3D

 55 57  0  0  0  0  0  0  0  0999 V2000
    7.7110    1.4505   -1.6071 C   0  0  0  0  0  0  0  0  0  0  0  0
    6.5099    2.1639   -1.3412 O   0  0  0  0  0  0  0  0  0  0  0  0
    5.4586    1.4410   -0.8493 C   0  0  0  0  0  0  0  0  0  0  0  0
    5.4467    0.0691   -0.6057 C   0  0  0  0  0  0  0  0  0  0  0  0
    4.2956   -0.5481   -0.1003 C   0  0  0  0  0  0  0  0  0  0  0  0
    3.1359    0.1949    0.1734 C   0  0  0  0  0  0  0  0  0  0  0  0
    1.8916   -0.5120    0.7020 C   0  0  0  0  0  0  0  0  0  0  0  0
    1.3705    0.1746    2.3309 S   0  0  0  0  0  0  0  0  0  0  0  0
   -0.1507    1.0283    1.9296 C   0  0  0  0  0  0  0  0  0  0  0  0
   -0.2030    2.3762    2.3262 C   0  0  0  0  0  0  0  0  0  0  0  0
   -1.3771    3.1169    2.2044 C   0  0  0  0  0  0  0  0  0  0  0  0
   -2.5230    2.5113    1.7078 C   0  0  0  0  0  0  0  0  0  0  0  0
   -2.4908    1.1697    1.3214 C   0  0  0  0  0  0  0  0  0  0  0  0
   -1.3084    0.4104    1.4050 C   0  0  0  0  0  0  0  0  0  0  0  0
   -1.3300   -0.9506    0.9614 N   0  0  0  0  0  0  0  0  0  0  0  0
   -2.5072   -1.7766    1.2749 C   0  0  0  0  0  0  0  0  0  0  0  0
   -3.3848   -2.0552    0.0335 C   0  0  0  0  0  0  0  0  0  0  0  0
   -4.6479   -2.7546    0.3507 N   0  0  0  0  0  0  0  0  0  0  0  0
   -5.2236   -3.3181   -0.8747 C   0  0  0  0  0  0  0  0  0  0  0  0
   -5.6208   -1.8634    0.9851 C   0  0  0  0  0  0  0  0  0  0  0  0
   -0.3015   -1.5593    0.2413 C   0  0  0  0  0  0  0  0  0  0  0  0
   -0.2493   -2.7822    0.0726 O   0  0  0  0  0  0  0  0  0  0  0  0
    0.7971   -0.6697   -0.3656 C   0  0  0  0  0  0  0  0  0  0  0  0
    0.3907    0.5946   -0.9078 O   0  0  0  0  0  0  0  0  0  0  0  0
   -0.4932    0.5365   -1.9367 C   0  0  0  0  0  0  0  0  0  0  0  0
   -0.8099    1.9193   -2.4166 C   0  0  0  0  0  0  0  0  0  0  0  0
   -0.9738   -0.4854   -2.4019 O   0  0  0  0  0  0  0  0  0  0  0  0
    3.1604    1.5748   -0.0776 C   0  0  0  0  0  0  0  0  0  0  0  0
    4.3104    2.1873   -0.5825 C   0  0  0  0  0  0  0  0  0  0  0  0
    8.4487    2.1663   -1.9824 H   0  0  0  0  0  0  0  0  0  0  0  0
    7.5569    0.6936   -2.3834 H   0  0  0  0  0  0  0  0  0  0  0  0
    8.1156    1.0038   -0.6928 H   0  0  0  0  0  0  0  0  0  0  0  0
    6.3144   -0.5532   -0.7982 H   0  0  0  0  0  0  0  0  0  0  0  0
    4.3181   -1.6219    0.0781 H   0  0  0  0  0  0  0  0  0  0  0  0
    2.2035   -1.5283    0.9805 H   0  0  0  0  0  0  0  0  0  0  0  0
    0.6743    2.8570    2.7566 H   0  0  0  0  0  0  0  0  0  0  0  0
   -1.3988    4.1578    2.5176 H   0  0  0  0  0  0  0  0  0  0  0  0
   -3.4458    3.0802    1.6215 H   0  0  0  0  0  0  0  0  0  0  0  0
   -3.4051    0.7406    0.9211 H   0  0  0  0  0  0  0  0  0  0  0  0
   -3.0743   -1.3050    2.0839 H   0  0  0  0  0  0  0  0  0  0  0  0
   -2.1523   -2.7336    1.6795 H   0  0  0  0  0  0  0  0  0  0  0  0
   -2.7931   -2.6790   -0.6489 H   0  0  0  0  0  0  0  0  0  0  0  0
   -3.5881   -1.1250   -0.5126 H   0  0  0  0  0  0  0  0  0  0  0  0
   -6.1448   -3.8677   -0.6504 H   0  0  0  0  0  0  0  0  0  0  0  0
   -4.5351   -4.0397   -1.3286 H   0  0  0  0  0  0  0  0  0  0  0  0
   -5.4539   -2.5446   -1.6165 H   0  0  0  0  0  0  0  0  0  0  0  0
   -5.8644   -1.0008    0.3543 H   0  0  0  0  0  0  0  0  0  0  0  0
   -6.5505   -2.4026    1.2006 H   0  0  0  0  0  0  0  0  0  0  0  0
   -5.2556   -1.4940    1.9480 H   0  0  0  0  0  0  0  0  0  0  0  0
    1.2308   -1.2365   -1.2030 H   0  0  0  0  0  0  0  0  0  0  0  0
   -1.2891    2.4888   -1.6166 H   0  0  0  0  0  0  0  0  0  0  0  0
   -1.4977    1.8598   -3.2647 H   0  0  0  0  0  0  0  0  0  0  0  0
    0.1060    2.4160   -2.7466 H   0  0  0  0  0  0  0  0  0  0  0  0
    2.2860    2.1911    0.1178 H   0  0  0  0  0  0  0  0  0  0  0  0
    4.3111    3.2587   -0.7683 H   0  0  0  0  0  0  0  0  0  0  0  0
  1  2  1  0
  2  3  1  0
  3  4  2  0
  4  5  1  0
  5  6  2  0
  6  7  1  0
  7  8  1  0
  8  9  1  0
  9 10  2  0
 10 11  1  0
 11 12  2  0
 12 13  1  0
 13 14  2  0
 14 15  1  0
 15 16  1  0
 16 17  1  0
 17 18  1  0
 18 19  1  0
 18 20  1  0
 15 21  1  0
 21 22  2  0
 21 23  1  0
 23 24  1  0
 24 25  1  0
 25 26  1  0
 25 27  2  0
  6 28  1  0
 28 29  2  0
 29  3  1  0
 23  7  1  0
 14  9  1  0
  1 30  1  0
  1 31  1  0
  1 32  1  0
  4 33  1  0
  5 34  1  0
  7 35  1  0
 10 36  1  0
 11 37  1  0
 12 38  1  0
 13 39  1  0
 16 40  1  0
 16 41  1  0
 17 42  1  0
 17 43  1  0
 19 44  1  0
 19 45  1  0
 19 46  1  0
 20 47  1  0
 20 48  1  0
 20 49  1  0
 23 50  1  0
 26 51  1  0
 26 52  1  0
 26 53  1  0
 28 54  1  0
 29 55  1  0
M  END
$$$$
