
     RDKit          3D

 57 61  0  0  0  0  0  0  0  0999 V2000
   -6.0418    2.2533   -0.8402 C   0  0  0  0  0  0  0  0  0  0  0  0
   -6.3140    2.0317    0.5995 N   0  0  0  0  0  0  0  0  0  0  0  0
   -7.5847    2.6712    1.0114 C   0  0  0  0  0  0  0  0  0  0  0  0
   -5.0118    2.4238    1.6415 S   0  0  0  0  0  6  0  0  0  0  0  0
   -4.5405    3.7371    1.2626 O   0  0  0  0  0  0  0  0  0  0  0  0
   -5.4147    2.1292    2.9986 O   0  0  0  0  0  0  0  0  0  0  0  0
   -3.7850    1.2255    1.1916 C   0  0  0  0  0  0  0  0  0  0  0  0
   -4.0029   -0.1148    1.5042 C   0  0  0  0  0  0  0  0  0  0  0  0
   -3.0434   -1.0759    1.1591 C   0  0  0  0  0  0  0  0  0  0  0  0
   -1.8516   -0.7287    0.4984 C   0  0  0  0  0  0  0  0  0  0  0  0
   -0.9272   -1.6965    0.0999 N   0  0  0  0  0  0  0  0  0  0  0  0
   -0.8176   -1.9010   -1.3656 C   0  0  0  0  0  0  0  0  0  0  0  0
   -0.5528   -3.3982   -1.5364 C   0  0  0  0  0  0  0  0  0  0  0  0
    0.0279   -3.8143   -0.1961 C   0  0  0  0  0  0  0  0  0  0  0  0
   -0.8126   -2.9952    0.7771 C   0  0  0  0  0  0  0  0  0  0  0  0
   -1.6402    0.6516    0.2298 C   0  0  0  0  0  0  0  0  0  0  0  0
   -0.3661    1.1826   -0.3497 C   0  0  0  0  0  0  0  0  0  0  0  0
   -0.4290    2.1541   -1.0952 O   0  0  0  0  0  0  0  0  0  0  0  0
    0.7590    0.5140    0.0668 N   0  0  0  0  0  0  0  0  0  0  0  0
    2.0601    0.7565   -0.2772 C   0  0  0  0  0  0  0  0  0  0  0  0
    3.0214   -0.0322    0.1363 N   0  0  0  0  0  0  0  0  0  0  0  0
    4.2466    0.4213   -0.3447 C   0  0  0  0  0  0  0  0  0  0  0  0
    4.1724    1.5634   -1.1444 C   0  0  0  0  0  0  0  0  0  0  0  0
    5.3092    2.1440   -1.7283 C   0  0  0  0  0  0  0  0  0  0  0  0
    6.5522    1.5532   -1.4941 C   0  0  0  0  0  0  0  0  0  0  0  0
    6.6798    0.4176   -0.6843 C   0  0  0  0  0  0  0  0  0  0  0  0
    7.9264   -0.1695   -0.4297 C   0  0  0  0  0  0  0  0  0  0  0  0
    8.0310   -1.2934    0.3956 C   0  0  0  0  0  0  0  0  0  0  0  0
    6.8917   -1.8502    0.9741 C   0  0  0  0  0  0  0  0  0  0  0  0
    5.6411   -1.2899    0.7268 C   0  0  0  0  0  0  0  0  0  0  0  0
    5.5252   -0.1567   -0.1005 C   0  0  0  0  0  0  0  0  0  0  0  0
    2.5294    2.0685   -1.2474 S   0  0  0  0  0  0  0  0  0  0  0  0
   -2.6080    1.6200    0.5635 C   0  0  0  0  0  0  0  0  0  0  0  0
   -6.8916    1.8996   -1.4352 H   0  0  0  0  0  0  0  0  0  0  0  0
   -5.1668    1.6851   -1.1672 H   0  0  0  0  0  0  0  0  0  0  0  0
   -5.8929    3.3147   -1.0566 H   0  0  0  0  0  0  0  0  0  0  0  0
   -7.5092    3.7631    0.9644 H   0  0  0  0  0  0  0  0  0  0  0  0
   -7.8637    2.3584    2.0232 H   0  0  0  0  0  0  0  0  0  0  0  0
   -8.3948    2.3522    0.3454 H   0  0  0  0  0  0  0  0  0  0  0  0
   -4.9189   -0.4204    2.0072 H   0  0  0  0  0  0  0  0  0  0  0  0
   -3.2738   -2.1112    1.3959 H   0  0  0  0  0  0  0  0  0  0  0  0
   -1.7267   -1.6118   -1.9107 H   0  0  0  0  0  0  0  0  0  0  0  0
    0.0275   -1.3276   -1.7619 H   0  0  0  0  0  0  0  0  0  0  0  0
    0.1167   -3.6101   -2.3746 H   0  0  0  0  0  0  0  0  0  0  0  0
   -1.4985   -3.9263   -1.7146 H   0  0  0  0  0  0  0  0  0  0  0  0
    1.0832   -3.5230   -0.1324 H   0  0  0  0  0  0  0  0  0  0  0  0
   -0.0483   -4.8901   -0.0168 H   0  0  0  0  0  0  0  0  0  0  0  0
   -0.3222   -2.8988    1.7503 H   0  0  0  0  0  0  0  0  0  0  0  0
   -1.7814   -3.4902    0.9057 H   0  0  0  0  0  0  0  0  0  0  0  0
    0.6251   -0.3473    0.5890 H   0  0  0  0  0  0  0  0  0  0  0  0
    5.2270    3.0323   -2.3452 H   0  0  0  0  0  0  0  0  0  0  0  0
    7.4339    2.0050   -1.9474 H   0  0  0  0  0  0  0  0  0  0  0  0
    8.8313    0.2492   -0.8651 H   0  0  0  0  0  0  0  0  0  0  0  0
    9.0051   -1.7338    0.5877 H   0  0  0  0  0  0  0  0  0  0  0  0
    6.9775   -2.7159    1.6243 H   0  0  0  0  0  0  0  0  0  0  0  0
    4.7558   -1.7276    1.1832 H   0  0  0  0  0  0  0  0  0  0  0  0
   -2.4238    2.6723    0.3482 H   0  0  0  0  0  0  0  0  0  0  0  0
  1  2  1  0
  2  3  1  0
  2  4  1  0
  4  5  2  0
  4  6  2  0
  4  7  1  0
  7  8  2  0
  8  9  1  0
  9 10  2  0
 10 11  1  0
 11 12  1  0
 12 13  1  0
 13 14  1  0
 14 15  1  0
 10 16  1  0
 16 17  1  0
 17 18  2  0
 17 19  1  0
 19 20  1  0
 20 21  2  0
 21 22  1  0
 22 23  2  0
 23 24  1  0
 24 25  2  0
 25 26  1  0
 26 27  2  0
 27 28  1  0
 28 29  2  0
 29 30  1  0
 30 31  2  0
 23 32  1  0
 16 33  2  0
 33  7  1  0
 15 11  1  0
 32 20  1  0
 31 22  1  0
 31 26  1  0
  1 34  1  0
  1 35  1  0
  1 36  1  0
  3 37  1  0
  3 38  1  0
  3 39  1  0
  8 40  1  0
  9 41  1  0
 12 42  1  0
 12 43  1  0
 13 44  1  0
 13 45  1  0
 14 46  1  0
 14 47  1  0
 15 48  1  0
 15 49  1  0
 19 50  1  0
 24 51  1  0
 25 52  1  0
 27 53  1  0
 28 54  1  0
 29 55  1  0
 30 56  1  0
 33 57  1  0
M  END
$$$$
