
     RDKit          3D

 29 31  0  0  0  0  0  0  0  0999 V2000
   -0.1442    2.0984   -1.5001 O   0  0  0  0  0  0  0  0  0  0  0  0
    0.2097    1.1264   -0.8413 C   0  0  0  0  0  0  0  0  0  0  0  0
   -0.6210    0.3195   -0.0767 N   0  0  0  0  0  0  0  0  0  0  0  0
   -1.9624    0.5796   -0.0357 N   0  0  0  0  0  0  0  0  0  0  0  0
   -2.6658   -0.1741    0.7483 C   0  0  0  0  0  0  0  0  0  0  0  0
   -4.0950   -0.0299    0.9067 C   0  0  0  0  0  0  0  0  0  0  0  0
   -4.9252   -0.7834    1.7153 C   0  0  0  0  0  0  0  0  0  0  0  0
   -6.2876   -0.3704    1.6306 C   0  0  0  0  0  0  0  0  0  0  0  0
   -6.4513    0.6837    0.7607 C   0  0  0  0  0  0  0  0  0  0  0  0
   -4.9714    1.1675    0.0548 S   0  0  0  0  0  0  0  0  0  0  0  0
    1.6552    0.7700   -0.8022 C   0  0  0  0  0  0  0  0  0  0  0  0
    2.6012    1.8130   -0.9263 C   0  0  0  0  0  0  0  0  0  0  0  0
    3.9730    1.5426   -0.8963 C   0  0  0  0  0  0  0  0  0  0  0  0
    4.3608    0.2287   -0.7525 C   0  0  0  0  0  0  0  0  0  0  0  0
    3.4428   -0.7907   -0.6471 C   0  0  0  0  0  0  0  0  0  0  0  0
    2.0831   -0.5593   -0.6732 C   0  0  0  0  0  0  0  0  0  0  0  0
    4.0340   -2.0097   -0.5253 O   0  0  0  0  0  0  0  0  0  0  0  0
    5.4296   -1.6423   -0.5782 C   0  0  0  0  0  0  0  0  0  0  0  0
    5.6425   -0.2215   -0.7070 O   0  0  0  0  0  0  0  0  0  0  0  0
   -0.2340   -0.3843    0.5397 H   0  0  0  0  0  0  0  0  0  0  0  0
   -2.1906   -0.9768    1.3410 H   0  0  0  0  0  0  0  0  0  0  0  0
   -4.5781   -1.5959    2.3422 H   0  0  0  0  0  0  0  0  0  0  0  0
   -7.1054   -0.8224    2.1787 H   0  0  0  0  0  0  0  0  0  0  0  0
   -7.3676    1.1967    0.5025 H   0  0  0  0  0  0  0  0  0  0  0  0
    2.2593    2.8405   -1.0473 H   0  0  0  0  0  0  0  0  0  0  0  0
    4.7045    2.3376   -0.9891 H   0  0  0  0  0  0  0  0  0  0  0  0
    1.3937   -1.3935   -0.6283 H   0  0  0  0  0  0  0  0  0  0  0  0
    5.8927   -2.1464   -1.4344 H   0  0  0  0  0  0  0  0  0  0  0  0
    5.9174   -1.9882    0.3403 H   0  0  0  0  0  0  0  0  0  0  0  0
  1  2  2  0
  2  3  1  0
  3  4  1  0
  4  5  2  3
  5  6  1  0
  6  7  2  0
  7  8  1  0
  8  9  2  0
  9 10  1  0
  2 11  1  0
 11 12  2  0
 12 13  1  0
 13 14  2  0
 14 15  1  0
 15 16  2  0
 15 17  1  0
 17 18  1  0
 18 19  1  0
 10  6  1  0
 16 11  1  0
 19 14  1  0
  3 20  1  0
  5 21  1  0
  7 22  1  0
  8 23  1  0
  9 24  1  0
 12 25  1  0
 13 26  1  0
 16 27  1  0
 18 28  1  0
 18 29  1  0
M  END
$$$$
