
     RDKit          3D

 66 68  0  0  0  0  0  0  0  0999 V2000
    0.4531    5.2064    1.2755 C   0  0  0  0  0  0  0  0  0  0  0  0
    1.3759    4.4284    2.2017 C   0  0  0  0  0  0  0  0  0  0  0  0
    1.7919    3.0902    1.6044 C   0  0  0  0  0  0  0  0  0  0  0  0
    0.6745    2.2148    1.5683 O   0  0  0  0  0  0  0  0  0  0  0  0
    0.3741    1.4156    0.1829 P   0  0  0  0  0  5  0  0  0  0  0  0
    0.2333    2.3791   -0.9754 O   0  0  0  0  0  0  0  0  0  0  0  0
    1.6759    0.2171    0.0624 C   0  0  0  0  0  0  0  0  0  0  0  0
    2.3365    0.0136   -1.1484 C   0  0  0  0  0  0  0  0  0  0  0  0
    3.3608   -0.9379   -1.2561 C   0  0  0  0  0  0  0  0  0  0  0  0
    3.7648   -1.7337   -0.1701 C   0  0  0  0  0  0  0  0  0  0  0  0
    4.7970   -2.6765   -0.2732 N   0  0  0  0  0  0  0  0  0  0  0  0
    5.3088   -3.0217   -1.5987 C   0  0  0  0  0  0  0  0  0  0  0  0
    4.8511   -3.7542    0.7151 C   0  0  0  0  0  0  0  0  0  0  0  0
    3.0993   -1.4909    1.0449 C   0  0  0  0  0  0  0  0  0  0  0  0
    2.0737   -0.5414    1.1630 C   0  0  0  0  0  0  0  0  0  0  0  0
   -1.2215    0.5401    0.5458 C   0  0  0  0  0  0  0  0  0  0  0  0
   -2.3305    1.5153    0.5189 N   0  0  0  0  0  0  0  0  0  0  0  0
   -2.5747    2.3633    1.6027 C   0  0  0  0  0  0  0  0  0  0  0  0
   -2.3058    2.0320    2.9344 C   0  0  0  0  0  0  0  0  0  0  0  0
   -2.6313    2.9046    3.9803 C   0  0  0  0  0  0  0  0  0  0  0  0
   -3.2687    4.1114    3.7135 C   0  0  0  0  0  0  0  0  0  0  0  0
   -3.5976    4.4363    2.4027 C   0  0  0  0  0  0  0  0  0  0  0  0
   -3.2662    3.5614    1.3640 C   0  0  0  0  0  0  0  0  0  0  0  0
   -1.5734   -0.5772   -0.4268 C   0  0  0  0  0  0  0  0  0  0  0  0
   -1.4319   -0.4275   -1.8096 C   0  0  0  0  0  0  0  0  0  0  0  0
   -1.7482   -1.4797   -2.6823 C   0  0  0  0  0  0  0  0  0  0  0  0
   -2.2461   -2.7078   -2.2199 C   0  0  0  0  0  0  0  0  0  0  0  0
   -2.5545   -3.7802   -3.0725 N   0  0  0  0  0  0  0  0  0  0  0  0
   -3.8255   -4.4559   -2.7943 C   0  0  0  0  0  0  0  0  0  0  0  0
   -2.2224   -3.6648   -4.4913 C   0  0  0  0  0  0  0  0  0  0  0  0
   -2.3924   -2.8337   -0.8282 C   0  0  0  0  0  0  0  0  0  0  0  0
   -2.0737   -1.7916    0.0531 C   0  0  0  0  0  0  0  0  0  0  0  0
   -0.4593    4.6457    1.0588 H   0  0  0  0  0  0  0  0  0  0  0  0
    0.1661    6.1560    1.7381 H   0  0  0  0  0  0  0  0  0  0  0  0
    0.9508    5.4279    0.3261 H   0  0  0  0  0  0  0  0  0  0  0  0
    2.2688    5.0306    2.4022 H   0  0  0  0  0  0  0  0  0  0  0  0
    0.8596    4.2647    3.1546 H   0  0  0  0  0  0  0  0  0  0  0  0
    2.5533    2.6256    2.2398 H   0  0  0  0  0  0  0  0  0  0  0  0
    2.2253    3.2267    0.6077 H   0  0  0  0  0  0  0  0  0  0  0  0
    2.0583    0.5997   -2.0230 H   0  0  0  0  0  0  0  0  0  0  0  0
    3.8313   -1.0370   -2.2297 H   0  0  0  0  0  0  0  0  0  0  0  0
    6.1343   -3.7391   -1.5276 H   0  0  0  0  0  0  0  0  0  0  0  0
    5.7206   -2.1435   -2.1074 H   0  0  0  0  0  0  0  0  0  0  0  0
    4.5266   -3.4751   -2.2174 H   0  0  0  0  0  0  0  0  0  0  0  0
    5.0607   -3.3653    1.7171 H   0  0  0  0  0  0  0  0  0  0  0  0
    5.6619   -4.4568    0.4917 H   0  0  0  0  0  0  0  0  0  0  0  0
    3.9155   -4.3248    0.7292 H   0  0  0  0  0  0  0  0  0  0  0  0
    3.3708   -2.0327    1.9460 H   0  0  0  0  0  0  0  0  0  0  0  0
    1.5982   -0.3945    2.1302 H   0  0  0  0  0  0  0  0  0  0  0  0
   -1.0934    0.0843    1.5326 H   0  0  0  0  0  0  0  0  0  0  0  0
   -2.2952    2.0467   -0.3527 H   0  0  0  0  0  0  0  0  0  0  0  0
   -1.8412    1.0898    3.2006 H   0  0  0  0  0  0  0  0  0  0  0  0
   -2.3910    2.6316    5.0050 H   0  0  0  0  0  0  0  0  0  0  0  0
   -3.5229    4.7875    4.5251 H   0  0  0  0  0  0  0  0  0  0  0  0
   -4.1164    5.3657    2.1837 H   0  0  0  0  0  0  0  0  0  0  0  0
   -3.5497    3.8326    0.3496 H   0  0  0  0  0  0  0  0  0  0  0  0
   -1.0781    0.5080   -2.2387 H   0  0  0  0  0  0  0  0  0  0  0  0
   -1.6123   -1.2953   -3.7435 H   0  0  0  0  0  0  0  0  0  0  0  0
   -4.6590   -3.7440   -2.7954 H   0  0  0  0  0  0  0  0  0  0  0  0
   -3.8026   -4.9870   -1.8377 H   0  0  0  0  0  0  0  0  0  0  0  0
   -4.0370   -5.2147   -3.5567 H   0  0  0  0  0  0  0  0  0  0  0  0
   -2.8699   -2.9377   -4.9949 H   0  0  0  0  0  0  0  0  0  0  0  0
   -1.1726   -3.3846   -4.6348 H   0  0  0  0  0  0  0  0  0  0  0  0
   -2.3500   -4.6317   -4.9902 H   0  0  0  0  0  0  0  0  0  0  0  0
   -2.7375   -3.7687   -0.3954 H   0  0  0  0  0  0  0  0  0  0  0  0
   -2.2203   -1.9456    1.1200 H   0  0  0  0  0  0  0  0  0  0  0  0
  1  2  1  0
  2  3  1  0
  3  4  1  0
  4  5  1  0
  5  6  2  0
  5  7  1  0
  7  8  2  0
  8  9  1  0
  9 10  2  0
 10 11  1  0
 11 12  1  0
 11 13  1  0
 10 14  1  0
 14 15  2  0
  5 16  1  0
 16 17  1  0
 17 18  1  0
 18 19  2  0
 19 20  1  0
 20 21  2  0
 21 22  1  0
 22 23  2  0
 16 24  1  0
 24 25  2  0
 25 26  1  0
 26 27  2  0
 27 28  1  0
 28 29  1  0
 28 30  1  0
 27 31  1  0
 31 32  2  0
 15  7  1  0
 23 18  1  0
 32 24  1  0
  1 33  1  0
  1 34  1  0
  1 35  1  0
  2 36  1  0
  2 37  1  0
  3 38  1  0
  3 39  1  0
  8 40  1  0
  9 41  1  0
 12 42  1  0
 12 43  1  0
 12 44  1  0
 13 45  1  0
 13 46  1  0
 13 47  1  0
 14 48  1  0
 15 49  1  0
 16 50  1  0
 17 51  1  0
 19 52  1  0
 20 53  1  0
 21 54  1  0
 22 55  1  0
 23 56  1  0
 25 57  1  0
 26 58  1  0
 29 59  1  0
 29 60  1  0
 29 61  1  0
 30 62  1  0
 30 63  1  0
 30 64  1  0
 31 65  1  0
 32 66  1  0
M  END
$$$$
