
     RDKit          3D

 36 37  0  0  0  0  0  0  0  0999 V2000
   -0.7238   -0.3273   -1.5338 C   0  0  0  0  0  0  0  0  0  0  0  0
   -0.7762    0.5891   -0.3637 C   0  0  0  0  0  0  0  0  0  0  0  0
    0.3561    0.6953    0.4343 N   0  0  0  0  0  0  0  0  0  0  0  0
    0.1391    1.5869    1.3685 C   0  0  0  0  0  0  0  0  0  0  0  0
    1.0039    1.9919    2.3441 N   0  0  0  0  0  0  0  0  0  0  0  0
    2.2796    1.5253    2.5320 C   0  0  0  0  0  0  0  0  0  0  0  0
    3.1267    2.1893    3.8130 S   0  0  0  0  0  0  0  0  0  0  0  0
    2.7283    0.5598    1.6510 N   0  0  0  0  0  0  0  0  0  0  0  0
    3.9437   -0.1188    1.5680 C   0  0  0  0  0  0  0  0  0  0  0  0
    4.8773    0.0070    2.3526 O   0  0  0  0  0  0  0  0  0  0  0  0
    4.0076   -1.0305    0.4399 C   0  0  0  0  0  0  0  0  0  0  0  0
    5.0136   -1.8778    0.0144 C   0  0  0  0  0  0  0  0  0  0  0  0
    4.5343   -2.5325   -1.1449 C   0  0  0  0  0  0  0  0  0  0  0  0
    3.2666   -2.0477   -1.3600 C   0  0  0  0  0  0  0  0  0  0  0  0
    2.9346   -1.1388   -0.4075 O   0  0  0  0  0  0  0  0  0  0  0  0
   -1.3840    2.3354    1.3897 S   0  0  0  0  0  0  0  0  0  0  0  0
   -1.8432    1.3785    0.0407 C   0  0  0  0  0  0  0  0  0  0  0  0
   -3.1646    1.5291   -0.5288 C   0  0  0  0  0  0  0  0  0  0  0  0
   -3.5803    2.6262   -0.9007 O   0  0  0  0  0  0  0  0  0  0  0  0
   -3.9475    0.3744   -0.6708 N   0  0  0  0  0  0  0  0  0  0  0  0
   -5.2294    0.5077   -1.3423 C   0  0  0  0  0  0  0  0  0  0  0  0
   -3.7814   -0.8256    0.1387 C   0  0  0  0  0  0  0  0  0  0  0  0
   -1.3898    0.0077   -2.3348 H   0  0  0  0  0  0  0  0  0  0  0  0
   -1.0157   -1.3385   -1.2355 H   0  0  0  0  0  0  0  0  0  0  0  0
    0.2916   -0.3709   -1.9407 H   0  0  0  0  0  0  0  0  0  0  0  0
    0.6759    2.7008    2.9872 H   0  0  0  0  0  0  0  0  0  0  0  0
    2.0690    0.3071    0.9155 H   0  0  0  0  0  0  0  0  0  0  0  0
    5.9759   -1.9963    0.4952 H   0  0  0  0  0  0  0  0  0  0  0  0
    5.0501   -3.2655   -1.7493 H   0  0  0  0  0  0  0  0  0  0  0  0
    2.5101   -2.2389   -2.1086 H   0  0  0  0  0  0  0  0  0  0  0  0
   -5.2044    1.3046   -2.0910 H   0  0  0  0  0  0  0  0  0  0  0  0
   -5.4752   -0.4337   -1.8419 H   0  0  0  0  0  0  0  0  0  0  0  0
   -5.9951    0.7423   -0.5967 H   0  0  0  0  0  0  0  0  0  0  0  0
   -3.8099   -1.6981   -0.5203 H   0  0  0  0  0  0  0  0  0  0  0  0
   -4.6116   -0.8816    0.8497 H   0  0  0  0  0  0  0  0  0  0  0  0
   -2.8521   -0.8360    0.7090 H   0  0  0  0  0  0  0  0  0  0  0  0
  1  2  1  0
  2  3  1  0
  3  4  2  0
  4  5  1  0
  5  6  1  0
  6  7  2  0
  6  8  1  0
  8  9  1  0
  9 10  2  0
  9 11  1  0
 11 12  2  0
 12 13  1  0
 13 14  2  0
 14 15  1  0
  4 16  1  0
 16 17  1  0
 17 18  1  0
 18 19  2  0
 18 20  1  0
 20 21  1  0
 20 22  1  0
 17  2  2  0
 15 11  1  0
  1 23  1  0
  1 24  1  0
  1 25  1  0
  5 26  1  0
  8 27  1  0
 12 28  1  0
 13 29  1  0
 14 30  1  0
 21 31  1  0
 21 32  1  0
 21 33  1  0
 22 34  1  0
 22 35  1  0
 22 36  1  0
M  END
$$$$
