
     RDKit          3D

 46 46  0  0  0  0  0  0  0  0999 V2000
   -1.8233   -0.0721    2.0777 O   0  0  0  0  0  0  0  0  0  0  0  0
   -1.7812    0.1107    0.8668 C   0  0  0  0  0  0  0  0  0  0  0  0
   -0.5032    0.3980    0.1116 C   0  0  0  0  0  0  0  0  0  0  0  0
    0.7091    0.3811    1.0337 C   0  0  0  0  0  0  0  0  0  0  0  0
    1.9733    0.6701    0.2689 C   0  0  0  0  0  0  0  0  0  0  0  0
    2.0294    0.9486   -0.9207 O   0  0  0  0  0  0  0  0  0  0  0  0
    3.0460    0.5762    1.1040 O   0  0  0  0  0  0  0  0  0  0  0  0
    4.3258    0.8341    0.5078 C   0  0  0  0  0  0  0  0  0  0  0  0
    4.8828   -0.4474   -0.1054 C   0  0  0  0  0  0  0  0  0  0  0  0
    6.2565   -0.2184   -0.7371 C   0  0  0  0  0  0  0  0  0  0  0  0
    6.8257   -1.5046   -1.3308 C   0  0  0  0  0  0  0  0  0  0  0  0
    5.9459   -1.9937   -2.2488 F   0  0  0  0  0  0  0  0  0  0  0  0
    6.9070   -2.4423   -0.3446 F   0  0  0  0  0  0  0  0  0  0  0  0
    8.1981   -1.2823   -1.9703 C   0  0  0  0  0  0  0  0  0  0  0  0
    8.7098   -2.4193   -2.4961 F   0  0  0  0  0  0  0  0  0  0  0  0
    8.1399   -0.3670   -2.9694 F   0  0  0  0  0  0  0  0  0  0  0  0
    9.0970   -0.8169   -1.0669 F   0  0  0  0  0  0  0  0  0  0  0  0
   -2.8896    0.0744    0.0464 N   0  0  0  0  0  0  0  0  0  0  0  0
   -4.2348   -0.0801    0.5829 C   0  0  0  0  0  0  0  0  0  0  0  0
   -4.7745    1.2637    1.0908 C   0  0  0  0  0  0  0  0  0  0  0  0
   -6.2110    1.1408    1.5929 C   0  0  0  0  0  0  0  0  0  0  0  0
   -7.1287    0.5368    0.5343 C   0  0  0  0  0  0  0  0  0  0  0  0
   -6.5969   -0.8000    0.0263 C   0  0  0  0  0  0  0  0  0  0  0  0
   -5.1625   -0.6779   -0.4806 C   0  0  0  0  0  0  0  0  0  0  0  0
   -0.3883   -0.3547   -0.6778 H   0  0  0  0  0  0  0  0  0  0  0  0
   -0.5999    1.3792   -0.3688 H   0  0  0  0  0  0  0  0  0  0  0  0
    0.5991    1.1387    1.8179 H   0  0  0  0  0  0  0  0  0  0  0  0
    0.8057   -0.6035    1.5054 H   0  0  0  0  0  0  0  0  0  0  0  0
    4.9851    1.1832    1.3101 H   0  0  0  0  0  0  0  0  0  0  0  0
    4.2620    1.6449   -0.2279 H   0  0  0  0  0  0  0  0  0  0  0  0
    4.9426   -1.2198    0.6713 H   0  0  0  0  0  0  0  0  0  0  0  0
    4.1833   -0.8327   -0.8568 H   0  0  0  0  0  0  0  0  0  0  0  0
    6.1653    0.5406   -1.5230 H   0  0  0  0  0  0  0  0  0  0  0  0
    6.9416    0.1674    0.0271 H   0  0  0  0  0  0  0  0  0  0  0  0
   -2.7920    0.4172   -0.9013 H   0  0  0  0  0  0  0  0  0  0  0  0
   -4.1784   -0.7754    1.4307 H   0  0  0  0  0  0  0  0  0  0  0  0
   -4.7332    2.0086    0.2852 H   0  0  0  0  0  0  0  0  0  0  0  0
   -4.1395    1.6473    1.8983 H   0  0  0  0  0  0  0  0  0  0  0  0
   -6.5850    2.1287    1.8846 H   0  0  0  0  0  0  0  0  0  0  0  0
   -6.2295    0.5136    2.4927 H   0  0  0  0  0  0  0  0  0  0  0  0
   -8.1328    0.4000    0.9511 H   0  0  0  0  0  0  0  0  0  0  0  0
   -7.2238    1.2346   -0.3067 H   0  0  0  0  0  0  0  0  0  0  0  0
   -7.2418   -1.1714   -0.7781 H   0  0  0  0  0  0  0  0  0  0  0  0
   -6.6362   -1.5399    0.8351 H   0  0  0  0  0  0  0  0  0  0  0  0
   -4.7955   -1.6661   -0.7835 H   0  0  0  0  0  0  0  0  0  0  0  0
   -5.1489   -0.0527   -1.3832 H   0  0  0  0  0  0  0  0  0  0  0  0
  1  2  2  0
  2  3  1  0
  3  4  1  0
  4  5  1  0
  5  6  2  0
  5  7  1  0
  7  8  1  0
  8  9  1  0
  9 10  1  0
 10 11  1  0
 11 12  1  0
 11 13  1  0
 11 14  1  0
 14 15  1  0
 14 16  1  0
 14 17  1  0
  2 18  1  0
 18 19  1  0
 19 20  1  0
 20 21  1  0
 21 22  1  0
 22 23  1  0
 23 24  1  0
 24 19  1  0
  3 25  1  0
  3 26  1  0
  4 27  1  0
  4 28  1  0
  8 29  1  0
  8 30  1  0
  9 31  1  0
  9 32  1  0
 10 33  1  0
 10 34  1  0
 18 35  1  0
 19 36  1  0
 20 37  1  0
 20 38  1  0
 21 39  1  0
 21 40  1  0
 22 41  1  0
 22 42  1  0
 23 43  1  0
 23 44  1  0
 24 45  1  0
 24 46  1  0
M  END
$$$$
