
     RDKit          3D

 52 55  0  0  0  0  0  0  0  0999 V2000
    6.9991   -2.4826    1.7164 C   0  0  0  0  0  0  0  0  0  0  0  0
    5.8112   -1.5661    1.6423 C   0  0  0  0  0  0  0  0  0  0  0  0
    5.3990   -0.8572    2.7802 C   0  0  0  0  0  0  0  0  0  0  0  0
    4.3181    0.0303    2.7368 C   0  0  0  0  0  0  0  0  0  0  0  0
    3.6827    0.1778    1.5073 C   0  0  0  0  0  0  0  0  0  0  0  0
    2.6238    0.9918    1.2652 O   0  0  0  0  0  0  0  0  0  0  0  0
    2.2835    0.8493   -0.0536 C   0  0  0  0  0  0  0  0  0  0  0  0
    1.2018    1.6480   -0.6114 C   0  0  0  0  0  0  0  0  0  0  0  0
    1.1974    1.9659   -1.8028 O   0  0  0  0  0  0  0  0  0  0  0  0
    0.1578    2.0570    0.2344 N   0  0  0  0  0  0  0  0  0  0  0  0
   -0.8419    2.9734   -0.2978 C   0  0  0  0  0  0  0  0  0  0  0  0
   -2.0677    2.2090   -0.7942 C   0  0  0  0  0  0  0  0  0  0  0  0
   -2.6519    1.2968    0.3078 C   0  0  0  0  0  0  0  0  0  0  0  0
   -3.1331    2.1350    1.3737 O   0  0  0  0  0  0  0  0  0  0  0  0
   -3.8578    0.5155   -0.2302 C   0  0  0  0  0  0  0  0  0  0  0  0
   -5.0167    1.2199   -0.6128 C   0  0  0  0  0  0  0  0  0  0  0  0
   -6.1435    0.5592   -1.1036 C   0  0  0  0  0  0  0  0  0  0  0  0
   -6.1388   -0.8268   -1.2264 C   0  0  0  0  0  0  0  0  0  0  0  0
   -5.0037   -1.5628   -0.8642 C   0  0  0  0  0  0  0  0  0  0  0  0
   -5.0000   -3.0690   -0.9737 C   0  0  0  0  0  0  0  0  0  0  0  0
   -3.7737   -3.5764   -1.2826 F   0  0  0  0  0  0  0  0  0  0  0  0
   -5.3699   -3.6707    0.1903 F   0  0  0  0  0  0  0  0  0  0  0  0
   -5.8491   -3.5430   -1.9275 F   0  0  0  0  0  0  0  0  0  0  0  0
   -3.8764   -0.8836   -0.3608 C   0  0  0  0  0  0  0  0  0  0  0  0
   -1.5300    0.4213    0.9123 C   0  0  0  0  0  0  0  0  0  0  0  0
   -0.3271    1.2587    1.3582 C   0  0  0  0  0  0  0  0  0  0  0  0
    3.1579   -0.0420   -0.6685 C   0  0  0  0  0  0  0  0  0  0  0  0
    3.1524   -0.4358   -2.1006 C   0  0  0  0  0  0  0  0  0  0  0  0
    4.0553   -0.4887    0.3495 C   0  0  0  0  0  0  0  0  0  0  0  0
    5.1491   -1.3742    0.4142 C   0  0  0  0  0  0  0  0  0  0  0  0
    7.9162   -1.9227    1.5094 H   0  0  0  0  0  0  0  0  0  0  0  0
    7.0781   -2.9394    2.7085 H   0  0  0  0  0  0  0  0  0  0  0  0
    6.9098   -3.2976    0.9904 H   0  0  0  0  0  0  0  0  0  0  0  0
    5.9262   -0.9908    3.7235 H   0  0  0  0  0  0  0  0  0  0  0  0
    3.9923    0.5824    3.6097 H   0  0  0  0  0  0  0  0  0  0  0  0
   -0.4206    3.5754   -1.1102 H   0  0  0  0  0  0  0  0  0  0  0  0
   -1.1163    3.6698    0.5034 H   0  0  0  0  0  0  0  0  0  0  0  0
   -2.8078    2.9461   -1.1283 H   0  0  0  0  0  0  0  0  0  0  0  0
   -1.7926    1.6036   -1.6680 H   0  0  0  0  0  0  0  0  0  0  0  0
   -3.8600    1.6606    1.8152 H   0  0  0  0  0  0  0  0  0  0  0  0
   -5.0488    2.3057   -0.5238 H   0  0  0  0  0  0  0  0  0  0  0  0
   -7.0246    1.1291   -1.3896 H   0  0  0  0  0  0  0  0  0  0  0  0
   -7.0242   -1.3325   -1.6090 H   0  0  0  0  0  0  0  0  0  0  0  0
   -3.0121   -1.4820   -0.0780 H   0  0  0  0  0  0  0  0  0  0  0  0
   -1.1766   -0.3074    0.1716 H   0  0  0  0  0  0  0  0  0  0  0  0
   -1.9050   -0.1355    1.7801 H   0  0  0  0  0  0  0  0  0  0  0  0
    0.4309    0.5783    1.7456 H   0  0  0  0  0  0  0  0  0  0  0  0
   -0.5993    1.9441    2.1688 H   0  0  0  0  0  0  0  0  0  0  0  0
    3.5142    0.3887   -2.7232 H   0  0  0  0  0  0  0  0  0  0  0  0
    3.7949   -1.3032   -2.2807 H   0  0  0  0  0  0  0  0  0  0  0  0
    2.1411   -0.7004   -2.4262 H   0  0  0  0  0  0  0  0  0  0  0  0
    5.4764   -1.9025   -0.4768 H   0  0  0  0  0  0  0  0  0  0  0  0
  1  2  1  0
  2  3  2  0
  3  4  1  0
  4  5  2  0
  5  6  1  0
  6  7  1  0
  7  8  1  0
  8  9  2  0
  8 10  1  0
 10 11  1  0
 11 12  1  0
 12 13  1  0
 13 14  1  0
 13 15  1  0
 15 16  2  0
 16 17  1  0
 17 18  2  0
 18 19  1  0
 19 20  1  0
 20 21  1  0
 20 22  1  0
 20 23  1  0
 19 24  2  0
 13 25  1  0
 25 26  1  0
  7 27  2  0
 27 28  1  0
 27 29  1  0
 29 30  2  0
 30  2  1  0
 29  5  1  0
 26 10  1  0
 24 15  1  0
  1 31  1  0
  1 32  1  0
  1 33  1  0
  3 34  1  0
  4 35  1  0
 11 36  1  0
 11 37  1  0
 12 38  1  0
 12 39  1  0
 14 40  1  0
 16 41  1  0
 17 42  1  0
 18 43  1  0
 24 44  1  0
 25 45  1  0
 25 46  1  0
 26 47  1  0
 26 48  1  0
 28 49  1  0
 28 50  1  0
 28 51  1  0
 30 52  1  0
M  END
$$$$
