
     RDKit          3D

 44 47  0  0  0  0  0  0  0  0999 V2000
   -5.5287    1.7693   -2.3763 C   0  0  0  0  0  0  0  0  0  0  0  0
   -5.3415    0.3663   -2.2407 O   0  0  0  0  0  0  0  0  0  0  0  0
   -4.2439   -0.0456   -1.5369 C   0  0  0  0  0  0  0  0  0  0  0  0
   -4.0994   -1.4303   -1.4377 C   0  0  0  0  0  0  0  0  0  0  0  0
   -3.0212   -1.9900   -0.7469 C   0  0  0  0  0  0  0  0  0  0  0  0
   -2.0619   -1.1688   -0.1401 C   0  0  0  0  0  0  0  0  0  0  0  0
   -0.8961   -1.7905    0.6135 C   0  0  0  0  0  0  0  0  0  0  0  0
    0.4401   -1.3179    0.0850 C   0  0  0  0  0  0  0  0  0  0  0  0
    1.4980   -1.0660    0.8773 C   0  0  0  0  0  0  0  0  0  0  0  0
    2.7596   -0.5923    0.2751 C   0  0  0  0  0  0  0  0  0  0  0  0
    3.7599   -1.5356    0.0358 C   0  0  0  0  0  0  0  0  0  0  0  0
    4.9375   -1.1064   -0.5396 C   0  0  0  0  0  0  0  0  0  0  0  0
    5.1792    0.1737   -0.8871 N   0  0  0  0  0  0  0  0  0  0  0  0
    4.2210    1.0859   -0.6643 C   0  0  0  0  0  0  0  0  0  0  0  0
    4.4716    2.4031   -1.0273 C   0  0  0  0  0  0  0  0  0  0  0  0
    3.5301    3.4167   -0.8308 C   0  0  0  0  0  0  0  0  0  0  0  0
    2.3077    3.1068   -0.2546 C   0  0  0  0  0  0  0  0  0  0  0  0
    1.1349    4.3387   -0.0049 Cl  0  0  0  0  0  0  0  0  0  0  0  0
    2.0274    1.7964    0.1224 C   0  0  0  0  0  0  0  0  0  0  0  0
    2.9755    0.7634   -0.0790 C   0  0  0  0  0  0  0  0  0  0  0  0
    1.4995   -1.2747    2.3676 C   0  0  0  0  0  0  0  0  0  0  0  0
    0.2215   -1.9566    2.8248 C   0  0  0  0  0  0  0  0  0  0  0  0
    0.2085   -2.7238    3.7879 O   0  0  0  0  0  0  0  0  0  0  0  0
   -1.0500   -1.5562    2.1199 C   0  0  0  0  0  0  0  0  0  0  0  0
   -2.2159    0.2232   -0.2407 C   0  0  0  0  0  0  0  0  0  0  0  0
   -3.2967    0.7803   -0.9344 C   0  0  0  0  0  0  0  0  0  0  0  0
   -6.4389    1.9300   -2.9621 H   0  0  0  0  0  0  0  0  0  0  0  0
   -4.6969    2.2279   -2.9211 H   0  0  0  0  0  0  0  0  0  0  0  0
   -5.6729    2.2445   -1.4003 H   0  0  0  0  0  0  0  0  0  0  0  0
   -4.8352   -2.0813   -1.9041 H   0  0  0  0  0  0  0  0  0  0  0  0
   -2.9422   -3.0735   -0.6900 H   0  0  0  0  0  0  0  0  0  0  0  0
   -0.9121   -2.8756    0.4362 H   0  0  0  0  0  0  0  0  0  0  0  0
    0.5211   -1.1916   -0.9951 H   0  0  0  0  0  0  0  0  0  0  0  0
    3.6275   -2.5833    0.2846 H   0  0  0  0  0  0  0  0  0  0  0  0
    5.7461   -1.8021   -0.7463 H   0  0  0  0  0  0  0  0  0  0  0  0
    5.4312    2.6477   -1.4787 H   0  0  0  0  0  0  0  0  0  0  0  0
    3.7634    4.4349   -1.1296 H   0  0  0  0  0  0  0  0  0  0  0  0
    1.0644    1.5774    0.5749 H   0  0  0  0  0  0  0  0  0  0  0  0
    2.3413   -1.9108    2.6634 H   0  0  0  0  0  0  0  0  0  0  0  0
    1.5779   -0.3147    2.8889 H   0  0  0  0  0  0  0  0  0  0  0  0
   -1.2474   -0.5061    2.3673 H   0  0  0  0  0  0  0  0  0  0  0  0
   -1.8849   -2.1473    2.5143 H   0  0  0  0  0  0  0  0  0  0  0  0
   -1.4923    0.8929    0.2188 H   0  0  0  0  0  0  0  0  0  0  0  0
   -3.3668    1.8618   -0.9841 H   0  0  0  0  0  0  0  0  0  0  0  0
  1  2  1  0
  2  3  1  0
  3  4  2  0
  4  5  1  0
  5  6  2  0
  6  7  1  0
  7  8  1  0
  8  9  2  0
  9 10  1  0
 10 11  2  0
 11 12  1  0
 12 13  2  0
 13 14  1  0
 14 15  2  0
 15 16  1  0
 16 17  2  0
 17 18  1  0
 17 19  1  0
 19 20  2  0
  9 21  1  0
 21 22  1  0
 22 23  2  0
 22 24  1  0
  6 25  1  0
 25 26  2  0
 26  3  1  0
 24  7  1  0
 20 10  1  0
 20 14  1  0
  1 27  1  0
  1 28  1  0
  1 29  1  0
  4 30  1  0
  5 31  1  0
  7 32  1  0
  8 33  1  0
 11 34  1  0
 12 35  1  0
 15 36  1  0
 16 37  1  0
 19 38  1  0
 21 39  1  0
 21 40  1  0
 24 41  1  0
 24 42  1  0
 25 43  1  0
 26 44  1  0
M  END
$$$$
