
     RDKit          3D

 44 46  0  0  0  0  0  0  0  0999 V2000
    7.5167   -0.2297   -2.4189 C   0  0  0  0  0  0  0  0  0  0  0  0
    6.5916   -1.2253   -2.0003 O   0  0  0  0  0  0  0  0  0  0  0  0
    5.4783   -0.7916   -1.3356 C   0  0  0  0  0  0  0  0  0  0  0  0
    5.1725    0.5307   -1.0175 C   0  0  0  0  0  0  0  0  0  0  0  0
    3.9911    0.8401   -0.3265 C   0  0  0  0  0  0  0  0  0  0  0  0
    3.1029   -0.1672    0.0506 C   0  0  0  0  0  0  0  0  0  0  0  0
    1.9008    0.0592    0.7455 N   0  0  0  0  0  0  0  0  0  0  0  0
    1.3595    1.2668    1.1465 C   0  0  0  0  0  0  0  0  0  0  0  0
    1.8482    2.3799    0.9673 O   0  0  0  0  0  0  0  0  0  0  0  0
    0.0351    1.1054    1.9042 C   0  0  0  0  0  0  0  0  0  0  0  0
   -1.0767    0.8061    1.0746 O   0  0  0  0  0  0  0  0  0  0  0  0
   -1.3413   -0.5083    0.8463 C   0  0  0  0  0  0  0  0  0  0  0  0
   -0.4716   -1.4224    1.2911 N   0  0  0  0  0  0  0  0  0  0  0  0
   -1.1522   -2.8854    0.8660 S   0  0  0  0  0  0  0  0  0  0  0  0
   -2.5288   -2.3644    0.1044 N   0  0  0  0  0  0  0  0  0  0  0  0
   -2.5207   -1.0234    0.1381 C   0  0  0  0  0  0  0  0  0  0  0  0
   -3.5263   -0.2734   -0.4402 N   0  0  0  0  0  0  0  0  0  0  0  0
   -4.8549   -0.8845   -0.6011 C   0  0  0  0  0  0  0  0  0  0  0  0
   -5.7188   -0.5308    0.6138 C   0  0  0  0  0  0  0  0  0  0  0  0
   -5.7856    0.9840    0.8270 C   0  0  0  0  0  0  0  0  0  0  0  0
   -4.3893    1.6155    0.8474 C   0  0  0  0  0  0  0  0  0  0  0  0
   -3.5829    1.1875   -0.3797 C   0  0  0  0  0  0  0  0  0  0  0  0
    3.4131   -1.4928   -0.2709 C   0  0  0  0  0  0  0  0  0  0  0  0
    4.5922   -1.8005   -0.9570 C   0  0  0  0  0  0  0  0  0  0  0  0
    8.3377   -0.7339   -2.9380 H   0  0  0  0  0  0  0  0  0  0  0  0
    7.0535    0.4677   -3.1252 H   0  0  0  0  0  0  0  0  0  0  0  0
    7.9408    0.3005   -1.5593 H   0  0  0  0  0  0  0  0  0  0  0  0
    5.8278    1.3523   -1.2884 H   0  0  0  0  0  0  0  0  0  0  0  0
    3.7975    1.8834   -0.0998 H   0  0  0  0  0  0  0  0  0  0  0  0
    1.3274   -0.7612    0.9357 H   0  0  0  0  0  0  0  0  0  0  0  0
    0.1537    0.4148    2.7486 H   0  0  0  0  0  0  0  0  0  0  0  0
   -0.1785    2.0782    2.3642 H   0  0  0  0  0  0  0  0  0  0  0  0
   -5.3217   -0.4918   -1.5127 H   0  0  0  0  0  0  0  0  0  0  0  0
   -4.8135   -1.9718   -0.7308 H   0  0  0  0  0  0  0  0  0  0  0  0
   -6.7301   -0.9306    0.4807 H   0  0  0  0  0  0  0  0  0  0  0  0
   -5.3011   -1.0004    1.5125 H   0  0  0  0  0  0  0  0  0  0  0  0
   -6.3093    1.2068    1.7637 H   0  0  0  0  0  0  0  0  0  0  0  0
   -6.3724    1.4342    0.0173 H   0  0  0  0  0  0  0  0  0  0  0  0
   -3.8688    1.3127    1.7638 H   0  0  0  0  0  0  0  0  0  0  0  0
   -4.4791    2.7070    0.8717 H   0  0  0  0  0  0  0  0  0  0  0  0
   -4.0872    1.5557   -1.2839 H   0  0  0  0  0  0  0  0  0  0  0  0
   -2.5984    1.6604   -0.4039 H   0  0  0  0  0  0  0  0  0  0  0  0
    2.7465   -2.3049    0.0066 H   0  0  0  0  0  0  0  0  0  0  0  0
    4.8222   -2.8357   -1.1978 H   0  0  0  0  0  0  0  0  0  0  0  0
  1  2  1  0
  2  3  1  0
  3  4  2  0
  4  5  1  0
  5  6  2  0
  6  7  1  0
  7  8  1  0
  8  9  2  0
  8 10  1  0
 10 11  1  0
 11 12  1  0
 12 13  2  0
 13 14  1  0
 14 15  1  0
 15 16  2  0
 16 17  1  0
 17 18  1  0
 18 19  1  0
 19 20  1  0
 20 21  1  0
 21 22  1  0
  6 23  1  0
 23 24  2  0
 24  3  1  0
 16 12  1  0
 22 17  1  0
  1 25  1  0
  1 26  1  0
  1 27  1  0
  4 28  1  0
  5 29  1  0
  7 30  1  0
 10 31  1  0
 10 32  1  0
 18 33  1  0
 18 34  1  0
 19 35  1  0
 19 36  1  0
 20 37  1  0
 20 38  1  0
 21 39  1  0
 21 40  1  0
 22 41  1  0
 22 42  1  0
 23 43  1  0
 24 44  1  0
M  END
$$$$
