
     RDKit          3D

 57 59  0  0  0  0  0  0  0  0999 V2000
   -4.1540   -0.1564    3.5136 C   0  0  0  0  0  0  0  0  0  0  0  0
   -4.1265   -0.7343    2.1071 C   0  0  0  0  0  0  0  0  0  0  0  0
   -3.3476    0.0997    1.1810 N   0  0  0  0  0  0  0  0  0  0  0  0
   -1.9759   -0.1733    1.1062 C   0  0  0  0  0  0  0  0  0  0  0  0
   -1.4304   -0.9678    1.8789 O   0  0  0  0  0  0  0  0  0  0  0  0
   -1.1359    0.5563    0.0449 C   0  0  0  0  0  0  0  0  0  0  0  0
    0.0636   -0.1659   -0.2530 O   0  0  0  0  0  0  0  0  0  0  0  0
   -0.1612   -1.2802   -0.9991 C   0  0  0  0  0  0  0  0  0  0  0  0
   -1.2187   -1.5870   -1.5199 O   0  0  0  0  0  0  0  0  0  0  0  0
    1.0901   -2.0681   -1.0702 C   0  0  0  0  0  0  0  0  0  0  0  0
    2.3069   -1.3947   -1.2638 C   0  0  0  0  0  0  0  0  0  0  0  0
    3.5149   -2.1083   -1.3321 C   0  0  0  0  0  0  0  0  0  0  0  0
    5.0251   -1.2006   -1.5279 S   0  0  0  0  0  6  0  0  0  0  0  0
    6.0523   -1.7794   -0.6909 O   0  0  0  0  0  0  0  0  0  0  0  0
    5.2001   -1.0002   -2.9489 O   0  0  0  0  0  0  0  0  0  0  0  0
    4.6769    0.3264   -0.8289 N   0  0  0  0  0  0  0  0  0  0  0  0
    4.5224    0.3286    0.6696 C   0  0  0  0  0  0  0  0  0  0  0  0
    5.7458    0.9462    1.3520 C   0  0  0  0  0  0  0  0  0  0  0  0
    5.9494    2.3181    0.9857 O   0  0  0  0  0  0  0  0  0  0  0  0
    5.5503    2.6125   -0.3607 C   0  0  0  0  0  0  0  0  0  0  0  0
    5.6226    1.3999   -1.2927 C   0  0  0  0  0  0  0  0  0  0  0  0
    3.5059   -3.5007   -1.2560 C   0  0  0  0  0  0  0  0  0  0  0  0
    4.9071   -4.4892   -1.4341 Cl  0  0  0  0  0  0  0  0  0  0  0  0
    2.2896   -4.1696   -1.0656 C   0  0  0  0  0  0  0  0  0  0  0  0
    1.0854   -3.4619   -0.9641 C   0  0  0  0  0  0  0  0  0  0  0  0
   -0.3445   -4.3842   -0.6727 Cl  0  0  0  0  0  0  0  0  0  0  0  0
   -4.0526    1.0154    0.2669 C   0  0  0  0  0  0  0  0  0  0  0  0
   -5.2387    1.7822    0.8772 C   0  0  0  0  0  0  0  0  0  0  0  0
   -5.8602    2.5627   -0.2747 C   0  0  0  0  0  0  0  0  0  0  0  0
   -5.7087    1.4990   -1.7022 S   0  0  0  0  0  6  0  0  0  0  0  0
   -6.9877    0.8699   -1.9516 O   0  0  0  0  0  0  0  0  0  0  0  0
   -4.9809    2.2206   -2.7251 O   0  0  0  0  0  0  0  0  0  0  0  0
   -4.6109    0.3016   -0.9662 C   0  0  0  0  0  0  0  0  0  0  0  0
   -3.1428   -0.0595    3.9219 H   0  0  0  0  0  0  0  0  0  0  0  0
   -4.7286   -0.8080    4.1790 H   0  0  0  0  0  0  0  0  0  0  0  0
   -4.6137    0.8359    3.5299 H   0  0  0  0  0  0  0  0  0  0  0  0
   -3.6853   -1.7374    2.1452 H   0  0  0  0  0  0  0  0  0  0  0  0
   -5.1413   -0.8681    1.7210 H   0  0  0  0  0  0  0  0  0  0  0  0
   -0.8426    1.5253    0.4616 H   0  0  0  0  0  0  0  0  0  0  0  0
   -1.6856    0.7374   -0.8819 H   0  0  0  0  0  0  0  0  0  0  0  0
    2.3070   -0.3111   -1.3738 H   0  0  0  0  0  0  0  0  0  0  0  0
    3.6261    0.9188    0.8955 H   0  0  0  0  0  0  0  0  0  0  0  0
    4.3471   -0.6812    1.0534 H   0  0  0  0  0  0  0  0  0  0  0  0
    6.6572    0.3897    1.1066 H   0  0  0  0  0  0  0  0  0  0  0  0
    5.6262    0.9145    2.4394 H   0  0  0  0  0  0  0  0  0  0  0  0
    6.2017    3.4119   -0.7279 H   0  0  0  0  0  0  0  0  0  0  0  0
    4.5295    3.0108   -0.3263 H   0  0  0  0  0  0  0  0  0  0  0  0
    5.3402    1.7004   -2.3070 H   0  0  0  0  0  0  0  0  0  0  0  0
    6.6477    1.0114   -1.3054 H   0  0  0  0  0  0  0  0  0  0  0  0
    2.2786   -5.2569   -0.9968 H   0  0  0  0  0  0  0  0  0  0  0  0
   -3.3359    1.7763   -0.0637 H   0  0  0  0  0  0  0  0  0  0  0  0
   -5.9899    1.0998    1.2896 H   0  0  0  0  0  0  0  0  0  0  0  0
   -4.9219    2.4518    1.6833 H   0  0  0  0  0  0  0  0  0  0  0  0
   -6.9111    2.8013   -0.0990 H   0  0  0  0  0  0  0  0  0  0  0  0
   -5.2974    3.4785   -0.4771 H   0  0  0  0  0  0  0  0  0  0  0  0
   -5.2009   -0.5802   -0.6999 H   0  0  0  0  0  0  0  0  0  0  0  0
   -3.8383    0.0210   -1.6852 H   0  0  0  0  0  0  0  0  0  0  0  0
  1  2  1  0
  2  3  1  0
  3  4  1  0
  4  5  2  0
  4  6  1  0
  6  7  1  0
  7  8  1  0
  8  9  2  0
  8 10  1  0
 10 11  2  0
 11 12  1  0
 12 13  1  0
 13 14  2  0
 13 15  2  0
 13 16  1  0
 16 17  1  0
 17 18  1  0
 18 19  1  0
 19 20  1  0
 20 21  1  0
 12 22  2  0
 22 23  1  0
 22 24  1  0
 24 25  2  0
 25 26  1  0
  3 27  1  0
 27 28  1  0
 28 29  1  0
 29 30  1  0
 30 31  2  0
 30 32  2  0
 30 33  1  0
 25 10  1  0
 33 27  1  0
 21 16  1  0
  1 34  1  0
  1 35  1  0
  1 36  1  0
  2 37  1  0
  2 38  1  0
  6 39  1  0
  6 40  1  0
 11 41  1  0
 17 42  1  0
 17 43  1  0
 18 44  1  0
 18 45  1  0
 20 46  1  0
 20 47  1  0
 21 48  1  0
 21 49  1  0
 24 50  1  0
 27 51  1  0
 28 52  1  0
 28 53  1  0
 29 54  1  0
 29 55  1  0
 33 56  1  0
 33 57  1  0
M  END
$$$$
