
     RDKit          3D

 36 37  0  0  0  0  0  0  0  0999 V2000
    5.8457   -1.2359   -0.5954 C   0  0  0  0  0  0  0  0  0  0  0  0
    4.4795   -0.8034   -0.7313 N   0  0  0  0  0  0  0  0  0  0  0  0
    4.1593    0.4235   -1.2723 C   0  0  0  0  0  0  0  0  0  0  0  0
    4.9931    1.1893   -1.7481 O   0  0  0  0  0  0  0  0  0  0  0  0
    2.6724    0.7732   -1.2192 C   0  0  0  0  0  0  0  0  0  0  0  0
    1.8829   -0.3309   -0.7616 O   0  0  0  0  0  0  0  0  0  0  0  0
    0.5650   -0.0390   -0.6265 C   0  0  0  0  0  0  0  0  0  0  0  0
    0.0623    1.0558   -0.8276 O   0  0  0  0  0  0  0  0  0  0  0  0
   -0.2042   -1.2285   -0.1554 C   0  0  0  0  0  0  0  0  0  0  0  0
    0.3762   -2.5090   -0.2429 C   0  0  0  0  0  0  0  0  0  0  0  0
   -0.3158   -3.6333    0.2016 C   0  0  0  0  0  0  0  0  0  0  0  0
   -1.5910   -3.4892    0.7331 C   0  0  0  0  0  0  0  0  0  0  0  0
   -2.1826   -2.2247    0.8159 C   0  0  0  0  0  0  0  0  0  0  0  0
   -1.5100   -1.0782    0.3718 C   0  0  0  0  0  0  0  0  0  0  0  0
   -2.1001    0.2082    0.4348 N   0  0  0  0  0  0  0  0  0  0  0  0
   -3.3355    0.5824    0.9323 C   0  0  0  0  0  0  0  0  0  0  0  0
   -4.1543   -0.1752    1.4431 O   0  0  0  0  0  0  0  0  0  0  0  0
   -3.5901    2.0063    0.7996 C   0  0  0  0  0  0  0  0  0  0  0  0
   -4.6838    2.7726    1.1576 C   0  0  0  0  0  0  0  0  0  0  0  0
   -4.3855    4.1071    0.7920 C   0  0  0  0  0  0  0  0  0  0  0  0
   -3.1298    4.0786    0.2339 C   0  0  0  0  0  0  0  0  0  0  0  0
   -2.6370    2.8137    0.2335 O   0  0  0  0  0  0  0  0  0  0  0  0
    6.2776   -0.7554    0.2864 H   0  0  0  0  0  0  0  0  0  0  0  0
    6.4234   -0.9581   -1.4809 H   0  0  0  0  0  0  0  0  0  0  0  0
    5.8558   -2.3207   -0.4677 H   0  0  0  0  0  0  0  0  0  0  0  0
    3.7513   -1.2824   -0.2142 H   0  0  0  0  0  0  0  0  0  0  0  0
    2.3587    1.0468   -2.2326 H   0  0  0  0  0  0  0  0  0  0  0  0
    2.5611    1.6219   -0.5349 H   0  0  0  0  0  0  0  0  0  0  0  0
    1.3676   -2.6493   -0.6663 H   0  0  0  0  0  0  0  0  0  0  0  0
    0.1364   -4.6196    0.1308 H   0  0  0  0  0  0  0  0  0  0  0  0
   -2.1389   -4.3620    1.0821 H   0  0  0  0  0  0  0  0  0  0  0  0
   -3.1846   -2.1758    1.2316 H   0  0  0  0  0  0  0  0  0  0  0  0
   -1.5527    0.9788    0.0394 H   0  0  0  0  0  0  0  0  0  0  0  0
   -5.5841    2.3979    1.6260 H   0  0  0  0  0  0  0  0  0  0  0  0
   -5.0083    4.9816    0.9188 H   0  0  0  0  0  0  0  0  0  0  0  0
   -2.4802    4.8327   -0.1891 H   0  0  0  0  0  0  0  0  0  0  0  0
  1  2  1  0
  2  3  1  0
  3  4  2  0
  3  5  1  0
  5  6  1  0
  6  7  1  0
  7  8  2  0
  7  9  1  0
  9 10  2  0
 10 11  1  0
 11 12  2  0
 12 13  1  0
 13 14  2  0
 14 15  1  0
 15 16  1  0
 16 17  2  0
 16 18  1  0
 18 19  2  0
 19 20  1  0
 20 21  2  0
 21 22  1  0
 14  9  1  0
 22 18  1  0
  1 23  1  0
  1 24  1  0
  1 25  1  0
  2 26  1  0
  5 27  1  0
  5 28  1  0
 10 29  1  0
 11 30  1  0
 12 31  1  0
 13 32  1  0
 15 33  1  0
 19 34  1  0
 20 35  1  0
 21 36  1  0
M  END
$$$$
