
     RDKit          3D

 45 47  0  0  0  0  0  0  0  0999 V2000
    7.3474   -0.6647    2.4658 C   0  0  0  0  0  0  0  0  0  0  0  0
    6.6262   -0.6436    1.1502 C   0  0  0  0  0  0  0  0  0  0  0  0
    7.3145   -0.8997   -0.0415 C   0  0  0  0  0  0  0  0  0  0  0  0
    6.6481   -0.8626   -1.2675 C   0  0  0  0  0  0  0  0  0  0  0  0
    5.2891   -0.5489   -1.3189 C   0  0  0  0  0  0  0  0  0  0  0  0
    4.5969   -0.2579   -0.1370 C   0  0  0  0  0  0  0  0  0  0  0  0
    3.1507    0.0903   -0.1367 C   0  0  0  0  0  0  0  0  0  0  0  0
    2.4451   -0.1921    0.8280 O   0  0  0  0  0  0  0  0  0  0  0  0
    2.6857    0.7773   -1.2513 N   0  0  0  0  0  0  0  0  0  0  0  0
    1.3915    1.1804   -1.5585 C   0  0  0  0  0  0  0  0  0  0  0  0
    1.2303    2.0150   -2.9954 S   0  0  0  0  0  0  0  0  0  0  0  0
    0.4484    0.8250   -0.6244 N   0  0  0  0  0  0  0  0  0  0  0  0
   -0.9515    0.9839   -0.5315 C   0  0  0  0  0  0  0  0  0  0  0  0
   -1.5442    0.5140    0.6501 C   0  0  0  0  0  0  0  0  0  0  0  0
   -2.9234    0.6114    0.8609 C   0  0  0  0  0  0  0  0  0  0  0  0
   -3.7491    1.1795   -0.1132 C   0  0  0  0  0  0  0  0  0  0  0  0
   -5.2406    1.2912    0.1038 C   0  0  0  0  0  0  0  0  0  0  0  0
   -5.9557   -0.0368    0.1877 C   0  0  0  0  0  0  0  0  0  0  0  0
   -5.9565   -0.9236   -0.8938 C   0  0  0  0  0  0  0  0  0  0  0  0
   -6.6343   -2.1265   -0.7693 C   0  0  0  0  0  0  0  0  0  0  0  0
   -7.3081   -2.4990    0.3396 N   0  0  0  0  0  0  0  0  0  0  0  0
   -7.2984   -1.6292    1.3715 C   0  0  0  0  0  0  0  0  0  0  0  0
   -6.6482   -0.4045    1.3449 C   0  0  0  0  0  0  0  0  0  0  0  0
   -3.1617    1.6471   -1.2937 C   0  0  0  0  0  0  0  0  0  0  0  0
   -1.7780    1.5478   -1.5000 C   0  0  0  0  0  0  0  0  0  0  0  0
    5.2654   -0.3151    1.0935 C   0  0  0  0  0  0  0  0  0  0  0  0
    8.1767   -1.3796    2.4454 H   0  0  0  0  0  0  0  0  0  0  0  0
    6.6754   -0.9706    3.2745 H   0  0  0  0  0  0  0  0  0  0  0  0
    7.7433    0.3302    2.6912 H   0  0  0  0  0  0  0  0  0  0  0  0
    8.3755   -1.1420   -0.0201 H   0  0  0  0  0  0  0  0  0  0  0  0
    7.1905   -1.0874   -2.1833 H   0  0  0  0  0  0  0  0  0  0  0  0
    4.7889   -0.5639   -2.2830 H   0  0  0  0  0  0  0  0  0  0  0  0
    3.3592    1.0726   -1.9445 H   0  0  0  0  0  0  0  0  0  0  0  0
    0.8621    0.3625    0.1880 H   0  0  0  0  0  0  0  0  0  0  0  0
   -0.9357    0.0613    1.4308 H   0  0  0  0  0  0  0  0  0  0  0  0
   -3.3454    0.2333    1.7894 H   0  0  0  0  0  0  0  0  0  0  0  0
   -5.4074    1.8744    1.0190 H   0  0  0  0  0  0  0  0  0  0  0  0
   -5.7025    1.8764   -0.7022 H   0  0  0  0  0  0  0  0  0  0  0  0
   -5.4337   -0.6901   -1.8157 H   0  0  0  0  0  0  0  0  0  0  0  0
   -6.6527   -2.8435   -1.5849 H   0  0  0  0  0  0  0  0  0  0  0  0
   -7.8464   -1.9517    2.2522 H   0  0  0  0  0  0  0  0  0  0  0  0
   -6.6850    0.2439    2.2139 H   0  0  0  0  0  0  0  0  0  0  0  0
   -3.7742    2.0946   -2.0739 H   0  0  0  0  0  0  0  0  0  0  0  0
   -1.3994    1.9216   -2.4412 H   0  0  0  0  0  0  0  0  0  0  0  0
    4.7209   -0.1004    2.0123 H   0  0  0  0  0  0  0  0  0  0  0  0
  1  2  1  0
  2  3  2  0
  3  4  1  0
  4  5  2  0
  5  6  1  0
  6  7  1  0
  7  8  2  0
  7  9  1  0
  9 10  1  0
 10 11  2  0
 10 12  1  0
 12 13  1  0
 13 14  2  0
 14 15  1  0
 15 16  2  0
 16 17  1  0
 17 18  1  0
 18 19  2  0
 19 20  1  0
 20 21  2  0
 21 22  1  0
 22 23  2  0
 16 24  1  0
 24 25  2  0
  6 26  2  0
 26  2  1  0
 25 13  1  0
 23 18  1  0
  1 27  1  0
  1 28  1  0
  1 29  1  0
  3 30  1  0
  4 31  1  0
  5 32  1  0
  9 33  1  0
 12 34  1  0
 14 35  1  0
 15 36  1  0
 17 37  1  0
 17 38  1  0
 19 39  1  0
 20 40  1  0
 22 41  1  0
 23 42  1  0
 24 43  1  0
 25 44  1  0
 26 45  1  0
M  END
$$$$
