
     RDKit          3D

 43 46  0  0  0  0  0  0  0  0999 V2000
   -4.4759   -3.0557   -1.2920 C   0  0  0  0  0  0  0  0  0  0  0  0
   -4.0357   -1.6708   -1.2155 N   0  0  0  0  0  0  0  0  0  0  0  0
   -5.0145   -0.6785   -1.2267 C   0  0  0  0  0  0  0  0  0  0  0  0
   -6.2188   -0.9141   -1.2887 O   0  0  0  0  0  0  0  0  0  0  0  0
   -4.5575    0.7832   -1.1551 C   0  0  0  0  0  0  0  0  0  0  0  0
   -5.4124    1.6655   -1.1630 O   0  0  0  0  0  0  0  0  0  0  0  0
   -3.1891    1.0366   -1.0814 N   0  0  0  0  0  0  0  0  0  0  0  0
   -2.7598    2.4266   -1.0241 C   0  0  0  0  0  0  0  0  0  0  0  0
   -2.2317   -0.0142   -1.0674 C   0  0  0  0  0  0  0  0  0  0  0  0
   -0.8575    0.2691   -0.9853 C   0  0  0  0  0  0  0  0  0  0  0  0
    0.0826   -0.7654   -0.9644 C   0  0  0  0  0  0  0  0  0  0  0  0
    1.8114   -0.3500   -0.8577 S   0  0  0  0  0  6  0  0  0  0  0  0
    2.5568   -1.5891   -0.7670 O   0  0  0  0  0  0  0  0  0  0  0  0
    2.0544    0.6056   -1.9176 O   0  0  0  0  0  0  0  0  0  0  0  0
    1.8807    0.4283    0.6618 N   0  0  0  0  0  0  0  0  0  0  0  0
    1.5793   -0.4416    1.8543 C   0  0  0  0  0  0  0  0  0  0  0  0
    2.8631   -0.5187    2.6957 C   0  0  0  0  0  0  0  0  0  0  0  0
    3.6786    0.5977    2.1381 C   0  0  0  0  0  0  0  0  0  0  0  0
    4.8722    1.1062    2.6255 C   0  0  0  0  0  0  0  0  0  0  0  0
    5.4980    2.1288    1.9091 C   0  0  0  0  0  0  0  0  0  0  0  0
    4.9301    2.6216    0.7241 C   0  0  0  0  0  0  0  0  0  0  0  0
    3.7298    2.0959    0.2392 C   0  0  0  0  0  0  0  0  0  0  0  0
    3.1262    1.0765    0.9538 C   0  0  0  0  0  0  0  0  0  0  0  0
   -0.3200   -2.0921   -1.0391 C   0  0  0  0  0  0  0  0  0  0  0  0
   -1.6822   -2.3818   -1.1222 C   0  0  0  0  0  0  0  0  0  0  0  0
   -2.6513   -1.3577   -1.1349 C   0  0  0  0  0  0  0  0  0  0  0  0
   -4.1497   -3.5916   -0.3950 H   0  0  0  0  0  0  0  0  0  0  0  0
   -4.0578   -3.5216   -2.1901 H   0  0  0  0  0  0  0  0  0  0  0  0
   -5.5646   -3.1411   -1.3513 H   0  0  0  0  0  0  0  0  0  0  0  0
   -2.2139    2.6007   -0.0913 H   0  0  0  0  0  0  0  0  0  0  0  0
   -2.1240    2.6473   -1.8874 H   0  0  0  0  0  0  0  0  0  0  0  0
   -3.6044    3.1210   -1.0485 H   0  0  0  0  0  0  0  0  0  0  0  0
   -0.4867    1.2901   -0.9385 H   0  0  0  0  0  0  0  0  0  0  0  0
    0.7783    0.0472    2.4231 H   0  0  0  0  0  0  0  0  0  0  0  0
    1.2235   -1.4417    1.5909 H   0  0  0  0  0  0  0  0  0  0  0  0
    2.6492   -0.3913    3.7607 H   0  0  0  0  0  0  0  0  0  0  0  0
    3.3749   -1.4732    2.5341 H   0  0  0  0  0  0  0  0  0  0  0  0
    5.3182    0.7194    3.5365 H   0  0  0  0  0  0  0  0  0  0  0  0
    6.4359    2.5461    2.2692 H   0  0  0  0  0  0  0  0  0  0  0  0
    5.4282    3.4196    0.1782 H   0  0  0  0  0  0  0  0  0  0  0  0
    3.2891    2.4896   -0.6704 H   0  0  0  0  0  0  0  0  0  0  0  0
    0.4073   -2.9015   -1.0391 H   0  0  0  0  0  0  0  0  0  0  0  0
   -1.9603   -3.4307   -1.1806 H   0  0  0  0  0  0  0  0  0  0  0  0
  1  2  1  0
  2  3  1  0
  3  4  2  0
  3  5  1  0
  5  6  2  0
  5  7  1  0
  7  8  1  0
  7  9  1  0
  9 10  2  0
 10 11  1  0
 11 12  1  0
 12 13  2  0
 12 14  2  0
 12 15  1  0
 15 16  1  0
 16 17  1  0
 17 18  1  0
 18 19  2  0
 19 20  1  0
 20 21  2  0
 21 22  1  0
 22 23  2  0
 11 24  2  0
 24 25  1  0
 25 26  2  0
 26  2  1  0
 26  9  1  0
 23 15  1  0
 23 18  1  0
  1 27  1  0
  1 28  1  0
  1 29  1  0
  8 30  1  0
  8 31  1  0
  8 32  1  0
 10 33  1  0
 16 34  1  0
 16 35  1  0
 17 36  1  0
 17 37  1  0
 19 38  1  0
 20 39  1  0
 21 40  1  0
 22 41  1  0
 24 42  1  0
 25 43  1  0
M  END
$$$$
