
     RDKit          3D

 43 44  0  0  0  0  0  0  0  0999 V2000
   -4.6718    1.0969    3.4636 C   0  0  0  0  0  0  0  0  0  0  0  0
   -3.6139    1.8883    2.7178 C   0  0  0  0  0  0  0  0  0  0  0  0
   -3.2721    1.2221    1.4965 O   0  0  0  0  0  0  0  0  0  0  0  0
   -2.2687    0.3007    1.5902 C   0  0  0  0  0  0  0  0  0  0  0  0
   -1.7331   -0.0446    2.6386 O   0  0  0  0  0  0  0  0  0  0  0  0
   -1.9397   -0.2910    0.2954 C   0  0  0  0  0  0  0  0  0  0  0  0
   -0.6493   -0.5253   -0.1338 C   0  0  0  0  0  0  0  0  0  0  0  0
    0.6013   -0.1905    0.3332 N   0  0  0  0  0  0  0  0  0  0  0  0
    0.8573    0.9540    1.0672 C   0  0  0  0  0  0  0  0  0  0  0  0
    0.0423    1.8267    1.3549 O   0  0  0  0  0  0  0  0  0  0  0  0
    2.3112    1.0376    1.5400 C   0  0  0  0  0  0  0  0  0  0  0  0
    3.2464    0.3209    0.7262 O   0  0  0  0  0  0  0  0  0  0  0  0
    3.6450    0.9782   -0.3911 C   0  0  0  0  0  0  0  0  0  0  0  0
    3.2299    2.0609   -0.7659 O   0  0  0  0  0  0  0  0  0  0  0  0
    4.6459    0.1786   -1.1413 C   0  0  0  0  0  0  0  0  0  0  0  0
    5.1686   -1.0191   -0.6500 C   0  0  0  0  0  0  0  0  0  0  0  0
    6.0938   -1.6895   -1.4297 C   0  0  0  0  0  0  0  0  0  0  0  0
    6.5161   -1.2511   -2.6343 N   0  0  0  0  0  0  0  0  0  0  0  0
    5.9982   -0.0887   -3.0845 C   0  0  0  0  0  0  0  0  0  0  0  0
    5.0698    0.6566   -2.3826 C   0  0  0  0  0  0  0  0  0  0  0  0
   -0.5748   -1.4480   -1.5550 S   0  0  0  0  0  0  0  0  0  0  0  0
   -2.2704   -1.4078   -1.7501 C   0  0  0  0  0  0  0  0  0  0  0  0
   -2.8866   -2.0429   -2.9543 C   0  0  0  0  0  0  0  0  0  0  0  0
   -2.9020   -0.7826   -0.6834 C   0  0  0  0  0  0  0  0  0  0  0  0
   -4.3881   -0.6593   -0.5324 C   0  0  0  0  0  0  0  0  0  0  0  0
   -4.9844    1.6243    4.3691 H   0  0  0  0  0  0  0  0  0  0  0  0
   -5.5488    0.9344    2.8284 H   0  0  0  0  0  0  0  0  0  0  0  0
   -4.2966    0.1083    3.7464 H   0  0  0  0  0  0  0  0  0  0  0  0
   -2.7298    2.0649    3.3413 H   0  0  0  0  0  0  0  0  0  0  0  0
   -4.0144    2.8703    2.4453 H   0  0  0  0  0  0  0  0  0  0  0  0
    1.3864   -0.6376   -0.1226 H   0  0  0  0  0  0  0  0  0  0  0  0
    2.6050    2.0902    1.6302 H   0  0  0  0  0  0  0  0  0  0  0  0
    2.3527    0.5993    2.5429 H   0  0  0  0  0  0  0  0  0  0  0  0
    4.8788   -1.4285    0.3109 H   0  0  0  0  0  0  0  0  0  0  0  0
    6.5355   -2.6254   -1.0979 H   0  0  0  0  0  0  0  0  0  0  0  0
    6.3618    0.2368   -4.0554 H   0  0  0  0  0  0  0  0  0  0  0  0
    4.6879    1.5854   -2.7949 H   0  0  0  0  0  0  0  0  0  0  0  0
   -3.3943   -2.9710   -2.6719 H   0  0  0  0  0  0  0  0  0  0  0  0
   -3.6234   -1.3697   -3.4050 H   0  0  0  0  0  0  0  0  0  0  0  0
   -2.1461   -2.2822   -3.7246 H   0  0  0  0  0  0  0  0  0  0  0  0
   -4.9229   -1.3308   -1.2110 H   0  0  0  0  0  0  0  0  0  0  0  0
   -4.6977   -0.9155    0.4860 H   0  0  0  0  0  0  0  0  0  0  0  0
   -4.7050    0.3654   -0.7506 H   0  0  0  0  0  0  0  0  0  0  0  0
  1  2  1  0
  2  3  1  0
  3  4  1  0
  4  5  2  0
  4  6  1  0
  6  7  2  0
  7  8  1  0
  8  9  1  0
  9 10  2  0
  9 11  1  0
 11 12  1  0
 12 13  1  0
 13 14  2  0
 13 15  1  0
 15 16  2  0
 16 17  1  0
 17 18  2  0
 18 19  1  0
 19 20  2  0
  7 21  1  0
 21 22  1  0
 22 23  1  0
 22 24  2  0
 24 25  1  0
 24  6  1  0
 20 15  1  0
  1 26  1  0
  1 27  1  0
  1 28  1  0
  2 29  1  0
  2 30  1  0
  8 31  1  0
 11 32  1  0
 11 33  1  0
 16 34  1  0
 17 35  1  0
 19 36  1  0
 20 37  1  0
 23 38  1  0
 23 39  1  0
 23 40  1  0
 25 41  1  0
 25 42  1  0
 25 43  1  0
M  END
$$$$
