
     RDKit          3D

 42 44  0  0  0  0  0  0  0  0999 V2000
   -3.5052   -1.7270   -3.5060 C   0  0  0  0  0  0  0  0  0  0  0  0
   -3.6861   -0.7546   -2.4831 O   0  0  0  0  0  0  0  0  0  0  0  0
   -2.5572   -0.1349   -2.0084 C   0  0  0  0  0  0  0  0  0  0  0  0
   -1.2440   -0.4391   -2.3663 C   0  0  0  0  0  0  0  0  0  0  0  0
   -0.1732    0.2699   -1.7987 C   0  0  0  0  0  0  0  0  0  0  0  0
    1.1987   -0.0810   -2.2108 C   0  0  0  0  0  0  0  0  0  0  0  0
    2.2767   -0.2876   -1.4237 C   0  0  0  0  0  0  0  0  0  0  0  0
    3.5299   -0.6134   -2.0277 C   0  0  0  0  0  0  0  0  0  0  0  0
    4.5178   -0.9206   -2.5546 N   0  0  0  0  0  0  0  0  0  0  0  0
    2.2156   -0.1644   -0.0084 C   0  0  0  0  0  0  0  0  0  0  0  0
    2.6637    0.8271    0.7393 N   0  0  0  0  0  0  0  0  0  0  0  0
    2.3265    0.5142    2.0298 C   0  0  0  0  0  0  0  0  0  0  0  0
    2.5505    1.2398    3.2088 C   0  0  0  0  0  0  0  0  0  0  0  0
    2.0897    0.7139    4.4211 C   0  0  0  0  0  0  0  0  0  0  0  0
    1.4199   -0.5100    4.4577 C   0  0  0  0  0  0  0  0  0  0  0  0
    1.1918   -1.2492    3.2909 C   0  0  0  0  0  0  0  0  0  0  0  0
    1.6632   -0.7063    2.0889 C   0  0  0  0  0  0  0  0  0  0  0  0
    1.6284   -1.1373    0.7799 N   0  0  0  0  0  0  0  0  0  0  0  0
    1.0569   -2.3925    0.3489 C   0  0  0  0  0  0  0  0  0  0  0  0
   -0.4335    1.3107   -0.8931 C   0  0  0  0  0  0  0  0  0  0  0  0
   -1.7406    1.6080   -0.5011 C   0  0  0  0  0  0  0  0  0  0  0  0
   -2.0816    2.5850    0.3959 O   0  0  0  0  0  0  0  0  0  0  0  0
   -1.0454    3.0645    1.2444 C   0  0  0  0  0  0  0  0  0  0  0  0
   -2.7905    0.8830   -1.0730 C   0  0  0  0  0  0  0  0  0  0  0  0
   -4.0866    1.1652   -0.7134 O   0  0  0  0  0  0  0  0  0  0  0  0
   -4.4949   -2.0860   -3.8042 H   0  0  0  0  0  0  0  0  0  0  0  0
   -2.9370   -2.5860   -3.1345 H   0  0  0  0  0  0  0  0  0  0  0  0
   -3.0292   -1.2886   -4.3894 H   0  0  0  0  0  0  0  0  0  0  0  0
   -1.0297   -1.2281   -3.0801 H   0  0  0  0  0  0  0  0  0  0  0  0
    1.3124   -0.1891   -3.2907 H   0  0  0  0  0  0  0  0  0  0  0  0
    3.0701    2.1908    3.1716 H   0  0  0  0  0  0  0  0  0  0  0  0
    2.2559    1.2671    5.3424 H   0  0  0  0  0  0  0  0  0  0  0  0
    1.0685   -0.8979    5.4120 H   0  0  0  0  0  0  0  0  0  0  0  0
    0.6690   -2.1987    3.3298 H   0  0  0  0  0  0  0  0  0  0  0  0
    1.5356   -2.7265   -0.5740 H   0  0  0  0  0  0  0  0  0  0  0  0
    1.2276   -3.1493    1.1190 H   0  0  0  0  0  0  0  0  0  0  0  0
   -0.0147   -2.2453    0.1951 H   0  0  0  0  0  0  0  0  0  0  0  0
    0.3984    1.8906   -0.5027 H   0  0  0  0  0  0  0  0  0  0  0  0
   -0.5342    2.2429    1.7575 H   0  0  0  0  0  0  0  0  0  0  0  0
   -0.3373    3.6833    0.6841 H   0  0  0  0  0  0  0  0  0  0  0  0
   -1.5062    3.6978    2.0086 H   0  0  0  0  0  0  0  0  0  0  0  0
   -4.6400    0.5596   -1.2404 H   0  0  0  0  0  0  0  0  0  0  0  0
  1  2  1  0
  2  3  1  0
  3  4  2  0
  4  5  1  0
  5  6  1  0
  6  7  2  3
  7  8  1  0
  8  9  3  0
  7 10  1  0
 10 11  2  0
 11 12  1  0
 12 13  2  0
 13 14  1  0
 14 15  2  0
 15 16  1  0
 16 17  2  0
 17 18  1  0
 18 19  1  0
  5 20  2  0
 20 21  1  0
 21 22  1  0
 22 23  1  0
 21 24  2  0
 24 25  1  0
 24  3  1  0
 18 10  1  0
 17 12  1  0
  1 26  1  0
  1 27  1  0
  1 28  1  0
  4 29  1  0
  6 30  1  0
 13 31  1  0
 14 32  1  0
 15 33  1  0
 16 34  1  0
 19 35  1  0
 19 36  1  0
 19 37  1  0
 20 38  1  0
 23 39  1  0
 23 40  1  0
 23 41  1  0
 25 42  1  0
M  END
$$$$
