
     RDKit          3D

 50 53  0  0  0  0  0  0  0  0999 V2000
   -8.1480   -0.7707    1.6857 C   0  0  0  0  0  0  0  0  0  0  0  0
   -6.8084   -0.1991    1.3252 C   0  0  0  0  0  0  0  0  0  0  0  0
   -5.8145   -1.0125    0.7740 C   0  0  0  0  0  0  0  0  0  0  0  0
   -4.5735   -0.4779    0.4067 C   0  0  0  0  0  0  0  0  0  0  0  0
   -4.3109    0.8816    0.5749 C   0  0  0  0  0  0  0  0  0  0  0  0
   -3.0883    1.5042    0.2344 N   0  0  0  0  0  0  0  0  0  0  0  0
   -1.9705    0.9044   -0.3244 C   0  0  0  0  0  0  0  0  0  0  0  0
   -1.8584   -0.2767   -0.6461 O   0  0  0  0  0  0  0  0  0  0  0  0
   -0.8112    1.8858   -0.5575 C   0  0  0  0  0  0  0  0  0  0  0  0
    0.4710    1.1811   -0.6894 N   0  0  0  0  0  4  0  0  0  0  0  0
    1.4782    1.0811    0.2696 C   0  0  0  0  0  0  0  0  0  0  0  0
    2.4908    0.2642   -0.2202 C   0  0  0  0  0  0  0  0  0  0  0  0
    3.8343   -0.0950    0.5106 C   0  0  0  0  0  0  0  0  0  0  0  0
    4.0631    0.3611    1.8139 C   0  0  0  0  0  0  0  0  0  0  0  0
    5.2575    0.0485    2.4704 C   0  0  0  0  0  0  0  0  0  0  0  0
    6.2422   -0.7094    1.8305 C   0  0  0  0  0  0  0  0  0  0  0  0
    7.5097   -1.0735    2.5477 C   0  0  0  0  0  0  0  0  0  0  0  0
    6.0045   -1.1706    0.5323 C   0  0  0  0  0  0  0  0  0  0  0  0
    4.8106   -0.8607   -0.1273 C   0  0  0  0  0  0  0  0  0  0  0  0
    2.0144   -0.1226   -1.4595 N   0  0  0  0  0  0  0  0  0  0  0  0
    0.8279    0.4196   -1.7202 C   0  0  0  0  0  0  0  0  0  0  0  0
    0.2895    0.0324   -3.0454 C   0  0  0  0  0  0  0  0  0  0  0  0
    1.1930   -1.1576   -3.4223 C   0  0  0  0  0  0  0  0  0  0  0  0
    2.4567   -1.0012   -2.5330 C   0  0  0  0  0  0  0  0  0  0  0  0
   -5.3125    1.6987    1.1148 C   0  0  0  0  0  0  0  0  0  0  0  0
   -6.5520    1.1648    1.4813 C   0  0  0  0  0  0  0  0  0  0  0  0
   -8.0547   -1.8152    2.0014 H   0  0  0  0  0  0  0  0  0  0  0  0
   -8.8205   -0.7199    0.8240 H   0  0  0  0  0  0  0  0  0  0  0  0
   -8.5966   -0.2189    2.5184 H   0  0  0  0  0  0  0  0  0  0  0  0
   -5.9973   -2.0754    0.6261 H   0  0  0  0  0  0  0  0  0  0  0  0
   -3.8414   -1.1626   -0.0076 H   0  0  0  0  0  0  0  0  0  0  0  0
   -3.0567    2.4988    0.4275 H   0  0  0  0  0  0  0  0  0  0  0  0
   -0.7416    2.5906    0.2774 H   0  0  0  0  0  0  0  0  0  0  0  0
   -0.9978    2.4421   -1.4816 H   0  0  0  0  0  0  0  0  0  0  0  0
    1.3500    1.6190    1.1933 H   0  0  0  0  0  0  0  0  0  0  0  0
    3.3321    0.9532    2.3559 H   0  0  0  0  0  0  0  0  0  0  0  0
    5.4169    0.4000    3.4887 H   0  0  0  0  0  0  0  0  0  0  0  0
    8.3409   -1.1781    1.8425 H   0  0  0  0  0  0  0  0  0  0  0  0
    7.7893   -0.2955    3.2659 H   0  0  0  0  0  0  0  0  0  0  0  0
    7.3779   -2.0188    3.0830 H   0  0  0  0  0  0  0  0  0  0  0  0
    6.7548   -1.7746    0.0239 H   0  0  0  0  0  0  0  0  0  0  0  0
    4.6875   -1.2263   -1.1381 H   0  0  0  0  0  0  0  0  0  0  0  0
   -0.7628   -0.2342   -2.9603 H   0  0  0  0  0  0  0  0  0  0  0  0
    0.4379    0.8928   -3.7016 H   0  0  0  0  0  0  0  0  0  0  0  0
    0.6849   -2.0918   -3.1553 H   0  0  0  0  0  0  0  0  0  0  0  0
    1.4269   -1.1950   -4.4896 H   0  0  0  0  0  0  0  0  0  0  0  0
    2.7815   -1.9677   -2.1411 H   0  0  0  0  0  0  0  0  0  0  0  0
    3.2657   -0.5085   -3.0801 H   0  0  0  0  0  0  0  0  0  0  0  0
   -5.1550    2.7644    1.2590 H   0  0  0  0  0  0  0  0  0  0  0  0
   -7.3171    1.8216    1.8911 H   0  0  0  0  0  0  0  0  0  0  0  0
  1  2  1  0
  2  3  2  0
  3  4  1  0
  4  5  2  0
  5  6  1  0
  6  7  1  0
  7  8  2  0
  7  9  1  0
  9 10  1  0
 10 11  1  0
 11 12  2  0
 12 13  1  0
 13 14  2  0
 14 15  1  0
 15 16  2  0
 16 17  1  0
 16 18  1  0
 18 19  2  0
 12 20  1  0
 20 21  1  0
 21 22  1  0
 22 23  1  0
 23 24  1  0
  5 25  1  0
 25 26  2  0
 26  2  1  0
 21 10  2  0
 19 13  1  0
 24 20  1  0
  1 27  1  0
  1 28  1  0
  1 29  1  0
  3 30  1  0
  4 31  1  0
  6 32  1  0
  9 33  1  0
  9 34  1  0
 11 35  1  0
 14 36  1  0
 15 37  1  0
 17 38  1  0
 17 39  1  0
 17 40  1  0
 18 41  1  0
 19 42  1  0
 22 43  1  0
 22 44  1  0
 23 45  1  0
 23 46  1  0
 24 47  1  0
 24 48  1  0
 25 49  1  0
 26 50  1  0
M  CHG  1  10   1
M  END
$$$$
