
     RDKit          3D

 41 42  0  0  0  0  0  0  0  0999 V2000
   -7.5233   -2.2603    1.8768 C   0  0  0  0  0  0  0  0  0  0  0  0
   -7.1807   -1.3256    0.8615 O   0  0  0  0  0  0  0  0  0  0  0  0
   -5.9600   -0.7182    0.9698 C   0  0  0  0  0  0  0  0  0  0  0  0
   -5.0423   -0.8970    2.0041 C   0  0  0  0  0  0  0  0  0  0  0  0
   -3.8238   -0.2084    1.9923 C   0  0  0  0  0  0  0  0  0  0  0  0
   -3.5089    0.6713    0.9481 C   0  0  0  0  0  0  0  0  0  0  0  0
   -2.1917    1.4090    0.9377 C   0  0  0  0  0  0  0  0  0  0  0  0
   -1.0198    0.5992    0.4229 C   0  0  0  0  0  0  0  0  0  0  0  0
   -1.0383   -0.5937    0.1472 O   0  0  0  0  0  0  0  0  0  0  0  0
    0.0653    1.4483    0.3388 O   0  0  0  0  0  0  0  0  0  0  0  0
    1.2052    0.7324   -0.0720 N   0  0  0  0  0  0  0  0  0  0  0  0
    2.2430    1.5067   -0.1909 C   0  0  0  0  0  0  0  0  0  0  0  0
    2.2023    2.8652    0.0359 N   0  0  0  0  0  0  0  0  0  0  0  0
    3.5380    0.8793   -0.6151 C   0  0  0  0  0  0  0  0  0  0  0  0
    3.5360   -0.3833   -1.2208 C   0  0  0  0  0  0  0  0  0  0  0  0
    4.7357   -0.9769   -1.6320 C   0  0  0  0  0  0  0  0  0  0  0  0
    5.9479   -0.3158   -1.4355 C   0  0  0  0  0  0  0  0  0  0  0  0
    7.1847   -0.7798   -1.7889 O   0  0  0  0  0  0  0  0  0  0  0  0
    7.2373   -2.0585   -2.4090 C   0  0  0  0  0  0  0  0  0  0  0  0
    5.9500    0.9389   -0.8196 C   0  0  0  0  0  0  0  0  0  0  0  0
    4.7549    1.5364   -0.4075 C   0  0  0  0  0  0  0  0  0  0  0  0
   -4.4301    0.8401   -0.0925 C   0  0  0  0  0  0  0  0  0  0  0  0
   -5.6461    0.1525   -0.0758 C   0  0  0  0  0  0  0  0  0  0  0  0
   -6.8144   -3.0949    1.9030 H   0  0  0  0  0  0  0  0  0  0  0  0
   -8.5094   -2.6692    1.6353 H   0  0  0  0  0  0  0  0  0  0  0  0
   -7.5960   -1.7712    2.8541 H   0  0  0  0  0  0  0  0  0  0  0  0
   -5.2378   -1.5687    2.8330 H   0  0  0  0  0  0  0  0  0  0  0  0
   -3.1170   -0.3742    2.8031 H   0  0  0  0  0  0  0  0  0  0  0  0
   -2.2898    2.3073    0.3157 H   0  0  0  0  0  0  0  0  0  0  0  0
   -1.9603    1.7401    1.9574 H   0  0  0  0  0  0  0  0  0  0  0  0
    1.2522    3.2169    0.0712 H   0  0  0  0  0  0  0  0  0  0  0  0
    2.7877    3.4231   -0.5765 H   0  0  0  0  0  0  0  0  0  0  0  0
    2.5996   -0.9161   -1.3776 H   0  0  0  0  0  0  0  0  0  0  0  0
    4.6831   -1.9560   -2.0973 H   0  0  0  0  0  0  0  0  0  0  0  0
    8.2863   -2.2807   -2.6280 H   0  0  0  0  0  0  0  0  0  0  0  0
    6.6922   -2.0592   -3.3584 H   0  0  0  0  0  0  0  0  0  0  0  0
    6.8642   -2.8382   -1.7372 H   0  0  0  0  0  0  0  0  0  0  0  0
    6.8945    1.4517   -0.6509 H   0  0  0  0  0  0  0  0  0  0  0  0
    4.7957    2.4987    0.0939 H   0  0  0  0  0  0  0  0  0  0  0  0
   -4.2129    1.5023   -0.9268 H   0  0  0  0  0  0  0  0  0  0  0  0
   -6.3536    0.2909   -0.8894 H   0  0  0  0  0  0  0  0  0  0  0  0
  1  2  1  0
  2  3  1  0
  3  4  2  0
  4  5  1  0
  5  6  2  0
  6  7  1  0
  7  8  1  0
  8  9  2  0
  8 10  1  0
 10 11  1  0
 11 12  2  3
 12 13  1  0
 12 14  1  0
 14 15  2  0
 15 16  1  0
 16 17  2  0
 17 18  1  0
 18 19  1  0
 17 20  1  0
 20 21  2  0
  6 22  1  0
 22 23  2  0
 23  3  1  0
 21 14  1  0
  1 24  1  0
  1 25  1  0
  1 26  1  0
  4 27  1  0
  5 28  1  0
  7 29  1  0
  7 30  1  0
 13 31  1  0
 13 32  1  0
 15 33  1  0
 16 34  1  0
 19 35  1  0
 19 36  1  0
 19 37  1  0
 20 38  1  0
 21 39  1  0
 22 40  1  0
 23 41  1  0
M  END
$$$$
