
     RDKit          3D

 49 52  0  0  0  0  0  0  0  0999 V2000
   -1.1390   -1.6169   -4.5523 N   0  0  0  0  0  0  0  0  0  0  0  0
   -0.9764   -1.7042   -3.4033 C   0  0  0  0  0  0  0  0  0  0  0  0
   -0.8679   -1.8368   -1.9424 C   0  0  0  0  0  0  0  0  0  0  0  0
    0.5369   -2.2145   -1.4889 C   0  0  0  0  0  0  0  0  0  0  0  0
    1.4819   -2.4136   -2.2504 O   0  0  0  0  0  0  0  0  0  0  0  0
    0.6645   -2.3830   -0.1195 N   0  0  0  0  0  0  0  0  0  0  0  0
    1.9224   -2.7442    0.4948 C   0  0  0  0  0  0  0  0  0  0  0  0
    2.0078   -2.1578    1.8802 C   0  0  0  0  0  0  0  0  0  0  0  0
    2.2893   -0.7959    2.0528 C   0  0  0  0  0  0  0  0  0  0  0  0
    2.3466   -0.2369    3.3298 C   0  0  0  0  0  0  0  0  0  0  0  0
    2.1208   -1.0330    4.4461 C   0  0  0  0  0  0  0  0  0  0  0  0
    1.8301   -2.3863    4.2867 C   0  0  0  0  0  0  0  0  0  0  0  0
    1.7660   -2.9459    3.0099 C   0  0  0  0  0  0  0  0  0  0  0  0
   -1.3784   -0.6177   -1.2054 C   0  0  0  0  0  0  0  0  0  0  0  0
   -2.3962   -0.8268   -0.3203 N   0  0  0  0  0  0  0  0  0  0  0  0
   -2.8443    0.2454    0.3559 C   0  0  0  0  0  0  0  0  0  0  0  0
   -3.8910    0.1003    1.2573 C   0  0  0  0  0  0  0  0  0  0  0  0
   -4.3886    1.1912    1.9704 C   0  0  0  0  0  0  0  0  0  0  0  0
   -3.8278    2.4471    1.7818 C   0  0  0  0  0  0  0  0  0  0  0  0
   -2.7684    2.5993    0.8887 C   0  0  0  0  0  0  0  0  0  0  0  0
   -2.2683    1.5219    0.1690 C   0  0  0  0  0  0  0  0  0  0  0  0
   -1.2465    1.7134   -0.6857 N   0  0  0  0  0  0  0  0  0  0  0  0
   -0.7919    0.6457   -1.3776 C   0  0  0  0  0  0  0  0  0  0  0  0
    0.2790    0.8093   -2.2719 N   0  0  0  0  0  0  0  0  0  0  0  0
   -0.0494    1.7786   -3.3403 C   0  0  0  0  0  0  0  0  0  0  0  0
    0.8985    2.9542   -3.1315 C   0  0  0  0  0  0  0  0  0  0  0  0
    2.1238    2.2764   -2.5569 C   0  0  0  0  0  0  0  0  0  0  0  0
    1.5085    1.2711   -1.5941 C   0  0  0  0  0  0  0  0  0  0  0  0
   -1.5033   -2.6908   -1.6617 H   0  0  0  0  0  0  0  0  0  0  0  0
   -0.1463   -2.2900    0.4871 H   0  0  0  0  0  0  0  0  0  0  0  0
    1.9682   -3.8378    0.5294 H   0  0  0  0  0  0  0  0  0  0  0  0
    2.7682   -2.4016   -0.1147 H   0  0  0  0  0  0  0  0  0  0  0  0
    2.4663   -0.1623    1.1864 H   0  0  0  0  0  0  0  0  0  0  0  0
    2.5721    0.8220    3.4534 H   0  0  0  0  0  0  0  0  0  0  0  0
    2.1733   -0.5989    5.4398 H   0  0  0  0  0  0  0  0  0  0  0  0
    1.6578   -3.0055    5.1610 H   0  0  0  0  0  0  0  0  0  0  0  0
    1.5298   -4.0028    2.9025 H   0  0  0  0  0  0  0  0  0  0  0  0
   -4.3310   -0.8849    1.4051 H   0  0  0  0  0  0  0  0  0  0  0  0
   -5.2102    1.0573    2.6660 H   0  0  0  0  0  0  0  0  0  0  0  0
   -4.2061    3.3061    2.3291 H   0  0  0  0  0  0  0  0  0  0  0  0
   -2.3196    3.5795    0.7472 H   0  0  0  0  0  0  0  0  0  0  0  0
    0.1671    1.2989   -4.3015 H   0  0  0  0  0  0  0  0  0  0  0  0
   -1.0976    2.1016   -3.3655 H   0  0  0  0  0  0  0  0  0  0  0  0
    1.1082    3.4936   -4.0579 H   0  0  0  0  0  0  0  0  0  0  0  0
    0.4767    3.6579   -2.4052 H   0  0  0  0  0  0  0  0  0  0  0  0
    2.8069    2.9678   -2.0574 H   0  0  0  0  0  0  0  0  0  0  0  0
    2.6741    1.7570   -3.3511 H   0  0  0  0  0  0  0  0  0  0  0  0
    1.3173    1.7607   -0.6301 H   0  0  0  0  0  0  0  0  0  0  0  0
    2.1862    0.4317   -1.4196 H   0  0  0  0  0  0  0  0  0  0  0  0
  1  2  3  0
  2  3  1  0
  3  4  1  0
  4  5  2  0
  4  6  1  0
  6  7  1  0
  7  8  1  0
  8  9  2  0
  9 10  1  0
 10 11  2  0
 11 12  1  0
 12 13  2  0
  3 14  1  0
 14 15  2  0
 15 16  1  0
 16 17  2  0
 17 18  1  0
 18 19  2  0
 19 20  1  0
 20 21  2  0
 21 22  1  0
 22 23  2  0
 23 24  1  0
 24 25  1  0
 25 26  1  0
 26 27  1  0
 27 28  1  0
 13  8  1  0
 23 14  1  0
 28 24  1  0
 21 16  1  0
  3 29  1  0
  6 30  1  0
  7 31  1  0
  7 32  1  0
  9 33  1  0
 10 34  1  0
 11 35  1  0
 12 36  1  0
 13 37  1  0
 17 38  1  0
 18 39  1  0
 19 40  1  0
 20 41  1  0
 25 42  1  0
 25 43  1  0
 26 44  1  0
 26 45  1  0
 27 46  1  0
 27 47  1  0
 28 48  1  0
 28 49  1  0
M  END
$$$$
