
     RDKit          3D

 73 78  0  0  0  0  0  0  0  0999 V2000
    9.8408   -1.3397   -1.6789 C   0  0  0  0  0  0  0  0  0  0  0  0
    8.3982   -1.0765   -1.3630 C   0  0  0  0  0  0  0  0  0  0  0  0
    7.8432   -1.4947   -0.1519 C   0  0  0  0  0  0  0  0  0  0  0  0
    6.4903   -1.2717    0.1176 C   0  0  0  0  0  0  0  0  0  0  0  0
    5.6567   -0.6355   -0.8168 C   0  0  0  0  0  0  0  0  0  0  0  0
    4.3008   -0.3784   -0.5451 N   0  0  0  0  0  0  0  0  0  0  0  0
    3.4786   -1.5773   -0.2467 C   0  0  0  0  0  0  0  0  0  0  0  0
    2.7563   -1.4770    1.1087 C   0  0  0  0  0  0  0  0  0  0  0  0
    1.9782   -0.2353    1.2249 N   0  0  0  0  0  0  0  0  0  0  0  0
    0.6307   -0.3102    1.5615 C   0  0  0  0  0  0  0  0  0  0  0  0
    0.1020   -1.3792    1.8694 O   0  0  0  0  0  0  0  0  0  0  0  0
   -0.1582    0.9966    1.6147 C   0  0  0  0  0  0  0  0  0  0  0  0
    0.0739    1.7091    2.9566 C   0  0  0  0  0  0  0  0  0  0  0  0
   -1.2045    2.2911    3.5545 C   0  0  0  0  0  0  0  0  0  0  0  0
   -2.1090    2.9229    2.4944 C   0  0  0  0  0  0  0  0  0  0  0  0
   -2.3830    1.9867    1.4057 N   0  0  0  0  0  0  0  0  0  0  0  0
   -3.6289    2.1009    0.7922 C   0  0  0  0  0  0  0  0  0  0  0  0
   -4.2440    3.3256    0.8064 N   0  0  0  0  0  0  0  0  0  0  0  0
   -5.4419    3.4818    0.2060 C   0  0  0  0  0  0  0  0  0  0  0  0
   -6.1762    2.5621   -0.4409 N   0  0  0  0  0  0  0  0  0  0  0  0
   -5.5540    1.3708   -0.4372 C   0  0  0  0  0  0  0  0  0  0  0  0
   -4.3268    1.0581    0.1279 C   0  0  0  0  0  0  0  0  0  0  0  0
   -4.0490   -0.2809   -0.0756 N   0  0  0  0  0  0  0  0  0  0  0  0
   -5.0759   -0.7727   -0.7436 C   0  0  0  0  0  0  0  0  0  0  0  0
   -6.0144    0.2015   -0.9909 N   0  0  0  0  0  0  0  0  0  0  0  0
   -7.2866    0.0947   -1.6702 C   0  0  0  0  0  0  0  0  0  0  0  0
   -7.8424   -1.3031   -1.9570 C   0  0  0  0  0  0  0  0  0  0  0  0
   -7.7649   -2.2426   -0.7577 C   0  0  0  0  0  0  0  0  0  0  0  0
   -6.3965   -2.8999   -0.5482 C   0  0  0  0  0  0  0  0  0  0  0  0
   -5.2041   -2.1879   -1.1814 C   0  0  0  0  0  0  0  0  0  0  0  0
   -1.6472    0.7197    1.3574 C   0  0  0  0  0  0  0  0  0  0  0  0
    2.6293    0.9698    0.6851 C   0  0  0  0  0  0  0  0  0  0  0  0
    4.1226    0.7637    0.3766 C   0  0  0  0  0  0  0  0  0  0  0  0
    6.2090   -0.2280   -2.0463 C   0  0  0  0  0  0  0  0  0  0  0  0
    5.3594    0.4508   -3.0854 C   0  0  0  0  0  0  0  0  0  0  0  0
    7.5722   -0.4532   -2.3072 C   0  0  0  0  0  0  0  0  0  0  0  0
    9.9340   -2.2694   -2.2487 H   0  0  0  0  0  0  0  0  0  0  0  0
   10.4386   -1.4283   -0.7644 H   0  0  0  0  0  0  0  0  0  0  0  0
   10.2648   -0.5169   -2.2665 H   0  0  0  0  0  0  0  0  0  0  0  0
    8.4584   -1.9872    0.5970 H   0  0  0  0  0  0  0  0  0  0  0  0
    6.0892   -1.5928    1.0753 H   0  0  0  0  0  0  0  0  0  0  0  0
    2.7241   -1.6469   -1.0397 H   0  0  0  0  0  0  0  0  0  0  0  0
    4.0564   -2.5067   -0.2906 H   0  0  0  0  0  0  0  0  0  0  0  0
    3.4870   -1.4668    1.9258 H   0  0  0  0  0  0  0  0  0  0  0  0
    2.1250   -2.3584    1.2542 H   0  0  0  0  0  0  0  0  0  0  0  0
    0.1782    1.6573    0.8059 H   0  0  0  0  0  0  0  0  0  0  0  0
    0.7899    2.5270    2.8015 H   0  0  0  0  0  0  0  0  0  0  0  0
    0.5377    1.0419    3.6941 H   0  0  0  0  0  0  0  0  0  0  0  0
   -0.9477    3.0364    4.3172 H   0  0  0  0  0  0  0  0  0  0  0  0
   -1.7617    1.4972    4.0741 H   0  0  0  0  0  0  0  0  0  0  0  0
   -1.6328    3.8222    2.0841 H   0  0  0  0  0  0  0  0  0  0  0  0
   -3.0300    3.2367    3.0020 H   0  0  0  0  0  0  0  0  0  0  0  0
   -5.8657    4.4799    0.2542 H   0  0  0  0  0  0  0  0  0  0  0  0
   -8.0147    0.6303   -1.0486 H   0  0  0  0  0  0  0  0  0  0  0  0
   -7.1866    0.6465   -2.6123 H   0  0  0  0  0  0  0  0  0  0  0  0
   -8.8956   -1.1851   -2.2429 H   0  0  0  0  0  0  0  0  0  0  0  0
   -7.3498   -1.7477   -2.8299 H   0  0  0  0  0  0  0  0  0  0  0  0
   -8.0515   -1.6993    0.1518 H   0  0  0  0  0  0  0  0  0  0  0  0
   -8.5111   -3.0392   -0.8730 H   0  0  0  0  0  0  0  0  0  0  0  0
   -6.2296   -3.0177    0.5308 H   0  0  0  0  0  0  0  0  0  0  0  0
   -6.4332   -3.9171   -0.9580 H   0  0  0  0  0  0  0  0  0  0  0  0
   -4.2912   -2.7276   -0.9030 H   0  0  0  0  0  0  0  0  0  0  0  0
   -5.2524   -2.2360   -2.2745 H   0  0  0  0  0  0  0  0  0  0  0  0
   -1.7157    0.2626    0.3628 H   0  0  0  0  0  0  0  0  0  0  0  0
   -2.0635    0.0093    2.0839 H   0  0  0  0  0  0  0  0  0  0  0  0
    2.5064    1.7897    1.4006 H   0  0  0  0  0  0  0  0  0  0  0  0
    2.1018    1.2358   -0.2407 H   0  0  0  0  0  0  0  0  0  0  0  0
    4.6628    0.5951    1.3176 H   0  0  0  0  0  0  0  0  0  0  0  0
    4.5216    1.6789   -0.0768 H   0  0  0  0  0  0  0  0  0  0  0  0
    5.9107    0.5989   -4.0191 H   0  0  0  0  0  0  0  0  0  0  0  0
    4.4814   -0.1600   -3.3211 H   0  0  0  0  0  0  0  0  0  0  0  0
    5.0367    1.4336   -2.7268 H   0  0  0  0  0  0  0  0  0  0  0  0
    7.9933   -0.1380   -3.2603 H   0  0  0  0  0  0  0  0  0  0  0  0
  1  2  1  0
  2  3  2  0
  3  4  1  0
  4  5  2  0
  5  6  1  0
  6  7  1  0
  7  8  1  0
  8  9  1  0
  9 10  1  0
 10 11  2  0
 10 12  1  0
 12 13  1  0
 13 14  1  0
 14 15  1  0
 15 16  1  0
 16 17  1  0
 17 18  2  0
 18 19  1  0
 19 20  2  0
 20 21  1  0
 21 22  2  0
 22 23  1  0
 23 24  2  0
 24 25  1  0
 25 26  1  0
 26 27  1  0
 27 28  1  0
 28 29  1  0
 29 30  1  0
 16 31  1  0
  9 32  1  0
 32 33  1  0
  5 34  1  0
 34 35  1  0
 34 36  2  0
 36  2  1  0
 33  6  1  0
 31 12  1  0
 22 17  1  0
 30 24  1  0
 25 21  1  0
  1 37  1  0
  1 38  1  0
  1 39  1  0
  3 40  1  0
  4 41  1  0
  7 42  1  0
  7 43  1  0
  8 44  1  0
  8 45  1  0
 12 46  1  0
 13 47  1  0
 13 48  1  0
 14 49  1  0
 14 50  1  0
 15 51  1  0
 15 52  1  0
 19 53  1  0
 26 54  1  0
 26 55  1  0
 27 56  1  0
 27 57  1  0
 28 58  1  0
 28 59  1  0
 29 60  1  0
 29 61  1  0
 30 62  1  0
 30 63  1  0
 31 64  1  0
 31 65  1  0
 32 66  1  0
 32 67  1  0
 33 68  1  0
 33 69  1  0
 35 70  1  0
 35 71  1  0
 35 72  1  0
 36 73  1  0
M  END
$$$$
