
     RDKit          3D

 80 86  0  0  0  0  0  0  0  0999 V2000
   -5.2391   -0.9950    1.7811 C   0  0  0  0  0  0  0  0  0  0  0  0
   -3.7888   -0.6109    1.7759 C   0  0  0  0  0  0  0  0  0  0  0  0
   -3.1344   -0.2843    2.9881 C   0  0  0  0  0  0  0  0  0  0  0  0
   -3.9583   -0.2634    4.5141 Cl  0  0  0  0  0  0  0  0  0  0  0  0
   -1.7777    0.0698    3.0245 C   0  0  0  0  0  0  0  0  0  0  0  0
   -1.0254    0.0977    1.8587 C   0  0  0  0  0  0  0  0  0  0  0  0
   -1.6419   -0.2303    0.6569 C   0  0  0  0  0  0  0  0  0  0  0  0
   -3.0222   -0.5300    0.6010 C   0  0  0  0  0  0  0  0  0  0  0  0
   -3.3954   -0.6497   -0.7618 N   0  0  0  0  0  0  0  0  0  0  0  0
   -4.7182   -0.8283   -1.3150 C   0  0  0  0  0  0  0  0  0  0  0  0
   -5.1666   -2.2696   -1.4476 C   0  0  0  0  0  0  0  0  0  0  0  0
   -4.2711   -3.3063   -1.7494 C   0  0  0  0  0  0  0  0  0  0  0  0
   -4.7241   -4.6194   -1.8941 C   0  0  0  0  0  0  0  0  0  0  0  0
   -6.0783   -4.9125   -1.7555 C   0  0  0  0  0  0  0  0  0  0  0  0
   -6.9844   -3.8917   -1.4804 C   0  0  0  0  0  0  0  0  0  0  0  0
   -6.5334   -2.5781   -1.3365 C   0  0  0  0  0  0  0  0  0  0  0  0
   -2.3013   -0.4197   -1.6202 C   0  0  0  0  0  0  0  0  0  0  0  0
   -2.3457   -0.3804   -2.8449 O   0  0  0  0  0  0  0  0  0  0  0  0
   -1.0446   -0.2744   -0.7252 C   0  0  1  0  0  0  0  0  0  0  0  0
   -0.2878    0.9623   -0.9956 C   0  0  0  0  0  0  0  0  0  0  0  0
    0.9034    0.6693   -1.6567 C   0  0  0  0  0  0  0  0  0  0  0  0
    1.5633    1.8349   -1.9275 C   0  0  0  0  0  0  0  0  0  0  0  0
    2.6726    2.0019   -2.6450 O   0  0  0  0  0  0  0  0  0  0  0  0
    0.8003    2.8750   -1.3694 N   0  0  0  0  0  0  0  0  0  0  0  0
    1.1527    4.2548   -1.3734 C   0  0  0  0  0  0  0  0  0  0  0  0
    2.4794    4.6349   -1.1278 C   0  0  0  0  0  0  0  0  0  0  0  0
    2.8251    5.9868   -1.1263 C   0  0  0  0  0  0  0  0  0  0  0  0
    1.8548    6.9575   -1.3737 C   0  0  0  0  0  0  0  0  0  0  0  0
    0.5347    6.5809   -1.6223 C   0  0  0  0  0  0  0  0  0  0  0  0
    0.1789    5.2308   -1.6212 C   0  0  0  0  0  0  0  0  0  0  0  0
   -0.3620    2.3174   -0.8034 C   0  0  0  0  0  0  0  0  0  0  0  0
   -1.2945    3.0048   -0.1454 O   0  0  0  0  0  0  0  0  0  0  0  0
    1.0442   -0.7814   -1.9301 C   0  0  1  0  0  0  0  0  0  0  0  0
    2.4515   -1.3413   -1.6347 C   0  0  0  0  0  0  0  0  0  0  0  0
    2.7477   -1.4134   -0.2052 N   0  0  0  0  0  0  0  0  0  0  0  0
    3.9951   -1.0607    0.2654 C   0  0  0  0  0  0  0  0  0  0  0  0
    4.9288   -0.7245   -0.4498 O   0  0  0  0  0  0  0  0  0  0  0  0
    4.0534   -1.1322    1.6219 O   0  0  0  0  0  0  0  0  0  0  0  0
    5.2632   -0.7803    2.3390 C   0  0  0  0  0  0  0  0  0  0  0  0
    4.9082   -0.9887    3.8195 C   0  0  0  0  0  0  0  0  0  0  0  0
    5.6271    0.6932    2.1275 C   0  0  0  0  0  0  0  0  0  0  0  0
    6.4210   -1.7167    1.9777 C   0  0  0  0  0  0  0  0  0  0  0  0
    1.6755   -1.8544    0.6784 C   0  0  0  0  0  0  0  0  0  0  0  0
    0.3957   -2.2803   -0.0635 C   0  0  0  0  0  0  0  0  0  0  0  0
   -0.0855   -1.3781   -1.1107 N   0  0  0  0  0  0  0  0  0  0  0  0
   -5.8562   -0.1662    1.4267 H   0  0  0  0  0  0  0  0  0  0  0  0
   -5.3969   -1.8833    1.1713 H   0  0  0  0  0  0  0  0  0  0  0  0
   -5.6098   -1.2785    2.7683 H   0  0  0  0  0  0  0  0  0  0  0  0
   -1.3065    0.3366    3.9679 H   0  0  0  0  0  0  0  0  0  0  0  0
    0.0118    0.4130    1.8916 H   0  0  0  0  0  0  0  0  0  0  0  0
   -5.4298   -0.2392   -0.7305 H   0  0  0  0  0  0  0  0  0  0  0  0
   -4.7437   -0.3969   -2.3236 H   0  0  0  0  0  0  0  0  0  0  0  0
   -3.2114   -3.1029   -1.8844 H   0  0  0  0  0  0  0  0  0  0  0  0
   -4.0169   -5.4116   -2.1259 H   0  0  0  0  0  0  0  0  0  0  0  0
   -6.4278   -5.9347   -1.8732 H   0  0  0  0  0  0  0  0  0  0  0  0
   -8.0432   -4.1173   -1.3842 H   0  0  0  0  0  0  0  0  0  0  0  0
   -7.2588   -1.7925   -1.1306 H   0  0  0  0  0  0  0  0  0  0  0  0
    2.7281    2.9258   -2.9461 H   0  0  0  0  0  0  0  0  0  0  0  0
    3.2467    3.8983   -0.8929 H   0  0  0  0  0  0  0  0  0  0  0  0
    3.8514    6.2847   -0.9235 H   0  0  0  0  0  0  0  0  0  0  0  0
    2.1288    8.0101   -1.3755 H   0  0  0  0  0  0  0  0  0  0  0  0
   -0.2145    7.3410   -1.8315 H   0  0  0  0  0  0  0  0  0  0  0  0
   -0.8470    4.9605   -1.8657 H   0  0  0  0  0  0  0  0  0  0  0  0
   -0.9272    3.8633    0.1290 H   0  0  0  0  0  0  0  0  0  0  0  0
    0.8123   -0.9580   -2.9882 H   0  0  0  0  0  0  0  0  0  0  0  0
    2.5208   -2.3686   -2.0130 H   0  0  0  0  0  0  0  0  0  0  0  0
    3.2183   -0.7565   -2.1537 H   0  0  0  0  0  0  0  0  0  0  0  0
    4.5982   -2.0238    4.0033 H   0  0  0  0  0  0  0  0  0  0  0  0
    5.7513   -0.7571    4.4781 H   0  0  0  0  0  0  0  0  0  0  0  0
    4.0592   -0.3570    4.1082 H   0  0  0  0  0  0  0  0  0  0  0  0
    5.9571    0.8914    1.1037 H   0  0  0  0  0  0  0  0  0  0  0  0
    6.4354    1.0034    2.7979 H   0  0  0  0  0  0  0  0  0  0  0  0
    4.7587    1.3369    2.3070 H   0  0  0  0  0  0  0  0  0  0  0  0
    7.2772   -1.5670    2.6433 H   0  0  0  0  0  0  0  0  0  0  0  0
    6.7734   -1.5572    0.9544 H   0  0  0  0  0  0  0  0  0  0  0  0
    6.1087   -2.7653    2.0422 H   0  0  0  0  0  0  0  0  0  0  0  0
    2.0494   -2.6967    1.2728 H   0  0  0  0  0  0  0  0  0  0  0  0
    1.4783   -1.0374    1.3746 H   0  0  0  0  0  0  0  0  0  0  0  0
   -0.3920   -2.5420    0.6503 H   0  0  0  0  0  0  0  0  0  0  0  0
    0.6205   -3.2316   -0.5654 H   0  0  0  0  0  0  0  0  0  0  0  0
  1  2  1  0
  2  3  2  0
  3  4  1  0
  3  5  1  0
  5  6  2  0
  6  7  1  0
  7  8  2  0
  8  9  1  0
  9 10  1  0
 10 11  1  0
 11 12  2  0
 12 13  1  0
 13 14  2  0
 14 15  1  0
 15 16  2  0
  9 17  1  0
 17 18  2  0
 17 19  1  0
 19 20  1  0
 20 21  1  0
 21 22  2  0
 22 23  1  0
 22 24  1  0
 24 25  1  0
 25 26  2  0
 26 27  1  0
 27 28  2  0
 28 29  1  0
 29 30  2  0
 24 31  1  0
 31 32  1  0
 21 33  1  0
 33 34  1  0
 34 35  1  0
 35 36  1  0
 36 37  2  0
 36 38  1  0
 38 39  1  0
 39 40  1  0
 39 41  1  0
 39 42  1  0
 35 43  1  0
 43 44  1  0
 44 45  1  0
  8  2  1  0
 16 11  1  0
 19 45  1  1
 19  7  1  0
 31 20  2  0
 45 33  1  0
 30 25  1  0
  1 46  1  0
  1 47  1  0
  1 48  1  0
  5 49  1  0
  6 50  1  0
 10 51  1  0
 10 52  1  0
 12 53  1  0
 13 54  1  0
 14 55  1  0
 15 56  1  0
 16 57  1  0
 23 58  1  0
 26 59  1  0
 27 60  1  0
 28 61  1  0
 29 62  1  0
 30 63  1  0
 32 64  1  0
 33 65  1  6
 34 66  1  0
 34 67  1  0
 40 68  1  0
 40 69  1  0
 40 70  1  0
 41 71  1  0
 41 72  1  0
 41 73  1  0
 42 74  1  0
 42 75  1  0
 42 76  1  0
 43 77  1  0
 43 78  1  0
 44 79  1  0
 44 80  1  0
M  END
$$$$
