
     RDKit          3D

 53 56  0  0  0  0  0  0  0  0999 V2000
   -3.0829    5.9726    1.3417 C   0  0  0  0  0  0  0  0  0  0  0  0
   -2.7808    5.1141    0.2495 O   0  0  0  0  0  0  0  0  0  0  0  0
   -2.2431    3.8938    0.5515 C   0  0  0  0  0  0  0  0  0  0  0  0
   -2.0263    3.3859    1.8315 C   0  0  0  0  0  0  0  0  0  0  0  0
   -1.4678    2.1128    1.9996 C   0  0  0  0  0  0  0  0  0  0  0  0
   -1.1114    1.3278    0.8911 C   0  0  0  0  0  0  0  0  0  0  0  0
   -0.5371   -0.0640    1.1116 C   0  0  0  0  0  0  0  0  0  0  0  0
   -1.6399   -1.1232    1.0271 C   0  0  0  0  0  0  0  0  0  0  0  0
   -1.2401   -1.8178   -0.2431 C   0  0  0  0  0  0  0  0  0  0  0  0
   -2.0850   -2.8622   -0.8497 C   0  0  0  0  0  0  0  0  0  0  0  0
   -3.4560   -2.6031   -0.9935 C   0  0  0  0  0  0  0  0  0  0  0  0
   -4.2895   -3.5451   -1.5957 C   0  0  0  0  0  0  0  0  0  0  0  0
   -3.7598   -4.7444   -2.0608 C   0  0  0  0  0  0  0  0  0  0  0  0
   -2.3959   -5.0058   -1.9199 C   0  0  0  0  0  0  0  0  0  0  0  0
   -1.5362   -4.0737   -1.3057 C   0  0  0  0  0  0  0  0  0  0  0  0
   -0.0738   -4.4146   -1.1396 C   0  0  0  0  0  0  0  0  0  0  0  0
    0.7391   -3.8029   -2.0405 F   0  0  0  0  0  0  0  0  0  0  0  0
    0.1612   -5.7534   -1.3068 F   0  0  0  0  0  0  0  0  0  0  0  0
    0.4094   -4.1380    0.1033 F   0  0  0  0  0  0  0  0  0  0  0  0
   -0.0938   -1.4716   -0.7342 N   0  0  0  0  0  0  0  0  0  0  0  0
    0.4000   -0.4810    0.0646 N   0  0  0  0  0  0  0  0  0  0  0  0
    1.7208   -0.0550   -0.0682 C   0  0  0  0  0  0  0  0  0  0  0  0
    2.2841    0.9284    0.7628 C   0  0  0  0  0  0  0  0  0  0  0  0
    3.6133    1.3458    0.6148 C   0  0  0  0  0  0  0  0  0  0  0  0
    4.4095    0.7727   -0.3749 C   0  0  0  0  0  0  0  0  0  0  0  0
    6.0780    1.3104   -0.5887 S   0  0  0  0  0  6  0  0  0  0  0  0
    6.9312    0.1522    0.2778 N   0  0  0  0  0  0  0  0  0  0  0  0
    6.4649    1.1384   -1.9694 O   0  0  0  0  0  0  0  0  0  0  0  0
    6.2773    2.5530    0.1212 O   0  0  0  0  0  0  0  0  0  0  0  0
    3.8818   -0.1927   -1.2281 C   0  0  0  0  0  0  0  0  0  0  0  0
    2.5525   -0.5981   -1.0665 C   0  0  0  0  0  0  0  0  0  0  0  0
   -1.3417    1.8462   -0.3912 C   0  0  0  0  0  0  0  0  0  0  0  0
   -1.8994    3.1165   -0.5553 C   0  0  0  0  0  0  0  0  0  0  0  0
   -2.1838    6.2079    1.9210 H   0  0  0  0  0  0  0  0  0  0  0  0
   -3.4701    6.9107    0.9326 H   0  0  0  0  0  0  0  0  0  0  0  0
   -3.8621    5.5404    1.9782 H   0  0  0  0  0  0  0  0  0  0  0  0
   -2.2815    3.9526    2.7206 H   0  0  0  0  0  0  0  0  0  0  0  0
   -1.3121    1.7402    3.0102 H   0  0  0  0  0  0  0  0  0  0  0  0
   -0.0578   -0.1185    2.0975 H   0  0  0  0  0  0  0  0  0  0  0  0
   -2.6528   -0.7167    0.9923 H   0  0  0  0  0  0  0  0  0  0  0  0
   -1.5609   -1.8405    1.8513 H   0  0  0  0  0  0  0  0  0  0  0  0
   -3.8865   -1.6583   -0.6710 H   0  0  0  0  0  0  0  0  0  0  0  0
   -5.3505   -3.3370   -1.7148 H   0  0  0  0  0  0  0  0  0  0  0  0
   -4.4073   -5.4772   -2.5376 H   0  0  0  0  0  0  0  0  0  0  0  0
   -2.0020   -5.9526   -2.2899 H   0  0  0  0  0  0  0  0  0  0  0  0
    1.6939    1.4036    1.5405 H   0  0  0  0  0  0  0  0  0  0  0  0
    4.0091    2.1167    1.2717 H   0  0  0  0  0  0  0  0  0  0  0  0
    7.5392   -0.3712   -0.3522 H   0  0  0  0  0  0  0  0  0  0  0  0
    7.4199    0.5940    1.0562 H   0  0  0  0  0  0  0  0  0  0  0  0
    4.4847   -0.6349   -2.0171 H   0  0  0  0  0  0  0  0  0  0  0  0
    2.1565   -1.3567   -1.7401 H   0  0  0  0  0  0  0  0  0  0  0  0
   -1.0772    1.2688   -1.2762 H   0  0  0  0  0  0  0  0  0  0  0  0
   -2.0614    3.5047   -1.5582 H   0  0  0  0  0  0  0  0  0  0  0  0
  1  2  1  0
  2  3  1  0
  3  4  2  0
  4  5  1  0
  5  6  2  0
  6  7  1  0
  7  8  1  0
  8  9  1  0
  9 10  1  0
 10 11  2  0
 11 12  1  0
 12 13  2  0
 13 14  1  0
 14 15  2  0
 15 16  1  0
 16 17  1  0
 16 18  1  0
 16 19  1  0
  9 20  2  0
 20 21  1  0
 21 22  1  0
 22 23  2  0
 23 24  1  0
 24 25  2  0
 25 26  1  0
 26 27  1  0
 26 28  2  0
 26 29  2  0
 25 30  1  0
 30 31  2  0
  6 32  1  0
 32 33  2  0
 33  3  1  0
 21  7  1  0
 31 22  1  0
 15 10  1  0
  1 34  1  0
  1 35  1  0
  1 36  1  0
  4 37  1  0
  5 38  1  0
  7 39  1  0
  8 40  1  0
  8 41  1  0
 11 42  1  0
 12 43  1  0
 13 44  1  0
 14 45  1  0
 23 46  1  0
 24 47  1  0
 27 48  1  0
 27 49  1  0
 30 50  1  0
 31 51  1  0
 32 52  1  0
 33 53  1  0
M  END
$$$$
