
     RDKit          3D

 62 64  0  0  0  0  0  0  0  0999 V2000
    8.6856    4.1762    1.6323 C   0  0  0  0  0  0  0  0  0  0  0  0
    7.7334    3.5517    2.4851 O   0  0  0  0  0  0  0  0  0  0  0  0
    6.5051    3.2886    1.9427 C   0  0  0  0  0  0  0  0  0  0  0  0
    6.1379    3.4721    0.6108 C   0  0  0  0  0  0  0  0  0  0  0  0
    4.8427    3.1531    0.1854 C   0  0  0  0  0  0  0  0  0  0  0  0
    3.8964    2.6527    1.0872 C   0  0  0  0  0  0  0  0  0  0  0  0
    2.5050    2.2989    0.6218 C   0  0  0  0  0  0  0  0  0  0  0  0
    2.3021    0.7874    0.5478 C   0  0  0  0  0  0  0  0  0  0  0  0
    0.9304    0.4237    0.0092 C   0  0  0  0  0  0  0  0  0  0  0  0
    0.1246    1.2698   -0.3622 O   0  0  0  0  0  0  0  0  0  0  0  0
    0.7378   -0.9413    0.0073 N   0  0  0  0  0  0  0  0  0  0  0  0
   -0.3818   -1.6717   -0.4393 C   0  0  0  0  0  0  0  0  0  0  0  0
   -1.4715   -1.1053   -1.0969 C   0  0  0  0  0  0  0  0  0  0  0  0
   -2.5332   -1.9261   -1.4900 C   0  0  0  0  0  0  0  0  0  0  0  0
   -3.9313   -1.1964   -2.3097 S   0  0  0  0  0  6  0  0  0  0  0  0
   -3.4511   -0.6973   -3.5809 O   0  0  0  0  0  0  0  0  0  0  0  0
   -5.0288   -2.1410   -2.2427 O   0  0  0  0  0  0  0  0  0  0  0  0
   -4.3195    0.1198   -1.3075 N   0  0  0  0  0  0  0  0  0  0  0  0
   -4.7774   -0.1591    0.0757 C   0  0  0  0  0  0  0  0  0  0  0  0
   -6.2866   -0.3769    0.1438 C   0  0  0  0  0  0  0  0  0  0  0  0
   -7.0541    0.7629   -0.5191 C   0  0  0  0  0  0  0  0  0  0  0  0
   -6.5471    1.0065   -1.9385 C   0  0  0  0  0  0  0  0  0  0  0  0
   -5.0414    1.2461   -1.9440 C   0  0  0  0  0  0  0  0  0  0  0  0
   -2.5185   -3.2997   -1.2371 C   0  0  0  0  0  0  0  0  0  0  0  0
   -1.4201   -3.8681   -0.5896 C   0  0  0  0  0  0  0  0  0  0  0  0
   -0.3394   -3.0679   -0.1876 C   0  0  0  0  0  0  0  0  0  0  0  0
    0.7994   -3.5949    0.4925 N   0  0  0  0  0  0  0  0  0  0  0  0
    0.4483   -3.9915    1.8621 C   0  0  0  0  0  0  0  0  0  0  0  0
    1.4581   -4.6580   -0.2761 C   0  0  0  0  0  0  0  0  0  0  0  0
    4.2699    2.4716    2.4231 C   0  0  0  0  0  0  0  0  0  0  0  0
    5.5654    2.7836    2.8429 C   0  0  0  0  0  0  0  0  0  0  0  0
    8.9518    3.5233    0.7954 H   0  0  0  0  0  0  0  0  0  0  0  0
    9.5918    4.3539    2.2161 H   0  0  0  0  0  0  0  0  0  0  0  0
    8.3225    5.1474    1.2779 H   0  0  0  0  0  0  0  0  0  0  0  0
    6.8338    3.8560   -0.1244 H   0  0  0  0  0  0  0  0  0  0  0  0
    4.5783    3.3018   -0.8588 H   0  0  0  0  0  0  0  0  0  0  0  0
    2.3154    2.7551   -0.3578 H   0  0  0  0  0  0  0  0  0  0  0  0
    1.7754    2.7485    1.3076 H   0  0  0  0  0  0  0  0  0  0  0  0
    3.0572    0.3352   -0.1060 H   0  0  0  0  0  0  0  0  0  0  0  0
    2.4085    0.3415    1.5440 H   0  0  0  0  0  0  0  0  0  0  0  0
    1.4472   -1.5457    0.4186 H   0  0  0  0  0  0  0  0  0  0  0  0
   -1.5137   -0.0436   -1.3173 H   0  0  0  0  0  0  0  0  0  0  0  0
   -4.2557   -1.0245    0.4954 H   0  0  0  0  0  0  0  0  0  0  0  0
   -4.4955    0.6964    0.7033 H   0  0  0  0  0  0  0  0  0  0  0  0
   -6.5965   -0.4673    1.1912 H   0  0  0  0  0  0  0  0  0  0  0  0
   -6.5541   -1.3224   -0.3415 H   0  0  0  0  0  0  0  0  0  0  0  0
   -8.1251    0.5305   -0.5404 H   0  0  0  0  0  0  0  0  0  0  0  0
   -6.9336    1.6784    0.0750 H   0  0  0  0  0  0  0  0  0  0  0  0
   -7.0606    1.8748   -2.3667 H   0  0  0  0  0  0  0  0  0  0  0  0
   -6.7940    0.1433   -2.5702 H   0  0  0  0  0  0  0  0  0  0  0  0
   -4.6842    1.4151   -2.9670 H   0  0  0  0  0  0  0  0  0  0  0  0
   -4.8047    2.1628   -1.3875 H   0  0  0  0  0  0  0  0  0  0  0  0
   -3.3504   -3.9298   -1.5442 H   0  0  0  0  0  0  0  0  0  0  0  0
   -1.4213   -4.9363   -0.3967 H   0  0  0  0  0  0  0  0  0  0  0  0
    1.3562   -4.2735    2.4063 H   0  0  0  0  0  0  0  0  0  0  0  0
   -0.2348   -4.8487    1.8809 H   0  0  0  0  0  0  0  0  0  0  0  0
   -0.0092   -3.1592    2.4078 H   0  0  0  0  0  0  0  0  0  0  0  0
    2.4135   -4.9096    0.1980 H   0  0  0  0  0  0  0  0  0  0  0  0
    0.8572   -5.5719   -0.3220 H   0  0  0  0  0  0  0  0  0  0  0  0
    1.6819   -4.3219   -1.2937 H   0  0  0  0  0  0  0  0  0  0  0  0
    3.5574    2.0860    3.1483 H   0  0  0  0  0  0  0  0  0  0  0  0
    5.8451    2.6349    3.8837 H   0  0  0  0  0  0  0  0  0  0  0  0
  1  2  1  0
  2  3  1  0
  3  4  2  0
  4  5  1  0
  5  6  2  0
  6  7  1  0
  7  8  1  0
  8  9  1  0
  9 10  2  0
  9 11  1  0
 11 12  1  0
 12 13  2  0
 13 14  1  0
 14 15  1  0
 15 16  2  0
 15 17  2  0
 15 18  1  0
 18 19  1  0
 19 20  1  0
 20 21  1  0
 21 22  1  0
 22 23  1  0
 14 24  2  0
 24 25  1  0
 25 26  2  0
 26 27  1  0
 27 28  1  0
 27 29  1  0
  6 30  1  0
 30 31  2  0
 31  3  1  0
 26 12  1  0
 23 18  1  0
  1 32  1  0
  1 33  1  0
  1 34  1  0
  4 35  1  0
  5 36  1  0
  7 37  1  0
  7 38  1  0
  8 39  1  0
  8 40  1  0
 11 41  1  0
 13 42  1  0
 19 43  1  0
 19 44  1  0
 20 45  1  0
 20 46  1  0
 21 47  1  0
 21 48  1  0
 22 49  1  0
 22 50  1  0
 23 51  1  0
 23 52  1  0
 24 53  1  0
 25 54  1  0
 28 55  1  0
 28 56  1  0
 28 57  1  0
 29 58  1  0
 29 59  1  0
 29 60  1  0
 30 61  1  0
 31 62  1  0
M  END
$$$$
