
     RDKit          3D

 48 50  0  0  0  0  0  0  0  0999 V2000
    4.4757    1.1707   -2.2122 C   0  0  0  0  0  0  0  0  0  0  0  0
    4.1692   -0.1818   -1.6771 C   0  0  0  0  0  0  0  0  0  0  0  0
    4.6345   -1.4036   -2.1596 C   0  0  0  0  0  0  0  0  0  0  0  0
    5.4997   -1.7779   -3.2506 C   0  0  0  0  0  0  0  0  0  0  0  0
    5.8466   -2.8993   -3.5931 O   0  0  0  0  0  0  0  0  0  0  0  0
    5.9475   -0.7047   -3.9425 O   0  0  0  0  0  0  0  0  0  0  0  0
    4.1282   -2.4205   -1.3934 O   0  0  0  0  0  0  0  0  0  0  0  0
    3.3501   -1.8693   -0.4300 C   0  0  0  0  0  0  0  0  0  0  0  0
    2.6636   -2.5824    0.5518 C   0  0  0  0  0  0  0  0  0  0  0  0
    1.9093   -1.8327    1.4594 C   0  0  0  0  0  0  0  0  0  0  0  0
    1.8585   -0.4379    1.3563 C   0  0  0  0  0  0  0  0  0  0  0  0
    0.8963    0.4972    2.5217 S   0  0  0  0  0  6  0  0  0  0  0  0
    0.4465   -0.3858    3.5737 O   0  0  0  0  0  0  0  0  0  0  0  0
    1.6198    1.7169    2.8045 O   0  0  0  0  0  0  0  0  0  0  0  0
   -0.4247    0.9369    1.5969 N   0  0  0  0  0  0  0  0  0  0  0  0
   -1.5017   -0.0215    1.3084 C   0  0  0  0  0  0  0  0  0  0  0  0
   -2.6609    0.2453    2.2754 C   0  0  0  0  0  0  0  0  0  0  0  0
   -3.9412   -0.5122    1.9285 C   0  0  0  0  0  0  0  0  0  0  0  0
   -5.1141    0.3880    1.5463 C   0  0  0  0  0  0  0  0  0  0  0  0
   -4.8322    1.5315    0.5709 C   0  0  0  0  0  0  0  0  0  0  0  0
   -4.1106    1.1433   -0.7177 C   0  0  0  0  0  0  0  0  0  0  0  0
   -2.5843    1.2943   -0.6733 C   0  0  0  0  0  0  0  0  0  0  0  0
   -1.8250    0.0554   -0.1930 C   0  0  0  0  0  0  0  0  0  0  0  0
    2.5709    0.2575    0.3632 C   0  0  0  0  0  0  0  0  0  0  0  0
    3.3337   -0.4873   -0.5560 C   0  0  0  0  0  0  0  0  0  0  0  0
    4.1428    1.2575   -3.2514 H   0  0  0  0  0  0  0  0  0  0  0  0
    5.5519    1.3664   -2.1692 H   0  0  0  0  0  0  0  0  0  0  0  0
    3.9735    1.9549   -1.6375 H   0  0  0  0  0  0  0  0  0  0  0  0
    6.5105   -1.1164   -4.6303 H   0  0  0  0  0  0  0  0  0  0  0  0
    2.7209   -3.6634    0.6049 H   0  0  0  0  0  0  0  0  0  0  0  0
    1.3628   -2.3492    2.2469 H   0  0  0  0  0  0  0  0  0  0  0  0
   -0.6050    1.9380    1.5521 H   0  0  0  0  0  0  0  0  0  0  0  0
   -1.1346   -1.0400    1.4883 H   0  0  0  0  0  0  0  0  0  0  0  0
   -2.3390   -0.0715    3.2769 H   0  0  0  0  0  0  0  0  0  0  0  0
   -2.8433    1.3208    2.3773 H   0  0  0  0  0  0  0  0  0  0  0  0
   -3.7733   -1.2544    1.1416 H   0  0  0  0  0  0  0  0  0  0  0  0
   -4.2494   -1.0963    2.8058 H   0  0  0  0  0  0  0  0  0  0  0  0
   -5.9085   -0.2457    1.1315 H   0  0  0  0  0  0  0  0  0  0  0  0
   -5.5312    0.8263    2.4624 H   0  0  0  0  0  0  0  0  0  0  0  0
   -5.8082    1.9537    0.2952 H   0  0  0  0  0  0  0  0  0  0  0  0
   -4.3020    2.3470    1.0756 H   0  0  0  0  0  0  0  0  0  0  0  0
   -4.4052    0.1419   -1.0517 H   0  0  0  0  0  0  0  0  0  0  0  0
   -4.4663    1.8340   -1.4946 H   0  0  0  0  0  0  0  0  0  0  0  0
   -2.2633    1.4710   -1.7093 H   0  0  0  0  0  0  0  0  0  0  0  0
   -2.2897    2.1902   -0.1161 H   0  0  0  0  0  0  0  0  0  0  0  0
   -2.3602   -0.8486   -0.5068 H   0  0  0  0  0  0  0  0  0  0  0  0
   -0.8707    0.0215   -0.7380 H   0  0  0  0  0  0  0  0  0  0  0  0
    2.5322    1.3419    0.3085 H   0  0  0  0  0  0  0  0  0  0  0  0
  1  2  1  0
  2  3  2  0
  3  4  1  0
  4  5  2  0
  4  6  1  0
  3  7  1  0
  7  8  1  0
  8  9  2  0
  9 10  1  0
 10 11  2  0
 11 12  1  0
 12 13  2  0
 12 14  2  0
 12 15  1  0
 15 16  1  0
 16 17  1  0
 17 18  1  0
 18 19  1  0
 19 20  1  0
 20 21  1  0
 21 22  1  0
 22 23  1  0
 11 24  1  0
 24 25  2  0
 25  2  1  0
 25  8  1  0
 23 16  1  0
  1 26  1  0
  1 27  1  0
  1 28  1  0
  6 29  1  0
  9 30  1  0
 10 31  1  0
 15 32  1  0
 16 33  1  0
 17 34  1  0
 17 35  1  0
 18 36  1  0
 18 37  1  0
 19 38  1  0
 19 39  1  0
 20 40  1  0
 20 41  1  0
 21 42  1  0
 21 43  1  0
 22 44  1  0
 22 45  1  0
 23 46  1  0
 23 47  1  0
 24 48  1  0
M  END
$$$$
