
     RDKit          3D

 52 55  0  0  0  0  0  0  0  0999 V2000
    3.3062    2.1746    1.3423 O   0  0  0  0  0  0  0  0  0  0  0  0
    3.2663    1.4320    0.3638 C   0  0  0  0  0  0  0  0  0  0  0  0
    2.3522    1.5929   -0.6667 N   0  0  0  0  0  0  0  0  0  0  0  0
    1.2633    2.4640   -0.3753 N   0  0  0  0  0  0  0  0  0  0  0  0
    0.0496    1.7264   -0.2577 C   0  0  0  0  0  0  0  0  0  0  0  0
   -1.0743    2.3769    0.2023 C   0  0  0  0  0  0  0  0  0  0  0  0
   -2.2378    1.6476    0.2957 C   0  0  0  0  0  0  0  0  0  0  0  0
   -3.4140    2.2150    0.7340 N   0  0  0  0  0  0  0  0  0  0  0  0
   -3.4769    3.3946    1.5896 C   0  0  0  0  0  0  0  0  0  0  0  0
   -4.7949    3.2388    2.3501 C   0  0  0  0  0  0  0  0  0  0  0  0
   -5.6327    2.3504    1.4448 C   0  0  0  0  0  0  0  0  0  0  0  0
   -4.5996    1.3793    0.8844 C   0  0  0  0  0  0  0  0  0  0  0  0
   -2.2571    0.3570   -0.0806 N   0  0  0  0  0  0  0  0  0  0  0  0
   -1.1370   -0.2141   -0.5454 C   0  0  0  0  0  0  0  0  0  0  0  0
   -1.1737   -1.5359   -0.9011 N   0  0  0  0  0  0  0  0  0  0  0  0
   -0.1417   -2.1216   -1.7376 C   0  0  0  0  0  0  0  0  0  0  0  0
   -0.8609   -3.2563   -2.4710 C   0  0  0  0  0  0  0  0  0  0  0  0
   -2.0280   -3.5961   -1.5544 C   0  0  0  0  0  0  0  0  0  0  0  0
   -2.4433   -2.2264   -1.0233 C   0  0  0  0  0  0  0  0  0  0  0  0
    0.0246    0.4396   -0.6516 N   0  0  0  0  0  0  0  0  0  0  0  0
    4.1770    0.2582    0.2568 C   0  0  0  0  0  0  0  0  0  0  0  0
    4.5001   -0.3207   -0.9786 C   0  0  0  0  0  0  0  0  0  0  0  0
    5.3566   -1.4264   -1.0340 C   0  0  0  0  0  0  0  0  0  0  0  0
    5.8957   -1.9463    0.1518 C   0  0  0  0  0  0  0  0  0  0  0  0
    6.7904   -3.1093    0.0946 N   0  0  0  0  0  4  0  0  0  0  0  0
    7.1058   -3.6473    1.1663 O   0  0  0  0  0  0  0  0  0  0  0  0
    7.1715   -3.4855   -1.0231 O   0  0  0  0  0  1  0  0  0  0  0  0
    5.5887   -1.3664    1.3889 C   0  0  0  0  0  0  0  0  0  0  0  0
    4.7342   -0.2609    1.4354 C   0  0  0  0  0  0  0  0  0  0  0  0
    2.0469    0.7618   -1.1772 H   0  0  0  0  0  0  0  0  0  0  0  0
    1.4460    2.9548    0.5083 H   0  0  0  0  0  0  0  0  0  0  0  0
   -1.0353    3.4245    0.4622 H   0  0  0  0  0  0  0  0  0  0  0  0
   -2.6437    3.4577    2.2981 H   0  0  0  0  0  0  0  0  0  0  0  0
   -3.4914    4.2997    0.9720 H   0  0  0  0  0  0  0  0  0  0  0  0
   -4.6161    2.7312    3.3054 H   0  0  0  0  0  0  0  0  0  0  0  0
   -5.2703    4.2005    2.5617 H   0  0  0  0  0  0  0  0  0  0  0  0
   -6.4412    1.8419    1.9769 H   0  0  0  0  0  0  0  0  0  0  0  0
   -6.0701    2.9472    0.6366 H   0  0  0  0  0  0  0  0  0  0  0  0
   -4.9355    0.9547   -0.0671 H   0  0  0  0  0  0  0  0  0  0  0  0
   -4.4176    0.5696    1.6014 H   0  0  0  0  0  0  0  0  0  0  0  0
    0.6639   -2.5171   -1.1093 H   0  0  0  0  0  0  0  0  0  0  0  0
    0.2864   -1.4214   -2.4639 H   0  0  0  0  0  0  0  0  0  0  0  0
   -1.2393   -2.8955   -3.4352 H   0  0  0  0  0  0  0  0  0  0  0  0
   -0.2071   -4.1120   -2.6613 H   0  0  0  0  0  0  0  0  0  0  0  0
   -1.6818   -4.2327   -0.7302 H   0  0  0  0  0  0  0  0  0  0  0  0
   -2.8411   -4.1112   -2.0718 H   0  0  0  0  0  0  0  0  0  0  0  0
   -2.9653   -2.3197   -0.0655 H   0  0  0  0  0  0  0  0  0  0  0  0
   -3.0980   -1.7239   -1.7460 H   0  0  0  0  0  0  0  0  0  0  0  0
    4.1102    0.0861   -1.9088 H   0  0  0  0  0  0  0  0  0  0  0  0
    5.5925   -1.8657   -2.0009 H   0  0  0  0  0  0  0  0  0  0  0  0
    6.0021   -1.7574    2.3173 H   0  0  0  0  0  0  0  0  0  0  0  0
    4.4953    0.1925    2.3968 H   0  0  0  0  0  0  0  0  0  0  0  0
  1  2  2  0
  2  3  1  0
  3  4  1  0
  4  5  1  0
  5  6  2  0
  6  7  1  0
  7  8  1  0
  8  9  1  0
  9 10  1  0
 10 11  1  0
 11 12  1  0
  7 13  2  0
 13 14  1  0
 14 15  1  0
 15 16  1  0
 16 17  1  0
 17 18  1  0
 18 19  1  0
 14 20  2  0
  2 21  1  0
 21 22  2  0
 22 23  1  0
 23 24  2  0
 24 25  1  0
 25 26  2  0
 25 27  1  0
 24 28  1  0
 28 29  2  0
 20  5  1  0
 29 21  1  0
 12  8  1  0
 19 15  1  0
  3 30  1  0
  4 31  1  0
  6 32  1  0
  9 33  1  0
  9 34  1  0
 10 35  1  0
 10 36  1  0
 11 37  1  0
 11 38  1  0
 12 39  1  0
 12 40  1  0
 16 41  1  0
 16 42  1  0
 17 43  1  0
 17 44  1  0
 18 45  1  0
 18 46  1  0
 19 47  1  0
 19 48  1  0
 22 49  1  0
 23 50  1  0
 28 51  1  0
 29 52  1  0
M  CHG  2  25   1  27  -1
M  END
$$$$
