
     RDKit          3D

 49 52  0  0  0  0  0  0  0  0999 V2000
   -1.0361    2.5867    2.6845 C   0  0  0  0  0  0  0  0  0  0  0  0
   -0.0263    1.5824    3.2231 C   0  0  0  0  0  0  0  0  0  0  0  0
   -0.4274    0.1284    2.9680 C   0  0  0  0  0  0  0  0  0  0  0  0
   -0.3884   -0.2389    1.5098 C   0  0  0  0  0  0  0  0  0  0  0  0
    0.8133   -0.5125    0.9674 N   0  0  0  0  0  0  0  0  0  0  0  0
    0.8852   -0.7967   -0.3504 C   0  0  0  0  0  0  0  0  0  0  0  0
    2.1436   -1.0672   -0.8945 N   0  0  0  0  0  0  0  0  0  0  0  0
    2.5672   -0.2314   -2.0399 C   0  0  0  0  0  0  0  0  0  0  0  0
    3.9491    0.4234   -1.7998 C   0  0  0  0  0  0  0  0  0  0  0  0
    5.0266   -0.5436   -1.5032 N   0  0  0  0  0  0  0  0  0  0  0  0
    6.1779    0.1337   -0.9142 C   0  0  0  0  0  0  0  0  0  0  0  0
    4.5396   -1.6484   -0.6465 C   0  0  0  0  0  0  0  0  0  0  0  0
    3.2064   -1.3670    0.0830 C   0  0  0  0  0  0  0  0  0  0  0  0
   -0.2775   -0.8431   -1.1028 C   0  0  0  0  0  0  0  0  0  0  0  0
   -0.5400   -1.2218   -2.8050 S   0  0  0  0  0  0  0  0  0  0  0  0
   -2.2949   -1.0035   -2.6451 C   0  0  0  0  0  0  0  0  0  0  0  0
   -3.3030   -1.3135   -3.9438 S   0  0  0  0  0  0  0  0  0  0  0  0
   -2.6033   -0.6439   -1.3283 N   0  0  0  0  0  0  0  0  0  0  0  0
   -3.8969   -0.3285   -0.8175 C   0  0  0  0  0  0  0  0  0  0  0  0
   -4.3389   -0.8390    0.4136 C   0  0  0  0  0  0  0  0  0  0  0  0
   -5.6108   -0.5339    0.9082 C   0  0  0  0  0  0  0  0  0  0  0  0
   -6.4630    0.2901    0.1800 C   0  0  0  0  0  0  0  0  0  0  0  0
   -6.0426    0.8100   -1.0403 C   0  0  0  0  0  0  0  0  0  0  0  0
   -4.7702    0.5031   -1.5340 C   0  0  0  0  0  0  0  0  0  0  0  0
   -1.4717   -0.5762   -0.4595 C   0  0  0  0  0  0  0  0  0  0  0  0
   -1.5473   -0.2458    0.8386 N   0  0  0  0  0  0  0  0  0  0  0  0
   -1.0977    2.5482    1.5927 H   0  0  0  0  0  0  0  0  0  0  0  0
   -2.0337    2.3983    3.0939 H   0  0  0  0  0  0  0  0  0  0  0  0
   -0.7412    3.6027    2.9654 H   0  0  0  0  0  0  0  0  0  0  0  0
    0.9586    1.7896    2.7873 H   0  0  0  0  0  0  0  0  0  0  0  0
    0.0658    1.7324    4.3054 H   0  0  0  0  0  0  0  0  0  0  0  0
    0.2606   -0.5336    3.5075 H   0  0  0  0  0  0  0  0  0  0  0  0
   -1.4287   -0.0648    3.3710 H   0  0  0  0  0  0  0  0  0  0  0  0
    2.6209   -0.8672   -2.9318 H   0  0  0  0  0  0  0  0  0  0  0  0
    1.8535    0.5755   -2.2468 H   0  0  0  0  0  0  0  0  0  0  0  0
    3.8431    1.1416   -0.9746 H   0  0  0  0  0  0  0  0  0  0  0  0
    4.2258    0.9986   -2.6913 H   0  0  0  0  0  0  0  0  0  0  0  0
    5.9438    0.5732    0.0620 H   0  0  0  0  0  0  0  0  0  0  0  0
    6.5363    0.9304   -1.5753 H   0  0  0  0  0  0  0  0  0  0  0  0
    7.0108   -0.5664   -0.7868 H   0  0  0  0  0  0  0  0  0  0  0  0
    4.3930   -2.5164   -1.3025 H   0  0  0  0  0  0  0  0  0  0  0  0
    5.2974   -1.9521    0.0863 H   0  0  0  0  0  0  0  0  0  0  0  0
    2.9329   -2.2563    0.6644 H   0  0  0  0  0  0  0  0  0  0  0  0
    3.3518   -0.5333    0.7828 H   0  0  0  0  0  0  0  0  0  0  0  0
   -3.7102   -1.5073    0.9970 H   0  0  0  0  0  0  0  0  0  0  0  0
   -5.9339   -0.9461    1.8606 H   0  0  0  0  0  0  0  0  0  0  0  0
   -7.4518    0.5278    0.5630 H   0  0  0  0  0  0  0  0  0  0  0  0
   -6.7011    1.4609   -1.6100 H   0  0  0  0  0  0  0  0  0  0  0  0
   -4.4668    0.9613   -2.4715 H   0  0  0  0  0  0  0  0  0  0  0  0
  1  2  1  0
  2  3  1  0
  3  4  1  0
  4  5  2  0
  5  6  1  0
  6  7  1  0
  7  8  1  0
  8  9  1  0
  9 10  1  0
 10 11  1  0
 10 12  1  0
 12 13  1  0
  6 14  2  0
 14 15  1  0
 15 16  1  0
 16 17  2  0
 16 18  1  0
 18 19  1  0
 19 20  2  0
 20 21  1  0
 21 22  2  0
 22 23  1  0
 23 24  2  0
 18 25  1  0
 25 26  2  0
 26  4  1  0
 13  7  1  0
 25 14  1  0
 24 19  1  0
  1 27  1  0
  1 28  1  0
  1 29  1  0
  2 30  1  0
  2 31  1  0
  3 32  1  0
  3 33  1  0
  8 34  1  0
  8 35  1  0
  9 36  1  0
  9 37  1  0
 11 38  1  0
 11 39  1  0
 11 40  1  0
 12 41  1  0
 12 42  1  0
 13 43  1  0
 13 44  1  0
 20 45  1  0
 21 46  1  0
 22 47  1  0
 23 48  1  0
 24 49  1  0
M  END
$$$$
