
     RDKit          3D

 57 60  0  0  0  0  0  0  0  0999 V2000
    6.5043    0.9867   -2.4234 C   0  0  0  0  0  0  0  0  0  0  0  0
    5.2645    0.9051   -1.7327 O   0  0  0  0  0  0  0  0  0  0  0  0
    5.1122   -0.1114   -0.8246 C   0  0  0  0  0  0  0  0  0  0  0  0
    6.1350   -0.9762   -0.4241 C   0  0  0  0  0  0  0  0  0  0  0  0
    5.8801   -1.9923    0.4991 C   0  0  0  0  0  0  0  0  0  0  0  0
    4.5974   -2.1620    1.0181 C   0  0  0  0  0  0  0  0  0  0  0  0
    3.5530   -1.3133    0.6253 C   0  0  0  0  0  0  0  0  0  0  0  0
    2.2059   -1.5814    1.2094 C   0  0  0  0  0  0  0  0  0  0  0  0
    2.1031   -2.2044    2.2614 O   0  0  0  0  0  0  0  0  0  0  0  0
    1.1189   -1.1180    0.5072 N   0  0  0  0  0  0  0  0  0  0  0  0
   -0.2229   -1.1914    1.0420 C   0  0  0  0  0  0  0  0  0  0  0  0
   -0.4582   -0.0668    2.0787 C   0  0  0  0  0  0  0  0  0  0  0  0
   -1.9614    0.2221    2.3634 C   0  0  0  0  0  0  0  0  0  0  0  0
   -2.6391   -1.0091    2.9991 C   0  0  0  0  0  0  0  0  0  0  0  0
   -2.0605    1.3883    3.3652 C   0  0  0  0  0  0  0  0  0  0  0  0
   -2.6964    0.6297    1.0471 C   0  0  0  0  0  0  0  0  0  0  0  0
   -2.2953   -0.2449   -0.0952 C   0  0  0  0  0  0  0  0  0  0  0  0
   -1.1865   -1.0733   -0.0884 C   0  0  0  0  0  0  0  0  0  0  0  0
   -1.2683   -1.7855   -1.2891 C   0  0  0  0  0  0  0  0  0  0  0  0
   -2.3205   -1.4263   -2.0199 N   0  0  0  0  0  0  0  0  0  0  0  0
   -2.9329   -0.4292   -1.3160 N   0  0  0  0  0  0  0  0  0  0  0  0
   -4.0586    0.2309   -1.9001 C   0  0  0  0  0  0  0  0  0  0  0  0
   -4.6312   -0.3120   -3.0684 C   0  0  0  0  0  0  0  0  0  0  0  0
   -5.7329    0.2938   -3.6813 C   0  0  0  0  0  0  0  0  0  0  0  0
   -6.2715    1.4558   -3.1406 C   0  0  0  0  0  0  0  0  0  0  0  0
   -5.6984    2.0013   -1.9995 C   0  0  0  0  0  0  0  0  0  0  0  0
   -6.2051    3.1312   -1.4875 F   0  0  0  0  0  0  0  0  0  0  0  0
   -4.6007    1.4075   -1.3771 C   0  0  0  0  0  0  0  0  0  0  0  0
    3.8254   -0.2650   -0.2706 C   0  0  0  0  0  0  0  0  0  0  0  0
    2.8145    0.5903   -0.6537 O   0  0  0  0  0  0  0  0  0  0  0  0
    2.9136    1.8244    0.0638 C   0  0  0  0  0  0  0  0  0  0  0  0
    6.7161    0.0625   -2.9712 H   0  0  0  0  0  0  0  0  0  0  0  0
    6.4260    1.7964   -3.1552 H   0  0  0  0  0  0  0  0  0  0  0  0
    7.3196    1.2371   -1.7370 H   0  0  0  0  0  0  0  0  0  0  0  0
    7.1454   -0.8857   -0.8096 H   0  0  0  0  0  0  0  0  0  0  0  0
    6.6810   -2.6601    0.8087 H   0  0  0  0  0  0  0  0  0  0  0  0
    4.4101   -2.9678    1.7264 H   0  0  0  0  0  0  0  0  0  0  0  0
    1.2915   -0.5075   -0.2866 H   0  0  0  0  0  0  0  0  0  0  0  0
   -0.3543   -2.1662    1.5274 H   0  0  0  0  0  0  0  0  0  0  0  0
    0.0656   -0.3179    3.0105 H   0  0  0  0  0  0  0  0  0  0  0  0
    0.0098    0.8605    1.7157 H   0  0  0  0  0  0  0  0  0  0  0  0
   -2.1152   -1.3165    3.9112 H   0  0  0  0  0  0  0  0  0  0  0  0
   -2.6597   -1.8698    2.3236 H   0  0  0  0  0  0  0  0  0  0  0  0
   -3.6770   -0.7872    3.2726 H   0  0  0  0  0  0  0  0  0  0  0  0
   -1.5737    1.1372    4.3142 H   0  0  0  0  0  0  0  0  0  0  0  0
   -3.1060    1.6367    3.5802 H   0  0  0  0  0  0  0  0  0  0  0  0
   -1.5780    2.2907    2.9734 H   0  0  0  0  0  0  0  0  0  0  0  0
   -3.7785    0.5844    1.2136 H   0  0  0  0  0  0  0  0  0  0  0  0
   -2.4278    1.6630    0.7939 H   0  0  0  0  0  0  0  0  0  0  0  0
   -0.6112   -2.5630   -1.6585 H   0  0  0  0  0  0  0  0  0  0  0  0
   -4.2309   -1.2227   -3.5139 H   0  0  0  0  0  0  0  0  0  0  0  0
   -6.1632   -0.1444   -4.5783 H   0  0  0  0  0  0  0  0  0  0  0  0
   -7.1243    1.9423   -3.6024 H   0  0  0  0  0  0  0  0  0  0  0  0
   -4.1965    1.9226   -0.5187 H   0  0  0  0  0  0  0  0  0  0  0  0
    2.9561    1.6552    1.1457 H   0  0  0  0  0  0  0  0  0  0  0  0
    3.7767    2.4114   -0.2642 H   0  0  0  0  0  0  0  0  0  0  0  0
    2.0109    2.4046   -0.1502 H   0  0  0  0  0  0  0  0  0  0  0  0
  1  2  1  0
  2  3  1  0
  3  4  2  0
  4  5  1  0
  5  6  2  0
  6  7  1  0
  7  8  1  0
  8  9  2  0
  8 10  1  0
 10 11  1  0
 11 12  1  0
 12 13  1  0
 13 14  1  0
 13 15  1  0
 13 16  1  0
 16 17  1  0
 17 18  2  0
 18 19  1  0
 19 20  2  0
 20 21  1  0
 21 22  1  0
 22 23  2  0
 23 24  1  0
 24 25  2  0
 25 26  1  0
 26 27  1  0
 26 28  2  0
  7 29  2  0
 29 30  1  0
 30 31  1  0
 29  3  1  0
 18 11  1  0
 28 22  1  0
 21 17  1  0
  1 32  1  0
  1 33  1  0
  1 34  1  0
  4 35  1  0
  5 36  1  0
  6 37  1  0
 10 38  1  0
 11 39  1  0
 12 40  1  0
 12 41  1  0
 14 42  1  0
 14 43  1  0
 14 44  1  0
 15 45  1  0
 15 46  1  0
 15 47  1  0
 16 48  1  0
 16 49  1  0
 19 50  1  0
 23 51  1  0
 24 52  1  0
 25 53  1  0
 28 54  1  0
 31 55  1  0
 31 56  1  0
 31 57  1  0
M  END
$$$$
