
     RDKit          3D

 57 58  0  0  0  0  0  0  0  0999 V2000
    7.5606    2.1782   -1.4379 C   0  0  0  0  0  0  0  0  0  0  0  0
    7.2814    1.1618   -0.3648 C   0  0  0  0  0  0  0  0  0  0  0  0
    8.3430    0.4351    0.1958 C   0  0  0  0  0  0  0  0  0  0  0  0
    8.1053   -0.5108    1.1905 C   0  0  0  0  0  0  0  0  0  0  0  0
    6.8058   -0.7390    1.6317 C   0  0  0  0  0  0  0  0  0  0  0  0
    5.7403   -0.0202    1.0829 C   0  0  0  0  0  0  0  0  0  0  0  0
    5.9678    0.9361    0.0886 C   0  0  0  0  0  0  0  0  0  0  0  0
    4.9988    1.6897   -0.5196 O   0  0  0  0  0  0  0  0  0  0  0  0
    3.6648    1.6413   -0.0158 C   0  0  0  0  0  0  0  0  0  0  0  0
    2.8733    0.5428   -0.6999 C   0  0  0  0  0  0  0  0  0  0  0  0
    1.4897    0.4927   -0.1278 C   0  0  0  0  0  0  0  0  0  0  0  0
    0.5180    1.0573   -0.6108 O   0  0  0  0  0  0  0  0  0  0  0  0
    1.4730   -0.2350    1.0229 O   0  0  0  0  0  0  0  0  0  0  0  0
    0.1701   -0.3730    1.6013 C   0  0  0  0  0  0  0  0  0  0  0  0
   -0.7274   -1.3069    0.7858 C   0  0  0  0  0  0  0  0  0  0  0  0
   -0.2472   -2.1812    0.0549 O   0  0  0  0  0  0  0  0  0  0  0  0
   -2.2135   -1.1163    0.8649 C   0  0  0  0  0  0  0  0  0  0  0  0
   -2.9923   -1.3641   -0.2132 C   0  0  0  0  0  0  0  0  0  0  0  0
   -2.4527   -1.8181   -1.4142 N   0  0  0  0  0  0  0  0  0  0  0  0
   -4.3689   -1.1485   -0.1227 N   0  0  0  0  0  0  0  0  0  0  0  0
   -5.2268   -1.3218   -1.3101 C   0  0  0  0  0  0  0  0  0  0  0  0
   -5.1320   -0.1596   -2.3216 C   0  0  0  0  0  0  0  0  0  0  0  0
   -5.6543    1.1566   -1.7430 C   0  0  0  0  0  0  0  0  0  0  0  0
   -5.9122   -0.5136   -3.5895 C   0  0  0  0  0  0  0  0  0  0  0  0
   -4.9990   -0.6734    1.0286 C   0  0  0  0  0  0  0  0  0  0  0  0
   -6.2174   -0.4959    1.0943 O   0  0  0  0  0  0  0  0  0  0  0  0
   -4.1790   -0.4074    2.1104 N   0  0  0  0  0  0  0  0  0  0  0  0
   -4.8198    0.0700    3.3230 C   0  0  0  0  0  0  0  0  0  0  0  0
   -2.8291   -0.6594    2.1268 C   0  0  0  0  0  0  0  0  0  0  0  0
   -2.1318   -0.5418    3.1340 O   0  0  0  0  0  0  0  0  0  0  0  0
    7.2671    3.1770   -1.0988 H   0  0  0  0  0  0  0  0  0  0  0  0
    7.0113    1.9271   -2.3511 H   0  0  0  0  0  0  0  0  0  0  0  0
    8.6252    2.2125   -1.6922 H   0  0  0  0  0  0  0  0  0  0  0  0
    9.3630    0.6028   -0.1424 H   0  0  0  0  0  0  0  0  0  0  0  0
    8.9329   -1.0704    1.6181 H   0  0  0  0  0  0  0  0  0  0  0  0
    6.6181   -1.4809    2.4036 H   0  0  0  0  0  0  0  0  0  0  0  0
    4.7454   -0.2429    1.4523 H   0  0  0  0  0  0  0  0  0  0  0  0
    3.6356    1.5840    1.0791 H   0  0  0  0  0  0  0  0  0  0  0  0
    3.2082    2.6087   -0.2604 H   0  0  0  0  0  0  0  0  0  0  0  0
    3.3472   -0.4399   -0.6012 H   0  0  0  0  0  0  0  0  0  0  0  0
    2.8075    0.7258   -1.7789 H   0  0  0  0  0  0  0  0  0  0  0  0
    0.3135   -0.8176    2.5906 H   0  0  0  0  0  0  0  0  0  0  0  0
   -0.2847    0.6164    1.7224 H   0  0  0  0  0  0  0  0  0  0  0  0
   -1.4748   -2.1222   -1.3140 H   0  0  0  0  0  0  0  0  0  0  0  0
   -2.9857   -2.5837   -1.8139 H   0  0  0  0  0  0  0  0  0  0  0  0
   -4.9758   -2.2757   -1.7885 H   0  0  0  0  0  0  0  0  0  0  0  0
   -6.2727   -1.4397   -1.0000 H   0  0  0  0  0  0  0  0  0  0  0  0
   -4.0854   -0.0053   -2.6082 H   0  0  0  0  0  0  0  0  0  0  0  0
   -5.6179    1.9519   -2.4954 H   0  0  0  0  0  0  0  0  0  0  0  0
   -5.0469    1.4848   -0.8940 H   0  0  0  0  0  0  0  0  0  0  0  0
   -6.6918    1.0597   -1.4060 H   0  0  0  0  0  0  0  0  0  0  0  0
   -6.9754   -0.6638   -3.3737 H   0  0  0  0  0  0  0  0  0  0  0  0
   -5.8274    0.2846   -4.3344 H   0  0  0  0  0  0  0  0  0  0  0  0
   -5.5238   -1.4325   -4.0412 H   0  0  0  0  0  0  0  0  0  0  0  0
   -5.4918    0.9004    3.0814 H   0  0  0  0  0  0  0  0  0  0  0  0
   -4.0955    0.4100    4.0680 H   0  0  0  0  0  0  0  0  0  0  0  0
   -5.4140   -0.7464    3.7472 H   0  0  0  0  0  0  0  0  0  0  0  0
  1  2  1  0
  2  3  2  0
  3  4  1  0
  4  5  2  0
  5  6  1  0
  6  7  2  0
  7  8  1  0
  8  9  1  0
  9 10  1  0
 10 11  1  0
 11 12  2  0
 11 13  1  0
 13 14  1  0
 14 15  1  0
 15 16  2  0
 15 17  1  0
 17 18  2  0
 18 19  1  0
 18 20  1  0
 20 21  1  0
 21 22  1  0
 22 23  1  0
 22 24  1  0
 20 25  1  0
 25 26  2  0
 25 27  1  0
 27 28  1  0
 27 29  1  0
 29 30  2  0
  7  2  1  0
 29 17  1  0
  1 31  1  0
  1 32  1  0
  1 33  1  0
  3 34  1  0
  4 35  1  0
  5 36  1  0
  6 37  1  0
  9 38  1  0
  9 39  1  0
 10 40  1  0
 10 41  1  0
 14 42  1  0
 14 43  1  0
 19 44  1  0
 19 45  1  0
 21 46  1  0
 21 47  1  0
 22 48  1  0
 23 49  1  0
 23 50  1  0
 23 51  1  0
 24 52  1  0
 24 53  1  0
 24 54  1  0
 28 55  1  0
 28 56  1  0
 28 57  1  0
M  END
$$$$
