
     RDKit          3D

 50 52  0  0  0  0  0  0  0  0999 V2000
    9.6922    1.7031   -0.6473 C   0  0  0  0  0  0  0  0  0  0  0  0
    9.1254    0.6571   -1.5944 C   0  0  0  0  0  0  0  0  0  0  0  0
    7.9909   -0.0860   -0.9715 C   0  0  0  0  0  0  0  0  0  0  0  0
    8.1237   -1.1308   -0.1783 N   0  0  0  0  0  0  0  0  0  0  0  0
    6.9035   -1.6104    0.2571 N   0  0  0  0  0  0  0  0  0  0  0  0
    5.9090   -0.8854   -0.1950 C   0  0  0  0  0  0  0  0  0  0  0  0
    4.5386   -1.2743    0.0999 N   0  0  0  0  0  0  0  0  0  0  0  0
    3.8751   -0.2872    1.3024 S   0  0  0  0  0  6  0  0  0  0  0  0
    4.3284    1.0791    1.1644 O   0  0  0  0  0  0  0  0  0  0  0  0
    3.9966   -1.0133    2.5476 O   0  0  0  0  0  0  0  0  0  0  0  0
    2.1642   -0.3158    0.8202 C   0  0  0  0  0  0  0  0  0  0  0  0
    1.7383    0.4912   -0.2332 C   0  0  0  0  0  0  0  0  0  0  0  0
    0.3919    0.4728   -0.6077 C   0  0  0  0  0  0  0  0  0  0  0  0
   -0.5411   -0.3419    0.0577 C   0  0  0  0  0  0  0  0  0  0  0  0
   -1.8676   -0.2718   -0.4198 N   0  0  0  0  0  0  0  0  0  0  0  0
   -3.0301   -0.9432   -0.1168 C   0  0  0  0  0  0  0  0  0  0  0  0
   -3.2998   -2.2020    0.9465 S   0  0  0  0  0  0  0  0  0  0  0  0
   -4.1456   -0.5071   -0.8199 N   0  0  0  0  0  0  0  0  0  0  0  0
   -4.2511    0.5166   -1.7382 C   0  0  0  0  0  0  0  0  0  0  0  0
   -3.2931    1.1366   -2.1939 O   0  0  0  0  0  0  0  0  0  0  0  0
   -5.6157    0.7821   -2.2623 C   0  0  0  0  0  0  0  0  0  0  0  0
   -6.7837    0.7612   -1.6002 C   0  0  0  0  0  0  0  0  0  0  0  0
   -6.9838    0.4899   -0.1754 C   0  0  0  0  0  0  0  0  0  0  0  0
   -6.3790    1.2825    0.8071 C   0  0  0  0  0  0  0  0  0  0  0  0
   -6.5654    0.9896    2.1591 C   0  0  0  0  0  0  0  0  0  0  0  0
   -7.3643   -0.0882    2.5360 C   0  0  0  0  0  0  0  0  0  0  0  0
   -7.9842   -0.8702    1.5630 C   0  0  0  0  0  0  0  0  0  0  0  0
   -7.7989   -0.5800    0.2102 C   0  0  0  0  0  0  0  0  0  0  0  0
   -0.0954   -1.1247    1.1236 C   0  0  0  0  0  0  0  0  0  0  0  0
    1.2522   -1.1144    1.5091 C   0  0  0  0  0  0  0  0  0  0  0  0
    6.3569    0.3693   -1.2624 S   0  0  0  0  0  0  0  0  0  0  0  0
    8.9357    2.4475   -0.3768 H   0  0  0  0  0  0  0  0  0  0  0  0
   10.5304    2.2264   -1.1182 H   0  0  0  0  0  0  0  0  0  0  0  0
   10.0559    1.2434    0.2781 H   0  0  0  0  0  0  0  0  0  0  0  0
    9.9156   -0.0561   -1.8582 H   0  0  0  0  0  0  0  0  0  0  0  0
    8.8121    1.1378   -2.5285 H   0  0  0  0  0  0  0  0  0  0  0  0
    4.5866   -2.2177    0.4905 H   0  0  0  0  0  0  0  0  0  0  0  0
    2.4382    1.1334   -0.7629 H   0  0  0  0  0  0  0  0  0  0  0  0
    0.0781    1.1078   -1.4349 H   0  0  0  0  0  0  0  0  0  0  0  0
   -1.9973    0.4071   -1.1725 H   0  0  0  0  0  0  0  0  0  0  0  0
   -4.9912   -0.9982   -0.5615 H   0  0  0  0  0  0  0  0  0  0  0  0
   -5.6124    1.0730   -3.3101 H   0  0  0  0  0  0  0  0  0  0  0  0
   -7.6977    0.9852   -2.1484 H   0  0  0  0  0  0  0  0  0  0  0  0
   -5.7561    2.1310    0.5322 H   0  0  0  0  0  0  0  0  0  0  0  0
   -6.0862    1.6019    2.9191 H   0  0  0  0  0  0  0  0  0  0  0  0
   -7.5057   -0.3174    3.5894 H   0  0  0  0  0  0  0  0  0  0  0  0
   -8.6115   -1.7074    1.8594 H   0  0  0  0  0  0  0  0  0  0  0  0
   -8.2892   -1.2019   -0.5355 H   0  0  0  0  0  0  0  0  0  0  0  0
   -0.7615   -1.7512    1.7019 H   0  0  0  0  0  0  0  0  0  0  0  0
    1.5681   -1.7293    2.3494 H   0  0  0  0  0  0  0  0  0  0  0  0
  1  2  1  0
  2  3  1  0
  3  4  2  0
  4  5  1  0
  5  6  2  0
  6  7  1  0
  7  8  1  0
  8  9  2  0
  8 10  2  0
  8 11  1  0
 11 12  2  0
 12 13  1  0
 13 14  2  0
 14 15  1  0
 15 16  1  0
 16 17  2  0
 16 18  1  0
 18 19  1  0
 19 20  2  0
 19 21  1  0
 21 22  2  3
 22 23  1  0
 23 24  2  0
 24 25  1  0
 25 26  2  0
 26 27  1  0
 27 28  2  0
 14 29  1  0
 29 30  2  0
  6 31  1  0
 31  3  1  0
 30 11  1  0
 28 23  1  0
  1 32  1  0
  1 33  1  0
  1 34  1  0
  2 35  1  0
  2 36  1  0
  7 37  1  0
 12 38  1  0
 13 39  1  0
 15 40  1  0
 18 41  1  0
 21 42  1  0
 22 43  1  0
 24 44  1  0
 25 45  1  0
 26 46  1  0
 27 47  1  0
 28 48  1  0
 29 49  1  0
 30 50  1  0
M  END
$$$$
