
     RDKit          3D

 24 25  0  0  0  0  0  0  0  0999 V2000
    2.2155    1.2892   -2.8825 C   0  0  0  0  0  0  0  0  0  0  0  0
    1.9263    1.1561   -1.4764 N   0  0  0  0  0  0  0  0  0  0  0  0
    2.7543    1.7057   -0.5610 N   0  0  0  0  0  0  0  0  0  0  0  0
    2.1349    1.3569    0.5802 C   0  0  0  0  0  0  0  0  0  0  0  0
    2.6684    1.7353    1.8817 N   0  0  0  0  0  4  0  0  0  0  0  0
    3.7199    2.3946    1.9116 O   0  0  0  0  0  0  0  0  0  0  0  0
    2.0298    1.3695    2.8808 O   0  0  0  0  0  1  0  0  0  0  0  0
    0.9794    0.6285    0.4347 N   0  0  0  0  0  0  0  0  0  0  0  0
    0.8758    0.5191   -0.8702 C   0  0  0  0  0  0  0  0  0  0  0  0
   -0.3686   -0.2905   -1.7631 S   0  0  0  0  0  0  0  0  0  0  0  0
   -1.3743   -0.8742   -0.4125 C   0  0  0  0  0  0  0  0  0  0  0  0
   -2.4247   -0.0881    0.0760 C   0  0  0  0  0  0  0  0  0  0  0  0
   -3.2258   -0.5539    1.1224 C   0  0  0  0  0  0  0  0  0  0  0  0
   -2.9807   -1.8089    1.6761 C   0  0  0  0  0  0  0  0  0  0  0  0
   -3.9692   -2.3841    2.9611 Cl  0  0  0  0  0  0  0  0  0  0  0  0
   -1.9430   -2.6030    1.1920 C   0  0  0  0  0  0  0  0  0  0  0  0
   -1.1421   -2.1369    0.1456 C   0  0  0  0  0  0  0  0  0  0  0  0
    1.3869    1.8167   -3.3611 H   0  0  0  0  0  0  0  0  0  0  0  0
    2.3421    0.2913   -3.3090 H   0  0  0  0  0  0  0  0  0  0  0  0
    3.1377    1.8622   -3.0117 H   0  0  0  0  0  0  0  0  0  0  0  0
   -2.6240    0.8937   -0.3464 H   0  0  0  0  0  0  0  0  0  0  0  0
   -4.0341    0.0663    1.5003 H   0  0  0  0  0  0  0  0  0  0  0  0
   -1.7506   -3.5813    1.6242 H   0  0  0  0  0  0  0  0  0  0  0  0
   -0.3339   -2.7644   -0.2222 H   0  0  0  0  0  0  0  0  0  0  0  0
  1  2  1  0
  2  3  1  0
  3  4  2  0
  4  5  1  0
  5  6  2  0
  5  7  1  0
  4  8  1  0
  8  9  2  0
  9 10  1  0
 10 11  1  0
 11 12  2  0
 12 13  1  0
 13 14  2  0
 14 15  1  0
 14 16  1  0
 16 17  2  0
  9  2  1  0
 17 11  1  0
  1 18  1  0
  1 19  1  0
  1 20  1  0
 12 21  1  0
 13 22  1  0
 16 23  1  0
 17 24  1  0
M  CHG  2   5   1   7  -1
M  END
$$$$
