
     RDKit          3D

 48 48  0  0  0  0  0  0  0  0999 V2000
    3.2685   -0.2255    1.5949 C   0  0  0  0  0  0  0  0  0  0  0  0
    3.3827   -0.5821    0.1110 C   0  0  0  0  0  0  0  0  0  0  0  0
    2.4663   -1.7792   -0.2242 C   0  0  0  0  0  0  0  0  0  0  0  0
    1.0553   -1.4803   -0.0642 N   0  0  0  0  0  0  0  0  0  0  0  0
    0.3578   -0.7740   -1.0238 C   0  0  0  0  0  0  0  0  0  0  0  0
    0.8562   -0.3917   -2.0763 O   0  0  0  0  0  0  0  0  0  0  0  0
   -1.0585   -0.4467   -0.7026 C   0  0  0  0  0  0  0  0  0  0  0  0
   -1.8406   -1.2548    0.1246 C   0  0  0  0  0  0  0  0  0  0  0  0
   -3.1681   -0.9024    0.3959 C   0  0  0  0  0  0  0  0  0  0  0  0
   -3.7530    0.2568   -0.1528 C   0  0  0  0  0  0  0  0  0  0  0  0
   -5.2168    0.6092    0.1688 C   0  0  0  0  0  0  0  0  0  0  0  0
   -5.7053    1.9166   -0.4950 C   0  0  0  0  0  0  0  0  0  0  0  0
   -6.1424   -0.5254   -0.3204 C   0  0  0  0  0  0  0  0  0  0  0  0
   -5.3868    0.7820    1.6938 C   0  0  0  0  0  0  0  0  0  0  0  0
   -2.9520    1.0447   -0.9961 C   0  0  0  0  0  0  0  0  0  0  0  0
   -1.6242    0.6960   -1.2718 C   0  0  0  0  0  0  0  0  0  0  0  0
    4.8272   -0.9418   -0.3228 C   0  0  0  0  0  0  0  0  0  0  0  0
    5.9003    0.0532   -0.2188 N   0  0  0  0  0  0  0  0  0  0  0  0
    6.5352    0.1300    1.0880 C   0  0  0  0  0  0  0  0  0  0  0  0
    5.5418    1.3661   -0.7380 C   0  0  0  0  0  0  0  0  0  0  0  0
    3.7238   -0.9964    2.2253 H   0  0  0  0  0  0  0  0  0  0  0  0
    2.2235   -0.1140    1.9019 H   0  0  0  0  0  0  0  0  0  0  0  0
    3.7521    0.7309    1.8088 H   0  0  0  0  0  0  0  0  0  0  0  0
    3.0403    0.2820   -0.4716 H   0  0  0  0  0  0  0  0  0  0  0  0
    2.6233   -2.0977   -1.2615 H   0  0  0  0  0  0  0  0  0  0  0  0
    2.6898   -2.6331    0.4251 H   0  0  0  0  0  0  0  0  0  0  0  0
    0.6513   -1.5878    0.8558 H   0  0  0  0  0  0  0  0  0  0  0  0
   -1.4489   -2.1766    0.5441 H   0  0  0  0  0  0  0  0  0  0  0  0
   -3.7488   -1.5592    1.0409 H   0  0  0  0  0  0  0  0  0  0  0  0
   -6.7488    2.1275   -0.2316 H   0  0  0  0  0  0  0  0  0  0  0  0
   -5.6559    1.8573   -1.5885 H   0  0  0  0  0  0  0  0  0  0  0  0
   -5.1108    2.7794   -0.1723 H   0  0  0  0  0  0  0  0  0  0  0  0
   -7.1955   -0.2845   -0.1339 H   0  0  0  0  0  0  0  0  0  0  0  0
   -6.0244   -0.6941   -1.3974 H   0  0  0  0  0  0  0  0  0  0  0  0
   -5.9368   -1.4751    0.1855 H   0  0  0  0  0  0  0  0  0  0  0  0
   -4.7180    1.5606    2.0794 H   0  0  0  0  0  0  0  0  0  0  0  0
   -6.4141    1.0693    1.9469 H   0  0  0  0  0  0  0  0  0  0  0  0
   -5.1686   -0.1405    2.2428 H   0  0  0  0  0  0  0  0  0  0  0  0
   -3.3355    1.9467   -1.4655 H   0  0  0  0  0  0  0  0  0  0  0  0
   -1.0316    1.3247   -1.9342 H   0  0  0  0  0  0  0  0  0  0  0  0
    4.7857   -1.2232   -1.3844 H   0  0  0  0  0  0  0  0  0  0  0  0
    5.1394   -1.8623    0.1895 H   0  0  0  0  0  0  0  0  0  0  0  0
    7.4551    0.7227    1.0253 H   0  0  0  0  0  0  0  0  0  0  0  0
    5.9017    0.5867    1.8516 H   0  0  0  0  0  0  0  0  0  0  0  0
    6.8346   -0.8642    1.4374 H   0  0  0  0  0  0  0  0  0  0  0  0
    5.1257    1.2845   -1.7483 H   0  0  0  0  0  0  0  0  0  0  0  0
    6.4317    2.0005   -0.8184 H   0  0  0  0  0  0  0  0  0  0  0  0
    4.8159    1.8849   -0.1034 H   0  0  0  0  0  0  0  0  0  0  0  0
  1  2  1  0
  2  3  1  0
  3  4  1  0
  4  5  1  0
  5  6  2  0
  5  7  1  0
  7  8  2  0
  8  9  1  0
  9 10  2  0
 10 11  1  0
 11 12  1  0
 11 13  1  0
 11 14  1  0
 10 15  1  0
 15 16  2  0
  2 17  1  0
 17 18  1  0
 18 19  1  0
 18 20  1  0
 16  7  1  0
  1 21  1  0
  1 22  1  0
  1 23  1  0
  2 24  1  0
  3 25  1  0
  3 26  1  0
  4 27  1  0
  8 28  1  0
  9 29  1  0
 12 30  1  0
 12 31  1  0
 12 32  1  0
 13 33  1  0
 13 34  1  0
 13 35  1  0
 14 36  1  0
 14 37  1  0
 14 38  1  0
 15 39  1  0
 16 40  1  0
 17 41  1  0
 17 42  1  0
 19 43  1  0
 19 44  1  0
 19 45  1  0
 20 46  1  0
 20 47  1  0
 20 48  1  0
M  END
$$$$
