
     RDKit          3D

 33 33  0  0  0  0  0  0  0  0999 V2000
    4.1485   -2.0643   -0.4552 C   0  0  0  0  0  0  0  0  0  0  0  0
    3.7896   -0.7931   -0.2354 C   0  0  0  0  0  0  0  0  0  0  0  0
    3.7185   -0.1599    1.1195 C   0  0  0  0  0  0  0  0  0  0  0  0
    2.3511    0.2928    1.3070 N   0  0  0  0  0  0  0  0  0  0  0  0
    1.9143    1.0315    2.3811 C   0  0  0  0  0  0  0  0  0  0  0  0
    2.8393    1.6394    3.6205 S   0  0  0  0  0  0  0  0  0  0  0  0
    0.5587    1.2859    2.3582 N   0  0  0  0  0  0  0  0  0  0  0  0
   -0.1220    1.3060    1.1239 N   0  0  0  0  0  0  0  0  0  0  0  0
   -1.3078    2.0195    1.0649 C   0  0  0  0  0  0  0  0  0  0  0  0
   -1.8921    2.4431    2.0589 O   0  0  0  0  0  0  0  0  0  0  0  0
   -1.8074    2.2752   -0.3543 C   0  0  0  0  0  0  0  0  0  0  0  0
   -1.3305    1.3383   -1.3115 O   0  0  0  0  0  0  0  0  0  0  0  0
   -2.0599    0.1991   -1.5209 C   0  0  0  0  0  0  0  0  0  0  0  0
   -3.0351   -0.2945   -0.6463 C   0  0  0  0  0  0  0  0  0  0  0  0
   -3.7242   -1.4759   -0.9481 C   0  0  0  0  0  0  0  0  0  0  0  0
   -3.4368   -2.1716   -2.1211 C   0  0  0  0  0  0  0  0  0  0  0  0
   -4.2928   -3.6172   -2.4855 Cl  0  0  0  0  0  0  0  0  0  0  0  0
   -2.4559   -1.7082   -2.9893 C   0  0  0  0  0  0  0  0  0  0  0  0
   -1.7675   -0.5300   -2.6858 C   0  0  0  0  0  0  0  0  0  0  0  0
   -0.5454    0.0060   -3.7890 Cl  0  0  0  0  0  0  0  0  0  0  0  0
    4.1656   -2.4821   -1.4553 H   0  0  0  0  0  0  0  0  0  0  0  0
    4.4217   -2.7244    0.3622 H   0  0  0  0  0  0  0  0  0  0  0  0
    3.5338   -0.1652   -1.0871 H   0  0  0  0  0  0  0  0  0  0  0  0
    3.9594   -0.8708    1.9163 H   0  0  0  0  0  0  0  0  0  0  0  0
    4.4050    0.6914    1.1864 H   0  0  0  0  0  0  0  0  0  0  0  0
    1.6426   -0.3472    0.9728 H   0  0  0  0  0  0  0  0  0  0  0  0
    0.1900    1.9032    3.0728 H   0  0  0  0  0  0  0  0  0  0  0  0
    0.4569    1.2593    0.2856 H   0  0  0  0  0  0  0  0  0  0  0  0
   -2.9022    2.3555   -0.3669 H   0  0  0  0  0  0  0  0  0  0  0  0
   -1.4129    3.2545   -0.6476 H   0  0  0  0  0  0  0  0  0  0  0  0
   -3.2862    0.2031    0.2862 H   0  0  0  0  0  0  0  0  0  0  0  0
   -4.4884   -1.8423   -0.2651 H   0  0  0  0  0  0  0  0  0  0  0  0
   -2.2279   -2.2570   -3.8982 H   0  0  0  0  0  0  0  0  0  0  0  0
  1  2  2  0
  2  3  1  0
  3  4  1  0
  4  5  1  0
  5  6  2  0
  5  7  1  0
  7  8  1  0
  8  9  1  0
  9 10  2  0
  9 11  1  0
 11 12  1  0
 12 13  1  0
 13 14  2  0
 14 15  1  0
 15 16  2  0
 16 17  1  0
 16 18  1  0
 18 19  2  0
 19 20  1  0
 19 13  1  0
  1 21  1  0
  1 22  1  0
  2 23  1  0
  3 24  1  0
  3 25  1  0
  4 26  1  0
  7 27  1  0
  8 28  1  0
 11 29  1  0
 11 30  1  0
 14 31  1  0
 15 32  1  0
 18 33  1  0
M  END
$$$$
