
     RDKit          3D

 46 50  0  0  0  0  0  0  0  0999 V2000
   -6.9102   -0.0952   -0.9159 C   0  0  0  0  0  0  0  0  0  0  0  0
   -5.5546    0.1919   -0.3256 C   0  0  0  0  0  0  0  0  0  0  0  0
   -5.4792    0.6254    1.0139 C   0  0  0  0  0  0  0  0  0  0  0  0
   -4.2286    0.8990    1.5854 C   0  0  0  0  0  0  0  0  0  0  0  0
   -3.9253    1.3326    2.8613 N   0  0  0  0  0  0  0  0  0  0  0  0
   -2.6250    1.4214    2.8457 C   0  0  0  0  0  0  0  0  0  0  0  0
   -1.4770    1.9132    4.0236 S   0  0  0  0  0  0  0  0  0  0  0  0
   -0.1641    1.5819    2.8897 C   0  0  0  0  0  0  0  0  0  0  0  0
    1.1110    1.7423    3.2727 C   0  0  0  0  0  0  0  0  0  0  0  0
    2.2421    1.4280    2.4764 C   0  0  0  0  0  0  0  0  0  0  0  0
    3.4875    2.0424    2.4683 C   0  0  0  0  0  0  0  0  0  0  0  0
    4.3055    1.3548    1.5397 C   0  0  0  0  0  0  0  0  0  0  0  0
    3.5411    0.3270    1.0358 C   0  0  0  0  0  0  0  0  0  0  0  0
    3.7463   -0.7357    0.0554 C   0  0  0  0  0  0  0  0  0  0  0  0
    2.6876   -1.0365   -0.8255 C   0  0  0  0  0  0  0  0  0  0  0  0
    2.8196   -2.0020   -1.8266 C   0  0  0  0  0  0  0  0  0  0  0  0
    4.0174   -2.6907   -1.9714 C   0  0  0  0  0  0  0  0  0  0  0  0
    5.0780   -2.4182   -1.1087 C   0  0  0  0  0  0  0  0  0  0  0  0
    4.9509   -1.4476   -0.0951 C   0  0  0  0  0  0  0  0  0  0  0  0
    6.0967   -1.2662    0.8281 C   0  0  0  0  0  0  0  0  0  0  0  0
    6.0630   -1.0629    2.0254 O   0  0  0  0  0  0  0  0  0  0  0  0
    7.2715   -1.3449    0.1727 O   0  0  0  0  0  0  0  0  0  0  0  0
    2.3016    0.3710    1.6031 O   0  0  0  0  0  0  0  0  0  0  0  0
   -0.6901    1.1508    1.5518 C   0  0  0  0  0  0  0  0  0  0  0  0
   -0.1308    0.9304    0.4959 O   0  0  0  0  0  0  0  0  0  0  0  0
   -2.0628    1.0766    1.6637 N   0  0  0  0  0  0  0  0  0  0  0  0
   -3.0793    0.7335    0.8081 C   0  0  0  0  0  0  0  0  0  0  0  0
   -3.1145    0.3065   -0.5227 C   0  0  0  0  0  0  0  0  0  0  0  0
   -4.3754    0.0345   -1.0882 C   0  0  0  0  0  0  0  0  0  0  0  0
   -4.4352   -0.4269   -2.5221 C   0  0  0  0  0  0  0  0  0  0  0  0
   -7.7105    0.0778   -0.1884 H   0  0  0  0  0  0  0  0  0  0  0  0
   -7.0979    0.5590   -1.7731 H   0  0  0  0  0  0  0  0  0  0  0  0
   -6.9735   -1.1412   -1.2317 H   0  0  0  0  0  0  0  0  0  0  0  0
   -6.3724    0.7540    1.6172 H   0  0  0  0  0  0  0  0  0  0  0  0
    1.3257    2.1217    4.2691 H   0  0  0  0  0  0  0  0  0  0  0  0
    3.7713    2.8983    3.0654 H   0  0  0  0  0  0  0  0  0  0  0  0
    5.3301    1.5800    1.2808 H   0  0  0  0  0  0  0  0  0  0  0  0
    1.7421   -0.4998   -0.7407 H   0  0  0  0  0  0  0  0  0  0  0  0
    1.9846   -2.2081   -2.4917 H   0  0  0  0  0  0  0  0  0  0  0  0
    4.1248   -3.4431   -2.7486 H   0  0  0  0  0  0  0  0  0  0  0  0
    6.0049   -2.9771   -1.2210 H   0  0  0  0  0  0  0  0  0  0  0  0
    7.9410   -1.2121    0.8762 H   0  0  0  0  0  0  0  0  0  0  0  0
   -2.1979    0.1904   -1.0955 H   0  0  0  0  0  0  0  0  0  0  0  0
   -4.8912   -1.4201   -2.5830 H   0  0  0  0  0  0  0  0  0  0  0  0
   -5.0133    0.2804   -3.1250 H   0  0  0  0  0  0  0  0  0  0  0  0
   -3.4356   -0.4962   -2.9644 H   0  0  0  0  0  0  0  0  0  0  0  0
  1  2  1  0
  2  3  2  0
  3  4  1  0
  4  5  1  0
  5  6  2  0
  6  7  1  0
  7  8  1  0
  8  9  2  3
  9 10  1  0
 10 11  2  0
 11 12  1  0
 12 13  2  0
 13 14  1  0
 14 15  2  0
 15 16  1  0
 16 17  2  0
 17 18  1  0
 18 19  2  0
 19 20  1  0
 20 21  2  0
 20 22  1  0
 13 23  1  0
  8 24  1  0
 24 25  2  0
 24 26  1  0
 26 27  1  0
 27 28  1  0
 28 29  2  0
 29 30  1  0
 29  2  1  0
 27  4  2  0
 26  6  1  0
 23 10  1  0
 19 14  1  0
  1 31  1  0
  1 32  1  0
  1 33  1  0
  3 34  1  0
  9 35  1  0
 11 36  1  0
 12 37  1  0
 15 38  1  0
 16 39  1  0
 17 40  1  0
 18 41  1  0
 22 42  1  0
 28 43  1  0
 30 44  1  0
 30 45  1  0
 30 46  1  0
M  END
$$$$
