
     RDKit          3D

 66 70  0  0  0  0  0  0  0  0999 V2000
    3.3106    0.4593    1.5926 C   0  0  0  0  0  0  0  0  0  0  0  0
    3.3690   -0.7773    0.7721 C   0  0  0  0  0  0  0  0  0  0  0  0
    2.3574   -1.3495    0.0204 C   0  0  0  0  0  0  0  0  0  0  0  0
    0.9371   -0.9084   -0.1884 C   0  0  0  0  0  0  0  0  0  0  0  0
    0.7907   -0.0049   -1.4145 C   0  0  0  0  0  0  0  0  0  0  0  0
   -0.5598    0.4622   -1.5443 O   0  0  0  0  0  0  0  0  0  0  0  0
   -1.4217   -0.4176   -2.1300 C   0  0  0  0  0  0  0  0  0  0  0  0
   -1.1188   -1.5464   -2.4919 O   0  0  0  0  0  0  0  0  0  0  0  0
   -2.8027    0.1817   -2.2448 C   0  0  0  0  0  0  0  0  0  0  0  0
   -3.7368   -0.1264   -1.0579 C   0  0  0  0  0  0  0  0  0  0  0  0
   -3.9847   -1.6476   -0.9037 C   0  0  0  0  0  0  0  0  0  0  0  0
   -4.9615   -1.9249    0.2522 C   0  0  0  0  0  0  0  0  0  0  0  0
   -4.3729   -1.3711    1.5590 C   0  0  0  0  0  0  0  0  0  0  0  0
   -4.1486    0.1439    1.4342 C   0  0  0  0  0  0  0  0  0  0  0  0
   -5.4900    0.8345    1.1449 C   0  0  0  0  0  0  0  0  0  0  0  0
   -6.0998    0.2949   -0.1677 C   0  0  0  0  0  0  0  0  0  0  0  0
   -7.4377    0.9839   -0.4528 C   0  0  0  0  0  0  0  0  0  0  0  0
   -6.3020   -1.2309   -0.0346 C   0  0  0  0  0  0  0  0  0  0  0  0
   -5.1049    0.5611   -1.3202 C   0  0  0  0  0  0  0  0  0  0  0  0
   -3.1722    0.4187    0.2778 C   0  0  0  0  0  0  0  0  0  0  0  0
    2.9261   -2.7831   -0.7383 S   0  0  0  0  0  0  0  0  0  0  0  0
    4.4800   -2.5988   -0.0595 C   0  0  0  0  0  0  0  0  0  0  0  0
    4.5562   -1.5054    0.6822 N   0  0  0  0  0  4  0  0  0  0  0  0
    5.8119   -1.1669    1.3697 C   0  0  0  0  0  0  0  0  0  0  0  0
    6.4589    0.0601    0.7614 C   0  0  0  0  0  0  0  0  0  0  0  0
    6.9092    1.0974    1.5986 C   0  0  0  0  0  0  0  0  0  0  0  0
    7.5227    2.2353    1.0636 C   0  0  0  0  0  0  0  0  0  0  0  0
    7.7030    2.3396   -0.3202 C   0  0  0  0  0  0  0  0  0  0  0  0
    8.3423    3.5351   -0.8873 N   0  0  0  0  0  4  0  0  0  0  0  0
    8.5289    3.5566   -2.1113 O   0  0  0  0  0  0  0  0  0  0  0  0
    8.6452    4.4458   -0.1054 O   0  0  0  0  0  1  0  0  0  0  0  0
    7.2804    1.3073   -1.1664 C   0  0  0  0  0  0  0  0  0  0  0  0
    6.6676    0.1717   -0.6250 C   0  0  0  0  0  0  0  0  0  0  0  0
    3.8393    1.2772    1.0946 H   0  0  0  0  0  0  0  0  0  0  0  0
    3.7431    0.3041    2.5848 H   0  0  0  0  0  0  0  0  0  0  0  0
    2.2779    0.7875    1.7464 H   0  0  0  0  0  0  0  0  0  0  0  0
    0.5752   -0.3727    0.6972 H   0  0  0  0  0  0  0  0  0  0  0  0
    0.2767   -1.7798   -0.2732 H   0  0  0  0  0  0  0  0  0  0  0  0
    1.4210    0.8850   -1.3017 H   0  0  0  0  0  0  0  0  0  0  0  0
    1.1193   -0.5008   -2.3368 H   0  0  0  0  0  0  0  0  0  0  0  0
   -3.2351   -0.1892   -3.1833 H   0  0  0  0  0  0  0  0  0  0  0  0
   -2.6958    1.2657   -2.3822 H   0  0  0  0  0  0  0  0  0  0  0  0
   -3.0431   -2.1738   -0.7056 H   0  0  0  0  0  0  0  0  0  0  0  0
   -4.3885   -2.0625   -1.8360 H   0  0  0  0  0  0  0  0  0  0  0  0
   -5.1196   -3.0050    0.3485 H   0  0  0  0  0  0  0  0  0  0  0  0
   -5.0512   -1.5820    2.3950 H   0  0  0  0  0  0  0  0  0  0  0  0
   -3.4244   -1.8732    1.7855 H   0  0  0  0  0  0  0  0  0  0  0  0
   -3.7293    0.5320    2.3694 H   0  0  0  0  0  0  0  0  0  0  0  0
   -6.1798    0.6651    1.9818 H   0  0  0  0  0  0  0  0  0  0  0  0
   -5.3393    1.9195    1.0761 H   0  0  0  0  0  0  0  0  0  0  0  0
   -7.3093    2.0665   -0.5651 H   0  0  0  0  0  0  0  0  0  0  0  0
   -7.8893    0.6029   -1.3761 H   0  0  0  0  0  0  0  0  0  0  0  0
   -8.1510    0.8149    0.3620 H   0  0  0  0  0  0  0  0  0  0  0  0
   -7.0112   -1.4507    0.7739 H   0  0  0  0  0  0  0  0  0  0  0  0
   -6.7384   -1.6386   -0.9556 H   0  0  0  0  0  0  0  0  0  0  0  0
   -4.9594    1.6432   -1.4414 H   0  0  0  0  0  0  0  0  0  0  0  0
   -5.5279    0.1972   -2.2665 H   0  0  0  0  0  0  0  0  0  0  0  0
   -2.9861    1.4974    0.1987 H   0  0  0  0  0  0  0  0  0  0  0  0
   -2.2099   -0.0526    0.5109 H   0  0  0  0  0  0  0  0  0  0  0  0
    5.2909   -3.2969   -0.2335 H   0  0  0  0  0  0  0  0  0  0  0  0
    6.5182   -2.0041    1.3061 H   0  0  0  0  0  0  0  0  0  0  0  0
    5.5919   -1.0220    2.4337 H   0  0  0  0  0  0  0  0  0  0  0  0
    6.7956    1.0384    2.6813 H   0  0  0  0  0  0  0  0  0  0  0  0
    7.8604    3.0252    1.7346 H   0  0  0  0  0  0  0  0  0  0  0  0
    7.4281    1.3713   -2.2447 H   0  0  0  0  0  0  0  0  0  0  0  0
    6.3679   -0.6185   -1.3120 H   0  0  0  0  0  0  0  0  0  0  0  0
  1  2  1  0
  2  3  2  0
  3  4  1  0
  4  5  1  0
  5  6  1  0
  6  7  1  0
  7  8  2  0
  7  9  1  0
  9 10  1  0
 10 11  1  0
 11 12  1  0
 12 13  1  0
 13 14  1  0
 14 15  1  0
 15 16  1  0
 16 17  1  0
 16 18  1  0
 16 19  1  0
 14 20  1  0
  3 21  1  0
 21 22  1  0
 22 23  2  0
 23 24  1  0
 24 25  1  0
 25 26  2  0
 26 27  1  0
 27 28  2  0
 28 29  1  0
 29 30  2  0
 29 31  1  0
 28 32  1  0
 32 33  2  0
 23  2  1  0
 33 25  1  0
 19 10  1  0
 20 10  1  0
 18 12  1  0
  1 34  1  0
  1 35  1  0
  1 36  1  0
  4 37  1  0
  4 38  1  0
  5 39  1  0
  5 40  1  0
  9 41  1  0
  9 42  1  0
 11 43  1  0
 11 44  1  0
 12 45  1  0
 13 46  1  0
 13 47  1  0
 14 48  1  0
 15 49  1  0
 15 50  1  0
 17 51  1  0
 17 52  1  0
 17 53  1  0
 18 54  1  0
 18 55  1  0
 19 56  1  0
 19 57  1  0
 20 58  1  0
 20 59  1  0
 22 60  1  0
 24 61  1  0
 24 62  1  0
 26 63  1  0
 27 64  1  0
 32 65  1  0
 33 66  1  0
M  CHG  3  23   1  29   1  31  -1
M  END
$$$$
