
     RDKit          3D

 28 30  0  0  0  0  0  0  0  0999 V2000
    2.2341    2.2373   -2.0465 S   0  0  0  0  0  0  0  0  0  0  0  0
    0.8238    1.9161   -1.2343 C   0  0  0  0  0  0  0  0  0  0  0  0
    0.0061    2.9013   -0.6832 N   0  0  0  0  0  0  0  0  0  0  0  0
   -1.1615    2.3540   -0.2190 N   0  0  0  0  0  0  0  0  0  0  0  0
   -1.0373    1.0698   -0.4388 C   0  0  0  0  0  0  0  0  0  0  0  0
   -2.0907    0.0994   -0.1049 C   0  0  0  0  0  0  0  0  0  0  0  0
   -2.3384   -1.0659   -0.8300 C   0  0  0  0  0  0  0  0  0  0  0  0
   -3.3696   -1.9162   -0.4321 C   0  0  0  0  0  0  0  0  0  0  0  0
   -4.1247   -1.5662    0.6758 C   0  0  0  0  0  0  0  0  0  0  0  0
   -3.9238   -0.4394    1.3914 N   0  0  0  0  0  0  0  0  0  0  0  0
   -2.9192    0.3732    0.9778 C   0  0  0  0  0  0  0  0  0  0  0  0
    0.1778    0.7195   -0.9681 N   0  0  0  0  0  0  0  0  0  0  0  0
    0.5255   -0.5013   -1.4452 N   0  0  0  0  0  0  0  0  0  0  0  0
    1.5948   -1.0820   -0.9762 C   0  0  0  0  0  0  0  0  0  0  0  0
    2.4182   -0.7183    0.1580 C   0  0  0  0  0  0  0  0  0  0  0  0
    2.1425    0.0347    1.2857 C   0  0  0  0  0  0  0  0  0  0  0  0
    3.2651    0.1360    2.1640 C   0  0  0  0  0  0  0  0  0  0  0  0
    4.3389   -0.5621    1.6769 C   0  0  0  0  0  0  0  0  0  0  0  0
    6.0227   -0.6685    2.5734 Br  0  0  0  0  0  0  0  0  0  0  0  0
    4.0222   -1.3355    0.2063 S   0  0  0  0  0  0  0  0  0  0  0  0
    0.1363    3.9035   -0.7603 H   0  0  0  0  0  0  0  0  0  0  0  0
   -1.7627   -1.3156   -1.7156 H   0  0  0  0  0  0  0  0  0  0  0  0
   -3.5843   -2.8272   -0.9804 H   0  0  0  0  0  0  0  0  0  0  0  0
   -4.9385   -2.1973    1.0225 H   0  0  0  0  0  0  0  0  0  0  0  0
   -2.7968    1.2762    1.5713 H   0  0  0  0  0  0  0  0  0  0  0  0
    1.8862   -2.0078   -1.5045 H   0  0  0  0  0  0  0  0  0  0  0  0
    1.1853    0.4958    1.4944 H   0  0  0  0  0  0  0  0  0  0  0  0
    3.2679    0.6866    3.0968 H   0  0  0  0  0  0  0  0  0  0  0  0
  1  2  2  0
  2  3  1  0
  3  4  1  0
  4  5  2  0
  5  6  1  0
  6  7  2  0
  7  8  1  0
  8  9  2  0
  9 10  1  0
 10 11  2  0
  5 12  1  0
 12 13  1  0
 13 14  2  3
 14 15  1  0
 15 16  2  0
 16 17  1  0
 17 18  2  0
 18 19  1  0
 18 20  1  0
 12  2  1  0
 20 15  1  0
 11  6  1  0
  3 21  1  0
  7 22  1  0
  8 23  1  0
  9 24  1  0
 11 25  1  0
 14 26  1  0
 16 27  1  0
 17 28  1  0
M  END
$$$$
