
     RDKit          3D

 36 39  0  0  0  0  0  0  0  0999 V2000
   -1.4012    3.0331   -0.8177 C   0  0  0  0  0  0  0  0  0  0  0  0
   -0.7250    1.7572   -0.4690 C   0  0  0  0  0  0  0  0  0  0  0  0
    0.6062    1.7291   -0.3516 N   0  0  0  0  0  0  0  0  0  0  0  0
    0.9073    0.4409   -0.0558 N   0  0  0  0  0  0  0  0  0  0  0  0
    2.1823   -0.1030    0.1641 C   0  0  0  0  0  0  0  0  0  0  0  0
    2.2892   -1.4171    0.4360 C   0  0  0  0  0  0  0  0  0  0  0  0
    1.0152   -2.1819    0.4907 C   0  0  0  0  0  0  0  0  0  0  0  0
   -0.1747   -1.6985    0.2935 N   0  0  0  0  0  0  0  0  0  0  0  0
   -0.2421   -0.3579    0.0115 C   0  0  0  0  0  0  0  0  0  0  0  0
   -1.3101    0.4857   -0.2391 C   0  0  0  0  0  0  0  0  0  0  0  0
   -2.7039    0.0731   -0.2463 C   0  0  0  0  0  0  0  0  0  0  0  0
   -3.6626    0.8124    0.4594 C   0  0  0  0  0  0  0  0  0  0  0  0
   -5.0067    0.4311    0.4407 C   0  0  0  0  0  0  0  0  0  0  0  0
   -5.4037   -0.6923   -0.2822 C   0  0  0  0  0  0  0  0  0  0  0  0
   -4.4579   -1.4375   -0.9835 C   0  0  0  0  0  0  0  0  0  0  0  0
   -3.1139   -1.0569   -0.9655 C   0  0  0  0  0  0  0  0  0  0  0  0
    3.6108   -2.0547    0.6306 C   0  0  0  0  0  0  0  0  0  0  0  0
    3.6890   -3.2548    0.8824 O   0  0  0  0  0  0  0  0  0  0  0  0
    4.8453   -1.2029    0.4330 C   0  0  0  0  0  0  0  0  0  0  0  0
    4.5842    0.2427    0.8283 C   0  0  0  0  0  0  0  0  0  0  0  0
    3.3710    0.8180    0.0978 C   0  0  0  0  0  0  0  0  0  0  0  0
   -1.8010    3.5095    0.0829 H   0  0  0  0  0  0  0  0  0  0  0  0
   -0.7069    3.7343   -1.2931 H   0  0  0  0  0  0  0  0  0  0  0  0
   -2.2260    2.8606   -1.5163 H   0  0  0  0  0  0  0  0  0  0  0  0
    1.1123   -3.2568    0.7192 H   0  0  0  0  0  0  0  0  0  0  0  0
   -3.3719    1.6815    1.0438 H   0  0  0  0  0  0  0  0  0  0  0  0
   -5.7421    1.0075    0.9957 H   0  0  0  0  0  0  0  0  0  0  0  0
   -6.4486   -0.9913   -0.2938 H   0  0  0  0  0  0  0  0  0  0  0  0
   -4.7628   -2.3183   -1.5424 H   0  0  0  0  0  0  0  0  0  0  0  0
   -2.3879   -1.6519   -1.5153 H   0  0  0  0  0  0  0  0  0  0  0  0
    5.1466   -1.2737   -0.6178 H   0  0  0  0  0  0  0  0  0  0  0  0
    5.6520   -1.6075    1.0536 H   0  0  0  0  0  0  0  0  0  0  0  0
    4.4097    0.2959    1.9112 H   0  0  0  0  0  0  0  0  0  0  0  0
    5.4687    0.8545    0.6182 H   0  0  0  0  0  0  0  0  0  0  0  0
    3.6220    1.0010   -0.9543 H   0  0  0  0  0  0  0  0  0  0  0  0
    3.1372    1.7888    0.5509 H   0  0  0  0  0  0  0  0  0  0  0  0
  1  2  1  0
  2  3  2  0
  3  4  1  0
  4  5  1  0
  5  6  2  0
  6  7  1  0
  7  8  2  0
  8  9  1  0
  9 10  2  0
 10 11  1  0
 11 12  2  0
 12 13  1  0
 13 14  2  0
 14 15  1  0
 15 16  2  0
  6 17  1  0
 17 18  2  0
 17 19  1  0
 19 20  1  0
 20 21  1  0
 10  2  1  0
 16 11  1  0
  9  4  1  0
 21  5  1  0
  1 22  1  0
  1 23  1  0
  1 24  1  0
  7 25  1  0
 12 26  1  0
 13 27  1  0
 14 28  1  0
 15 29  1  0
 16 30  1  0
 19 31  1  0
 19 32  1  0
 20 33  1  0
 20 34  1  0
 21 35  1  0
 21 36  1  0
M  END
$$$$
