
     RDKit          3D

 42 43  0  0  0  0  0  0  0  0999 V2000
    5.5932    2.0473   -3.0192 C   0  0  0  0  0  0  0  0  0  0  0  0
    4.7139    2.2650   -1.8289 C   0  0  0  0  0  0  0  0  0  0  0  0
    5.0851    3.5256   -0.7423 S   0  0  0  0  0  0  0  0  0  0  0  0
    3.7552    3.1615    0.2460 C   0  0  0  0  0  0  0  0  0  0  0  0
    3.5303    3.8959    1.3483 N   0  0  0  0  0  0  0  0  0  0  0  0
    2.4535    3.5003    2.0215 C   0  0  0  0  0  0  0  0  0  0  0  0
    1.6304    2.4938    1.7094 N   0  0  0  0  0  0  0  0  0  0  0  0
    1.8938    1.7756    0.5961 C   0  0  0  0  0  0  0  0  0  0  0  0
    0.7761    0.4676    0.1819 S   0  0  0  0  0  0  0  0  0  0  0  0
    0.2423   -0.0193    1.8558 C   0  0  0  0  0  0  0  0  0  0  0  0
   -0.6637   -1.2341    1.7730 C   0  0  0  0  0  0  0  0  0  0  0  0
   -0.3831   -2.3005    2.3136 O   0  0  0  0  0  0  0  0  0  0  0  0
   -1.8437   -1.0167    1.0853 N   0  0  0  0  0  0  0  0  0  0  0  0
   -2.7883   -2.0976    0.8124 C   0  0  0  0  0  0  0  0  0  0  0  0
   -2.3058   -2.8844   -0.4100 C   0  0  0  0  0  0  0  0  0  0  0  0
   -4.2176   -1.5235    0.6343 C   0  0  0  0  0  0  0  0  0  0  0  0
   -5.2440   -2.6028    0.2764 C   0  0  0  0  0  0  0  0  0  0  0  0
   -4.6814   -0.7997    1.9063 C   0  0  0  0  0  0  0  0  0  0  0  0
    3.0024    2.0892   -0.2154 C   0  0  0  0  0  0  0  0  0  0  0  0
    3.5789    1.5574   -1.4490 C   0  0  0  0  0  0  0  0  0  0  0  0
    3.0347    0.3949   -2.2234 C   0  0  0  0  0  0  0  0  0  0  0  0
    5.0096    2.1381   -3.9414 H   0  0  0  0  0  0  0  0  0  0  0  0
    6.0332    1.0451   -2.9850 H   0  0  0  0  0  0  0  0  0  0  0  0
    6.4141    2.7699   -3.0733 H   0  0  0  0  0  0  0  0  0  0  0  0
    2.2164    4.0565    2.9232 H   0  0  0  0  0  0  0  0  0  0  0  0
    1.1149   -0.2747    2.4656 H   0  0  0  0  0  0  0  0  0  0  0  0
   -0.3092    0.7914    2.3427 H   0  0  0  0  0  0  0  0  0  0  0  0
   -1.8656   -0.2069    0.4753 H   0  0  0  0  0  0  0  0  0  0  0  0
   -2.7793   -2.7760    1.6752 H   0  0  0  0  0  0  0  0  0  0  0  0
   -1.2669   -3.2091   -0.2853 H   0  0  0  0  0  0  0  0  0  0  0  0
   -2.9067   -3.7839   -0.5725 H   0  0  0  0  0  0  0  0  0  0  0  0
   -2.3496   -2.2694   -1.3157 H   0  0  0  0  0  0  0  0  0  0  0  0
   -4.2060   -0.7862   -0.1796 H   0  0  0  0  0  0  0  0  0  0  0  0
   -5.0456   -3.0308   -0.7108 H   0  0  0  0  0  0  0  0  0  0  0  0
   -5.2385   -3.4144    1.0117 H   0  0  0  0  0  0  0  0  0  0  0  0
   -6.2556   -2.1833    0.2439 H   0  0  0  0  0  0  0  0  0  0  0  0
   -4.0274    0.0442    2.1478 H   0  0  0  0  0  0  0  0  0  0  0  0
   -4.6926   -1.4788    2.7657 H   0  0  0  0  0  0  0  0  0  0  0  0
   -5.6931   -0.3995    1.7787 H   0  0  0  0  0  0  0  0  0  0  0  0
    2.0233    0.6120   -2.5803 H   0  0  0  0  0  0  0  0  0  0  0  0
    3.6438    0.1662   -3.1033 H   0  0  0  0  0  0  0  0  0  0  0  0
    3.0186   -0.5060   -1.6024 H   0  0  0  0  0  0  0  0  0  0  0  0
  1  2  1  0
  2  3  1  0
  3  4  1  0
  4  5  2  0
  5  6  1  0
  6  7  2  0
  7  8  1  0
  8  9  1  0
  9 10  1  0
 10 11  1  0
 11 12  2  0
 11 13  1  0
 13 14  1  0
 14 15  1  0
 14 16  1  0
 16 17  1  0
 16 18  1  0
  8 19  2  0
 19 20  1  0
 20 21  1  0
 20  2  2  0
 19  4  1  0
  1 22  1  0
  1 23  1  0
  1 24  1  0
  6 25  1  0
 10 26  1  0
 10 27  1  0
 13 28  1  0
 14 29  1  0
 15 30  1  0
 15 31  1  0
 15 32  1  0
 16 33  1  0
 17 34  1  0
 17 35  1  0
 17 36  1  0
 18 37  1  0
 18 38  1  0
 18 39  1  0
 21 40  1  0
 21 41  1  0
 21 42  1  0
M  END
$$$$
