
     RDKit          3D

 48 51  0  0  0  0  0  0  0  0999 V2000
    4.6805   -2.8023    1.9258 C   0  0  0  0  0  0  0  0  0  0  0  0
    3.7559   -1.8382    1.2472 C   0  0  0  0  0  0  0  0  0  0  0  0
    2.4107   -1.7741    1.6232 C   0  0  0  0  0  0  0  0  0  0  0  0
    1.5398   -0.8941    0.9758 C   0  0  0  0  0  0  0  0  0  0  0  0
    1.9721   -0.0656   -0.0526 C   0  0  0  0  0  0  0  0  0  0  0  0
    1.0914    0.7529   -0.6491 N   0  0  0  0  0  0  0  0  0  0  0  0
    1.5127    1.5645   -1.6492 C   0  0  0  0  0  0  0  0  0  0  0  0
    0.2660    2.6148   -2.3964 S   0  0  0  0  0  0  0  0  0  0  0  0
   -1.2533    1.7349   -1.8899 C   0  0  0  0  0  0  0  0  0  0  0  0
   -1.6215    1.9823   -0.4329 C   0  0  0  0  0  0  0  0  0  0  0  0
   -1.3448    3.0493    0.1325 O   0  0  0  0  0  0  0  0  0  0  0  0
   -2.2750    0.9730    0.2632 N   0  0  0  0  0  0  0  0  0  0  0  0
   -2.8546   -0.2376   -0.1654 C   0  0  0  0  0  0  0  0  0  0  0  0
   -3.2369   -0.6556   -1.4297 C   0  0  0  0  0  0  0  0  0  0  0  0
   -3.7981   -1.9289   -1.5770 C   0  0  0  0  0  0  0  0  0  0  0  0
   -3.9805   -2.7644   -0.4669 C   0  0  0  0  0  0  0  0  0  0  0  0
   -3.6231   -2.3302    0.8093 C   0  0  0  0  0  0  0  0  0  0  0  0
   -3.0807   -1.0611    0.9427 C   0  0  0  0  0  0  0  0  0  0  0  0
   -2.6061   -0.4097    2.2072 C   0  0  0  0  0  0  0  0  0  0  0  0
   -2.3933    1.0401    1.7382 C   0  0  0  0  0  0  0  0  0  0  0  0
   -3.5596    1.9381    2.1608 C   0  0  0  0  0  0  0  0  0  0  0  0
    2.8389    1.5904   -2.0922 C   0  0  0  0  0  0  0  0  0  0  0  0
    3.3057    2.4660   -3.2183 C   0  0  0  0  0  0  0  0  0  0  0  0
    3.7458    0.7239   -1.4679 C   0  0  0  0  0  0  0  0  0  0  0  0
    3.3248   -0.1236   -0.4336 C   0  0  0  0  0  0  0  0  0  0  0  0
    4.2068   -1.0122    0.2133 C   0  0  0  0  0  0  0  0  0  0  0  0
    4.6073   -2.6975    3.0139 H   0  0  0  0  0  0  0  0  0  0  0  0
    5.7236   -2.6201    1.6456 H   0  0  0  0  0  0  0  0  0  0  0  0
    4.4236   -3.8284    1.6424 H   0  0  0  0  0  0  0  0  0  0  0  0
    2.0246   -2.4123    2.4187 H   0  0  0  0  0  0  0  0  0  0  0  0
    0.4935   -0.8552    1.2774 H   0  0  0  0  0  0  0  0  0  0  0  0
   -1.0910    0.6761   -2.0986 H   0  0  0  0  0  0  0  0  0  0  0  0
   -2.0795    2.0981   -2.5088 H   0  0  0  0  0  0  0  0  0  0  0  0
   -3.1618   -0.0245   -2.3059 H   0  0  0  0  0  0  0  0  0  0  0  0
   -4.1016   -2.2723   -2.5639 H   0  0  0  0  0  0  0  0  0  0  0  0
   -4.4085   -3.7566   -0.6012 H   0  0  0  0  0  0  0  0  0  0  0  0
   -3.7592   -2.9739    1.6739 H   0  0  0  0  0  0  0  0  0  0  0  0
   -1.6530   -0.8564    2.5068 H   0  0  0  0  0  0  0  0  0  0  0  0
   -3.3255   -0.5011    3.0272 H   0  0  0  0  0  0  0  0  0  0  0  0
   -1.4667    1.4461    2.1621 H   0  0  0  0  0  0  0  0  0  0  0  0
   -3.4322    2.9579    1.7804 H   0  0  0  0  0  0  0  0  0  0  0  0
   -4.5157    1.5614    1.7774 H   0  0  0  0  0  0  0  0  0  0  0  0
   -3.6293    1.9890    3.2545 H   0  0  0  0  0  0  0  0  0  0  0  0
    2.8084    2.1693   -4.1487 H   0  0  0  0  0  0  0  0  0  0  0  0
    3.0971    3.5222   -3.0052 H   0  0  0  0  0  0  0  0  0  0  0  0
    4.3868    2.3742   -3.3782 H   0  0  0  0  0  0  0  0  0  0  0  0
    4.7852    0.7070   -1.7900 H   0  0  0  0  0  0  0  0  0  0  0  0
    5.2505   -1.0580   -0.0979 H   0  0  0  0  0  0  0  0  0  0  0  0
  1  2  1  0
  2  3  2  0
  3  4  1  0
  4  5  2  0
  5  6  1  0
  6  7  2  0
  7  8  1  0
  8  9  1  0
  9 10  1  0
 10 11  2  0
 10 12  1  0
 12 13  1  0
 13 14  2  0
 14 15  1  0
 15 16  2  0
 16 17  1  0
 17 18  2  0
 18 19  1  0
 19 20  1  0
 20 21  1  0
  7 22  1  0
 22 23  1  0
 22 24  2  0
 24 25  1  0
 25 26  2  0
 26  2  1  0
 25  5  1  0
 20 12  1  0
 18 13  1  0
  1 27  1  0
  1 28  1  0
  1 29  1  0
  3 30  1  0
  4 31  1  0
  9 32  1  0
  9 33  1  0
 14 34  1  0
 15 35  1  0
 16 36  1  0
 17 37  1  0
 19 38  1  0
 19 39  1  0
 20 40  1  0
 21 41  1  0
 21 42  1  0
 21 43  1  0
 23 44  1  0
 23 45  1  0
 23 46  1  0
 24 47  1  0
 26 48  1  0
M  END
$$$$
