
     RDKit          3D

 61 64  0  0  0  0  0  0  0  0999 V2000
    9.2651   -1.9329   -1.1592 C   0  0  0  0  0  0  0  0  0  0  0  0
    8.1847   -0.8952   -1.2291 C   0  0  0  0  0  0  0  0  0  0  0  0
    8.0190    0.0286   -0.1917 C   0  0  0  0  0  0  0  0  0  0  0  0
    7.0313    1.0120   -0.2717 C   0  0  0  0  0  0  0  0  0  0  0  0
    6.2001    1.0983   -1.3967 C   0  0  0  0  0  0  0  0  0  0  0  0
    5.1228    2.1493   -1.4634 C   0  0  0  0  0  0  0  0  0  0  0  0
    4.0031    1.8557   -0.5855 N   0  0  0  0  0  0  0  0  0  0  0  0
    3.2239    0.6476   -0.7197 C   0  0  0  0  0  0  0  0  0  0  0  0
    2.2178    0.7473    0.4173 C   0  0  0  0  0  0  0  0  0  0  0  0
    0.9383   -0.0127    0.1167 C   0  0  0  0  0  0  0  0  0  0  0  0
    0.8080   -0.6680   -0.9106 O   0  0  0  0  0  0  0  0  0  0  0  0
    0.0015    0.1112    1.1314 N   0  0  0  0  0  0  0  0  0  0  0  0
   -1.2793   -0.4777    1.1929 C   0  0  0  0  0  0  0  0  0  0  0  0
   -2.0725   -0.1637    2.3067 C   0  0  0  0  0  0  0  0  0  0  0  0
   -3.3547   -0.7026    2.4479 C   0  0  0  0  0  0  0  0  0  0  0  0
   -3.8530   -1.5575    1.4637 C   0  0  0  0  0  0  0  0  0  0  0  0
   -5.4704   -2.2809    1.6541 S   0  0  0  0  0  6  0  0  0  0  0  0
   -5.8140   -2.1994    3.0586 O   0  0  0  0  0  0  0  0  0  0  0  0
   -5.4590   -3.5525    0.9629 O   0  0  0  0  0  0  0  0  0  0  0  0
   -6.4815   -1.2109    0.7946 N   0  0  0  0  0  0  0  0  0  0  0  0
   -6.3199   -1.1884   -0.6800 C   0  0  0  0  0  0  0  0  0  0  0  0
   -7.5536   -0.5557   -1.3179 C   0  0  0  0  0  0  0  0  0  0  0  0
   -7.8164    0.8365   -0.7537 C   0  0  0  0  0  0  0  0  0  0  0  0
   -7.8990    0.7934    0.7694 C   0  0  0  0  0  0  0  0  0  0  0  0
   -6.6595    0.1405    1.3760 C   0  0  0  0  0  0  0  0  0  0  0  0
   -3.0642   -1.9027    0.3655 C   0  0  0  0  0  0  0  0  0  0  0  0
   -1.7858   -1.3515    0.2269 C   0  0  0  0  0  0  0  0  0  0  0  0
    1.9958    2.2525    0.5636 C   0  0  0  0  0  0  0  0  0  0  0  0
    3.2578    2.8617    0.0085 C   0  0  0  0  0  0  0  0  0  0  0  0
    3.5353    4.0482    0.0601 O   0  0  0  0  0  0  0  0  0  0  0  0
    6.3758    0.1806   -2.4402 C   0  0  0  0  0  0  0  0  0  0  0  0
    7.3641   -0.8031   -2.3590 C   0  0  0  0  0  0  0  0  0  0  0  0
    8.9491   -2.8561   -1.6544 H   0  0  0  0  0  0  0  0  0  0  0  0
   10.1718   -1.5610   -1.6453 H   0  0  0  0  0  0  0  0  0  0  0  0
    9.4999   -2.1862   -0.1201 H   0  0  0  0  0  0  0  0  0  0  0  0
    8.6570   -0.0120    0.6882 H   0  0  0  0  0  0  0  0  0  0  0  0
    6.9109    1.7157    0.5497 H   0  0  0  0  0  0  0  0  0  0  0  0
    4.7294    2.2478   -2.4823 H   0  0  0  0  0  0  0  0  0  0  0  0
    5.5508    3.1244   -1.2021 H   0  0  0  0  0  0  0  0  0  0  0  0
    3.8568   -0.2385   -0.6192 H   0  0  0  0  0  0  0  0  0  0  0  0
    2.7569    0.6531   -1.7114 H   0  0  0  0  0  0  0  0  0  0  0  0
    2.6644    0.3412    1.3358 H   0  0  0  0  0  0  0  0  0  0  0  0
    0.2599    0.6777    1.9296 H   0  0  0  0  0  0  0  0  0  0  0  0
   -1.7054    0.5021    3.0841 H   0  0  0  0  0  0  0  0  0  0  0  0
   -3.9499   -0.4563    3.3251 H   0  0  0  0  0  0  0  0  0  0  0  0
   -6.2143   -2.2046   -1.0719 H   0  0  0  0  0  0  0  0  0  0  0  0
   -5.4250   -0.6180   -0.9522 H   0  0  0  0  0  0  0  0  0  0  0  0
   -8.4286   -1.1905   -1.1325 H   0  0  0  0  0  0  0  0  0  0  0  0
   -7.4207   -0.4977   -2.4039 H   0  0  0  0  0  0  0  0  0  0  0  0
   -7.0115    1.5154   -1.0593 H   0  0  0  0  0  0  0  0  0  0  0  0
   -8.7490    1.2350   -1.1670 H   0  0  0  0  0  0  0  0  0  0  0  0
   -8.7928    0.2303    1.0655 H   0  0  0  0  0  0  0  0  0  0  0  0
   -8.0127    1.8085    1.1635 H   0  0  0  0  0  0  0  0  0  0  0  0
   -5.7753    0.7554    1.1753 H   0  0  0  0  0  0  0  0  0  0  0  0
   -6.7967    0.0803    2.4596 H   0  0  0  0  0  0  0  0  0  0  0  0
   -3.4277   -2.6015   -0.3850 H   0  0  0  0  0  0  0  0  0  0  0  0
   -1.2049   -1.6432   -0.6431 H   0  0  0  0  0  0  0  0  0  0  0  0
    1.8727    2.5383    1.6123 H   0  0  0  0  0  0  0  0  0  0  0  0
    1.1415    2.6098   -0.0204 H   0  0  0  0  0  0  0  0  0  0  0  0
    5.7430    0.2237   -3.3238 H   0  0  0  0  0  0  0  0  0  0  0  0
    7.4888   -1.5012   -3.1843 H   0  0  0  0  0  0  0  0  0  0  0  0
  1  2  1  0
  2  3  2  0
  3  4  1  0
  4  5  2  0
  5  6  1  0
  6  7  1  0
  7  8  1  0
  8  9  1  0
  9 10  1  0
 10 11  2  0
 10 12  1  0
 12 13  1  0
 13 14  2  0
 14 15  1  0
 15 16  2  0
 16 17  1  0
 17 18  2  0
 17 19  2  0
 17 20  1  0
 20 21  1  0
 21 22  1  0
 22 23  1  0
 23 24  1  0
 24 25  1  0
 16 26  1  0
 26 27  2  0
  9 28  1  0
 28 29  1  0
 29 30  2  0
  5 31  1  0
 31 32  2  0
 32  2  1  0
 29  7  1  0
 27 13  1  0
 25 20  1  0
  1 33  1  0
  1 34  1  0
  1 35  1  0
  3 36  1  0
  4 37  1  0
  6 38  1  0
  6 39  1  0
  8 40  1  0
  8 41  1  0
  9 42  1  0
 12 43  1  0
 14 44  1  0
 15 45  1  0
 21 46  1  0
 21 47  1  0
 22 48  1  0
 22 49  1  0
 23 50  1  0
 23 51  1  0
 24 52  1  0
 24 53  1  0
 25 54  1  0
 25 55  1  0
 26 56  1  0
 27 57  1  0
 28 58  1  0
 28 59  1  0
 31 60  1  0
 32 61  1  0
M  END
$$$$
