
     RDKit          3D

 48 51  0  0  0  0  0  0  0  0999 V2000
    4.6585   -3.5770    1.3250 O   0  0  0  0  0  0  0  0  0  0  0  0
    5.2648   -2.2817    1.5387 S   0  0  0  0  0  6  0  0  0  0  0  0
    6.6234   -2.1568    2.0223 O   0  0  0  0  0  0  0  0  0  0  0  0
    4.3063   -1.3706    2.5862 N   0  0  0  0  0  0  0  0  0  0  0  0
    2.9828   -1.0198    2.2066 C   0  0  0  0  0  0  0  0  0  0  0  0
    2.0213   -1.9921    1.9542 C   0  0  0  0  0  0  0  0  0  0  0  0
    0.7418   -1.6162    1.5307 C   0  0  0  0  0  0  0  0  0  0  0  0
    0.3891   -0.2643    1.3581 C   0  0  0  0  0  0  0  0  0  0  0  0
   -0.9625    0.1075    0.9012 C   0  0  0  0  0  0  0  0  0  0  0  0
   -1.6152    1.2735    1.2685 C   0  0  0  0  0  0  0  0  0  0  0  0
   -2.8977    1.5291    0.7737 C   0  0  0  0  0  0  0  0  0  0  0  0
   -3.5164    0.6293   -0.0854 C   0  0  0  0  0  0  0  0  0  0  0  0
   -4.8025    0.8572   -0.5682 N   0  0  0  0  0  0  0  0  0  0  0  0
   -5.3934   -0.2447   -1.3483 C   0  0  0  0  0  0  0  0  0  0  0  0
   -6.8170    0.1439   -1.7772 C   0  0  0  0  0  0  0  0  0  0  0  0
   -6.8786    1.3236   -2.5957 O   0  0  0  0  0  0  0  0  0  0  0  0
   -5.7314    2.1722   -2.4577 C   0  0  0  0  0  0  0  0  0  0  0  0
   -5.1610    2.2106   -1.0292 C   0  0  0  0  0  0  0  0  0  0  0  0
   -2.8576   -0.5053   -0.3972 N   0  0  0  0  0  0  0  0  0  0  0  0
   -1.5827   -0.7664    0.0841 N   0  0  0  0  0  0  0  0  0  0  0  0
    1.3791    0.6985    1.6281 C   0  0  0  0  0  0  0  0  0  0  0  0
    2.6616    0.3267    2.0505 C   0  0  0  0  0  0  0  0  0  0  0  0
    5.1652   -1.3692    0.0132 C   0  0  0  0  0  0  0  0  0  0  0  0
    4.2851   -1.7828   -0.9907 C   0  0  0  0  0  0  0  0  0  0  0  0
    4.2116   -1.0574   -2.1812 C   0  0  0  0  0  0  0  0  0  0  0  0
    5.0214    0.0680   -2.3713 C   0  0  0  0  0  0  0  0  0  0  0  0
    4.8695    0.9235   -3.8642 Cl  0  0  0  0  0  0  0  0  0  0  0  0
    5.9148    0.4645   -1.3666 C   0  0  0  0  0  0  0  0  0  0  0  0
    6.9419    1.8438   -1.5337 Cl  0  0  0  0  0  0  0  0  0  0  0  0
    5.9933   -0.2584   -0.1734 C   0  0  0  0  0  0  0  0  0  0  0  0
    4.8496   -0.7011    3.1284 H   0  0  0  0  0  0  0  0  0  0  0  0
    2.2462   -3.0481    2.0856 H   0  0  0  0  0  0  0  0  0  0  0  0
    0.0083   -2.3994    1.3368 H   0  0  0  0  0  0  0  0  0  0  0  0
   -1.1626    1.9810    1.9545 H   0  0  0  0  0  0  0  0  0  0  0  0
   -3.4153    2.4262    1.0967 H   0  0  0  0  0  0  0  0  0  0  0  0
   -5.4421   -1.1577   -0.7430 H   0  0  0  0  0  0  0  0  0  0  0  0
   -4.7878   -0.4445   -2.2417 H   0  0  0  0  0  0  0  0  0  0  0  0
   -7.2784   -0.6722   -2.3422 H   0  0  0  0  0  0  0  0  0  0  0  0
   -7.4417    0.3268   -0.8951 H   0  0  0  0  0  0  0  0  0  0  0  0
   -6.0294    3.1789   -2.7681 H   0  0  0  0  0  0  0  0  0  0  0  0
   -4.9690    1.8271   -3.1661 H   0  0  0  0  0  0  0  0  0  0  0  0
   -4.3087    2.8994   -1.0211 H   0  0  0  0  0  0  0  0  0  0  0  0
   -5.9216    2.6046   -0.3452 H   0  0  0  0  0  0  0  0  0  0  0  0
    1.1726    1.7580    1.4902 H   0  0  0  0  0  0  0  0  0  0  0  0
    3.4011    1.1010    2.2357 H   0  0  0  0  0  0  0  0  0  0  0  0
    3.6507   -2.6571   -0.8530 H   0  0  0  0  0  0  0  0  0  0  0  0
    3.5186   -1.3745   -2.9581 H   0  0  0  0  0  0  0  0  0  0  0  0
    6.6942    0.0423    0.6023 H   0  0  0  0  0  0  0  0  0  0  0  0
  1  2  2  0
  2  3  2  0
  2  4  1  0
  4  5  1  0
  5  6  2  0
  6  7  1  0
  7  8  2  0
  8  9  1  0
  9 10  2  0
 10 11  1  0
 11 12  2  0
 12 13  1  0
 13 14  1  0
 14 15  1  0
 15 16  1  0
 16 17  1  0
 17 18  1  0
 12 19  1  0
 19 20  2  0
  8 21  1  0
 21 22  2  0
  2 23  1  0
 23 24  2  0
 24 25  1  0
 25 26  2  0
 26 27  1  0
 26 28  1  0
 28 29  1  0
 28 30  2  0
 22  5  1  0
 30 23  1  0
 20  9  1  0
 18 13  1  0
  4 31  1  0
  6 32  1  0
  7 33  1  0
 10 34  1  0
 11 35  1  0
 14 36  1  0
 14 37  1  0
 15 38  1  0
 15 39  1  0
 17 40  1  0
 17 41  1  0
 18 42  1  0
 18 43  1  0
 21 44  1  0
 22 45  1  0
 24 46  1  0
 25 47  1  0
 30 48  1  0
M  END
$$$$
