
     RDKit          3D

 45 47  0  0  0  0  0  0  0  0999 V2000
   -2.4660   -1.0327   -1.8960 C   0  0  0  0  0  0  0  0  0  0  0  0
   -2.4870   -1.4943   -0.4409 C   0  0  0  0  0  0  0  0  0  0  0  0
   -3.1887   -0.6268    0.5154 N   0  0  0  0  0  0  0  0  0  0  0  0
   -4.5984   -0.3727    0.1858 C   0  0  0  0  0  0  0  0  0  0  0  0
   -5.4446   -1.6380    0.0845 C   0  0  0  0  0  0  0  0  0  0  0  0
   -2.4904    0.6477    0.7844 C   0  0  0  0  0  0  0  0  0  0  0  0
   -1.2112    0.4891    1.5847 C   0  0  0  0  0  0  0  0  0  0  0  0
   -1.2564    0.2785    2.9734 C   0  0  0  0  0  0  0  0  0  0  0  0
   -2.4687    0.2676    3.6061 O   0  0  0  0  0  0  0  0  0  0  0  0
   -0.0933    0.1032    3.7251 C   0  0  0  0  0  0  0  0  0  0  0  0
    1.1473    0.1409    3.0933 C   0  0  0  0  0  0  0  0  0  0  0  0
    1.2168    0.3595    1.7141 C   0  0  0  0  0  0  0  0  0  0  0  0
    2.5294    0.4042    1.0413 C   0  0  0  0  0  0  0  0  0  0  0  0
    3.5633    0.2651    1.6852 O   0  0  0  0  0  0  0  0  0  0  0  0
    2.5195    0.6203   -0.4317 C   0  0  0  0  0  0  0  0  0  0  0  0
    3.7551    0.6894   -1.2340 C   0  0  0  0  0  0  0  0  0  0  0  0
    4.8187    1.5105   -0.8345 C   0  0  0  0  0  0  0  0  0  0  0  0
    5.9878    1.5862   -1.5961 C   0  0  0  0  0  0  0  0  0  0  0  0
    6.1090    0.8397   -2.7658 C   0  0  0  0  0  0  0  0  0  0  0  0
    5.0643    0.0132   -3.1727 C   0  0  0  0  0  0  0  0  0  0  0  0
    3.8952   -0.0633   -2.4112 C   0  0  0  0  0  0  0  0  0  0  0  0
    1.3201    0.7864   -1.0090 C   0  0  0  0  0  0  0  0  0  0  0  0
    0.0957    0.7598   -0.3909 O   0  0  0  0  0  0  0  0  0  0  0  0
    0.0516    0.5358    0.9644 C   0  0  0  0  0  0  0  0  0  0  0  0
   -1.8802   -1.7369   -2.4965 H   0  0  0  0  0  0  0  0  0  0  0  0
   -2.0088   -0.0463   -2.0094 H   0  0  0  0  0  0  0  0  0  0  0  0
   -3.4718   -0.9981   -2.3250 H   0  0  0  0  0  0  0  0  0  0  0  0
   -2.9318   -2.4961   -0.4038 H   0  0  0  0  0  0  0  0  0  0  0  0
   -1.4555   -1.6577   -0.1090 H   0  0  0  0  0  0  0  0  0  0  0  0
   -5.0444    0.2337    0.9847 H   0  0  0  0  0  0  0  0  0  0  0  0
   -4.6940    0.2107   -0.7378 H   0  0  0  0  0  0  0  0  0  0  0  0
   -5.1753   -2.2422   -0.7869 H   0  0  0  0  0  0  0  0  0  0  0  0
   -5.3410   -2.2551    0.9831 H   0  0  0  0  0  0  0  0  0  0  0  0
   -6.5019   -1.3710   -0.0173 H   0  0  0  0  0  0  0  0  0  0  0  0
   -3.1388    1.3120    1.3730 H   0  0  0  0  0  0  0  0  0  0  0  0
   -2.3122    1.2066   -0.1419 H   0  0  0  0  0  0  0  0  0  0  0  0
   -2.3534   -0.0661    4.5103 H   0  0  0  0  0  0  0  0  0  0  0  0
   -0.1353   -0.0546    4.7988 H   0  0  0  0  0  0  0  0  0  0  0  0
    2.0569    0.0048    3.6748 H   0  0  0  0  0  0  0  0  0  0  0  0
    4.7502    2.0956    0.0808 H   0  0  0  0  0  0  0  0  0  0  0  0
    6.8050    2.2242   -1.2696 H   0  0  0  0  0  0  0  0  0  0  0  0
    7.0207    0.8963   -3.3548 H   0  0  0  0  0  0  0  0  0  0  0  0
    5.1615   -0.5778   -4.0798 H   0  0  0  0  0  0  0  0  0  0  0  0
    3.1003   -0.7281   -2.7418 H   0  0  0  0  0  0  0  0  0  0  0  0
    1.1809    0.9764   -2.0668 H   0  0  0  0  0  0  0  0  0  0  0  0
  1  2  1  0
  2  3  1  0
  3  4  1  0
  4  5  1  0
  3  6  1  0
  6  7  1  0
  7  8  2  0
  8  9  1  0
  8 10  1  0
 10 11  2  0
 11 12  1  0
 12 13  1  0
 13 14  2  0
 13 15  1  0
 15 16  1  0
 16 17  2  0
 17 18  1  0
 18 19  2  0
 19 20  1  0
 20 21  2  0
 15 22  2  0
 22 23  1  0
 23 24  1  0
 24  7  1  0
 24 12  2  0
 21 16  1  0
  1 25  1  0
  1 26  1  0
  1 27  1  0
  2 28  1  0
  2 29  1  0
  4 30  1  0
  4 31  1  0
  5 32  1  0
  5 33  1  0
  5 34  1  0
  6 35  1  0
  6 36  1  0
  9 37  1  0
 10 38  1  0
 11 39  1  0
 17 40  1  0
 18 41  1  0
 19 42  1  0
 20 43  1  0
 21 44  1  0
 22 45  1  0
M  END
$$$$
