
     RDKit          3D

 55 58  0  0  0  0  0  0  0  0999 V2000
   -8.6010    0.9601   -1.3892 C   0  0  0  0  0  0  0  0  0  0  0  0
   -7.6226    1.8078   -0.5913 C   0  0  0  0  0  0  0  0  0  0  0  0
   -7.3279    1.2516    0.8054 C   0  0  0  0  0  0  0  0  0  0  0  0
   -6.6761   -0.1319    0.8219 C   0  0  0  0  0  0  0  0  0  0  0  0
   -5.4033   -0.1612    0.1309 N   0  0  0  0  0  0  0  0  0  0  0  0
   -4.2459    0.2856    0.7363 C   0  0  0  0  0  0  0  0  0  0  0  0
   -4.1977    0.6824    1.8950 O   0  0  0  0  0  0  0  0  0  0  0  0
   -3.0226    0.3066   -0.1129 C   0  0  0  0  0  0  0  0  0  0  0  0
   -2.0223    1.2372    0.1850 C   0  0  0  0  0  0  0  0  0  0  0  0
   -0.8566    1.2917   -0.5843 C   0  0  0  0  0  0  0  0  0  0  0  0
   -0.6633    0.4075   -1.6562 C   0  0  0  0  0  0  0  0  0  0  0  0
    0.6070    0.4592   -2.4868 C   0  0  0  0  0  0  0  0  0  0  0  0
    1.7879   -0.0269   -1.7620 N   0  0  0  0  0  0  0  0  0  0  0  0
    2.1313   -1.3951   -1.7407 C   0  0  0  0  0  0  0  0  0  0  0  0
    1.3422   -2.6488   -2.5347 S   0  0  0  0  0  0  0  0  0  0  0  0
    3.2381   -1.7615   -1.0037 N   0  0  0  0  0  0  0  0  0  0  0  0
    3.9990   -0.8478   -0.3270 C   0  0  0  0  0  0  0  0  0  0  0  0
    3.6630    0.4705   -0.3865 C   0  0  0  0  0  0  0  0  0  0  0  0
    4.5709    1.1697    0.3586 N   0  0  0  0  0  0  0  0  0  0  0  0
    5.4945    0.2980    0.9012 C   0  0  0  0  0  0  0  0  0  0  0  0
    6.5962    0.5473    1.7254 C   0  0  0  0  0  0  0  0  0  0  0  0
    7.3702   -0.5495    2.1298 C   0  0  0  0  0  0  0  0  0  0  0  0
    7.0554   -1.8471    1.7253 C   0  0  0  0  0  0  0  0  0  0  0  0
    7.7444   -2.9816    2.0633 O   0  0  0  0  0  0  0  0  0  0  0  0
    8.8741   -2.8221    2.9117 C   0  0  0  0  0  0  0  0  0  0  0  0
    5.9464   -2.0742    0.8983 C   0  0  0  0  0  0  0  0  0  0  0  0
    5.1514   -0.9910    0.4783 C   0  0  0  0  0  0  0  0  0  0  0  0
    2.5457    0.9746   -1.1182 C   0  0  0  0  0  0  0  0  0  0  0  0
    2.3019    2.1771   -1.1702 O   0  0  0  0  0  0  0  0  0  0  0  0
   -1.6706   -0.5259   -1.9448 C   0  0  0  0  0  0  0  0  0  0  0  0
   -2.8383   -0.5833   -1.1762 C   0  0  0  0  0  0  0  0  0  0  0  0
   -9.5303    0.8034   -0.8326 H   0  0  0  0  0  0  0  0  0  0  0  0
   -8.8503    1.4603   -2.3308 H   0  0  0  0  0  0  0  0  0  0  0  0
   -8.1759   -0.0168   -1.6374 H   0  0  0  0  0  0  0  0  0  0  0  0
   -8.0446    2.8137   -0.4791 H   0  0  0  0  0  0  0  0  0  0  0  0
   -6.6921    1.9224   -1.1589 H   0  0  0  0  0  0  0  0  0  0  0  0
   -6.6780    1.9652    1.3268 H   0  0  0  0  0  0  0  0  0  0  0  0
   -8.2626    1.2053    1.3775 H   0  0  0  0  0  0  0  0  0  0  0  0
   -6.5159   -0.4426    1.8608 H   0  0  0  0  0  0  0  0  0  0  0  0
   -7.3213   -0.8803    0.3520 H   0  0  0  0  0  0  0  0  0  0  0  0
   -5.4189   -0.2754   -0.8727 H   0  0  0  0  0  0  0  0  0  0  0  0
   -2.1494    1.9271    1.0174 H   0  0  0  0  0  0  0  0  0  0  0  0
   -0.1037    2.0371   -0.3355 H   0  0  0  0  0  0  0  0  0  0  0  0
    0.4768   -0.1122   -3.4124 H   0  0  0  0  0  0  0  0  0  0  0  0
    0.7588    1.4950   -2.8156 H   0  0  0  0  0  0  0  0  0  0  0  0
    3.4948   -2.7411   -0.9674 H   0  0  0  0  0  0  0  0  0  0  0  0
    4.5600    2.1731    0.4888 H   0  0  0  0  0  0  0  0  0  0  0  0
    6.8500    1.5528    2.0465 H   0  0  0  0  0  0  0  0  0  0  0  0
    8.2236   -0.3479    2.7701 H   0  0  0  0  0  0  0  0  0  0  0  0
    8.5837   -2.4073    3.8826 H   0  0  0  0  0  0  0  0  0  0  0  0
    9.6438   -2.2083    2.4324 H   0  0  0  0  0  0  0  0  0  0  0  0
    9.3020   -3.8137    3.0885 H   0  0  0  0  0  0  0  0  0  0  0  0
    5.7056   -3.0863    0.5874 H   0  0  0  0  0  0  0  0  0  0  0  0
   -1.5517   -1.2300   -2.7666 H   0  0  0  0  0  0  0  0  0  0  0  0
   -3.5756   -1.3475   -1.4037 H   0  0  0  0  0  0  0  0  0  0  0  0
  1  2  1  0
  2  3  1  0
  3  4  1  0
  4  5  1  0
  5  6  1  0
  6  7  2  0
  6  8  1  0
  8  9  2  0
  9 10  1  0
 10 11  2  0
 11 12  1  0
 12 13  1  0
 13 14  1  0
 14 15  2  0
 14 16  1  0
 16 17  1  0
 17 18  2  0
 18 19  1  0
 19 20  1  0
 20 21  2  0
 21 22  1  0
 22 23  2  0
 23 24  1  0
 24 25  1  0
 23 26  1  0
 26 27  2  0
 18 28  1  0
 28 29  2  0
 11 30  1  0
 30 31  2  0
 31  8  1  0
 28 13  1  0
 27 17  1  0
 27 20  1  0
  1 32  1  0
  1 33  1  0
  1 34  1  0
  2 35  1  0
  2 36  1  0
  3 37  1  0
  3 38  1  0
  4 39  1  0
  4 40  1  0
  5 41  1  0
  9 42  1  0
 10 43  1  0
 12 44  1  0
 12 45  1  0
 16 46  1  0
 19 47  1  0
 21 48  1  0
 22 49  1  0
 25 50  1  0
 25 51  1  0
 25 52  1  0
 26 53  1  0
 30 54  1  0
 31 55  1  0
M  END
$$$$
