
     RDKit          3D

 74 78  0  0  0  0  0  0  0  0999 V2000
    1.2327   -2.4999    3.8879 C   0  0  0  0  0  0  0  0  0  0  0  0
    0.4057   -3.0912    2.7529 C   0  0  0  0  0  0  0  0  0  0  0  0
   -0.8383   -2.2964    2.4455 C   0  0  0  0  0  0  0  0  0  0  0  0
   -2.0918   -2.5253    3.2688 C   0  0  0  0  0  0  0  0  0  0  0  0
   -2.0471   -3.5050    4.4239 C   0  0  0  0  0  0  0  0  0  0  0  0
   -3.2369   -1.9412    3.0729 N   0  0  0  0  0  0  0  0  0  0  0  0
   -3.3114   -1.0735    2.0308 C   0  0  0  0  0  0  0  0  0  0  0  0
   -4.3587   -0.3118    1.5736 C   0  0  0  0  0  0  0  0  0  0  0  0
   -3.8711    0.3964    0.4524 C   0  0  0  0  0  0  0  0  0  0  0  0
   -4.5934    1.3428   -0.4087 C   0  0  0  0  0  0  0  0  0  0  0  0
   -5.9924    1.4486   -0.3549 C   0  0  0  0  0  0  0  0  0  0  0  0
   -6.6694    2.3513   -1.1788 C   0  0  0  0  0  0  0  0  0  0  0  0
   -8.0253    2.5426   -1.2154 O   0  0  0  0  0  0  0  0  0  0  0  0
   -8.8181    1.7265   -0.3620 C   0  0  0  0  0  0  0  0  0  0  0  0
   -5.9479    3.1576   -2.0651 C   0  0  0  0  0  0  0  0  0  0  0  0
   -4.5593    3.0651   -2.1375 C   0  0  0  0  0  0  0  0  0  0  0  0
   -3.7472    3.7946   -2.9626 O   0  0  0  0  0  0  0  0  0  0  0  0
   -4.3816    4.7216   -3.8347 C   0  0  0  0  0  0  0  0  0  0  0  0
   -3.8921    2.1588   -1.3099 C   0  0  0  0  0  0  0  0  0  0  0  0
   -2.5826    0.1005    0.2339 N   0  0  0  0  0  0  0  0  0  0  0  0
   -2.2322   -0.8098    1.1893 N   0  0  0  0  0  0  0  0  0  0  0  0
   -0.9645   -1.4382    1.3980 C   0  0  0  0  0  0  0  0  0  0  0  0
    0.1030   -1.1457    0.5108 N   0  0  0  0  0  0  0  0  0  0  0  0
    1.3004   -0.4143    0.9880 C   0  0  0  0  0  0  0  0  0  0  0  0
    1.9200    0.5000   -0.0954 C   0  0  0  0  0  0  0  0  0  0  0  0
    2.2329   -0.1565   -1.3844 N   0  0  0  0  0  0  0  0  0  0  0  0
    3.5968   -0.7146   -1.4406 C   0  0  0  0  0  0  0  0  0  0  0  0
    4.6944    0.3688   -1.5950 C   0  0  0  0  0  0  0  0  0  0  0  0
    6.0504   -0.1916   -1.7647 N   0  0  0  0  0  0  0  0  0  0  0  0
    6.4857   -0.9633   -0.5786 C   0  0  0  0  0  0  0  0  0  0  0  0
    8.0157   -1.0109   -0.4487 C   0  0  0  0  0  0  0  0  0  0  0  0
    8.5865    0.2881   -0.2342 O   0  0  0  0  0  0  0  0  0  0  0  0
    7.8469    1.3391   -0.8724 C   0  0  0  0  0  0  0  0  0  0  0  0
    7.0375    0.8630   -2.0894 C   0  0  0  0  0  0  0  0  0  0  0  0
    1.2359   -1.2159   -1.6861 C   0  0  0  0  0  0  0  0  0  0  0  0
   -0.1128   -1.0412   -0.9534 C   0  0  0  0  0  0  0  0  0  0  0  0
    1.4774   -1.4495    3.7057 H   0  0  0  0  0  0  0  0  0  0  0  0
    2.1733   -3.0511    3.9897 H   0  0  0  0  0  0  0  0  0  0  0  0
    0.7114   -2.5582    4.8469 H   0  0  0  0  0  0  0  0  0  0  0  0
    1.0404   -3.1681    1.8623 H   0  0  0  0  0  0  0  0  0  0  0  0
    0.1517   -4.1303    2.9862 H   0  0  0  0  0  0  0  0  0  0  0  0
   -1.6918   -4.4817    4.0898 H   0  0  0  0  0  0  0  0  0  0  0  0
   -3.0505   -3.6425    4.8406 H   0  0  0  0  0  0  0  0  0  0  0  0
   -1.4054   -3.1185    5.2174 H   0  0  0  0  0  0  0  0  0  0  0  0
   -5.3440   -0.2851    2.0135 H   0  0  0  0  0  0  0  0  0  0  0  0
   -6.5442    0.8142    0.3288 H   0  0  0  0  0  0  0  0  0  0  0  0
   -9.8666    1.9954   -0.5222 H   0  0  0  0  0  0  0  0  0  0  0  0
   -8.7043    0.6666   -0.6125 H   0  0  0  0  0  0  0  0  0  0  0  0
   -8.5852    1.9134    0.6912 H   0  0  0  0  0  0  0  0  0  0  0  0
   -6.5050    3.8492   -2.6886 H   0  0  0  0  0  0  0  0  0  0  0  0
   -5.0543    4.2113   -4.5321 H   0  0  0  0  0  0  0  0  0  0  0  0
   -4.9095    5.4972   -3.2702 H   0  0  0  0  0  0  0  0  0  0  0  0
   -3.6020    5.2128   -4.4249 H   0  0  0  0  0  0  0  0  0  0  0  0
   -2.8069    2.0937   -1.3720 H   0  0  0  0  0  0  0  0  0  0  0  0
    1.0403    0.2047    1.8552 H   0  0  0  0  0  0  0  0  0  0  0  0
    2.0562   -1.1398    1.3086 H   0  0  0  0  0  0  0  0  0  0  0  0
    1.2045    1.3052   -0.3108 H   0  0  0  0  0  0  0  0  0  0  0  0
    2.7957    1.0064    0.3242 H   0  0  0  0  0  0  0  0  0  0  0  0
    3.7834   -1.3381   -0.5576 H   0  0  0  0  0  0  0  0  0  0  0  0
    3.6758   -1.3723   -2.3170 H   0  0  0  0  0  0  0  0  0  0  0  0
    4.4436    0.9573   -2.4880 H   0  0  0  0  0  0  0  0  0  0  0  0
    4.6836    1.0614   -0.7455 H   0  0  0  0  0  0  0  0  0  0  0  0
    6.0848   -0.5124    0.3395 H   0  0  0  0  0  0  0  0  0  0  0  0
    6.0986   -1.9857   -0.6537 H   0  0  0  0  0  0  0  0  0  0  0  0
    8.4735   -1.4495   -1.3439 H   0  0  0  0  0  0  0  0  0  0  0  0
    8.3020   -1.6383    0.4024 H   0  0  0  0  0  0  0  0  0  0  0  0
    7.1880    1.7921   -0.1225 H   0  0  0  0  0  0  0  0  0  0  0  0
    8.5669    2.1056   -1.1767 H   0  0  0  0  0  0  0  0  0  0  0  0
    7.7345    0.4312   -2.8189 H   0  0  0  0  0  0  0  0  0  0  0  0
    6.5682    1.7183   -2.5896 H   0  0  0  0  0  0  0  0  0  0  0  0
    1.6308   -2.2037   -1.4106 H   0  0  0  0  0  0  0  0  0  0  0  0
    1.0622   -1.2260   -2.7677 H   0  0  0  0  0  0  0  0  0  0  0  0
   -0.5493   -0.0728   -1.2230 H   0  0  0  0  0  0  0  0  0  0  0  0
   -0.7983   -1.8312   -1.2824 H   0  0  0  0  0  0  0  0  0  0  0  0
  1  2  1  0
  2  3  1  0
  3  4  1  0
  4  5  1  0
  4  6  2  0
  6  7  1  0
  7  8  2  0
  8  9  1  0
  9 10  1  0
 10 11  2  0
 11 12  1  0
 12 13  1  0
 13 14  1  0
 12 15  2  0
 15 16  1  0
 16 17  1  0
 17 18  1  0
 16 19  2  0
  9 20  2  0
 20 21  1  0
 21 22  1  0
 22 23  1  0
 23 24  1  0
 24 25  1  0
 25 26  1  0
 26 27  1  0
 27 28  1  0
 28 29  1  0
 29 30  1  0
 30 31  1  0
 31 32  1  0
 32 33  1  0
 33 34  1  0
 26 35  1  0
 35 36  1  0
 22  3  2  0
 36 23  1  0
 21  7  1  0
 34 29  1  0
 19 10  1  0
  1 37  1  0
  1 38  1  0
  1 39  1  0
  2 40  1  0
  2 41  1  0
  5 42  1  0
  5 43  1  0
  5 44  1  0
  8 45  1  0
 11 46  1  0
 14 47  1  0
 14 48  1  0
 14 49  1  0
 15 50  1  0
 18 51  1  0
 18 52  1  0
 18 53  1  0
 19 54  1  0
 24 55  1  0
 24 56  1  0
 25 57  1  0
 25 58  1  0
 27 59  1  0
 27 60  1  0
 28 61  1  0
 28 62  1  0
 30 63  1  0
 30 64  1  0
 31 65  1  0
 31 66  1  0
 33 67  1  0
 33 68  1  0
 34 69  1  0
 34 70  1  0
 35 71  1  0
 35 72  1  0
 36 73  1  0
 36 74  1  0
M  END
$$$$
