
     RDKit          3D

 55 57  0  0  0  0  0  0  0  0999 V2000
   -0.9601   -1.3820   -1.3798 O   0  0  0  0  0  0  0  0  0  0  0  0
   -0.3418   -0.7594   -0.5236 C   0  0  0  0  0  0  0  0  0  0  0  0
   -0.8222   -0.5509    0.7543 N   0  0  0  0  0  0  0  0  0  0  0  0
   -2.1335   -1.0178    1.1671 C   0  0  0  0  0  0  0  0  0  0  0  0
   -3.1791    0.0990    1.1755 C   0  0  0  0  0  0  0  0  0  0  0  0
   -3.4930    0.6421   -0.2243 C   0  0  0  0  0  0  0  0  0  0  0  0
   -4.6074    1.7068   -0.2056 C   0  0  0  0  0  0  0  0  0  0  0  0
   -4.7684    2.3860   -1.5689 C   0  0  0  0  0  0  0  0  0  0  0  0
   -5.6632    1.4575   -2.3778 C   0  0  0  0  0  0  0  0  0  0  0  0
   -6.4512    0.6335   -1.3601 C   0  0  0  0  0  0  0  0  0  0  0  0
   -6.0059    1.1252    0.0147 C   0  0  0  0  0  0  0  0  0  0  0  0
    1.0341   -0.1518   -0.7691 C   0  0  0  0  0  0  0  0  0  0  0  0
    1.4012   -0.1606   -2.2481 C   0  0  0  0  0  0  0  0  0  0  0  0
    2.7964    0.4104   -2.4011 C   0  0  0  0  0  0  0  0  0  0  0  0
    3.8134   -0.4764   -1.7182 C   0  0  0  0  0  0  0  0  0  0  0  0
    4.9658   -0.5538   -2.1488 O   0  0  0  0  0  0  0  0  0  0  0  0
    3.3748   -1.1489   -0.5875 N   0  0  0  0  0  0  0  0  0  0  0  0
    4.3260   -2.0115    0.1186 C   0  0  0  0  0  0  0  0  0  0  0  0
    4.9537   -1.3302    1.3168 C   0  0  0  0  0  0  0  0  0  0  0  0
    4.5021   -1.6043    2.6173 C   0  0  0  0  0  0  0  0  0  0  0  0
    5.0802   -0.9628    3.7157 C   0  0  0  0  0  0  0  0  0  0  0  0
    6.1088   -0.0407    3.5201 C   0  0  0  0  0  0  0  0  0  0  0  0
    6.8090    0.7549    4.8769 Cl  0  0  0  0  0  0  0  0  0  0  0  0
    6.5669    0.2433    2.2355 C   0  0  0  0  0  0  0  0  0  0  0  0
    5.9902   -0.3999    1.1371 C   0  0  0  0  0  0  0  0  0  0  0  0
    2.0922   -0.8735    0.0740 C   0  0  0  0  0  0  0  0  0  0  0  0
   -0.3323    0.0797    1.3775 H   0  0  0  0  0  0  0  0  0  0  0  0
   -2.0149   -1.4074    2.1844 H   0  0  0  0  0  0  0  0  0  0  0  0
   -2.4596   -1.8472    0.5276 H   0  0  0  0  0  0  0  0  0  0  0  0
   -2.8332    0.9210    1.8139 H   0  0  0  0  0  0  0  0  0  0  0  0
   -4.0901   -0.2992    1.6332 H   0  0  0  0  0  0  0  0  0  0  0  0
   -3.7617   -0.1898   -0.8878 H   0  0  0  0  0  0  0  0  0  0  0  0
   -2.5841    1.0968   -0.6388 H   0  0  0  0  0  0  0  0  0  0  0  0
   -4.3738    2.4551    0.5620 H   0  0  0  0  0  0  0  0  0  0  0  0
   -5.2738    3.3488   -1.4360 H   0  0  0  0  0  0  0  0  0  0  0  0
   -3.8185    2.5821   -2.0727 H   0  0  0  0  0  0  0  0  0  0  0  0
   -6.3237    2.0226   -3.0388 H   0  0  0  0  0  0  0  0  0  0  0  0
   -5.0606    0.7969   -3.0067 H   0  0  0  0  0  0  0  0  0  0  0  0
   -6.2207   -0.4354   -1.4825 H   0  0  0  0  0  0  0  0  0  0  0  0
   -7.5357    0.7514   -1.4927 H   0  0  0  0  0  0  0  0  0  0  0  0
   -6.0472    0.3302    0.7640 H   0  0  0  0  0  0  0  0  0  0  0  0
   -6.6831    1.9216    0.3483 H   0  0  0  0  0  0  0  0  0  0  0  0
    0.9788    0.8975   -0.4431 H   0  0  0  0  0  0  0  0  0  0  0  0
    0.6836    0.4317   -2.8227 H   0  0  0  0  0  0  0  0  0  0  0  0
    1.3662   -1.1803   -2.6477 H   0  0  0  0  0  0  0  0  0  0  0  0
    3.0483    0.4636   -3.4664 H   0  0  0  0  0  0  0  0  0  0  0  0
    2.8708    1.4192   -1.9775 H   0  0  0  0  0  0  0  0  0  0  0  0
    5.1249   -2.3402   -0.5571 H   0  0  0  0  0  0  0  0  0  0  0  0
    3.7984   -2.9258    0.4219 H   0  0  0  0  0  0  0  0  0  0  0  0
    3.6930   -2.3142    2.7859 H   0  0  0  0  0  0  0  0  0  0  0  0
    4.7253   -1.1811    4.7212 H   0  0  0  0  0  0  0  0  0  0  0  0
    7.3632    0.9652    2.0808 H   0  0  0  0  0  0  0  0  0  0  0  0
    6.3504   -0.1712    0.1341 H   0  0  0  0  0  0  0  0  0  0  0  0
    2.3134   -0.2518    0.9562 H   0  0  0  0  0  0  0  0  0  0  0  0
    1.7075   -1.8352    0.4484 H   0  0  0  0  0  0  0  0  0  0  0  0
  1  2  2  0
  2  3  1  0
  3  4  1  0
  4  5  1  0
  5  6  1  0
  6  7  1  0
  7  8  1  0
  8  9  1  0
  9 10  1  0
 10 11  1  0
  2 12  1  0
 12 13  1  0
 13 14  1  0
 14 15  1  0
 15 16  2  0
 15 17  1  0
 17 18  1  0
 18 19  1  0
 19 20  2  0
 20 21  1  0
 21 22  2  0
 22 23  1  0
 22 24  1  0
 24 25  2  0
 17 26  1  0
 11  7  1  0
 26 12  1  0
 25 19  1  0
  3 27  1  0
  4 28  1  0
  4 29  1  0
  5 30  1  0
  5 31  1  0
  6 32  1  0
  6 33  1  0
  7 34  1  0
  8 35  1  0
  8 36  1  0
  9 37  1  0
  9 38  1  0
 10 39  1  0
 10 40  1  0
 11 41  1  0
 11 42  1  0
 12 43  1  0
 13 44  1  0
 13 45  1  0
 14 46  1  0
 14 47  1  0
 18 48  1  0
 18 49  1  0
 20 50  1  0
 21 51  1  0
 24 52  1  0
 25 53  1  0
 26 54  1  0
 26 55  1  0
M  END
$$$$
