
     RDKit          3D

 40 41  0  0  0  0  0  0  0  0999 V2000
    1.1127   -3.9643    0.1740 C   0  0  0  0  0  0  0  0  0  0  0  0
    1.3257   -2.5811   -0.1093 O   0  0  0  0  0  0  0  0  0  0  0  0
    1.2539   -1.7826    0.9818 C   0  0  0  0  0  0  0  0  0  0  0  0
    1.0506   -2.1328    2.1333 O   0  0  0  0  0  0  0  0  0  0  0  0
    1.3872   -0.3647    0.5862 C   0  0  0  0  0  0  0  0  0  0  0  0
    2.4230    0.0981   -0.1358 C   0  0  0  0  0  0  0  0  0  0  0  0
    3.5892   -0.7000   -0.6386 C   0  0  0  0  0  0  0  0  0  0  0  0
    2.4937    1.4613   -0.5216 O   0  0  0  0  0  0  0  0  0  0  0  0
    1.6419    2.3785   -0.0024 C   0  0  0  0  0  0  0  0  0  0  0  0
    1.6484    3.5567   -0.5279 N   0  0  0  0  0  0  0  0  0  0  0  0
    0.8418    1.9905    1.2054 C   0  0  0  0  0  0  0  0  0  0  0  0
   -0.2171    2.9550    1.5327 C   0  0  0  0  0  0  0  0  0  0  0  0
   -1.0554    3.6894    1.8595 N   0  0  0  0  0  0  0  0  0  0  0  0
    0.3182    0.5520    1.1172 C   0  0  0  0  0  0  0  0  0  0  0  0
   -0.9931    0.3551    0.3834 C   0  0  0  0  0  0  0  0  0  0  0  0
   -2.1835   -0.1862    0.9636 C   0  0  0  0  0  0  0  0  0  0  0  0
   -2.4044   -0.6594    2.3553 C   0  0  0  0  0  0  0  0  0  0  0  0
   -3.1822   -0.2515    0.0834 N   0  0  0  0  0  0  0  0  0  0  0  0
   -2.6773    0.2782   -1.0371 N   0  0  0  0  0  0  0  0  0  0  0  0
   -3.5430    0.4234   -2.1855 C   0  0  0  0  0  0  0  0  0  0  0  0
   -1.3480    0.6147   -0.9371 C   0  0  0  0  0  0  0  0  0  0  0  0
   -0.5875    1.1585   -2.0929 C   0  0  0  0  0  0  0  0  0  0  0  0
    1.8865   -4.3398    0.8508 H   0  0  0  0  0  0  0  0  0  0  0  0
    1.1777   -4.5169   -0.7674 H   0  0  0  0  0  0  0  0  0  0  0  0
    0.1161   -4.1198    0.5991 H   0  0  0  0  0  0  0  0  0  0  0  0
    3.7173   -1.6490   -0.1110 H   0  0  0  0  0  0  0  0  0  0  0  0
    3.4723   -0.9044   -1.7073 H   0  0  0  0  0  0  0  0  0  0  0  0
    4.5168   -0.1344   -0.4984 H   0  0  0  0  0  0  0  0  0  0  0  0
    2.3154    3.5508   -1.3095 H   0  0  0  0  0  0  0  0  0  0  0  0
    1.5692    2.0301    2.0317 H   0  0  0  0  0  0  0  0  0  0  0  0
    0.1359    0.2634    2.1636 H   0  0  0  0  0  0  0  0  0  0  0  0
   -1.7531   -1.5104    2.5765 H   0  0  0  0  0  0  0  0  0  0  0  0
   -3.4401   -0.9781    2.5132 H   0  0  0  0  0  0  0  0  0  0  0  0
   -2.1877    0.1412    3.0697 H   0  0  0  0  0  0  0  0  0  0  0  0
   -3.2504   -0.3209   -2.9299 H   0  0  0  0  0  0  0  0  0  0  0  0
   -4.5812    0.2619   -1.8831 H   0  0  0  0  0  0  0  0  0  0  0  0
   -3.4334    1.4360   -2.5814 H   0  0  0  0  0  0  0  0  0  0  0  0
   -1.0539    0.9076   -3.0504 H   0  0  0  0  0  0  0  0  0  0  0  0
    0.4226    0.7456   -2.1275 H   0  0  0  0  0  0  0  0  0  0  0  0
   -0.5248    2.2484   -2.0264 H   0  0  0  0  0  0  0  0  0  0  0  0
  1  2  1  0
  2  3  1  0
  3  4  2  0
  3  5  1  0
  5  6  2  0
  6  7  1  0
  6  8  1  0
  8  9  1  0
  9 10  2  3
  9 11  1  0
 11 12  1  0
 12 13  3  0
 11 14  1  0
 14 15  1  0
 15 16  1  0
 16 17  1  0
 16 18  2  0
 18 19  1  0
 19 20  1  0
 19 21  1  0
 21 22  1  0
 14  5  1  0
 21 15  2  0
  1 23  1  0
  1 24  1  0
  1 25  1  0
  7 26  1  0
  7 27  1  0
  7 28  1  0
 10 29  1  0
 11 30  1  0
 14 31  1  0
 17 32  1  0
 17 33  1  0
 17 34  1  0
 20 35  1  0
 20 36  1  0
 20 37  1  0
 22 38  1  0
 22 39  1  0
 22 40  1  0
M  END
$$$$
