
     RDKit          3D

 51 54  0  0  0  0  0  0  0  0999 V2000
    2.7386    2.7262    1.8164 C   0  0  0  0  0  0  0  0  0  0  0  0
    2.9123    2.1546    0.4048 C   0  0  0  0  0  0  0  0  0  0  0  0
    1.7852    2.6319   -0.5265 C   0  0  0  0  0  0  0  0  0  0  0  0
    0.9215    1.4109   -0.5989 C   0  0  0  0  0  0  0  0  0  0  0  0
   -0.3469    1.3337   -1.1589 C   0  0  0  0  0  0  0  0  0  0  0  0
   -0.9713    0.0872   -1.1758 C   0  0  0  0  0  0  0  0  0  0  0  0
   -2.5950   -0.0882   -1.8749 S   0  0  0  0  0  6  0  0  0  0  0  0
   -2.5617   -1.2521   -2.7347 O   0  0  0  0  0  0  0  0  0  0  0  0
   -3.0221    1.2024   -2.3737 O   0  0  0  0  0  0  0  0  0  0  0  0
   -3.5568   -0.4535   -0.5085 N   0  0  0  0  0  0  0  0  0  0  0  0
   -3.5645    0.5825    0.5634 C   0  0  0  0  0  0  0  0  0  0  0  0
   -4.6253    0.2586    1.6083 C   0  0  0  0  0  0  0  0  0  0  0  0
   -6.0274    0.2856    1.0043 C   0  0  0  0  0  0  0  0  0  0  0  0
   -6.0213   -0.0456   -0.4861 C   0  0  0  0  0  0  0  0  0  0  0  0
   -4.9012   -1.0137   -0.8413 C   0  0  0  0  0  0  0  0  0  0  0  0
   -0.3284   -1.0500   -0.6626 C   0  0  0  0  0  0  0  0  0  0  0  0
    0.9557   -0.9495   -0.1099 C   0  0  0  0  0  0  0  0  0  0  0  0
    1.5824    0.2859   -0.0835 C   0  0  0  0  0  0  0  0  0  0  0  0
    2.8442    0.6724    0.4121 N   0  0  0  0  0  0  0  0  0  0  0  0
    3.9370   -0.0677    0.8622 C   0  0  0  0  0  0  0  0  0  0  0  0
    4.9307    0.5281    1.3111 O   0  0  0  0  0  0  0  0  0  0  0  0
    3.9220   -1.6123    0.7657 C   0  0  0  0  0  0  0  0  0  0  0  0
    3.9896   -2.2524   -0.6528 C   0  0  0  0  0  0  0  0  0  0  0  0
    5.5103   -2.3835   -0.4662 C   0  0  0  0  0  0  0  0  0  0  0  0
    5.2592   -2.3640    1.0498 C   0  0  0  0  0  0  0  0  0  0  0  0
    2.7656    3.8207    1.7946 H   0  0  0  0  0  0  0  0  0  0  0  0
    1.7852    2.4170    2.2592 H   0  0  0  0  0  0  0  0  0  0  0  0
    3.5347    2.3861    2.4859 H   0  0  0  0  0  0  0  0  0  0  0  0
    3.8872    2.4728    0.0151 H   0  0  0  0  0  0  0  0  0  0  0  0
    1.2480    3.5038   -0.1420 H   0  0  0  0  0  0  0  0  0  0  0  0
    2.1784    2.8545   -1.5247 H   0  0  0  0  0  0  0  0  0  0  0  0
   -0.8276    2.2146   -1.5748 H   0  0  0  0  0  0  0  0  0  0  0  0
   -2.5868    0.5920    1.0558 H   0  0  0  0  0  0  0  0  0  0  0  0
   -3.7480    1.5772    0.1423 H   0  0  0  0  0  0  0  0  0  0  0  0
   -4.4313   -0.7374    2.0268 H   0  0  0  0  0  0  0  0  0  0  0  0
   -4.5690    0.9668    2.4425 H   0  0  0  0  0  0  0  0  0  0  0  0
   -6.4798    1.2743    1.1466 H   0  0  0  0  0  0  0  0  0  0  0  0
   -6.6625   -0.4253    1.5463 H   0  0  0  0  0  0  0  0  0  0  0  0
   -5.8969    0.8802   -1.0623 H   0  0  0  0  0  0  0  0  0  0  0  0
   -6.9921   -0.4648   -0.7732 H   0  0  0  0  0  0  0  0  0  0  0  0
   -4.9750   -1.2707   -1.9031 H   0  0  0  0  0  0  0  0  0  0  0  0
   -5.0177   -1.9535   -0.2881 H   0  0  0  0  0  0  0  0  0  0  0  0
   -0.8291   -2.0168   -0.6904 H   0  0  0  0  0  0  0  0  0  0  0  0
    1.3973   -1.8487    0.2928 H   0  0  0  0  0  0  0  0  0  0  0  0
    3.1393   -2.0235    1.4150 H   0  0  0  0  0  0  0  0  0  0  0  0
    3.6848   -1.6223   -1.4926 H   0  0  0  0  0  0  0  0  0  0  0  0
    3.4668   -3.2134   -0.7250 H   0  0  0  0  0  0  0  0  0  0  0  0
    5.9616   -3.2964   -0.8625 H   0  0  0  0  0  0  0  0  0  0  0  0
    6.0758   -1.5185   -0.8310 H   0  0  0  0  0  0  0  0  0  0  0  0
    6.0095   -1.8354    1.6435 H   0  0  0  0  0  0  0  0  0  0  0  0
    5.1147   -3.3607    1.4847 H   0  0  0  0  0  0  0  0  0  0  0  0
  1  2  1  0
  2  3  1  0
  3  4  1  0
  4  5  2  0
  5  6  1  0
  6  7  1  0
  7  8  2  0
  7  9  2  0
  7 10  1  0
 10 11  1  0
 11 12  1  0
 12 13  1  0
 13 14  1  0
 14 15  1  0
  6 16  2  0
 16 17  1  0
 17 18  2  0
 18 19  1  0
 19 20  1  0
 20 21  2  0
 20 22  1  0
 22 23  1  0
 23 24  1  0
 24 25  1  0
 19  2  1  0
 25 22  1  0
 18  4  1  0
 15 10  1  0
  1 26  1  0
  1 27  1  0
  1 28  1  0
  2 29  1  0
  3 30  1  0
  3 31  1  0
  5 32  1  0
 11 33  1  0
 11 34  1  0
 12 35  1  0
 12 36  1  0
 13 37  1  0
 13 38  1  0
 14 39  1  0
 14 40  1  0
 15 41  1  0
 15 42  1  0
 16 43  1  0
 17 44  1  0
 22 45  1  0
 23 46  1  0
 23 47  1  0
 24 48  1  0
 24 49  1  0
 25 50  1  0
 25 51  1  0
M  END
$$$$
