
     RDKit          3D

 39 41  0  0  0  0  0  0  0  0999 V2000
   -2.4704   -0.4951   -2.9052 C   0  0  0  0  0  0  0  0  0  0  0  0
   -2.9567   -0.0885   -1.5381 C   0  0  0  0  0  0  0  0  0  0  0  0
   -4.3390    0.0898   -1.3612 C   0  0  0  0  0  0  0  0  0  0  0  0
   -4.8513    0.4882   -0.1334 C   0  0  0  0  0  0  0  0  0  0  0  0
   -3.9907    0.6807    0.9412 C   0  0  0  0  0  0  0  0  0  0  0  0
   -2.6026    0.4836    0.8097 C   0  0  0  0  0  0  0  0  0  0  0  0
   -1.7891    0.6044    2.0711 C   0  0  0  0  0  0  0  0  0  0  0  0
   -2.0719    0.1488   -0.4554 C   0  0  0  0  0  0  0  0  0  0  0  0
   -0.6865   -0.0289   -0.6962 N   0  0  0  0  0  0  0  0  0  0  0  0
    0.3404    0.7481   -0.1843 C   0  0  0  0  0  0  0  0  0  0  0  0
    0.2039    1.7887    0.4494 O   0  0  0  0  0  0  0  0  0  0  0  0
    1.7148    0.2474   -0.6187 C   0  0  0  0  0  0  0  0  0  0  0  0
    1.9653   -1.2623   -0.4209 C   0  0  0  0  0  0  0  0  0  0  0  0
    3.3253   -1.2996    0.3016 C   0  0  0  0  0  0  0  0  0  0  0  0
    3.1121   -0.8798    1.7630 C   0  0  0  0  0  0  0  0  0  0  0  0
    2.8358    0.6246    1.6461 C   0  0  0  0  0  0  0  0  0  0  0  0
    2.9114    0.8829    0.1271 C   0  0  0  0  0  0  0  0  0  0  0  0
    4.0368   -0.0753   -0.2749 C   0  0  0  0  0  0  0  0  0  0  0  0
   -3.2941   -0.5683   -3.6235 H   0  0  0  0  0  0  0  0  0  0  0  0
   -1.9881   -1.4768   -2.8594 H   0  0  0  0  0  0  0  0  0  0  0  0
   -1.7649    0.2458   -3.2953 H   0  0  0  0  0  0  0  0  0  0  0  0
   -5.0272   -0.0701   -2.1884 H   0  0  0  0  0  0  0  0  0  0  0  0
   -5.9206    0.6356   -0.0082 H   0  0  0  0  0  0  0  0  0  0  0  0
   -4.4106    0.9669    1.9039 H   0  0  0  0  0  0  0  0  0  0  0  0
   -0.9069   -0.0420    2.0513 H   0  0  0  0  0  0  0  0  0  0  0  0
   -1.4953    1.6437    2.2419 H   0  0  0  0  0  0  0  0  0  0  0  0
   -2.3756    0.2759    2.9374 H   0  0  0  0  0  0  0  0  0  0  0  0
   -0.4437   -0.5382   -1.5342 H   0  0  0  0  0  0  0  0  0  0  0  0
    1.8026    0.4845   -1.6888 H   0  0  0  0  0  0  0  0  0  0  0  0
    1.1838   -1.7700    0.1537 H   0  0  0  0  0  0  0  0  0  0  0  0
    2.0418   -1.7543   -1.3977 H   0  0  0  0  0  0  0  0  0  0  0  0
    3.8531   -2.2489    0.1923 H   0  0  0  0  0  0  0  0  0  0  0  0
    2.2844   -1.4149    2.2393 H   0  0  0  0  0  0  0  0  0  0  0  0
    4.0171   -1.0524    2.3563 H   0  0  0  0  0  0  0  0  0  0  0  0
    1.8784    0.8972    2.0964 H   0  0  0  0  0  0  0  0  0  0  0  0
    3.6188    1.1876    2.1678 H   0  0  0  0  0  0  0  0  0  0  0  0
    3.0792    1.9318   -0.1275 H   0  0  0  0  0  0  0  0  0  0  0  0
    4.1910   -0.1350   -1.3574 H   0  0  0  0  0  0  0  0  0  0  0  0
    4.9892    0.1441    0.2193 H   0  0  0  0  0  0  0  0  0  0  0  0
  1  2  1  0
  2  3  2  0
  3  4  1  0
  4  5  2  0
  5  6  1  0
  6  7  1  0
  6  8  2  0
  8  9  1  0
  9 10  1  0
 10 11  2  0
 10 12  1  0
 12 13  1  0
 13 14  1  0
 14 15  1  0
 15 16  1  0
 16 17  1  0
 17 18  1  0
  8  2  1  0
 17 12  1  0
 18 14  1  0
  1 19  1  0
  1 20  1  0
  1 21  1  0
  3 22  1  0
  4 23  1  0
  5 24  1  0
  7 25  1  0
  7 26  1  0
  7 27  1  0
  9 28  1  0
 12 29  1  0
 13 30  1  0
 13 31  1  0
 14 32  1  0
 15 33  1  0
 15 34  1  0
 16 35  1  0
 16 36  1  0
 17 37  1  0
 18 38  1  0
 18 39  1  0
M  END
$$$$
