
     RDKit          3D

 40 41  0  0  0  0  0  0  0  0999 V2000
    0.8699    1.4128    2.3410 C   0  0  0  0  0  0  0  0  0  0  0  0
    0.7812   -0.0520    1.9320 C   0  0  0  0  0  0  0  0  0  0  0  0
    0.5588   -0.2828    0.4265 C   0  0  0  0  0  0  0  0  0  0  0  0
    1.6921    0.2465   -0.4706 C   0  0  0  0  0  0  0  0  0  0  0  0
    3.0195   -0.4398   -0.2657 C   0  0  0  0  0  0  0  0  0  0  0  0
    3.2027   -1.7693   -0.6705 C   0  0  0  0  0  0  0  0  0  0  0  0
    4.4282   -2.4074   -0.4734 C   0  0  0  0  0  0  0  0  0  0  0  0
    5.4826   -1.7233    0.1276 C   0  0  0  0  0  0  0  0  0  0  0  0
    5.3132   -0.4002    0.5302 C   0  0  0  0  0  0  0  0  0  0  0  0
    4.0882    0.2397    0.3339 C   0  0  0  0  0  0  0  0  0  0  0  0
   -0.6503    0.3927    0.0082 O   0  0  0  0  0  0  0  0  0  0  0  0
   -1.8054   -0.2978    0.1695 C   0  0  0  0  0  0  0  0  0  0  0  0
   -1.9388   -1.4085    0.6525 O   0  0  0  0  0  0  0  0  0  0  0  0
   -2.9239    0.5208   -0.3381 C   0  0  0  0  0  0  0  0  0  0  0  0
   -3.0310    1.8613    0.0660 C   0  0  0  0  0  0  0  0  0  0  0  0
   -4.1336    2.6252   -0.3222 C   0  0  0  0  0  0  0  0  0  0  0  0
   -5.1388    2.0550   -1.1026 C   0  0  0  0  0  0  0  0  0  0  0  0
   -5.0374    0.7233   -1.5090 C   0  0  0  0  0  0  0  0  0  0  0  0
   -3.9225   -0.0432   -1.1396 C   0  0  0  0  0  0  0  0  0  0  0  0
   -3.8560   -1.4237   -1.6489 C   0  0  0  0  0  0  0  0  0  0  0  0
   -4.7892   -2.1991   -1.7285 O   0  0  0  0  0  0  0  0  0  0  0  0
   -2.6419   -1.7058   -2.1507 O   0  0  0  0  0  0  0  0  0  0  0  0
    1.7400    1.9038    1.8972 H   0  0  0  0  0  0  0  0  0  0  0  0
    0.9673    1.4900    3.4288 H   0  0  0  0  0  0  0  0  0  0  0  0
   -0.0271    1.9656    2.0469 H   0  0  0  0  0  0  0  0  0  0  0  0
    1.6837   -0.5765    2.2649 H   0  0  0  0  0  0  0  0  0  0  0  0
   -0.0576   -0.4941    2.4834 H   0  0  0  0  0  0  0  0  0  0  0  0
    0.4539   -1.3611    0.2480 H   0  0  0  0  0  0  0  0  0  0  0  0
    1.4012    0.1218   -1.5232 H   0  0  0  0  0  0  0  0  0  0  0  0
    1.7960    1.3326   -0.3533 H   0  0  0  0  0  0  0  0  0  0  0  0
    2.3911   -2.3176   -1.1444 H   0  0  0  0  0  0  0  0  0  0  0  0
    4.5599   -3.4389   -0.7896 H   0  0  0  0  0  0  0  0  0  0  0  0
    6.4366   -2.2207    0.2808 H   0  0  0  0  0  0  0  0  0  0  0  0
    6.1361    0.1345    0.9973 H   0  0  0  0  0  0  0  0  0  0  0  0
    3.9753    1.2729    0.6541 H   0  0  0  0  0  0  0  0  0  0  0  0
   -2.2681    2.3090    0.6991 H   0  0  0  0  0  0  0  0  0  0  0  0
   -4.2156    3.6623   -0.0039 H   0  0  0  0  0  0  0  0  0  0  0  0
   -6.0027    2.6476   -1.3958 H   0  0  0  0  0  0  0  0  0  0  0  0
   -5.8235    0.2851   -2.1218 H   0  0  0  0  0  0  0  0  0  0  0  0
   -2.7142   -2.6410   -2.4360 H   0  0  0  0  0  0  0  0  0  0  0  0
  1  2  1  0
  2  3  1  0
  3  4  1  0
  4  5  1  0
  5  6  2  0
  6  7  1  0
  7  8  2  0
  8  9  1  0
  9 10  2  0
  3 11  1  0
 11 12  1  0
 12 13  2  0
 12 14  1  0
 14 15  2  0
 15 16  1  0
 16 17  2  0
 17 18  1  0
 18 19  2  0
 19 20  1  0
 20 21  2  0
 20 22  1  0
 10  5  1  0
 19 14  1  0
  1 23  1  0
  1 24  1  0
  1 25  1  0
  2 26  1  0
  2 27  1  0
  3 28  1  0
  4 29  1  0
  4 30  1  0
  6 31  1  0
  7 32  1  0
  8 33  1  0
  9 34  1  0
 10 35  1  0
 15 36  1  0
 16 37  1  0
 17 38  1  0
 18 39  1  0
 22 40  1  0
M  END
$$$$
