
     RDKit          3D

 44 46  0  0  0  0  0  0  0  0999 V2000
   -2.1466    0.4391   -3.0855 C   0  0  0  0  0  0  0  0  0  0  0  0
   -0.8046    0.8643   -2.8820 O   0  0  0  0  0  0  0  0  0  0  0  0
   -0.4720    1.3250   -1.6299 C   0  0  0  0  0  0  0  0  0  0  0  0
   -1.3997    1.5808   -0.6131 C   0  0  0  0  0  0  0  0  0  0  0  0
   -0.9742    2.0169    0.6500 C   0  0  0  0  0  0  0  0  0  0  0  0
   -1.9346    2.2676    1.7347 C   0  0  0  0  0  0  0  0  0  0  0  0
   -2.8308    1.3852    2.2270 C   0  0  0  0  0  0  0  0  0  0  0  0
   -3.7245    1.8024    3.2601 C   0  0  0  0  0  0  0  0  0  0  0  0
   -4.4093    2.1771    4.1206 N   0  0  0  0  0  0  0  0  0  0  0  0
   -2.9397   -0.0080    1.7612 C   0  0  0  0  0  0  0  0  0  0  0  0
   -1.9075   -0.9219    1.9654 C   0  0  0  0  0  0  0  0  0  0  0  0
   -2.0622   -2.2222    1.4928 C   0  0  0  0  0  0  0  0  0  0  0  0
   -3.2393   -2.5744    0.8433 C   0  0  0  0  0  0  0  0  0  0  0  0
   -4.2147   -1.6048    0.6837 C   0  0  0  0  0  0  0  0  0  0  0  0
   -4.0887   -0.3322    1.1225 N   0  0  0  0  0  0  0  0  0  0  0  0
    0.3853    2.2432    0.8741 C   0  0  0  0  0  0  0  0  0  0  0  0
    1.3176    2.0060   -0.1408 C   0  0  0  0  0  0  0  0  0  0  0  0
    0.9002    1.5369   -1.3901 C   0  0  0  0  0  0  0  0  0  0  0  0
    1.7407    1.2675   -2.4419 O   0  0  0  0  0  0  0  0  0  0  0  0
    3.1327    1.0739   -2.1872 C   0  0  0  0  0  0  0  0  0  0  0  0
    3.4392   -0.2333   -1.4879 C   0  0  0  0  0  0  0  0  0  0  0  0
    2.7241   -1.3993   -1.8038 C   0  0  0  0  0  0  0  0  0  0  0  0
    3.0305   -2.6124   -1.1820 C   0  0  0  0  0  0  0  0  0  0  0  0
    4.0628   -2.6687   -0.2484 C   0  0  0  0  0  0  0  0  0  0  0  0
    4.4461   -4.1653    0.5141 Cl  0  0  0  0  0  0  0  0  0  0  0  0
    4.7909   -1.5233    0.0683 C   0  0  0  0  0  0  0  0  0  0  0  0
    4.4829   -0.3091   -0.5529 C   0  0  0  0  0  0  0  0  0  0  0  0
   -2.2101    0.0032   -4.0863 H   0  0  0  0  0  0  0  0  0  0  0  0
   -2.4315   -0.3362   -2.3670 H   0  0  0  0  0  0  0  0  0  0  0  0
   -2.8366    1.2888   -3.0469 H   0  0  0  0  0  0  0  0  0  0  0  0
   -2.4648    1.4435   -0.7845 H   0  0  0  0  0  0  0  0  0  0  0  0
   -1.8899    3.2758    2.1451 H   0  0  0  0  0  0  0  0  0  0  0  0
   -0.9899   -0.6330    2.4742 H   0  0  0  0  0  0  0  0  0  0  0  0
   -1.2697   -2.9532    1.6303 H   0  0  0  0  0  0  0  0  0  0  0  0
   -3.3911   -3.5806    0.4693 H   0  0  0  0  0  0  0  0  0  0  0  0
   -5.1546   -1.8323    0.1853 H   0  0  0  0  0  0  0  0  0  0  0  0
    0.7360    2.5996    1.8402 H   0  0  0  0  0  0  0  0  0  0  0  0
    2.3608    2.1990    0.0794 H   0  0  0  0  0  0  0  0  0  0  0  0
    3.6268    1.0388   -3.1660 H   0  0  0  0  0  0  0  0  0  0  0  0
    3.5613    1.9389   -1.6695 H   0  0  0  0  0  0  0  0  0  0  0  0
    1.9174   -1.3628   -2.5359 H   0  0  0  0  0  0  0  0  0  0  0  0
    2.4640   -3.5041   -1.4342 H   0  0  0  0  0  0  0  0  0  0  0  0
    5.6018   -1.5712    0.7907 H   0  0  0  0  0  0  0  0  0  0  0  0
    5.0654    0.5747   -0.3029 H   0  0  0  0  0  0  0  0  0  0  0  0
  1  2  1  0
  2  3  1  0
  3  4  2  0
  4  5  1  0
  5  6  1  0
  6  7  2  3
  7  8  1  0
  8  9  3  0
  7 10  1  0
 10 11  2  0
 11 12  1  0
 12 13  2  0
 13 14  1  0
 14 15  2  0
  5 16  2  0
 16 17  1  0
 17 18  2  0
 18 19  1  0
 19 20  1  0
 20 21  1  0
 21 22  2  0
 22 23  1  0
 23 24  2  0
 24 25  1  0
 24 26  1  0
 26 27  2  0
 18  3  1  0
 27 21  1  0
 15 10  1  0
  1 28  1  0
  1 29  1  0
  1 30  1  0
  4 31  1  0
  6 32  1  0
 11 33  1  0
 12 34  1  0
 13 35  1  0
 14 36  1  0
 16 37  1  0
 17 38  1  0
 20 39  1  0
 20 40  1  0
 22 41  1  0
 23 42  1  0
 26 43  1  0
 27 44  1  0
M  END
$$$$
