
     RDKit          3D

 53 58  0  0  0  0  0  0  0  0999 V2000
    1.3110   -1.6711    0.5972 C   0  0  0  0  0  0  0  0  0  0  0  0
    0.4009   -0.6057   -0.0424 C   0  0  0  0  0  0  0  0  0  0  0  0
    0.6354   -0.5189   -1.5612 C   0  0  0  0  0  0  0  0  0  0  0  0
   -0.1601   -0.9727   -2.3889 O   0  0  0  0  0  0  0  0  0  0  0  0
    1.8241   -0.0672   -2.0541 N   0  0  0  0  0  0  0  0  0  0  0  0
    2.9614    0.4327   -1.4064 C   0  0  0  0  0  0  0  0  0  0  0  0
    4.1490    0.3359   -2.1575 C   0  0  0  0  0  0  0  0  0  0  0  0
    5.3771    0.7422   -1.6330 C   0  0  0  0  0  0  0  0  0  0  0  0
    5.4306    1.2695   -0.3518 C   0  0  0  0  0  0  0  0  0  0  0  0
    6.9377    1.7700    0.3060 Cl  0  0  0  0  0  0  0  0  0  0  0  0
    4.2639    1.4101    0.3927 C   0  0  0  0  0  0  0  0  0  0  0  0
    3.0154    1.0036   -0.1267 C   0  0  0  0  0  0  0  0  0  0  0  0
    1.8376    1.3719    0.6998 C   0  0  0  0  0  0  0  0  0  0  0  0
    1.9718    2.2909    1.5088 O   0  0  0  0  0  0  0  0  0  0  0  0
    0.6270    0.7353    0.5390 N   0  0  0  0  0  0  0  0  0  0  0  0
   -0.5638    1.2477    1.2258 C   0  0  0  0  0  0  0  0  0  0  0  0
   -1.3347    2.2596    0.4004 C   0  0  0  0  0  0  0  0  0  0  0  0
   -0.7082    3.4069   -0.1172 C   0  0  0  0  0  0  0  0  0  0  0  0
   -1.4228    4.3207   -0.8936 C   0  0  0  0  0  0  0  0  0  0  0  0
   -0.6271    5.7069   -1.5312 Cl  0  0  0  0  0  0  0  0  0  0  0  0
   -2.7728    4.1174   -1.1593 C   0  0  0  0  0  0  0  0  0  0  0  0
   -3.4136    2.9986   -0.6310 C   0  0  0  0  0  0  0  0  0  0  0  0
   -2.7047    2.0897    0.1583 C   0  0  0  0  0  0  0  0  0  0  0  0
   -3.4304    1.0277    0.6247 O   0  0  0  0  0  0  0  0  0  0  0  0
   -2.8421    0.3545    1.7360 C   0  0  0  0  0  0  0  0  0  0  0  0
   -1.3854   -0.0060    1.5068 C   0  0  0  0  0  0  0  0  0  0  0  0
   -1.1217   -0.8795    0.2557 C   0  0  0  0  0  0  0  0  0  0  0  0
   -1.5684   -2.3307    0.3762 C   0  0  0  0  0  0  0  0  0  0  0  0
   -1.5017   -3.0631    1.5721 C   0  0  0  0  0  0  0  0  0  0  0  0
   -1.9234   -4.3950    1.6238 C   0  0  0  0  0  0  0  0  0  0  0  0
   -2.4186   -5.0183    0.4825 C   0  0  0  0  0  0  0  0  0  0  0  0
   -2.4918   -4.3105   -0.7124 C   0  0  0  0  0  0  0  0  0  0  0  0
   -2.0706   -2.9801   -0.7641 C   0  0  0  0  0  0  0  0  0  0  0  0
    2.3761   -1.4800    0.4500 H   0  0  0  0  0  0  0  0  0  0  0  0
    1.1300   -2.6603    0.1626 H   0  0  0  0  0  0  0  0  0  0  0  0
    1.1561   -1.7273    1.6801 H   0  0  0  0  0  0  0  0  0  0  0  0
    1.8894   -0.2451   -3.0509 H   0  0  0  0  0  0  0  0  0  0  0  0
    4.1380   -0.0864   -3.1613 H   0  0  0  0  0  0  0  0  0  0  0  0
    6.2812    0.6414   -2.2283 H   0  0  0  0  0  0  0  0  0  0  0  0
    4.3200    1.8655    1.3810 H   0  0  0  0  0  0  0  0  0  0  0  0
   -0.2873    1.7293    2.1721 H   0  0  0  0  0  0  0  0  0  0  0  0
    0.3428    3.5976    0.0838 H   0  0  0  0  0  0  0  0  0  0  0  0
   -3.3305    4.8233   -1.7680 H   0  0  0  0  0  0  0  0  0  0  0  0
   -4.4701    2.8348   -0.8280 H   0  0  0  0  0  0  0  0  0  0  0  0
   -2.9534    0.9844    2.6281 H   0  0  0  0  0  0  0  0  0  0  0  0
   -3.4329   -0.5501    1.9148 H   0  0  0  0  0  0  0  0  0  0  0  0
   -0.9819   -0.4858    2.4063 H   0  0  0  0  0  0  0  0  0  0  0  0
   -1.7155   -0.4501   -0.5638 H   0  0  0  0  0  0  0  0  0  0  0  0
   -1.1123   -2.6240    2.4859 H   0  0  0  0  0  0  0  0  0  0  0  0
   -1.8632   -4.9472    2.5584 H   0  0  0  0  0  0  0  0  0  0  0  0
   -2.7469   -6.0533    0.5237 H   0  0  0  0  0  0  0  0  0  0  0  0
   -2.8779   -4.7901   -1.6081 H   0  0  0  0  0  0  0  0  0  0  0  0
   -2.1428   -2.4501   -1.7134 H   0  0  0  0  0  0  0  0  0  0  0  0
  1  2  1  0
  2  3  1  0
  3  4  2  0
  3  5  1  0
  5  6  1  0
  6  7  2  0
  7  8  1  0
  8  9  2  0
  9 10  1  0
  9 11  1  0
 11 12  2  0
 12 13  1  0
 13 14  2  0
 13 15  1  0
 15 16  1  0
 16 17  1  0
 17 18  2  0
 18 19  1  0
 19 20  1  0
 19 21  2  0
 21 22  1  0
 22 23  2  0
 23 24  1  0
 24 25  1  0
 25 26  1  0
 26 27  1  0
 27 28  1  0
 28 29  2  0
 29 30  1  0
 30 31  2  0
 31 32  1  0
 32 33  2  0
 15  2  1  0
 26 16  1  0
 33 28  1  0
 27  2  1  0
 12  6  1  0
 23 17  1  0
  1 34  1  0
  1 35  1  0
  1 36  1  0
  5 37  1  0
  7 38  1  0
  8 39  1  0
 11 40  1  0
 16 41  1  0
 18 42  1  0
 21 43  1  0
 22 44  1  0
 25 45  1  0
 25 46  1  0
 26 47  1  0
 27 48  1  0
 29 49  1  0
 30 50  1  0
 31 51  1  0
 32 52  1  0
 33 53  1  0
M  END
$$$$
