
     RDKit          3D

 43 45  0  0  0  0  0  0  0  0999 V2000
   -3.6466   -2.4321    1.7601 C   0  0  0  0  0  0  0  0  0  0  0  0
   -4.4284   -1.3356    1.0965 C   0  0  0  0  0  0  0  0  0  0  0  0
   -5.8225   -1.4407    1.0053 C   0  0  0  0  0  0  0  0  0  0  0  0
   -6.5709   -0.4346    0.3955 C   0  0  0  0  0  0  0  0  0  0  0  0
   -5.9369    0.6942   -0.1229 C   0  0  0  0  0  0  0  0  0  0  0  0
   -4.5445    0.8279   -0.0448 C   0  0  0  0  0  0  0  0  0  0  0  0
   -3.8855    2.0580   -0.6006 C   0  0  0  0  0  0  0  0  0  0  0  0
   -3.7985   -0.2173    0.5249 C   0  0  0  0  0  0  0  0  0  0  0  0
   -2.4315   -0.1079    0.5937 O   0  0  0  0  0  0  0  0  0  0  0  0
   -1.8281   -0.6831   -0.5723 C   0  0  0  0  0  0  0  0  0  0  0  0
   -0.3639   -0.5320   -0.4136 C   0  0  0  0  0  0  0  0  0  0  0  0
    0.5030   -0.5774    0.6494 C   0  0  0  0  0  0  0  0  0  0  0  0
    1.7912   -0.3518    0.0888 C   0  0  0  0  0  0  0  0  0  0  0  0
    3.0564   -0.3230    0.8445 C   0  0  0  0  0  0  0  0  0  0  0  0
    3.0652   -0.7190    2.0132 O   0  0  0  0  0  0  0  0  0  0  0  0
    4.2403    0.1513    0.2536 N   0  0  0  0  0  0  0  0  0  0  0  0
    5.4252    0.2093    1.1085 C   0  0  0  0  0  0  0  0  0  0  0  0
    6.7125    0.2677    0.2942 C   0  0  0  0  0  0  0  0  0  0  0  0
    6.6914    1.3775   -0.6257 N   0  0  0  0  0  0  0  0  0  0  0  0
    5.5719    1.6768   -1.3558 C   0  0  0  0  0  0  0  0  0  0  0  0
    5.6467    2.4685   -2.2935 O   0  0  0  0  0  0  0  0  0  0  0  0
    4.2604    0.9664   -0.9748 C   0  0  0  0  0  0  0  0  0  0  0  0
    1.6896   -0.2114   -1.2438 N   0  0  0  0  0  0  0  0  0  0  0  0
    0.3484   -0.3154   -1.5497 O   0  0  0  0  0  0  0  0  0  0  0  0
   -4.2665   -2.9758    2.4813 H   0  0  0  0  0  0  0  0  0  0  0  0
   -3.2844   -3.1420    1.0100 H   0  0  0  0  0  0  0  0  0  0  0  0
   -2.7936   -2.0285    2.3155 H   0  0  0  0  0  0  0  0  0  0  0  0
   -6.3369   -2.3064    1.4180 H   0  0  0  0  0  0  0  0  0  0  0  0
   -7.6526   -0.5248    0.3342 H   0  0  0  0  0  0  0  0  0  0  0  0
   -6.5391    1.4756   -0.5812 H   0  0  0  0  0  0  0  0  0  0  0  0
   -3.0523    2.3773    0.0340 H   0  0  0  0  0  0  0  0  0  0  0  0
   -3.5156    1.8630   -1.6120 H   0  0  0  0  0  0  0  0  0  0  0  0
   -4.5900    2.8954   -0.6472 H   0  0  0  0  0  0  0  0  0  0  0  0
   -2.0737   -1.7484   -0.6545 H   0  0  0  0  0  0  0  0  0  0  0  0
   -2.1640   -0.1651   -1.4778 H   0  0  0  0  0  0  0  0  0  0  0  0
    0.2554   -0.7401    1.6886 H   0  0  0  0  0  0  0  0  0  0  0  0
    5.4513   -0.6608    1.7736 H   0  0  0  0  0  0  0  0  0  0  0  0
    5.3263    1.1057    1.7340 H   0  0  0  0  0  0  0  0  0  0  0  0
    6.8383   -0.6459   -0.2967 H   0  0  0  0  0  0  0  0  0  0  0  0
    7.5819    0.3866    0.9470 H   0  0  0  0  0  0  0  0  0  0  0  0
    7.5534    1.7741   -0.9804 H   0  0  0  0  0  0  0  0  0  0  0  0
    3.4913    1.7412   -0.8813 H   0  0  0  0  0  0  0  0  0  0  0  0
    4.0258    0.3025   -1.8128 H   0  0  0  0  0  0  0  0  0  0  0  0
  1  2  1  0
  2  3  2  0
  3  4  1  0
  4  5  2  0
  5  6  1  0
  6  7  1  0
  6  8  2  0
  8  9  1  0
  9 10  1  0
 10 11  1  0
 11 12  2  0
 12 13  1  0
 13 14  1  0
 14 15  2  0
 14 16  1  0
 16 17  1  0
 17 18  1  0
 18 19  1  0
 19 20  1  0
 20 21  2  0
 20 22  1  0
 13 23  2  0
 23 24  1  0
  8  2  1  0
 24 11  1  0
 22 16  1  0
  1 25  1  0
  1 26  1  0
  1 27  1  0
  3 28  1  0
  4 29  1  0
  5 30  1  0
  7 31  1  0
  7 32  1  0
  7 33  1  0
 10 34  1  0
 10 35  1  0
 12 36  1  0
 17 37  1  0
 17 38  1  0
 18 39  1  0
 18 40  1  0
 19 41  1  0
 22 42  1  0
 22 43  1  0
M  END
$$$$
