
     RDKit          3D

 53 56  0  0  0  0  0  0  0  0999 V2000
    6.5494   -1.6882    2.8511 C   0  0  0  0  0  0  0  0  0  0  0  0
    6.9296   -0.9786    1.5633 C   0  0  0  0  0  0  0  0  0  0  0  0
    6.1823   -1.4932    0.4626 O   0  0  0  0  0  0  0  0  0  0  0  0
    4.9871   -0.9131    0.1474 C   0  0  0  0  0  0  0  0  0  0  0  0
    4.4120   -1.3750   -1.0357 C   0  0  0  0  0  0  0  0  0  0  0  0
    3.1841   -0.8714   -1.4795 C   0  0  0  0  0  0  0  0  0  0  0  0
    2.4852    0.1033   -0.7480 C   0  0  0  0  0  0  0  0  0  0  0  0
    1.1848    0.6175   -1.2255 C   0  0  0  0  0  0  0  0  0  0  0  0
    0.1755    1.0242   -0.3706 C   0  0  0  0  0  0  0  0  0  0  0  0
   -1.0169    1.4854   -0.9280 C   0  0  0  0  0  0  0  0  0  0  0  0
   -2.0839    1.8989    0.0032 C   0  0  0  0  0  0  0  0  0  0  0  0
   -2.3046    3.0992    0.1311 O   0  0  0  0  0  0  0  0  0  0  0  0
   -2.7652    0.9070    0.6942 N   0  0  0  0  0  0  0  0  0  0  0  0
   -2.6291   -0.5356    0.4496 C   0  0  0  0  0  0  0  0  0  0  0  0
   -3.8894   -1.3120    0.8726 C   0  0  0  0  0  0  0  0  0  0  0  0
   -4.2297   -1.1336    2.2971 N   0  0  0  0  0  0  0  0  0  0  0  0
   -5.6087   -1.5390    2.5546 C   0  0  0  0  0  0  0  0  0  0  0  0
   -3.9584    0.2377    2.7776 C   0  0  0  0  0  0  0  0  0  0  0  0
   -3.7741    1.2999    1.6782 C   0  0  0  0  0  0  0  0  0  0  0  0
   -1.1957    1.5688   -2.3215 C   0  0  0  0  0  0  0  0  0  0  0  0
   -2.3668    2.0493   -2.9586 C   0  0  0  0  0  0  0  0  0  0  0  0
   -2.4624    2.0821   -4.3479 C   0  0  0  0  0  0  0  0  0  0  0  0
   -1.3955    1.6366   -5.1152 C   0  0  0  0  0  0  0  0  0  0  0  0
   -0.2400    1.1642   -4.4873 C   0  0  0  0  0  0  0  0  0  0  0  0
   -0.1183    1.1228   -3.1045 C   0  0  0  0  0  0  0  0  0  0  0  0
    1.0243    0.6525   -2.5727 N   0  0  0  0  0  0  0  0  0  0  0  0
    3.0825    0.5591    0.4409 C   0  0  0  0  0  0  0  0  0  0  0  0
    4.3152    0.0565    0.8859 C   0  0  0  0  0  0  0  0  0  0  0  0
    7.1728   -1.3431    3.6809 H   0  0  0  0  0  0  0  0  0  0  0  0
    5.5002   -1.5163    3.1088 H   0  0  0  0  0  0  0  0  0  0  0  0
    6.6756   -2.7707    2.7432 H   0  0  0  0  0  0  0  0  0  0  0  0
    7.9828   -1.1934    1.3491 H   0  0  0  0  0  0  0  0  0  0  0  0
    6.8581    0.1113    1.6489 H   0  0  0  0  0  0  0  0  0  0  0  0
    4.9243   -2.1315   -1.6253 H   0  0  0  0  0  0  0  0  0  0  0  0
    2.7697   -1.2516   -2.4122 H   0  0  0  0  0  0  0  0  0  0  0  0
    0.2886    0.9769    0.7068 H   0  0  0  0  0  0  0  0  0  0  0  0
   -1.7607   -0.8832    1.0216 H   0  0  0  0  0  0  0  0  0  0  0  0
   -2.4288   -0.7141   -0.6115 H   0  0  0  0  0  0  0  0  0  0  0  0
   -4.7215   -0.9780    0.2375 H   0  0  0  0  0  0  0  0  0  0  0  0
   -3.7358   -2.3788    0.6731 H   0  0  0  0  0  0  0  0  0  0  0  0
   -6.3303   -0.8916    2.0436 H   0  0  0  0  0  0  0  0  0  0  0  0
   -5.8221   -1.5144    3.6289 H   0  0  0  0  0  0  0  0  0  0  0  0
   -5.7755   -2.5708    2.2257 H   0  0  0  0  0  0  0  0  0  0  0  0
   -3.0241    0.1856    3.3518 H   0  0  0  0  0  0  0  0  0  0  0  0
   -4.7238    0.5772    3.4864 H   0  0  0  0  0  0  0  0  0  0  0  0
   -3.4963    2.2582    2.1309 H   0  0  0  0  0  0  0  0  0  0  0  0
   -4.7150    1.4525    1.1356 H   0  0  0  0  0  0  0  0  0  0  0  0
   -3.2077    2.4131   -2.3702 H   0  0  0  0  0  0  0  0  0  0  0  0
   -3.3631    2.4595   -4.8253 H   0  0  0  0  0  0  0  0  0  0  0  0
   -1.4528    1.6588   -6.2004 H   0  0  0  0  0  0  0  0  0  0  0  0
    0.5937    0.8211   -5.0963 H   0  0  0  0  0  0  0  0  0  0  0  0
    2.6046    1.3330    1.0380 H   0  0  0  0  0  0  0  0  0  0  0  0
    4.7136    0.4476    1.8156 H   0  0  0  0  0  0  0  0  0  0  0  0
  1  2  1  0
  2  3  1  0
  3  4  1  0
  4  5  2  0
  5  6  1  0
  6  7  2  0
  7  8  1  0
  8  9  2  0
  9 10  1  0
 10 11  1  0
 11 12  2  0
 11 13  1  0
 13 14  1  0
 14 15  1  0
 15 16  1  0
 16 17  1  0
 16 18  1  0
 18 19  1  0
 10 20  2  0
 20 21  1  0
 21 22  2  0
 22 23  1  0
 23 24  2  0
 24 25  1  0
 25 26  2  0
  7 27  1  0
 27 28  2  0
 28  4  1  0
 26  8  1  0
 19 13  1  0
 25 20  1  0
  1 29  1  0
  1 30  1  0
  1 31  1  0
  2 32  1  0
  2 33  1  0
  5 34  1  0
  6 35  1  0
  9 36  1  0
 14 37  1  0
 14 38  1  0
 15 39  1  0
 15 40  1  0
 17 41  1  0
 17 42  1  0
 17 43  1  0
 18 44  1  0
 18 45  1  0
 19 46  1  0
 19 47  1  0
 21 48  1  0
 22 49  1  0
 23 50  1  0
 24 51  1  0
 27 52  1  0
 28 53  1  0
M  END
$$$$
