
     RDKit          3D

 65 68  0  0  0  0  0  0  0  0999 V2000
   -6.9249   -2.1943    3.7988 C   0  0  0  0  0  0  0  0  0  0  0  0
   -6.6743   -0.9710    2.9670 C   0  0  0  0  0  0  0  0  0  0  0  0
   -7.7429   -0.2398    2.4365 C   0  0  0  0  0  0  0  0  0  0  0  0
   -7.5093    0.9188    1.6918 C   0  0  0  0  0  0  0  0  0  0  0  0
   -6.2023    1.3721    1.4753 C   0  0  0  0  0  0  0  0  0  0  0  0
   -5.9426    2.6148    0.6553 C   0  0  0  0  0  0  0  0  0  0  0  0
   -6.1305    2.3863   -0.8488 C   0  0  0  0  0  0  0  0  0  0  0  0
   -5.2459    1.3692   -1.3880 N   0  0  0  0  0  0  0  0  0  0  0  0
   -3.9076    1.6196   -1.5999 C   0  0  0  0  0  0  0  0  0  0  0  0
   -3.3975    2.7248   -1.4588 O   0  0  0  0  0  0  0  0  0  0  0  0
   -3.1420    0.3904   -2.0489 C   0  0  0  0  0  0  0  0  0  0  0  0
   -1.6268    0.5748   -2.0177 C   0  0  0  0  0  0  0  0  0  0  0  0
   -1.0833    0.6574   -0.5888 C   0  0  0  0  0  0  0  0  0  0  0  0
    0.3756    0.6331   -0.5716 N   0  0  0  0  0  0  0  0  0  0  0  0
    1.0022    1.8819   -0.6056 N   0  0  0  0  0  0  0  0  0  0  0  0
    2.3011    1.9848   -0.6382 C   0  0  0  0  0  0  0  0  0  0  0  0
    2.9064    3.3599   -0.6536 C   0  0  0  0  0  0  0  0  0  0  0  0
    3.1051    0.7870   -0.6641 C   0  0  0  0  0  0  0  0  0  0  0  0
    4.4640    0.5385   -0.7706 C   0  0  0  0  0  0  0  0  0  0  0  0
    5.5847    1.4799   -1.0293 C   0  0  0  0  0  0  0  0  0  0  0  0
    4.5982   -0.8512   -0.6492 N   0  0  0  0  0  0  0  0  0  0  0  0
    5.7650   -1.6653   -0.5003 C   0  0  0  0  0  0  0  0  0  0  0  0
    5.6640   -3.0452   -0.7504 C   0  0  0  0  0  0  0  0  0  0  0  0
    6.7796   -3.8789   -0.6255 C   0  0  0  0  0  0  0  0  0  0  0  0
    8.0128   -3.3547   -0.2295 C   0  0  0  0  0  0  0  0  0  0  0  0
    9.2216   -4.2345   -0.1091 C   0  0  0  0  0  0  0  0  0  0  0  0
    8.1110   -1.9859    0.0420 C   0  0  0  0  0  0  0  0  0  0  0  0
    6.9953   -1.1484   -0.0816 C   0  0  0  0  0  0  0  0  0  0  0  0
    3.3819   -1.4621   -0.6911 N   0  0  0  0  0  0  0  0  0  0  0  0
    2.4910   -0.4698   -0.6366 C   0  0  0  0  0  0  0  0  0  0  0  0
    1.0410   -0.6107   -0.5960 C   0  0  0  0  0  0  0  0  0  0  0  0
    0.4578   -1.6934   -0.5919 O   0  0  0  0  0  0  0  0  0  0  0  0
   -5.1343    0.6471    2.0184 C   0  0  0  0  0  0  0  0  0  0  0  0
   -5.3690   -0.5115    2.7620 C   0  0  0  0  0  0  0  0  0  0  0  0
   -6.9729   -1.9228    4.8579 H   0  0  0  0  0  0  0  0  0  0  0  0
   -6.1277   -2.9315    3.6562 H   0  0  0  0  0  0  0  0  0  0  0  0
   -7.8668   -2.6755    3.5150 H   0  0  0  0  0  0  0  0  0  0  0  0
   -8.7667   -0.5667    2.6020 H   0  0  0  0  0  0  0  0  0  0  0  0
   -8.3567    1.4684    1.2882 H   0  0  0  0  0  0  0  0  0  0  0  0
   -6.6244    3.4059    0.9911 H   0  0  0  0  0  0  0  0  0  0  0  0
   -4.9296    2.9851    0.8562 H   0  0  0  0  0  0  0  0  0  0  0  0
   -7.1545    2.0684   -1.0723 H   0  0  0  0  0  0  0  0  0  0  0  0
   -5.9452    3.3244   -1.3840 H   0  0  0  0  0  0  0  0  0  0  0  0
   -5.5460    0.4052   -1.3008 H   0  0  0  0  0  0  0  0  0  0  0  0
   -3.4538    0.1750   -3.0778 H   0  0  0  0  0  0  0  0  0  0  0  0
   -3.4287   -0.4648   -1.4256 H   0  0  0  0  0  0  0  0  0  0  0  0
   -1.1673   -0.2771   -2.5345 H   0  0  0  0  0  0  0  0  0  0  0  0
   -1.3331    1.4716   -2.5775 H   0  0  0  0  0  0  0  0  0  0  0  0
   -1.4515   -0.1904    0.0011 H   0  0  0  0  0  0  0  0  0  0  0  0
   -1.4184    1.5721   -0.0871 H   0  0  0  0  0  0  0  0  0  0  0  0
    2.1496    4.1107   -0.4055 H   0  0  0  0  0  0  0  0  0  0  0  0
    3.2944    3.5768   -1.6529 H   0  0  0  0  0  0  0  0  0  0  0  0
    3.7150    3.4276    0.0795 H   0  0  0  0  0  0  0  0  0  0  0  0
    6.3837    1.0186   -1.6178 H   0  0  0  0  0  0  0  0  0  0  0  0
    5.9930    1.8626   -0.0879 H   0  0  0  0  0  0  0  0  0  0  0  0
    5.2480    2.3362   -1.6190 H   0  0  0  0  0  0  0  0  0  0  0  0
    4.7184   -3.4902   -1.0592 H   0  0  0  0  0  0  0  0  0  0  0  0
    6.6711   -4.9407   -0.8393 H   0  0  0  0  0  0  0  0  0  0  0  0
    9.9431   -3.9924   -0.8965 H   0  0  0  0  0  0  0  0  0  0  0  0
    9.6963   -4.0968    0.8682 H   0  0  0  0  0  0  0  0  0  0  0  0
    8.9561   -5.2933   -0.2021 H   0  0  0  0  0  0  0  0  0  0  0  0
    9.0605   -1.5630    0.3662 H   0  0  0  0  0  0  0  0  0  0  0  0
    7.1244   -0.1112    0.2030 H   0  0  0  0  0  0  0  0  0  0  0  0
   -4.1107    0.9837    1.8698 H   0  0  0  0  0  0  0  0  0  0  0  0
   -4.5246   -1.0521    3.1836 H   0  0  0  0  0  0  0  0  0  0  0  0
  1  2  1  0
  2  3  2  0
  3  4  1  0
  4  5  2  0
  5  6  1  0
  6  7  1  0
  7  8  1  0
  8  9  1  0
  9 10  2  0
  9 11  1  0
 11 12  1  0
 12 13  1  0
 13 14  1  0
 14 15  1  0
 15 16  2  0
 16 17  1  0
 16 18  1  0
 18 19  2  0
 19 20  1  0
 19 21  1  0
 21 22  1  0
 22 23  2  0
 23 24  1  0
 24 25  2  0
 25 26  1  0
 25 27  1  0
 27 28  2  0
 21 29  1  0
 29 30  2  0
 30 31  1  0
 31 32  2  0
  5 33  1  0
 33 34  2  0
 34  2  1  0
 31 14  1  0
 30 18  1  0
 28 22  1  0
  1 35  1  0
  1 36  1  0
  1 37  1  0
  3 38  1  0
  4 39  1  0
  6 40  1  0
  6 41  1  0
  7 42  1  0
  7 43  1  0
  8 44  1  0
 11 45  1  0
 11 46  1  0
 12 47  1  0
 12 48  1  0
 13 49  1  0
 13 50  1  0
 17 51  1  0
 17 52  1  0
 17 53  1  0
 20 54  1  0
 20 55  1  0
 20 56  1  0
 23 57  1  0
 24 58  1  0
 26 59  1  0
 26 60  1  0
 26 61  1  0
 27 62  1  0
 28 63  1  0
 33 64  1  0
 34 65  1  0
M  END
$$$$
