
     RDKit          3D

 69 71  0  0  0  0  0  0  0  0999 V2000
   -0.1014    2.5459    3.0798 C   0  0  0  0  0  0  0  0  0  0  0  0
   -0.9064    1.8077    2.0223 C   0  0  0  0  0  0  0  0  0  0  0  0
   -2.0050    0.9518    2.6576 C   0  0  0  0  0  0  0  0  0  0  0  0
   -2.8104    0.2220    1.6740 N   0  0  0  0  0  0  0  0  0  0  0  0
   -4.1106    0.7887    1.3010 C   0  0  0  0  0  0  0  0  0  0  0  0
   -4.0001    1.8697    0.2275 C   0  0  0  0  0  0  0  0  0  0  0  0
   -5.3709    2.3201   -0.2501 C   0  0  0  0  0  0  0  0  0  0  0  0
   -2.2368   -0.9002    1.0667 C   0  0  0  0  0  0  0  0  0  0  0  0
   -1.1125   -1.2965    1.3860 O   0  0  0  0  0  0  0  0  0  0  0  0
   -3.0847   -1.6479    0.0252 C   0  0  0  0  0  0  0  0  0  0  0  0
   -2.2912   -2.6536   -0.6806 N   0  0  0  0  0  0  0  0  0  0  0  0
   -1.5272   -2.2045   -1.7639 C   0  0  0  0  0  0  0  0  0  0  0  0
   -1.5980   -1.0290   -2.1353 O   0  0  0  0  0  0  0  0  0  0  0  0
   -0.6988   -3.1342   -2.4035 N   0  0  0  0  0  0  0  0  0  0  0  0
    0.1367   -2.6665   -3.5088 C   0  0  0  0  0  0  0  0  0  0  0  0
    1.6039   -2.4530   -3.1040 C   0  0  0  0  0  0  0  0  0  0  0  0
    1.8365   -1.3710   -2.0442 C   0  0  0  0  0  0  0  0  0  0  0  0
    1.5798    0.0483   -2.5615 C   0  0  0  0  0  0  0  0  0  0  0  0
    1.7187    1.0912   -1.4530 C   0  0  0  0  0  0  0  0  0  0  0  0
    3.1602    1.3672   -1.0461 C   0  0  0  0  0  0  0  0  0  0  0  0
    4.1106    1.0142   -1.7332 O   0  0  0  0  0  0  0  0  0  0  0  0
    3.2203    2.0876    0.1370 N   0  0  0  0  0  0  0  0  0  0  0  0
    4.3717    2.5497    0.8075 C   0  0  0  0  0  0  0  0  0  0  0  0
    4.1752    3.2747    1.9910 C   0  0  0  0  0  0  0  0  0  0  0  0
    5.2629    3.7721    2.7146 C   0  0  0  0  0  0  0  0  0  0  0  0
    6.5597    3.5473    2.2618 C   0  0  0  0  0  0  0  0  0  0  0  0
    6.7656    2.8261    1.0883 C   0  0  0  0  0  0  0  0  0  0  0  0
    5.6764    2.3296    0.3638 C   0  0  0  0  0  0  0  0  0  0  0  0
   -0.5997   -4.4906   -2.0639 C   0  0  0  0  0  0  0  0  0  0  0  0
    0.0959   -5.2842   -2.6965 O   0  0  0  0  0  0  0  0  0  0  0  0
   -1.3886   -4.8533   -0.9204 C   0  0  0  0  0  0  0  0  0  0  0  0
   -1.4075   -6.4183   -0.2627 S   0  0  0  0  0  0  0  0  0  0  0  0
   -2.4908   -5.9346    0.9721 C   0  0  0  0  0  0  0  0  0  0  0  0
   -2.8291   -4.6006    0.8668 C   0  0  0  0  0  0  0  0  0  0  0  0
   -2.1920   -3.9744   -0.2450 C   0  0  0  0  0  0  0  0  0  0  0  0
    0.6758    3.1550    2.6069 H   0  0  0  0  0  0  0  0  0  0  0  0
   -0.7433    3.2106    3.6660 H   0  0  0  0  0  0  0  0  0  0  0  0
    0.3858    1.8451    3.7646 H   0  0  0  0  0  0  0  0  0  0  0  0
   -0.2268    1.1831    1.4338 H   0  0  0  0  0  0  0  0  0  0  0  0
   -1.3381    2.5359    1.3294 H   0  0  0  0  0  0  0  0  0  0  0  0
   -1.5464    0.2167    3.3314 H   0  0  0  0  0  0  0  0  0  0  0  0
   -2.6680    1.5699    3.2727 H   0  0  0  0  0  0  0  0  0  0  0  0
   -4.5831    1.1931    2.2035 H   0  0  0  0  0  0  0  0  0  0  0  0
   -4.7661   -0.0141    0.9514 H   0  0  0  0  0  0  0  0  0  0  0  0
   -3.4652    2.7374    0.6268 H   0  0  0  0  0  0  0  0  0  0  0  0
   -3.4199    1.5042   -0.6271 H   0  0  0  0  0  0  0  0  0  0  0  0
   -5.2700    3.1223   -0.9884 H   0  0  0  0  0  0  0  0  0  0  0  0
   -5.9145    1.4932   -0.7189 H   0  0  0  0  0  0  0  0  0  0  0  0
   -5.9719    2.6990    0.5827 H   0  0  0  0  0  0  0  0  0  0  0  0
   -3.4821   -0.9366   -0.7044 H   0  0  0  0  0  0  0  0  0  0  0  0
   -3.9308   -2.1256    0.5260 H   0  0  0  0  0  0  0  0  0  0  0  0
   -0.2765   -1.7513   -3.9437 H   0  0  0  0  0  0  0  0  0  0  0  0
    0.1043   -3.4204   -4.3053 H   0  0  0  0  0  0  0  0  0  0  0  0
    2.1857   -2.2088   -4.0017 H   0  0  0  0  0  0  0  0  0  0  0  0
    2.0114   -3.3959   -2.7184 H   0  0  0  0  0  0  0  0  0  0  0  0
    1.2194   -1.5714   -1.1608 H   0  0  0  0  0  0  0  0  0  0  0  0
    2.8787   -1.4441   -1.7109 H   0  0  0  0  0  0  0  0  0  0  0  0
    0.5661    0.1222   -2.9664 H   0  0  0  0  0  0  0  0  0  0  0  0
    2.2648    0.2703   -3.3884 H   0  0  0  0  0  0  0  0  0  0  0  0
    1.3026    2.0420   -1.8088 H   0  0  0  0  0  0  0  0  0  0  0  0
    1.1397    0.7817   -0.5751 H   0  0  0  0  0  0  0  0  0  0  0  0
    2.3357    2.3082    0.5762 H   0  0  0  0  0  0  0  0  0  0  0  0
    3.1739    3.4630    2.3667 H   0  0  0  0  0  0  0  0  0  0  0  0
    5.0974    4.3335    3.6304 H   0  0  0  0  0  0  0  0  0  0  0  0
    7.4091    3.9314    2.8206 H   0  0  0  0  0  0  0  0  0  0  0  0
    7.7760    2.6447    0.7297 H   0  0  0  0  0  0  0  0  0  0  0  0
    5.8842    1.7715   -0.5438 H   0  0  0  0  0  0  0  0  0  0  0  0
   -2.8227   -6.6484    1.7137 H   0  0  0  0  0  0  0  0  0  0  0  0
   -3.4981   -4.1188    1.5675 H   0  0  0  0  0  0  0  0  0  0  0  0
  1  2  1  0
  2  3  1  0
  3  4  1  0
  4  5  1  0
  5  6  1  0
  6  7  1  0
  4  8  1  0
  8  9  2  0
  8 10  1  0
 10 11  1  0
 11 12  1  0
 12 13  2  0
 12 14  1  0
 14 15  1  0
 15 16  1  0
 16 17  1  0
 17 18  1  0
 18 19  1  0
 19 20  1  0
 20 21  2  0
 20 22  1  0
 22 23  1  0
 23 24  2  0
 24 25  1  0
 25 26  2  0
 26 27  1  0
 27 28  2  0
 14 29  1  0
 29 30  2  0
 29 31  1  0
 31 32  1  0
 32 33  1  0
 33 34  2  0
 34 35  1  0
 35 11  1  0
 28 23  1  0
 35 31  2  0
  1 36  1  0
  1 37  1  0
  1 38  1  0
  2 39  1  0
  2 40  1  0
  3 41  1  0
  3 42  1  0
  5 43  1  0
  5 44  1  0
  6 45  1  0
  6 46  1  0
  7 47  1  0
  7 48  1  0
  7 49  1  0
 10 50  1  0
 10 51  1  0
 15 52  1  0
 15 53  1  0
 16 54  1  0
 16 55  1  0
 17 56  1  0
 17 57  1  0
 18 58  1  0
 18 59  1  0
 19 60  1  0
 19 61  1  0
 22 62  1  0
 24 63  1  0
 25 64  1  0
 26 65  1  0
 27 66  1  0
 28 67  1  0
 33 68  1  0
 34 69  1  0
M  END
$$$$
