
     RDKit          3D

 70 73  0  0  0  0  0  0  0  0999 V2000
   -1.6922    1.9434   -3.2549 C   0  0  0  0  0  0  0  0  0  0  0  0
   -0.5622    1.7613   -2.3985 O   0  0  0  0  0  0  0  0  0  0  0  0
   -0.8502    1.9593   -1.0722 C   0  0  0  0  0  0  0  0  0  0  0  0
   -1.4506    3.1608   -0.6594 C   0  0  0  0  0  0  0  0  0  0  0  0
   -1.7424    3.3958    0.6864 C   0  0  0  0  0  0  0  0  0  0  0  0
   -2.3295    4.5400    1.1638 O   0  0  0  0  0  0  0  0  0  0  0  0
   -2.5978    5.5849    0.2369 C   0  0  0  0  0  0  0  0  0  0  0  0
   -1.4273    2.4102    1.6329 C   0  0  0  0  0  0  0  0  0  0  0  0
   -1.7205    2.5711    3.0562 C   0  0  0  0  0  0  0  0  0  0  0  0
   -1.4212    1.6054    3.9281 C   0  0  0  0  0  0  0  0  0  0  0  0
   -0.7861    0.3490    3.5103 C   0  0  0  0  0  0  0  0  0  0  0  0
   -0.5368   -0.5329    4.3249 O   0  0  0  0  0  0  0  0  0  0  0  0
   -0.4931    0.2259    2.1617 O   0  0  0  0  0  0  0  0  0  0  0  0
   -0.8013    1.2303    1.2068 C   0  0  0  0  0  0  0  0  0  0  0  0
   -0.4690    0.9807   -0.1407 C   0  0  0  0  0  0  0  0  0  0  0  0
    0.2412   -0.3199   -0.5306 C   0  0  0  0  0  0  0  0  0  0  0  0
    1.5259   -0.1388   -1.3861 C   0  0  0  0  0  0  0  0  0  0  0  0
    2.5974    0.7607   -0.7439 C   0  0  0  0  0  0  0  0  0  0  0  0
    3.0942    0.2814    0.5524 N   0  0  0  0  0  0  0  0  0  0  0  0
    3.7875   -1.0153    0.4431 C   0  0  0  0  0  0  0  0  0  0  0  0
    4.8362   -1.2602    1.5400 C   0  0  0  0  0  0  0  0  0  0  0  0
    4.4126   -0.6206    2.8549 C   0  0  0  0  0  0  0  0  0  0  0  0
    4.1868    0.8952    2.6845 C   0  0  0  0  0  0  0  0  0  0  0  0
    3.0421    1.3543    3.5902 C   0  0  0  0  0  0  0  0  0  0  0  0
    3.9344    1.2828    1.2122 C   0  0  0  0  0  0  0  0  0  0  0  0
   -0.7397   -1.3449   -1.1082 C   0  0  0  0  0  0  0  0  0  0  0  0
   -0.9607   -1.5031   -2.4770 C   0  0  0  0  0  0  0  0  0  0  0  0
   -1.8876   -2.4428   -2.9574 C   0  0  0  0  0  0  0  0  0  0  0  0
   -2.6306   -3.2758   -2.1040 C   0  0  0  0  0  0  0  0  0  0  0  0
   -3.5638   -4.1969   -2.5977 N   0  0  0  0  0  0  0  0  0  0  0  0
   -3.3878   -4.6953   -3.9607 C   0  0  0  0  0  0  0  0  0  0  0  0
   -4.2094   -5.1226   -1.6683 C   0  0  0  0  0  0  0  0  0  0  0  0
   -2.4085   -3.0880   -0.7311 C   0  0  0  0  0  0  0  0  0  0  0  0
   -1.4848   -2.1513   -0.2413 C   0  0  0  0  0  0  0  0  0  0  0  0
   -1.4796    1.4343   -4.1995 H   0  0  0  0  0  0  0  0  0  0  0  0
   -1.8447    3.0038   -3.4770 H   0  0  0  0  0  0  0  0  0  0  0  0
   -2.6020    1.5015   -2.8312 H   0  0  0  0  0  0  0  0  0  0  0  0
   -1.6681    3.9106   -1.4104 H   0  0  0  0  0  0  0  0  0  0  0  0
   -3.0289    6.4230    0.7942 H   0  0  0  0  0  0  0  0  0  0  0  0
   -3.3330    5.2692   -0.5101 H   0  0  0  0  0  0  0  0  0  0  0  0
   -1.6768    5.9407   -0.2362 H   0  0  0  0  0  0  0  0  0  0  0  0
   -2.1912    3.4897    3.3901 H   0  0  0  0  0  0  0  0  0  0  0  0
   -1.6361    1.7013    4.9851 H   0  0  0  0  0  0  0  0  0  0  0  0
    0.6181   -0.7875    0.3885 H   0  0  0  0  0  0  0  0  0  0  0  0
    1.9583   -1.1271   -1.5939 H   0  0  0  0  0  0  0  0  0  0  0  0
    1.2985    0.2795   -2.3715 H   0  0  0  0  0  0  0  0  0  0  0  0
    2.1709    1.7637   -0.6230 H   0  0  0  0  0  0  0  0  0  0  0  0
    3.4324    0.8722   -1.4489 H   0  0  0  0  0  0  0  0  0  0  0  0
    4.2996   -1.1132   -0.5222 H   0  0  0  0  0  0  0  0  0  0  0  0
    3.0349   -1.8109    0.4917 H   0  0  0  0  0  0  0  0  0  0  0  0
    4.9890   -2.3374    1.6736 H   0  0  0  0  0  0  0  0  0  0  0  0
    5.8001   -0.8376    1.2256 H   0  0  0  0  0  0  0  0  0  0  0  0
    3.4935   -1.1128    3.2022 H   0  0  0  0  0  0  0  0  0  0  0  0
    5.1704   -0.8010    3.6272 H   0  0  0  0  0  0  0  0  0  0  0  0
    5.0953    1.4209    3.0074 H   0  0  0  0  0  0  0  0  0  0  0  0
    2.8812    2.4351    3.5093 H   0  0  0  0  0  0  0  0  0  0  0  0
    3.2623    1.1274    4.6383 H   0  0  0  0  0  0  0  0  0  0  0  0
    2.1045    0.8505    3.3285 H   0  0  0  0  0  0  0  0  0  0  0  0
    3.4595    2.2714    1.1869 H   0  0  0  0  0  0  0  0  0  0  0  0
    4.8892    1.3897    0.6797 H   0  0  0  0  0  0  0  0  0  0  0  0
   -0.4287   -0.8930   -3.2009 H   0  0  0  0  0  0  0  0  0  0  0  0
   -2.0193   -2.4917   -4.0337 H   0  0  0  0  0  0  0  0  0  0  0  0
   -2.3924   -5.1316   -4.0967 H   0  0  0  0  0  0  0  0  0  0  0  0
   -3.5450   -3.8999   -4.6961 H   0  0  0  0  0  0  0  0  0  0  0  0
   -4.1235   -5.4729   -4.1978 H   0  0  0  0  0  0  0  0  0  0  0  0
   -4.7530   -4.5828   -0.8845 H   0  0  0  0  0  0  0  0  0  0  0  0
   -3.4785   -5.8012   -1.2126 H   0  0  0  0  0  0  0  0  0  0  0  0
   -4.9599   -5.7347   -2.1809 H   0  0  0  0  0  0  0  0  0  0  0  0
   -2.9456   -3.6709    0.0098 H   0  0  0  0  0  0  0  0  0  0  0  0
   -1.3566   -2.0626    0.8353 H   0  0  0  0  0  0  0  0  0  0  0  0
  1  2  1  0
  2  3  1  0
  3  4  2  0
  4  5  1  0
  5  6  1  0
  6  7  1  0
  5  8  2  0
  8  9  1  0
  9 10  2  0
 10 11  1  0
 11 12  2  0
 11 13  1  0
 13 14  1  0
 14 15  2  0
 15 16  1  0
 16 17  1  0
 17 18  1  0
 18 19  1  0
 19 20  1  0
 20 21  1  0
 21 22  1  0
 22 23  1  0
 23 24  1  0
 23 25  1  0
 16 26  1  0
 26 27  2  0
 27 28  1  0
 28 29  2  0
 29 30  1  0
 30 31  1  0
 30 32  1  0
 29 33  1  0
 33 34  2  0
 15  3  1  0
 25 19  1  0
 34 26  1  0
 14  8  1  0
  1 35  1  0
  1 36  1  0
  1 37  1  0
  4 38  1  0
  7 39  1  0
  7 40  1  0
  7 41  1  0
  9 42  1  0
 10 43  1  0
 16 44  1  0
 17 45  1  0
 17 46  1  0
 18 47  1  0
 18 48  1  0
 20 49  1  0
 20 50  1  0
 21 51  1  0
 21 52  1  0
 22 53  1  0
 22 54  1  0
 23 55  1  0
 24 56  1  0
 24 57  1  0
 24 58  1  0
 25 59  1  0
 25 60  1  0
 27 61  1  0
 28 62  1  0
 31 63  1  0
 31 64  1  0
 31 65  1  0
 32 66  1  0
 32 67  1  0
 32 68  1  0
 33 69  1  0
 34 70  1  0
M  END
$$$$
