
     RDKit          3D

 52 55  0  0  0  0  0  0  0  0999 V2000
    6.3853    2.0740   -3.3078 C   0  0  0  0  0  0  0  0  0  0  0  0
    6.0647    2.6257   -1.9271 C   0  0  0  0  0  0  0  0  0  0  0  0
    4.8306    1.9876   -1.3414 C   0  0  0  0  0  0  0  0  0  0  0  0
    3.5662    2.5404   -1.5776 C   0  0  0  0  0  0  0  0  0  0  0  0
    2.4212    1.9397   -1.0486 C   0  0  0  0  0  0  0  0  0  0  0  0
    2.5246    0.7745   -0.2808 C   0  0  0  0  0  0  0  0  0  0  0  0
    1.2901    0.1620    0.2633 C   0  0  0  0  0  0  0  0  0  0  0  0
    0.1152    0.7012    0.1390 N   0  0  0  0  0  0  0  0  0  0  0  0
   -0.7822   -0.1405    0.7323 N   0  0  0  0  0  0  0  0  0  0  0  0
   -2.1076    0.2474    0.9212 C   0  0  0  0  0  0  0  0  0  0  0  0
   -3.0500   -0.5727    1.5649 C   0  0  0  0  0  0  0  0  0  0  0  0
   -4.3792   -0.1679    1.7453 C   0  0  0  0  0  0  0  0  0  0  0  0
   -4.7871    1.0829    1.2859 C   0  0  0  0  0  0  0  0  0  0  0  0
   -6.4677    1.5896    1.4812 S   0  0  0  0  0  6  0  0  0  0  0  0
   -6.4048    2.4587    2.9168 N   0  0  0  0  0  0  0  0  0  0  0  0
   -6.8030    2.5467    0.4529 O   0  0  0  0  0  0  0  0  0  0  0  0
   -7.2879    0.4333    1.7592 O   0  0  0  0  0  0  0  0  0  0  0  0
   -3.8855    1.9175    0.6310 C   0  0  0  0  0  0  0  0  0  0  0  0
   -2.5620    1.4975    0.4593 C   0  0  0  0  0  0  0  0  0  0  0  0
   -0.1797   -1.3981    1.1785 C   0  0  0  0  0  0  0  0  0  0  0  0
   -0.5969   -2.6001    0.3404 C   0  0  0  0  0  0  0  0  0  0  0  0
   -0.6909   -3.8657    0.9481 C   0  0  0  0  0  0  0  0  0  0  0  0
   -1.0479   -4.9884    0.1987 C   0  0  0  0  0  0  0  0  0  0  0  0
   -1.3065   -4.8537   -1.1596 C   0  0  0  0  0  0  0  0  0  0  0  0
   -1.6470   -5.9331   -1.8758 F   0  0  0  0  0  0  0  0  0  0  0  0
   -1.2135   -3.6176   -1.7849 C   0  0  0  0  0  0  0  0  0  0  0  0
   -0.8559   -2.4937   -1.0384 C   0  0  0  0  0  0  0  0  0  0  0  0
    1.3194   -1.1272    1.0371 C   0  0  0  0  0  0  0  0  0  0  0  0
    3.7844    0.2154   -0.0456 C   0  0  0  0  0  0  0  0  0  0  0  0
    4.9293    0.8185   -0.5761 C   0  0  0  0  0  0  0  0  0  0  0  0
    6.5648    0.9941   -3.2723 H   0  0  0  0  0  0  0  0  0  0  0  0
    5.5633    2.2549   -4.0087 H   0  0  0  0  0  0  0  0  0  0  0  0
    7.2839    2.5542   -3.7078 H   0  0  0  0  0  0  0  0  0  0  0  0
    5.9263    3.7122   -1.9849 H   0  0  0  0  0  0  0  0  0  0  0  0
    6.9172    2.4641   -1.2561 H   0  0  0  0  0  0  0  0  0  0  0  0
    3.4626    3.4429   -2.1763 H   0  0  0  0  0  0  0  0  0  0  0  0
    1.4485    2.3873   -1.2431 H   0  0  0  0  0  0  0  0  0  0  0  0
   -2.7721   -1.5553    1.9341 H   0  0  0  0  0  0  0  0  0  0  0  0
   -5.0808   -0.8360    2.2392 H   0  0  0  0  0  0  0  0  0  0  0  0
   -6.9874    2.0049    3.6203 H   0  0  0  0  0  0  0  0  0  0  0  0
   -6.6504    3.4330    2.7406 H   0  0  0  0  0  0  0  0  0  0  0  0
   -4.1940    2.8878    0.2501 H   0  0  0  0  0  0  0  0  0  0  0  0
   -1.8692    2.1625   -0.0532 H   0  0  0  0  0  0  0  0  0  0  0  0
   -0.4161   -1.5808    2.2346 H   0  0  0  0  0  0  0  0  0  0  0  0
   -0.4891   -3.9857    2.0105 H   0  0  0  0  0  0  0  0  0  0  0  0
   -1.1262   -5.9660    0.6638 H   0  0  0  0  0  0  0  0  0  0  0  0
   -1.4216   -3.5327   -2.8466 H   0  0  0  0  0  0  0  0  0  0  0  0
   -0.7904   -1.5272   -1.5373 H   0  0  0  0  0  0  0  0  0  0  0  0
    1.8692   -1.9118    0.5103 H   0  0  0  0  0  0  0  0  0  0  0  0
    1.7780   -0.9397    2.0139 H   0  0  0  0  0  0  0  0  0  0  0  0
    3.9052   -0.6860    0.5470 H   0  0  0  0  0  0  0  0  0  0  0  0
    5.9026    0.3693   -0.3885 H   0  0  0  0  0  0  0  0  0  0  0  0
  1  2  1  0
  2  3  1  0
  3  4  2  0
  4  5  1  0
  5  6  2  0
  6  7  1  0
  7  8  2  0
  8  9  1  0
  9 10  1  0
 10 11  2  0
 11 12  1  0
 12 13  2  0
 13 14  1  0
 14 15  1  0
 14 16  2  0
 14 17  2  0
 13 18  1  0
 18 19  2  0
  9 20  1  0
 20 21  1  0
 21 22  2  0
 22 23  1  0
 23 24  2  0
 24 25  1  0
 24 26  1  0
 26 27  2  0
 20 28  1  0
  6 29  1  0
 29 30  2  0
 30  3  1  0
 28  7  1  0
 19 10  1  0
 27 21  1  0
  1 31  1  0
  1 32  1  0
  1 33  1  0
  2 34  1  0
  2 35  1  0
  4 36  1  0
  5 37  1  0
 11 38  1  0
 12 39  1  0
 15 40  1  0
 15 41  1  0
 18 42  1  0
 19 43  1  0
 20 44  1  0
 22 45  1  0
 23 46  1  0
 26 47  1  0
 27 48  1  0
 28 49  1  0
 28 50  1  0
 29 51  1  0
 30 52  1  0
M  END
$$$$
