
     RDKit          3D

 92 93  0  0  0  0  0  0  0  0999 V2000
   10.6175   -3.4793    1.1321 C   0  0  0  0  0  0  0  0  0  0  0  0
   11.0383   -2.4814    2.2001 C   0  0  0  0  0  0  0  0  0  0  0  0
   10.9647   -1.0231    1.7372 C   0  0  0  0  0  0  0  0  0  0  0  0
    9.5435   -0.5481    1.4212 C   0  0  0  0  0  0  0  0  0  0  0  0
    9.5497    0.9191    0.9881 C   0  0  0  0  0  0  0  0  0  0  0  0
    8.1549    1.5065    0.7566 C   0  0  0  0  0  0  0  0  0  0  0  0
    7.3919    0.8356   -0.3883 C   0  0  0  0  0  0  0  0  0  0  0  0
    6.1266    1.6235   -0.7418 C   0  0  0  0  0  0  0  0  0  0  0  0
    5.3646    1.0338   -1.9334 C   0  0  0  0  0  0  0  0  0  0  0  0
    4.6958   -0.3224   -1.6820 C   0  0  0  0  0  0  0  0  0  0  0  0
    3.6203   -0.3299   -0.5871 C   0  0  0  0  0  0  0  0  0  0  0  0
    2.4609    0.6534   -0.7911 C   0  0  0  0  0  0  0  0  0  0  0  0
    1.6880    0.4980   -2.1062 C   0  0  0  0  0  0  0  0  0  0  0  0
    1.0220   -0.8677   -2.3123 C   0  0  0  0  0  0  0  0  0  0  0  0
   -0.0671   -1.2318   -1.2916 C   0  0  0  0  0  0  0  0  0  0  0  0
   -1.2852   -0.3092   -1.3930 C   0  0  0  0  0  0  0  0  0  0  0  0
   -2.4515   -0.6714   -0.4361 N   0  0  0  0  0  4  0  0  0  0  0  0
   -2.9642   -2.0821   -0.7199 C   0  0  0  0  0  0  0  0  0  0  0  0
   -2.0196   -0.5489    1.0141 C   0  0  0  0  0  0  0  0  0  0  0  0
   -3.5881    0.3480   -0.7615 C   0  0  0  0  0  0  0  0  0  0  0  0
   -4.8158    0.3128    0.1828 C   0  0  0  0  0  0  0  0  0  0  0  0
   -6.0019    0.7691   -0.5203 N   0  0  0  0  0  0  0  0  0  0  0  0
   -6.6265    2.0432   -0.1832 C   0  0  0  0  0  0  0  0  0  0  0  0
   -7.6156    1.9203    0.9591 C   0  0  0  0  0  0  0  0  0  0  0  0
   -7.2073    2.0551    2.2917 C   0  0  0  0  0  0  0  0  0  0  0  0
   -8.1407    1.9663    3.3315 C   0  0  0  0  0  0  0  0  0  0  0  0
   -9.4919    1.7454    3.0621 C   0  0  0  0  0  0  0  0  0  0  0  0
  -10.3004    1.6967    4.1670 O   0  0  0  0  0  0  0  0  0  0  0  0
  -11.7041    1.6902    3.9326 C   0  0  0  0  0  0  0  0  0  0  0  0
   -9.9051    1.5908    1.7407 C   0  0  0  0  0  0  0  0  0  0  0  0
   -8.9726    1.6758    0.6968 C   0  0  0  0  0  0  0  0  0  0  0  0
   -6.6403   -0.1012   -1.3802 C   0  0  0  0  0  0  0  0  0  0  0  0
   -6.1149   -1.3307   -1.5498 N   0  0  0  0  0  0  0  0  0  0  0  0
   -6.7716   -2.1752   -2.3750 C   0  0  0  0  0  0  0  0  0  0  0  0
   -7.8976   -1.8323   -3.0779 C   0  0  0  0  0  0  0  0  0  0  0  0
   -8.3243   -0.5437   -2.8903 C   0  0  0  0  0  0  0  0  0  0  0  0
   -7.7132    0.3244   -2.0640 N   0  0  0  0  0  0  0  0  0  0  0  0
   11.1507   -3.2975    0.1905 H   0  0  0  0  0  0  0  0  0  0  0  0
   10.8456   -4.5001    1.4607 H   0  0  0  0  0  0  0  0  0  0  0  0
    9.5405   -3.4322    0.9439 H   0  0  0  0  0  0  0  0  0  0  0  0
   12.0733   -2.7012    2.4915 H   0  0  0  0  0  0  0  0  0  0  0  0
   10.4238   -2.6218    3.0991 H   0  0  0  0  0  0  0  0  0  0  0  0
   11.6053   -0.8898    0.8546 H   0  0  0  0  0  0  0  0  0  0  0  0
   11.3869   -0.3890    2.5294 H   0  0  0  0  0  0  0  0  0  0  0  0
    9.1165   -1.1622    0.6228 H   0  0  0  0  0  0  0  0  0  0  0  0
    8.9106   -0.6726    2.3068 H   0  0  0  0  0  0  0  0  0  0  0  0
   10.1460    1.0298    0.0753 H   0  0  0  0  0  0  0  0  0  0  0  0
   10.0478    1.5222    1.7573 H   0  0  0  0  0  0  0  0  0  0  0  0
    7.5695    1.4454    1.6807 H   0  0  0  0  0  0  0  0  0  0  0  0
    8.2739    2.5738    0.5324 H   0  0  0  0  0  0  0  0  0  0  0  0
    7.1248   -0.1837   -0.0975 H   0  0  0  0  0  0  0  0  0  0  0  0
    8.0377    0.7692   -1.2720 H   0  0  0  0  0  0  0  0  0  0  0  0
    6.4160    2.6509   -1.0021 H   0  0  0  0  0  0  0  0  0  0  0  0
    5.4704    1.6994    0.1332 H   0  0  0  0  0  0  0  0  0  0  0  0
    4.6077    1.7576   -2.2562 H   0  0  0  0  0  0  0  0  0  0  0  0
    6.0554    0.9274   -2.7780 H   0  0  0  0  0  0  0  0  0  0  0  0
    4.2548   -0.6724   -2.6253 H   0  0  0  0  0  0  0  0  0  0  0  0
    5.4617   -1.0631   -1.4205 H   0  0  0  0  0  0  0  0  0  0  0  0
    4.0891   -0.1166    0.3813 H   0  0  0  0  0  0  0  0  0  0  0  0
    3.2213   -1.3480   -0.5002 H   0  0  0  0  0  0  0  0  0  0  0  0
    2.8436    1.6791   -0.7328 H   0  0  0  0  0  0  0  0  0  0  0  0
    1.7678    0.5569    0.0529 H   0  0  0  0  0  0  0  0  0  0  0  0
    2.3678    0.6854   -2.9472 H   0  0  0  0  0  0  0  0  0  0  0  0
    0.9294    1.2888   -2.1604 H   0  0  0  0  0  0  0  0  0  0  0  0
    0.5831   -0.8913   -3.3182 H   0  0  0  0  0  0  0  0  0  0  0  0
    1.7870   -1.6534   -2.3039 H   0  0  0  0  0  0  0  0  0  0  0  0
   -0.3609   -2.2671   -1.4938 H   0  0  0  0  0  0  0  0  0  0  0  0
    0.3580   -1.2120   -0.2845 H   0  0  0  0  0  0  0  0  0  0  0  0
   -1.6965   -0.3388   -2.4115 H   0  0  0  0  0  0  0  0  0  0  0  0
   -1.0094    0.7271   -1.1553 H   0  0  0  0  0  0  0  0  0  0  0  0
   -3.2150   -2.1536   -1.7807 H   0  0  0  0  0  0  0  0  0  0  0  0
   -2.1830   -2.7989   -0.4582 H   0  0  0  0  0  0  0  0  0  0  0  0
   -3.8376   -2.2812   -0.0990 H   0  0  0  0  0  0  0  0  0  0  0  0
   -1.6603    0.4703    1.1854 H   0  0  0  0  0  0  0  0  0  0  0  0
   -1.2318   -1.2803    1.2143 H   0  0  0  0  0  0  0  0  0  0  0  0
   -2.8729   -0.7697    1.6589 H   0  0  0  0  0  0  0  0  0  0  0  0
   -3.8664    0.1662   -1.8060 H   0  0  0  0  0  0  0  0  0  0  0  0
   -3.1379    1.3488   -0.7153 H   0  0  0  0  0  0  0  0  0  0  0  0
   -4.9951   -0.6724    0.6218 H   0  0  0  0  0  0  0  0  0  0  0  0
   -4.6029    0.9702    1.0336 H   0  0  0  0  0  0  0  0  0  0  0  0
   -7.1087    2.5117   -1.0540 H   0  0  0  0  0  0  0  0  0  0  0  0
   -5.8471    2.7647    0.1016 H   0  0  0  0  0  0  0  0  0  0  0  0
   -6.1673    2.2497    2.5405 H   0  0  0  0  0  0  0  0  0  0  0  0
   -7.8146    2.0855    4.3605 H   0  0  0  0  0  0  0  0  0  0  0  0
  -12.0153    2.5510    3.3314 H   0  0  0  0  0  0  0  0  0  0  0  0
  -12.0138    0.7512    3.4663 H   0  0  0  0  0  0  0  0  0  0  0  0
  -12.2087    1.7589    4.9008 H   0  0  0  0  0  0  0  0  0  0  0  0
  -10.9456    1.4011    1.4839 H   0  0  0  0  0  0  0  0  0  0  0  0
   -9.3244    1.5534   -0.3274 H   0  0  0  0  0  0  0  0  0  0  0  0
   -6.3545   -3.1764   -2.4518 H   0  0  0  0  0  0  0  0  0  0  0  0
   -8.4110   -2.5183   -3.7358 H   0  0  0  0  0  0  0  0  0  0  0  0
   -9.2047   -0.1622   -3.4000 H   0  0  0  0  0  0  0  0  0  0  0  0
  1  2  1  0
  2  3  1  0
  3  4  1  0
  4  5  1  0
  5  6  1  0
  6  7  1  0
  7  8  1  0
  8  9  1  0
  9 10  1  0
 10 11  1  0
 11 12  1  0
 12 13  1  0
 13 14  1  0
 14 15  1  0
 15 16  1  0
 16 17  1  0
 17 18  1  0
 17 19  1  0
 17 20  1  0
 20 21  1  0
 21 22  1  0
 22 23  1  0
 23 24  1  0
 24 25  2  0
 25 26  1  0
 26 27  2  0
 27 28  1  0
 28 29  1  0
 27 30  1  0
 30 31  2  0
 22 32  1  0
 32 33  2  0
 33 34  1  0
 34 35  2  0
 35 36  1  0
 36 37  2  0
 31 24  1  0
 37 32  1  0
  1 38  1  0
  1 39  1  0
  1 40  1  0
  2 41  1  0
  2 42  1  0
  3 43  1  0
  3 44  1  0
  4 45  1  0
  4 46  1  0
  5 47  1  0
  5 48  1  0
  6 49  1  0
  6 50  1  0
  7 51  1  0
  7 52  1  0
  8 53  1  0
  8 54  1  0
  9 55  1  0
  9 56  1  0
 10 57  1  0
 10 58  1  0
 11 59  1  0
 11 60  1  0
 12 61  1  0
 12 62  1  0
 13 63  1  0
 13 64  1  0
 14 65  1  0
 14 66  1  0
 15 67  1  0
 15 68  1  0
 16 69  1  0
 16 70  1  0
 18 71  1  0
 18 72  1  0
 18 73  1  0
 19 74  1  0
 19 75  1  0
 19 76  1  0
 20 77  1  0
 20 78  1  0
 21 79  1  0
 21 80  1  0
 23 81  1  0
 23 82  1  0
 25 83  1  0
 26 84  1  0
 29 85  1  0
 29 86  1  0
 29 87  1  0
 30 88  1  0
 31 89  1  0
 34 90  1  0
 35 91  1  0
 36 92  1  0
M  CHG  1  17   1
M  END
$$$$
