
     RDKit          3D

 41 42  0  0  0  0  0  0  0  0999 V2000
   -1.4033    2.0474   -1.0210 O   0  0  0  0  0  0  0  0  0  0  0  0
   -0.7239    0.7825   -1.0538 C   0  0  0  0  0  0  0  0  0  0  0  0
    0.7158    1.0379   -1.5243 C   0  0  0  0  0  0  0  0  0  0  0  0
    1.3513    1.9336   -0.6005 O   0  0  0  0  0  0  0  0  0  0  0  0
    2.7322    2.1419   -0.9040 C   0  0  0  0  0  0  0  0  0  0  0  0
    3.5864    1.0068   -0.3922 C   0  0  0  0  0  0  0  0  0  0  0  0
    4.5895    0.4516   -1.1997 C   0  0  0  0  0  0  0  0  0  0  0  0
    5.3881   -0.5899   -0.7200 C   0  0  0  0  0  0  0  0  0  0  0  0
    5.1924   -1.0765    0.5709 C   0  0  0  0  0  0  0  0  0  0  0  0
    6.1759   -2.3601    1.1582 Cl  0  0  0  0  0  0  0  0  0  0  0  0
    4.2074   -0.5288    1.3888 C   0  0  0  0  0  0  0  0  0  0  0  0
    3.4101    0.5128    0.9098 C   0  0  0  0  0  0  0  0  0  0  0  0
   -0.7388    0.1172    0.3478 C   0  0  0  0  0  0  0  0  0  0  0  0
   -2.0144   -0.4485    0.8226 N   0  0  0  0  0  0  0  0  0  0  0  0
   -3.1178    0.5069    0.8527 C   0  0  0  0  0  0  0  0  0  0  0  0
   -4.2624   -0.0453    1.7118 C   0  0  0  0  0  0  0  0  0  0  0  0
   -4.4806   -1.5504    1.5358 C   0  0  0  0  0  0  0  0  0  0  0  0
   -3.8656   -2.0472    0.2355 C   0  0  0  0  0  0  0  0  0  0  0  0
   -2.3708   -1.7063    0.1552 C   0  0  0  0  0  0  0  0  0  0  0  0
   -0.8311    2.6321   -0.4867 H   0  0  0  0  0  0  0  0  0  0  0  0
   -1.2299    0.1536   -1.7922 H   0  0  0  0  0  0  0  0  0  0  0  0
    1.2653    0.0927   -1.5896 H   0  0  0  0  0  0  0  0  0  0  0  0
    0.7013    1.5179   -2.5096 H   0  0  0  0  0  0  0  0  0  0  0  0
    2.8609    2.3009   -1.9813 H   0  0  0  0  0  0  0  0  0  0  0  0
    3.0463    3.0619   -0.3986 H   0  0  0  0  0  0  0  0  0  0  0  0
    4.7568    0.8240   -2.2081 H   0  0  0  0  0  0  0  0  0  0  0  0
    6.1604   -1.0147   -1.3558 H   0  0  0  0  0  0  0  0  0  0  0  0
    4.0549   -0.9045    2.3970 H   0  0  0  0  0  0  0  0  0  0  0  0
    2.6429    0.9382    1.5550 H   0  0  0  0  0  0  0  0  0  0  0  0
   -0.4212    0.8570    1.0943 H   0  0  0  0  0  0  0  0  0  0  0  0
    0.0150   -0.6801    0.3792 H   0  0  0  0  0  0  0  0  0  0  0  0
   -3.4852    0.7196   -0.1591 H   0  0  0  0  0  0  0  0  0  0  0  0
   -2.8001    1.4608    1.2909 H   0  0  0  0  0  0  0  0  0  0  0  0
   -4.0696    0.1604    2.7721 H   0  0  0  0  0  0  0  0  0  0  0  0
   -5.1833    0.4922    1.4549 H   0  0  0  0  0  0  0  0  0  0  0  0
   -4.0204   -2.0833    2.3775 H   0  0  0  0  0  0  0  0  0  0  0  0
   -5.5513   -1.7809    1.5683 H   0  0  0  0  0  0  0  0  0  0  0  0
   -4.3925   -1.5852   -0.6092 H   0  0  0  0  0  0  0  0  0  0  0  0
   -4.0038   -3.1302    0.1416 H   0  0  0  0  0  0  0  0  0  0  0  0
   -1.7987   -2.5118    0.6316 H   0  0  0  0  0  0  0  0  0  0  0  0
   -2.0883   -1.7063   -0.9037 H   0  0  0  0  0  0  0  0  0  0  0  0
  1  2  1  0
  2  3  1  0
  3  4  1  0
  4  5  1  0
  5  6  1  0
  6  7  2  0
  7  8  1  0
  8  9  2  0
  9 10  1  0
  9 11  1  0
 11 12  2  0
  2 13  1  0
 13 14  1  0
 14 15  1  0
 15 16  1  0
 16 17  1  0
 17 18  1  0
 18 19  1  0
 12  6  1  0
 19 14  1  0
  1 20  1  0
  2 21  1  0
  3 22  1  0
  3 23  1  0
  5 24  1  0
  5 25  1  0
  7 26  1  0
  8 27  1  0
 11 28  1  0
 12 29  1  0
 13 30  1  0
 13 31  1  0
 15 32  1  0
 15 33  1  0
 16 34  1  0
 16 35  1  0
 17 36  1  0
 17 37  1  0
 18 38  1  0
 18 39  1  0
 19 40  1  0
 19 41  1  0
M  END
$$$$
