
     RDKit          3D

 50 53  0  0  0  0  0  0  0  0999 V2000
  -10.2122    0.8736   -0.2049 C   0  0  0  0  0  0  0  0  0  0  0  0
   -8.7803    0.5559   -0.5284 C   0  0  0  0  0  0  0  0  0  0  0  0
   -8.4075    0.2547   -1.8406 C   0  0  0  0  0  0  0  0  0  0  0  0
   -7.0723   -0.0142   -2.1640 C   0  0  0  0  0  0  0  0  0  0  0  0
   -6.0854    0.0284   -1.1601 C   0  0  0  0  0  0  0  0  0  0  0  0
   -4.7346   -0.2146   -1.3377 N   0  0  0  0  0  0  0  0  0  0  0  0
   -4.0826   -0.0884   -0.1971 C   0  0  0  0  0  0  0  0  0  0  0  0
   -2.6229   -0.2896   -0.0665 C   0  0  0  0  0  0  0  0  0  0  0  0
   -1.9148   -0.1208    1.1322 C   0  0  0  0  0  0  0  0  0  0  0  0
   -0.5270   -0.3256    1.1954 C   0  0  0  0  0  0  0  0  0  0  0  0
    0.1891   -0.7045    0.0617 C   0  0  0  0  0  0  0  0  0  0  0  0
    1.5810   -0.9287    0.0409 N   0  0  0  0  0  0  0  0  0  0  0  0
    2.4667   -0.8269    1.0998 C   0  0  0  0  0  0  0  0  0  0  0  0
    2.1987   -0.5149    2.2537 O   0  0  0  0  0  0  0  0  0  0  0  0
    3.8872   -1.1311    0.6708 C   0  0  0  0  0  0  0  0  0  0  0  0
    4.8269   -1.1540    1.8647 C   0  0  0  0  0  0  0  0  0  0  0  0
    6.5111   -1.4648    1.3943 S   0  0  0  0  0  6  0  0  0  0  0  0
    7.3205   -1.5029    2.5970 O   0  0  0  0  0  0  0  0  0  0  0  0
    6.5165   -2.5787    0.4635 O   0  0  0  0  0  0  0  0  0  0  0  0
    6.9928   -0.0071    0.4984 C   0  0  0  0  0  0  0  0  0  0  0  0
    7.2088    1.1819    1.2010 C   0  0  0  0  0  0  0  0  0  0  0  0
    7.5814    2.3304    0.5035 C   0  0  0  0  0  0  0  0  0  0  0  0
    7.7454    2.2842   -0.8821 C   0  0  0  0  0  0  0  0  0  0  0  0
    7.5457    1.0888   -1.5754 C   0  0  0  0  0  0  0  0  0  0  0  0
    7.1724   -0.0648   -0.8861 C   0  0  0  0  0  0  0  0  0  0  0  0
   -0.5043   -0.8759   -1.1394 C   0  0  0  0  0  0  0  0  0  0  0  0
   -1.8885   -0.6708   -1.2007 C   0  0  0  0  0  0  0  0  0  0  0  0
   -5.0751    0.3314    1.1473 S   0  0  0  0  0  0  0  0  0  0  0  0
   -6.4676    0.3442    0.1413 C   0  0  0  0  0  0  0  0  0  0  0  0
   -7.8047    0.6168    0.4794 C   0  0  0  0  0  0  0  0  0  0  0  0
  -10.8928    0.3196   -0.8600 H   0  0  0  0  0  0  0  0  0  0  0  0
  -10.4519    0.5906    0.8254 H   0  0  0  0  0  0  0  0  0  0  0  0
  -10.3944    1.9455   -0.3294 H   0  0  0  0  0  0  0  0  0  0  0  0
   -9.1554    0.2241   -2.6308 H   0  0  0  0  0  0  0  0  0  0  0  0
   -6.7877   -0.2533   -3.1837 H   0  0  0  0  0  0  0  0  0  0  0  0
   -2.4169    0.1747    2.0504 H   0  0  0  0  0  0  0  0  0  0  0  0
   -0.0414   -0.1780    2.1552 H   0  0  0  0  0  0  0  0  0  0  0  0
    1.9666   -1.2046   -0.8544 H   0  0  0  0  0  0  0  0  0  0  0  0
    3.8993   -2.1010    0.1604 H   0  0  0  0  0  0  0  0  0  0  0  0
    4.1922   -0.3646   -0.0497 H   0  0  0  0  0  0  0  0  0  0  0  0
    4.8046   -0.2137    2.4254 H   0  0  0  0  0  0  0  0  0  0  0  0
    4.5451   -1.9561    2.5565 H   0  0  0  0  0  0  0  0  0  0  0  0
    7.1026    1.2199    2.2831 H   0  0  0  0  0  0  0  0  0  0  0  0
    7.7548    3.2608    1.0396 H   0  0  0  0  0  0  0  0  0  0  0  0
    8.0428    3.1804   -1.4221 H   0  0  0  0  0  0  0  0  0  0  0  0
    7.6913    1.0561   -2.6527 H   0  0  0  0  0  0  0  0  0  0  0  0
    7.0338   -0.9952   -1.4322 H   0  0  0  0  0  0  0  0  0  0  0  0
    0.0125   -1.1711   -2.0489 H   0  0  0  0  0  0  0  0  0  0  0  0
   -2.3976   -0.8134   -2.1536 H   0  0  0  0  0  0  0  0  0  0  0  0
   -8.0718    0.8671    1.5023 H   0  0  0  0  0  0  0  0  0  0  0  0
  1  2  1  0
  2  3  2  0
  3  4  1  0
  4  5  2  0
  5  6  1  0
  6  7  2  0
  7  8  1  0
  8  9  2  0
  9 10  1  0
 10 11  2  0
 11 12  1  0
 12 13  1  0
 13 14  2  0
 13 15  1  0
 15 16  1  0
 16 17  1  0
 17 18  2  0
 17 19  2  0
 17 20  1  0
 20 21  2  0
 21 22  1  0
 22 23  2  0
 23 24  1  0
 24 25  2  0
 11 26  1  0
 26 27  2  0
  7 28  1  0
 28 29  1  0
 29 30  2  0
 30  2  1  0
 29  5  1  0
 27  8  1  0
 25 20  1  0
  1 31  1  0
  1 32  1  0
  1 33  1  0
  3 34  1  0
  4 35  1  0
  9 36  1  0
 10 37  1  0
 12 38  1  0
 15 39  1  0
 15 40  1  0
 16 41  1  0
 16 42  1  0
 21 43  1  0
 22 44  1  0
 23 45  1  0
 24 46  1  0
 25 47  1  0
 26 48  1  0
 27 49  1  0
 30 50  1  0
M  END
$$$$
