
     RDKit          3D

 44 46  0  0  0  0  0  0  0  0999 V2000
    3.6254    3.1884   -3.5616 C   0  0  0  0  0  0  0  0  0  0  0  0
    2.6077    3.3469   -2.5269 N   0  0  0  0  0  0  0  0  0  0  0  0
    1.3821    2.6020   -2.8837 C   0  0  0  0  0  0  0  0  0  0  0  0
    0.5259    2.1779   -1.6688 C   0  0  0  0  0  0  0  0  0  0  0  0
    1.2777    1.2634   -0.7716 N   0  0  0  0  0  0  0  0  0  0  0  0
    0.6643    0.2041   -0.0755 C   0  0  0  0  0  0  0  0  0  0  0  0
   -0.6627    0.1531    0.1723 C   0  0  0  0  0  0  0  0  0  0  0  0
   -1.3473   -0.9575    0.8182 C   0  0  0  0  0  0  0  0  0  0  0  0
   -2.6483   -0.8668    1.1560 C   0  0  0  0  0  0  0  0  0  0  0  0
   -3.4071   -1.9533    1.7873 C   0  0  0  0  0  0  0  0  0  0  0  0
   -4.6805   -1.8037    2.2353 C   0  0  0  0  0  0  0  0  0  0  0  0
   -5.3817   -0.5652    2.1431 C   0  0  0  0  0  0  0  0  0  0  0  0
   -5.9450    0.4459    2.0602 N   0  0  0  0  0  0  0  0  0  0  0  0
   -5.3968   -2.8915    2.8168 C   0  0  0  0  0  0  0  0  0  0  0  0
   -5.9682   -3.7866    3.2859 N   0  0  0  0  0  0  0  0  0  0  0  0
   -2.6531   -3.2755    1.8831 C   0  0  0  0  0  0  0  0  0  0  0  0
   -1.1661   -3.0718    2.1683 C   0  0  0  0  0  0  0  0  0  0  0  0
   -0.5249   -2.1987    1.0840 C   0  0  0  0  0  0  0  0  0  0  0  0
    0.9035   -1.8220    1.4767 C   0  0  0  0  0  0  0  0  0  0  0  0
    1.5517   -0.9386    0.4082 C   0  0  0  0  0  0  0  0  0  0  0  0
    2.7404    1.5023   -0.7609 C   0  0  0  0  0  0  0  0  0  0  0  0
    3.1036    2.9403   -1.1979 C   0  0  0  0  0  0  0  0  0  0  0  0
    3.2415    3.5259   -4.5309 H   0  0  0  0  0  0  0  0  0  0  0  0
    3.9575    2.1490   -3.6628 H   0  0  0  0  0  0  0  0  0  0  0  0
    4.5003    3.8091   -3.3379 H   0  0  0  0  0  0  0  0  0  0  0  0
    0.7761    3.2293   -3.5479 H   0  0  0  0  0  0  0  0  0  0  0  0
    1.6350    1.6899   -3.4436 H   0  0  0  0  0  0  0  0  0  0  0  0
    0.2019    3.0576   -1.0990 H   0  0  0  0  0  0  0  0  0  0  0  0
   -0.3705    1.6838   -2.0619 H   0  0  0  0  0  0  0  0  0  0  0  0
   -1.2895    0.9910   -0.1208 H   0  0  0  0  0  0  0  0  0  0  0  0
   -3.1692    0.0686    0.9514 H   0  0  0  0  0  0  0  0  0  0  0  0
   -3.0558   -3.9204    2.6713 H   0  0  0  0  0  0  0  0  0  0  0  0
   -2.7726   -3.8155    0.9352 H   0  0  0  0  0  0  0  0  0  0  0  0
   -0.6615   -4.0458    2.2075 H   0  0  0  0  0  0  0  0  0  0  0  0
   -1.0436   -2.6105    3.1584 H   0  0  0  0  0  0  0  0  0  0  0  0
   -0.4869   -2.7793    0.1504 H   0  0  0  0  0  0  0  0  0  0  0  0
    0.9039   -1.2857    2.4358 H   0  0  0  0  0  0  0  0  0  0  0  0
    1.5105   -2.7234    1.6201 H   0  0  0  0  0  0  0  0  0  0  0  0
    2.4857   -0.5641    0.8372 H   0  0  0  0  0  0  0  0  0  0  0  0
    1.8208   -1.5526   -0.4606 H   0  0  0  0  0  0  0  0  0  0  0  0
    3.1323    1.3703    0.2535 H   0  0  0  0  0  0  0  0  0  0  0  0
    3.2314    0.7743   -1.4166 H   0  0  0  0  0  0  0  0  0  0  0  0
    4.1881    3.0855   -1.1187 H   0  0  0  0  0  0  0  0  0  0  0  0
    2.6641    3.6345   -0.4686 H   0  0  0  0  0  0  0  0  0  0  0  0
  1  2  1  0
  2  3  1  0
  3  4  1  0
  4  5  1  0
  5  6  1  0
  6  7  2  0
  7  8  1  0
  8  9  2  0
  9 10  1  0
 10 11  2  3
 11 12  1  0
 12 13  3  0
 11 14  1  0
 14 15  3  0
 10 16  1  0
 16 17  1  0
 17 18  1  0
 18 19  1  0
 19 20  1  0
  5 21  1  0
 21 22  1  0
 22  2  1  0
 20  6  1  0
 18  8  1  0
  1 23  1  0
  1 24  1  0
  1 25  1  0
  3 26  1  0
  3 27  1  0
  4 28  1  0
  4 29  1  0
  7 30  1  0
  9 31  1  0
 16 32  1  0
 16 33  1  0
 17 34  1  0
 17 35  1  0
 18 36  1  0
 19 37  1  0
 19 38  1  0
 20 39  1  0
 20 40  1  0
 21 41  1  0
 21 42  1  0
 22 43  1  0
 22 44  1  0
M  END
$$$$
