
     RDKit          3D

 50 53  0  0  0  0  0  0  0  0999 V2000
    1.0836    4.1556   -0.2609 C   0  0  0  0  0  0  0  0  0  0  0  0
    0.8622    3.1582    0.8663 C   0  0  0  0  0  0  0  0  0  0  0  0
    0.5350    1.7802    0.3420 C   0  0  0  0  0  0  0  0  0  0  0  0
    1.5667    0.8449    0.1627 C   0  0  0  0  0  0  0  0  0  0  0  0
    1.3040   -0.4342   -0.3421 C   0  0  0  0  0  0  0  0  0  0  0  0
    2.3717   -1.4275   -0.5437 C   0  0  0  0  0  0  0  0  0  0  0  0
    3.8022   -1.2308   -0.2400 C   0  0  0  0  0  0  0  0  0  0  0  0
    4.3055   -1.5544    1.0263 C   0  0  0  0  0  0  0  0  0  0  0  0
    5.6589   -1.3670    1.3121 C   0  0  0  0  0  0  0  0  0  0  0  0
    6.5143   -0.8568    0.3362 C   0  0  0  0  0  0  0  0  0  0  0  0
    6.0194   -0.5326   -0.9265 C   0  0  0  0  0  0  0  0  0  0  0  0
    4.6666   -0.7188   -1.2158 C   0  0  0  0  0  0  0  0  0  0  0  0
    2.0377   -2.6255   -1.0477 C   0  0  0  0  0  0  0  0  0  0  0  0
    0.6635   -2.9915   -1.4080 C   0  0  0  0  0  0  0  0  0  0  0  0
    0.4062   -4.0975   -1.8682 O   0  0  0  0  0  0  0  0  0  0  0  0
   -0.3134   -2.0336   -1.2030 O   0  0  0  0  0  0  0  0  0  0  0  0
   -0.0153   -0.7599   -0.6688 C   0  0  0  0  0  0  0  0  0  0  0  0
   -1.0828    0.1387   -0.4984 C   0  0  0  0  0  0  0  0  0  0  0  0
   -2.4853   -0.2358   -0.9392 C   0  0  0  0  0  0  0  0  0  0  0  0
   -3.5433    0.2780   -0.0363 N   0  0  0  0  0  0  0  0  0  0  0  0
   -4.8853    0.1355   -0.6548 C   0  0  0  0  0  0  0  0  0  0  0  0
   -5.6538   -1.1104   -0.1883 C   0  0  0  0  0  0  0  0  0  0  0  0
   -5.8810   -1.1285    1.2267 O   0  0  0  0  0  0  0  0  0  0  0  0
   -4.8741   -0.4284    1.9698 C   0  0  0  0  0  0  0  0  0  0  0  0
   -3.5079   -0.4411    1.2683 C   0  0  0  0  0  0  0  0  0  0  0  0
   -0.7751    1.4149    0.0026 C   0  0  0  0  0  0  0  0  0  0  0  0
   -1.7619    2.3497    0.1833 O   0  0  0  0  0  0  0  0  0  0  0  0
    0.1887    4.2610   -0.8832 H   0  0  0  0  0  0  0  0  0  0  0  0
    1.9086    3.8430   -0.9101 H   0  0  0  0  0  0  0  0  0  0  0  0
    1.3288    5.1406    0.1486 H   0  0  0  0  0  0  0  0  0  0  0  0
    1.7621    3.1104    1.4921 H   0  0  0  0  0  0  0  0  0  0  0  0
    0.0621    3.5097    1.5285 H   0  0  0  0  0  0  0  0  0  0  0  0
    2.5848    1.1336    0.4187 H   0  0  0  0  0  0  0  0  0  0  0  0
    3.6477   -1.9504    1.7967 H   0  0  0  0  0  0  0  0  0  0  0  0
    6.0461   -1.6186    2.2963 H   0  0  0  0  0  0  0  0  0  0  0  0
    7.5683   -0.7114    0.5601 H   0  0  0  0  0  0  0  0  0  0  0  0
    6.6874   -0.1342   -1.6860 H   0  0  0  0  0  0  0  0  0  0  0  0
    4.2919   -0.4592   -2.2034 H   0  0  0  0  0  0  0  0  0  0  0  0
    2.7714   -3.4057   -1.2232 H   0  0  0  0  0  0  0  0  0  0  0  0
   -2.5999   -1.3192   -1.0619 H   0  0  0  0  0  0  0  0  0  0  0  0
   -2.6090    0.2097   -1.9354 H   0  0  0  0  0  0  0  0  0  0  0  0
   -4.8316    0.1588   -1.7494 H   0  0  0  0  0  0  0  0  0  0  0  0
   -5.4606    1.0225   -0.3604 H   0  0  0  0  0  0  0  0  0  0  0  0
   -6.6330   -1.1520   -0.6762 H   0  0  0  0  0  0  0  0  0  0  0  0
   -5.1156   -2.0254   -0.4614 H   0  0  0  0  0  0  0  0  0  0  0  0
   -5.2197    0.5986    2.1364 H   0  0  0  0  0  0  0  0  0  0  0  0
   -4.7985   -0.9087    2.9507 H   0  0  0  0  0  0  0  0  0  0  0  0
   -3.2144   -1.4892    1.1232 H   0  0  0  0  0  0  0  0  0  0  0  0
   -2.7636    0.0297    1.9195 H   0  0  0  0  0  0  0  0  0  0  0  0
   -2.6203    1.8751    0.1252 H   0  0  0  0  0  0  0  0  0  0  0  0
  1  2  1  0
  2  3  1  0
  3  4  2  0
  4  5  1  0
  5  6  1  0
  6  7  1  0
  7  8  2  0
  8  9  1  0
  9 10  2  0
 10 11  1  0
 11 12  2  0
  6 13  2  0
 13 14  1  0
 14 15  2  0
 14 16  1  0
 16 17  1  0
 17 18  1  0
 18 19  1  0
 19 20  1  0
 20 21  1  0
 21 22  1  0
 22 23  1  0
 23 24  1  0
 24 25  1  0
 18 26  2  0
 26 27  1  0
 26  3  1  0
 17  5  2  0
 25 20  1  0
 12  7  1  0
  1 28  1  0
  1 29  1  0
  1 30  1  0
  2 31  1  0
  2 32  1  0
  4 33  1  0
  8 34  1  0
  9 35  1  0
 10 36  1  0
 11 37  1  0
 12 38  1  0
 13 39  1  0
 19 40  1  0
 19 41  1  0
 21 42  1  0
 21 43  1  0
 22 44  1  0
 22 45  1  0
 24 46  1  0
 24 47  1  0
 25 48  1  0
 25 49  1  0
 27 50  1  0
M  END
$$$$
