
     RDKit          3D

 57 59  0  0  0  0  0  0  0  0999 V2000
   -3.4781    3.1346    0.8433 C   0  0  0  0  0  0  0  0  0  0  0  0
   -3.9818    2.3063   -0.3298 C   0  0  0  0  0  0  0  0  0  0  0  0
   -3.7816    0.8641   -0.1369 N   0  0  0  0  0  0  0  0  0  0  0  0
   -2.6913    0.1732   -0.6838 C   0  0  0  0  0  0  0  0  0  0  0  0
   -2.6702   -1.0597   -0.7170 O   0  0  0  0  0  0  0  0  0  0  0  0
   -1.5223    0.9909   -1.2594 C   0  0  0  0  0  0  0  0  0  0  0  0
   -0.3411    0.2065   -1.4429 O   0  0  0  0  0  0  0  0  0  0  0  0
    0.2832   -0.1089   -0.2839 C   0  0  0  0  0  0  0  0  0  0  0  0
    0.0279    0.2945    0.8371 O   0  0  0  0  0  0  0  0  0  0  0  0
    1.4004   -1.0051   -0.5978 C   0  0  0  0  0  0  0  0  0  0  0  0
    2.5618   -0.4487   -1.1482 C   0  0  0  0  0  0  0  0  0  0  0  0
    3.6796   -1.2603   -1.4154 C   0  0  0  0  0  0  0  0  0  0  0  0
    5.1117   -0.4531   -2.1064 S   0  0  0  0  0  6  0  0  0  0  0  0
    5.8814   -1.4078   -2.8700 O   0  0  0  0  0  0  0  0  0  0  0  0
    4.6324    0.7616   -2.7358 O   0  0  0  0  0  0  0  0  0  0  0  0
    6.0095    0.0030   -0.7488 N   0  0  0  0  0  0  0  0  0  0  0  0
    6.7162   -1.0615    0.0144 C   0  0  0  0  0  0  0  0  0  0  0  0
    7.3631   -0.4659    1.2699 C   0  0  0  0  0  0  0  0  0  0  0  0
    6.3933    0.0805    2.1780 O   0  0  0  0  0  0  0  0  0  0  0  0
    5.2625    0.6760    1.5281 C   0  0  0  0  0  0  0  0  0  0  0  0
    5.5370    1.1381    0.0926 C   0  0  0  0  0  0  0  0  0  0  0  0
    3.6026   -2.6377   -1.1777 C   0  0  0  0  0  0  0  0  0  0  0  0
    4.8714   -3.7692   -1.4705 Cl  0  0  0  0  0  0  0  0  0  0  0  0
    2.4316   -3.1775   -0.6243 C   0  0  0  0  0  0  0  0  0  0  0  0
    1.3350   -2.3667   -0.3223 C   0  0  0  0  0  0  0  0  0  0  0  0
   -0.0575   -3.1100    0.3737 Cl  0  0  0  0  0  0  0  0  0  0  0  0
   -4.8674    0.0398    0.4283 C   0  0  0  0  0  0  0  0  0  0  0  0
   -5.7078    0.6907    1.5375 C   0  0  0  0  0  0  0  0  0  0  0  0
   -6.8118   -0.3119    1.8477 C   0  0  0  0  0  0  0  0  0  0  0  0
   -7.3032   -0.9554    0.2575 S   0  0  0  0  0  6  0  0  0  0  0  0
   -7.3364   -2.3997    0.3361 O   0  0  0  0  0  0  0  0  0  0  0  0
   -8.4324   -0.1818   -0.2181 O   0  0  0  0  0  0  0  0  0  0  0  0
   -5.8514   -0.4395   -0.6434 C   0  0  0  0  0  0  0  0  0  0  0  0
   -2.4112    2.9734    1.0220 H   0  0  0  0  0  0  0  0  0  0  0  0
   -4.0038    2.8890    1.7705 H   0  0  0  0  0  0  0  0  0  0  0  0
   -3.6315    4.2011    0.6440 H   0  0  0  0  0  0  0  0  0  0  0  0
   -5.0433    2.4991   -0.5114 H   0  0  0  0  0  0  0  0  0  0  0  0
   -3.4636    2.6272   -1.2380 H   0  0  0  0  0  0  0  0  0  0  0  0
   -1.8233    1.3475   -2.2510 H   0  0  0  0  0  0  0  0  0  0  0  0
   -1.2919    1.8625   -0.6378 H   0  0  0  0  0  0  0  0  0  0  0  0
    2.5884    0.6198   -1.3589 H   0  0  0  0  0  0  0  0  0  0  0  0
    5.9954   -1.8207    0.3313 H   0  0  0  0  0  0  0  0  0  0  0  0
    7.4840   -1.5160   -0.6168 H   0  0  0  0  0  0  0  0  0  0  0  0
    7.9173   -1.2392    1.8125 H   0  0  0  0  0  0  0  0  0  0  0  0
    8.0735    0.3264    1.0105 H   0  0  0  0  0  0  0  0  0  0  0  0
    4.9394    1.5232    2.1403 H   0  0  0  0  0  0  0  0  0  0  0  0
    4.4494   -0.0642    1.5427 H   0  0  0  0  0  0  0  0  0  0  0  0
    4.6390    1.6065   -0.3196 H   0  0  0  0  0  0  0  0  0  0  0  0
    6.3276    1.8965    0.0881 H   0  0  0  0  0  0  0  0  0  0  0  0
    2.3736   -4.2467   -0.4225 H   0  0  0  0  0  0  0  0  0  0  0  0
   -4.4031   -0.8509    0.8734 H   0  0  0  0  0  0  0  0  0  0  0  0
   -6.1594    1.6300    1.1983 H   0  0  0  0  0  0  0  0  0  0  0  0
   -5.1113    0.9067    2.4300 H   0  0  0  0  0  0  0  0  0  0  0  0
   -7.6700    0.1456    2.3429 H   0  0  0  0  0  0  0  0  0  0  0  0
   -6.4335   -1.1447    2.4474 H   0  0  0  0  0  0  0  0  0  0  0  0
   -6.1452    0.3669   -1.3213 H   0  0  0  0  0  0  0  0  0  0  0  0
   -5.4628   -1.2786   -1.2231 H   0  0  0  0  0  0  0  0  0  0  0  0
  1  2  1  0
  2  3  1  0
  3  4  1  0
  4  5  2  0
  4  6  1  0
  6  7  1  0
  7  8  1  0
  8  9  2  0
  8 10  1  0
 10 11  2  0
 11 12  1  0
 12 13  1  0
 13 14  2  0
 13 15  2  0
 13 16  1  0
 16 17  1  0
 17 18  1  0
 18 19  1  0
 19 20  1  0
 20 21  1  0
 12 22  2  0
 22 23  1  0
 22 24  1  0
 24 25  2  0
 25 26  1  0
  3 27  1  0
 27 28  1  0
 28 29  1  0
 29 30  1  0
 30 31  2  0
 30 32  2  0
 30 33  1  0
 25 10  1  0
 33 27  1  0
 21 16  1  0
  1 34  1  0
  1 35  1  0
  1 36  1  0
  2 37  1  0
  2 38  1  0
  6 39  1  0
  6 40  1  0
 11 41  1  0
 17 42  1  0
 17 43  1  0
 18 44  1  0
 18 45  1  0
 20 46  1  0
 20 47  1  0
 21 48  1  0
 21 49  1  0
 24 50  1  0
 27 51  1  0
 28 52  1  0
 28 53  1  0
 29 54  1  0
 29 55  1  0
 33 56  1  0
 33 57  1  0
M  END
$$$$
