
     RDKit          3D

 48 51  0  0  0  0  0  0  0  0999 V2000
    3.1957    0.2551    2.1930 O   0  0  0  0  0  0  0  0  0  0  0  0
    2.0299    0.8453    1.5660 S   0  0  0  0  0  6  0  0  0  0  0  0
    1.9746    2.2598    1.2570 O   0  0  0  0  0  0  0  0  0  0  0  0
    1.6241   -0.1039    0.0871 C   0  0  0  0  0  0  0  0  0  0  0  0
    2.6552    0.1530   -0.9803 C   0  0  0  0  0  0  0  0  0  0  0  0
    3.8767   -0.5361   -0.9769 C   0  0  0  0  0  0  0  0  0  0  0  0
    4.8265   -0.2970   -1.9708 C   0  0  0  0  0  0  0  0  0  0  0  0
    4.5666    0.6314   -2.9767 C   0  0  0  0  0  0  0  0  0  0  0  0
    3.3578    1.3243   -2.9885 C   0  0  0  0  0  0  0  0  0  0  0  0
    2.4061    1.0879   -1.9956 C   0  0  0  0  0  0  0  0  0  0  0  0
    0.7127    0.5215    2.5814 N   0  0  0  0  0  0  0  0  0  0  0  0
   -0.5630    1.2256    2.2730 C   0  0  0  0  0  0  0  0  0  0  0  0
   -1.7724    0.5528    2.9476 C   0  0  0  0  0  0  0  0  0  0  0  0
   -1.9167   -0.8825    2.6704 N   0  0  0  0  0  0  0  0  0  0  0  0
   -2.9383   -1.2442    1.6830 C   0  0  0  0  0  0  0  0  0  0  0  0
   -2.6907   -0.7879    0.2576 C   0  0  0  0  0  0  0  0  0  0  0  0
   -2.0298   -1.6365   -0.6637 C   0  0  0  0  0  0  0  0  0  0  0  0
   -1.7604   -1.2190   -1.9716 C   0  0  0  0  0  0  0  0  0  0  0  0
   -2.1703    0.0433   -2.3370 C   0  0  0  0  0  0  0  0  0  0  0  0
   -2.8336    0.8684   -1.4617 C   0  0  0  0  0  0  0  0  0  0  0  0
   -3.1151    0.4829   -0.1677 C   0  0  0  0  0  0  0  0  0  0  0  0
   -3.1535    2.0666   -2.0189 O   0  0  0  0  0  0  0  0  0  0  0  0
   -2.6168    1.9000   -3.3482 C   0  0  0  0  0  0  0  0  0  0  0  0
   -1.9860    0.6186   -3.5545 O   0  0  0  0  0  0  0  0  0  0  0  0
   -0.6345   -1.5816    2.5182 C   0  0  0  0  0  0  0  0  0  0  0  0
    0.5618   -0.8444    3.1500 C   0  0  0  0  0  0  0  0  0  0  0  0
    1.6063   -1.1649    0.3508 H   0  0  0  0  0  0  0  0  0  0  0  0
    0.6325    0.1981   -0.2572 H   0  0  0  0  0  0  0  0  0  0  0  0
    4.1051   -1.2552   -0.1921 H   0  0  0  0  0  0  0  0  0  0  0  0
    5.7740   -0.8297   -1.9550 H   0  0  0  0  0  0  0  0  0  0  0  0
    5.3102    0.8214   -3.7462 H   0  0  0  0  0  0  0  0  0  0  0  0
    3.1586    2.0552   -3.7679 H   0  0  0  0  0  0  0  0  0  0  0  0
    1.4723    1.6467   -2.0170 H   0  0  0  0  0  0  0  0  0  0  0  0
   -0.4828    2.2556    2.6382 H   0  0  0  0  0  0  0  0  0  0  0  0
   -0.7199    1.2651    1.1924 H   0  0  0  0  0  0  0  0  0  0  0  0
   -2.6901    1.1048    2.7146 H   0  0  0  0  0  0  0  0  0  0  0  0
   -1.6519    0.6571    4.0345 H   0  0  0  0  0  0  0  0  0  0  0  0
   -3.0717   -2.3344    1.6886 H   0  0  0  0  0  0  0  0  0  0  0  0
   -3.9109   -0.8546    2.0129 H   0  0  0  0  0  0  0  0  0  0  0  0
   -1.7193   -2.6342   -0.3578 H   0  0  0  0  0  0  0  0  0  0  0  0
   -1.2473   -1.8645   -2.6757 H   0  0  0  0  0  0  0  0  0  0  0  0
   -3.6472    1.1567    0.4950 H   0  0  0  0  0  0  0  0  0  0  0  0
   -1.8762    2.6878   -3.5277 H   0  0  0  0  0  0  0  0  0  0  0  0
   -3.4319    2.0109   -4.0725 H   0  0  0  0  0  0  0  0  0  0  0  0
   -0.7210   -2.5757    2.9713 H   0  0  0  0  0  0  0  0  0  0  0  0
   -0.3926   -1.7361    1.4640 H   0  0  0  0  0  0  0  0  0  0  0  0
    0.4275   -0.7519    4.2345 H   0  0  0  0  0  0  0  0  0  0  0  0
    1.4698   -1.4374    3.0005 H   0  0  0  0  0  0  0  0  0  0  0  0
  1  2  2  0
  2  3  2  0
  2  4  1  0
  4  5  1  0
  5  6  2  0
  6  7  1  0
  7  8  2  0
  8  9  1  0
  9 10  2  0
  2 11  1  0
 11 12  1  0
 12 13  1  0
 13 14  1  0
 14 15  1  0
 15 16  1  0
 16 17  2  0
 17 18  1  0
 18 19  2  0
 19 20  1  0
 20 21  2  0
 20 22  1  0
 22 23  1  0
 23 24  1  0
 14 25  1  0
 25 26  1  0
 10  5  1  0
 26 11  1  0
 21 16  1  0
 24 19  1  0
  4 27  1  0
  4 28  1  0
  6 29  1  0
  7 30  1  0
  8 31  1  0
  9 32  1  0
 10 33  1  0
 12 34  1  0
 12 35  1  0
 13 36  1  0
 13 37  1  0
 15 38  1  0
 15 39  1  0
 17 40  1  0
 18 41  1  0
 21 42  1  0
 23 43  1  0
 23 44  1  0
 25 45  1  0
 25 46  1  0
 26 47  1  0
 26 48  1  0
M  END
$$$$
