
     RDKit          3D

 51 55  0  0  0  0  0  0  0  0999 V2000
   -1.4580    1.2007    1.6233 C   0  0  0  0  0  0  0  0  0  0  0  0
   -0.0823    1.3255    1.8515 C   0  0  0  0  0  0  0  0  0  0  0  0
    0.8003    0.6530    0.9913 C   0  0  0  0  0  0  0  0  0  0  0  0
    0.3330   -0.1169   -0.0762 C   0  0  0  0  0  0  0  0  0  0  0  0
   -1.0584   -0.2252   -0.2852 C   0  0  0  0  0  0  0  0  0  0  0  0
   -1.9623    0.4301    0.5700 C   0  0  0  0  0  0  0  0  0  0  0  0
   -3.4633    0.3300    0.3590 C   0  0  0  0  0  0  0  0  0  0  0  0
   -3.9121    1.1089   -0.8947 C   0  0  0  0  0  0  0  0  0  0  0  0
   -5.2302    0.6012   -1.4874 C   0  0  0  0  0  0  0  0  0  0  0  0
   -6.1424    0.0042   -0.4249 C   0  0  0  0  0  0  0  0  0  0  0  0
   -5.4941   -1.1886    0.2805 C   0  0  0  0  0  0  0  0  0  0  0  0
   -3.9643   -1.1213    0.3193 C   0  0  0  0  0  0  0  0  0  0  0  0
    1.4710   -0.6312   -0.7523 C   0  0  0  0  0  0  0  0  0  0  0  0
    2.5989   -0.1713   -0.0950 C   0  0  0  0  0  0  0  0  0  0  0  0
    2.1860    0.5907    0.9710 N   0  0  0  0  0  0  0  0  0  0  0  0
    3.0406    1.2846    1.9234 C   0  0  0  0  0  0  0  0  0  0  0  0
    4.4194    0.6704    2.1259 C   0  0  0  0  0  0  0  0  0  0  0  0
    5.3768    0.9306    0.9617 C   0  0  0  0  0  0  0  0  0  0  0  0
    4.8746    0.6786   -0.3832 N   0  0  0  0  0  0  0  0  0  0  0  0
    4.0110   -0.4916   -0.4851 C   0  0  0  0  0  0  0  0  0  0  0  0
    4.0277   -0.9831   -1.9551 C   0  0  0  0  0  0  0  0  0  0  0  0
    2.9430   -2.0456   -2.2048 C   0  0  0  0  0  0  0  0  0  0  0  0
    1.5310   -1.4794   -1.9797 C   0  0  0  0  0  0  0  0  0  0  0  0
   -2.1403    1.7236    2.2911 H   0  0  0  0  0  0  0  0  0  0  0  0
    0.2775    1.9323    2.6756 H   0  0  0  0  0  0  0  0  0  0  0  0
   -1.4198   -0.8160   -1.1218 H   0  0  0  0  0  0  0  0  0  0  0  0
   -3.9520    0.8005    1.2249 H   0  0  0  0  0  0  0  0  0  0  0  0
   -4.0186    2.1678   -0.6242 H   0  0  0  0  0  0  0  0  0  0  0  0
   -3.1516    1.0830   -1.6851 H   0  0  0  0  0  0  0  0  0  0  0  0
   -5.0157   -0.1624   -2.2458 H   0  0  0  0  0  0  0  0  0  0  0  0
   -5.7385    1.4216   -2.0065 H   0  0  0  0  0  0  0  0  0  0  0  0
   -7.0939   -0.3061   -0.8713 H   0  0  0  0  0  0  0  0  0  0  0  0
   -6.3840    0.7770    0.3159 H   0  0  0  0  0  0  0  0  0  0  0  0
   -5.8888   -1.2492    1.3020 H   0  0  0  0  0  0  0  0  0  0  0  0
   -5.7914   -2.1201   -0.2166 H   0  0  0  0  0  0  0  0  0  0  0  0
   -3.5687   -1.6334   -0.5674 H   0  0  0  0  0  0  0  0  0  0  0  0
   -3.5992   -1.6858    1.1863 H   0  0  0  0  0  0  0  0  0  0  0  0
    2.5214    1.2672    2.8883 H   0  0  0  0  0  0  0  0  0  0  0  0
    3.1101    2.3264    1.5905 H   0  0  0  0  0  0  0  0  0  0  0  0
    4.3299   -0.4069    2.3136 H   0  0  0  0  0  0  0  0  0  0  0  0
    4.8667    1.1017    3.0303 H   0  0  0  0  0  0  0  0  0  0  0  0
    6.2767    0.3226    1.1151 H   0  0  0  0  0  0  0  0  0  0  0  0
    5.7150    1.9732    1.0031 H   0  0  0  0  0  0  0  0  0  0  0  0
    4.3644    1.4863   -0.7399 H   0  0  0  0  0  0  0  0  0  0  0  0
    4.3857   -1.3159    0.1359 H   0  0  0  0  0  0  0  0  0  0  0  0
    5.0133   -1.4025   -2.1919 H   0  0  0  0  0  0  0  0  0  0  0  0
    3.8629   -0.1456   -2.6475 H   0  0  0  0  0  0  0  0  0  0  0  0
    3.1108   -2.8941   -1.5290 H   0  0  0  0  0  0  0  0  0  0  0  0
    3.0229   -2.4308   -3.2276 H   0  0  0  0  0  0  0  0  0  0  0  0
    0.8124   -2.3038   -1.9132 H   0  0  0  0  0  0  0  0  0  0  0  0
    1.2467   -0.8648   -2.8428 H   0  0  0  0  0  0  0  0  0  0  0  0
  1  2  2  0
  2  3  1  0
  3  4  2  0
  4  5  1  0
  5  6  2  0
  6  7  1  0
  7  8  1  0
  8  9  1  0
  9 10  1  0
 10 11  1  0
 11 12  1  0
  4 13  1  0
 13 14  2  0
 14 15  1  0
 15 16  1  0
 16 17  1  0
 17 18  1  0
 18 19  1  0
 19 20  1  0
 20 21  1  0
 21 22  1  0
 22 23  1  0
  6  1  1  0
 12  7  1  0
 23 13  1  0
 15  3  1  0
 20 14  1  0
  1 24  1  0
  2 25  1  0
  5 26  1  0
  7 27  1  0
  8 28  1  0
  8 29  1  0
  9 30  1  0
  9 31  1  0
 10 32  1  0
 10 33  1  0
 11 34  1  0
 11 35  1  0
 12 36  1  0
 12 37  1  0
 16 38  1  0
 16 39  1  0
 17 40  1  0
 17 41  1  0
 18 42  1  0
 18 43  1  0
 19 44  1  0
 20 45  1  0
 21 46  1  0
 21 47  1  0
 22 48  1  0
 22 49  1  0
 23 50  1  0
 23 51  1  0
M  END
$$$$
