
     RDKit          3D

 67 72  0  0  0  0  0  0  0  0999 V2000
   -2.9009   -3.1365   -0.1792 O   0  0  0  0  0  0  0  0  0  0  0  0
   -2.6022   -1.9889   -0.5234 C   0  0  0  0  0  0  0  0  0  0  0  0
   -3.7048   -1.0007   -0.9189 C   0  0  0  0  0  0  0  0  0  0  0  0
   -4.2238   -0.3033    0.3527 C   0  0  0  0  0  0  0  0  0  0  0  0
   -5.4648    0.5248    0.1095 C   0  0  0  0  0  0  0  0  0  0  0  0
   -6.7256   -0.0849    0.0604 C   0  0  0  0  0  0  0  0  0  0  0  0
   -7.8691    0.6771   -0.1832 C   0  0  0  0  0  0  0  0  0  0  0  0
   -7.7631    2.0523   -0.3824 C   0  0  0  0  0  0  0  0  0  0  0  0
   -6.5133    2.6676   -0.3391 C   0  0  0  0  0  0  0  0  0  0  0  0
   -5.3686    1.9081   -0.0941 C   0  0  0  0  0  0  0  0  0  0  0  0
   -3.2383   -0.0572   -1.9311 N   0  0  0  0  0  0  0  0  0  0  0  0
   -2.0092    0.5328   -1.6555 C   0  0  0  0  0  0  0  0  0  0  0  0
   -1.8941    1.7897   -2.1091 N   0  0  0  0  0  0  0  0  0  0  0  0
   -0.7083    2.3660   -1.9321 C   0  0  0  0  0  0  0  0  0  0  0  0
    0.3587    1.7982   -1.3670 N   0  0  0  0  0  0  0  0  0  0  0  0
    0.2300    0.5238   -0.9279 C   0  0  0  0  0  0  0  0  0  0  0  0
    1.4089   -0.0711   -0.4321 N   0  0  0  0  0  0  0  0  0  0  0  0
    2.1317    0.8093    0.5260 C   0  0  0  0  0  0  0  0  0  0  0  0
    3.3777    1.4981   -0.0743 C   0  0  0  0  0  0  0  0  0  0  0  0
    4.3233    0.5023   -0.6139 N   0  0  0  0  0  0  0  0  0  0  0  0
    5.6697    0.7805   -0.7764 C   0  0  0  0  0  0  0  0  0  0  0  0
    6.6150   -0.2426   -0.9600 C   0  0  0  0  0  0  0  0  0  0  0  0
    7.9800    0.0254   -1.1203 C   0  0  0  0  0  0  0  0  0  0  0  0
    8.4394    1.3358   -1.0989 C   0  0  0  0  0  0  0  0  0  0  0  0
    7.5329    2.3717   -0.9141 C   0  0  0  0  0  0  0  0  0  0  0  0
    6.1699    2.0925   -0.7527 C   0  0  0  0  0  0  0  0  0  0  0  0
    3.7243   -0.7262   -1.1696 C   0  0  0  0  0  0  0  0  0  0  0  0
    2.2541   -0.4934   -1.5861 C   0  0  0  0  0  0  0  0  0  0  0  0
   -0.9881   -0.1743   -1.0028 C   0  0  0  0  0  0  0  0  0  0  0  0
   -1.2918   -1.4871   -0.4722 N   0  0  0  0  0  0  0  0  0  0  0  0
   -0.3256   -2.3264    0.2227 C   0  0  0  0  0  0  0  0  0  0  0  0
   -0.4276   -2.2490    1.7365 C   0  0  0  0  0  0  0  0  0  0  0  0
   -0.4642   -1.0250    2.4201 C   0  0  0  0  0  0  0  0  0  0  0  0
   -0.5361   -0.9852    3.8145 C   0  0  0  0  0  0  0  0  0  0  0  0
   -0.5676   -2.1694    4.5463 C   0  0  0  0  0  0  0  0  0  0  0  0
   -0.5270   -3.3936    3.8845 C   0  0  0  0  0  0  0  0  0  0  0  0
   -0.4544   -3.4334    2.4906 C   0  0  0  0  0  0  0  0  0  0  0  0
   -4.5085   -1.5904   -1.3774 H   0  0  0  0  0  0  0  0  0  0  0  0
   -3.4472    0.3291    0.8030 H   0  0  0  0  0  0  0  0  0  0  0  0
   -4.4549   -1.0540    1.1208 H   0  0  0  0  0  0  0  0  0  0  0  0
   -6.8272   -1.1571    0.2147 H   0  0  0  0  0  0  0  0  0  0  0  0
   -8.8438    0.1969   -0.2168 H   0  0  0  0  0  0  0  0  0  0  0  0
   -8.6547    2.6444   -0.5718 H   0  0  0  0  0  0  0  0  0  0  0  0
   -6.4297    3.7399   -0.4961 H   0  0  0  0  0  0  0  0  0  0  0  0
   -4.3996    2.4032   -0.0682 H   0  0  0  0  0  0  0  0  0  0  0  0
   -3.9037    0.6516   -2.2280 H   0  0  0  0  0  0  0  0  0  0  0  0
   -0.5960    3.3844   -2.2864 H   0  0  0  0  0  0  0  0  0  0  0  0
    2.4616    0.1657    1.3521 H   0  0  0  0  0  0  0  0  0  0  0  0
    1.4686    1.5574    0.9795 H   0  0  0  0  0  0  0  0  0  0  0  0
    3.8475    2.0768    0.7301 H   0  0  0  0  0  0  0  0  0  0  0  0
    3.0854    2.1935   -0.8697 H   0  0  0  0  0  0  0  0  0  0  0  0
    6.3060   -1.2841   -0.9551 H   0  0  0  0  0  0  0  0  0  0  0  0
    8.6796   -0.7948   -1.2548 H   0  0  0  0  0  0  0  0  0  0  0  0
    9.4970    1.5474   -1.2230 H   0  0  0  0  0  0  0  0  0  0  0  0
    7.8786    3.4019   -0.8973 H   0  0  0  0  0  0  0  0  0  0  0  0
    5.4994    2.9381   -0.6307 H   0  0  0  0  0  0  0  0  0  0  0  0
    3.7774   -1.5219   -0.4170 H   0  0  0  0  0  0  0  0  0  0  0  0
    4.2665   -1.0607   -2.0622 H   0  0  0  0  0  0  0  0  0  0  0  0
    1.8515   -1.4223   -2.0076 H   0  0  0  0  0  0  0  0  0  0  0  0
    2.2429    0.2595   -2.3871 H   0  0  0  0  0  0  0  0  0  0  0  0
    0.7010   -2.1749   -0.0971 H   0  0  0  0  0  0  0  0  0  0  0  0
   -0.5288   -3.3626   -0.0820 H   0  0  0  0  0  0  0  0  0  0  0  0
   -0.4389   -0.0861    1.8760 H   0  0  0  0  0  0  0  0  0  0  0  0
   -0.5674   -0.0281    4.3284 H   0  0  0  0  0  0  0  0  0  0  0  0
   -0.6253   -2.1390    5.6309 H   0  0  0  0  0  0  0  0  0  0  0  0
   -0.5540   -4.3201    4.4521 H   0  0  0  0  0  0  0  0  0  0  0  0
   -0.4304   -4.4012    1.9935 H   0  0  0  0  0  0  0  0  0  0  0  0
  1  2  2  0
  2  3  1  0
  3  4  1  0
  4  5  1  0
  5  6  2  0
  6  7  1  0
  7  8  2  0
  8  9  1  0
  9 10  2  0
  3 11  1  0
 11 12  1  0
 12 13  2  0
 13 14  1  0
 14 15  2  0
 15 16  1  0
 16 17  1  0
 17 18  1  0
 18 19  1  0
 19 20  1  0
 20 21  1  0
 21 22  2  0
 22 23  1  0
 23 24  2  0
 24 25  1  0
 25 26  2  0
 20 27  1  0
 27 28  1  0
 16 29  2  0
 29 30  1  0
 30 31  1  0
 31 32  1  0
 32 33  2  0
 33 34  1  0
 34 35  2  0
 35 36  1  0
 36 37  2  0
 30  2  1  0
 37 32  1  0
 10  5  1  0
 29 12  1  0
 28 17  1  0
 26 21  1  0
  3 38  1  0
  4 39  1  0
  4 40  1  0
  6 41  1  0
  7 42  1  0
  8 43  1  0
  9 44  1  0
 10 45  1  0
 11 46  1  0
 14 47  1  0
 18 48  1  0
 18 49  1  0
 19 50  1  0
 19 51  1  0
 22 52  1  0
 23 53  1  0
 24 54  1  0
 25 55  1  0
 26 56  1  0
 27 57  1  0
 27 58  1  0
 28 59  1  0
 28 60  1  0
 31 61  1  0
 31 62  1  0
 33 63  1  0
 34 64  1  0
 35 65  1  0
 36 66  1  0
 37 67  1  0
M  END
$$$$
