
     RDKit          3D

 37 39  0  0  0  0  0  0  0  0999 V2000
    4.7087   -1.5277    2.2142 C   0  0  0  0  0  0  0  0  0  0  0  0
    3.4528   -1.1080    1.5121 C   0  0  0  0  0  0  0  0  0  0  0  0
    2.2453   -1.7518    1.7699 C   0  0  0  0  0  0  0  0  0  0  0  0
    1.0685   -1.3460    1.1271 C   0  0  0  0  0  0  0  0  0  0  0  0
    1.0552   -0.2869    0.2077 C   0  0  0  0  0  0  0  0  0  0  0  0
    2.2697    0.4011   -0.0001 C   0  0  0  0  0  0  0  0  0  0  0  0
    3.4536   -0.0224    0.6356 C   0  0  0  0  0  0  0  0  0  0  0  0
    2.3509    1.5795   -0.9289 C   0  0  0  0  0  0  0  0  0  0  0  0
    1.0288    2.3123   -0.9139 C   0  0  0  0  0  0  0  0  0  0  0  0
   -0.0792    1.3472   -1.2921 C   0  0  0  0  0  0  0  0  0  0  0  0
   -0.1534    0.1293   -0.4741 N   0  0  0  0  0  0  0  0  0  0  0  0
   -1.2674   -0.7369   -0.6085 C   0  0  0  0  0  0  0  0  0  0  0  0
   -1.2765   -1.9219   -0.2638 O   0  0  0  0  0  0  0  0  0  0  0  0
   -2.5645   -0.1225   -1.2058 C   0  0  0  0  0  0  0  0  0  0  0  0
   -3.2727    0.7441   -0.1623 C   0  0  0  0  0  0  0  0  0  0  0  0
   -4.7162    0.3074   -0.2407 C   0  0  0  0  0  0  0  0  0  0  0  0
   -4.5888   -1.1303   -0.6742 C   0  0  0  0  0  0  0  0  0  0  0  0
   -3.5123   -1.1281   -1.6133 O   0  0  0  0  0  0  0  0  0  0  0  0
    4.8175   -0.9729    3.1511 H   0  0  0  0  0  0  0  0  0  0  0  0
    5.5872   -1.3408    1.5876 H   0  0  0  0  0  0  0  0  0  0  0  0
    4.6923   -2.5997    2.4377 H   0  0  0  0  0  0  0  0  0  0  0  0
    2.2006   -2.5814    2.4722 H   0  0  0  0  0  0  0  0  0  0  0  0
    0.1632   -1.8823    1.3939 H   0  0  0  0  0  0  0  0  0  0  0  0
    4.3851    0.5081    0.4451 H   0  0  0  0  0  0  0  0  0  0  0  0
    3.1427    2.2687   -0.6130 H   0  0  0  0  0  0  0  0  0  0  0  0
    2.5942    1.2274   -1.9383 H   0  0  0  0  0  0  0  0  0  0  0  0
    0.8353    2.7276    0.0837 H   0  0  0  0  0  0  0  0  0  0  0  0
    1.0528    3.1523   -1.6168 H   0  0  0  0  0  0  0  0  0  0  0  0
    0.0279    1.0293   -2.3371 H   0  0  0  0  0  0  0  0  0  0  0  0
   -1.0210    1.8955   -1.2161 H   0  0  0  0  0  0  0  0  0  0  0  0
   -2.3317    0.4352   -2.1164 H   0  0  0  0  0  0  0  0  0  0  0  0
   -2.8769    0.5620    0.8442 H   0  0  0  0  0  0  0  0  0  0  0  0
   -3.1609    1.8141   -0.3623 H   0  0  0  0  0  0  0  0  0  0  0  0
   -5.2609    0.4279    0.6992 H   0  0  0  0  0  0  0  0  0  0  0  0
   -5.2303    0.8875   -1.0161 H   0  0  0  0  0  0  0  0  0  0  0  0
   -4.3236   -1.7857    0.1627 H   0  0  0  0  0  0  0  0  0  0  0  0
   -5.4961   -1.5113   -1.1504 H   0  0  0  0  0  0  0  0  0  0  0  0
  1  2  1  0
  2  3  2  0
  3  4  1  0
  4  5  2  0
  5  6  1  0
  6  7  2  0
  6  8  1  0
  8  9  1  0
  9 10  1  0
 10 11  1  0
 11 12  1  0
 12 13  2  0
 12 14  1  0
 14 15  1  0
 15 16  1  0
 16 17  1  0
 17 18  1  0
  7  2  1  0
 18 14  1  0
 11  5  1  0
  1 19  1  0
  1 20  1  0
  1 21  1  0
  3 22  1  0
  4 23  1  0
  7 24  1  0
  8 25  1  0
  8 26  1  0
  9 27  1  0
  9 28  1  0
 10 29  1  0
 10 30  1  0
 14 31  1  0
 15 32  1  0
 15 33  1  0
 16 34  1  0
 16 35  1  0
 17 36  1  0
 17 37  1  0
M  END
$$$$
