
     RDKit          3D

 51 55  0  0  0  0  0  0  0  0999 V2000
    3.0256   -2.8858    0.5004 C   0  0  0  0  0  0  0  0  0  0  0  0
    3.0287   -2.0856   -0.7932 C   0  0  0  0  0  0  0  0  0  0  0  0
    2.5966   -0.7138   -0.5529 N   0  0  0  0  0  0  0  0  0  0  0  0
    1.2897   -0.2271   -0.6690 C   0  0  0  0  0  0  0  0  0  0  0  0
    0.1779   -0.9721   -0.8308 C   0  0  0  0  0  0  0  0  0  0  0  0
   -1.1961   -0.4627   -0.9526 C   0  0  0  0  0  0  0  0  0  0  0  0
   -1.5876    0.0600   -2.1861 C   0  0  0  0  0  0  0  0  0  0  0  0
   -2.8683    0.5475   -2.3589 C   0  0  0  0  0  0  0  0  0  0  0  0
   -3.7601    0.5132   -1.2950 C   0  0  0  0  0  0  0  0  0  0  0  0
   -5.0593    1.0168   -1.4677 C   0  0  0  0  0  0  0  0  0  0  0  0
   -5.9806    1.0131   -0.4174 C   0  0  0  0  0  0  0  0  0  0  0  0
   -7.3764    1.5276   -0.6261 C   0  0  0  0  0  0  0  0  0  0  0  0
   -5.5992    0.4761    0.8099 C   0  0  0  0  0  0  0  0  0  0  0  0
   -4.3069   -0.0303    0.9952 C   0  0  0  0  0  0  0  0  0  0  0  0
   -3.3557   -0.0282   -0.0441 C   0  0  0  0  0  0  0  0  0  0  0  0
   -2.0751   -0.5197    0.0946 N   0  0  0  0  0  4  0  0  0  0  0  0
   -1.6385   -1.1295    1.3880 C   0  0  0  0  0  0  0  0  0  0  0  0
   -1.1758   -0.0568    2.3551 C   0  0  0  0  0  0  0  0  0  0  0  0
    1.1616    1.5394   -0.5439 S   0  0  0  0  0  0  0  0  0  0  0  0
    2.9309    1.6165   -0.2832 C   0  0  0  0  0  0  0  0  0  0  0  0
    3.6127    2.8006   -0.0848 C   0  0  0  0  0  0  0  0  0  0  0  0
    4.9840    2.7501    0.1172 C   0  0  0  0  0  0  0  0  0  0  0  0
    5.6381    1.4985    0.1326 C   0  0  0  0  0  0  0  0  0  0  0  0
    7.3305    1.2785    0.3888 S   0  0  0  0  0  0  0  0  0  0  0  0
    7.2000   -0.4084    0.2852 C   0  0  0  0  0  0  0  0  0  0  0  0
    5.9049   -0.8079    0.0528 C   0  0  0  0  0  0  0  0  0  0  0  0
    4.9619    0.2801   -0.0624 C   0  0  0  0  0  0  0  0  0  0  0  0
    3.5530    0.3308   -0.3012 C   0  0  0  0  0  0  0  0  0  0  0  0
    3.6688   -2.4327    1.2607 H   0  0  0  0  0  0  0  0  0  0  0  0
    2.0161   -2.9483    0.9206 H   0  0  0  0  0  0  0  0  0  0  0  0
    3.3781   -3.9053    0.3160 H   0  0  0  0  0  0  0  0  0  0  0  0
    4.0004   -2.1248   -1.2919 H   0  0  0  0  0  0  0  0  0  0  0  0
    2.3527   -2.5742   -1.5059 H   0  0  0  0  0  0  0  0  0  0  0  0
    0.2513   -2.0534   -0.8942 H   0  0  0  0  0  0  0  0  0  0  0  0
   -0.8872    0.0984   -3.0200 H   0  0  0  0  0  0  0  0  0  0  0  0
   -3.1564    0.9596   -3.3257 H   0  0  0  0  0  0  0  0  0  0  0  0
   -5.3657    1.4245   -2.4323 H   0  0  0  0  0  0  0  0  0  0  0  0
   -8.0195    0.7233   -0.9963 H   0  0  0  0  0  0  0  0  0  0  0  0
   -7.3844    2.3503   -1.3488 H   0  0  0  0  0  0  0  0  0  0  0  0
   -7.7949    1.9135    0.3094 H   0  0  0  0  0  0  0  0  0  0  0  0
   -6.3083    0.4520    1.6378 H   0  0  0  0  0  0  0  0  0  0  0  0
   -4.0893   -0.4129    1.9873 H   0  0  0  0  0  0  0  0  0  0  0  0
   -2.4668   -1.7191    1.7916 H   0  0  0  0  0  0  0  0  0  0  0  0
   -0.8431   -1.8570    1.2068 H   0  0  0  0  0  0  0  0  0  0  0  0
   -0.3015    0.4742    1.9722 H   0  0  0  0  0  0  0  0  0  0  0  0
   -1.9544    0.6875    2.5441 H   0  0  0  0  0  0  0  0  0  0  0  0
   -0.8997   -0.5087    3.3129 H   0  0  0  0  0  0  0  0  0  0  0  0
    3.0979    3.7566   -0.0881 H   0  0  0  0  0  0  0  0  0  0  0  0
    5.5489    3.6668    0.2722 H   0  0  0  0  0  0  0  0  0  0  0  0
    8.0751   -1.0337    0.4027 H   0  0  0  0  0  0  0  0  0  0  0  0
    5.6656   -1.8577   -0.0229 H   0  0  0  0  0  0  0  0  0  0  0  0
  1  2  1  0
  2  3  1  0
  3  4  1  0
  4  5  2  3
  5  6  1  0
  6  7  2  0
  7  8  1  0
  8  9  2  0
  9 10  1  0
 10 11  2  0
 11 12  1  0
 11 13  1  0
 13 14  2  0
 14 15  1  0
 15 16  2  0
 16 17  1  0
 17 18  1  0
  4 19  1  0
 19 20  1  0
 20 21  2  0
 21 22  1  0
 22 23  2  0
 23 24  1  0
 24 25  1  0
 25 26  2  0
 26 27  1  0
 27 28  2  0
 28  3  1  0
 16  6  1  0
 28 20  1  0
 15  9  1  0
 27 23  1  0
  1 29  1  0
  1 30  1  0
  1 31  1  0
  2 32  1  0
  2 33  1  0
  5 34  1  0
  7 35  1  0
  8 36  1  0
 10 37  1  0
 12 38  1  0
 12 39  1  0
 12 40  1  0
 13 41  1  0
 14 42  1  0
 17 43  1  0
 17 44  1  0
 18 45  1  0
 18 46  1  0
 18 47  1  0
 21 48  1  0
 22 49  1  0
 25 50  1  0
 26 51  1  0
M  CHG  1  16   1
M  END
$$$$
