
     RDKit          3D

 56 61  0  0  0  0  0  0  0  0999 V2000
    0.1191    2.8429    2.2855 C   0  0  0  0  0  0  0  0  0  0  0  0
    0.8490    1.8125    1.5077 C   0  0  0  0  0  0  0  0  0  0  0  0
    2.1207    2.0243    1.1560 N   0  0  0  0  0  0  0  0  0  0  0  0
    2.5057    0.9065    0.4633 N   0  0  0  0  0  0  0  0  0  0  0  0
    3.8328    0.8271   -0.0650 C   0  0  0  0  0  0  0  0  0  0  0  0
    4.7158    1.9036    0.1459 C   0  0  0  0  0  0  0  0  0  0  0  0
    6.0220    1.8679   -0.3537 C   0  0  0  0  0  0  0  0  0  0  0  0
    6.4540    0.7483   -1.0720 C   0  0  0  0  0  0  0  0  0  0  0  0
    7.8237    0.7036   -1.5980 N   0  0  0  0  0  4  0  0  0  0  0  0
    8.1719   -0.3110   -2.2189 O   0  0  0  0  0  0  0  0  0  0  0  0
    8.5536    1.6843   -1.3909 O   0  0  0  0  0  1  0  0  0  0  0  0
    5.5884   -0.3291   -1.2918 C   0  0  0  0  0  0  0  0  0  0  0  0
    4.2813   -0.2869   -0.7889 C   0  0  0  0  0  0  0  0  0  0  0  0
    1.4612   -0.0117    0.4034 C   0  0  0  0  0  0  0  0  0  0  0  0
    0.3905    0.5684    1.0430 C   0  0  0  0  0  0  0  0  0  0  0  0
   -0.8931   -0.1783    1.1449 C   0  0  0  0  0  0  0  0  0  0  0  0
   -1.8745    0.6370    0.3006 C   0  0  0  0  0  0  0  0  0  0  0  0
   -1.8322    0.6302   -1.1057 C   0  0  0  0  0  0  0  0  0  0  0  0
   -2.7368    1.3850   -1.8618 C   0  0  0  0  0  0  0  0  0  0  0  0
   -3.6973    2.1698   -1.2265 C   0  0  0  0  0  0  0  0  0  0  0  0
   -4.6355    2.9499   -1.8408 O   0  0  0  0  0  0  0  0  0  0  0  0
   -4.4364    3.2136   -3.2194 C   0  0  0  0  0  0  0  0  0  0  0  0
   -4.7232    2.0971   -3.9329 F   0  0  0  0  0  0  0  0  0  0  0  0
   -5.3462    4.1520   -3.5858 F   0  0  0  0  0  0  0  0  0  0  0  0
   -3.7567    2.1763    0.1683 C   0  0  0  0  0  0  0  0  0  0  0  0
   -2.8556    1.4239    0.9262 C   0  0  0  0  0  0  0  0  0  0  0  0
   -0.7844   -1.5746    0.6674 N   0  0  0  0  0  0  0  0  0  0  0  0
    0.3932   -1.9585   -0.0029 C   0  0  0  0  0  0  0  0  0  0  0  0
    1.4801   -1.2442   -0.1625 N   0  0  0  0  0  0  0  0  0  0  0  0
    0.4621   -3.3683   -0.6380 C   0  0  0  0  0  0  0  0  0  0  0  0
    1.4172   -3.7319   -1.3101 O   0  0  0  0  0  0  0  0  0  0  0  0
   -0.6114   -4.1838   -0.3999 N   0  0  0  0  0  0  0  0  0  0  0  0
   -1.7305   -3.8020    0.3446 C   0  0  0  0  0  0  0  0  0  0  0  0
   -2.7418   -4.7534    0.5252 C   0  0  0  0  0  0  0  0  0  0  0  0
   -3.8772   -4.4300    1.2589 C   0  0  0  0  0  0  0  0  0  0  0  0
   -3.9968   -3.1605    1.8100 C   0  0  0  0  0  0  0  0  0  0  0  0
   -2.9834   -2.2111    1.6256 C   0  0  0  0  0  0  0  0  0  0  0  0
   -1.8257   -2.5003    0.8834 C   0  0  0  0  0  0  0  0  0  0  0  0
   -0.5593    2.3778    3.0075 H   0  0  0  0  0  0  0  0  0  0  0  0
   -0.4681    3.4788    1.6157 H   0  0  0  0  0  0  0  0  0  0  0  0
    0.8099    3.4826    2.8449 H   0  0  0  0  0  0  0  0  0  0  0  0
    4.3991    2.7847    0.7033 H   0  0  0  0  0  0  0  0  0  0  0  0
    6.6800    2.7153   -0.1725 H   0  0  0  0  0  0  0  0  0  0  0  0
    5.9075   -1.2081   -1.8493 H   0  0  0  0  0  0  0  0  0  0  0  0
    3.6456   -1.1460   -0.9856 H   0  0  0  0  0  0  0  0  0  0  0  0
   -1.1891   -0.1754    2.2020 H   0  0  0  0  0  0  0  0  0  0  0  0
   -1.0895    0.0309   -1.6308 H   0  0  0  0  0  0  0  0  0  0  0  0
   -2.6682    1.3165   -2.9438 H   0  0  0  0  0  0  0  0  0  0  0  0
   -3.4324    3.5841   -3.4545 H   0  0  0  0  0  0  0  0  0  0  0  0
   -4.5116    2.7772    0.6716 H   0  0  0  0  0  0  0  0  0  0  0  0
   -2.9314    1.4604    2.0110 H   0  0  0  0  0  0  0  0  0  0  0  0
   -0.5515   -5.1088   -0.8031 H   0  0  0  0  0  0  0  0  0  0  0  0
   -2.6542   -5.7494    0.0988 H   0  0  0  0  0  0  0  0  0  0  0  0
   -4.6656   -5.1650    1.4010 H   0  0  0  0  0  0  0  0  0  0  0  0
   -4.8827   -2.9015    2.3859 H   0  0  0  0  0  0  0  0  0  0  0  0
   -3.1420   -1.2426    2.0871 H   0  0  0  0  0  0  0  0  0  0  0  0
  1  2  1  0
  2  3  2  0
  3  4  1  0
  4  5  1  0
  5  6  2  0
  6  7  1  0
  7  8  2  0
  8  9  1  0
  9 10  2  0
  9 11  1  0
  8 12  1  0
 12 13  2  0
  4 14  1  0
 14 15  2  0
 15 16  1  0
 16 17  1  0
 17 18  2  0
 18 19  1  0
 19 20  2  0
 20 21  1  0
 21 22  1  0
 22 23  1  0
 22 24  1  0
 20 25  1  0
 25 26  2  0
 16 27  1  0
 27 28  1  0
 28 29  2  0
 28 30  1  0
 30 31  2  0
 30 32  1  0
 32 33  1  0
 33 34  2  0
 34 35  1  0
 35 36  2  0
 36 37  1  0
 37 38  2  0
 15  2  1  0
 26 17  1  0
 38 27  1  0
 13  5  1  0
 29 14  1  0
 38 33  1  0
  1 39  1  0
  1 40  1  0
  1 41  1  0
  6 42  1  0
  7 43  1  0
 12 44  1  0
 13 45  1  0
 16 46  1  0
 18 47  1  0
 19 48  1  0
 22 49  1  0
 25 50  1  0
 26 51  1  0
 32 52  1  0
 34 53  1  0
 35 54  1  0
 36 55  1  0
 37 56  1  0
M  CHG  2   9   1  11  -1
M  END
$$$$
