
     RDKit          3D

 67 72  0  0  0  0  0  0  0  0999 V2000
    6.3480    2.0358    0.0915 C   0  0  0  0  0  0  0  0  0  0  0  0
    6.2815    0.5364    0.4029 C   0  0  0  0  0  0  0  0  0  0  0  0
    6.7045    0.2297    1.8436 C   0  0  0  0  0  0  0  0  0  0  0  0
    7.2279   -0.2049   -0.5540 C   0  0  0  0  0  0  0  0  0  0  0  0
    4.9679   -0.0044    0.1094 O   0  0  0  0  0  0  0  0  0  0  0  0
    3.8666    0.4315    0.7725 C   0  0  0  0  0  0  0  0  0  0  0  0
    3.8752    1.2726    1.6616 O   0  0  0  0  0  0  0  0  0  0  0  0
    2.7190   -0.1818    0.3159 N   0  0  0  0  0  0  0  0  0  0  0  0
    2.7209   -1.1335   -0.7994 C   0  0  0  0  0  0  0  0  0  0  0  0
    1.3588   -1.8325   -0.9804 C   0  0  0  0  0  0  0  0  0  0  0  0
    0.2713   -0.8727   -1.1562 N   0  0  0  0  0  0  0  0  0  0  0  0
    0.3793    0.3594   -0.3001 C   0  0  2  0  0  0  0  0  0  0  0  0
    1.4118    0.2274    0.8334 C   0  0  0  0  0  0  0  0  0  0  0  0
   -1.0087    0.5655    0.1606 C   0  0  0  0  0  0  0  0  0  0  0  0
   -1.8712   -0.4192   -0.3424 C   0  0  0  0  0  0  0  0  0  0  0  0
   -3.1356   -0.1669    0.1277 C   0  0  0  0  0  0  0  0  0  0  0  0
   -4.2875   -0.8099   -0.0192 O   0  0  0  0  0  0  0  0  0  0  0  0
   -3.0487    0.9930    0.8832 N   0  0  0  0  0  0  0  0  0  0  0  0
   -4.1654    1.6230    1.5768 C   0  0  0  0  0  0  0  0  0  0  0  0
   -4.8285    2.6829    0.7313 C   0  0  0  0  0  0  0  0  0  0  0  0
   -5.8389    2.3407   -0.1791 C   0  0  0  0  0  0  0  0  0  0  0  0
   -6.4476    3.3206   -0.9649 C   0  0  0  0  0  0  0  0  0  0  0  0
   -6.0504    4.6516   -0.8527 C   0  0  0  0  0  0  0  0  0  0  0  0
   -5.0411    5.0035    0.0414 C   0  0  0  0  0  0  0  0  0  0  0  0
   -4.4314    4.0245    0.8277 C   0  0  0  0  0  0  0  0  0  0  0  0
   -1.7355    1.4359    0.9284 C   0  0  0  0  0  0  0  0  0  0  0  0
   -1.3953    2.5176    1.6173 O   0  0  0  0  0  0  0  0  0  0  0  0
   -1.1289   -1.3948   -1.1704 C   0  0  1  0  0  0  0  0  0  0  0  0
   -1.6502   -1.5102   -2.6357 C   0  0  0  0  0  0  0  0  0  0  0  0
   -1.6691   -0.6659   -3.5188 O   0  0  0  0  0  0  0  0  0  0  0  0
   -2.1162   -2.8185   -2.7947 N   0  0  0  0  0  0  0  0  0  0  0  0
   -1.9883   -3.5503   -1.6237 C   0  0  0  0  0  0  0  0  0  0  0  0
   -2.3745   -4.8596   -1.4248 C   0  0  0  0  0  0  0  0  0  0  0  0
   -2.1925   -5.3963   -0.1488 C   0  0  0  0  0  0  0  0  0  0  0  0
   -1.6422   -4.6195    0.8862 C   0  0  0  0  0  0  0  0  0  0  0  0
   -1.2568   -3.2945    0.6603 C   0  0  0  0  0  0  0  0  0  0  0  0
   -1.4240   -2.7658   -0.6126 C   0  0  0  0  0  0  0  0  0  0  0  0
    5.9561    2.2420   -0.9110 H   0  0  0  0  0  0  0  0  0  0  0  0
    5.7478    2.6259    0.7906 H   0  0  0  0  0  0  0  0  0  0  0  0
    7.3763    2.4095    0.1472 H   0  0  0  0  0  0  0  0  0  0  0  0
    6.1062    0.7831    2.5736 H   0  0  0  0  0  0  0  0  0  0  0  0
    6.5710   -0.8343    2.0702 H   0  0  0  0  0  0  0  0  0  0  0  0
    7.7539    0.4936    2.0146 H   0  0  0  0  0  0  0  0  0  0  0  0
    7.1823   -1.2874   -0.3852 H   0  0  0  0  0  0  0  0  0  0  0  0
    6.9329   -0.0426   -1.5976 H   0  0  0  0  0  0  0  0  0  0  0  0
    8.2665    0.1204   -0.4333 H   0  0  0  0  0  0  0  0  0  0  0  0
    2.9864   -0.5762   -1.7060 H   0  0  0  0  0  0  0  0  0  0  0  0
    3.5041   -1.8800   -0.6264 H   0  0  0  0  0  0  0  0  0  0  0  0
    1.2017   -2.4547   -0.0931 H   0  0  0  0  0  0  0  0  0  0  0  0
    1.4106   -2.4979   -1.8493 H   0  0  0  0  0  0  0  0  0  0  0  0
    0.6736    1.1858   -0.9593 H   0  0  0  0  0  0  0  0  0  0  0  0
    1.4919    1.1702    1.3856 H   0  0  0  0  0  0  0  0  0  0  0  0
    1.1027   -0.5381    1.5571 H   0  0  0  0  0  0  0  0  0  0  0  0
   -4.1202   -1.5940   -0.5718 H   0  0  0  0  0  0  0  0  0  0  0  0
   -3.7896    2.0464    2.5159 H   0  0  0  0  0  0  0  0  0  0  0  0
   -4.8831    0.8436    1.8584 H   0  0  0  0  0  0  0  0  0  0  0  0
   -6.1495    1.3032   -0.2857 H   0  0  0  0  0  0  0  0  0  0  0  0
   -7.2266    3.0430   -1.6698 H   0  0  0  0  0  0  0  0  0  0  0  0
   -6.5213    5.4131   -1.4681 H   0  0  0  0  0  0  0  0  0  0  0  0
   -4.7232    6.0393    0.1227 H   0  0  0  0  0  0  0  0  0  0  0  0
   -3.6355    4.3108    1.5125 H   0  0  0  0  0  0  0  0  0  0  0  0
   -0.4570    2.7035    1.4411 H   0  0  0  0  0  0  0  0  0  0  0  0
   -2.5004   -3.1506   -3.6668 H   0  0  0  0  0  0  0  0  0  0  0  0
   -2.8098   -5.4547   -2.2197 H   0  0  0  0  0  0  0  0  0  0  0  0
   -2.4865   -6.4246    0.0518 H   0  0  0  0  0  0  0  0  0  0  0  0
   -1.5205   -5.0545    1.8764 H   0  0  0  0  0  0  0  0  0  0  0  0
   -0.8451   -2.6944    1.4669 H   0  0  0  0  0  0  0  0  0  0  0  0
  1  2  1  0
  2  3  1  0
  2  4  1  0
  2  5  1  0
  5  6  1  0
  6  7  2  0
  6  8  1  0
  8  9  1  0
  9 10  1  0
 10 11  1  0
 11 12  1  0
 12 13  1  0
 12 14  1  0
 14 15  1  0
 15 16  2  0
 16 17  1  0
 16 18  1  0
 18 19  1  0
 19 20  1  0
 20 21  2  0
 21 22  1  0
 22 23  2  0
 23 24  1  0
 24 25  2  0
 18 26  1  0
 26 27  1  0
 15 28  1  0
 28 29  1  0
 29 30  2  0
 29 31  1  0
 31 32  1  0
 32 33  2  0
 33 34  1  0
 34 35  2  0
 35 36  1  0
 36 37  2  0
 13  8  1  0
 26 14  2  0
 37 28  1  0
 28 11  1  6
 37 32  1  0
 25 20  1  0
  1 38  1  0
  1 39  1  0
  1 40  1  0
  3 41  1  0
  3 42  1  0
  3 43  1  0
  4 44  1  0
  4 45  1  0
  4 46  1  0
  9 47  1  0
  9 48  1  0
 10 49  1  0
 10 50  1  0
 12 51  1  6
 13 52  1  0
 13 53  1  0
 17 54  1  0
 19 55  1  0
 19 56  1  0
 21 57  1  0
 22 58  1  0
 23 59  1  0
 24 60  1  0
 25 61  1  0
 27 62  1  0
 31 63  1  0
 33 64  1  0
 34 65  1  0
 35 66  1  0
 36 67  1  0
M  END
$$$$
