
     RDKit          3D

 40 43  0  0  0  0  0  0  0  0999 V2000
   -2.6869   -1.1766    4.3607 C   0  0  0  0  0  0  0  0  0  0  0  0
   -2.0061    0.1324    4.2002 C   0  0  0  0  0  0  0  0  0  0  0  0
   -2.3033    1.1235    5.1317 N   0  0  0  0  0  0  0  0  0  0  0  0
   -1.6087    2.2274    4.9215 N   0  0  0  0  0  0  0  0  0  0  0  0
   -0.5761    2.1053    3.6144 S   0  0  0  0  0  0  0  0  0  0  0  0
   -1.0838    0.5100    3.2334 C   0  0  0  0  0  0  0  0  0  0  0  0
   -0.5529   -0.1943    2.1169 C   0  0  0  0  0  0  0  0  0  0  0  0
    0.7377   -0.3433    1.8761 N   0  0  0  0  0  0  0  0  0  0  0  0
    0.8784   -1.1146    0.7423 N   0  0  0  0  0  0  0  0  0  0  0  0
   -0.3279   -1.4020    0.3071 C   0  0  0  0  0  0  0  0  0  0  0  0
   -0.7005   -2.3635   -1.0799 S   0  0  0  0  0  0  0  0  0  0  0  0
    0.7033   -1.9086   -2.1452 C   0  0  0  0  0  0  0  0  0  0  0  0
    0.7049   -0.4220   -2.4695 C   0  0  0  0  0  0  0  0  0  0  0  0
   -0.3156    0.2668   -2.4913 O   0  0  0  0  0  0  0  0  0  0  0  0
    2.0066    0.2290   -2.8047 C   0  0  0  0  0  0  0  0  0  0  0  0
    2.0909    1.6266   -2.7239 C   0  0  0  0  0  0  0  0  0  0  0  0
    3.2861    2.2849   -3.0296 C   0  0  0  0  0  0  0  0  0  0  0  0
    4.4078    1.5512   -3.4249 C   0  0  0  0  0  0  0  0  0  0  0  0
    5.6347    2.2226   -3.7415 C   0  0  0  0  0  0  0  0  0  0  0  0
    6.6291    2.7607   -4.0024 N   0  0  0  0  0  0  0  0  0  0  0  0
    4.3256    0.1571   -3.5153 C   0  0  0  0  0  0  0  0  0  0  0  0
    3.1294   -0.5036   -3.2091 C   0  0  0  0  0  0  0  0  0  0  0  0
   -1.2580   -0.8086    1.1123 N   0  0  0  0  0  0  0  0  0  0  0  0
   -2.7290   -0.8354    0.9370 C   0  0  0  0  0  0  0  0  0  0  0  0
   -3.3988   -0.2545   -0.2892 C   0  0  0  0  0  0  0  0  0  0  0  0
   -3.5977    0.3988    1.0419 C   0  0  0  0  0  0  0  0  0  0  0  0
   -3.6709   -1.1530    3.8831 H   0  0  0  0  0  0  0  0  0  0  0  0
   -2.1037   -1.9912    3.9209 H   0  0  0  0  0  0  0  0  0  0  0  0
   -2.8290   -1.4065    5.4216 H   0  0  0  0  0  0  0  0  0  0  0  0
    0.6234   -2.4659   -3.0832 H   0  0  0  0  0  0  0  0  0  0  0  0
    1.6253   -2.2009   -1.6350 H   0  0  0  0  0  0  0  0  0  0  0  0
    1.2248    2.2115   -2.4163 H   0  0  0  0  0  0  0  0  0  0  0  0
    3.3310    3.3704   -2.9557 H   0  0  0  0  0  0  0  0  0  0  0  0
    5.1924   -0.4243   -3.8274 H   0  0  0  0  0  0  0  0  0  0  0  0
    3.1025   -1.5854   -3.3063 H   0  0  0  0  0  0  0  0  0  0  0  0
   -3.1547   -1.7633    1.3110 H   0  0  0  0  0  0  0  0  0  0  0  0
   -4.2294   -0.8014   -0.7217 H   0  0  0  0  0  0  0  0  0  0  0  0
   -2.7919    0.2684   -1.0223 H   0  0  0  0  0  0  0  0  0  0  0  0
   -3.1402    1.3718    1.1840 H   0  0  0  0  0  0  0  0  0  0  0  0
   -4.5689    0.3004    1.5150 H   0  0  0  0  0  0  0  0  0  0  0  0
  1  2  1  0
  2  3  1  0
  3  4  2  0
  4  5  1  0
  5  6  1  0
  6  7  1  0
  7  8  2  0
  8  9  1  0
  9 10  2  0
 10 11  1  0
 11 12  1  0
 12 13  1  0
 13 14  2  0
 13 15  1  0
 15 16  2  0
 16 17  1  0
 17 18  2  0
 18 19  1  0
 19 20  3  0
 18 21  1  0
 21 22  2  0
 10 23  1  0
 23 24  1  0
 24 25  1  0
 25 26  1  0
  6  2  2  0
 23  7  1  0
 26 24  1  0
 22 15  1  0
  1 27  1  0
  1 28  1  0
  1 29  1  0
 12 30  1  0
 12 31  1  0
 16 32  1  0
 17 33  1  0
 21 34  1  0
 22 35  1  0
 24 36  1  0
 25 37  1  0
 25 38  1  0
 26 39  1  0
 26 40  1  0
M  END
$$$$
