
     RDKit          3D

 40 42  0  0  0  0  0  0  0  0999 V2000
    6.6796   -1.7895    2.2018 C   0  0  0  0  0  0  0  0  0  0  0  0
    5.3220   -1.6475    1.5771 C   0  0  0  0  0  0  0  0  0  0  0  0
    4.3068   -2.5649    1.8838 C   0  0  0  0  0  0  0  0  0  0  0  0
    3.0517   -2.4598    1.2812 C   0  0  0  0  0  0  0  0  0  0  0  0
    2.8119   -1.4297    0.3695 C   0  0  0  0  0  0  0  0  0  0  0  0
    1.2260   -1.2975   -0.4198 S   0  0  0  0  0  6  0  0  0  0  0  0
    1.4394   -0.7294   -1.7335 O   0  0  0  0  0  0  0  0  0  0  0  0
    0.5188   -2.5446   -0.2227 O   0  0  0  0  0  0  0  0  0  0  0  0
    0.4746   -0.1403    0.5953 N   0  0  0  0  0  0  0  0  0  0  0  0
   -0.6826    0.5095   -0.0515 C   0  0  0  0  0  0  0  0  0  0  0  0
   -1.9985    0.2212    0.2119 C   0  0  0  0  0  0  0  0  0  0  0  0
   -2.7566    1.0882   -0.6266 C   0  0  0  0  0  0  0  0  0  0  0  0
   -4.2166    1.1757   -0.7551 C   0  0  0  0  0  0  0  0  0  0  0  0
   -4.8100    2.2809   -1.3853 C   0  0  0  0  0  0  0  0  0  0  0  0
   -6.1987    2.3760   -1.5111 C   0  0  0  0  0  0  0  0  0  0  0  0
   -7.0139    1.3651   -1.0095 C   0  0  0  0  0  0  0  0  0  0  0  0
   -6.4423    0.2582   -0.3856 C   0  0  0  0  0  0  0  0  0  0  0  0
   -5.0526    0.1629   -0.2600 C   0  0  0  0  0  0  0  0  0  0  0  0
   -1.9386    1.8865   -1.3343 N   0  0  0  0  0  0  0  0  0  0  0  0
   -0.6943    1.5075   -0.9835 N   0  0  0  0  0  0  0  0  0  0  0  0
    0.4329    2.1913   -1.5655 C   0  0  0  0  0  0  0  0  0  0  0  0
    3.8206   -0.5218    0.0366 C   0  0  0  0  0  0  0  0  0  0  0  0
    5.0736   -0.6350    0.6408 C   0  0  0  0  0  0  0  0  0  0  0  0
    6.5906   -2.0471    3.2634 H   0  0  0  0  0  0  0  0  0  0  0  0
    7.2466   -2.5727    1.6890 H   0  0  0  0  0  0  0  0  0  0  0  0
    7.2439   -0.8520    2.1406 H   0  0  0  0  0  0  0  0  0  0  0  0
    4.4936   -3.3723    2.5899 H   0  0  0  0  0  0  0  0  0  0  0  0
    2.2788   -3.1867    1.5226 H   0  0  0  0  0  0  0  0  0  0  0  0
    0.1831   -0.6367    1.4412 H   0  0  0  0  0  0  0  0  0  0  0  0
   -2.3726   -0.5193    0.9025 H   0  0  0  0  0  0  0  0  0  0  0  0
   -4.1873    3.0801   -1.7857 H   0  0  0  0  0  0  0  0  0  0  0  0
   -6.6384    3.2387   -2.0035 H   0  0  0  0  0  0  0  0  0  0  0  0
   -8.0939    1.4372   -1.1082 H   0  0  0  0  0  0  0  0  0  0  0  0
   -7.0771   -0.5359   -0.0008 H   0  0  0  0  0  0  0  0  0  0  0  0
   -4.6393   -0.7208    0.2184 H   0  0  0  0  0  0  0  0  0  0  0  0
    0.5546    1.8366   -2.5910 H   0  0  0  0  0  0  0  0  0  0  0  0
    1.3312    1.9884   -0.9806 H   0  0  0  0  0  0  0  0  0  0  0  0
    0.2317    3.2665   -1.5572 H   0  0  0  0  0  0  0  0  0  0  0  0
    3.6429    0.2648   -0.6919 H   0  0  0  0  0  0  0  0  0  0  0  0
    5.8583    0.0680    0.3716 H   0  0  0  0  0  0  0  0  0  0  0  0
  1  2  1  0
  2  3  2  0
  3  4  1  0
  4  5  2  0
  5  6  1  0
  6  7  2  0
  6  8  2  0
  6  9  1  0
  9 10  1  0
 10 11  2  0
 11 12  1  0
 12 13  1  0
 13 14  2  0
 14 15  1  0
 15 16  2  0
 16 17  1  0
 17 18  2  0
 12 19  2  0
 19 20  1  0
 20 21  1  0
  5 22  1  0
 22 23  2  0
 23  2  1  0
 20 10  1  0
 18 13  1  0
  1 24  1  0
  1 25  1  0
  1 26  1  0
  3 27  1  0
  4 28  1  0
  9 29  1  0
 11 30  1  0
 14 31  1  0
 15 32  1  0
 16 33  1  0
 17 34  1  0
 18 35  1  0
 21 36  1  0
 21 37  1  0
 21 38  1  0
 22 39  1  0
 23 40  1  0
M  END
$$$$
