
     RDKit          3D

 41 44  0  0  0  0  0  0  0  0999 V2000
    3.3265    0.3711    1.9016 C   0  0  0  0  0  0  0  0  0  0  0  0
    3.1171    0.6817    0.4450 C   0  0  0  0  0  0  0  0  0  0  0  0
    3.8458    1.7398   -0.1252 C   0  0  0  0  0  0  0  0  0  0  0  0
    3.7176    2.0571   -1.4792 C   0  0  0  0  0  0  0  0  0  0  0  0
    2.8671    1.3160   -2.2934 C   0  0  0  0  0  0  0  0  0  0  0  0
    2.1408    0.2562   -1.7540 C   0  0  0  0  0  0  0  0  0  0  0  0
    2.2588   -0.0592   -0.3913 C   0  0  0  0  0  0  0  0  0  0  0  0
    1.2851   -1.4250    0.2356 S   0  0  0  0  0  6  0  0  0  0  0  0
    2.1533   -2.2464    1.0478 O   0  0  0  0  0  0  0  0  0  0  0  0
    0.5517   -1.9878   -0.8816 O   0  0  0  0  0  0  0  0  0  0  0  0
    0.1637   -0.5867    1.1902 N   0  0  0  0  0  0  0  0  0  0  0  0
   -0.8268   -1.4374    1.7454 C   0  0  0  0  0  0  0  0  0  0  0  0
   -0.4096   -2.2083    2.7587 N   0  0  0  0  0  0  0  0  0  0  0  0
   -1.2845   -3.0731    3.2856 C   0  0  0  0  0  0  0  0  0  0  0  0
   -2.5577   -3.2586    2.9269 N   0  0  0  0  0  0  0  0  0  0  0  0
   -2.9311   -2.4591    1.9136 C   0  0  0  0  0  0  0  0  0  0  0  0
   -4.5164   -2.5356    1.2948 S   0  0  0  0  0  0  0  0  0  0  0  0
   -4.1930   -1.3060    0.1533 C   0  0  0  0  0  0  0  0  0  0  0  0
   -2.8950   -0.8418    0.2419 C   0  0  0  0  0  0  0  0  0  0  0  0
   -2.4440    0.2286   -0.6286 C   0  0  0  0  0  0  0  0  0  0  0  0
   -2.4731    1.5532   -0.1777 C   0  0  0  0  0  0  0  0  0  0  0  0
   -1.9958    2.5779   -0.9958 C   0  0  0  0  0  0  0  0  0  0  0  0
   -1.4938    2.2828   -2.2631 C   0  0  0  0  0  0  0  0  0  0  0  0
   -1.4699    0.9642   -2.7163 C   0  0  0  0  0  0  0  0  0  0  0  0
   -1.9420   -0.0642   -1.8999 C   0  0  0  0  0  0  0  0  0  0  0  0
   -2.1408   -1.5202    1.2672 C   0  0  0  0  0  0  0  0  0  0  0  0
    2.3754    0.2743    2.4310 H   0  0  0  0  0  0  0  0  0  0  0  0
    3.8778    1.1753    2.4018 H   0  0  0  0  0  0  0  0  0  0  0  0
    3.9118   -0.5463    2.0140 H   0  0  0  0  0  0  0  0  0  0  0  0
    4.5300    2.3266    0.4858 H   0  0  0  0  0  0  0  0  0  0  0  0
    4.2926    2.8791   -1.8992 H   0  0  0  0  0  0  0  0  0  0  0  0
    2.7761    1.5575   -3.3494 H   0  0  0  0  0  0  0  0  0  0  0  0
    1.4895   -0.3209   -2.4069 H   0  0  0  0  0  0  0  0  0  0  0  0
   -0.2291    0.1805    0.6493 H   0  0  0  0  0  0  0  0  0  0  0  0
   -0.9157   -3.6939    4.0967 H   0  0  0  0  0  0  0  0  0  0  0  0
   -4.9738   -0.9807   -0.5223 H   0  0  0  0  0  0  0  0  0  0  0  0
   -2.8656    1.7962    0.8077 H   0  0  0  0  0  0  0  0  0  0  0  0
   -2.0187    3.6080   -0.6478 H   0  0  0  0  0  0  0  0  0  0  0  0
   -1.1240    3.0825   -2.9006 H   0  0  0  0  0  0  0  0  0  0  0  0
   -1.0793    0.7349   -3.7049 H   0  0  0  0  0  0  0  0  0  0  0  0
   -1.9009   -1.0922   -2.2568 H   0  0  0  0  0  0  0  0  0  0  0  0
  1  2  1  0
  2  3  2  0
  3  4  1  0
  4  5  2  0
  5  6  1  0
  6  7  2  0
  7  8  1  0
  8  9  2  0
  8 10  2  0
  8 11  1  0
 11 12  1  0
 12 13  2  0
 13 14  1  0
 14 15  2  0
 15 16  1  0
 16 17  1  0
 17 18  1  0
 18 19  2  0
 19 20  1  0
 20 21  2  0
 21 22  1  0
 22 23  2  0
 23 24  1  0
 24 25  2  0
 19 26  1  0
  7  2  1  0
 26 12  1  0
 26 16  2  0
 25 20  1  0
  1 27  1  0
  1 28  1  0
  1 29  1  0
  3 30  1  0
  4 31  1  0
  5 32  1  0
  6 33  1  0
 11 34  1  0
 14 35  1  0
 18 36  1  0
 21 37  1  0
 22 38  1  0
 23 39  1  0
 24 40  1  0
 25 41  1  0
M  END
$$$$
