
     RDKit          3D

 50 52  0  0  0  0  0  0  0  0999 V2000
    0.7020    1.7443   -3.1091 C   0  0  0  0  0  0  0  0  0  0  0  0
    1.3325    1.1521   -1.9802 O   0  0  0  0  0  0  0  0  0  0  0  0
    2.2468    1.9204   -1.2950 C   0  0  0  0  0  0  0  0  0  0  0  0
    2.6287    3.2148   -1.6546 C   0  0  0  0  0  0  0  0  0  0  0  0
    3.5778    3.9011   -0.8959 C   0  0  0  0  0  0  0  0  0  0  0  0
    4.1509    3.2977    0.2203 C   0  0  0  0  0  0  0  0  0  0  0  0
    3.7771    2.0050    0.5876 C   0  0  0  0  0  0  0  0  0  0  0  0
    2.8247    1.3094   -0.1605 C   0  0  0  0  0  0  0  0  0  0  0  0
    2.3988    0.0021    0.1493 N   0  0  0  0  0  0  0  0  0  0  0  0
    2.8249   -0.8330    1.1614 C   0  0  0  0  0  0  0  0  0  0  0  0
    3.6660   -0.5704    2.0174 O   0  0  0  0  0  0  0  0  0  0  0  0
    2.1736   -2.2173    1.1020 C   0  0  0  0  0  0  0  0  0  0  0  0
    0.9270   -2.1584    0.4002 O   0  0  0  0  0  0  0  0  0  0  0  0
   -0.1133   -2.7745    1.0028 C   0  0  0  0  0  0  0  0  0  0  0  0
   -0.0887   -3.5035    1.9830 O   0  0  0  0  0  0  0  0  0  0  0  0
   -1.3399   -2.4871    0.2408 C   0  0  0  0  0  0  0  0  0  0  0  0
   -1.9808   -3.5960   -0.3355 C   0  0  0  0  0  0  0  0  0  0  0  0
   -3.1331   -3.3943   -1.0928 C   0  0  0  0  0  0  0  0  0  0  0  0
   -3.8164   -4.5419   -1.7066 N   0  0  0  0  0  4  0  0  0  0  0  0
   -4.8698   -4.3217   -2.3197 O   0  0  0  0  0  0  0  0  0  0  0  0
   -3.3014   -5.6587   -1.5740 O   0  0  0  0  0  1  0  0  0  0  0  0
   -3.6464   -2.1062   -1.2621 C   0  0  0  0  0  0  0  0  0  0  0  0
   -3.0034   -1.0136   -0.6632 C   0  0  0  0  0  0  0  0  0  0  0  0
   -1.8382   -1.1687    0.1087 C   0  0  0  0  0  0  0  0  0  0  0  0
   -1.2220   -0.0888    0.7468 N   0  0  0  0  0  0  0  0  0  0  0  0
   -1.3942    1.2962    0.2798 C   0  0  0  0  0  0  0  0  0  0  0  0
   -2.0702    2.0098    1.4417 C   0  0  0  0  0  0  0  0  0  0  0  0
   -1.4052    1.3559    2.6386 C   0  0  0  0  0  0  0  0  0  0  0  0
   -1.3299   -0.1125    2.2251 C   0  0  0  0  0  0  0  0  0  0  0  0
    0.1454    2.6447   -2.8266 H   0  0  0  0  0  0  0  0  0  0  0  0
    1.4251    1.9579   -3.9016 H   0  0  0  0  0  0  0  0  0  0  0  0
   -0.0175    1.0232   -3.5024 H   0  0  0  0  0  0  0  0  0  0  0  0
    2.2201    3.7134   -2.5273 H   0  0  0  0  0  0  0  0  0  0  0  0
    3.8780    4.9055   -1.1808 H   0  0  0  0  0  0  0  0  0  0  0  0
    4.8999    3.8277    0.8016 H   0  0  0  0  0  0  0  0  0  0  0  0
    4.2497    1.5666    1.4607 H   0  0  0  0  0  0  0  0  0  0  0  0
    1.6525   -0.3542   -0.4460 H   0  0  0  0  0  0  0  0  0  0  0  0
    2.8451   -2.8854    0.5523 H   0  0  0  0  0  0  0  0  0  0  0  0
    2.0641   -2.5762    2.1319 H   0  0  0  0  0  0  0  0  0  0  0  0
   -1.5689   -4.5933   -0.1848 H   0  0  0  0  0  0  0  0  0  0  0  0
   -4.5510   -1.9290   -1.8438 H   0  0  0  0  0  0  0  0  0  0  0  0
   -3.4633   -0.0387   -0.7915 H   0  0  0  0  0  0  0  0  0  0  0  0
   -0.3994    1.7266    0.1264 H   0  0  0  0  0  0  0  0  0  0  0  0
   -1.9375    1.4156   -0.6614 H   0  0  0  0  0  0  0  0  0  0  0  0
   -3.1464    1.8040    1.4433 H   0  0  0  0  0  0  0  0  0  0  0  0
   -1.9205    3.0924    1.4151 H   0  0  0  0  0  0  0  0  0  0  0  0
   -1.9609    1.5017    3.5687 H   0  0  0  0  0  0  0  0  0  0  0  0
   -0.3959    1.7617    2.7765 H   0  0  0  0  0  0  0  0  0  0  0  0
   -0.4596   -0.5934    2.6796 H   0  0  0  0  0  0  0  0  0  0  0  0
   -2.2370   -0.6327    2.5539 H   0  0  0  0  0  0  0  0  0  0  0  0
  1  2  1  0
  2  3  1  0
  3  4  2  0
  4  5  1  0
  5  6  2  0
  6  7  1  0
  7  8  2  0
  8  9  1  0
  9 10  1  0
 10 11  2  0
 10 12  1  0
 12 13  1  0
 13 14  1  0
 14 15  2  0
 14 16  1  0
 16 17  2  0
 17 18  1  0
 18 19  1  0
 19 20  2  0
 19 21  1  0
 18 22  2  0
 22 23  1  0
 23 24  2  0
 24 25  1  0
 25 26  1  0
 26 27  1  0
 27 28  1  0
 28 29  1  0
  8  3  1  0
 24 16  1  0
 29 25  1  0
  1 30  1  0
  1 31  1  0
  1 32  1  0
  4 33  1  0
  5 34  1  0
  6 35  1  0
  7 36  1  0
  9 37  1  0
 12 38  1  0
 12 39  1  0
 17 40  1  0
 22 41  1  0
 23 42  1  0
 26 43  1  0
 26 44  1  0
 27 45  1  0
 27 46  1  0
 28 47  1  0
 28 48  1  0
 29 49  1  0
 29 50  1  0
M  CHG  2  19   1  21  -1
M  END
$$$$
