
     RDKit          3D

 51 53  0  0  0  0  0  0  0  0999 V2000
   -7.5746    1.6263   -1.3489 C   0  0  0  0  0  0  0  0  0  0  0  0
   -6.0866    1.5486   -1.5718 C   0  0  0  0  0  0  0  0  0  0  0  0
   -5.6291    1.2055   -2.8523 C   0  0  0  0  0  0  0  0  0  0  0  0
   -4.2687    1.1227   -3.1209 C   0  0  0  0  0  0  0  0  0  0  0  0
   -3.3422    1.3808   -2.1139 C   0  0  0  0  0  0  0  0  0  0  0  0
   -3.7591    1.7232   -0.8228 C   0  0  0  0  0  0  0  0  0  0  0  0
   -2.8284    2.0190    0.2051 N   0  0  0  0  0  0  0  0  0  0  0  0
   -1.4561    1.8407    0.1872 C   0  0  0  0  0  0  0  0  0  0  0  0
   -0.7988    1.2900   -0.6961 O   0  0  0  0  0  0  0  0  0  0  0  0
   -0.7704    2.3449    1.4496 C   0  0  0  0  0  0  0  0  0  0  0  0
   -0.3971    0.9349    2.5218 S   0  0  0  0  0  0  0  0  0  0  0  0
    1.1952    0.5216    1.9252 C   0  0  0  0  0  0  0  0  0  0  0  0
    2.1702    0.5677    2.7645 N   0  0  0  0  0  0  0  0  0  0  0  0
    3.4313    0.2394    2.3169 C   0  0  0  0  0  0  0  0  0  0  0  0
    4.4182    0.3678    3.0358 O   0  0  0  0  0  0  0  0  0  0  0  0
    3.6008   -0.2766    0.9038 C   0  0  0  0  0  0  0  0  0  0  0  0
    4.9975   -0.6978    0.5225 C   0  0  0  0  0  0  0  0  0  0  0  0
    5.2604   -2.1717    0.7512 C   0  0  0  0  0  0  0  0  0  0  0  0
    5.5272   -2.6550    2.0408 C   0  0  0  0  0  0  0  0  0  0  0  0
    5.7566   -4.0146    2.2579 C   0  0  0  0  0  0  0  0  0  0  0  0
    5.7240   -4.9070    1.1891 C   0  0  0  0  0  0  0  0  0  0  0  0
    5.4623   -4.4404   -0.0974 C   0  0  0  0  0  0  0  0  0  0  0  0
    5.2316   -3.0809   -0.3160 C   0  0  0  0  0  0  0  0  0  0  0  0
    2.5149   -0.2587    0.1015 C   0  0  0  0  0  0  0  0  0  0  0  0
    2.4894   -0.6765   -1.3423 C   0  0  0  0  0  0  0  0  0  0  0  0
    1.3146    0.1584    0.6234 N   0  0  0  0  0  0  0  0  0  0  0  0
   -5.1490    1.8074   -0.5397 C   0  0  0  0  0  0  0  0  0  0  0  0
   -5.6238    2.1804    0.8457 C   0  0  0  0  0  0  0  0  0  0  0  0
   -7.8584    2.6312   -1.0180 H   0  0  0  0  0  0  0  0  0  0  0  0
   -7.8867    0.8861   -0.6046 H   0  0  0  0  0  0  0  0  0  0  0  0
   -8.1329    1.4194   -2.2690 H   0  0  0  0  0  0  0  0  0  0  0  0
   -6.3340    1.0060   -3.6555 H   0  0  0  0  0  0  0  0  0  0  0  0
   -3.9248    0.8635   -4.1189 H   0  0  0  0  0  0  0  0  0  0  0  0
   -2.2919    1.3247   -2.3821 H   0  0  0  0  0  0  0  0  0  0  0  0
   -3.2224    2.3162    1.0874 H   0  0  0  0  0  0  0  0  0  0  0  0
    0.1330    2.8990    1.1740 H   0  0  0  0  0  0  0  0  0  0  0  0
   -1.4217    3.0379    1.9916 H   0  0  0  0  0  0  0  0  0  0  0  0
    5.1992   -0.4495   -0.5268 H   0  0  0  0  0  0  0  0  0  0  0  0
    5.7521   -0.1144    1.0671 H   0  0  0  0  0  0  0  0  0  0  0  0
    5.5605   -1.9731    2.8893 H   0  0  0  0  0  0  0  0  0  0  0  0
    5.9609   -4.3743    3.2630 H   0  0  0  0  0  0  0  0  0  0  0  0
    5.9054   -5.9646    1.3594 H   0  0  0  0  0  0  0  0  0  0  0  0
    5.4390   -5.1362   -0.9317 H   0  0  0  0  0  0  0  0  0  0  0  0
    5.0350   -2.7387   -1.3289 H   0  0  0  0  0  0  0  0  0  0  0  0
    3.4737   -0.9207   -1.7447 H   0  0  0  0  0  0  0  0  0  0  0  0
    2.0817    0.1312   -1.9602 H   0  0  0  0  0  0  0  0  0  0  0  0
    1.8510   -1.5579   -1.4664 H   0  0  0  0  0  0  0  0  0  0  0  0
    0.5018    0.1867    0.0073 H   0  0  0  0  0  0  0  0  0  0  0  0
   -5.1751    1.5148    1.5926 H   0  0  0  0  0  0  0  0  0  0  0  0
   -5.3498    3.2187    1.0664 H   0  0  0  0  0  0  0  0  0  0  0  0
   -6.7056    2.0938    0.9725 H   0  0  0  0  0  0  0  0  0  0  0  0
  1  2  1  0
  2  3  2  0
  3  4  1  0
  4  5  2  0
  5  6  1  0
  6  7  1  0
  7  8  1  0
  8  9  2  0
  8 10  1  0
 10 11  1  0
 11 12  1  0
 12 13  2  0
 13 14  1  0
 14 15  2  0
 14 16  1  0
 16 17  1  0
 17 18  1  0
 18 19  2  0
 19 20  1  0
 20 21  2  0
 21 22  1  0
 22 23  2  0
 16 24  2  0
 24 25  1  0
 24 26  1  0
  6 27  2  0
 27 28  1  0
 27  2  1  0
 26 12  1  0
 23 18  1  0
  1 29  1  0
  1 30  1  0
  1 31  1  0
  3 32  1  0
  4 33  1  0
  5 34  1  0
  7 35  1  0
 10 36  1  0
 10 37  1  0
 17 38  1  0
 17 39  1  0
 19 40  1  0
 20 41  1  0
 21 42  1  0
 22 43  1  0
 23 44  1  0
 25 45  1  0
 25 46  1  0
 25 47  1  0
 26 48  1  0
 28 49  1  0
 28 50  1  0
 28 51  1  0
M  END
$$$$
