
     RDKit          3D

 66 70  0  0  0  0  0  0  0  0999 V2000
   -2.2964   -0.7429   -4.8322 C   0  0  0  0  0  0  0  0  0  0  0  0
   -2.1899   -0.4932   -3.3375 C   0  0  0  0  0  0  0  0  0  0  0  0
   -1.5464    0.7759   -3.1394 O   0  0  0  0  0  0  0  0  0  0  0  0
   -0.5009    0.6798   -2.2602 C   0  0  0  0  0  0  0  0  0  0  0  0
    0.7061    0.1356   -2.7055 C   0  0  0  0  0  0  0  0  0  0  0  0
    1.8034    0.0873   -1.8496 C   0  0  0  0  0  0  0  0  0  0  0  0
    1.6959    0.6016   -0.5559 C   0  0  0  0  0  0  0  0  0  0  0  0
    2.8580    0.5925    0.3582 C   0  0  0  0  0  0  0  0  0  0  0  0
    3.9860    0.0583    0.0068 N   0  0  0  0  0  0  0  0  0  0  0  0
    5.0472    0.1590    0.8719 N   0  0  0  0  0  0  0  0  0  0  0  0
    5.3599    1.3092    1.5920 C   0  0  0  0  0  0  0  0  0  0  0  0
    4.6635    2.3194    1.6818 O   0  0  0  0  0  0  0  0  0  0  0  0
    6.6992    1.3189    2.2461 C   0  0  0  0  0  0  0  0  0  0  0  0
    7.3359    0.1277    2.6299 C   0  0  0  0  0  0  0  0  0  0  0  0
    8.6080    0.1661    3.2078 C   0  0  0  0  0  0  0  0  0  0  0  0
    9.2481    1.3891    3.4124 C   0  0  0  0  0  0  0  0  0  0  0  0
    8.6138    2.5776    3.0540 C   0  0  0  0  0  0  0  0  0  0  0  0
    7.3424    2.5430    2.4863 C   0  0  0  0  0  0  0  0  0  0  0  0
    6.7843    3.7564    2.1813 O   0  0  0  0  0  0  0  0  0  0  0  0
    0.4913    1.1627   -0.1154 C   0  0  0  0  0  0  0  0  0  0  0  0
   -0.6243    1.2136   -0.9687 C   0  0  0  0  0  0  0  0  0  0  0  0
   -1.9239    1.8252   -0.4930 C   0  0  0  0  0  0  0  0  0  0  0  0
   -2.9160    0.8144   -0.0982 N   0  0  0  0  0  0  0  0  0  0  0  0
   -4.2810    1.3464   -0.1708 C   0  0  0  0  0  0  0  0  0  0  0  0
   -5.3523    0.3161    0.2419 C   0  0  0  0  0  0  0  0  0  0  0  0
   -5.0734   -0.1915    1.6513 C   0  0  0  0  0  0  0  0  0  0  0  0
   -3.6924   -0.8412    1.6237 C   0  0  0  0  0  0  0  0  0  0  0  0
   -2.6355    0.2165    1.2158 C   0  0  0  0  0  0  0  0  0  0  0  0
   -3.6761   -2.0172    0.6615 C   0  0  0  0  0  0  0  0  0  0  0  0
   -2.8965   -3.0879    0.8941 C   0  0  0  0  0  0  0  0  0  0  0  0
   -2.8395   -4.1780   -0.0425 C   0  0  0  0  0  0  0  0  0  0  0  0
   -3.5508   -4.1390   -1.1717 C   0  0  0  0  0  0  0  0  0  0  0  0
   -4.4441   -2.9842   -1.4504 C   0  0  0  0  0  0  0  0  0  0  0  0
   -5.1079   -2.9833   -2.4850 O   0  0  0  0  0  0  0  0  0  0  0  0
   -4.4649   -1.9669   -0.4918 N   0  0  0  0  0  0  0  0  0  0  0  0
   -5.4189   -0.8798   -0.7204 C   0  0  0  0  0  0  0  0  0  0  0  0
   -1.2999   -0.7450   -5.2916 H   0  0  0  0  0  0  0  0  0  0  0  0
   -2.8680    0.0585   -5.3170 H   0  0  0  0  0  0  0  0  0  0  0  0
   -2.7846   -1.7014   -5.0397 H   0  0  0  0  0  0  0  0  0  0  0  0
   -3.1926   -0.4290   -2.9063 H   0  0  0  0  0  0  0  0  0  0  0  0
   -1.6670   -1.3290   -2.8527 H   0  0  0  0  0  0  0  0  0  0  0  0
    0.7953   -0.2393   -3.7208 H   0  0  0  0  0  0  0  0  0  0  0  0
    2.7415   -0.3335   -2.2021 H   0  0  0  0  0  0  0  0  0  0  0  0
    2.6985    1.0511    1.3510 H   0  0  0  0  0  0  0  0  0  0  0  0
    5.8262   -0.4227    0.5810 H   0  0  0  0  0  0  0  0  0  0  0  0
    6.8520   -0.8375    2.5063 H   0  0  0  0  0  0  0  0  0  0  0  0
    9.0992   -0.7581    3.5033 H   0  0  0  0  0  0  0  0  0  0  0  0
   10.2377    1.4190    3.8622 H   0  0  0  0  0  0  0  0  0  0  0  0
    9.1057    3.5337    3.2182 H   0  0  0  0  0  0  0  0  0  0  0  0
    5.8415    3.6034    1.9515 H   0  0  0  0  0  0  0  0  0  0  0  0
    0.4163    1.5697    0.8902 H   0  0  0  0  0  0  0  0  0  0  0  0
   -1.7375    2.5334    0.3267 H   0  0  0  0  0  0  0  0  0  0  0  0
   -2.3080    2.4410   -1.3191 H   0  0  0  0  0  0  0  0  0  0  0  0
   -4.4955    1.6768   -1.1944 H   0  0  0  0  0  0  0  0  0  0  0  0
   -4.3712    2.2309    0.4752 H   0  0  0  0  0  0  0  0  0  0  0  0
   -6.3245    0.8266    0.2207 H   0  0  0  0  0  0  0  0  0  0  0  0
   -5.0964    0.6379    2.3696 H   0  0  0  0  0  0  0  0  0  0  0  0
   -5.8395   -0.9108    1.9651 H   0  0  0  0  0  0  0  0  0  0  0  0
   -3.4535   -1.1916    2.6368 H   0  0  0  0  0  0  0  0  0  0  0  0
   -2.6058    0.9987    1.9860 H   0  0  0  0  0  0  0  0  0  0  0  0
   -1.6502   -0.2622    1.2146 H   0  0  0  0  0  0  0  0  0  0  0  0
   -2.2644   -3.1493    1.7756 H   0  0  0  0  0  0  0  0  0  0  0  0
   -2.1855   -5.0160    0.1782 H   0  0  0  0  0  0  0  0  0  0  0  0
   -3.5254   -4.9258   -1.9122 H   0  0  0  0  0  0  0  0  0  0  0  0
   -6.4170   -1.3362   -0.6225 H   0  0  0  0  0  0  0  0  0  0  0  0
   -5.3392   -0.5436   -1.7623 H   0  0  0  0  0  0  0  0  0  0  0  0
  1  2  1  0
  2  3  1  0
  3  4  1  0
  4  5  2  0
  5  6  1  0
  6  7  2  0
  7  8  1  0
  8  9  2  3
  9 10  1  0
 10 11  1  0
 11 12  2  0
 11 13  1  0
 13 14  2  0
 14 15  1  0
 15 16  2  0
 16 17  1  0
 17 18  2  0
 18 19  1  0
  7 20  1  0
 20 21  2  0
 21 22  1  0
 22 23  1  0
 23 24  1  0
 24 25  1  0
 25 26  1  0
 26 27  1  0
 27 28  1  0
 27 29  1  0
 29 30  2  0
 30 31  1  0
 31 32  2  0
 32 33  1  0
 33 34  2  0
 33 35  1  0
 35 36  1  0
 21  4  1  0
 28 23  1  0
 35 29  1  0
 18 13  1  0
 36 25  1  0
  1 37  1  0
  1 38  1  0
  1 39  1  0
  2 40  1  0
  2 41  1  0
  5 42  1  0
  6 43  1  0
  8 44  1  0
 10 45  1  0
 14 46  1  0
 15 47  1  0
 16 48  1  0
 17 49  1  0
 19 50  1  0
 20 51  1  0
 22 52  1  0
 22 53  1  0
 24 54  1  0
 24 55  1  0
 25 56  1  0
 26 57  1  0
 26 58  1  0
 27 59  1  0
 28 60  1  0
 28 61  1  0
 30 62  1  0
 31 63  1  0
 32 64  1  0
 36 65  1  0
 36 66  1  0
M  END
$$$$
