
     RDKit          3D

 64 64  0  0  0  0  0  0  0  0999 V2000
   -9.1325   -0.2989    1.1696 C   0  0  0  0  0  0  0  0  0  0  0  0
   -9.1318   -0.3199   -0.3515 C   0  0  0  0  0  0  0  0  0  0  0  0
   -7.7487   -0.0834   -0.9636 C   0  0  0  0  0  0  0  0  0  0  0  0
   -6.7514   -1.2015   -0.6497 C   0  0  0  0  0  0  0  0  0  0  0  0
   -5.4311   -1.0683   -1.4165 C   0  0  0  0  0  0  0  0  0  0  0  0
   -4.6382    0.2160   -1.1528 C   0  0  0  0  0  0  0  0  0  0  0  0
   -4.2743    0.4792    0.3118 C   0  0  0  0  0  0  0  0  0  0  0  0
   -3.4602   -0.6221    0.9990 C   0  0  0  0  0  0  0  0  0  0  0  0
   -2.1318   -0.9832    0.3277 C   0  0  0  0  0  0  0  0  0  0  0  0
   -1.1510    0.1889    0.2521 C   0  0  0  0  0  0  0  0  0  0  0  0
    0.1995   -0.2538   -0.3175 C   0  0  0  0  0  0  0  0  0  0  0  0
    1.1783    0.9197   -0.3933 C   0  0  0  0  0  0  0  0  0  0  0  0
    2.5167    0.5566   -1.0432 C   0  0  0  0  0  0  0  0  0  0  0  0
    3.3240   -0.5411   -0.3418 C   0  0  0  0  0  0  0  0  0  0  0  0
    3.6328   -0.2977    1.1391 C   0  0  0  0  0  0  0  0  0  0  0  0
    4.4603    0.9506    1.4350 C   0  0  0  0  0  0  0  0  0  0  0  0
    5.8377    0.8136    0.8929 N   0  0  0  0  0  4  0  0  0  0  0  0
    6.7374    0.0407    1.5481 C   0  0  0  0  0  0  0  0  0  0  0  0
    8.0343   -0.0945    1.0751 C   0  0  0  0  0  0  0  0  0  0  0  0
    8.4055    0.5833   -0.0817 C   0  0  0  0  0  0  0  0  0  0  0  0
    9.7741    0.4667   -0.6163 C   0  0  0  0  0  0  0  0  0  0  0  0
   10.6626   -0.2663   -0.0281 N   0  0  0  0  0  0  0  0  0  0  0  0
   11.8557   -0.1844   -0.7542 O   0  0  0  0  0  0  0  0  0  0  0  0
    7.4814    1.3837   -0.7419 C   0  0  0  0  0  0  0  0  0  0  0  0
    6.1944    1.4866   -0.2274 C   0  0  0  0  0  0  0  0  0  0  0  0
  -10.1578   -0.3764    1.5456 H   0  0  0  0  0  0  0  0  0  0  0  0
   -8.7017    0.6326    1.5504 H   0  0  0  0  0  0  0  0  0  0  0  0
   -8.5646   -1.1378    1.5829 H   0  0  0  0  0  0  0  0  0  0  0  0
   -9.5384   -1.2751   -0.7035 H   0  0  0  0  0  0  0  0  0  0  0  0
   -9.8087    0.4643   -0.7112 H   0  0  0  0  0  0  0  0  0  0  0  0
   -7.3621    0.8793   -0.6103 H   0  0  0  0  0  0  0  0  0  0  0  0
   -7.8641   -0.0005   -2.0512 H   0  0  0  0  0  0  0  0  0  0  0  0
   -7.2007   -2.1668   -0.9151 H   0  0  0  0  0  0  0  0  0  0  0  0
   -6.5497   -1.2395    0.4260 H   0  0  0  0  0  0  0  0  0  0  0  0
   -5.6401   -1.1281   -2.4922 H   0  0  0  0  0  0  0  0  0  0  0  0
   -4.8048   -1.9377   -1.1843 H   0  0  0  0  0  0  0  0  0  0  0  0
   -5.2067    1.0755   -1.5281 H   0  0  0  0  0  0  0  0  0  0  0  0
   -3.7224    0.1878   -1.7554 H   0  0  0  0  0  0  0  0  0  0  0  0
   -5.1914    0.6432    0.8902 H   0  0  0  0  0  0  0  0  0  0  0  0
   -3.7233    1.4257    0.3669 H   0  0  0  0  0  0  0  0  0  0  0  0
   -3.2591   -0.3068    2.0309 H   0  0  0  0  0  0  0  0  0  0  0  0
   -4.0686   -1.5309    1.0766 H   0  0  0  0  0  0  0  0  0  0  0  0
   -2.3125   -1.3827   -0.6768 H   0  0  0  0  0  0  0  0  0  0  0  0
   -1.6729   -1.7968    0.9039 H   0  0  0  0  0  0  0  0  0  0  0  0
   -1.0051    0.6115    1.2537 H   0  0  0  0  0  0  0  0  0  0  0  0
   -1.5633    0.9832   -0.3803 H   0  0  0  0  0  0  0  0  0  0  0  0
    0.6119   -1.0474    0.3155 H   0  0  0  0  0  0  0  0  0  0  0  0
    0.0546   -0.6774   -1.3185 H   0  0  0  0  0  0  0  0  0  0  0  0
    0.7237    1.7254   -0.9835 H   0  0  0  0  0  0  0  0  0  0  0  0
    1.3456    1.3318    0.6082 H   0  0  0  0  0  0  0  0  0  0  0  0
    3.1226    1.4664   -1.1160 H   0  0  0  0  0  0  0  0  0  0  0  0
    2.3318    0.2377   -2.0769 H   0  0  0  0  0  0  0  0  0  0  0  0
    2.7844   -1.4919   -0.4288 H   0  0  0  0  0  0  0  0  0  0  0  0
    4.2625   -0.6869   -0.8898 H   0  0  0  0  0  0  0  0  0  0  0  0
    4.1541   -1.1820    1.5252 H   0  0  0  0  0  0  0  0  0  0  0  0
    2.6941   -0.2356    1.7011 H   0  0  0  0  0  0  0  0  0  0  0  0
    4.5646    1.0959    2.5168 H   0  0  0  0  0  0  0  0  0  0  0  0
    4.0083    1.8599    1.0274 H   0  0  0  0  0  0  0  0  0  0  0  0
    6.4052   -0.4663    2.4503 H   0  0  0  0  0  0  0  0  0  0  0  0
    8.7461   -0.7223    1.6082 H   0  0  0  0  0  0  0  0  0  0  0  0
   10.0133    1.0289   -1.5382 H   0  0  0  0  0  0  0  0  0  0  0  0
   12.4607   -0.7620   -0.2495 H   0  0  0  0  0  0  0  0  0  0  0  0
    7.7499    1.9267   -1.6454 H   0  0  0  0  0  0  0  0  0  0  0  0
    5.4409    2.1046   -0.7076 H   0  0  0  0  0  0  0  0  0  0  0  0
  1  2  1  0
  2  3  1  0
  3  4  1  0
  4  5  1  0
  5  6  1  0
  6  7  1  0
  7  8  1  0
  8  9  1  0
  9 10  1  0
 10 11  1  0
 11 12  1  0
 12 13  1  0
 13 14  1  0
 14 15  1  0
 15 16  1  0
 16 17  1  0
 17 18  2  0
 18 19  1  0
 19 20  2  0
 20 21  1  0
 21 22  2  3
 22 23  1  0
 20 24  1  0
 24 25  2  0
 25 17  1  0
  1 26  1  0
  1 27  1  0
  1 28  1  0
  2 29  1  0
  2 30  1  0
  3 31  1  0
  3 32  1  0
  4 33  1  0
  4 34  1  0
  5 35  1  0
  5 36  1  0
  6 37  1  0
  6 38  1  0
  7 39  1  0
  7 40  1  0
  8 41  1  0
  8 42  1  0
  9 43  1  0
  9 44  1  0
 10 45  1  0
 10 46  1  0
 11 47  1  0
 11 48  1  0
 12 49  1  0
 12 50  1  0
 13 51  1  0
 13 52  1  0
 14 53  1  0
 14 54  1  0
 15 55  1  0
 15 56  1  0
 16 57  1  0
 16 58  1  0
 18 59  1  0
 19 60  1  0
 21 61  1  0
 23 62  1  0
 24 63  1  0
 25 64  1  0
M  CHG  1  17   1
M  END
$$$$
