
     RDKit          3D

 49 52  0  0  0  0  0  0  0  0999 V2000
    7.2900    0.1179   -1.4793 C   0  0  0  0  0  0  0  0  0  0  0  0
    6.5884    0.3686   -0.1533 C   0  0  0  0  0  0  0  0  0  0  0  0
    5.1232    0.0245   -0.2211 C   0  0  0  0  0  0  0  0  0  0  0  0
    4.1817    0.9844   -0.6101 C   0  0  0  0  0  0  0  0  0  0  0  0
    2.8197    0.6630   -0.6888 C   0  0  0  0  0  0  0  0  0  0  0  0
    2.3637   -0.6251   -0.3856 C   0  0  0  0  0  0  0  0  0  0  0  0
    0.9503   -1.0333   -0.4515 C   0  0  0  0  0  0  0  0  0  0  0  0
   -0.1314   -0.0673   -0.8873 C   0  0  0  0  0  0  0  0  0  0  0  0
   -0.3510    1.0556    0.0391 N   0  0  0  0  0  0  0  0  0  0  0  0
   -1.2900    2.0358   -0.5311 C   0  0  0  0  0  0  0  0  0  0  0  0
   -2.7468    1.6988   -0.3664 C   0  0  0  0  0  0  0  0  0  0  0  0
   -3.2020    0.7718    0.4986 C   0  0  0  0  0  0  0  0  0  0  0  0
   -4.6430    0.4685    0.6238 C   0  0  0  0  0  0  0  0  0  0  0  0
   -5.5947    1.4986    0.6779 C   0  0  0  0  0  0  0  0  0  0  0  0
   -6.9560    1.2119    0.8128 C   0  0  0  0  0  0  0  0  0  0  0  0
   -7.3850   -0.1098    0.8996 C   0  0  0  0  0  0  0  0  0  0  0  0
   -6.4536   -1.1439    0.8543 C   0  0  0  0  0  0  0  0  0  0  0  0
   -5.0920   -0.8563    0.7204 C   0  0  0  0  0  0  0  0  0  0  0  0
   -2.2321    0.0111    1.3732 C   0  0  0  0  0  0  0  0  0  0  0  0
   -0.8269    0.6413    1.3716 C   0  0  0  0  0  0  0  0  0  0  0  0
    0.6502   -2.3078   -0.1548 C   0  0  0  0  0  0  0  0  0  0  0  0
    1.6449   -3.3061    0.2593 C   0  0  0  0  0  0  0  0  0  0  0  0
    1.3005   -4.4501    0.5342 O   0  0  0  0  0  0  0  0  0  0  0  0
    2.9617   -2.8929    0.3176 O   0  0  0  0  0  0  0  0  0  0  0  0
    3.3191   -1.5694   -0.0046 C   0  0  0  0  0  0  0  0  0  0  0  0
    4.6804   -1.2662    0.0786 C   0  0  0  0  0  0  0  0  0  0  0  0
    7.2177   -0.9344   -1.7744 H   0  0  0  0  0  0  0  0  0  0  0  0
    8.3508    0.3760   -1.4009 H   0  0  0  0  0  0  0  0  0  0  0  0
    6.8520    0.7222   -2.2810 H   0  0  0  0  0  0  0  0  0  0  0  0
    7.0694   -0.2199    0.6376 H   0  0  0  0  0  0  0  0  0  0  0  0
    6.7075    1.4198    0.1362 H   0  0  0  0  0  0  0  0  0  0  0  0
    4.4995    1.9965   -0.8534 H   0  0  0  0  0  0  0  0  0  0  0  0
    2.1285    1.4482   -0.9844 H   0  0  0  0  0  0  0  0  0  0  0  0
    0.1679    0.3251   -1.8694 H   0  0  0  0  0  0  0  0  0  0  0  0
   -1.0676   -0.6090   -1.0759 H   0  0  0  0  0  0  0  0  0  0  0  0
   -1.1142    3.0058   -0.0486 H   0  0  0  0  0  0  0  0  0  0  0  0
   -1.0731    2.1968   -1.5944 H   0  0  0  0  0  0  0  0  0  0  0  0
   -3.4327    2.2575   -0.9978 H   0  0  0  0  0  0  0  0  0  0  0  0
   -5.2840    2.5397    0.6312 H   0  0  0  0  0  0  0  0  0  0  0  0
   -7.6789    2.0223    0.8549 H   0  0  0  0  0  0  0  0  0  0  0  0
   -8.4432   -0.3337    1.0050 H   0  0  0  0  0  0  0  0  0  0  0  0
   -6.7850   -2.1769    0.9219 H   0  0  0  0  0  0  0  0  0  0  0  0
   -4.3904   -1.6852    0.6778 H   0  0  0  0  0  0  0  0  0  0  0  0
   -2.5975   -0.0126    2.4072 H   0  0  0  0  0  0  0  0  0  0  0  0
   -2.1628   -1.0270    1.0275 H   0  0  0  0  0  0  0  0  0  0  0  0
   -0.8359    1.5282    2.0208 H   0  0  0  0  0  0  0  0  0  0  0  0
   -0.1156   -0.0436    1.8478 H   0  0  0  0  0  0  0  0  0  0  0  0
   -0.3668   -2.6808   -0.1966 H   0  0  0  0  0  0  0  0  0  0  0  0
    5.3850   -2.0386    0.3763 H   0  0  0  0  0  0  0  0  0  0  0  0
  1  2  1  0
  2  3  1  0
  3  4  2  0
  4  5  1  0
  5  6  2  0
  6  7  1  0
  7  8  1  0
  8  9  1  0
  9 10  1  0
 10 11  1  0
 11 12  2  0
 12 13  1  0
 13 14  2  0
 14 15  1  0
 15 16  2  0
 16 17  1  0
 17 18  2  0
 12 19  1  0
 19 20  1  0
  7 21  2  0
 21 22  1  0
 22 23  2  0
 22 24  1  0
 24 25  1  0
 25 26  2  0
 26  3  1  0
 25  6  1  0
 20  9  1  0
 18 13  1  0
  1 27  1  0
  1 28  1  0
  1 29  1  0
  2 30  1  0
  2 31  1  0
  4 32  1  0
  5 33  1  0
  8 34  1  0
  8 35  1  0
 10 36  1  0
 10 37  1  0
 11 38  1  0
 14 39  1  0
 15 40  1  0
 16 41  1  0
 17 42  1  0
 18 43  1  0
 19 44  1  0
 19 45  1  0
 20 46  1  0
 20 47  1  0
 21 48  1  0
 26 49  1  0
M  END
$$$$
