
     RDKit          3D

 50 53  0  0  0  0  0  0  0  0999 V2000
    1.6321   -2.9871   -1.6192 C   0  0  0  0  0  0  0  0  0  0  0  0
    2.3712   -1.9644   -0.8541 C   0  0  0  0  0  0  0  0  0  0  0  0
    3.6414   -1.4418   -0.9517 C   0  0  0  0  0  0  0  0  0  0  0  0
    3.7544   -0.4759    0.0769 C   0  0  0  0  0  0  0  0  0  0  0  0
    2.5405   -0.4567    0.7328 C   0  0  0  0  0  0  0  0  0  0  0  0
    2.0169    0.3245    1.8850 C   0  0  0  0  0  0  0  0  0  0  0  0
    0.9915    1.2819    1.4605 N   0  0  0  0  0  0  0  0  0  0  0  0
    1.4424    2.5881    0.9719 C   0  0  0  0  0  0  0  0  0  0  0  0
    1.9863    2.5639   -0.4300 C   0  0  0  0  0  0  0  0  0  0  0  0
    1.2167    2.1356   -1.5155 C   0  0  0  0  0  0  0  0  0  0  0  0
    1.7658    2.1303   -2.7940 C   0  0  0  0  0  0  0  0  0  0  0  0
    3.0714    2.5643   -2.9485 C   0  0  0  0  0  0  0  0  0  0  0  0
    3.8443    2.9996   -1.9304 N   0  0  0  0  0  0  0  0  0  0  0  0
    3.2812    2.9965   -0.7009 C   0  0  0  0  0  0  0  0  0  0  0  0
   -0.3757    1.0066    1.4325 C   0  0  0  0  0  0  0  0  0  0  0  0
   -1.1830    1.8376    1.0054 O   0  0  0  0  0  0  0  0  0  0  0  0
   -0.8462   -0.3549    1.9782 C   0  0  0  0  0  0  0  0  0  0  0  0
   -2.2814   -0.5660    1.7996 N   0  0  0  0  0  0  0  0  0  0  0  0
   -3.1187   -0.2703    2.8628 C   0  0  0  0  0  0  0  0  0  0  0  0
   -2.7154    0.1290    3.9572 O   0  0  0  0  0  0  0  0  0  0  0  0
   -4.5944   -0.5734    2.6342 C   0  0  0  0  0  0  0  0  0  0  0  0
   -5.1265   -0.6134    1.3288 O   0  0  0  0  0  0  0  0  0  0  0  0
   -4.2204   -0.9402    0.3600 C   0  0  0  0  0  0  0  0  0  0  0  0
   -4.7825   -1.2587   -0.8808 C   0  0  0  0  0  0  0  0  0  0  0  0
   -3.9670   -1.5745   -1.9635 C   0  0  0  0  0  0  0  0  0  0  0  0
   -2.5857   -1.5595   -1.8082 C   0  0  0  0  0  0  0  0  0  0  0  0
   -2.0211   -1.2315   -0.5706 C   0  0  0  0  0  0  0  0  0  0  0  0
   -2.8297   -0.9219    0.5349 C   0  0  0  0  0  0  0  0  0  0  0  0
    1.6996   -1.3738    0.1723 O   0  0  0  0  0  0  0  0  0  0  0  0
    2.3154   -3.6007   -2.2145 H   0  0  0  0  0  0  0  0  0  0  0  0
    0.9183   -2.5107   -2.2981 H   0  0  0  0  0  0  0  0  0  0  0  0
    1.0795   -3.6503   -0.9465 H   0  0  0  0  0  0  0  0  0  0  0  0
    4.3928   -1.7175   -1.6785 H   0  0  0  0  0  0  0  0  0  0  0  0
    4.6123    0.1442    0.2975 H   0  0  0  0  0  0  0  0  0  0  0  0
    1.6089   -0.3620    2.6320 H   0  0  0  0  0  0  0  0  0  0  0  0
    2.8259    0.8754    2.3780 H   0  0  0  0  0  0  0  0  0  0  0  0
    2.1974    2.9579    1.6767 H   0  0  0  0  0  0  0  0  0  0  0  0
    0.6241    3.3170    1.0073 H   0  0  0  0  0  0  0  0  0  0  0  0
    0.1904    1.8060   -1.3689 H   0  0  0  0  0  0  0  0  0  0  0  0
    1.1865    1.7980   -3.6476 H   0  0  0  0  0  0  0  0  0  0  0  0
    3.5431    2.5782   -3.9266 H   0  0  0  0  0  0  0  0  0  0  0  0
    3.9326    3.3615    0.0887 H   0  0  0  0  0  0  0  0  0  0  0  0
   -0.3092   -1.1872    1.5237 H   0  0  0  0  0  0  0  0  0  0  0  0
   -0.6088   -0.3721    3.0480 H   0  0  0  0  0  0  0  0  0  0  0  0
   -4.8033   -1.5374    3.1138 H   0  0  0  0  0  0  0  0  0  0  0  0
   -5.1624    0.1890    3.1797 H   0  0  0  0  0  0  0  0  0  0  0  0
   -5.8631   -1.2535   -1.0003 H   0  0  0  0  0  0  0  0  0  0  0  0
   -4.4088   -1.8199   -2.9255 H   0  0  0  0  0  0  0  0  0  0  0  0
   -1.9414   -1.7925   -2.6523 H   0  0  0  0  0  0  0  0  0  0  0  0
   -0.9380   -1.2171   -0.5123 H   0  0  0  0  0  0  0  0  0  0  0  0
  1  2  1  0
  2  3  2  0
  3  4  1  0
  4  5  2  0
  5  6  1  0
  6  7  1  0
  7  8  1  0
  8  9  1  0
  9 10  2  0
 10 11  1  0
 11 12  2  0
 12 13  1  0
 13 14  2  0
  7 15  1  0
 15 16  2  0
 15 17  1  0
 17 18  1  0
 18 19  1  0
 19 20  2  0
 19 21  1  0
 21 22  1  0
 22 23  1  0
 23 24  2  0
 24 25  1  0
 25 26  2  0
 26 27  1  0
 27 28  2  0
  5 29  1  0
 29  2  1  0
 14  9  1  0
 28 18  1  0
 28 23  1  0
  1 30  1  0
  1 31  1  0
  1 32  1  0
  3 33  1  0
  4 34  1  0
  6 35  1  0
  6 36  1  0
  8 37  1  0
  8 38  1  0
 10 39  1  0
 11 40  1  0
 12 41  1  0
 14 42  1  0
 17 43  1  0
 17 44  1  0
 21 45  1  0
 21 46  1  0
 24 47  1  0
 25 48  1  0
 26 49  1  0
 27 50  1  0
M  END
$$$$
