
     RDKit          3D

 53 56  0  0  0  0  0  0  0  0999 V2000
   -2.2295   -2.7729   -1.8139 C   0  0  0  0  0  0  0  0  0  0  0  0
   -1.2909   -1.6456   -2.2302 C   0  0  0  0  0  0  0  0  0  0  0  0
   -0.3590   -1.2528   -1.1545 N   0  0  0  0  0  0  0  0  0  0  0  0
    0.7591   -2.0884   -0.9681 C   0  0  0  0  0  0  0  0  0  0  0  0
    0.9637   -3.0658   -1.6958 O   0  0  0  0  0  0  0  0  0  0  0  0
    1.7721   -1.6880    0.1049 C   0  0  0  0  0  0  0  0  0  0  0  0
    3.4366   -1.5775   -0.6320 S   0  0  0  0  0  0  0  0  0  0  0  0
    4.3363   -1.0391    0.7443 C   0  0  0  0  0  0  0  0  0  0  0  0
    3.8347   -0.4900    1.8286 N   0  0  0  0  0  0  0  0  0  0  0  0
    4.8811   -0.1903    2.6727 N   0  0  0  0  0  0  0  0  0  0  0  0
    5.9952   -0.5650    2.0803 C   0  0  0  0  0  0  0  0  0  0  0  0
    7.3606   -0.5042    2.4729 C   0  0  0  0  0  0  0  0  0  0  0  0
    8.3127   -0.9733    1.6425 C   0  0  0  0  0  0  0  0  0  0  0  0
    7.9784   -1.5451    0.3463 C   0  0  0  0  0  0  0  0  0  0  0  0
    6.6885   -1.6046   -0.0281 C   0  0  0  0  0  0  0  0  0  0  0  0
    5.7059   -1.1162    0.8363 N   0  0  0  0  0  0  0  0  0  0  0  0
   -0.8744   -0.4164   -0.1514 C   0  0  0  0  0  0  0  0  0  0  0  0
   -1.2604    0.8636   -0.3880 C   0  0  0  0  0  0  0  0  0  0  0  0
   -1.0082    1.4475   -1.6304 N   0  0  0  0  0  0  0  0  0  0  0  0
   -1.8686    1.6016    0.6273 N   0  0  0  0  0  0  0  0  0  0  0  0
   -2.5577    2.8636    0.3322 C   0  0  0  0  0  0  0  0  0  0  0  0
   -3.9891    2.6536   -0.1179 C   0  0  0  0  0  0  0  0  0  0  0  0
   -5.0320    2.6172    0.8197 C   0  0  0  0  0  0  0  0  0  0  0  0
   -6.3498    2.4075    0.4099 C   0  0  0  0  0  0  0  0  0  0  0  0
   -6.6405    2.2278   -0.9406 C   0  0  0  0  0  0  0  0  0  0  0  0
   -5.6137    2.2551   -1.8819 C   0  0  0  0  0  0  0  0  0  0  0  0
   -4.2952    2.4647   -1.4733 C   0  0  0  0  0  0  0  0  0  0  0  0
   -1.9914    1.1288    1.9288 C   0  0  0  0  0  0  0  0  0  0  0  0
   -2.5599    1.7270    2.8406 O   0  0  0  0  0  0  0  0  0  0  0  0
   -1.4392   -0.0893    2.1805 N   0  0  0  0  0  0  0  0  0  0  0  0
   -1.0584   -0.9726    1.2240 C   0  0  0  0  0  0  0  0  0  0  0  0
   -0.8725   -2.1583    1.4813 O   0  0  0  0  0  0  0  0  0  0  0  0
   -2.8793   -3.0503   -2.6497 H   0  0  0  0  0  0  0  0  0  0  0  0
   -2.8660   -2.4669   -0.9775 H   0  0  0  0  0  0  0  0  0  0  0  0
   -1.6756   -3.6640   -1.5032 H   0  0  0  0  0  0  0  0  0  0  0  0
   -1.8857   -0.7864   -2.5551 H   0  0  0  0  0  0  0  0  0  0  0  0
   -0.7049   -1.9650   -3.1003 H   0  0  0  0  0  0  0  0  0  0  0  0
    1.7616   -2.4460    0.8936 H   0  0  0  0  0  0  0  0  0  0  0  0
    1.5403   -0.7123    0.5345 H   0  0  0  0  0  0  0  0  0  0  0  0
    7.6064   -0.0791    3.4395 H   0  0  0  0  0  0  0  0  0  0  0  0
    9.3611   -0.9367    1.9250 H   0  0  0  0  0  0  0  0  0  0  0  0
    8.7781   -1.9130   -0.2885 H   0  0  0  0  0  0  0  0  0  0  0  0
    6.3704   -2.0193   -0.9765 H   0  0  0  0  0  0  0  0  0  0  0  0
   -0.3502    0.8879   -2.1743 H   0  0  0  0  0  0  0  0  0  0  0  0
   -0.6407    2.3898   -1.5284 H   0  0  0  0  0  0  0  0  0  0  0  0
   -2.0069    3.4452   -0.4152 H   0  0  0  0  0  0  0  0  0  0  0  0
   -2.5563    3.5002    1.2268 H   0  0  0  0  0  0  0  0  0  0  0  0
   -4.8224    2.7489    1.8802 H   0  0  0  0  0  0  0  0  0  0  0  0
   -7.1483    2.3815    1.1469 H   0  0  0  0  0  0  0  0  0  0  0  0
   -7.6665    2.0630   -1.2585 H   0  0  0  0  0  0  0  0  0  0  0  0
   -5.8387    2.1096   -2.9352 H   0  0  0  0  0  0  0  0  0  0  0  0
   -3.5062    2.4738   -2.2217 H   0  0  0  0  0  0  0  0  0  0  0  0
   -1.6050   -0.4634    3.1026 H   0  0  0  0  0  0  0  0  0  0  0  0
  1  2  1  0
  2  3  1  0
  3  4  1  0
  4  5  2  0
  4  6  1  0
  6  7  1  0
  7  8  1  0
  8  9  2  0
  9 10  1  0
 10 11  2  0
 11 12  1  0
 12 13  2  0
 13 14  1  0
 14 15  2  0
 15 16  1  0
  3 17  1  0
 17 18  2  0
 18 19  1  0
 18 20  1  0
 20 21  1  0
 21 22  1  0
 22 23  2  0
 23 24  1  0
 24 25  2  0
 25 26  1  0
 26 27  2  0
 20 28  1  0
 28 29  2  0
 28 30  1  0
 30 31  1  0
 31 32  2  0
 16  8  1  0
 31 17  1  0
 16 11  1  0
 27 22  1  0
  1 33  1  0
  1 34  1  0
  1 35  1  0
  2 36  1  0
  2 37  1  0
  6 38  1  0
  6 39  1  0
 12 40  1  0
 13 41  1  0
 14 42  1  0
 15 43  1  0
 19 44  1  0
 19 45  1  0
 21 46  1  0
 21 47  1  0
 23 48  1  0
 24 49  1  0
 25 50  1  0
 26 51  1  0
 27 52  1  0
 30 53  1  0
M  END
$$$$
