
     RDKit          3D

 50 52  0  0  0  0  0  0  0  0999 V2000
    1.4742    4.0950    0.5534 O   0  0  0  0  0  0  0  0  0  0  0  0
    1.5598    3.3846   -0.4294 C   0  0  0  0  0  0  0  0  0  0  0  0
    0.8149    3.5988   -1.5267 O   0  0  0  0  0  0  0  0  0  0  0  0
    2.4503    2.2084   -0.5730 C   0  0  0  0  0  0  0  0  0  0  0  0
    2.4022    1.3839   -1.7036 C   0  0  0  0  0  0  0  0  0  0  0  0
    3.2274    0.2616   -1.7814 C   0  0  0  0  0  0  0  0  0  0  0  0
    3.0867   -0.6172   -2.8922 N   0  0  0  0  0  0  0  0  0  0  0  0
    2.3788   -2.1357   -2.6462 S   0  0  0  0  0  6  0  0  0  0  0  0
    1.9938   -2.6254   -3.9515 O   0  0  0  0  0  0  0  0  0  0  0  0
    3.2141   -2.9114   -1.7571 O   0  0  0  0  0  0  0  0  0  0  0  0
    0.8808   -1.7298   -1.7743 C   0  0  0  0  0  0  0  0  0  0  0  0
    0.8113   -1.9042   -0.3887 C   0  0  0  0  0  0  0  0  0  0  0  0
   -0.3417   -1.5186    0.3059 C   0  0  0  0  0  0  0  0  0  0  0  0
   -1.4441   -0.9598   -0.3629 C   0  0  0  0  0  0  0  0  0  0  0  0
   -2.5916   -0.5316    0.3269 N   0  0  0  0  0  0  0  0  0  0  0  0
   -2.3367    0.3716    1.4633 C   0  0  0  0  0  0  0  0  0  0  0  0
   -3.6616    0.9763    1.9277 C   0  0  0  0  0  0  0  0  0  0  0  0
   -4.6714   -0.1158    2.2778 C   0  0  0  0  0  0  0  0  0  0  0  0
   -4.8428   -1.0917    1.1148 C   0  0  0  0  0  0  0  0  0  0  0  0
   -3.4968   -1.6510    0.6542 C   0  0  0  0  0  0  0  0  0  0  0  0
   -1.3479   -0.8487   -1.7635 C   0  0  0  0  0  0  0  0  0  0  0  0
   -2.4422   -0.2716   -2.5153 N   0  0  0  0  0  4  0  0  0  0  0  0
   -2.2772    0.8824   -2.9380 O   0  0  0  0  0  0  0  0  0  0  0  0
   -3.4183   -0.9972   -2.7494 O   0  0  0  0  0  1  0  0  0  0  0  0
   -0.2068   -1.2236   -2.4834 C   0  0  0  0  0  0  0  0  0  0  0  0
    4.1108   -0.0367   -0.7455 C   0  0  0  0  0  0  0  0  0  0  0  0
    4.1726    0.7927    0.3811 C   0  0  0  0  0  0  0  0  0  0  0  0
    5.1277    0.4410    1.4589 C   0  0  0  0  0  0  0  0  0  0  0  0
    5.9377   -0.4648    1.4266 O   0  0  0  0  0  0  0  0  0  0  0  0
    5.0095    1.2373    2.5334 O   0  0  0  0  0  0  0  0  0  0  0  0
    3.3371    1.9135    0.4693 C   0  0  0  0  0  0  0  0  0  0  0  0
    0.2587    4.3757   -1.3040 H   0  0  0  0  0  0  0  0  0  0  0  0
    1.7047    1.6052   -2.5080 H   0  0  0  0  0  0  0  0  0  0  0  0
    2.8248   -0.2179   -3.7937 H   0  0  0  0  0  0  0  0  0  0  0  0
    1.6522   -2.3232    0.1630 H   0  0  0  0  0  0  0  0  0  0  0  0
   -0.3672   -1.6627    1.3842 H   0  0  0  0  0  0  0  0  0  0  0  0
   -1.6666    1.1845    1.1577 H   0  0  0  0  0  0  0  0  0  0  0  0
   -1.8659   -0.1616    2.2984 H   0  0  0  0  0  0  0  0  0  0  0  0
   -3.4924    1.6193    2.7981 H   0  0  0  0  0  0  0  0  0  0  0  0
   -4.0749    1.6089    1.1317 H   0  0  0  0  0  0  0  0  0  0  0  0
   -5.6371    0.3360    2.5298 H   0  0  0  0  0  0  0  0  0  0  0  0
   -4.3287   -0.6611    3.1660 H   0  0  0  0  0  0  0  0  0  0  0  0
   -5.5045   -1.9127    1.4130 H   0  0  0  0  0  0  0  0  0  0  0  0
   -5.3273   -0.5727    0.2781 H   0  0  0  0  0  0  0  0  0  0  0  0
   -3.0624   -2.2794    1.4426 H   0  0  0  0  0  0  0  0  0  0  0  0
   -3.6647   -2.2868   -0.2236 H   0  0  0  0  0  0  0  0  0  0  0  0
   -0.1673   -1.1049   -3.5641 H   0  0  0  0  0  0  0  0  0  0  0  0
    4.7521   -0.9148   -0.8100 H   0  0  0  0  0  0  0  0  0  0  0  0
    5.6849    0.8963    3.1589 H   0  0  0  0  0  0  0  0  0  0  0  0
    3.3712    2.5594    1.3460 H   0  0  0  0  0  0  0  0  0  0  0  0
  1  2  2  0
  2  3  1  0
  2  4  1  0
  4  5  2  0
  5  6  1  0
  6  7  1  0
  7  8  1  0
  8  9  2  0
  8 10  2  0
  8 11  1  0
 11 12  2  0
 12 13  1  0
 13 14  2  0
 14 15  1  0
 15 16  1  0
 16 17  1  0
 17 18  1  0
 18 19  1  0
 19 20  1  0
 14 21  1  0
 21 22  1  0
 22 23  2  0
 22 24  1  0
 21 25  2  0
  6 26  2  0
 26 27  1  0
 27 28  1  0
 28 29  2  0
 28 30  1  0
 27 31  2  0
 31  4  1  0
 25 11  1  0
 20 15  1  0
  3 32  1  0
  5 33  1  0
  7 34  1  0
 12 35  1  0
 13 36  1  0
 16 37  1  0
 16 38  1  0
 17 39  1  0
 17 40  1  0
 18 41  1  0
 18 42  1  0
 19 43  1  0
 19 44  1  0
 20 45  1  0
 20 46  1  0
 25 47  1  0
 26 48  1  0
 30 49  1  0
 31 50  1  0
M  CHG  2  22   1  24  -1
M  END
$$$$
