
     RDKit          3D

 35 37  0  0  0  0  0  0  0  0999 V2000
    5.5317   -1.3074    1.3279 C   0  0  0  0  0  0  0  0  0  0  0  0
    4.2687   -0.8254    0.6672 C   0  0  0  0  0  0  0  0  0  0  0  0
    3.6580   -1.6244   -0.3116 C   0  0  0  0  0  0  0  0  0  0  0  0
    2.4904   -1.2031   -0.9494 C   0  0  0  0  0  0  0  0  0  0  0  0
    1.9076    0.0173   -0.6144 C   0  0  0  0  0  0  0  0  0  0  0  0
    0.7259    0.4319   -1.2410 N   0  0  0  0  0  0  0  0  0  0  0  0
   -0.4031    0.1221   -0.7036 C   0  0  0  0  0  0  0  0  0  0  0  0
   -0.6113   -0.5818    0.4391 N   0  0  0  0  0  0  0  0  0  0  0  0
   -1.9025   -0.7899    0.8258 C   0  0  0  0  0  0  0  0  0  0  0  0
   -2.2345   -1.4011    1.8292 O   0  0  0  0  0  0  0  0  0  0  0  0
   -2.8352   -0.1602   -0.1514 C   0  0  0  0  0  0  0  0  0  0  0  0
   -4.1607   -0.2659    0.0112 C   0  0  0  0  0  0  0  0  0  0  0  0
   -5.1514    0.2776   -0.8580 C   0  0  0  0  0  0  0  0  0  0  0  0
   -5.2091    1.4748   -1.5529 C   0  0  0  0  0  0  0  0  0  0  0  0
   -6.4070    1.6286   -2.3112 C   0  0  0  0  0  0  0  0  0  0  0  0
   -7.2483    0.5518   -2.1652 C   0  0  0  0  0  0  0  0  0  0  0  0
   -6.6013   -0.6266   -1.1143 S   0  0  0  0  0  0  0  0  0  0  0  0
   -1.9265    0.5934   -1.4094 S   0  0  0  0  0  0  0  0  0  0  0  0
    2.5229    0.8298    0.3410 C   0  0  0  0  0  0  0  0  0  0  0  0
    3.6989    0.4219    0.9925 C   0  0  0  0  0  0  0  0  0  0  0  0
    4.3250    1.3287    2.0164 C   0  0  0  0  0  0  0  0  0  0  0  0
    5.4038   -1.3454    2.4143 H   0  0  0  0  0  0  0  0  0  0  0  0
    5.7993   -2.3161    0.9954 H   0  0  0  0  0  0  0  0  0  0  0  0
    6.3658   -0.6434    1.0804 H   0  0  0  0  0  0  0  0  0  0  0  0
    4.0934   -2.5815   -0.5916 H   0  0  0  0  0  0  0  0  0  0  0  0
    2.0365   -1.8276   -1.7142 H   0  0  0  0  0  0  0  0  0  0  0  0
    0.1476   -0.9438    0.9944 H   0  0  0  0  0  0  0  0  0  0  0  0
   -4.5271   -0.8415    0.8618 H   0  0  0  0  0  0  0  0  0  0  0  0
   -4.4290    2.2258   -1.5217 H   0  0  0  0  0  0  0  0  0  0  0  0
   -6.6384    2.4892   -2.9267 H   0  0  0  0  0  0  0  0  0  0  0  0
   -8.2182    0.4025   -2.6194 H   0  0  0  0  0  0  0  0  0  0  0  0
    2.0770    1.7949    0.5713 H   0  0  0  0  0  0  0  0  0  0  0  0
    4.3438    0.8400    2.9955 H   0  0  0  0  0  0  0  0  0  0  0  0
    5.3449    1.5922    1.7189 H   0  0  0  0  0  0  0  0  0  0  0  0
    3.7626    2.2624    2.1243 H   0  0  0  0  0  0  0  0  0  0  0  0
  1  2  1  0
  2  3  2  0
  3  4  1  0
  4  5  2  0
  5  6  1  0
  6  7  2  3
  7  8  1  0
  8  9  1  0
  9 10  2  0
  9 11  1  0
 11 12  2  3
 12 13  1  0
 13 14  2  0
 14 15  1  0
 15 16  2  0
 16 17  1  0
 11 18  1  0
  5 19  1  0
 19 20  2  0
 20 21  1  0
 20  2  1  0
 18  7  1  0
 17 13  1  0
  1 22  1  0
  1 23  1  0
  1 24  1  0
  3 25  1  0
  4 26  1  0
  8 27  1  0
 12 28  1  0
 14 29  1  0
 15 30  1  0
 16 31  1  0
 19 32  1  0
 21 33  1  0
 21 34  1  0
 21 35  1  0
M  END
$$$$
