
     RDKit          3D

 57 61  0  0  0  0  0  0  0  0999 V2000
    8.3096    2.8829   -1.0160 C   0  0  0  0  0  0  0  0  0  0  0  0
    7.5787    2.6252    0.1749 O   0  0  0  0  0  0  0  0  0  0  0  0
    6.7079    1.5722    0.1506 C   0  0  0  0  0  0  0  0  0  0  0  0
    6.4640    0.7318   -0.9344 C   0  0  0  0  0  0  0  0  0  0  0  0
    5.5364   -0.3106   -0.8225 C   0  0  0  0  0  0  0  0  0  0  0  0
    4.8476   -0.5302    0.3776 C   0  0  0  0  0  0  0  0  0  0  0  0
    3.8210   -1.6241    0.4866 C   0  0  0  0  0  0  0  0  0  0  0  0
    2.4923   -1.0945    0.2816 N   0  0  0  0  0  0  0  0  0  0  0  0
    1.3905   -1.9038    0.4094 C   0  0  0  0  0  0  0  0  0  0  0  0
    1.4676   -3.0893    0.7215 O   0  0  0  0  0  0  0  0  0  0  0  0
    0.0753   -1.2892    0.0683 C   0  0  0  0  0  0  0  0  0  0  0  0
   -0.1546    0.0269    0.2166 C   0  0  0  0  0  0  0  0  0  0  0  0
   -1.4194    0.6541   -0.1371 C   0  0  0  0  0  0  0  0  0  0  0  0
   -1.5676    2.1296    0.0141 C   0  0  0  0  0  0  0  0  0  0  0  0
   -0.6169    2.7982    0.4265 O   0  0  0  0  0  0  0  0  0  0  0  0
   -2.7956    2.6574   -0.3391 N   0  0  0  0  0  0  0  0  0  0  0  0
   -3.0168    4.0246   -0.2128 C   0  0  0  0  0  0  0  0  0  0  0  0
   -4.1830    4.5844   -0.5569 C   0  0  0  0  0  0  0  0  0  0  0  0
   -5.2453    3.7642   -1.0742 C   0  0  0  0  0  0  0  0  0  0  0  0
   -5.0760    2.4438   -1.2116 C   0  0  0  0  0  0  0  0  0  0  0  0
   -3.7788    1.8175   -0.8272 C   0  0  0  0  0  0  0  0  0  0  0  0
   -3.6430    0.5388   -0.9718 N   0  0  0  0  0  0  0  0  0  0  0  0
   -2.4604   -0.0674   -0.6101 C   0  0  0  0  0  0  0  0  0  0  0  0
   -2.3076   -1.4698   -0.7314 N   0  0  0  0  0  0  0  0  0  0  0  0
   -3.4638   -2.2927   -1.1266 C   0  0  0  0  0  0  0  0  0  0  0  0
   -4.3599   -2.6027    0.0472 C   0  0  0  0  0  0  0  0  0  0  0  0
   -4.0613   -3.6261    0.9518 C   0  0  0  0  0  0  0  0  0  0  0  0
   -4.9121   -3.8727    2.0252 C   0  0  0  0  0  0  0  0  0  0  0  0
   -6.0413   -3.0833    2.1608 C   0  0  0  0  0  0  0  0  0  0  0  0
   -6.3674   -2.0853    1.3116 N   0  0  0  0  0  0  0  0  0  0  0  0
   -5.5177   -1.8676    0.2802 C   0  0  0  0  0  0  0  0  0  0  0  0
   -1.1037   -2.1108   -0.4025 C   0  0  0  0  0  0  0  0  0  0  0  0
   -0.9987   -3.4073   -0.5073 N   0  0  0  0  0  0  0  0  0  0  0  0
    5.0920    0.3209    1.4609 C   0  0  0  0  0  0  0  0  0  0  0  0
    6.0175    1.3601    1.3454 C   0  0  0  0  0  0  0  0  0  0  0  0
    7.6389    3.1369   -1.8440 H   0  0  0  0  0  0  0  0  0  0  0  0
    8.9548    2.0364   -1.2738 H   0  0  0  0  0  0  0  0  0  0  0  0
    8.9539    3.7483   -0.8330 H   0  0  0  0  0  0  0  0  0  0  0  0
    6.9756    0.8602   -1.8820 H   0  0  0  0  0  0  0  0  0  0  0  0
    5.3558   -0.9514   -1.6833 H   0  0  0  0  0  0  0  0  0  0  0  0
    3.8686   -2.1030    1.4720 H   0  0  0  0  0  0  0  0  0  0  0  0
    4.0004   -2.4077   -0.2590 H   0  0  0  0  0  0  0  0  0  0  0  0
    2.4187   -0.1961   -0.1764 H   0  0  0  0  0  0  0  0  0  0  0  0
    0.6085    0.6894    0.6167 H   0  0  0  0  0  0  0  0  0  0  0  0
   -2.1996    4.6246    0.1801 H   0  0  0  0  0  0  0  0  0  0  0  0
   -4.3478    5.6520   -0.4540 H   0  0  0  0  0  0  0  0  0  0  0  0
   -6.1824    4.2393   -1.3464 H   0  0  0  0  0  0  0  0  0  0  0  0
   -5.8524    1.7925   -1.5943 H   0  0  0  0  0  0  0  0  0  0  0  0
   -3.1531   -3.2331   -1.5994 H   0  0  0  0  0  0  0  0  0  0  0  0
   -4.0412   -1.7892   -1.9137 H   0  0  0  0  0  0  0  0  0  0  0  0
   -3.1655   -4.2301    0.8236 H   0  0  0  0  0  0  0  0  0  0  0  0
   -4.6966   -4.6615    2.7375 H   0  0  0  0  0  0  0  0  0  0  0  0
   -6.7344   -3.2376    2.9828 H   0  0  0  0  0  0  0  0  0  0  0  0
   -5.8080   -1.0526   -0.3772 H   0  0  0  0  0  0  0  0  0  0  0  0
   -0.0654   -3.7211   -0.1866 H   0  0  0  0  0  0  0  0  0  0  0  0
    4.5616    0.1835    2.4009 H   0  0  0  0  0  0  0  0  0  0  0  0
    6.2003    2.0150    2.1941 H   0  0  0  0  0  0  0  0  0  0  0  0
  1  2  1  0
  2  3  1  0
  3  4  2  0
  4  5  1  0
  5  6  2  0
  6  7  1  0
  7  8  1  0
  8  9  1  0
  9 10  2  0
  9 11  1  0
 11 12  2  0
 12 13  1  0
 13 14  1  0
 14 15  2  0
 14 16  1  0
 16 17  1  0
 17 18  2  0
 18 19  1  0
 19 20  2  0
 20 21  1  0
 21 22  2  0
 22 23  1  0
 23 24  1  0
 24 25  1  0
 25 26  1  0
 26 27  2  0
 27 28  1  0
 28 29  2  0
 29 30  1  0
 30 31  2  0
 24 32  1  0
 32 33  2  3
  6 34  1  0
 34 35  2  0
 35  3  1  0
 32 11  1  0
 23 13  2  0
 31 26  1  0
 21 16  1  0
  1 36  1  0
  1 37  1  0
  1 38  1  0
  4 39  1  0
  5 40  1  0
  7 41  1  0
  7 42  1  0
  8 43  1  0
 12 44  1  0
 17 45  1  0
 18 46  1  0
 19 47  1  0
 20 48  1  0
 25 49  1  0
 25 50  1  0
 27 51  1  0
 28 52  1  0
 29 53  1  0
 31 54  1  0
 33 55  1  0
 34 56  1  0
 35 57  1  0
M  END
$$$$
