
     RDKit          3D

 50 51  0  0  0  0  0  0  0  0999 V2000
    6.1589    2.7597   -1.6481 C   0  0  0  0  0  0  0  0  0  0  0  0
    5.2643    1.6367   -1.2114 C   0  0  0  0  0  0  0  0  0  0  0  0
    5.2603    0.4224   -1.9079 C   0  0  0  0  0  0  0  0  0  0  0  0
    4.4493   -0.6335   -1.4855 C   0  0  0  0  0  0  0  0  0  0  0  0
    3.6358   -0.4891   -0.3564 C   0  0  0  0  0  0  0  0  0  0  0  0
    2.7828   -1.5912    0.0852 C   0  0  0  0  0  0  0  0  0  0  0  0
    3.2240   -2.5451    0.9150 C   0  0  0  0  0  0  0  0  0  0  0  0
    1.9865   -3.6976    1.2852 S   0  0  0  0  0  0  0  0  0  0  0  0
    0.8066   -2.8266    0.2857 C   0  0  0  0  0  0  0  0  0  0  0  0
   -0.7881   -3.2862    0.1487 S   0  0  0  0  0  0  0  0  0  0  0  0
    1.4529   -1.7345   -0.2995 N   0  0  0  0  0  0  0  0  0  0  0  0
    0.7832   -0.7641   -1.1793 C   0  0  0  0  0  0  0  0  0  0  0  0
    0.1203    0.4050   -0.4570 C   0  0  0  0  0  0  0  0  0  0  0  0
   -0.3922    1.3490   -1.0457 O   0  0  0  0  0  0  0  0  0  0  0  0
    0.1246    0.2542    0.8971 O   0  0  0  0  0  0  0  0  0  0  0  0
   -0.4693    1.3302    1.6252 C   0  0  0  0  0  0  0  0  0  0  0  0
   -1.9993    1.3357    1.6376 C   0  0  0  0  0  0  0  0  0  0  0  0
   -2.6435    2.3630    1.8325 O   0  0  0  0  0  0  0  0  0  0  0  0
   -2.5765    0.0899    1.4893 N   0  0  0  0  0  0  0  0  0  0  0  0
   -4.0216   -0.0805    1.3679 C   0  0  0  0  0  0  0  0  0  0  0  0
   -4.4099   -1.4826    1.8365 C   0  0  0  0  0  0  0  0  0  0  0  0
   -4.5054    0.2746   -0.0635 C   0  0  0  0  0  0  0  0  0  0  0  0
   -3.9675   -0.6703   -1.1419 C   0  0  0  0  0  0  0  0  0  0  0  0
   -6.0332    0.3394   -0.1454 C   0  0  0  0  0  0  0  0  0  0  0  0
    3.6570    0.7148    0.3563 C   0  0  0  0  0  0  0  0  0  0  0  0
    4.4676    1.7700   -0.0682 C   0  0  0  0  0  0  0  0  0  0  0  0
    5.7210    3.7300   -1.3914 H   0  0  0  0  0  0  0  0  0  0  0  0
    7.1348    2.6714   -1.1610 H   0  0  0  0  0  0  0  0  0  0  0  0
    6.3020    2.7453   -2.7337 H   0  0  0  0  0  0  0  0  0  0  0  0
    5.8891    0.2921   -2.7864 H   0  0  0  0  0  0  0  0  0  0  0  0
    4.4566   -1.5663   -2.0455 H   0  0  0  0  0  0  0  0  0  0  0  0
    4.2215   -2.6100    1.3294 H   0  0  0  0  0  0  0  0  0  0  0  0
    1.5025   -0.3643   -1.9005 H   0  0  0  0  0  0  0  0  0  0  0  0
    0.0020   -1.2780   -1.7481 H   0  0  0  0  0  0  0  0  0  0  0  0
   -0.1364    1.2399    2.6646 H   0  0  0  0  0  0  0  0  0  0  0  0
   -0.1057    2.2929    1.2468 H   0  0  0  0  0  0  0  0  0  0  0  0
   -1.9786   -0.6816    1.2153 H   0  0  0  0  0  0  0  0  0  0  0  0
   -4.4812    0.6361    2.0614 H   0  0  0  0  0  0  0  0  0  0  0  0
   -3.9553   -2.2610    1.2165 H   0  0  0  0  0  0  0  0  0  0  0  0
   -5.4943   -1.6242    1.8284 H   0  0  0  0  0  0  0  0  0  0  0  0
   -4.0642   -1.6493    2.8632 H   0  0  0  0  0  0  0  0  0  0  0  0
   -4.1322    1.2791   -0.3049 H   0  0  0  0  0  0  0  0  0  0  0  0
   -4.3450   -1.6897   -1.0155 H   0  0  0  0  0  0  0  0  0  0  0  0
   -4.2733   -0.3277   -2.1366 H   0  0  0  0  0  0  0  0  0  0  0  0
   -2.8741   -0.7036   -1.1312 H   0  0  0  0  0  0  0  0  0  0  0  0
   -6.4372    1.0099    0.6203 H   0  0  0  0  0  0  0  0  0  0  0  0
   -6.4908   -0.6462   -0.0152 H   0  0  0  0  0  0  0  0  0  0  0  0
   -6.3487    0.7231   -1.1218 H   0  0  0  0  0  0  0  0  0  0  0  0
    3.0461    0.8404    1.2477 H   0  0  0  0  0  0  0  0  0  0  0  0
    4.4741    2.6984    0.4994 H   0  0  0  0  0  0  0  0  0  0  0  0
  1  2  1  0
  2  3  2  0
  3  4  1  0
  4  5  2  0
  5  6  1  0
  6  7  2  0
  7  8  1  0
  8  9  1  0
  9 10  2  0
  9 11  1  0
 11 12  1  0
 12 13  1  0
 13 14  2  0
 13 15  1  0
 15 16  1  0
 16 17  1  0
 17 18  2  0
 17 19  1  0
 19 20  1  0
 20 21  1  0
 20 22  1  0
 22 23  1  0
 22 24  1  0
  5 25  1  0
 25 26  2  0
 26  2  1  0
 11  6  1  0
  1 27  1  0
  1 28  1  0
  1 29  1  0
  3 30  1  0
  4 31  1  0
  7 32  1  0
 12 33  1  0
 12 34  1  0
 16 35  1  0
 16 36  1  0
 19 37  1  0
 20 38  1  0
 21 39  1  0
 21 40  1  0
 21 41  1  0
 22 42  1  0
 23 43  1  0
 23 44  1  0
 23 45  1  0
 24 46  1  0
 24 47  1  0
 24 48  1  0
 25 49  1  0
 26 50  1  0
M  END
$$$$
