
     RDKit          3D

 66 72  0  0  0  0  0  0  0  0999 V2000
    1.2808   -0.9489    1.8424 O   0  0  0  0  0  0  0  0  0  0  0  0
    1.3436   -0.7618    0.6326 C   0  0  0  0  0  0  0  0  0  0  0  0
    2.3962   -1.1250   -0.2198 N   0  0  0  0  0  0  0  0  0  0  0  0
    3.5904   -1.7975    0.2323 C   0  0  0  0  0  0  0  0  0  0  0  0
    4.7294   -0.8482    0.5273 C   0  0  0  0  0  0  0  0  0  0  0  0
    4.6538    0.0416    1.6113 C   0  0  0  0  0  0  0  0  0  0  0  0
    5.7033    0.9202    1.8851 C   0  0  0  0  0  0  0  0  0  0  0  0
    6.8406    0.9196    1.0799 C   0  0  0  0  0  0  0  0  0  0  0  0
    6.9293    0.0406    0.0039 C   0  0  0  0  0  0  0  0  0  0  0  0
    5.8812   -0.8408   -0.2704 C   0  0  0  0  0  0  0  0  0  0  0  0
    2.1647   -0.6688   -1.5281 C   0  0  0  0  0  0  0  0  0  0  0  0
    2.9701   -0.8022   -2.6448 C   0  0  0  0  0  0  0  0  0  0  0  0
    2.5264   -0.2424   -3.8463 C   0  0  0  0  0  0  0  0  0  0  0  0
    1.3014    0.4406   -3.9137 C   0  0  0  0  0  0  0  0  0  0  0  0
    0.4961    0.5696   -2.7809 C   0  0  0  0  0  0  0  0  0  0  0  0
    0.9345   -0.0003   -1.5929 C   0  0  0  0  0  0  0  0  0  0  0  0
    0.2936   -0.0306   -0.2380 C   0  0  0  0  0  0  0  0  0  0  0  0
   -0.0557    1.3196    0.3248 N   0  0  0  0  0  0  0  0  0  0  0  0
   -1.5585    1.4909    0.3259 C   0  0  2  0  0  0  0  0  0  0  0  0
   -2.1064    2.0078    1.6698 C   0  0  0  0  0  0  0  0  0  0  0  0
   -1.6627    3.4126    2.0073 C   0  0  0  0  0  0  0  0  0  0  0  0
   -2.2230    4.5113    1.3421 C   0  0  0  0  0  0  0  0  0  0  0  0
   -1.8107    5.8093    1.6479 C   0  0  0  0  0  0  0  0  0  0  0  0
   -0.8365    6.0215    2.6217 C   0  0  0  0  0  0  0  0  0  0  0  0
   -0.2730    4.9362    3.2892 C   0  0  0  0  0  0  0  0  0  0  0  0
   -0.6833    3.6370    2.9843 C   0  0  0  0  0  0  0  0  0  0  0  0
   -2.0424    0.1321   -0.0027 C   0  0  0  0  0  0  0  0  0  0  0  0
   -0.9978   -0.7227   -0.3358 C   0  0  0  0  0  0  0  0  0  0  0  0
   -1.5069   -1.9670   -0.5937 C   0  0  0  0  0  0  0  0  0  0  0  0
   -0.8403   -3.0964   -0.8260 O   0  0  0  0  0  0  0  0  0  0  0  0
   -2.9064   -1.8641   -0.4914 N   0  0  0  0  0  0  0  0  0  0  0  0
   -3.8381   -2.9186   -0.7147 C   0  0  0  0  0  0  0  0  0  0  0  0
   -3.6341   -3.8238   -1.7650 C   0  0  0  0  0  0  0  0  0  0  0  0
   -4.5513   -4.8533   -1.9831 C   0  0  0  0  0  0  0  0  0  0  0  0
   -5.6656   -4.9845   -1.1555 C   0  0  0  0  0  0  0  0  0  0  0  0
   -5.8689   -4.0871   -0.1084 C   0  0  0  0  0  0  0  0  0  0  0  0
   -4.9596   -3.0522    0.1144 C   0  0  0  0  0  0  0  0  0  0  0  0
   -3.2260   -0.5405   -0.1343 C   0  0  0  0  0  0  0  0  0  0  0  0
   -4.4617   -0.0550   -0.0277 O   0  0  0  0  0  0  0  0  0  0  0  0
    3.3620   -2.3540    1.1513 H   0  0  0  0  0  0  0  0  0  0  0  0
    3.8806   -2.5484   -0.5132 H   0  0  0  0  0  0  0  0  0  0  0  0
    3.7718    0.0540    2.2513 H   0  0  0  0  0  0  0  0  0  0  0  0
    5.6304    1.6049    2.7253 H   0  0  0  0  0  0  0  0  0  0  0  0
    7.6573    1.6057    1.2904 H   0  0  0  0  0  0  0  0  0  0  0  0
    7.8165    0.0429   -0.6230 H   0  0  0  0  0  0  0  0  0  0  0  0
    5.9715   -1.5205   -1.1127 H   0  0  0  0  0  0  0  0  0  0  0  0
    3.9212   -1.3181   -2.6114 H   0  0  0  0  0  0  0  0  0  0  0  0
    3.1401   -0.3305   -4.7396 H   0  0  0  0  0  0  0  0  0  0  0  0
    0.9799    0.8757   -4.8571 H   0  0  0  0  0  0  0  0  0  0  0  0
   -0.4485    1.1028   -2.8262 H   0  0  0  0  0  0  0  0  0  0  0  0
    0.2381    1.2919    1.3022 H   0  0  0  0  0  0  0  0  0  0  0  0
   -1.8163    2.1784   -0.4888 H   0  0  0  0  0  0  0  0  0  0  0  0
   -1.8241    1.3255    2.4837 H   0  0  0  0  0  0  0  0  0  0  0  0
   -3.2051    1.9929    1.6567 H   0  0  0  0  0  0  0  0  0  0  0  0
   -2.9850    4.3610    0.5808 H   0  0  0  0  0  0  0  0  0  0  0  0
   -2.2505    6.6538    1.1246 H   0  0  0  0  0  0  0  0  0  0  0  0
   -0.5132    7.0310    2.8625 H   0  0  0  0  0  0  0  0  0  0  0  0
    0.4878    5.1042    4.0467 H   0  0  0  0  0  0  0  0  0  0  0  0
   -0.2323    2.8005    3.5132 H   0  0  0  0  0  0  0  0  0  0  0  0
   -1.4087   -3.8525   -0.5934 H   0  0  0  0  0  0  0  0  0  0  0  0
   -2.7955   -3.7173   -2.4510 H   0  0  0  0  0  0  0  0  0  0  0  0
   -4.4016   -5.5483   -2.8063 H   0  0  0  0  0  0  0  0  0  0  0  0
   -6.3787   -5.7878   -1.3244 H   0  0  0  0  0  0  0  0  0  0  0  0
   -6.7327   -4.2008    0.5423 H   0  0  0  0  0  0  0  0  0  0  0  0
   -5.1196   -2.3932    0.9662 H   0  0  0  0  0  0  0  0  0  0  0  0
   -5.0722   -0.6328   -0.5187 H   0  0  0  0  0  0  0  0  0  0  0  0
  1  2  2  0
  2  3  1  0
  3  4  1  0
  4  5  1  0
  5  6  2  0
  6  7  1  0
  7  8  2  0
  8  9  1  0
  9 10  2  0
  3 11  1  0
 11 12  2  0
 12 13  1  0
 13 14  2  0
 14 15  1  0
 15 16  2  0
 16 17  1  0
 17 18  1  0
 18 19  1  0
 19 20  1  0
 20 21  1  0
 21 22  2  0
 22 23  1  0
 23 24  2  0
 24 25  1  0
 25 26  2  0
 19 27  1  0
 27 28  1  0
 28 29  2  0
 29 30  1  0
 29 31  1  0
 31 32  1  0
 32 33  2  0
 33 34  1  0
 34 35  2  0
 35 36  1  0
 36 37  2  0
 31 38  1  0
 38 39  1  0
 17  2  1  0
 26 21  1  0
 38 27  2  0
 10  5  1  0
 16 11  1  0
 28 17  1  0
 37 32  1  0
  4 40  1  0
  4 41  1  0
  6 42  1  0
  7 43  1  0
  8 44  1  0
  9 45  1  0
 10 46  1  0
 12 47  1  0
 13 48  1  0
 14 49  1  0
 15 50  1  0
 18 51  1  0
 19 52  1  6
 20 53  1  0
 20 54  1  0
 22 55  1  0
 23 56  1  0
 24 57  1  0
 25 58  1  0
 26 59  1  0
 30 60  1  0
 33 61  1  0
 34 62  1  0
 35 63  1  0
 36 64  1  0
 37 65  1  0
 39 66  1  0
M  END
$$$$
