
     RDKit          3D

 51 54  0  0  0  0  0  0  0  0999 V2000
    1.1720    3.2305    0.5204 O   0  0  0  0  0  0  0  0  0  0  0  0
    1.4810    2.0916    0.8795 C   0  0  0  0  0  0  0  0  0  0  0  0
    0.4432    1.1629    1.5172 C   0  0  0  0  0  0  0  0  0  0  0  0
   -0.0092    0.1116    0.5790 N   0  0  0  0  0  0  0  0  0  0  0  0
   -0.8916   -0.8663    1.2512 C   0  0  0  0  0  0  0  0  0  0  0  0
   -2.3984   -0.5899    1.0575 C   0  0  0  0  0  0  0  0  0  0  0  0
   -2.8146   -0.6314   -0.3586 N   0  0  0  0  0  0  0  0  0  0  0  0
   -4.0322    0.1533   -0.6096 C   0  0  0  0  0  0  0  0  0  0  0  0
   -5.2527   -0.3733    0.1188 C   0  0  0  0  0  0  0  0  0  0  0  0
   -5.7231    0.3167    1.2524 C   0  0  0  0  0  0  0  0  0  0  0  0
   -6.8344   -0.1414    1.9627 C   0  0  0  0  0  0  0  0  0  0  0  0
   -7.4947   -1.2959    1.5529 C   0  0  0  0  0  0  0  0  0  0  0  0
   -7.0446   -1.9913    0.4316 C   0  0  0  0  0  0  0  0  0  0  0  0
   -5.9318   -1.5354   -0.2839 C   0  0  0  0  0  0  0  0  0  0  0  0
   -5.4517   -2.4473   -1.6711 Cl  0  0  0  0  0  0  0  0  0  0  0  0
   -1.7112   -0.2410   -1.2593 C   0  0  0  0  0  0  0  0  0  0  0  0
   -0.6756    0.7019   -0.6070 C   0  0  0  0  0  0  0  0  0  0  0  0
    2.7319    1.5141    0.7836 N   0  0  0  0  0  0  0  0  0  0  0  0
    3.4716    2.1348   -0.0075 N   0  0  0  0  0  0  0  0  0  0  0  0
    4.7436    1.5598   -0.1165 C   0  0  0  0  0  0  0  0  0  0  0  0
    5.9078    2.2908   -0.0911 C   0  0  0  0  0  0  0  0  0  0  0  0
    6.1520    3.5890    0.0383 O   0  0  0  0  0  0  0  0  0  0  0  0
    6.9432    1.4070   -0.2307 N   0  0  0  0  0  0  0  0  0  0  0  0
    6.4651    0.1229   -0.3819 C   0  0  0  0  0  0  0  0  0  0  0  0
    7.1571   -1.0789   -0.5724 C   0  0  0  0  0  0  0  0  0  0  0  0
    6.4009   -2.2470   -0.7086 C   0  0  0  0  0  0  0  0  0  0  0  0
    5.0093   -2.2136   -0.6565 C   0  0  0  0  0  0  0  0  0  0  0  0
    4.3310   -1.0044   -0.4645 C   0  0  0  0  0  0  0  0  0  0  0  0
    5.0688    0.1891   -0.3188 C   0  0  0  0  0  0  0  0  0  0  0  0
   -0.3963    1.7691    1.8793 H   0  0  0  0  0  0  0  0  0  0  0  0
    0.9178    0.7108    2.3971 H   0  0  0  0  0  0  0  0  0  0  0  0
   -0.6628   -1.8587    0.8412 H   0  0  0  0  0  0  0  0  0  0  0  0
   -0.6652   -0.9367    2.3223 H   0  0  0  0  0  0  0  0  0  0  0  0
   -2.6198    0.3881    1.5052 H   0  0  0  0  0  0  0  0  0  0  0  0
   -2.9666   -1.3417    1.6177 H   0  0  0  0  0  0  0  0  0  0  0  0
   -3.8663    1.2081   -0.3497 H   0  0  0  0  0  0  0  0  0  0  0  0
   -4.2701    0.1593   -1.6821 H   0  0  0  0  0  0  0  0  0  0  0  0
   -5.2200    1.2195    1.5921 H   0  0  0  0  0  0  0  0  0  0  0  0
   -7.1836    0.4038    2.8361 H   0  0  0  0  0  0  0  0  0  0  0  0
   -8.3597   -1.6553    2.1038 H   0  0  0  0  0  0  0  0  0  0  0  0
   -7.5666   -2.8917    0.1168 H   0  0  0  0  0  0  0  0  0  0  0  0
   -2.0860    0.2105   -2.1859 H   0  0  0  0  0  0  0  0  0  0  0  0
   -1.1979   -1.1597   -1.5722 H   0  0  0  0  0  0  0  0  0  0  0  0
   -1.1920    1.6354   -0.3450 H   0  0  0  0  0  0  0  0  0  0  0  0
    0.0908    0.9532   -1.3491 H   0  0  0  0  0  0  0  0  0  0  0  0
    5.2815    4.0245    0.1214 H   0  0  0  0  0  0  0  0  0  0  0  0
    7.9169    1.6731   -0.2418 H   0  0  0  0  0  0  0  0  0  0  0  0
    8.2410   -1.1101   -0.6180 H   0  0  0  0  0  0  0  0  0  0  0  0
    6.9072   -3.1966   -0.8642 H   0  0  0  0  0  0  0  0  0  0  0  0
    4.4406   -3.1339   -0.7703 H   0  0  0  0  0  0  0  0  0  0  0  0
    3.2446   -0.9896   -0.4304 H   0  0  0  0  0  0  0  0  0  0  0  0
  1  2  2  0
  2  3  1  0
  3  4  1  0
  4  5  1  0
  5  6  1  0
  6  7  1  0
  7  8  1  0
  8  9  1  0
  9 10  2  0
 10 11  1  0
 11 12  2  0
 12 13  1  0
 13 14  2  0
 14 15  1  0
  7 16  1  0
 16 17  1  0
  2 18  1  0
 18 19  2  3
 19 20  1  0
 20 21  2  0
 21 22  1  0
 21 23  1  0
 23 24  1  0
 24 25  2  0
 25 26  1  0
 26 27  2  0
 27 28  1  0
 28 29  2  0
 17  4  1  0
 29 20  1  0
 14  9  1  0
 29 24  1  0
  3 30  1  0
  3 31  1  0
  5 32  1  0
  5 33  1  0
  6 34  1  0
  6 35  1  0
  8 36  1  0
  8 37  1  0
 10 38  1  0
 11 39  1  0
 12 40  1  0
 13 41  1  0
 16 42  1  0
 16 43  1  0
 17 44  1  0
 17 45  1  0
 22 46  1  0
 23 47  1  0
 25 48  1  0
 26 49  1  0
 27 50  1  0
 28 51  1  0
M  END
$$$$
