
     RDKit          3D

 36 37  0  0  0  0  0  0  0  0999 V2000
    5.5733   -0.2037   -1.6146 C   0  0  0  0  0  0  0  0  0  0  0  0
    4.4251   -0.5232   -2.3904 O   0  0  0  0  0  0  0  0  0  0  0  0
    3.2204   -0.5350   -1.7421 C   0  0  0  0  0  0  0  0  0  0  0  0
    2.1433   -0.9380   -2.5306 C   0  0  0  0  0  0  0  0  0  0  0  0
    0.8549   -0.9918   -1.9980 C   0  0  0  0  0  0  0  0  0  0  0  0
    0.6317   -0.6722   -0.6547 C   0  0  0  0  0  0  0  0  0  0  0  0
   -0.7030   -0.7544   -0.1933 N   0  0  0  0  0  0  0  0  0  0  0  0
   -1.1608   -1.2576    0.9991 C   0  0  0  0  0  0  0  0  0  0  0  0
   -0.3757   -2.3536    1.9993 S   0  0  0  0  0  0  0  0  0  0  0  0
   -2.4595   -0.9541    1.3248 N   0  0  0  0  0  0  0  0  0  0  0  0
   -3.3236    0.0633    0.8713 C   0  0  0  0  0  0  0  0  0  0  0  0
   -2.9053    1.1876    0.1555 C   0  0  0  0  0  0  0  0  0  0  0  0
   -3.8302    2.1571   -0.2459 C   0  0  0  0  0  0  0  0  0  0  0  0
   -5.1779    2.0173    0.0761 C   0  0  0  0  0  0  0  0  0  0  0  0
   -5.6009    0.9144    0.8125 C   0  0  0  0  0  0  0  0  0  0  0  0
   -4.6763   -0.0527    1.2151 C   0  0  0  0  0  0  0  0  0  0  0  0
    1.7056   -0.2180    0.1351 C   0  0  0  0  0  0  0  0  0  0  0  0
    1.4085    0.2845    1.3786 O   0  0  0  0  0  0  0  0  0  0  0  0
    2.4504    0.2354    2.3464 C   0  0  0  0  0  0  0  0  0  0  0  0
    2.9965   -0.1597   -0.4153 C   0  0  0  0  0  0  0  0  0  0  0  0
    5.6968   -0.9033   -0.7812 H   0  0  0  0  0  0  0  0  0  0  0  0
    5.5316    0.8314   -1.2603 H   0  0  0  0  0  0  0  0  0  0  0  0
    6.4507   -0.2985   -2.2616 H   0  0  0  0  0  0  0  0  0  0  0  0
    2.3092   -1.2137   -3.5693 H   0  0  0  0  0  0  0  0  0  0  0  0
    0.0387   -1.3181   -2.6366 H   0  0  0  0  0  0  0  0  0  0  0  0
   -1.4143   -0.7913   -0.9131 H   0  0  0  0  0  0  0  0  0  0  0  0
   -2.8195   -1.5409    2.0701 H   0  0  0  0  0  0  0  0  0  0  0  0
   -1.8575    1.3687   -0.0630 H   0  0  0  0  0  0  0  0  0  0  0  0
   -3.4909    3.0311   -0.7966 H   0  0  0  0  0  0  0  0  0  0  0  0
   -5.8938    2.7741   -0.2339 H   0  0  0  0  0  0  0  0  0  0  0  0
   -6.6498    0.8066    1.0767 H   0  0  0  0  0  0  0  0  0  0  0  0
   -5.0316   -0.9058    1.7879 H   0  0  0  0  0  0  0  0  0  0  0  0
    1.9980    0.3816    3.3320 H   0  0  0  0  0  0  0  0  0  0  0  0
    3.1638    1.0496    2.1853 H   0  0  0  0  0  0  0  0  0  0  0  0
    2.9573   -0.7357    2.3516 H   0  0  0  0  0  0  0  0  0  0  0  0
    3.8147    0.2188    0.1830 H   0  0  0  0  0  0  0  0  0  0  0  0
  1  2  1  0
  2  3  1  0
  3  4  2  0
  4  5  1  0
  5  6  2  0
  6  7  1  0
  7  8  1  0
  8  9  2  0
  8 10  1  0
 10 11  1  0
 11 12  2  0
 12 13  1  0
 13 14  2  0
 14 15  1  0
 15 16  2  0
  6 17  1  0
 17 18  1  0
 18 19  1  0
 17 20  2  0
 20  3  1  0
 16 11  1  0
  1 21  1  0
  1 22  1  0
  1 23  1  0
  4 24  1  0
  5 25  1  0
  7 26  1  0
 10 27  1  0
 12 28  1  0
 13 29  1  0
 14 30  1  0
 15 31  1  0
 16 32  1  0
 19 33  1  0
 19 34  1  0
 19 35  1  0
 20 36  1  0
M  END
$$$$
