
     RDKit          3D

 44 46  0  0  0  0  0  0  0  0999 V2000
    0.5082    0.6064   -1.2874 N   0  0  0  0  0  0  0  0  0  0  0  0
    0.3929    0.0131   -0.2956 C   0  0  0  0  0  0  0  0  0  0  0  0
    0.1472   -0.7523    0.8761 C   0  0  0  0  0  0  0  0  0  0  0  0
    0.9426   -0.7632    1.9635 C   0  0  0  0  0  0  0  0  0  0  0  0
    2.1443   -0.0116    2.1010 C   0  0  0  0  0  0  0  0  0  0  0  0
    3.0125    0.0246    3.1851 C   0  0  0  0  0  0  0  0  0  0  0  0
    4.0703    0.9115    2.8692 C   0  0  0  0  0  0  0  0  0  0  0  0
    3.8141    1.3883    1.6028 C   0  0  0  0  0  0  0  0  0  0  0  0
    4.4889    2.3166    0.6977 C   0  0  0  0  0  0  0  0  0  0  0  0
    3.9649    2.6070   -0.5726 C   0  0  0  0  0  0  0  0  0  0  0  0
    4.6142    3.4961   -1.4357 C   0  0  0  0  0  0  0  0  0  0  0  0
    5.7987    4.1057   -1.0344 C   0  0  0  0  0  0  0  0  0  0  0  0
    6.6796    5.3075   -2.1966 Br  0  0  0  0  0  0  0  0  0  0  0  0
    6.3383    3.8342    0.2198 C   0  0  0  0  0  0  0  0  0  0  0  0
    5.6853    2.9440    1.0799 C   0  0  0  0  0  0  0  0  0  0  0  0
    2.6567    0.8316    1.1455 O   0  0  0  0  0  0  0  0  0  0  0  0
   -1.0762   -1.6213    0.9433 C   0  0  0  0  0  0  0  0  0  0  0  0
   -1.3329   -2.2902    1.9420 O   0  0  0  0  0  0  0  0  0  0  0  0
   -1.8907   -1.6201   -0.1697 N   0  0  0  0  0  0  0  0  0  0  0  0
   -3.1633   -2.3377   -0.1903 C   0  0  0  0  0  0  0  0  0  0  0  0
   -3.5604   -2.6883   -1.6345 C   0  0  0  0  0  0  0  0  0  0  0  0
   -4.4544   -1.6194   -2.2531 C   0  0  0  0  0  0  0  0  0  0  0  0
   -5.7601   -1.4494   -1.4735 C   0  0  0  0  0  0  0  0  0  0  0  0
   -5.6372   -1.8058    0.0090 C   0  0  0  0  0  0  0  0  0  0  0  0
   -4.2404   -1.5173    0.5431 C   0  0  0  0  0  0  0  0  0  0  0  0
    0.6732   -1.3832    2.8170 H   0  0  0  0  0  0  0  0  0  0  0  0
    2.8918   -0.5320    4.1050 H   0  0  0  0  0  0  0  0  0  0  0  0
    4.9135    1.1663    3.4950 H   0  0  0  0  0  0  0  0  0  0  0  0
    3.0392    2.1417   -0.9082 H   0  0  0  0  0  0  0  0  0  0  0  0
    4.1839    3.7005   -2.4126 H   0  0  0  0  0  0  0  0  0  0  0  0
    7.2633    4.3069    0.5394 H   0  0  0  0  0  0  0  0  0  0  0  0
    6.1277    2.7494    2.0537 H   0  0  0  0  0  0  0  0  0  0  0  0
   -1.7178   -0.9796   -0.9366 H   0  0  0  0  0  0  0  0  0  0  0  0
   -3.0112   -3.2811    0.3496 H   0  0  0  0  0  0  0  0  0  0  0  0
   -2.6716   -2.8425   -2.2580 H   0  0  0  0  0  0  0  0  0  0  0  0
   -4.1084   -3.6397   -1.6335 H   0  0  0  0  0  0  0  0  0  0  0  0
   -3.9152   -0.6639   -2.2734 H   0  0  0  0  0  0  0  0  0  0  0  0
   -4.6805   -1.8706   -3.2956 H   0  0  0  0  0  0  0  0  0  0  0  0
   -6.5435   -2.0736   -1.9203 H   0  0  0  0  0  0  0  0  0  0  0  0
   -6.0998   -0.4120   -1.5797 H   0  0  0  0  0  0  0  0  0  0  0  0
   -5.8636   -2.8703    0.1489 H   0  0  0  0  0  0  0  0  0  0  0  0
   -6.3866   -1.2500    0.5838 H   0  0  0  0  0  0  0  0  0  0  0  0
   -4.1981   -1.7340    1.6173 H   0  0  0  0  0  0  0  0  0  0  0  0
   -4.0390   -0.4423    0.4416 H   0  0  0  0  0  0  0  0  0  0  0  0
  1  2  3  0
  2  3  1  0
  3  4  2  3
  4  5  1  0
  5  6  2  0
  6  7  1  0
  7  8  2  0
  8  9  1  0
  9 10  2  0
 10 11  1  0
 11 12  2  0
 12 13  1  0
 12 14  1  0
 14 15  2  0
  8 16  1  0
  3 17  1  0
 17 18  2  0
 17 19  1  0
 19 20  1  0
 20 21  1  0
 21 22  1  0
 22 23  1  0
 23 24  1  0
 24 25  1  0
 16  5  1  0
 25 20  1  0
 15  9  1  0
  4 26  1  0
  6 27  1  0
  7 28  1  0
 10 29  1  0
 11 30  1  0
 14 31  1  0
 15 32  1  0
 19 33  1  0
 20 34  1  0
 21 35  1  0
 21 36  1  0
 22 37  1  0
 22 38  1  0
 23 39  1  0
 23 40  1  0
 24 41  1  0
 24 42  1  0
 25 43  1  0
 25 44  1  0
M  END
$$$$
