
     RDKit          3D

 46 49  0  0  0  0  0  0  0  0999 V2000
    5.9267   -0.9348   -0.8095 C   0  0  0  0  0  0  0  0  0  0  0  0
    5.2335   -0.4293    0.3598 N   0  0  0  0  0  0  0  0  0  0  0  0
    5.7415    0.8682    0.8024 C   0  0  0  0  0  0  0  0  0  0  0  0
    4.6682    1.3340    1.7621 C   0  0  0  0  0  0  0  0  0  0  0  0
    3.4007    0.9462    1.0263 C   0  0  0  0  0  0  0  0  0  0  0  0
    3.7549   -0.3700    0.3176 C   0  0  0  0  0  0  0  0  0  0  0  0
    3.0705   -0.5239   -1.0556 C   0  0  0  0  0  0  0  0  0  0  0  0
    1.5406   -0.6153   -0.9735 C   0  0  0  0  0  0  0  0  0  0  0  0
    0.9420    0.7068   -0.8170 N   0  0  0  0  0  0  0  0  0  0  0  0
   -0.4463    0.8459   -0.7506 C   0  0  0  0  0  0  0  0  0  0  0  0
   -0.9896    2.1295   -0.8539 C   0  0  0  0  0  0  0  0  0  0  0  0
   -2.3649    2.3495   -0.7264 C   0  0  0  0  0  0  0  0  0  0  0  0
   -3.2431    1.2907   -0.4642 C   0  0  0  0  0  0  0  0  0  0  0  0
   -4.9625    1.6904   -0.3343 S   0  0  0  0  0  0  0  0  0  0  0  0
   -5.7103    0.1469    0.1085 C   0  0  0  0  0  0  0  0  0  0  0  0
   -7.0939    0.1622    0.3563 C   0  0  0  0  0  0  0  0  0  0  0  0
   -7.7781   -1.0041    0.7043 C   0  0  0  0  0  0  0  0  0  0  0  0
   -7.0872   -2.2048    0.8081 C   0  0  0  0  0  0  0  0  0  0  0  0
   -5.7147   -2.2335    0.5641 C   0  0  0  0  0  0  0  0  0  0  0  0
   -5.0192   -1.0607    0.2148 C   0  0  0  0  0  0  0  0  0  0  0  0
   -3.5618   -1.1707   -0.0276 C   0  0  0  0  0  0  0  0  0  0  0  0
   -3.0364   -2.2825    0.0204 O   0  0  0  0  0  0  0  0  0  0  0  0
   -2.7154    0.0100   -0.3210 C   0  0  0  0  0  0  0  0  0  0  0  0
   -1.3251   -0.1985   -0.4504 C   0  0  0  0  0  0  0  0  0  0  0  0
    7.0045   -0.9903   -0.6184 H   0  0  0  0  0  0  0  0  0  0  0  0
    5.6044   -1.9549   -1.0426 H   0  0  0  0  0  0  0  0  0  0  0  0
    5.7758   -0.3041   -1.6921 H   0  0  0  0  0  0  0  0  0  0  0  0
    6.7141    0.7812    1.2964 H   0  0  0  0  0  0  0  0  0  0  0  0
    5.8297    1.5724   -0.0347 H   0  0  0  0  0  0  0  0  0  0  0  0
    4.7367    0.7981    2.7166 H   0  0  0  0  0  0  0  0  0  0  0  0
    4.7203    2.4079    1.9629 H   0  0  0  0  0  0  0  0  0  0  0  0
    2.5537    0.8379    1.7109 H   0  0  0  0  0  0  0  0  0  0  0  0
    3.1657    1.7356    0.3025 H   0  0  0  0  0  0  0  0  0  0  0  0
    3.4111   -1.1980    0.9517 H   0  0  0  0  0  0  0  0  0  0  0  0
    3.3702    0.2900   -1.7274 H   0  0  0  0  0  0  0  0  0  0  0  0
    3.4121   -1.4600   -1.5140 H   0  0  0  0  0  0  0  0  0  0  0  0
    1.2643   -1.2756   -0.1437 H   0  0  0  0  0  0  0  0  0  0  0  0
    1.1719   -1.0634   -1.9045 H   0  0  0  0  0  0  0  0  0  0  0  0
    1.3578    1.4074   -1.4274 H   0  0  0  0  0  0  0  0  0  0  0  0
   -0.3395    2.9833   -1.0324 H   0  0  0  0  0  0  0  0  0  0  0  0
   -2.7393    3.3668   -0.8273 H   0  0  0  0  0  0  0  0  0  0  0  0
   -7.6566    1.0914    0.2790 H   0  0  0  0  0  0  0  0  0  0  0  0
   -8.8486   -0.9719    0.8923 H   0  0  0  0  0  0  0  0  0  0  0  0
   -7.6112   -3.1184    1.0778 H   0  0  0  0  0  0  0  0  0  0  0  0
   -5.1838   -3.1808    0.6488 H   0  0  0  0  0  0  0  0  0  0  0  0
   -0.9435   -1.2068   -0.3112 H   0  0  0  0  0  0  0  0  0  0  0  0
  1  2  1  0
  2  3  1  0
  3  4  1  0
  4  5  1  0
  5  6  1  0
  6  7  1  0
  7  8  1  0
  8  9  1  0
  9 10  1  0
 10 11  2  0
 11 12  1  0
 12 13  2  0
 13 14  1  0
 14 15  1  0
 15 16  2  0
 16 17  1  0
 17 18  2  0
 18 19  1  0
 19 20  2  0
 20 21  1  0
 21 22  2  0
 21 23  1  0
 23 24  2  0
  6  2  1  0
 24 10  1  0
 23 13  1  0
 20 15  1  0
  1 25  1  0
  1 26  1  0
  1 27  1  0
  3 28  1  0
  3 29  1  0
  4 30  1  0
  4 31  1  0
  5 32  1  0
  5 33  1  0
  6 34  1  0
  7 35  1  0
  7 36  1  0
  8 37  1  0
  8 38  1  0
  9 39  1  0
 11 40  1  0
 12 41  1  0
 16 42  1  0
 17 43  1  0
 18 44  1  0
 19 45  1  0
 24 46  1  0
M  END
$$$$
