
     RDKit          3D

 63 64  0  0  0  0  0  0  0  0999 V2000
   -3.5835   -1.6794   -3.2160 C   0  0  0  0  0  0  0  0  0  0  0  0
   -2.8696   -2.2376   -1.9846 C   0  0  0  0  0  0  0  0  0  0  0  0
   -2.5558   -3.7210   -2.2003 C   0  0  0  0  0  0  0  0  0  0  0  0
   -1.5699   -1.4745   -1.6583 C   0  0  0  0  0  0  0  0  0  0  0  0
   -1.7415    0.0169   -1.3395 C   0  0  0  0  0  0  0  0  0  0  0  0
   -0.4295    0.6366   -1.1565 N   0  0  0  0  0  0  0  0  0  0  0  0
   -0.2439    1.9838   -1.3081 C   0  0  0  0  0  0  0  0  0  0  0  0
   -1.1117    2.6966   -1.8090 O   0  0  0  0  0  0  0  0  0  0  0  0
    1.0116    2.5466   -0.8723 C   0  0  0  0  0  0  0  0  0  0  0  0
    1.3227    3.8524   -1.1972 N   0  0  0  0  0  0  0  0  0  0  0  0
    2.5462    4.1530   -0.6928 C   0  0  0  0  0  0  0  0  0  0  0  0
    3.0461    3.1368   -0.0371 N   0  0  0  0  0  0  0  0  0  0  0  0
    2.0991    2.1159   -0.1116 C   0  0  0  0  0  0  0  0  0  0  0  0
    2.2991    0.7892    0.5056 C   0  0  0  0  0  0  0  0  0  0  0  0
    1.7337   -0.2002    0.0318 O   0  0  0  0  0  0  0  0  0  0  0  0
    3.1309    0.6703    1.6248 N   0  0  0  0  0  0  0  0  0  0  0  0
    3.7881    1.7931    2.2778 C   0  0  0  0  0  0  0  0  0  0  0  0
    3.5340   -0.6662    2.0483 C   0  0  0  0  0  0  0  0  0  0  0  0
    4.9194   -1.0302    1.5676 C   0  0  0  0  0  0  0  0  0  0  0  0
    6.0078   -1.0277    2.4517 C   0  0  0  0  0  0  0  0  0  0  0  0
    7.2877   -1.3530    1.9995 C   0  0  0  0  0  0  0  0  0  0  0  0
    7.4931   -1.6807    0.6609 C   0  0  0  0  0  0  0  0  0  0  0  0
    6.4200   -1.6836   -0.2277 C   0  0  0  0  0  0  0  0  0  0  0  0
    5.1396   -1.3596    0.2224 C   0  0  0  0  0  0  0  0  0  0  0  0
   -2.5400    0.2080   -0.0422 C   0  0  0  0  0  0  0  0  0  0  0  0
   -2.0564    0.1795    1.0820 O   0  0  0  0  0  0  0  0  0  0  0  0
   -3.8587    0.3809   -0.3343 O   0  0  0  0  0  0  0  0  0  0  0  0
   -4.8344    0.5818    0.7189 C   0  0  0  0  0  0  0  0  0  0  0  0
   -6.1718    0.7470   -0.0183 C   0  0  0  0  0  0  0  0  0  0  0  0
   -4.9270   -0.6454    1.6318 C   0  0  0  0  0  0  0  0  0  0  0  0
   -4.5469    1.8641    1.5071 C   0  0  0  0  0  0  0  0  0  0  0  0
   -2.9212   -1.6704   -4.0881 H   0  0  0  0  0  0  0  0  0  0  0  0
   -4.4603   -2.2876   -3.4642 H   0  0  0  0  0  0  0  0  0  0  0  0
   -3.9381   -0.6590   -3.0458 H   0  0  0  0  0  0  0  0  0  0  0  0
   -3.5523   -2.1709   -1.1296 H   0  0  0  0  0  0  0  0  0  0  0  0
   -2.0778   -4.1507   -1.3137 H   0  0  0  0  0  0  0  0  0  0  0  0
   -3.4728   -4.2887   -2.3914 H   0  0  0  0  0  0  0  0  0  0  0  0
   -1.8832   -3.8660   -3.0524 H   0  0  0  0  0  0  0  0  0  0  0  0
   -0.8746   -1.5771   -2.5029 H   0  0  0  0  0  0  0  0  0  0  0  0
   -1.0811   -1.9662   -0.8054 H   0  0  0  0  0  0  0  0  0  0  0  0
   -2.2454    0.5463   -2.1544 H   0  0  0  0  0  0  0  0  0  0  0  0
    0.2551    0.1127   -0.6127 H   0  0  0  0  0  0  0  0  0  0  0  0
    0.7220    4.4617   -1.7374 H   0  0  0  0  0  0  0  0  0  0  0  0
    3.0183    5.1170   -0.8314 H   0  0  0  0  0  0  0  0  0  0  0  0
    4.0546    1.5208    3.3040 H   0  0  0  0  0  0  0  0  0  0  0  0
    4.6956    2.0512    1.7247 H   0  0  0  0  0  0  0  0  0  0  0  0
    3.1171    2.6537    2.3338 H   0  0  0  0  0  0  0  0  0  0  0  0
    3.4794   -0.7067    3.1429 H   0  0  0  0  0  0  0  0  0  0  0  0
    2.8285   -1.4245    1.6893 H   0  0  0  0  0  0  0  0  0  0  0  0
    5.8662   -0.7701    3.4985 H   0  0  0  0  0  0  0  0  0  0  0  0
    8.1257   -1.3482    2.6915 H   0  0  0  0  0  0  0  0  0  0  0  0
    8.4900   -1.9313    0.3091 H   0  0  0  0  0  0  0  0  0  0  0  0
    6.5788   -1.9349   -1.2728 H   0  0  0  0  0  0  0  0  0  0  0  0
    4.3104   -1.3622   -0.4827 H   0  0  0  0  0  0  0  0  0  0  0  0
   -7.0033    0.9039    0.6769 H   0  0  0  0  0  0  0  0  0  0  0  0
   -6.1334    1.5972   -0.7095 H   0  0  0  0  0  0  0  0  0  0  0  0
   -6.3918   -0.1371   -0.6281 H   0  0  0  0  0  0  0  0  0  0  0  0
   -5.7695   -0.5617    2.3272 H   0  0  0  0  0  0  0  0  0  0  0  0
   -4.0210   -0.7796    2.2304 H   0  0  0  0  0  0  0  0  0  0  0  0
   -5.0516   -1.5606    1.0419 H   0  0  0  0  0  0  0  0  0  0  0  0
   -3.6420    1.7759    2.1152 H   0  0  0  0  0  0  0  0  0  0  0  0
   -4.3885    2.7101    0.8294 H   0  0  0  0  0  0  0  0  0  0  0  0
   -5.3724    2.1095    2.1833 H   0  0  0  0  0  0  0  0  0  0  0  0
  1  2  1  0
  2  3  1  0
  2  4  1  0
  4  5  1  0
  5  6  1  0
  6  7  1  0
  7  8  2  0
  7  9  1  0
  9 10  1  0
 10 11  1  0
 11 12  2  0
 12 13  1  0
 13 14  1  0
 14 15  2  0
 14 16  1  0
 16 17  1  0
 16 18  1  0
 18 19  1  0
 19 20  2  0
 20 21  1  0
 21 22  2  0
 22 23  1  0
 23 24  2  0
  5 25  1  0
 25 26  2  0
 25 27  1  0
 27 28  1  0
 28 29  1  0
 28 30  1  0
 28 31  1  0
 13  9  2  0
 24 19  1  0
  1 32  1  0
  1 33  1  0
  1 34  1  0
  2 35  1  0
  3 36  1  0
  3 37  1  0
  3 38  1  0
  4 39  1  0
  4 40  1  0
  5 41  1  0
  6 42  1  0
 10 43  1  0
 11 44  1  0
 17 45  1  0
 17 46  1  0
 17 47  1  0
 18 48  1  0
 18 49  1  0
 20 50  1  0
 21 51  1  0
 22 52  1  0
 23 53  1  0
 24 54  1  0
 29 55  1  0
 29 56  1  0
 29 57  1  0
 30 58  1  0
 30 59  1  0
 30 60  1  0
 31 61  1  0
 31 62  1  0
 31 63  1  0
M  END
$$$$
