
     RDKit          3D

 40 42  0  0  0  0  0  0  0  0999 V2000
   -2.1941   -0.2622    1.7785 O   0  0  0  0  0  0  0  0  0  0  0  0
   -1.6828    0.0399    0.6995 C   0  0  0  0  0  0  0  0  0  0  0  0
   -2.5181    0.3267   -0.5448 C   0  0  0  0  0  0  0  0  0  0  0  0
   -3.9634   -0.1056   -0.4396 C   0  0  0  0  0  0  0  0  0  0  0  0
   -4.3476   -1.3994   -0.8220 C   0  0  0  0  0  0  0  0  0  0  0  0
   -5.6809   -1.8018   -0.7179 C   0  0  0  0  0  0  0  0  0  0  0  0
   -6.6344   -0.9141   -0.2244 C   0  0  0  0  0  0  0  0  0  0  0  0
   -8.4393   -1.4590   -0.0830 Br  0  0  0  0  0  0  0  0  0  0  0  0
   -6.2670    0.3704    0.1698 C   0  0  0  0  0  0  0  0  0  0  0  0
   -4.9336    0.7724    0.0652 C   0  0  0  0  0  0  0  0  0  0  0  0
   -0.3039    0.1505    0.5616 N   0  0  0  0  0  0  0  0  0  0  0  0
    0.3978    0.5758   -0.6551 C   0  0  0  0  0  0  0  0  0  0  0  0
    1.7523    1.2599   -0.3767 C   0  0  0  0  0  0  0  0  0  0  0  0
    2.6097    0.4732    0.5228 N   0  0  0  0  0  0  0  0  0  0  0  0
    3.9357    0.2542    0.1591 C   0  0  0  0  0  0  0  0  0  0  0  0
    4.7080    1.2805   -0.3895 C   0  0  0  0  0  0  0  0  0  0  0  0
    6.0402    1.0509   -0.7341 C   0  0  0  0  0  0  0  0  0  0  0  0
    6.5877   -0.2023   -0.5168 C   0  0  0  0  0  0  0  0  0  0  0  0
    5.7748   -1.1670    0.0443 C   0  0  0  0  0  0  0  0  0  0  0  0
    4.4819   -0.9615    0.3838 N   0  0  0  0  0  0  0  0  0  0  0  0
    1.9673   -0.6159    1.2773 C   0  0  0  0  0  0  0  0  0  0  0  0
    0.5456   -0.2145    1.7020 C   0  0  0  0  0  0  0  0  0  0  0  0
   -2.4795    1.4045   -0.7438 H   0  0  0  0  0  0  0  0  0  0  0  0
   -2.0711   -0.1814   -1.4075 H   0  0  0  0  0  0  0  0  0  0  0  0
   -3.6098   -2.1055   -1.1965 H   0  0  0  0  0  0  0  0  0  0  0  0
   -5.9622   -2.8079   -1.0166 H   0  0  0  0  0  0  0  0  0  0  0  0
   -7.0054    1.0616    0.5666 H   0  0  0  0  0  0  0  0  0  0  0  0
   -4.6546    1.7718    0.3920 H   0  0  0  0  0  0  0  0  0  0  0  0
   -0.2318    1.2537   -1.2381 H   0  0  0  0  0  0  0  0  0  0  0  0
    0.5557   -0.3286   -1.2552 H   0  0  0  0  0  0  0  0  0  0  0  0
    2.2285    1.4524   -1.3456 H   0  0  0  0  0  0  0  0  0  0  0  0
    1.5709    2.2315    0.0986 H   0  0  0  0  0  0  0  0  0  0  0  0
    4.2917    2.2723   -0.5275 H   0  0  0  0  0  0  0  0  0  0  0  0
    6.6416    1.8501   -1.1566 H   0  0  0  0  0  0  0  0  0  0  0  0
    7.6194   -0.4194   -0.7668 H   0  0  0  0  0  0  0  0  0  0  0  0
    6.1494   -2.1660    0.2472 H   0  0  0  0  0  0  0  0  0  0  0  0
    2.5454   -0.8456    2.1809 H   0  0  0  0  0  0  0  0  0  0  0  0
    1.9132   -1.5228    0.6606 H   0  0  0  0  0  0  0  0  0  0  0  0
    0.0811   -1.0334    2.2624 H   0  0  0  0  0  0  0  0  0  0  0  0
    0.5816    0.6619    2.3606 H   0  0  0  0  0  0  0  0  0  0  0  0
  1  2  2  0
  2  3  1  0
  3  4  1  0
  4  5  2  0
  5  6  1  0
  6  7  2  0
  7  8  1  0
  7  9  1  0
  9 10  2  0
  2 11  1  0
 11 12  1  0
 12 13  1  0
 13 14  1  0
 14 15  1  0
 15 16  2  0
 16 17  1  0
 17 18  2  0
 18 19  1  0
 19 20  2  0
 14 21  1  0
 21 22  1  0
 10  4  1  0
 22 11  1  0
 20 15  1  0
  3 23  1  0
  3 24  1  0
  5 25  1  0
  6 26  1  0
  9 27  1  0
 10 28  1  0
 12 29  1  0
 12 30  1  0
 13 31  1  0
 13 32  1  0
 16 33  1  0
 17 34  1  0
 18 35  1  0
 19 36  1  0
 21 37  1  0
 21 38  1  0
 22 39  1  0
 22 40  1  0
M  END
$$$$
