
     RDKit          3D

 40 43  0  0  0  0  0  0  0  0999 V2000
    2.6292    2.2613   -1.4881 O   0  0  0  0  0  0  0  0  0  0  0  0
    2.1587    1.4627   -0.3783 S   0  0  0  0  0  6  0  0  0  0  0  0
    1.6980    2.1036    0.8373 O   0  0  0  0  0  0  0  0  0  0  0  0
    3.4417    0.3566    0.0521 C   0  0  0  0  0  0  0  0  0  0  0  0
    4.0057    0.3529    1.3478 C   0  0  0  0  0  0  0  0  0  0  0  0
    5.0479   -0.5312    1.7267 C   0  0  0  0  0  0  0  0  0  0  0  0
    5.6055   -1.4771    0.8467 C   0  0  0  0  0  0  0  0  0  0  0  0
    5.0500   -1.4836   -0.4477 C   0  0  0  0  0  0  0  0  0  0  0  0
    5.3602   -2.2619   -1.4899 N   0  0  0  0  0  0  0  0  0  0  0  0
    4.5240   -1.8655   -2.5179 O   0  0  0  0  0  0  0  0  0  0  0  0
    3.6759   -0.8474   -2.1256 N   0  0  0  0  0  0  0  0  0  0  0  0
    3.9777   -0.5772   -0.8488 C   0  0  0  0  0  0  0  0  0  0  0  0
    0.8962    0.4555   -0.9131 N   0  0  0  0  0  0  0  0  0  0  0  0
    0.3888   -0.5412    0.0908 C   0  0  0  0  0  0  0  0  0  0  0  0
   -1.0810   -0.9392   -0.1456 C   0  0  0  0  0  0  0  0  0  0  0  0
   -1.9520    0.2454   -0.0927 N   0  0  0  0  0  0  0  0  0  0  0  0
   -3.3252    0.1223    0.1045 C   0  0  0  0  0  0  0  0  0  0  0  0
   -4.0963    1.2455    0.4592 C   0  0  0  0  0  0  0  0  0  0  0  0
   -5.4780    1.1632    0.6804 C   0  0  0  0  0  0  0  0  0  0  0  0
   -6.1349   -0.0555    0.5574 C   0  0  0  0  0  0  0  0  0  0  0  0
   -5.4061   -1.1887    0.2181 C   0  0  0  0  0  0  0  0  0  0  0  0
   -4.0286   -1.0958    0.0010 C   0  0  0  0  0  0  0  0  0  0  0  0
   -3.3938   -2.2281   -0.3453 F   0  0  0  0  0  0  0  0  0  0  0  0
   -1.4002    1.4869   -0.6716 C   0  0  0  0  0  0  0  0  0  0  0  0
   -0.2111    1.1946   -1.6051 C   0  0  0  0  0  0  0  0  0  0  0  0
    3.6357    1.0598    2.0935 H   0  0  0  0  0  0  0  0  0  0  0  0
    5.4364   -0.4727    2.7448 H   0  0  0  0  0  0  0  0  0  0  0  0
    6.4019   -2.1506    1.1380 H   0  0  0  0  0  0  0  0  0  0  0  0
    0.4779   -0.1349    1.1049 H   0  0  0  0  0  0  0  0  0  0  0  0
    1.0147   -1.4379    0.0285 H   0  0  0  0  0  0  0  0  0  0  0  0
   -1.1818   -1.4347   -1.1189 H   0  0  0  0  0  0  0  0  0  0  0  0
   -1.3537   -1.6537    0.6399 H   0  0  0  0  0  0  0  0  0  0  0  0
   -3.6210    2.2136    0.5989 H   0  0  0  0  0  0  0  0  0  0  0  0
   -6.0338    2.0559    0.9571 H   0  0  0  0  0  0  0  0  0  0  0  0
   -7.2056   -0.1223    0.7288 H   0  0  0  0  0  0  0  0  0  0  0  0
   -5.8959   -2.1518    0.1154 H   0  0  0  0  0  0  0  0  0  0  0  0
   -1.0848    2.1468    0.1447 H   0  0  0  0  0  0  0  0  0  0  0  0
   -2.1557    2.0172   -1.2640 H   0  0  0  0  0  0  0  0  0  0  0  0
    0.1511    2.1313   -2.0413 H   0  0  0  0  0  0  0  0  0  0  0  0
   -0.5380    0.5759   -2.4506 H   0  0  0  0  0  0  0  0  0  0  0  0
  1  2  2  0
  2  3  2  0
  2  4  1  0
  4  5  2  0
  5  6  1  0
  6  7  2  0
  7  8  1  0
  8  9  2  0
  9 10  1  0
 10 11  1  0
 11 12  2  0
  2 13  1  0
 13 14  1  0
 14 15  1  0
 15 16  1  0
 16 17  1  0
 17 18  2  0
 18 19  1  0
 19 20  2  0
 20 21  1  0
 21 22  2  0
 22 23  1  0
 16 24  1  0
 24 25  1  0
 12  4  1  0
 25 13  1  0
 12  8  1  0
 22 17  1  0
  5 26  1  0
  6 27  1  0
  7 28  1  0
 14 29  1  0
 14 30  1  0
 15 31  1  0
 15 32  1  0
 18 33  1  0
 19 34  1  0
 20 35  1  0
 21 36  1  0
 24 37  1  0
 24 38  1  0
 25 39  1  0
 25 40  1  0
M  END
$$$$
