
     RDKit          3D

 46 48  0  0  0  0  0  0  0  0999 V2000
   -3.7629    2.0044    1.6208 C   0  0  0  0  0  0  0  0  0  0  0  0
   -4.9297    1.3532    0.9850 C   0  0  0  0  0  0  0  0  0  0  0  0
   -6.1324    1.9402    1.2516 O   0  0  0  0  0  0  0  0  0  0  0  0
   -7.0901    1.1869    0.6597 C   0  0  0  0  0  0  0  0  0  0  0  0
   -6.5212    0.1218    0.0081 C   0  0  0  0  0  0  0  0  0  0  0  0
   -5.1077    0.2335    0.1841 C   0  0  0  0  0  0  0  0  0  0  0  0
   -4.1088   -0.6887   -0.3366 C   0  0  0  0  0  0  0  0  0  0  0  0
   -4.3827   -1.8593   -0.5811 O   0  0  0  0  0  0  0  0  0  0  0  0
   -2.8677   -0.1473   -0.5681 N   0  0  0  0  0  0  0  0  0  0  0  0
   -1.7378   -0.9538   -0.9599 C   0  0  0  0  0  0  0  0  0  0  0  0
   -0.8212   -1.1692    0.2159 C   0  0  0  0  0  0  0  0  0  0  0  0
   -1.0736   -2.2027    1.1274 C   0  0  0  0  0  0  0  0  0  0  0  0
   -0.2415   -2.3921    2.2302 C   0  0  0  0  0  0  0  0  0  0  0  0
    0.8472   -1.5454    2.4395 C   0  0  0  0  0  0  0  0  0  0  0  0
    1.1080   -0.4932    1.5522 C   0  0  0  0  0  0  0  0  0  0  0  0
    2.2899    0.4181    1.7621 C   0  0  0  0  0  0  0  0  0  0  0  0
    3.3820    0.0505    0.8918 N   0  0  0  0  0  0  0  0  0  0  0  0
    3.6080    0.7026   -0.2997 C   0  0  0  0  0  0  0  0  0  0  0  0
    2.9665    1.6901   -0.6458 O   0  0  0  0  0  0  0  0  0  0  0  0
    4.6582    0.1214   -1.1279 C   0  0  0  0  0  0  0  0  0  0  0  0
    5.5605   -0.9558   -0.8653 C   0  0  0  0  0  0  0  0  0  0  0  0
    6.3495   -1.0959   -1.9818 C   0  0  0  0  0  0  0  0  0  0  0  0
    6.0061   -0.1820   -2.9197 O   0  0  0  0  0  0  0  0  0  0  0  0
    4.9851    0.5576   -2.4043 C   0  0  0  0  0  0  0  0  0  0  0  0
    4.4571    1.6290   -3.2783 C   0  0  0  0  0  0  0  0  0  0  0  0
    0.2672   -0.3144    0.4419 C   0  0  0  0  0  0  0  0  0  0  0  0
   -4.0696    2.6083    2.4810 H   0  0  0  0  0  0  0  0  0  0  0  0
   -3.2580    2.6631    0.9079 H   0  0  0  0  0  0  0  0  0  0  0  0
   -3.0460    1.2595    1.9794 H   0  0  0  0  0  0  0  0  0  0  0  0
   -8.1070    1.5269    0.7971 H   0  0  0  0  0  0  0  0  0  0  0  0
   -7.0451   -0.6487   -0.5413 H   0  0  0  0  0  0  0  0  0  0  0  0
   -2.7051    0.8313   -0.3946 H   0  0  0  0  0  0  0  0  0  0  0  0
   -2.0614   -1.9161   -1.3717 H   0  0  0  0  0  0  0  0  0  0  0  0
   -1.2145   -0.4194   -1.7606 H   0  0  0  0  0  0  0  0  0  0  0  0
   -1.9267   -2.8639    0.9798 H   0  0  0  0  0  0  0  0  0  0  0  0
   -0.4457   -3.2004    2.9280 H   0  0  0  0  0  0  0  0  0  0  0  0
    1.4856   -1.7108    3.3044 H   0  0  0  0  0  0  0  0  0  0  0  0
    2.6572    0.3382    2.7912 H   0  0  0  0  0  0  0  0  0  0  0  0
    1.9949    1.4615    1.6042 H   0  0  0  0  0  0  0  0  0  0  0  0
    3.8092   -0.8491    1.0459 H   0  0  0  0  0  0  0  0  0  0  0  0
    5.6403   -1.5592    0.0269 H   0  0  0  0  0  0  0  0  0  0  0  0
    7.1591   -1.7602   -2.2508 H   0  0  0  0  0  0  0  0  0  0  0  0
    3.3890    1.4807   -3.4642 H   0  0  0  0  0  0  0  0  0  0  0  0
    4.5976    2.6083   -2.8109 H   0  0  0  0  0  0  0  0  0  0  0  0
    4.9686    1.6407   -4.2460 H   0  0  0  0  0  0  0  0  0  0  0  0
    0.4697    0.4995   -0.2543 H   0  0  0  0  0  0  0  0  0  0  0  0
  1  2  1  0
  2  3  1  0
  3  4  1  0
  4  5  2  0
  5  6  1  0
  6  7  1  0
  7  8  2  0
  7  9  1  0
  9 10  1  0
 10 11  1  0
 11 12  2  0
 12 13  1  0
 13 14  2  0
 14 15  1  0
 15 16  1  0
 16 17  1  0
 17 18  1  0
 18 19  2  0
 18 20  1  0
 20 21  1  0
 21 22  2  0
 22 23  1  0
 23 24  1  0
 24 25  1  0
 15 26  2  0
  6  2  2  0
 26 11  1  0
 24 20  2  0
  1 27  1  0
  1 28  1  0
  1 29  1  0
  4 30  1  0
  5 31  1  0
  9 32  1  0
 10 33  1  0
 10 34  1  0
 12 35  1  0
 13 36  1  0
 14 37  1  0
 16 38  1  0
 16 39  1  0
 17 40  1  0
 21 41  1  0
 22 42  1  0
 25 43  1  0
 25 44  1  0
 25 45  1  0
 26 46  1  0
M  END
$$$$
