
     RDKit          3D

 39 41  0  0  0  0  0  0  0  0999 V2000
   -0.6266    5.5048   -1.5489 C   0  0  0  0  0  0  0  0  0  0  0  0
   -0.2703    4.1260   -1.0206 C   0  0  0  0  0  0  0  0  0  0  0  0
   -1.6093    2.9520   -1.4087 S   0  0  0  0  0  0  0  0  0  0  0  0
   -0.9374    1.4443   -0.7194 C   0  0  0  0  0  0  0  0  0  0  0  0
   -1.6464    0.2729   -0.8841 C   0  0  0  0  0  0  0  0  0  0  0  0
   -1.1135   -0.8779   -0.3411 C   0  0  0  0  0  0  0  0  0  0  0  0
   -1.7586   -2.0916   -0.4408 N   0  0  0  0  0  0  0  0  0  0  0  0
   -1.1035   -3.2856    0.0863 C   0  0  0  0  0  0  0  0  0  0  0  0
   -2.0489   -4.4064   -0.3328 C   0  0  0  0  0  0  0  0  0  0  0  0
   -2.5299   -3.9379   -1.6966 C   0  0  0  0  0  0  0  0  0  0  0  0
   -2.6706   -2.4237   -1.5312 C   0  0  0  0  0  0  0  0  0  0  0  0
    0.0426   -0.8289    0.3412 N   0  0  0  0  0  0  0  0  0  0  0  0
    0.6806    0.3482    0.4367 C   0  0  0  0  0  0  0  0  0  0  0  0
    1.9286    0.3946    1.2064 C   0  0  0  0  0  0  0  0  0  0  0  0
    2.0903    1.3939    2.1917 C   0  0  0  0  0  0  0  0  0  0  0  0
    3.2489    1.4800    2.9682 C   0  0  0  0  0  0  0  0  0  0  0  0
    4.2805    0.5691    2.7747 C   0  0  0  0  0  0  0  0  0  0  0  0
    4.1543   -0.4198    1.8009 C   0  0  0  0  0  0  0  0  0  0  0  0
    2.9922   -0.5074    1.0198 C   0  0  0  0  0  0  0  0  0  0  0  0
    2.9779   -1.7350   -0.2038 Cl  0  0  0  0  0  0  0  0  0  0  0  0
    0.2263    1.5081   -0.0594 N   0  0  0  0  0  0  0  0  0  0  0  0
   -0.7562    5.4979   -2.6366 H   0  0  0  0  0  0  0  0  0  0  0  0
    0.1772    6.2112   -1.3164 H   0  0  0  0  0  0  0  0  0  0  0  0
   -1.5451    5.8866   -1.0902 H   0  0  0  0  0  0  0  0  0  0  0  0
    0.6621    3.7876   -1.4838 H   0  0  0  0  0  0  0  0  0  0  0  0
   -0.1275    4.1770    0.0636 H   0  0  0  0  0  0  0  0  0  0  0  0
   -2.5928    0.2675   -1.4067 H   0  0  0  0  0  0  0  0  0  0  0  0
   -0.1205   -3.4322   -0.3783 H   0  0  0  0  0  0  0  0  0  0  0  0
   -0.9906   -3.2520    1.1751 H   0  0  0  0  0  0  0  0  0  0  0  0
   -2.8950   -4.4696    0.3620 H   0  0  0  0  0  0  0  0  0  0  0  0
   -1.5554   -5.3815   -0.3672 H   0  0  0  0  0  0  0  0  0  0  0  0
   -1.7695   -4.1602   -2.4552 H   0  0  0  0  0  0  0  0  0  0  0  0
   -3.4653   -4.4132   -2.0051 H   0  0  0  0  0  0  0  0  0  0  0  0
   -2.4205   -1.9226   -2.4731 H   0  0  0  0  0  0  0  0  0  0  0  0
   -3.6950   -2.1591   -1.2471 H   0  0  0  0  0  0  0  0  0  0  0  0
    1.2910    2.1152    2.3613 H   0  0  0  0  0  0  0  0  0  0  0  0
    3.3404    2.2577    3.7225 H   0  0  0  0  0  0  0  0  0  0  0  0
    5.1844    0.6308    3.3752 H   0  0  0  0  0  0  0  0  0  0  0  0
    4.9712   -1.1210    1.6460 H   0  0  0  0  0  0  0  0  0  0  0  0
  1  2  1  0
  2  3  1  0
  3  4  1  0
  4  5  2  0
  5  6  1  0
  6  7  1  0
  7  8  1  0
  8  9  1  0
  9 10  1  0
 10 11  1  0
  6 12  2  0
 12 13  1  0
 13 14  1  0
 14 15  2  0
 15 16  1  0
 16 17  2  0
 17 18  1  0
 18 19  2  0
 19 20  1  0
 13 21  2  0
 21  4  1  0
 11  7  1  0
 19 14  1  0
  1 22  1  0
  1 23  1  0
  1 24  1  0
  2 25  1  0
  2 26  1  0
  5 27  1  0
  8 28  1  0
  8 29  1  0
  9 30  1  0
  9 31  1  0
 10 32  1  0
 10 33  1  0
 11 34  1  0
 11 35  1  0
 15 36  1  0
 16 37  1  0
 17 38  1  0
 18 39  1  0
M  END
$$$$
