
     RDKit          3D

 48 51  0  0  0  0  0  0  0  0999 V2000
    5.1842    0.9560   -3.2169 C   0  0  0  0  0  0  0  0  0  0  0  0
    3.9855    1.0119   -2.3171 C   0  0  0  0  0  0  0  0  0  0  0  0
    2.6931    0.9343   -2.8379 C   0  0  0  0  0  0  0  0  0  0  0  0
    1.5844    1.0120   -1.9872 C   0  0  0  0  0  0  0  0  0  0  0  0
    1.7251    1.1756   -0.6163 C   0  0  0  0  0  0  0  0  0  0  0  0
    0.6293    1.2400    0.1549 N   0  0  0  0  0  0  0  0  0  0  0  0
    0.7810    1.3928    1.4918 C   0  0  0  0  0  0  0  0  0  0  0  0
   -0.7555    1.4193    2.3955 S   0  0  0  0  0  0  0  0  0  0  0  0
   -0.9024   -0.3526    2.7754 C   0  0  0  0  0  0  0  0  0  0  0  0
   -0.7337   -1.2488    1.5673 C   0  0  0  0  0  0  0  0  0  0  0  0
    0.2951   -1.9410    1.5038 O   0  0  0  0  0  0  0  0  0  0  0  0
   -1.6840   -1.3094    0.5673 N   0  0  0  0  0  0  0  0  0  0  0  0
   -2.9592   -0.7218    0.4202 C   0  0  0  0  0  0  0  0  0  0  0  0
   -3.7738   -0.0676    1.3278 C   0  0  0  0  0  0  0  0  0  0  0  0
   -5.0228    0.4078    0.9037 C   0  0  0  0  0  0  0  0  0  0  0  0
   -5.4510    0.2283   -0.4170 C   0  0  0  0  0  0  0  0  0  0  0  0
   -4.6361   -0.4304   -1.3318 C   0  0  0  0  0  0  0  0  0  0  0  0
   -3.4051   -0.9019   -0.8962 C   0  0  0  0  0  0  0  0  0  0  0  0
   -2.3643   -1.5732   -1.7365 C   0  0  0  0  0  0  0  0  0  0  0  0
   -1.3925   -2.0861   -0.6615 C   0  0  0  0  0  0  0  0  0  0  0  0
   -1.5779   -3.5894   -0.4226 C   0  0  0  0  0  0  0  0  0  0  0  0
    2.0241    1.5251    2.1121 C   0  0  0  0  0  0  0  0  0  0  0  0
    2.1899    1.7043    3.5916 C   0  0  0  0  0  0  0  0  0  0  0  0
    3.1568    1.4481    1.2943 C   0  0  0  0  0  0  0  0  0  0  0  0
    3.0251    1.2702   -0.0885 C   0  0  0  0  0  0  0  0  0  0  0  0
    4.1449    1.1904   -0.9381 C   0  0  0  0  0  0  0  0  0  0  0  0
    5.9645    0.3249   -2.7785 H   0  0  0  0  0  0  0  0  0  0  0  0
    4.9289    0.5295   -4.1928 H   0  0  0  0  0  0  0  0  0  0  0  0
    5.5829    1.9632   -3.3717 H   0  0  0  0  0  0  0  0  0  0  0  0
    2.5322    0.8123   -3.9066 H   0  0  0  0  0  0  0  0  0  0  0  0
    0.5837    0.9469   -2.4068 H   0  0  0  0  0  0  0  0  0  0  0  0
   -0.1080   -0.6024    3.4889 H   0  0  0  0  0  0  0  0  0  0  0  0
   -1.8326   -0.5815    3.2978 H   0  0  0  0  0  0  0  0  0  0  0  0
   -3.5075    0.0898    2.3621 H   0  0  0  0  0  0  0  0  0  0  0  0
   -5.6668    0.9274    1.6105 H   0  0  0  0  0  0  0  0  0  0  0  0
   -6.4191    0.6120   -0.7291 H   0  0  0  0  0  0  0  0  0  0  0  0
   -4.9537   -0.5612   -2.3617 H   0  0  0  0  0  0  0  0  0  0  0  0
   -1.8771   -0.8249   -2.3712 H   0  0  0  0  0  0  0  0  0  0  0  0
   -2.7761   -2.3708   -2.3616 H   0  0  0  0  0  0  0  0  0  0  0  0
   -0.3554   -1.9066   -0.9724 H   0  0  0  0  0  0  0  0  0  0  0  0
   -2.5986   -3.8211   -0.0977 H   0  0  0  0  0  0  0  0  0  0  0  0
   -1.3740   -4.1529   -1.3395 H   0  0  0  0  0  0  0  0  0  0  0  0
   -0.8978   -3.9573    0.3522 H   0  0  0  0  0  0  0  0  0  0  0  0
    1.5353    2.4973    3.9659 H   0  0  0  0  0  0  0  0  0  0  0  0
    1.9688    0.7685    4.1155 H   0  0  0  0  0  0  0  0  0  0  0  0
    3.2148    1.9978    3.8430 H   0  0  0  0  0  0  0  0  0  0  0  0
    4.1478    1.5257    1.7363 H   0  0  0  0  0  0  0  0  0  0  0  0
    5.1476    1.2674   -0.5207 H   0  0  0  0  0  0  0  0  0  0  0  0
  1  2  1  0
  2  3  2  0
  3  4  1  0
  4  5  2  0
  5  6  1  0
  6  7  2  0
  7  8  1  0
  8  9  1  0
  9 10  1  0
 10 11  2  0
 10 12  1  0
 12 13  1  0
 13 14  2  0
 14 15  1  0
 15 16  2  0
 16 17  1  0
 17 18  2  0
 18 19  1  0
 19 20  1  0
 20 21  1  0
  7 22  1  0
 22 23  1  0
 22 24  2  0
 24 25  1  0
 25 26  2  0
 26  2  1  0
 25  5  1  0
 20 12  1  0
 18 13  1  0
  1 27  1  0
  1 28  1  0
  1 29  1  0
  3 30  1  0
  4 31  1  0
  9 32  1  0
  9 33  1  0
 14 34  1  0
 15 35  1  0
 16 36  1  0
 17 37  1  0
 19 38  1  0
 19 39  1  0
 20 40  1  0
 21 41  1  0
 21 42  1  0
 21 43  1  0
 23 44  1  0
 23 45  1  0
 23 46  1  0
 24 47  1  0
 26 48  1  0
M  END
$$$$
