
     RDKit          3D

 64 64  0  0  0  0  0  0  0  0999 V2000
   -6.0734   -0.8885    3.4196 C   0  0  0  0  0  0  0  0  0  0  0  0
   -5.9062   -1.6183    2.0957 C   0  0  0  0  0  0  0  0  0  0  0  0
   -6.1394   -0.7262    0.8741 C   0  0  0  0  0  0  0  0  0  0  0  0
   -5.1949    0.4725    0.7398 C   0  0  0  0  0  0  0  0  0  0  0  0
   -3.7006    0.1376    0.6953 C   0  0  0  0  0  0  0  0  0  0  0  0
   -3.2687   -0.8416   -0.4015 C   0  0  0  0  0  0  0  0  0  0  0  0
   -3.5533   -0.3329   -1.8169 C   0  0  0  0  0  0  0  0  0  0  0  0
   -3.0959   -1.2977   -2.9124 C   0  0  0  0  0  0  0  0  0  0  0  0
   -1.5998   -1.6266   -2.9701 C   0  0  0  0  0  0  0  0  0  0  0  0
   -0.6869   -0.4511   -3.3362 C   0  0  0  0  0  0  0  0  0  0  0  0
   -0.1457    0.3110   -2.1231 C   0  0  0  0  0  0  0  0  0  0  0  0
    0.8636    1.3808   -2.5500 C   0  0  0  0  0  0  0  0  0  0  0  0
    1.2976    2.3030   -1.4073 C   0  0  0  0  0  0  0  0  0  0  0  0
    1.9967    1.5719   -0.2590 C   0  0  0  0  0  0  0  0  0  0  0  0
    2.5395    2.5631    0.7748 C   0  0  0  0  0  0  0  0  0  0  0  0
    3.0928    1.8852    2.0247 C   0  0  0  0  0  0  0  0  0  0  0  0
    4.2912    1.0694    1.7014 N   0  0  0  0  0  4  0  0  0  0  0  0
    4.1832   -0.2780    1.6184 C   0  0  0  0  0  0  0  0  0  0  0  0
    5.2929   -1.0615    1.3369 C   0  0  0  0  0  0  0  0  0  0  0  0
    6.5260   -0.4446    1.1459 C   0  0  0  0  0  0  0  0  0  0  0  0
    7.7273   -1.2432    0.8435 C   0  0  0  0  0  0  0  0  0  0  0  0
    7.6674   -2.5324    0.7515 N   0  0  0  0  0  0  0  0  0  0  0  0
    8.9467   -3.0161    0.4560 O   0  0  0  0  0  0  0  0  0  0  0  0
    6.6306    0.9374    1.2399 C   0  0  0  0  0  0  0  0  0  0  0  0
    5.4892    1.6783    1.5245 C   0  0  0  0  0  0  0  0  0  0  0  0
   -5.2966   -0.1318    3.5617 H   0  0  0  0  0  0  0  0  0  0  0  0
   -6.0021   -1.5977    4.2501 H   0  0  0  0  0  0  0  0  0  0  0  0
   -7.0499   -0.3976    3.4772 H   0  0  0  0  0  0  0  0  0  0  0  0
   -6.6278   -2.4439    2.0611 H   0  0  0  0  0  0  0  0  0  0  0  0
   -4.9119   -2.0756    2.0527 H   0  0  0  0  0  0  0  0  0  0  0  0
   -7.1691   -0.3485    0.9048 H   0  0  0  0  0  0  0  0  0  0  0  0
   -6.0747   -1.3449   -0.0282 H   0  0  0  0  0  0  0  0  0  0  0  0
   -5.4682    1.0297   -0.1645 H   0  0  0  0  0  0  0  0  0  0  0  0
   -5.3693    1.1657    1.5716 H   0  0  0  0  0  0  0  0  0  0  0  0
   -3.1416    1.0743    0.5715 H   0  0  0  0  0  0  0  0  0  0  0  0
   -3.3915   -0.2696    1.6656 H   0  0  0  0  0  0  0  0  0  0  0  0
   -3.7536   -1.8130   -0.2526 H   0  0  0  0  0  0  0  0  0  0  0  0
   -2.1937   -1.0136   -0.2792 H   0  0  0  0  0  0  0  0  0  0  0  0
   -4.6341   -0.1921   -1.9388 H   0  0  0  0  0  0  0  0  0  0  0  0
   -3.1024    0.6528   -1.9689 H   0  0  0  0  0  0  0  0  0  0  0  0
   -3.4050   -0.8891   -3.8832 H   0  0  0  0  0  0  0  0  0  0  0  0
   -3.6459   -2.2406   -2.7933 H   0  0  0  0  0  0  0  0  0  0  0  0
   -1.4807   -2.3856   -3.7550 H   0  0  0  0  0  0  0  0  0  0  0  0
   -1.2670   -2.1068   -2.0438 H   0  0  0  0  0  0  0  0  0  0  0  0
   -1.2016    0.2350   -4.0192 H   0  0  0  0  0  0  0  0  0  0  0  0
    0.1717   -0.8550   -3.8891 H   0  0  0  0  0  0  0  0  0  0  0  0
    0.3356   -0.3980   -1.4399 H   0  0  0  0  0  0  0  0  0  0  0  0
   -0.9610    0.7883   -1.5740 H   0  0  0  0  0  0  0  0  0  0  0  0
    1.7468    0.8987   -2.9866 H   0  0  0  0  0  0  0  0  0  0  0  0
    0.4207    2.0023   -3.3378 H   0  0  0  0  0  0  0  0  0  0  0  0
    0.4226    2.8392   -1.0202 H   0  0  0  0  0  0  0  0  0  0  0  0
    1.9744    3.0615   -1.8191 H   0  0  0  0  0  0  0  0  0  0  0  0
    2.8168    0.9669   -0.6617 H   0  0  0  0  0  0  0  0  0  0  0  0
    1.2933    0.8897    0.2312 H   0  0  0  0  0  0  0  0  0  0  0  0
    1.7319    3.2378    1.0838 H   0  0  0  0  0  0  0  0  0  0  0  0
    3.3120    3.1861    0.3091 H   0  0  0  0  0  0  0  0  0  0  0  0
    3.4049    2.6289    2.7672 H   0  0  0  0  0  0  0  0  0  0  0  0
    2.3459    1.2387    2.4982 H   0  0  0  0  0  0  0  0  0  0  0  0
    3.2019   -0.7190    1.7729 H   0  0  0  0  0  0  0  0  0  0  0  0
    5.1926   -2.1429    1.2683 H   0  0  0  0  0  0  0  0  0  0  0  0
    8.6799   -0.7010    0.6980 H   0  0  0  0  0  0  0  0  0  0  0  0
    8.8138   -3.9832    0.4239 H   0  0  0  0  0  0  0  0  0  0  0  0
    7.5838    1.4411    1.0962 H   0  0  0  0  0  0  0  0  0  0  0  0
    5.5191    2.7613    1.6122 H   0  0  0  0  0  0  0  0  0  0  0  0
  1  2  1  0
  2  3  1  0
  3  4  1  0
  4  5  1  0
  5  6  1  0
  6  7  1  0
  7  8  1  0
  8  9  1  0
  9 10  1  0
 10 11  1  0
 11 12  1  0
 12 13  1  0
 13 14  1  0
 14 15  1  0
 15 16  1  0
 16 17  1  0
 17 18  2  0
 18 19  1  0
 19 20  2  0
 20 21  1  0
 21 22  2  3
 22 23  1  0
 20 24  1  0
 24 25  2  0
 25 17  1  0
  1 26  1  0
  1 27  1  0
  1 28  1  0
  2 29  1  0
  2 30  1  0
  3 31  1  0
  3 32  1  0
  4 33  1  0
  4 34  1  0
  5 35  1  0
  5 36  1  0
  6 37  1  0
  6 38  1  0
  7 39  1  0
  7 40  1  0
  8 41  1  0
  8 42  1  0
  9 43  1  0
  9 44  1  0
 10 45  1  0
 10 46  1  0
 11 47  1  0
 11 48  1  0
 12 49  1  0
 12 50  1  0
 13 51  1  0
 13 52  1  0
 14 53  1  0
 14 54  1  0
 15 55  1  0
 15 56  1  0
 16 57  1  0
 16 58  1  0
 18 59  1  0
 19 60  1  0
 21 61  1  0
 23 62  1  0
 24 63  1  0
 25 64  1  0
M  CHG  1  17   1
M  END
$$$$
