
     RDKit          3D

 63 67  0  0  0  0  0  0  0  0999 V2000
   -5.3269    3.0856   -3.8091 Cl  0  0  0  0  0  0  0  0  0  0  0  0
   -4.5012    2.4305   -2.4522 C   0  0  0  0  0  0  0  0  0  0  0  0
   -4.4427    1.0504   -2.2771 C   0  0  0  0  0  0  0  0  0  0  0  0
   -3.7690    0.5144   -1.1754 C   0  0  0  0  0  0  0  0  0  0  0  0
   -3.1379    1.3548   -0.2394 C   0  0  0  0  0  0  0  0  0  0  0  0
   -2.3996    0.8145    0.9808 C   0  0  0  0  0  0  0  0  0  0  0  0
   -3.2106    0.7066    2.2650 C   0  0  0  0  0  0  0  0  0  0  0  0
   -2.5392    0.7559    3.5029 C   0  0  0  0  0  0  0  0  0  0  0  0
   -3.2398    0.6377    4.7066 C   0  0  0  0  0  0  0  0  0  0  0  0
   -4.6206    0.4663    4.6903 C   0  0  0  0  0  0  0  0  0  0  0  0
   -5.4817    0.3156    6.1696 Cl  0  0  0  0  0  0  0  0  0  0  0  0
   -5.3055    0.4082    3.4795 C   0  0  0  0  0  0  0  0  0  0  0  0
   -4.6061    0.5243    2.2737 C   0  0  0  0  0  0  0  0  0  0  0  0
   -1.7497   -0.4724    0.6429 N   0  0  0  0  0  0  0  0  0  0  0  0
   -2.0515   -1.7489    1.1060 C   0  0  0  0  0  0  0  0  0  0  0  0
   -1.1764   -2.6084    0.5032 C   0  0  0  0  0  0  0  0  0  0  0  0
   -0.3687   -1.8432   -0.3172 N   0  0  0  0  0  4  0  0  0  0  0  0
    0.7061   -2.3376   -1.1999 C   0  0  0  0  0  0  0  0  0  0  0  0
    2.1149   -2.0068   -0.6535 C   0  0  0  0  0  0  0  0  0  0  0  0
    2.2562   -0.5707   -0.6441 O   0  0  0  0  0  0  0  0  0  0  0  0
    3.3176   -0.1295    0.2097 C   0  0  0  0  0  0  0  0  0  0  0  0
    3.3094    1.3761    0.1993 C   0  0  0  0  0  0  0  0  0  0  0  0
    4.1772    2.0572   -0.6728 C   0  0  0  0  0  0  0  0  0  0  0  0
    4.1874    3.4530   -0.7229 C   0  0  0  0  0  0  0  0  0  0  0  0
    3.3269    4.1809    0.0942 C   0  0  0  0  0  0  0  0  0  0  0  0
    3.3325    5.8985    0.0275 Cl  0  0  0  0  0  0  0  0  0  0  0  0
    2.4528    3.5277    0.9586 C   0  0  0  0  0  0  0  0  0  0  0  0
    2.4414    2.1315    1.0057 C   0  0  0  0  0  0  0  0  0  0  0  0
    1.3103    1.3752    2.0723 Cl  0  0  0  0  0  0  0  0  0  0  0  0
    3.1680   -2.6717   -1.5268 C   0  0  0  0  0  0  0  0  0  0  0  0
    3.6846   -1.9996   -2.6515 C   0  0  0  0  0  0  0  0  0  0  0  0
    4.6433   -2.6036   -3.4683 C   0  0  0  0  0  0  0  0  0  0  0  0
    5.0894   -3.8901   -3.1799 C   0  0  0  0  0  0  0  0  0  0  0  0
    6.2690   -4.6293   -4.1876 Cl  0  0  0  0  0  0  0  0  0  0  0  0
    4.5806   -4.5837   -2.0863 C   0  0  0  0  0  0  0  0  0  0  0  0
    3.6221   -3.9799   -1.2688 C   0  0  0  0  0  0  0  0  0  0  0  0
    2.9990   -4.9081    0.0498 Cl  0  0  0  0  0  0  0  0  0  0  0  0
   -0.7079   -0.5493   -0.2036 C   0  0  0  0  0  0  0  0  0  0  0  0
   -3.2211    2.7474   -0.4297 C   0  0  0  0  0  0  0  0  0  0  0  0
   -3.8960    3.2808   -1.5315 C   0  0  0  0  0  0  0  0  0  0  0  0
   -4.9276    0.3888   -2.9920 H   0  0  0  0  0  0  0  0  0  0  0  0
   -3.7568   -0.5668   -1.0561 H   0  0  0  0  0  0  0  0  0  0  0  0
   -1.5731    1.5123    1.1764 H   0  0  0  0  0  0  0  0  0  0  0  0
   -1.4587    0.8879    3.5454 H   0  0  0  0  0  0  0  0  0  0  0  0
   -2.7050    0.6828    5.6528 H   0  0  0  0  0  0  0  0  0  0  0  0
   -6.3857    0.2764    3.4676 H   0  0  0  0  0  0  0  0  0  0  0  0
   -5.1788    0.4744    1.3488 H   0  0  0  0  0  0  0  0  0  0  0  0
   -2.8561   -1.8984    1.8063 H   0  0  0  0  0  0  0  0  0  0  0  0
   -1.0316   -3.6743    0.5478 H   0  0  0  0  0  0  0  0  0  0  0  0
    0.5494   -1.8645   -2.1779 H   0  0  0  0  0  0  0  0  0  0  0  0
    0.5703   -3.4177   -1.3284 H   0  0  0  0  0  0  0  0  0  0  0  0
    2.1789   -2.3484    0.3858 H   0  0  0  0  0  0  0  0  0  0  0  0
    3.1859   -0.5144    1.2270 H   0  0  0  0  0  0  0  0  0  0  0  0
    4.2804   -0.5044   -0.1562 H   0  0  0  0  0  0  0  0  0  0  0  0
    4.8569    1.5048   -1.3210 H   0  0  0  0  0  0  0  0  0  0  0  0
    4.8684    3.9656   -1.3992 H   0  0  0  0  0  0  0  0  0  0  0  0
    1.7868    4.1083    1.5923 H   0  0  0  0  0  0  0  0  0  0  0  0
    3.3518   -0.9923   -2.9016 H   0  0  0  0  0  0  0  0  0  0  0  0
    5.0392   -2.0666   -4.3285 H   0  0  0  0  0  0  0  0  0  0  0  0
    4.9287   -5.5928   -1.8757 H   0  0  0  0  0  0  0  0  0  0  0  0
   -0.2398    0.2824   -0.7205 H   0  0  0  0  0  0  0  0  0  0  0  0
   -2.7684    3.4369    0.2828 H   0  0  0  0  0  0  0  0  0  0  0  0
   -3.9522    4.3598   -1.6625 H   0  0  0  0  0  0  0  0  0  0  0  0
  1  2  1  0
  2  3  2  0
  3  4  1  0
  4  5  2  0
  5  6  1  0
  6  7  1  0
  7  8  2  0
  8  9  1  0
  9 10  2  0
 10 11  1  0
 10 12  1  0
 12 13  2  0
  6 14  1  0
 14 15  1  0
 15 16  2  0
 16 17  1  0
 17 18  1  0
 18 19  1  0
 19 20  1  0
 20 21  1  0
 21 22  1  0
 22 23  2  0
 23 24  1  0
 24 25  2  0
 25 26  1  0
 25 27  1  0
 27 28  2  0
 28 29  1  0
 19 30  1  0
 30 31  2  0
 31 32  1  0
 32 33  2  0
 33 34  1  0
 33 35  1  0
 35 36  2  0
 36 37  1  0
 17 38  2  0
  5 39  1  0
 39 40  2  0
 40  2  1  0
 13  7  1  0
 38 14  1  0
 28 22  1  0
 36 30  1  0
  3 41  1  0
  4 42  1  0
  6 43  1  0
  8 44  1  0
  9 45  1  0
 12 46  1  0
 13 47  1  0
 15 48  1  0
 16 49  1  0
 18 50  1  0
 18 51  1  0
 19 52  1  0
 21 53  1  0
 21 54  1  0
 23 55  1  0
 24 56  1  0
 27 57  1  0
 31 58  1  0
 32 59  1  0
 35 60  1  0
 38 61  1  0
 39 62  1  0
 40 63  1  0
M  CHG  1  17   1
M  END
$$$$
