
     RDKit          3D

 47 49  0  0  0  0  0  0  0  0999 V2000
    5.8743    0.8349    1.6874 C   0  0  0  0  0  0  0  0  0  0  0  0
    5.8059    0.7678    0.1696 C   0  0  0  0  0  0  0  0  0  0  0  0
    4.4065    0.4551   -0.3634 C   0  0  0  0  0  0  0  0  0  0  0  0
    3.9106   -0.9403    0.0252 C   0  0  0  0  0  0  0  0  0  0  0  0
    2.6372   -1.2753   -0.6090 N   0  0  0  0  0  0  0  0  0  0  0  0
    1.4286   -0.7153   -0.0288 C   0  0  0  0  0  0  0  0  0  0  0  0
    0.1719   -1.2704   -0.6093 C   0  0  0  0  0  0  0  0  0  0  0  0
   -1.0768   -1.1033   -0.0017 C   0  0  0  0  0  0  0  0  0  0  0  0
   -2.2159   -1.5887   -0.6466 C   0  0  0  0  0  0  0  0  0  0  0  0
   -3.5693   -1.4733   -0.0713 C   0  0  0  0  0  0  0  0  0  0  0  0
   -4.3475   -2.4188   -0.1834 O   0  0  0  0  0  0  0  0  0  0  0  0
   -4.0143   -0.2663    0.6685 C   0  0  0  0  0  0  0  0  0  0  0  0
   -3.5292    1.0091    0.3352 C   0  0  0  0  0  0  0  0  0  0  0  0
   -3.9453    2.1268    1.0623 C   0  0  0  0  0  0  0  0  0  0  0  0
   -3.5426    3.4163    0.8517 O   0  0  0  0  0  0  0  0  0  0  0  0
   -2.7137    3.6655   -0.2768 C   0  0  0  0  0  0  0  0  0  0  0  0
   -4.8510    1.9655    2.1150 C   0  0  0  0  0  0  0  0  0  0  0  0
   -5.3615    0.7060    2.4299 C   0  0  0  0  0  0  0  0  0  0  0  0
   -4.9546   -0.4029    1.6978 C   0  0  0  0  0  0  0  0  0  0  0  0
   -5.5150   -1.6035    2.0396 O   0  0  0  0  0  0  0  0  0  0  0  0
   -2.0552   -2.2392   -1.8619 C   0  0  0  0  0  0  0  0  0  0  0  0
   -0.8582   -2.3903   -2.4793 N   0  0  0  0  0  0  0  0  0  0  0  0
    0.2243   -1.9110   -1.8351 C   0  0  0  0  0  0  0  0  0  0  0  0
    1.4484   -2.0782   -2.4492 N   0  0  0  0  0  0  0  0  0  0  0  0
    2.6537   -1.8022   -1.8860 C   0  0  0  0  0  0  0  0  0  0  0  0
    3.6878   -2.0514   -2.5022 O   0  0  0  0  0  0  0  0  0  0  0  0
    5.6784   -0.1409    2.1414 H   0  0  0  0  0  0  0  0  0  0  0  0
    6.8727    1.1530    2.0045 H   0  0  0  0  0  0  0  0  0  0  0  0
    5.1487    1.5530    2.0823 H   0  0  0  0  0  0  0  0  0  0  0  0
    6.1245    1.7351   -0.2368 H   0  0  0  0  0  0  0  0  0  0  0  0
    6.5200    0.0204   -0.1953 H   0  0  0  0  0  0  0  0  0  0  0  0
    3.7009    1.2155   -0.0078 H   0  0  0  0  0  0  0  0  0  0  0  0
    4.4269    0.5430   -1.4568 H   0  0  0  0  0  0  0  0  0  0  0  0
    3.7785   -1.0267    1.1090 H   0  0  0  0  0  0  0  0  0  0  0  0
    4.6564   -1.6886   -0.2682 H   0  0  0  0  0  0  0  0  0  0  0  0
    1.4524   -0.9161    1.0484 H   0  0  0  0  0  0  0  0  0  0  0  0
    1.4471    0.3687   -0.1887 H   0  0  0  0  0  0  0  0  0  0  0  0
   -1.1472   -0.6137    0.9663 H   0  0  0  0  0  0  0  0  0  0  0  0
   -2.8434    1.1198   -0.4971 H   0  0  0  0  0  0  0  0  0  0  0  0
   -1.7459    3.1643   -0.1709 H   0  0  0  0  0  0  0  0  0  0  0  0
   -3.2118    3.3711   -1.2065 H   0  0  0  0  0  0  0  0  0  0  0  0
   -2.5278    4.7428   -0.3242 H   0  0  0  0  0  0  0  0  0  0  0  0
   -5.1756    2.8331    2.6858 H   0  0  0  0  0  0  0  0  0  0  0  0
   -6.0814    0.5929    3.2361 H   0  0  0  0  0  0  0  0  0  0  0  0
   -5.3223   -2.2436    1.3179 H   0  0  0  0  0  0  0  0  0  0  0  0
   -2.9040   -2.6619   -2.3948 H   0  0  0  0  0  0  0  0  0  0  0  0
    1.4538   -2.5375   -3.3477 H   0  0  0  0  0  0  0  0  0  0  0  0
  1  2  1  0
  2  3  1  0
  3  4  1  0
  4  5  1  0
  5  6  1  0
  6  7  1  0
  7  8  2  0
  8  9  1  0
  9 10  1  0
 10 11  2  0
 10 12  1  0
 12 13  2  0
 13 14  1  0
 14 15  1  0
 15 16  1  0
 14 17  2  0
 17 18  1  0
 18 19  2  0
 19 20  1  0
  9 21  2  0
 21 22  1  0
 22 23  2  0
 23 24  1  0
 24 25  1  0
 25 26  2  0
 25  5  1  0
 23  7  1  0
 19 12  1  0
  1 27  1  0
  1 28  1  0
  1 29  1  0
  2 30  1  0
  2 31  1  0
  3 32  1  0
  3 33  1  0
  4 34  1  0
  4 35  1  0
  6 36  1  0
  6 37  1  0
  8 38  1  0
 13 39  1  0
 16 40  1  0
 16 41  1  0
 16 42  1  0
 17 43  1  0
 18 44  1  0
 20 45  1  0
 21 46  1  0
 24 47  1  0
M  END
$$$$
