
     RDKit          3D

 58 62  0  0  0  0  0  0  0  0999 V2000
   -7.3988   -1.0372   -0.0315 C   0  0  0  0  0  0  0  0  0  0  0  0
   -6.7279    0.1860   -0.3350 O   0  0  0  0  0  0  0  0  0  0  0  0
   -5.9460    0.0772   -1.4551 C   0  0  0  0  0  0  0  0  0  0  0  0
   -6.5218   -0.2259   -2.6936 C   0  0  0  0  0  0  0  0  0  0  0  0
   -5.7297   -0.2793   -3.8388 C   0  0  0  0  0  0  0  0  0  0  0  0
   -4.3672   -0.0102   -3.7513 C   0  0  0  0  0  0  0  0  0  0  0  0
   -3.7961    0.3135   -2.5191 C   0  0  0  0  0  0  0  0  0  0  0  0
   -4.5759    0.3574   -1.3499 C   0  0  0  0  0  0  0  0  0  0  0  0
   -3.9364    0.7099   -0.0227 C   0  0  0  0  0  0  0  0  0  0  0  0
   -2.9335   -0.2677    0.4033 N   0  0  0  0  0  0  0  0  0  0  0  0
   -3.3403   -1.4101    1.0809 C   0  0  0  0  0  0  0  0  0  0  0  0
   -4.5069   -1.6366    1.3959 O   0  0  0  0  0  0  0  0  0  0  0  0
   -2.2981   -2.4137    1.4442 C   0  0  0  0  0  0  0  0  0  0  0  0
   -2.7078   -3.5989    2.0733 C   0  0  0  0  0  0  0  0  0  0  0  0
   -1.7731   -4.5723    2.4146 C   0  0  0  0  0  0  0  0  0  0  0  0
   -0.4275   -4.3663    2.1263 C   0  0  0  0  0  0  0  0  0  0  0  0
   -0.0066   -3.1861    1.5039 C   0  0  0  0  0  0  0  0  0  0  0  0
   -0.9378   -2.1991    1.1661 C   0  0  0  0  0  0  0  0  0  0  0  0
   -0.6062   -0.9775    0.5409 N   0  0  0  0  0  0  0  0  0  0  0  0
    0.5739   -0.3633    0.1628 C   0  0  0  0  0  0  0  0  0  0  0  0
    2.1830   -0.9290    0.4488 S   0  0  0  0  0  0  0  0  0  0  0  0
    3.1562    0.4465   -0.2360 C   0  0  0  0  0  0  0  0  0  0  0  0
    4.6554    0.1848   -0.1102 C   0  0  0  0  0  0  0  0  0  0  0  0
    5.1234   -0.9557   -0.0943 O   0  0  0  0  0  0  0  0  0  0  0  0
    5.4831    1.3064   -0.0356 N   0  0  0  0  0  0  0  0  0  0  0  0
    6.9153    1.1041    0.1862 C   0  0  0  0  0  0  0  0  0  0  0  0
    7.5227    2.2542    0.9787 C   0  0  0  0  0  0  0  0  0  0  0  0
    7.3242    3.6017    0.2863 C   0  0  0  0  0  0  0  0  0  0  0  0
    6.1384    3.6137   -0.6766 C   0  0  0  0  0  0  0  0  0  0  0  0
    5.0199    2.6830   -0.2248 C   0  0  0  0  0  0  0  0  0  0  0  0
    0.3149    0.7812   -0.4335 N   0  0  0  0  0  0  0  0  0  0  0  0
   -1.0362    0.9667   -0.4261 N   0  0  0  0  0  0  0  0  0  0  0  0
   -1.5842   -0.0710    0.1668 C   0  0  0  0  0  0  0  0  0  0  0  0
   -6.7549   -1.9106   -0.1827 H   0  0  0  0  0  0  0  0  0  0  0  0
   -7.6868   -1.0071    1.0234 H   0  0  0  0  0  0  0  0  0  0  0  0
   -8.3111   -1.1297   -0.6280 H   0  0  0  0  0  0  0  0  0  0  0  0
   -7.5897   -0.4017   -2.7768 H   0  0  0  0  0  0  0  0  0  0  0  0
   -6.1781   -0.5155   -4.8004 H   0  0  0  0  0  0  0  0  0  0  0  0
   -3.7482   -0.0399   -4.6440 H   0  0  0  0  0  0  0  0  0  0  0  0
   -2.7334    0.5408   -2.4796 H   0  0  0  0  0  0  0  0  0  0  0  0
   -3.4770    1.7033   -0.1000 H   0  0  0  0  0  0  0  0  0  0  0  0
   -4.6862    0.7930    0.7720 H   0  0  0  0  0  0  0  0  0  0  0  0
   -3.7605   -3.7703    2.2947 H   0  0  0  0  0  0  0  0  0  0  0  0
   -2.0945   -5.4911    2.8965 H   0  0  0  0  0  0  0  0  0  0  0  0
    0.3037   -5.1306    2.3831 H   0  0  0  0  0  0  0  0  0  0  0  0
    1.0535   -3.1054    1.2972 H   0  0  0  0  0  0  0  0  0  0  0  0
    2.8826    1.3446    0.3236 H   0  0  0  0  0  0  0  0  0  0  0  0
    2.9230    0.5793   -1.2959 H   0  0  0  0  0  0  0  0  0  0  0  0
    7.3915    1.0183   -0.7966 H   0  0  0  0  0  0  0  0  0  0  0  0
    7.0864    0.1619    0.7170 H   0  0  0  0  0  0  0  0  0  0  0  0
    8.5906    2.0784    1.1500 H   0  0  0  0  0  0  0  0  0  0  0  0
    7.0480    2.2927    1.9672 H   0  0  0  0  0  0  0  0  0  0  0  0
    8.2306    3.8731   -0.2669 H   0  0  0  0  0  0  0  0  0  0  0  0
    7.1905    4.3755    1.0511 H   0  0  0  0  0  0  0  0  0  0  0  0
    6.4853    3.2966   -1.6683 H   0  0  0  0  0  0  0  0  0  0  0  0
    5.7613    4.6365   -0.7899 H   0  0  0  0  0  0  0  0  0  0  0  0
    4.6066    3.0222    0.7314 H   0  0  0  0  0  0  0  0  0  0  0  0
    4.2144    2.6994   -0.9652 H   0  0  0  0  0  0  0  0  0  0  0  0
  1  2  1  0
  2  3  1  0
  3  4  2  0
  4  5  1  0
  5  6  2  0
  6  7  1  0
  7  8  2  0
  8  9  1  0
  9 10  1  0
 10 11  1  0
 11 12  2  0
 11 13  1  0
 13 14  2  0
 14 15  1  0
 15 16  2  0
 16 17  1  0
 17 18  2  0
 18 19  1  0
 19 20  1  0
 20 21  1  0
 21 22  1  0
 22 23  1  0
 23 24  2  0
 23 25  1  0
 25 26  1  0
 26 27  1  0
 27 28  1  0
 28 29  1  0
 29 30  1  0
 20 31  2  0
 31 32  1  0
 32 33  2  0
  8  3  1  0
 33 10  1  0
 18 13  1  0
 33 19  1  0
 30 25  1  0
  1 34  1  0
  1 35  1  0
  1 36  1  0
  4 37  1  0
  5 38  1  0
  6 39  1  0
  7 40  1  0
  9 41  1  0
  9 42  1  0
 14 43  1  0
 15 44  1  0
 16 45  1  0
 17 46  1  0
 22 47  1  0
 22 48  1  0
 26 49  1  0
 26 50  1  0
 27 51  1  0
 27 52  1  0
 28 53  1  0
 28 54  1  0
 29 55  1  0
 29 56  1  0
 30 57  1  0
 30 58  1  0
M  END
$$$$
