
     RDKit          3D

 69 71  0  0  0  0  0  0  0  0999 V2000
   -6.2648    1.0002    2.7582 C   0  0  0  0  0  0  0  0  0  0  0  0
   -5.2331    2.0361    2.3393 C   0  0  0  0  0  0  0  0  0  0  0  0
   -5.5146    2.6708    0.9732 C   0  0  0  0  0  0  0  0  0  0  0  0
   -5.3397    1.7479   -0.1519 N   0  0  0  0  0  0  0  0  0  0  0  0
   -6.5239    1.0319   -0.6346 C   0  0  0  0  0  0  0  0  0  0  0  0
   -7.0619    1.5831   -1.9586 C   0  0  0  0  0  0  0  0  0  0  0  0
   -7.5975    3.0021   -1.8418 C   0  0  0  0  0  0  0  0  0  0  0  0
   -4.1114    1.4551   -0.7527 C   0  0  0  0  0  0  0  0  0  0  0  0
   -4.0204    0.6086   -1.6460 O   0  0  0  0  0  0  0  0  0  0  0  0
   -2.8945    2.2838   -0.3099 C   0  0  0  0  0  0  0  0  0  0  0  0
   -1.6500    1.7494   -0.8633 N   0  0  0  0  0  0  0  0  0  0  0  0
   -1.0100    0.7434   -0.1313 C   0  0  0  0  0  0  0  0  0  0  0  0
   -1.4557    0.3713    0.9595 O   0  0  0  0  0  0  0  0  0  0  0  0
    0.1606    0.1921   -0.6706 N   0  0  0  0  0  0  0  0  0  0  0  0
    0.8307   -0.8467    0.1095 C   0  0  0  0  0  0  0  0  0  0  0  0
    1.6423   -0.2874    1.2870 C   0  0  0  0  0  0  0  0  0  0  0  0
    2.9041    0.4896    0.8973 C   0  0  0  0  0  0  0  0  0  0  0  0
    4.0232   -0.3371    0.2544 C   0  0  0  0  0  0  0  0  0  0  0  0
    4.5479   -1.4557    1.1548 C   0  0  0  0  0  0  0  0  0  0  0  0
    5.8088   -2.1127    0.6072 C   0  0  0  0  0  0  0  0  0  0  0  0
    6.3512   -1.7334   -0.4229 O   0  0  0  0  0  0  0  0  0  0  0  0
    6.2271   -3.1501    1.4274 N   0  0  0  0  0  0  0  0  0  0  0  0
    7.3489   -3.9868    1.2524 C   0  0  0  0  0  0  0  0  0  0  0  0
    7.5679   -4.9731    2.2240 C   0  0  0  0  0  0  0  0  0  0  0  0
    8.6566   -5.8437    2.1257 C   0  0  0  0  0  0  0  0  0  0  0  0
    9.5380   -5.7370    1.0540 C   0  0  0  0  0  0  0  0  0  0  0  0
    9.3291   -4.7604    0.0833 C   0  0  0  0  0  0  0  0  0  0  0  0
    8.2393   -3.8887    0.1819 C   0  0  0  0  0  0  0  0  0  0  0  0
    0.7172    0.5403   -1.9075 C   0  0  0  0  0  0  0  0  0  0  0  0
    1.7459    0.0256   -2.3419 O   0  0  0  0  0  0  0  0  0  0  0  0
   -0.0267    1.5501   -2.6063 C   0  0  0  0  0  0  0  0  0  0  0  0
    0.4182    2.1432   -4.1340 S   0  0  0  0  0  0  0  0  0  0  0  0
   -0.9419    3.1826   -4.1765 C   0  0  0  0  0  0  0  0  0  0  0  0
   -1.7087    3.0740   -3.0342 C   0  0  0  0  0  0  0  0  0  0  0  0
   -1.1663    2.1276   -2.1153 C   0  0  0  0  0  0  0  0  0  0  0  0
   -6.2259    0.1167    2.1137 H   0  0  0  0  0  0  0  0  0  0  0  0
   -6.0696    0.6693    3.7839 H   0  0  0  0  0  0  0  0  0  0  0  0
   -7.2774    1.4150    2.7241 H   0  0  0  0  0  0  0  0  0  0  0  0
   -5.2230    2.8336    3.0920 H   0  0  0  0  0  0  0  0  0  0  0  0
   -4.2422    1.5703    2.3552 H   0  0  0  0  0  0  0  0  0  0  0  0
   -4.8355    3.5182    0.8350 H   0  0  0  0  0  0  0  0  0  0  0  0
   -6.5293    3.0839    0.9423 H   0  0  0  0  0  0  0  0  0  0  0  0
   -6.2542   -0.0218   -0.7740 H   0  0  0  0  0  0  0  0  0  0  0  0
   -7.3088    1.0596    0.1285 H   0  0  0  0  0  0  0  0  0  0  0  0
   -7.8736    0.9309   -2.3021 H   0  0  0  0  0  0  0  0  0  0  0  0
   -6.2849    1.5579   -2.7307 H   0  0  0  0  0  0  0  0  0  0  0  0
   -6.8006    3.7096   -1.5935 H   0  0  0  0  0  0  0  0  0  0  0  0
   -8.0381    3.3176   -2.7928 H   0  0  0  0  0  0  0  0  0  0  0  0
   -8.3722    3.0673   -1.0715 H   0  0  0  0  0  0  0  0  0  0  0  0
   -3.0268    3.3200   -0.6364 H   0  0  0  0  0  0  0  0  0  0  0  0
   -2.8221    2.2862    0.7802 H   0  0  0  0  0  0  0  0  0  0  0  0
    1.4639   -1.4684   -0.5313 H   0  0  0  0  0  0  0  0  0  0  0  0
    0.0585   -1.5151    0.5110 H   0  0  0  0  0  0  0  0  0  0  0  0
    1.0085    0.3799    1.8836 H   0  0  0  0  0  0  0  0  0  0  0  0
    1.9117   -1.1151    1.9525 H   0  0  0  0  0  0  0  0  0  0  0  0
    3.3044    0.9628    1.8033 H   0  0  0  0  0  0  0  0  0  0  0  0
    2.6370    1.3111    0.2223 H   0  0  0  0  0  0  0  0  0  0  0  0
    3.6900   -0.7616   -0.6986 H   0  0  0  0  0  0  0  0  0  0  0  0
    4.8452    0.3477    0.0091 H   0  0  0  0  0  0  0  0  0  0  0  0
    4.7831   -1.0545    2.1478 H   0  0  0  0  0  0  0  0  0  0  0  0
    3.7852   -2.2343    1.2671 H   0  0  0  0  0  0  0  0  0  0  0  0
    5.6652   -3.3335    2.2483 H   0  0  0  0  0  0  0  0  0  0  0  0
    6.8961   -5.0803    3.0711 H   0  0  0  0  0  0  0  0  0  0  0  0
    8.8151   -6.6042    2.8858 H   0  0  0  0  0  0  0  0  0  0  0  0
   10.3856   -6.4123    0.9733 H   0  0  0  0  0  0  0  0  0  0  0  0
   10.0133   -4.6719   -0.7570 H   0  0  0  0  0  0  0  0  0  0  0  0
    8.1158   -3.1437   -0.5979 H   0  0  0  0  0  0  0  0  0  0  0  0
   -1.1153    3.8158   -5.0361 H   0  0  0  0  0  0  0  0  0  0  0  0
   -2.6151    3.6475   -2.8905 H   0  0  0  0  0  0  0  0  0  0  0  0
  1  2  1  0
  2  3  1  0
  3  4  1  0
  4  5  1  0
  5  6  1  0
  6  7  1  0
  4  8  1  0
  8  9  2  0
  8 10  1  0
 10 11  1  0
 11 12  1  0
 12 13  2  0
 12 14  1  0
 14 15  1  0
 15 16  1  0
 16 17  1  0
 17 18  1  0
 18 19  1  0
 19 20  1  0
 20 21  2  0
 20 22  1  0
 22 23  1  0
 23 24  2  0
 24 25  1  0
 25 26  2  0
 26 27  1  0
 27 28  2  0
 14 29  1  0
 29 30  2  0
 29 31  1  0
 31 32  1  0
 32 33  1  0
 33 34  2  0
 34 35  1  0
 35 11  1  0
 28 23  1  0
 35 31  2  0
  1 36  1  0
  1 37  1  0
  1 38  1  0
  2 39  1  0
  2 40  1  0
  3 41  1  0
  3 42  1  0
  5 43  1  0
  5 44  1  0
  6 45  1  0
  6 46  1  0
  7 47  1  0
  7 48  1  0
  7 49  1  0
 10 50  1  0
 10 51  1  0
 15 52  1  0
 15 53  1  0
 16 54  1  0
 16 55  1  0
 17 56  1  0
 17 57  1  0
 18 58  1  0
 18 59  1  0
 19 60  1  0
 19 61  1  0
 22 62  1  0
 24 63  1  0
 25 64  1  0
 26 65  1  0
 27 66  1  0
 28 67  1  0
 33 68  1  0
 34 69  1  0
M  END
$$$$
