
     RDKit          3D

 40 43  0  0  0  0  0  0  0  0999 V2000
    7.7551   -0.7925    0.9373 C   0  0  0  0  0  0  0  0  0  0  0  0
    7.0601    0.4465    0.8815 O   0  0  0  0  0  0  0  0  0  0  0  0
    5.7077    0.3882    0.6903 C   0  0  0  0  0  0  0  0  0  0  0  0
    5.0686    1.6273    0.6472 C   0  0  0  0  0  0  0  0  0  0  0  0
    3.6852    1.7107    0.4569 C   0  0  0  0  0  0  0  0  0  0  0  0
    2.9091    0.5532    0.3047 C   0  0  0  0  0  0  0  0  0  0  0  0
    1.4567    0.6497    0.1044 C   0  0  0  0  0  0  0  0  0  0  0  0
    0.5192   -0.4053   -0.0948 C   0  0  0  0  0  0  0  0  0  0  0  0
   -0.7167    0.1886   -0.2381 C   0  0  0  0  0  0  0  0  0  0  0  0
   -2.0059   -0.3053   -0.4482 N   0  0  0  0  0  0  0  0  0  0  0  0
   -2.2392   -1.6878   -0.4243 C   0  0  0  0  0  0  0  0  0  0  0  0
   -1.3754   -2.5688   -0.4245 O   0  0  0  0  0  0  0  0  0  0  0  0
   -3.5442   -2.1029   -0.3750 N   0  0  0  0  0  0  0  0  0  0  0  0
   -4.6288   -1.2382   -0.3254 C   0  0  0  0  0  0  0  0  0  0  0  0
   -5.9240   -1.7494   -0.2258 C   0  0  0  0  0  0  0  0  0  0  0  0
   -7.0096   -0.8746   -0.2183 C   0  0  0  0  0  0  0  0  0  0  0  0
   -6.7959    0.4992   -0.3158 C   0  0  0  0  0  0  0  0  0  0  0  0
   -5.4946    0.9984   -0.4181 C   0  0  0  0  0  0  0  0  0  0  0  0
   -4.3917    0.1320   -0.4171 C   0  0  0  0  0  0  0  0  0  0  0  0
   -3.0725    0.6359   -0.5300 N   0  0  0  0  0  0  0  0  0  0  0  0
   -2.8811    1.7514   -1.3554 O   0  0  0  0  0  0  0  0  0  0  0  0
   -0.4642    1.5254   -0.1061 N   0  0  0  0  0  0  0  0  0  0  0  0
    0.8250    1.8359    0.0859 N   0  0  0  0  0  0  0  0  0  0  0  0
    3.5603   -0.6879    0.3499 C   0  0  0  0  0  0  0  0  0  0  0  0
    4.9478   -0.7705    0.5410 C   0  0  0  0  0  0  0  0  0  0  0  0
    7.4116   -1.4005    1.7808 H   0  0  0  0  0  0  0  0  0  0  0  0
    8.8157   -0.5741    1.0950 H   0  0  0  0  0  0  0  0  0  0  0  0
    7.6648   -1.3388   -0.0074 H   0  0  0  0  0  0  0  0  0  0  0  0
    5.6488    2.5393    0.7628 H   0  0  0  0  0  0  0  0  0  0  0  0
    3.2169    2.6927    0.4286 H   0  0  0  0  0  0  0  0  0  0  0  0
    0.7298   -1.4639   -0.1315 H   0  0  0  0  0  0  0  0  0  0  0  0
   -3.6757   -3.1033   -0.3253 H   0  0  0  0  0  0  0  0  0  0  0  0
   -6.0994   -2.8192   -0.1576 H   0  0  0  0  0  0  0  0  0  0  0  0
   -8.0221   -1.2632   -0.1386 H   0  0  0  0  0  0  0  0  0  0  0  0
   -7.6407    1.1839   -0.3096 H   0  0  0  0  0  0  0  0  0  0  0  0
   -5.3411    2.0732   -0.4846 H   0  0  0  0  0  0  0  0  0  0  0  0
   -2.9104    1.3496   -2.2444 H   0  0  0  0  0  0  0  0  0  0  0  0
   -1.1524    2.2691   -0.1573 H   0  0  0  0  0  0  0  0  0  0  0  0
    3.0048   -1.6153    0.2393 H   0  0  0  0  0  0  0  0  0  0  0  0
    5.3982   -1.7571    0.5678 H   0  0  0  0  0  0  0  0  0  0  0  0
  1  2  1  0
  2  3  1  0
  3  4  2  0
  4  5  1  0
  5  6  2  0
  6  7  1  0
  7  8  1  0
  8  9  2  0
  9 10  1  0
 10 11  1  0
 11 12  2  0
 11 13  1  0
 13 14  1  0
 14 15  2  0
 15 16  1  0
 16 17  2  0
 17 18  1  0
 18 19  2  0
 19 20  1  0
 20 21  1  0
  9 22  1  0
 22 23  1  0
  6 24  1  0
 24 25  2  0
 25  3  1  0
 23  7  2  0
 20 10  1  0
 19 14  1  0
  1 26  1  0
  1 27  1  0
  1 28  1  0
  4 29  1  0
  5 30  1  0
  8 31  1  0
 13 32  1  0
 15 33  1  0
 16 34  1  0
 17 35  1  0
 18 36  1  0
 21 37  1  0
 22 38  1  0
 24 39  1  0
 25 40  1  0
M  END
$$$$
