
     RDKit          3D

 46 48  0  0  0  0  0  0  0  0999 V2000
   -5.7709   -2.8004   -0.5564 C   0  0  0  0  0  0  0  0  0  0  0  0
   -5.4085   -1.3789   -0.9560 C   0  0  0  0  0  0  0  0  0  0  0  0
   -5.6465   -0.3335    0.1380 C   0  0  0  0  0  0  0  0  0  0  0  0
   -4.7696   -0.6360    1.7139 S   0  0  0  0  0  0  0  0  0  0  0  0
   -3.2205    0.1992    1.4086 C   0  0  0  0  0  0  0  0  0  0  0  0
   -2.7133    0.0645    0.1593 N   0  0  0  0  0  0  0  0  0  0  0  0
   -1.5045    0.6202   -0.1324 C   0  0  0  0  0  0  0  0  0  0  0  0
   -1.0196    0.3819   -1.5351 C   0  0  0  0  0  0  0  0  0  0  0  0
   -0.7660    1.3469    0.8071 C   0  0  0  0  0  0  0  0  0  0  0  0
    0.5371    1.9186    0.5049 C   0  0  0  0  0  0  0  0  0  0  0  0
    0.9228    3.1913    0.8617 C   0  0  0  0  0  0  0  0  0  0  0  0
    2.5260    3.4836    0.3362 S   0  0  0  0  0  0  0  0  0  0  0  0
    2.6070    1.8876   -0.3434 C   0  0  0  0  0  0  0  0  0  0  0  0
    3.7931    1.4386   -1.0076 C   0  0  0  0  0  0  0  0  0  0  0  0
    4.4494    2.3100   -1.9299 C   0  0  0  0  0  0  0  0  0  0  0  0
    4.9954    3.0172   -2.6723 N   0  0  0  0  0  0  0  0  0  0  0  0
    4.2622    0.1876   -0.7931 C   0  0  0  0  0  0  0  0  0  0  0  0
    5.4666   -0.4134   -1.4857 C   0  0  0  0  0  0  0  0  0  0  0  0
    5.4391   -1.8778   -1.0669 C   0  0  0  0  0  0  0  0  0  0  0  0
    4.8221   -1.8468    0.3221 C   0  0  0  0  0  0  0  0  0  0  0  0
    3.7071   -0.8190    0.1919 C   0  0  0  0  0  0  0  0  0  0  0  0
    1.4991    1.1872   -0.1667 N   0  0  0  0  0  0  0  0  0  0  0  0
   -1.3120    1.4845    2.0907 C   0  0  0  0  0  0  0  0  0  0  0  0
   -2.5452    0.8996    2.4050 C   0  0  0  0  0  0  0  0  0  0  0  0
   -3.0579    1.0421    3.7322 C   0  0  0  0  0  0  0  0  0  0  0  0
   -3.4265    1.1904    4.8220 N   0  0  0  0  0  0  0  0  0  0  0  0
   -5.7401   -3.4574   -1.4333 H   0  0  0  0  0  0  0  0  0  0  0  0
   -6.7780   -2.8491   -0.1303 H   0  0  0  0  0  0  0  0  0  0  0  0
   -5.0544   -3.2040    0.1717 H   0  0  0  0  0  0  0  0  0  0  0  0
   -6.0207   -1.0986   -1.8235 H   0  0  0  0  0  0  0  0  0  0  0  0
   -4.3677   -1.3558   -1.2966 H   0  0  0  0  0  0  0  0  0  0  0  0
   -6.7150   -0.3165    0.3790 H   0  0  0  0  0  0  0  0  0  0  0  0
   -5.4013    0.6656   -0.2398 H   0  0  0  0  0  0  0  0  0  0  0  0
   -0.1831   -0.3270   -1.5344 H   0  0  0  0  0  0  0  0  0  0  0  0
   -1.8185   -0.0459   -2.1509 H   0  0  0  0  0  0  0  0  0  0  0  0
   -0.7126    1.3214   -2.0027 H   0  0  0  0  0  0  0  0  0  0  0  0
    0.3609    3.9565    1.3779 H   0  0  0  0  0  0  0  0  0  0  0  0
    5.4139   -0.3257   -2.5744 H   0  0  0  0  0  0  0  0  0  0  0  0
    6.3822    0.0637   -1.1255 H   0  0  0  0  0  0  0  0  0  0  0  0
    4.8039   -2.4591   -1.7482 H   0  0  0  0  0  0  0  0  0  0  0  0
    6.4370   -2.3269   -1.0702 H   0  0  0  0  0  0  0  0  0  0  0  0
    5.5632   -1.5156    1.0634 H   0  0  0  0  0  0  0  0  0  0  0  0
    4.4460   -2.8277    0.6347 H   0  0  0  0  0  0  0  0  0  0  0  0
    2.8085   -1.2913   -0.2164 H   0  0  0  0  0  0  0  0  0  0  0  0
    3.4783   -0.3798    1.1659 H   0  0  0  0  0  0  0  0  0  0  0  0
   -0.7685    2.0277    2.8617 H   0  0  0  0  0  0  0  0  0  0  0  0
  1  2  1  0
  2  3  1  0
  3  4  1  0
  4  5  1  0
  5  6  2  0
  6  7  1  0
  7  8  1  0
  7  9  2  0
  9 10  1  0
 10 11  2  0
 11 12  1  0
 12 13  1  0
 13 14  1  0
 14 15  1  0
 15 16  3  0
 14 17  2  3
 17 18  1  0
 18 19  1  0
 19 20  1  0
 20 21  1  0
 13 22  2  0
  9 23  1  0
 23 24  2  0
 24 25  1  0
 25 26  3  0
 24  5  1  0
 22 10  1  0
 21 17  1  0
  1 27  1  0
  1 28  1  0
  1 29  1  0
  2 30  1  0
  2 31  1  0
  3 32  1  0
  3 33  1  0
  8 34  1  0
  8 35  1  0
  8 36  1  0
 11 37  1  0
 18 38  1  0
 18 39  1  0
 19 40  1  0
 19 41  1  0
 20 42  1  0
 20 43  1  0
 21 44  1  0
 21 45  1  0
 23 46  1  0
M  END
$$$$
