
     RDKit          3D

 36 38  0  0  0  0  0  0  0  0999 V2000
    4.6578    1.7761   -0.5622 C   0  0  0  0  0  0  0  0  0  0  0  0
    4.9329    0.3994   -0.2026 N   0  0  0  0  0  0  0  0  0  0  0  0
    6.1686   -0.0463    0.1985 C   0  0  0  0  0  0  0  0  0  0  0  0
    6.0677   -1.3857    0.4908 C   0  0  0  0  0  0  0  0  0  0  0  0
    4.7256   -1.7633    0.2570 C   0  0  0  0  0  0  0  0  0  0  0  0
    4.0275   -0.6454   -0.1692 C   0  0  0  0  0  0  0  0  0  0  0  0
    2.6799   -0.4324   -0.5671 C   0  0  0  0  0  0  0  0  0  0  0  0
    1.6078   -0.9426    0.0550 C   0  0  0  0  0  0  0  0  0  0  0  0
    1.5236   -1.9228    1.4733 S   0  0  0  0  0  0  0  0  0  0  0  0
   -0.2360   -1.9818    1.4614 C   0  0  0  0  0  0  0  0  0  0  0  0
   -1.1358   -2.8437    2.5707 S   0  0  0  0  0  0  0  0  0  0  0  0
   -0.6895   -1.2489    0.3852 N   0  0  0  0  0  0  0  0  0  0  0  0
   -2.0592   -1.0279    0.1442 N   0  0  0  0  0  0  0  0  0  0  0  0
   -2.5954    0.1242    0.6961 C   0  0  0  0  0  0  0  0  0  0  0  0
   -2.0004    0.8299    1.5043 O   0  0  0  0  0  0  0  0  0  0  0  0
   -3.9530    0.5047    0.2191 C   0  0  0  0  0  0  0  0  0  0  0  0
   -4.3187    1.8584    0.2627 C   0  0  0  0  0  0  0  0  0  0  0  0
   -5.5831    2.2575   -0.1745 C   0  0  0  0  0  0  0  0  0  0  0  0
   -6.4783    1.3029   -0.6431 C   0  0  0  0  0  0  0  0  0  0  0  0
   -7.6917    1.6847   -1.0609 F   0  0  0  0  0  0  0  0  0  0  0  0
   -6.1361   -0.0453   -0.6776 C   0  0  0  0  0  0  0  0  0  0  0  0
   -4.8715   -0.4505   -0.2425 C   0  0  0  0  0  0  0  0  0  0  0  0
    0.2369   -0.6557   -0.4533 C   0  0  0  0  0  0  0  0  0  0  0  0
   -0.0126   -0.0262   -1.4739 O   0  0  0  0  0  0  0  0  0  0  0  0
    3.8178    2.1344    0.0385 H   0  0  0  0  0  0  0  0  0  0  0  0
    5.5386    2.3906   -0.3581 H   0  0  0  0  0  0  0  0  0  0  0  0
    4.4218    1.8121   -1.6286 H   0  0  0  0  0  0  0  0  0  0  0  0
    7.0188    0.6219    0.2466 H   0  0  0  0  0  0  0  0  0  0  0  0
    6.8731   -2.0229    0.8322 H   0  0  0  0  0  0  0  0  0  0  0  0
    4.3175   -2.7584    0.3786 H   0  0  0  0  0  0  0  0  0  0  0  0
    2.5147    0.1996   -1.4392 H   0  0  0  0  0  0  0  0  0  0  0  0
   -2.3801   -1.3218   -0.7727 H   0  0  0  0  0  0  0  0  0  0  0  0
   -3.6185    2.6042    0.6356 H   0  0  0  0  0  0  0  0  0  0  0  0
   -5.8746    3.3030   -0.1482 H   0  0  0  0  0  0  0  0  0  0  0  0
   -6.8615   -0.7712   -1.0330 H   0  0  0  0  0  0  0  0  0  0  0  0
   -4.6348   -1.5111   -0.2429 H   0  0  0  0  0  0  0  0  0  0  0  0
  1  2  1  0
  2  3  1  0
  3  4  2  0
  4  5  1  0
  5  6  2  0
  6  7  1  0
  7  8  2  3
  8  9  1  0
  9 10  1  0
 10 11  2  0
 10 12  1  0
 12 13  1  0
 13 14  1  0
 14 15  2  0
 14 16  1  0
 16 17  2  0
 17 18  1  0
 18 19  2  0
 19 20  1  0
 19 21  1  0
 21 22  2  0
 12 23  1  0
 23 24  2  0
  6  2  1  0
 23  8  1  0
 22 16  1  0
  1 25  1  0
  1 26  1  0
  1 27  1  0
  3 28  1  0
  4 29  1  0
  5 30  1  0
  7 31  1  0
 13 32  1  0
 17 33  1  0
 18 34  1  0
 21 35  1  0
 22 36  1  0
M  END
$$$$
