
     RDKit          3D

 50 53  0  0  0  0  0  0  0  0999 V2000
    1.2193   -3.9982   -1.6275 C   0  0  0  0  0  0  0  0  0  0  0  0
    2.1873   -3.0600   -1.0284 C   0  0  0  0  0  0  0  0  0  0  0  0
    3.5466   -2.8794   -1.1595 C   0  0  0  0  0  0  0  0  0  0  0  0
    3.8835   -1.7793   -0.3340 C   0  0  0  0  0  0  0  0  0  0  0  0
    2.7064   -1.3511    0.2452 C   0  0  0  0  0  0  0  0  0  0  0  0
    2.3736   -0.2406    1.1759 C   0  0  0  0  0  0  0  0  0  0  0  0
    1.3274    0.6255    0.6203 N   0  0  0  0  0  0  0  0  0  0  0  0
    1.7387    1.6680   -0.3222 C   0  0  0  0  0  0  0  0  0  0  0  0
    2.1735    1.1892   -1.6803 C   0  0  0  0  0  0  0  0  0  0  0  0
    3.3780    1.6342   -2.2396 C   0  0  0  0  0  0  0  0  0  0  0  0
    3.7499    1.2197   -3.5154 C   0  0  0  0  0  0  0  0  0  0  0  0
    2.8954    0.3792   -4.2057 C   0  0  0  0  0  0  0  0  0  0  0  0
    1.7219   -0.0616   -3.7114 N   0  0  0  0  0  0  0  0  0  0  0  0
    1.3894    0.3444   -2.4623 C   0  0  0  0  0  0  0  0  0  0  0  0
    0.0144    0.4024    1.0372 C   0  0  0  0  0  0  0  0  0  0  0  0
   -0.2515   -0.4152    1.9225 O   0  0  0  0  0  0  0  0  0  0  0  0
   -1.0896    1.2753    0.4130 C   0  0  0  0  0  0  0  0  0  0  0  0
   -2.4256    0.7544    0.6769 N   0  0  0  0  0  0  0  0  0  0  0  0
   -2.9542   -0.1535   -0.2307 C   0  0  0  0  0  0  0  0  0  0  0  0
   -2.3913   -0.4723   -1.2788 O   0  0  0  0  0  0  0  0  0  0  0  0
   -4.2644   -0.7990    0.2007 C   0  0  0  0  0  0  0  0  0  0  0  0
   -5.1509   -0.0234    0.9867 O   0  0  0  0  0  0  0  0  0  0  0  0
   -4.4988    0.6933    1.9545 C   0  0  0  0  0  0  0  0  0  0  0  0
   -5.2755    1.0649    3.0543 C   0  0  0  0  0  0  0  0  0  0  0  0
   -4.7124    1.8117    4.0851 C   0  0  0  0  0  0  0  0  0  0  0  0
   -3.3754    2.1920    4.0095 C   0  0  0  0  0  0  0  0  0  0  0  0
   -2.6032    1.8383    2.8973 C   0  0  0  0  0  0  0  0  0  0  0  0
   -3.1572    1.0916    1.8488 C   0  0  0  0  0  0  0  0  0  0  0  0
    1.6749   -2.1452   -0.1617 O   0  0  0  0  0  0  0  0  0  0  0  0
    0.4632   -3.4527   -2.2006 H   0  0  0  0  0  0  0  0  0  0  0  0
    1.7187   -4.6999   -2.3027 H   0  0  0  0  0  0  0  0  0  0  0  0
    0.7130   -4.5760   -0.8483 H   0  0  0  0  0  0  0  0  0  0  0  0
    4.2075   -3.4611   -1.7860 H   0  0  0  0  0  0  0  0  0  0  0  0
    4.8608   -1.3405   -0.1945 H   0  0  0  0  0  0  0  0  0  0  0  0
    2.0574   -0.6646    2.1350 H   0  0  0  0  0  0  0  0  0  0  0  0
    3.2581    0.3736    1.3796 H   0  0  0  0  0  0  0  0  0  0  0  0
    2.5572    2.2147    0.1635 H   0  0  0  0  0  0  0  0  0  0  0  0
    0.9446    2.4066   -0.4616 H   0  0  0  0  0  0  0  0  0  0  0  0
    4.0340    2.3037   -1.6890 H   0  0  0  0  0  0  0  0  0  0  0  0
    4.6809    1.5479   -3.9632 H   0  0  0  0  0  0  0  0  0  0  0  0
    3.1369    0.0292   -5.2049 H   0  0  0  0  0  0  0  0  0  0  0  0
    0.4447   -0.0568   -2.1018 H   0  0  0  0  0  0  0  0  0  0  0  0
   -1.0039    2.3022    0.7815 H   0  0  0  0  0  0  0  0  0  0  0  0
   -0.9447    1.3081   -0.6709 H   0  0  0  0  0  0  0  0  0  0  0  0
   -4.8082   -1.0737   -0.7099 H   0  0  0  0  0  0  0  0  0  0  0  0
   -4.0285   -1.7272    0.7358 H   0  0  0  0  0  0  0  0  0  0  0  0
   -6.3182    0.7634    3.1073 H   0  0  0  0  0  0  0  0  0  0  0  0
   -5.3131    2.0908    4.9467 H   0  0  0  0  0  0  0  0  0  0  0  0
   -2.9284    2.7639    4.8191 H   0  0  0  0  0  0  0  0  0  0  0  0
   -1.5622    2.1432    2.8942 H   0  0  0  0  0  0  0  0  0  0  0  0
  1  2  1  0
  2  3  2  0
  3  4  1  0
  4  5  2  0
  5  6  1  0
  6  7  1  0
  7  8  1  0
  8  9  1  0
  9 10  2  0
 10 11  1  0
 11 12  2  0
 12 13  1  0
 13 14  2  0
  7 15  1  0
 15 16  2  0
 15 17  1  0
 17 18  1  0
 18 19  1  0
 19 20  2  0
 19 21  1  0
 21 22  1  0
 22 23  1  0
 23 24  2  0
 24 25  1  0
 25 26  2  0
 26 27  1  0
 27 28  2  0
  5 29  1  0
 29  2  1  0
 14  9  1  0
 28 18  1  0
 28 23  1  0
  1 30  1  0
  1 31  1  0
  1 32  1  0
  3 33  1  0
  4 34  1  0
  6 35  1  0
  6 36  1  0
  8 37  1  0
  8 38  1  0
 10 39  1  0
 11 40  1  0
 12 41  1  0
 14 42  1  0
 17 43  1  0
 17 44  1  0
 21 45  1  0
 21 46  1  0
 24 47  1  0
 25 48  1  0
 26 49  1  0
 27 50  1  0
M  END
$$$$
