
     RDKit          3D

 44 45  0  0  0  0  0  0  0  0999 V2000
    3.2162   -2.1054   -3.8944 C   0  0  0  0  0  0  0  0  0  0  0  0
    2.4305   -0.9077   -4.4086 C   0  0  0  0  0  0  0  0  0  0  0  0
    1.5840   -0.2260   -3.3329 C   0  0  0  0  0  0  0  0  0  0  0  0
    2.4167    0.4239   -2.2239 C   0  0  0  0  0  0  0  0  0  0  0  0
    1.5483    1.1897   -1.3029 N   0  0  0  0  0  0  0  0  0  0  0  0
    1.2701    2.5603   -1.7561 C   0  0  0  0  0  0  0  0  0  0  0  0
    0.7938    0.5679   -0.2845 C   0  0  0  0  0  0  0  0  0  0  0  0
   -0.3492    1.0797    0.2234 C   0  0  0  0  0  0  0  0  0  0  0  0
   -1.1587    0.4464    1.2554 C   0  0  0  0  0  0  0  0  0  0  0  0
   -2.2199    1.0815    1.7889 C   0  0  0  0  0  0  0  0  0  0  0  0
   -3.0876    0.5031    2.8227 C   0  0  0  0  0  0  0  0  0  0  0  0
   -4.0932    1.1957    3.4168 C   0  0  0  0  0  0  0  0  0  0  0  0
   -4.3923    2.5492    3.0793 C   0  0  0  0  0  0  0  0  0  0  0  0
   -4.6375    3.6458    2.7864 N   0  0  0  0  0  0  0  0  0  0  0  0
   -4.9324    0.5932    4.4006 C   0  0  0  0  0  0  0  0  0  0  0  0
   -5.6090    0.0902    5.1984 N   0  0  0  0  0  0  0  0  0  0  0  0
   -2.7837   -0.9504    3.1649 C   0  0  0  0  0  0  0  0  0  0  0  0
   -1.2920   -1.2705    3.0857 C   0  0  0  0  0  0  0  0  0  0  0  0
   -0.7443   -0.9403    1.6929 C   0  0  0  0  0  0  0  0  0  0  0  0
    0.7770   -1.0856    1.6705 C   0  0  0  0  0  0  0  0  0  0  0  0
    1.3384   -0.7341    0.2917 C   0  0  0  0  0  0  0  0  0  0  0  0
    4.0031   -1.8006   -3.1962 H   0  0  0  0  0  0  0  0  0  0  0  0
    3.6986   -2.6231   -4.7304 H   0  0  0  0  0  0  0  0  0  0  0  0
    2.5596   -2.8200   -3.3879 H   0  0  0  0  0  0  0  0  0  0  0  0
    1.7640   -1.2472   -5.2098 H   0  0  0  0  0  0  0  0  0  0  0  0
    3.1205   -0.1834   -4.8557 H   0  0  0  0  0  0  0  0  0  0  0  0
    0.9636    0.5380   -3.8181 H   0  0  0  0  0  0  0  0  0  0  0  0
    0.8878   -0.9546   -2.8995 H   0  0  0  0  0  0  0  0  0  0  0  0
    2.9874   -0.3337   -1.6807 H   0  0  0  0  0  0  0  0  0  0  0  0
    3.1691    1.0885   -2.6647 H   0  0  0  0  0  0  0  0  0  0  0  0
    2.1175    2.9791   -2.3130 H   0  0  0  0  0  0  0  0  0  0  0  0
    1.1021    3.2280   -0.9041 H   0  0  0  0  0  0  0  0  0  0  0  0
    0.3905    2.5791   -2.4070 H   0  0  0  0  0  0  0  0  0  0  0  0
   -0.7285    2.0220   -0.1624 H   0  0  0  0  0  0  0  0  0  0  0  0
   -2.4471    2.0869    1.4349 H   0  0  0  0  0  0  0  0  0  0  0  0
   -3.1248   -1.2145    4.1717 H   0  0  0  0  0  0  0  0  0  0  0  0
   -3.3298   -1.5975    2.4658 H   0  0  0  0  0  0  0  0  0  0  0  0
   -1.1334   -2.3344    3.3045 H   0  0  0  0  0  0  0  0  0  0  0  0
   -0.7546   -0.7029    3.8572 H   0  0  0  0  0  0  0  0  0  0  0  0
   -1.1705   -1.6565    0.9751 H   0  0  0  0  0  0  0  0  0  0  0  0
    1.2327   -0.4285    2.4247 H   0  0  0  0  0  0  0  0  0  0  0  0
    1.0663   -2.1116    1.9306 H   0  0  0  0  0  0  0  0  0  0  0  0
    2.4278   -0.6694    0.4004 H   0  0  0  0  0  0  0  0  0  0  0  0
    1.1232   -1.5500   -0.4096 H   0  0  0  0  0  0  0  0  0  0  0  0
  1  2  1  0
  2  3  1  0
  3  4  1  0
  4  5  1  0
  5  6  1  0
  5  7  1  0
  7  8  2  0
  8  9  1  0
  9 10  2  0
 10 11  1  0
 11 12  2  3
 12 13  1  0
 13 14  3  0
 12 15  1  0
 15 16  3  0
 11 17  1  0
 17 18  1  0
 18 19  1  0
 19 20  1  0
 20 21  1  0
 21  7  1  0
 19  9  1  0
  1 22  1  0
  1 23  1  0
  1 24  1  0
  2 25  1  0
  2 26  1  0
  3 27  1  0
  3 28  1  0
  4 29  1  0
  4 30  1  0
  6 31  1  0
  6 32  1  0
  6 33  1  0
  8 34  1  0
 10 35  1  0
 17 36  1  0
 17 37  1  0
 18 38  1  0
 18 39  1  0
 19 40  1  0
 20 41  1  0
 20 42  1  0
 21 43  1  0
 21 44  1  0
M  END
$$$$
