
     RDKit          3D

 61 64  0  0  0  0  0  0  0  0999 V2000
    8.4156   -0.0373    1.8800 C   0  0  0  0  0  0  0  0  0  0  0  0
    7.3586   -0.7892    1.1173 C   0  0  0  0  0  0  0  0  0  0  0  0
    7.6009   -2.1292    0.7783 C   0  0  0  0  0  0  0  0  0  0  0  0
    6.6587   -2.8635    0.0655 C   0  0  0  0  0  0  0  0  0  0  0  0
    5.4624   -2.2654   -0.3210 C   0  0  0  0  0  0  0  0  0  0  0  0
    5.1796   -0.9294    0.0084 C   0  0  0  0  0  0  0  0  0  0  0  0
    3.9728   -0.3207   -0.3905 N   0  0  0  0  0  0  0  0  0  0  0  0
    2.8155   -0.7981    0.3970 C   0  0  0  0  0  0  0  0  0  0  0  0
    1.4945   -0.2833   -0.2049 C   0  0  0  0  0  0  0  0  0  0  0  0
    1.3190   -0.7017   -1.6053 N   0  0  0  0  0  0  0  0  0  0  0  0
    0.0968   -0.9861   -2.2006 C   0  0  0  0  0  0  0  0  0  0  0  0
   -0.0143   -1.5925   -3.2629 O   0  0  0  0  0  0  0  0  0  0  0  0
   -1.1406   -0.5304   -1.5307 C   0  0  0  0  0  0  0  0  0  0  0  0
   -2.1319   -1.4670   -1.2241 C   0  0  0  0  0  0  0  0  0  0  0  0
   -3.3137   -1.0518   -0.6028 C   0  0  0  0  0  0  0  0  0  0  0  0
   -3.5269    0.3052   -0.3416 C   0  0  0  0  0  0  0  0  0  0  0  0
   -4.6528    0.7899    0.3984 N   0  0  0  0  0  0  0  0  0  0  0  0
   -6.1702    0.1257    0.0447 S   0  0  0  0  0  6  0  0  0  0  0  0
   -6.3617    0.0502   -1.3856 O   0  0  0  0  0  0  0  0  0  0  0  0
   -6.3400   -1.0175    0.9147 O   0  0  0  0  0  0  0  0  0  0  0  0
   -7.3296    1.2609    0.5672 C   0  0  0  0  0  0  0  0  0  0  0  0
   -7.5930    2.5150   -0.0251 C   0  0  0  0  0  0  0  0  0  0  0  0
   -6.9846    3.1291   -1.2286 C   0  0  0  0  0  0  0  0  0  0  0  0
   -8.5372    3.1742    0.6606 N   0  0  0  0  0  0  0  0  0  0  0  0
   -8.9056    2.3393    1.7004 O   0  0  0  0  0  0  0  0  0  0  0  0
   -8.1823    1.1866    1.6411 C   0  0  0  0  0  0  0  0  0  0  0  0
   -8.4641    0.1890    2.6900 C   0  0  0  0  0  0  0  0  0  0  0  0
   -2.5225    1.2339   -0.6313 C   0  0  0  0  0  0  0  0  0  0  0  0
   -1.3371    0.8239   -1.2451 C   0  0  0  0  0  0  0  0  0  0  0  0
    2.5433   -1.0577   -2.3304 C   0  0  0  0  0  0  0  0  0  0  0  0
    3.7705   -0.2596   -1.8596 C   0  0  0  0  0  0  0  0  0  0  0  0
    6.1255   -0.1904    0.7599 C   0  0  0  0  0  0  0  0  0  0  0  0
    5.8451    1.2493    1.1149 C   0  0  0  0  0  0  0  0  0  0  0  0
    9.3667   -0.5783    1.8869 H   0  0  0  0  0  0  0  0  0  0  0  0
    8.6067    0.9357    1.4160 H   0  0  0  0  0  0  0  0  0  0  0  0
    8.1004    0.1071    2.9193 H   0  0  0  0  0  0  0  0  0  0  0  0
    8.5353   -2.6082    1.0652 H   0  0  0  0  0  0  0  0  0  0  0  0
    6.8570   -3.9006   -0.1935 H   0  0  0  0  0  0  0  0  0  0  0  0
    4.7444   -2.8550   -0.8838 H   0  0  0  0  0  0  0  0  0  0  0  0
    2.7828   -1.8958    0.4264 H   0  0  0  0  0  0  0  0  0  0  0  0
    2.9028   -0.4379    1.4289 H   0  0  0  0  0  0  0  0  0  0  0  0
    0.6539   -0.6389    0.3999 H   0  0  0  0  0  0  0  0  0  0  0  0
    1.4862    0.8137   -0.1968 H   0  0  0  0  0  0  0  0  0  0  0  0
   -1.9829   -2.5175   -1.4634 H   0  0  0  0  0  0  0  0  0  0  0  0
   -4.0546   -1.8049   -0.3454 H   0  0  0  0  0  0  0  0  0  0  0  0
   -4.4903    0.7228    1.4051 H   0  0  0  0  0  0  0  0  0  0  0  0
   -7.3348    2.6216   -2.1329 H   0  0  0  0  0  0  0  0  0  0  0  0
   -7.2466    4.1902   -1.3149 H   0  0  0  0  0  0  0  0  0  0  0  0
   -5.8949    3.0601   -1.1914 H   0  0  0  0  0  0  0  0  0  0  0  0
   -8.7275   -0.7769    2.2486 H   0  0  0  0  0  0  0  0  0  0  0  0
   -9.3014    0.5039    3.3223 H   0  0  0  0  0  0  0  0  0  0  0  0
   -7.5891    0.0538    3.3341 H   0  0  0  0  0  0  0  0  0  0  0  0
   -2.6677    2.2866   -0.3994 H   0  0  0  0  0  0  0  0  0  0  0  0
   -0.5803    1.5578   -1.5088 H   0  0  0  0  0  0  0  0  0  0  0  0
    2.3896   -0.8996   -3.4039 H   0  0  0  0  0  0  0  0  0  0  0  0
    2.7044   -2.1316   -2.1775 H   0  0  0  0  0  0  0  0  0  0  0  0
    3.6162    0.7977   -2.1122 H   0  0  0  0  0  0  0  0  0  0  0  0
    4.6589   -0.5809   -2.4181 H   0  0  0  0  0  0  0  0  0  0  0  0
    6.2880    1.5154    2.0807 H   0  0  0  0  0  0  0  0  0  0  0  0
    6.2524    1.9106    0.3442 H   0  0  0  0  0  0  0  0  0  0  0  0
    4.7739    1.4475    1.2183 H   0  0  0  0  0  0  0  0  0  0  0  0
  1  2  1  0
  2  3  2  0
  3  4  1  0
  4  5  2  0
  5  6  1  0
  6  7  1  0
  7  8  1  0
  8  9  1  0
  9 10  1  0
 10 11  1  0
 11 12  2  0
 11 13  1  0
 13 14  2  0
 14 15  1  0
 15 16  2  0
 16 17  1  0
 17 18  1  0
 18 19  2  0
 18 20  2  0
 18 21  1  0
 21 22  1  0
 22 23  1  0
 22 24  2  0
 24 25  1  0
 25 26  1  0
 26 27  1  0
 16 28  1  0
 28 29  2  0
 10 30  1  0
 30 31  1  0
  6 32  2  0
 32 33  1  0
 32  2  1  0
 31  7  1  0
 29 13  1  0
 26 21  2  0
  1 34  1  0
  1 35  1  0
  1 36  1  0
  3 37  1  0
  4 38  1  0
  5 39  1  0
  8 40  1  0
  8 41  1  0
  9 42  1  0
  9 43  1  0
 14 44  1  0
 15 45  1  0
 17 46  1  0
 23 47  1  0
 23 48  1  0
 23 49  1  0
 27 50  1  0
 27 51  1  0
 27 52  1  0
 28 53  1  0
 29 54  1  0
 30 55  1  0
 30 56  1  0
 31 57  1  0
 31 58  1  0
 33 59  1  0
 33 60  1  0
 33 61  1  0
M  END
$$$$
