
     RDKit          3D

 36 38  0  0  0  0  0  0  0  0999 V2000
   -0.6525    0.2258   -3.0278 C   0  0  0  0  0  0  0  0  0  0  0  0
   -1.0872    1.3108   -2.0515 C   0  0  0  0  0  0  0  0  0  0  0  0
   -1.5260    0.7456   -0.7706 N   0  0  0  0  0  0  0  0  0  0  0  0
   -0.6623    0.4666    0.2752 C   0  0  0  0  0  0  0  0  0  0  0  0
    0.7605    0.8531    0.1104 C   0  0  0  0  0  0  0  0  0  0  0  0
    1.6927   -0.1008    0.2386 C   0  0  0  0  0  0  0  0  0  0  0  0
    3.0847    0.1611    0.1172 C   0  0  0  0  0  0  0  0  0  0  0  0
    3.7913    1.3521   -0.0574 C   0  0  0  0  0  0  0  0  0  0  0  0
    5.1754    1.0477   -0.1147 C   0  0  0  0  0  0  0  0  0  0  0  0
    5.2434   -0.3128    0.0275 C   0  0  0  0  0  0  0  0  0  0  0  0
    6.3522   -1.2127    0.0521 N   0  0  0  0  0  4  0  0  0  0  0  0
    6.1184   -2.4199    0.1899 O   0  0  0  0  0  0  0  0  0  0  0  0
    7.4735   -0.7006   -0.0716 O   0  0  0  0  0  1  0  0  0  0  0  0
    4.0123   -0.8618    0.1666 O   0  0  0  0  0  0  0  0  0  0  0  0
   -1.0251   -0.0965    1.3853 N   0  0  0  0  0  0  0  0  0  0  0  0
   -2.3663   -0.4514    1.5525 C   0  0  0  0  0  0  0  0  0  0  0  0
   -2.7639   -1.0431    2.7539 C   0  0  0  0  0  0  0  0  0  0  0  0
   -4.0957   -1.4146    2.9588 C   0  0  0  0  0  0  0  0  0  0  0  0
   -5.0431   -1.1968    1.9591 C   0  0  0  0  0  0  0  0  0  0  0  0
   -4.6574   -0.6074    0.7558 C   0  0  0  0  0  0  0  0  0  0  0  0
   -3.3203   -0.2382    0.5635 C   0  0  0  0  0  0  0  0  0  0  0  0
   -2.8730    0.3820   -0.6940 C   0  0  0  0  0  0  0  0  0  0  0  0
   -3.6820    0.5402   -1.6062 O   0  0  0  0  0  0  0  0  0  0  0  0
   -0.3355    0.6732   -3.9749 H   0  0  0  0  0  0  0  0  0  0  0  0
    0.1834   -0.3575   -2.6295 H   0  0  0  0  0  0  0  0  0  0  0  0
   -1.4728   -0.4687   -3.2364 H   0  0  0  0  0  0  0  0  0  0  0  0
   -1.9066    1.8871   -2.4968 H   0  0  0  0  0  0  0  0  0  0  0  0
   -0.2668    2.0167   -1.8967 H   0  0  0  0  0  0  0  0  0  0  0  0
    0.9761    1.8961   -0.0739 H   0  0  0  0  0  0  0  0  0  0  0  0
    1.4015   -1.1294    0.4427 H   0  0  0  0  0  0  0  0  0  0  0  0
    3.3547    2.3394   -0.1296 H   0  0  0  0  0  0  0  0  0  0  0  0
    6.0063    1.7285   -0.2399 H   0  0  0  0  0  0  0  0  0  0  0  0
   -2.0269   -1.2153    3.5345 H   0  0  0  0  0  0  0  0  0  0  0  0
   -4.3908   -1.8747    3.8988 H   0  0  0  0  0  0  0  0  0  0  0  0
   -6.0793   -1.4865    2.1164 H   0  0  0  0  0  0  0  0  0  0  0  0
   -5.3928   -0.4375   -0.0272 H   0  0  0  0  0  0  0  0  0  0  0  0
  1  2  1  0
  2  3  1  0
  3  4  1  0
  4  5  1  0
  5  6  2  3
  6  7  1  0
  7  8  2  0
  8  9  1  0
  9 10  2  0
 10 11  1  0
 11 12  2  0
 11 13  1  0
 10 14  1  0
  4 15  2  0
 15 16  1  0
 16 17  2  0
 17 18  1  0
 18 19  2  0
 19 20  1  0
 20 21  2  0
 21 22  1  0
 22 23  2  0
 22  3  1  0
 14  7  1  0
 21 16  1  0
  1 24  1  0
  1 25  1  0
  1 26  1  0
  2 27  1  0
  2 28  1  0
  5 29  1  0
  6 30  1  0
  8 31  1  0
  9 32  1  0
 17 33  1  0
 18 34  1  0
 19 35  1  0
 20 36  1  0
M  CHG  2  11   1  13  -1
M  END
$$$$
