
     RDKit          3D

 45 47  0  0  0  0  0  0  0  0999 V2000
    1.9580   -2.6305   -1.1663 O   0  0  0  0  0  0  0  0  0  0  0  0
    1.8128   -1.6128   -0.5095 C   0  0  0  0  0  0  0  0  0  0  0  0
    2.7332   -0.5992   -0.3797 N   0  0  0  0  0  0  0  0  0  0  0  0
    4.0832   -0.7774   -0.8471 C   0  0  0  0  0  0  0  0  0  0  0  0
    4.7930    0.5189   -0.7448 C   0  0  0  0  0  0  0  0  0  0  0  0
    5.4047    1.3434   -1.6659 C   0  0  0  0  0  0  0  0  0  0  0  0
    5.9041    2.4520   -0.9401 C   0  0  0  0  0  0  0  0  0  0  0  0
    5.5644    2.2356    0.3739 C   0  0  0  0  0  0  0  0  0  0  0  0
    4.8920    1.0640    0.5046 O   0  0  0  0  0  0  0  0  0  0  0  0
    0.5407   -1.3606    0.3117 C   0  0  0  0  0  0  0  0  0  0  0  0
   -0.7820   -1.4538   -0.3889 C   0  0  0  0  0  0  0  0  0  0  0  0
   -0.9438   -1.6670   -1.7055 C   0  0  0  0  0  0  0  0  0  0  0  0
   -2.2529   -1.7462   -2.4520 C   0  0  0  0  0  0  0  0  0  0  0  0
   -3.4710   -1.2436   -1.7155 C   0  0  0  0  0  0  0  0  0  0  0  0
   -3.7916    0.1211   -1.7223 C   0  0  0  0  0  0  0  0  0  0  0  0
   -4.9017    0.5904   -1.0205 C   0  0  0  0  0  0  0  0  0  0  0  0
   -5.6983   -0.2977   -0.3017 C   0  0  0  0  0  0  0  0  0  0  0  0
   -5.3857   -1.6549   -0.2826 C   0  0  0  0  0  0  0  0  0  0  0  0
   -4.2771   -2.1272   -0.9852 C   0  0  0  0  0  0  0  0  0  0  0  0
    0.7672   -1.0334    1.5467 N   0  0  0  0  0  0  0  0  0  0  0  0
   -0.2995   -0.7478    2.3528 C   0  0  0  0  0  0  0  0  0  0  0  0
   -1.1200   -1.5759    2.7274 O   0  0  0  0  0  0  0  0  0  0  0  0
   -0.3270    0.6499    2.7330 C   0  0  0  0  0  0  0  0  0  0  0  0
   -1.1841    1.3394    3.5718 C   0  0  0  0  0  0  0  0  0  0  0  0
   -0.7492    2.6880    3.5838 C   0  0  0  0  0  0  0  0  0  0  0  0
    0.3370    2.7479    2.7427 C   0  0  0  0  0  0  0  0  0  0  0  0
    1.3426    4.3134    2.3509 Br  0  0  0  0  0  0  0  0  0  0  0  0
    0.6017    1.5225    2.2215 O   0  0  0  0  0  0  0  0  0  0  0  0
    2.5952    0.0242    0.4114 H   0  0  0  0  0  0  0  0  0  0  0  0
    4.0625   -1.1449   -1.8784 H   0  0  0  0  0  0  0  0  0  0  0  0
    4.5680   -1.5350   -0.2225 H   0  0  0  0  0  0  0  0  0  0  0  0
    5.4778    1.1664   -2.7299 H   0  0  0  0  0  0  0  0  0  0  0  0
    6.4434    3.3055   -1.3266 H   0  0  0  0  0  0  0  0  0  0  0  0
    5.7200    2.7886    1.2892 H   0  0  0  0  0  0  0  0  0  0  0  0
   -1.6559   -1.3262    0.2416 H   0  0  0  0  0  0  0  0  0  0  0  0
   -0.0760   -1.8102   -2.3480 H   0  0  0  0  0  0  0  0  0  0  0  0
   -2.4156   -2.7837   -2.7680 H   0  0  0  0  0  0  0  0  0  0  0  0
   -2.1542   -1.1711   -3.3815 H   0  0  0  0  0  0  0  0  0  0  0  0
   -3.1743    0.8266   -2.2734 H   0  0  0  0  0  0  0  0  0  0  0  0
   -5.1439    1.6494   -1.0326 H   0  0  0  0  0  0  0  0  0  0  0  0
   -6.5620    0.0678    0.2468 H   0  0  0  0  0  0  0  0  0  0  0  0
   -6.0032   -2.3471    0.2832 H   0  0  0  0  0  0  0  0  0  0  0  0
   -4.0401   -3.1878   -0.9520 H   0  0  0  0  0  0  0  0  0  0  0  0
   -2.0133    0.9054    4.1138 H   0  0  0  0  0  0  0  0  0  0  0  0
   -1.1793    3.5132    4.1337 H   0  0  0  0  0  0  0  0  0  0  0  0
  1  2  2  0
  2  3  1  0
  3  4  1  0
  4  5  1  0
  5  6  2  0
  6  7  1  0
  7  8  2  0
  8  9  1  0
  2 10  1  0
 10 11  1  0
 11 12  2  3
 12 13  1  0
 13 14  1  0
 14 15  2  0
 15 16  1  0
 16 17  2  0
 17 18  1  0
 18 19  2  0
 10 20  2  3
 20 21  1  0
 21 22  2  0
 21 23  1  0
 23 24  2  0
 24 25  1  0
 25 26  2  0
 26 27  1  0
 26 28  1  0
  9  5  1  0
 19 14  1  0
 28 23  1  0
  3 29  1  0
  4 30  1  0
  4 31  1  0
  6 32  1  0
  7 33  1  0
  8 34  1  0
 11 35  1  0
 12 36  1  0
 13 37  1  0
 13 38  1  0
 15 39  1  0
 16 40  1  0
 17 41  1  0
 18 42  1  0
 19 43  1  0
 24 44  1  0
 25 45  1  0
M  END
$$$$
