
     RDKit          3D

 41 43  0  0  0  0  0  0  0  0999 V2000
   -6.2527   -1.1410   -0.8335 C   0  0  0  0  0  0  0  0  0  0  0  0
   -6.0506    0.3640   -0.8085 C   0  0  0  0  0  0  0  0  0  0  0  0
   -4.8416    0.7223   -1.4756 O   0  0  0  0  0  0  0  0  0  0  0  0
   -3.6874    0.8060   -0.7508 C   0  0  0  0  0  0  0  0  0  0  0  0
   -2.5973    1.3203   -1.4544 C   0  0  0  0  0  0  0  0  0  0  0  0
   -1.3485    1.4626   -0.8409 C   0  0  0  0  0  0  0  0  0  0  0  0
   -1.1670    1.0953    0.4978 C   0  0  0  0  0  0  0  0  0  0  0  0
    0.1197    1.2270    1.1397 N   0  0  0  0  0  0  0  0  0  0  0  0
    1.2178    0.6521    0.4677 C   0  0  0  0  0  0  0  0  0  0  0  0
    1.1522    0.1899   -0.6699 O   0  0  0  0  0  0  0  0  0  0  0  0
    2.5084    0.6268    1.2166 C   0  0  0  0  0  0  0  0  0  0  0  0
    3.6330   -0.0278    0.8611 C   0  0  0  0  0  0  0  0  0  0  0  0
    3.8271   -0.8952   -0.2480 C   0  0  0  0  0  0  0  0  0  0  0  0
    3.0462   -1.9170   -0.7769 C   0  0  0  0  0  0  0  0  0  0  0  0
    3.7490   -2.4958   -1.8605 C   0  0  0  0  0  0  0  0  0  0  0  0
    4.9442   -1.8251   -1.9345 C   0  0  0  0  0  0  0  0  0  0  0  0
    6.1197   -1.9306   -2.8196 C   0  0  0  0  0  0  0  0  0  0  0  0
    5.0069   -0.8789   -0.9623 O   0  0  0  0  0  0  0  0  0  0  0  0
    2.6313    1.3930    2.4741 C   0  0  0  0  0  0  0  0  0  0  0  0
    3.6645    1.4983    3.1259 O   0  0  0  0  0  0  0  0  0  0  0  0
    1.4864    1.9921    2.9002 N   0  0  0  0  0  0  0  0  0  0  0  0
    0.2423    1.9592    2.3281 C   0  0  0  0  0  0  0  0  0  0  0  0
   -0.9219    2.8720    3.1314 S   0  0  0  0  0  0  0  0  0  0  0  0
   -2.2604    0.5569    1.1923 C   0  0  0  0  0  0  0  0  0  0  0  0
   -3.5109    0.4163    0.5743 C   0  0  0  0  0  0  0  0  0  0  0  0
   -7.2130   -1.4094   -0.3840 H   0  0  0  0  0  0  0  0  0  0  0  0
   -6.2303   -1.5130   -1.8633 H   0  0  0  0  0  0  0  0  0  0  0  0
   -5.4571   -1.6612   -0.2921 H   0  0  0  0  0  0  0  0  0  0  0  0
   -6.8655    0.8312   -1.3733 H   0  0  0  0  0  0  0  0  0  0  0  0
   -6.1125    0.7778    0.2041 H   0  0  0  0  0  0  0  0  0  0  0  0
   -2.7189    1.6153   -2.4943 H   0  0  0  0  0  0  0  0  0  0  0  0
   -0.5293    1.8753   -1.4253 H   0  0  0  0  0  0  0  0  0  0  0  0
    4.5361    0.0985    1.4575 H   0  0  0  0  0  0  0  0  0  0  0  0
    2.0666   -2.2088   -0.4243 H   0  0  0  0  0  0  0  0  0  0  0  0
    3.4226   -3.3024   -2.5014 H   0  0  0  0  0  0  0  0  0  0  0  0
    7.0154   -2.1730   -2.2396 H   0  0  0  0  0  0  0  0  0  0  0  0
    5.9773   -2.7140   -3.5703 H   0  0  0  0  0  0  0  0  0  0  0  0
    6.2914   -0.9848   -3.3425 H   0  0  0  0  0  0  0  0  0  0  0  0
    1.5783    2.5279    3.7552 H   0  0  0  0  0  0  0  0  0  0  0  0
   -2.1543    0.2126    2.2184 H   0  0  0  0  0  0  0  0  0  0  0  0
   -4.3174   -0.0148    1.1575 H   0  0  0  0  0  0  0  0  0  0  0  0
  1  2  1  0
  2  3  1  0
  3  4  1  0
  4  5  2  0
  5  6  1  0
  6  7  2  0
  7  8  1  0
  8  9  1  0
  9 10  2  0
  9 11  1  0
 11 12  2  3
 12 13  1  0
 13 14  2  0
 14 15  1  0
 15 16  2  0
 16 17  1  0
 16 18  1  0
 11 19  1  0
 19 20  2  0
 19 21  1  0
 21 22  1  0
 22 23  2  0
  7 24  1  0
 24 25  2  0
 25  4  1  0
 22  8  1  0
 18 13  1  0
  1 26  1  0
  1 27  1  0
  1 28  1  0
  2 29  1  0
  2 30  1  0
  5 31  1  0
  6 32  1  0
 12 33  1  0
 14 34  1  0
 15 35  1  0
 17 36  1  0
 17 37  1  0
 17 38  1  0
 21 39  1  0
 24 40  1  0
 25 41  1  0
M  END
$$$$
