
     RDKit          3D

 35 38  0  0  0  0  0  0  0  0999 V2000
   -2.3828   -2.1546   -0.7811 O   0  0  0  0  0  0  0  0  0  0  0  0
   -1.5952   -0.9092   -0.4301 P   0  0  0  0  0  5  0  0  0  0  0  0
   -1.6863    0.3517   -1.4739 N   0  0  0  0  0  0  0  0  0  0  0  0
   -2.0589    1.5672   -1.0653 C   0  0  0  0  0  0  0  0  0  0  0  0
   -2.5884    1.8689    0.0987 N   0  0  0  0  0  0  0  0  0  0  0  0
   -2.8137    3.2262    0.1971 C   0  0  0  0  0  0  0  0  0  0  0  0
   -2.4823    3.9580   -0.9238 C   0  0  0  0  0  0  0  0  0  0  0  0
   -1.8501    2.9156   -2.1254 S   0  0  0  0  0  0  0  0  0  0  0  0
   -1.4457   -0.5786    1.3200 C   0  0  0  0  0  0  0  0  0  0  0  0
   -0.4076    0.1986    1.8660 C   0  0  0  0  0  0  0  0  0  0  0  0
   -0.3709    0.4736    3.2359 C   0  0  0  0  0  0  0  0  0  0  0  0
   -1.3867   -0.0022    4.0731 C   0  0  0  0  0  0  0  0  0  0  0  0
   -2.4290   -0.7660    3.5474 C   0  0  0  0  0  0  0  0  0  0  0  0
   -2.4526   -1.0594    2.1820 C   0  0  0  0  0  0  0  0  0  0  0  0
    0.1300   -1.1698   -0.9156 C   0  0  0  0  0  0  0  0  0  0  0  0
    0.8568   -0.2587   -1.5462 N   0  0  0  0  0  0  0  0  0  0  0  0
    2.1409   -0.7323   -1.7356 C   0  0  0  0  0  0  0  0  0  0  0  0
    3.2098    0.0027   -2.2929 C   0  0  0  0  0  0  0  0  0  0  0  0
    4.4649   -0.5977   -2.4433 C   0  0  0  0  0  0  0  0  0  0  0  0
    4.6545   -1.9311   -2.0827 C   0  0  0  0  0  0  0  0  0  0  0  0
    3.6070   -2.6856   -1.5299 C   0  0  0  0  0  0  0  0  0  0  0  0
    2.3622   -2.0550   -1.3345 C   0  0  0  0  0  0  0  0  0  0  0  0
    0.9239   -2.6616   -0.5954 S   0  0  0  0  0  0  0  0  0  0  0  0
   -1.2376    0.2584   -2.3809 H   0  0  0  0  0  0  0  0  0  0  0  0
   -3.2393    3.6202    1.1128 H   0  0  0  0  0  0  0  0  0  0  0  0
   -2.5798    5.0209   -1.0918 H   0  0  0  0  0  0  0  0  0  0  0  0
    0.3559    0.6313    1.2200 H   0  0  0  0  0  0  0  0  0  0  0  0
    0.4340    1.0821    3.6474 H   0  0  0  0  0  0  0  0  0  0  0  0
   -1.3722    0.2353    5.1354 H   0  0  0  0  0  0  0  0  0  0  0  0
   -3.2327   -1.1206    4.1939 H   0  0  0  0  0  0  0  0  0  0  0  0
   -3.2780   -1.6484    1.7773 H   0  0  0  0  0  0  0  0  0  0  0  0
    3.0543    1.0432   -2.5693 H   0  0  0  0  0  0  0  0  0  0  0  0
    5.2989   -0.0050   -2.8289 H   0  0  0  0  0  0  0  0  0  0  0  0
    5.6326   -2.3914   -2.2159 H   0  0  0  0  0  0  0  0  0  0  0  0
    3.7642   -3.7267   -1.2444 H   0  0  0  0  0  0  0  0  0  0  0  0
  1  2  2  0
  2  3  1  0
  3  4  1  0
  4  5  2  0
  5  6  1  0
  6  7  2  0
  7  8  1  0
  2  9  1  0
  9 10  2  0
 10 11  1  0
 11 12  2  0
 12 13  1  0
 13 14  2  0
  2 15  1  0
 15 16  2  0
 16 17  1  0
 17 18  2  0
 18 19  1  0
 19 20  2  0
 20 21  1  0
 21 22  2  0
 22 23  1  0
  8  4  1  0
 14  9  1  0
 23 15  1  0
 22 17  1  0
  3 24  1  0
  6 25  1  0
  7 26  1  0
 10 27  1  0
 11 28  1  0
 12 29  1  0
 13 30  1  0
 14 31  1  0
 18 32  1  0
 19 33  1  0
 20 34  1  0
 21 35  1  0
M  END
$$$$
