
     RDKit          3D

 41 43  0  0  0  0  0  0  0  0999 V2000
   -6.6683   -1.2818    0.7921 C   0  0  0  0  0  0  0  0  0  0  0  0
   -6.6079   -0.0197   -0.0507 C   0  0  0  0  0  0  0  0  0  0  0  0
   -5.7762    0.9621    0.5652 O   0  0  0  0  0  0  0  0  0  0  0  0
   -4.4398    0.9671    0.2854 C   0  0  0  0  0  0  0  0  0  0  0  0
   -3.7330    2.0256    0.8583 C   0  0  0  0  0  0  0  0  0  0  0  0
   -2.3540    2.1590    0.6637 C   0  0  0  0  0  0  0  0  0  0  0  0
   -1.6527    1.2343   -0.1203 C   0  0  0  0  0  0  0  0  0  0  0  0
   -0.2262    1.3480   -0.3172 N   0  0  0  0  0  0  0  0  0  0  0  0
    0.5326    0.2029   -0.0139 C   0  0  0  0  0  0  0  0  0  0  0  0
    0.0487   -0.8463    0.4189 O   0  0  0  0  0  0  0  0  0  0  0  0
    2.0158    0.3056   -0.1940 C   0  0  0  0  0  0  0  0  0  0  0  0
    2.6979   -0.8426   -0.0040 C   0  0  0  0  0  0  0  0  0  0  0  0
    4.1015   -1.0409   -0.0954 C   0  0  0  0  0  0  0  0  0  0  0  0
    5.1692   -0.3637    0.4822 C   0  0  0  0  0  0  0  0  0  0  0  0
    6.3649   -1.0176    0.1007 C   0  0  0  0  0  0  0  0  0  0  0  0
    5.9798   -2.0843   -0.6730 C   0  0  0  0  0  0  0  0  0  0  0  0
    6.7154   -3.1549   -1.3722 C   0  0  0  0  0  0  0  0  0  0  0  0
    4.6261   -2.1154   -0.7812 O   0  0  0  0  0  0  0  0  0  0  0  0
    2.6109    1.5965   -0.5833 C   0  0  0  0  0  0  0  0  0  0  0  0
    3.8024    1.8168   -0.7506 O   0  0  0  0  0  0  0  0  0  0  0  0
    1.7114    2.5992   -0.7946 N   0  0  0  0  0  0  0  0  0  0  0  0
    0.3429    2.5479   -0.7590 C   0  0  0  0  0  0  0  0  0  0  0  0
   -0.4238    3.9364   -1.3224 S   0  0  0  0  0  0  0  0  0  0  0  0
   -2.3663    0.1616   -0.6753 C   0  0  0  0  0  0  0  0  0  0  0  0
   -3.7479    0.0308   -0.4780 C   0  0  0  0  0  0  0  0  0  0  0  0
   -5.6855   -1.7549    0.8764 H   0  0  0  0  0  0  0  0  0  0  0  0
   -7.3655   -2.0038    0.3573 H   0  0  0  0  0  0  0  0  0  0  0  0
   -6.9950   -1.0467    1.8104 H   0  0  0  0  0  0  0  0  0  0  0  0
   -6.3226   -0.2219   -1.0889 H   0  0  0  0  0  0  0  0  0  0  0  0
   -7.6141    0.4128   -0.0959 H   0  0  0  0  0  0  0  0  0  0  0  0
   -4.2607    2.7535    1.4708 H   0  0  0  0  0  0  0  0  0  0  0  0
   -1.8441    2.9792    1.1621 H   0  0  0  0  0  0  0  0  0  0  0  0
    2.1544   -1.7620    0.2091 H   0  0  0  0  0  0  0  0  0  0  0  0
    5.0920    0.5154    1.1073 H   0  0  0  0  0  0  0  0  0  0  0  0
    7.3771   -0.7448    0.3628 H   0  0  0  0  0  0  0  0  0  0  0  0
    6.5282   -3.1071   -2.4493 H   0  0  0  0  0  0  0  0  0  0  0  0
    6.3991   -4.1377   -1.0090 H   0  0  0  0  0  0  0  0  0  0  0  0
    7.7936   -3.0623   -1.2088 H   0  0  0  0  0  0  0  0  0  0  0  0
    2.1214    3.4656   -1.1233 H   0  0  0  0  0  0  0  0  0  0  0  0
   -1.8593   -0.5888   -1.2784 H   0  0  0  0  0  0  0  0  0  0  0  0
   -4.2425   -0.8231   -0.9280 H   0  0  0  0  0  0  0  0  0  0  0  0
  1  2  1  0
  2  3  1  0
  3  4  1  0
  4  5  2  0
  5  6  1  0
  6  7  2  0
  7  8  1  0
  8  9  1  0
  9 10  2  0
  9 11  1  0
 11 12  2  3
 12 13  1  0
 13 14  2  0
 14 15  1  0
 15 16  2  0
 16 17  1  0
 16 18  1  0
 11 19  1  0
 19 20  2  0
 19 21  1  0
 21 22  1  0
 22 23  2  0
  7 24  1  0
 24 25  2  0
 25  4  1  0
 22  8  1  0
 18 13  1  0
  1 26  1  0
  1 27  1  0
  1 28  1  0
  2 29  1  0
  2 30  1  0
  5 31  1  0
  6 32  1  0
 12 33  1  0
 14 34  1  0
 15 35  1  0
 17 36  1  0
 17 37  1  0
 17 38  1  0
 21 39  1  0
 24 40  1  0
 25 41  1  0
M  END
$$$$
