
     RDKit          3D

 40 41  0  0  0  0  0  0  0  0999 V2000
   -0.6356    2.4718   -3.0812 C   0  0  0  0  0  0  0  0  0  0  0  0
   -0.0951    2.6250   -1.6653 C   0  0  0  0  0  0  0  0  0  0  0  0
   -0.5653    1.5162   -0.7472 C   0  0  0  0  0  0  0  0  0  0  0  0
   -1.7264    1.6710    0.0111 C   0  0  0  0  0  0  0  0  0  0  0  0
   -2.5458    2.9304   -0.0047 C   0  0  0  0  0  0  0  0  0  0  0  0
   -2.2012    0.7067    0.8306 N   0  0  0  0  0  0  0  0  0  0  0  0
   -1.5788   -0.4837    0.9381 C   0  0  0  0  0  0  0  0  0  0  0  0
   -2.1098   -1.4751    1.7909 C   0  0  0  0  0  0  0  0  0  0  0  0
   -3.2576   -1.1218    2.4716 O   0  0  0  0  0  0  0  0  0  0  0  0
   -3.8739   -2.1006    3.2941 C   0  0  0  0  0  0  0  0  0  0  0  0
   -1.4930   -2.7241    1.9249 C   0  0  0  0  0  0  0  0  0  0  0  0
   -0.3413   -3.0058    1.2076 C   0  0  0  0  0  0  0  0  0  0  0  0
    0.1934   -2.0390    0.3621 C   0  0  0  0  0  0  0  0  0  0  0  0
   -0.4038   -0.7589    0.2107 C   0  0  0  0  0  0  0  0  0  0  0  0
    0.1041    0.2773   -0.6332 C   0  0  0  0  0  0  0  0  0  0  0  0
    1.6262   -0.0023   -1.5836 S   0  0  0  0  0  0  0  0  0  0  0  0
    2.8406    0.3850   -0.2705 C   0  0  0  0  0  0  0  0  0  0  0  0
    4.2627    0.1027   -0.7346 C   0  0  0  0  0  0  0  0  0  0  0  0
    4.5550   -1.3705   -0.8019 C   0  0  0  0  0  0  0  0  0  0  0  0
    3.9824   -2.2672   -0.2065 O   0  0  0  0  0  0  0  0  0  0  0  0
    5.6144   -1.6396   -1.5903 O   0  0  0  0  0  0  0  0  0  0  0  0
   -0.3084    1.5341   -3.5409 H   0  0  0  0  0  0  0  0  0  0  0  0
   -1.7303    2.4831   -3.0943 H   0  0  0  0  0  0  0  0  0  0  0  0
   -0.2826    3.2958   -3.7096 H   0  0  0  0  0  0  0  0  0  0  0  0
    0.9985    2.6799   -1.6850 H   0  0  0  0  0  0  0  0  0  0  0  0
   -0.3961    3.6023   -1.2715 H   0  0  0  0  0  0  0  0  0  0  0  0
   -2.8641    3.1757   -1.0219 H   0  0  0  0  0  0  0  0  0  0  0  0
   -1.9733    3.7633    0.4146 H   0  0  0  0  0  0  0  0  0  0  0  0
   -3.4505    2.8126    0.6019 H   0  0  0  0  0  0  0  0  0  0  0  0
   -4.1783   -2.9752    2.7098 H   0  0  0  0  0  0  0  0  0  0  0  0
   -4.7784   -1.6568    3.7215 H   0  0  0  0  0  0  0  0  0  0  0  0
   -3.2205   -2.3855    4.1251 H   0  0  0  0  0  0  0  0  0  0  0  0
   -1.8864   -3.4942    2.5788 H   0  0  0  0  0  0  0  0  0  0  0  0
    0.1447   -3.9736    1.3027 H   0  0  0  0  0  0  0  0  0  0  0  0
    1.0971   -2.3037   -0.1841 H   0  0  0  0  0  0  0  0  0  0  0  0
    2.7441    1.4486   -0.0278 H   0  0  0  0  0  0  0  0  0  0  0  0
    2.6069   -0.1867    0.6334 H   0  0  0  0  0  0  0  0  0  0  0  0
    4.9697    0.5354   -0.0175 H   0  0  0  0  0  0  0  0  0  0  0  0
    4.4498    0.5616   -1.7122 H   0  0  0  0  0  0  0  0  0  0  0  0
    5.7068   -2.6145   -1.5457 H   0  0  0  0  0  0  0  0  0  0  0  0
  1  2  1  0
  2  3  1  0
  3  4  2  0
  4  5  1  0
  4  6  1  0
  6  7  2  0
  7  8  1  0
  8  9  1  0
  9 10  1  0
  8 11  2  0
 11 12  1  0
 12 13  2  0
 13 14  1  0
 14 15  2  0
 15 16  1  0
 16 17  1  0
 17 18  1  0
 18 19  1  0
 19 20  2  0
 19 21  1  0
 15  3  1  0
 14  7  1  0
  1 22  1  0
  1 23  1  0
  1 24  1  0
  2 25  1  0
  2 26  1  0
  5 27  1  0
  5 28  1  0
  5 29  1  0
 10 30  1  0
 10 31  1  0
 10 32  1  0
 11 33  1  0
 12 34  1  0
 13 35  1  0
 17 36  1  0
 17 37  1  0
 18 38  1  0
 18 39  1  0
 21 40  1  0
M  END
$$$$
