
     RDKit          3D

 43 45  0  0  0  0  0  0  0  0999 V2000
   -5.1928   -0.6202    3.0164 C   0  0  0  0  0  0  0  0  0  0  0  0
   -6.0868   -0.7491    2.0251 C   0  0  0  0  0  0  0  0  0  0  0  0
   -5.9152   -0.4659    0.5528 C   0  0  0  0  0  0  0  0  0  0  0  0
   -4.5755   -0.0070    0.2222 N   0  0  0  0  0  0  0  0  0  0  0  0
   -4.3358    1.3594    0.2390 C   0  0  0  0  0  0  0  0  0  0  0  0
   -5.1839    2.2110    0.4960 O   0  0  0  0  0  0  0  0  0  0  0  0
   -3.0674    1.7552   -0.0577 N   0  0  0  0  0  0  0  0  0  0  0  0
   -2.0431    0.8861   -0.3825 C   0  0  0  0  0  0  0  0  0  0  0  0
   -0.8349    1.4235   -0.6453 N   0  0  0  0  0  0  0  0  0  0  0  0
    0.1512    0.5583   -0.9702 C   0  0  0  0  0  0  0  0  0  0  0  0
    1.4202    1.0395   -1.2531 C   0  0  0  0  0  0  0  0  0  0  0  0
    2.4788    0.1824   -1.5732 C   0  0  0  0  0  0  0  0  0  0  0  0
    3.7261    0.7203   -1.8947 N   0  0  0  0  0  0  0  0  0  0  0  0
    4.5571    1.1134   -0.9884 C   0  0  0  0  0  0  0  0  0  0  0  0
    4.5962    1.1149    0.3963 N   0  0  0  0  0  0  0  0  0  0  0  0
    3.7895    0.2115    1.2033 C   0  0  0  0  0  0  0  0  0  0  0  0
    5.7799    1.6465    1.0656 C   0  0  0  0  0  0  0  0  0  0  0  0
    2.2447   -1.1958   -1.6589 C   0  0  0  0  0  0  0  0  0  0  0  0
    3.3394   -2.1393   -2.0696 C   0  0  0  0  0  0  0  0  0  0  0  0
    0.9625   -1.6869   -1.3730 C   0  0  0  0  0  0  0  0  0  0  0  0
   -0.0811   -0.8402   -1.0266 C   0  0  0  0  0  0  0  0  0  0  0  0
   -1.2907   -1.3624   -0.7558 N   0  0  0  0  0  0  0  0  0  0  0  0
   -2.2650   -0.4743   -0.4355 C   0  0  0  0  0  0  0  0  0  0  0  0
   -3.6241   -0.9716   -0.1296 C   0  0  0  0  0  0  0  0  0  0  0  0
   -3.8676   -2.1746   -0.1974 O   0  0  0  0  0  0  0  0  0  0  0  0
   -5.4680   -0.8680    4.0377 H   0  0  0  0  0  0  0  0  0  0  0  0
   -4.1789   -0.2737    2.8541 H   0  0  0  0  0  0  0  0  0  0  0  0
   -7.0807   -1.1070    2.2914 H   0  0  0  0  0  0  0  0  0  0  0  0
   -6.6512    0.2888    0.2528 H   0  0  0  0  0  0  0  0  0  0  0  0
   -6.1447   -1.3784   -0.0091 H   0  0  0  0  0  0  0  0  0  0  0  0
   -2.8629    2.7448   -0.0465 H   0  0  0  0  0  0  0  0  0  0  0  0
    1.6011    2.1110   -1.2230 H   0  0  0  0  0  0  0  0  0  0  0  0
    5.4756    1.5718   -1.3987 H   0  0  0  0  0  0  0  0  0  0  0  0
    3.9014   -0.8218    0.8615 H   0  0  0  0  0  0  0  0  0  0  0  0
    4.0881    0.2343    2.2577 H   0  0  0  0  0  0  0  0  0  0  0  0
    2.7356    0.4983    1.1759 H   0  0  0  0  0  0  0  0  0  0  0  0
    5.5484    1.9526    2.0914 H   0  0  0  0  0  0  0  0  0  0  0  0
    6.1613    2.5326    0.5466 H   0  0  0  0  0  0  0  0  0  0  0  0
    6.5712    0.8905    1.0942 H   0  0  0  0  0  0  0  0  0  0  0  0
    2.9987   -3.1800   -2.0522 H   0  0  0  0  0  0  0  0  0  0  0  0
    3.6702   -1.9145   -3.0887 H   0  0  0  0  0  0  0  0  0  0  0  0
    4.1903   -2.0608   -1.3857 H   0  0  0  0  0  0  0  0  0  0  0  0
    0.7631   -2.7555   -1.4299 H   0  0  0  0  0  0  0  0  0  0  0  0
  1  2  2  0
  2  3  1  0
  3  4  1  0
  4  5  1  0
  5  6  2  0
  5  7  1  0
  7  8  1  0
  8  9  2  0
  9 10  1  0
 10 11  2  0
 11 12  1  0
 12 13  1  0
 13 14  2  3
 14 15  1  0
 15 16  1  0
 15 17  1  0
 12 18  2  0
 18 19  1  0
 18 20  1  0
 20 21  2  0
 21 22  1  0
 22 23  2  0
 23 24  1  0
 24 25  2  0
 24  4  1  0
 23  8  1  0
 21 10  1  0
  1 26  1  0
  1 27  1  0
  2 28  1  0
  3 29  1  0
  3 30  1  0
  7 31  1  0
 11 32  1  0
 14 33  1  0
 16 34  1  0
 16 35  1  0
 16 36  1  0
 17 37  1  0
 17 38  1  0
 17 39  1  0
 19 40  1  0
 19 41  1  0
 19 42  1  0
 20 43  1  0
M  END
$$$$
