
     RDKit          3D

 52 55  0  0  0  0  0  0  0  0999 V2000
    7.1770   -1.5972    2.7758 C   0  0  0  0  0  0  0  0  0  0  0  0
    5.8811   -1.3055    2.0745 C   0  0  0  0  0  0  0  0  0  0  0  0
    4.9099   -2.3090    1.9433 C   0  0  0  0  0  0  0  0  0  0  0  0
    3.6820   -2.0608    1.3196 C   0  0  0  0  0  0  0  0  0  0  0  0
    3.4718   -0.7669    0.8517 C   0  0  0  0  0  0  0  0  0  0  0  0
    2.3507   -0.3348    0.2202 O   0  0  0  0  0  0  0  0  0  0  0  0
    2.5187    0.9949   -0.0612 C   0  0  0  0  0  0  0  0  0  0  0  0
    1.4890    1.7161   -0.7940 C   0  0  0  0  0  0  0  0  0  0  0  0
    1.7859    2.6312   -1.5671 O   0  0  0  0  0  0  0  0  0  0  0  0
    0.1440    1.3647   -0.6177 N   0  0  0  0  0  0  0  0  0  0  0  0
   -0.4027    0.5903    0.4884 C   0  0  0  0  0  0  0  0  0  0  0  0
   -1.2878   -0.5414   -0.0273 C   0  0  0  0  0  0  0  0  0  0  0  0
   -2.3173   -0.0670   -1.0888 C   0  0  0  0  0  0  0  0  0  0  0  0
   -1.9330   -0.6400   -2.3543 O   0  0  0  0  0  0  0  0  0  0  0  0
   -3.7113   -0.6236   -0.7727 C   0  0  0  0  0  0  0  0  0  0  0  0
   -3.9019   -2.0200   -0.7648 C   0  0  0  0  0  0  0  0  0  0  0  0
   -5.1462   -2.5838   -0.4817 C   0  0  0  0  0  0  0  0  0  0  0  0
   -6.2343   -1.7623   -0.2020 C   0  0  0  0  0  0  0  0  0  0  0  0
   -6.0875   -0.3693   -0.2110 C   0  0  0  0  0  0  0  0  0  0  0  0
   -7.2575    0.5296    0.1113 C   0  0  0  0  0  0  0  0  0  0  0  0
   -8.4674   -0.0631   -0.0883 F   0  0  0  0  0  0  0  0  0  0  0  0
   -7.2501    0.9411    1.4089 F   0  0  0  0  0  0  0  0  0  0  0  0
   -7.2721    1.6661   -0.6405 F   0  0  0  0  0  0  0  0  0  0  0  0
   -4.8234    0.1870   -0.4909 C   0  0  0  0  0  0  0  0  0  0  0  0
   -2.2557    1.4613   -1.2844 C   0  0  0  0  0  0  0  0  0  0  0  0
   -0.8250    1.9350   -1.5441 C   0  0  0  0  0  0  0  0  0  0  0  0
    3.7790    1.4064    0.3628 C   0  0  0  0  0  0  0  0  0  0  0  0
    4.3631    2.7625    0.2025 C   0  0  0  0  0  0  0  0  0  0  0  0
    4.3899    0.2658    0.9685 C   0  0  0  0  0  0  0  0  0  0  0  0
    5.6215   -0.0065    1.5961 C   0  0  0  0  0  0  0  0  0  0  0  0
    7.9914   -1.0001    2.3526 H   0  0  0  0  0  0  0  0  0  0  0  0
    7.4552   -2.6505    2.6639 H   0  0  0  0  0  0  0  0  0  0  0  0
    7.0844   -1.3674    3.8417 H   0  0  0  0  0  0  0  0  0  0  0  0
    5.1064   -3.3086    2.3277 H   0  0  0  0  0  0  0  0  0  0  0  0
    2.9299   -2.8315    1.2038 H   0  0  0  0  0  0  0  0  0  0  0  0
   -0.9931    1.2824    1.1027 H   0  0  0  0  0  0  0  0  0  0  0  0
    0.3630    0.2030    1.1603 H   0  0  0  0  0  0  0  0  0  0  0  0
   -1.7852   -0.9819    0.8464 H   0  0  0  0  0  0  0  0  0  0  0  0
   -0.6473   -1.3253   -0.4530 H   0  0  0  0  0  0  0  0  0  0  0  0
   -2.7345   -0.7204   -2.9007 H   0  0  0  0  0  0  0  0  0  0  0  0
   -3.0641   -2.6830   -0.9835 H   0  0  0  0  0  0  0  0  0  0  0  0
   -5.2637   -3.6651   -0.4787 H   0  0  0  0  0  0  0  0  0  0  0  0
   -7.2002   -2.2133    0.0219 H   0  0  0  0  0  0  0  0  0  0  0  0
   -4.7357    1.2722   -0.4833 H   0  0  0  0  0  0  0  0  0  0  0  0
   -2.6344    1.9777   -0.3932 H   0  0  0  0  0  0  0  0  0  0  0  0
   -2.8820    1.7740   -2.1295 H   0  0  0  0  0  0  0  0  0  0  0  0
   -0.7794    3.0277   -1.4650 H   0  0  0  0  0  0  0  0  0  0  0  0
   -0.5106    1.6728   -2.5616 H   0  0  0  0  0  0  0  0  0  0  0  0
    4.6531    2.9309   -0.8398 H   0  0  0  0  0  0  0  0  0  0  0  0
    5.2525    2.8922    0.8271 H   0  0  0  0  0  0  0  0  0  0  0  0
    3.6410    3.5332    0.4917 H   0  0  0  0  0  0  0  0  0  0  0  0
    6.3630    0.7799    1.7063 H   0  0  0  0  0  0  0  0  0  0  0  0
  1  2  1  0
  2  3  2  0
  3  4  1  0
  4  5  2  0
  5  6  1  0
  6  7  1  0
  7  8  1  0
  8  9  2  0
  8 10  1  0
 10 11  1  0
 11 12  1  0
 12 13  1  0
 13 14  1  0
 13 15  1  0
 15 16  2  0
 16 17  1  0
 17 18  2  0
 18 19  1  0
 19 20  1  0
 20 21  1  0
 20 22  1  0
 20 23  1  0
 19 24  2  0
 13 25  1  0
 25 26  1  0
  7 27  2  0
 27 28  1  0
 27 29  1  0
 29 30  2  0
 30  2  1  0
 29  5  1  0
 26 10  1  0
 24 15  1  0
  1 31  1  0
  1 32  1  0
  1 33  1  0
  3 34  1  0
  4 35  1  0
 11 36  1  0
 11 37  1  0
 12 38  1  0
 12 39  1  0
 14 40  1  0
 16 41  1  0
 17 42  1  0
 18 43  1  0
 24 44  1  0
 25 45  1  0
 25 46  1  0
 26 47  1  0
 26 48  1  0
 28 49  1  0
 28 50  1  0
 28 51  1  0
 30 52  1  0
M  END
$$$$
