
     RDKit          3D

 63 65  0  0  0  0  0  0  0  0999 V2000
   -0.5718   -0.7963    4.1257 C   0  0  0  0  0  0  0  0  0  0  0  0
    0.5965   -1.7324    3.8266 C   0  0  0  0  0  0  0  0  0  0  0  0
    0.5274   -2.2622    2.4600 N   0  0  0  0  0  0  0  0  0  0  0  0
    1.8347   -2.8052    2.0298 C   0  0  0  0  0  0  0  0  0  0  0  0
    2.7243   -1.6659    1.5172 C   0  0  0  0  0  0  0  0  0  0  0  0
    3.4672   -1.0505    2.2782 O   0  0  0  0  0  0  0  0  0  0  0  0
    2.5783   -1.4518    0.1515 N   0  0  0  0  0  0  0  0  0  0  0  0
    3.2484   -0.4981   -0.6376 C   0  0  0  0  0  0  0  0  0  0  0  0
    4.0251    0.5314   -0.1134 C   0  0  0  0  0  0  0  0  0  0  0  0
    4.6664    1.4391   -0.9645 C   0  0  0  0  0  0  0  0  0  0  0  0
    4.5621    1.3206   -2.3562 C   0  0  0  0  0  0  0  0  0  0  0  0
    5.2528    2.2703   -3.1338 N   0  0  0  0  0  0  0  0  0  0  0  0
    5.3821    2.2949   -4.5135 C   0  0  0  0  0  0  0  0  0  0  0  0
    6.1473    3.5064   -4.9803 C   0  0  0  0  0  0  0  0  0  0  0  0
    4.9777    1.4581   -5.3134 O   0  0  0  0  0  0  0  0  0  0  0  0
    3.7726    0.3013   -2.8823 C   0  0  0  0  0  0  0  0  0  0  0  0
    3.1114   -0.5938   -2.0276 C   0  0  0  0  0  0  0  0  0  0  0  0
   -0.5350   -3.2634    2.2711 C   0  0  0  0  0  0  0  0  0  0  0  0
   -1.0550   -3.1199    0.8291 C   0  0  0  0  0  0  0  0  0  0  0  0
   -0.5491   -3.7445   -0.1004 O   0  0  0  0  0  0  0  0  0  0  0  0
   -2.0566   -2.1715    0.7385 N   0  0  0  0  0  0  0  0  0  0  0  0
   -2.8084   -1.7615   -0.3846 C   0  0  0  0  0  0  0  0  0  0  0  0
   -2.7046   -2.4010   -1.6246 C   0  0  0  0  0  0  0  0  0  0  0  0
   -3.5008   -1.9984   -2.6984 C   0  0  0  0  0  0  0  0  0  0  0  0
   -4.4200   -0.9637   -2.5456 C   0  0  0  0  0  0  0  0  0  0  0  0
   -4.5335   -0.3100   -1.3196 C   0  0  0  0  0  0  0  0  0  0  0  0
   -3.7123   -0.6808   -0.2440 C   0  0  0  0  0  0  0  0  0  0  0  0
   -3.8229    0.0422    1.0591 C   0  0  0  0  0  0  0  0  0  0  0  0
   -3.6292   -0.5785    2.1045 O   0  0  0  0  0  0  0  0  0  0  0  0
   -4.1309    1.4937    1.1486 C   0  0  0  0  0  0  0  0  0  0  0  0
   -3.7167    2.4107    0.1731 C   0  0  0  0  0  0  0  0  0  0  0  0
   -4.0279    3.7648    0.3136 C   0  0  0  0  0  0  0  0  0  0  0  0
   -4.7364    4.2114    1.4294 C   0  0  0  0  0  0  0  0  0  0  0  0
   -5.1252    3.3057    2.4175 C   0  0  0  0  0  0  0  0  0  0  0  0
   -4.8217    1.9515    2.2791 C   0  0  0  0  0  0  0  0  0  0  0  0
   -0.3863   -0.2455    5.0500 H   0  0  0  0  0  0  0  0  0  0  0  0
   -1.5130   -1.3379    4.2554 H   0  0  0  0  0  0  0  0  0  0  0  0
   -0.7099   -0.0637    3.3279 H   0  0  0  0  0  0  0  0  0  0  0  0
    1.5076   -1.1389    3.9526 H   0  0  0  0  0  0  0  0  0  0  0  0
    0.6304   -2.5352    4.5691 H   0  0  0  0  0  0  0  0  0  0  0  0
    2.3543   -3.3372    2.8371 H   0  0  0  0  0  0  0  0  0  0  0  0
    1.7221   -3.5313    1.2116 H   0  0  0  0  0  0  0  0  0  0  0  0
    1.9522   -2.0847   -0.3399 H   0  0  0  0  0  0  0  0  0  0  0  0
    4.1457    0.6667    0.9563 H   0  0  0  0  0  0  0  0  0  0  0  0
    5.2508    2.2364   -0.5108 H   0  0  0  0  0  0  0  0  0  0  0  0
    5.7274    2.9990   -2.6195 H   0  0  0  0  0  0  0  0  0  0  0  0
    7.1363    3.5210   -4.5130 H   0  0  0  0  0  0  0  0  0  0  0  0
    6.2756    3.4670   -6.0660 H   0  0  0  0  0  0  0  0  0  0  0  0
    5.5964    4.4143   -4.7173 H   0  0  0  0  0  0  0  0  0  0  0  0
    3.6340    0.1797   -3.9523 H   0  0  0  0  0  0  0  0  0  0  0  0
    2.5035   -1.3789   -2.4739 H   0  0  0  0  0  0  0  0  0  0  0  0
   -0.1864   -4.2903    2.4378 H   0  0  0  0  0  0  0  0  0  0  0  0
   -1.3835   -3.1175    2.9511 H   0  0  0  0  0  0  0  0  0  0  0  0
   -2.2832   -1.6770    1.6054 H   0  0  0  0  0  0  0  0  0  0  0  0
   -2.0249   -3.2330   -1.7827 H   0  0  0  0  0  0  0  0  0  0  0  0
   -3.4155   -2.5159   -3.6522 H   0  0  0  0  0  0  0  0  0  0  0  0
   -5.0542   -0.6709   -3.3770 H   0  0  0  0  0  0  0  0  0  0  0  0
   -5.2783    0.4749   -1.2160 H   0  0  0  0  0  0  0  0  0  0  0  0
   -3.1346    2.0919   -0.6872 H   0  0  0  0  0  0  0  0  0  0  0  0
   -3.7174    4.4803   -0.4468 H   0  0  0  0  0  0  0  0  0  0  0  0
   -4.9733    5.2675    1.5371 H   0  0  0  0  0  0  0  0  0  0  0  0
   -5.6637    3.6542    3.2956 H   0  0  0  0  0  0  0  0  0  0  0  0
   -5.1279    1.2525    3.0546 H   0  0  0  0  0  0  0  0  0  0  0  0
  1  2  1  0
  2  3  1  0
  3  4  1  0
  4  5  1  0
  5  6  2  0
  5  7  1  0
  7  8  1  0
  8  9  2  0
  9 10  1  0
 10 11  2  0
 11 12  1  0
 12 13  1  0
 13 14  1  0
 13 15  2  0
 11 16  1  0
 16 17  2  0
  3 18  1  0
 18 19  1  0
 19 20  2  0
 19 21  1  0
 21 22  1  0
 22 23  2  0
 23 24  1  0
 24 25  2  0
 25 26  1  0
 26 27  2  0
 27 28  1  0
 28 29  2  0
 28 30  1  0
 30 31  2  0
 31 32  1  0
 32 33  2  0
 33 34  1  0
 34 35  2  0
 17  8  1  0
 27 22  1  0
 35 30  1  0
  1 36  1  0
  1 37  1  0
  1 38  1  0
  2 39  1  0
  2 40  1  0
  4 41  1  0
  4 42  1  0
  7 43  1  0
  9 44  1  0
 10 45  1  0
 12 46  1  0
 14 47  1  0
 14 48  1  0
 14 49  1  0
 16 50  1  0
 17 51  1  0
 18 52  1  0
 18 53  1  0
 21 54  1  0
 23 55  1  0
 24 56  1  0
 25 57  1  0
 26 58  1  0
 31 59  1  0
 32 60  1  0
 33 61  1  0
 34 62  1  0
 35 63  1  0
M  END
$$$$
