
     RDKit          3D

 48 50  0  0  0  0  0  0  0  0999 V2000
    7.2082   -1.0129   -0.8699 C   0  0  0  0  0  0  0  0  0  0  0  0
    7.1669   -1.3565    0.6118 C   0  0  0  0  0  0  0  0  0  0  0  0
    6.4761   -0.2855    1.4505 C   0  0  0  0  0  0  0  0  0  0  0  0
    5.0755   -0.2341    1.1359 O   0  0  0  0  0  0  0  0  0  0  0  0
    4.6531    0.8267    0.4051 C   0  0  0  0  0  0  0  0  0  0  0  0
    5.3488    1.7330   -0.0236 O   0  0  0  0  0  0  0  0  0  0  0  0
    3.1894    0.7345    0.1523 C   0  0  0  0  0  0  0  0  0  0  0  0
    2.3858   -0.2583    0.7233 C   0  0  0  0  0  0  0  0  0  0  0  0
    1.0125   -0.3055    0.4472 C   0  0  0  0  0  0  0  0  0  0  0  0
    0.4246    0.6315   -0.4042 C   0  0  0  0  0  0  0  0  0  0  0  0
   -0.9442    0.6447   -0.7435 N   0  0  0  0  0  0  0  0  0  0  0  0
   -1.9310   -0.2345   -0.3177 C   0  0  0  0  0  0  0  0  0  0  0  0
   -1.7759   -1.1498    0.4809 O   0  0  0  0  0  0  0  0  0  0  0  0
   -3.2989    0.1246   -0.9119 C   0  0  0  0  0  0  0  0  0  0  0  0
   -3.9346    1.2596   -0.0658 C   0  0  0  0  0  0  0  0  0  0  0  0
   -5.0874    1.8963   -0.8632 C   0  0  0  0  0  0  0  0  0  0  0  0
   -6.1810    0.8192   -0.8101 C   0  0  0  0  0  0  0  0  0  0  0  0
   -5.5069   -0.3192   -0.0204 C   0  0  0  0  0  0  0  0  0  0  0  0
   -4.6951    0.4717    1.0031 C   0  0  0  0  0  0  0  0  0  0  0  0
   -4.4096   -0.9528   -0.9134 C   0  0  0  0  0  0  0  0  0  0  0  0
   -4.0134   -2.3363   -0.4598 C   0  0  0  0  0  0  0  0  0  0  0  0
   -4.4345   -2.9487    0.5056 O   0  0  0  0  0  0  0  0  0  0  0  0
   -3.1440   -2.9091   -1.3191 O   0  0  0  0  0  0  0  0  0  0  0  0
    1.2311    1.6265   -0.9713 C   0  0  0  0  0  0  0  0  0  0  0  0
    2.6019    1.6796   -0.6954 C   0  0  0  0  0  0  0  0  0  0  0  0
    6.2016   -0.9602   -1.2957 H   0  0  0  0  0  0  0  0  0  0  0  0
    7.7612   -1.7824   -1.4186 H   0  0  0  0  0  0  0  0  0  0  0  0
    7.7068   -0.0528   -1.0366 H   0  0  0  0  0  0  0  0  0  0  0  0
    6.6427   -2.3125    0.7303 H   0  0  0  0  0  0  0  0  0  0  0  0
    8.1918   -1.4916    0.9751 H   0  0  0  0  0  0  0  0  0  0  0  0
    6.9692    0.6864    1.3389 H   0  0  0  0  0  0  0  0  0  0  0  0
    6.5478   -0.5572    2.5093 H   0  0  0  0  0  0  0  0  0  0  0  0
    2.8079   -1.0070    1.3896 H   0  0  0  0  0  0  0  0  0  0  0  0
    0.4332   -1.0944    0.9168 H   0  0  0  0  0  0  0  0  0  0  0  0
   -1.2315    1.3786   -1.3789 H   0  0  0  0  0  0  0  0  0  0  0  0
   -3.1334    0.4598   -1.9446 H   0  0  0  0  0  0  0  0  0  0  0  0
   -3.2249    1.9903    0.3288 H   0  0  0  0  0  0  0  0  0  0  0  0
   -4.8018    2.1431   -1.8909 H   0  0  0  0  0  0  0  0  0  0  0  0
   -5.4391    2.8130   -0.3767 H   0  0  0  0  0  0  0  0  0  0  0  0
   -6.5064    0.5079   -1.8084 H   0  0  0  0  0  0  0  0  0  0  0  0
   -7.0565    1.1994   -0.2709 H   0  0  0  0  0  0  0  0  0  0  0  0
   -6.2197   -1.0289    0.4039 H   0  0  0  0  0  0  0  0  0  0  0  0
   -4.0536   -0.1556    1.6285 H   0  0  0  0  0  0  0  0  0  0  0  0
   -5.3143    1.1065    1.6458 H   0  0  0  0  0  0  0  0  0  0  0  0
   -4.8132   -1.0794   -1.9274 H   0  0  0  0  0  0  0  0  0  0  0  0
   -2.9042   -3.7461   -0.8679 H   0  0  0  0  0  0  0  0  0  0  0  0
    0.8100    2.3757   -1.6371 H   0  0  0  0  0  0  0  0  0  0  0  0
    3.2091    2.4627   -1.1471 H   0  0  0  0  0  0  0  0  0  0  0  0
  1  2  1  0
  2  3  1  0
  3  4  1  0
  4  5  1  0
  5  6  2  0
  5  7  1  0
  7  8  2  0
  8  9  1  0
  9 10  2  0
 10 11  1  0
 11 12  1  0
 12 13  2  0
 12 14  1  0
 14 15  1  0
 15 16  1  0
 16 17  1  0
 17 18  1  0
 18 19  1  0
 18 20  1  0
 20 21  1  0
 21 22  2  0
 21 23  1  0
 10 24  1  0
 24 25  2  0
 25  7  1  0
 20 14  1  0
 19 15  1  0
  1 26  1  0
  1 27  1  0
  1 28  1  0
  2 29  1  0
  2 30  1  0
  3 31  1  0
  3 32  1  0
  8 33  1  0
  9 34  1  0
 11 35  1  0
 14 36  1  0
 15 37  1  0
 16 38  1  0
 16 39  1  0
 17 40  1  0
 17 41  1  0
 18 42  1  0
 19 43  1  0
 19 44  1  0
 20 45  1  0
 23 46  1  0
 24 47  1  0
 25 48  1  0
M  END
$$$$
