
     RDKit          3D

 57 60  0  0  0  0  0  0  0  0999 V2000
   -2.3267   -2.5459    1.0124 C   0  0  0  0  0  0  0  0  0  0  0  0
   -2.6747   -1.1952    1.5122 C   0  0  0  0  0  0  0  0  0  0  0  0
   -2.4360   -0.8719    2.7900 N   0  0  0  0  0  0  0  0  0  0  0  0
   -2.8651    0.4314    2.9351 O   0  0  0  0  0  0  0  0  0  0  0  0
   -3.3581    0.8826    1.7529 C   0  0  0  0  0  0  0  0  0  0  0  0
   -3.8697    2.2666    1.7458 C   0  0  0  0  0  0  0  0  0  0  0  0
   -3.2550   -0.1097    0.7995 C   0  0  0  0  0  0  0  0  0  0  0  0
   -3.6671   -0.0556   -0.6287 C   0  0  0  0  0  0  0  0  0  0  0  0
   -2.6615   -0.6310   -1.4804 O   0  0  0  0  0  0  0  0  0  0  0  0
   -2.4771    0.0943   -2.6254 C   0  0  0  0  0  0  0  0  0  0  0  0
   -2.9522   -0.4631   -3.8131 C   0  0  0  0  0  0  0  0  0  0  0  0
   -2.7873    0.2199   -5.0195 C   0  0  0  0  0  0  0  0  0  0  0  0
   -2.1417    1.4572   -5.0432 C   0  0  0  0  0  0  0  0  0  0  0  0
   -1.6412    2.0057   -3.8618 C   0  0  0  0  0  0  0  0  0  0  0  0
   -1.7838    1.3094   -2.6556 C   0  0  0  0  0  0  0  0  0  0  0  0
   -1.2286    1.9285   -1.4362 C   0  0  0  0  0  0  0  0  0  0  0  0
   -1.7173    2.9982   -1.0787 O   0  0  0  0  0  0  0  0  0  0  0  0
   -0.1988    1.2888   -0.7637 N   0  0  0  0  0  0  0  0  0  0  0  0
    0.2658    1.8462    0.5074 C   0  0  0  0  0  0  0  0  0  0  0  0
    0.9193    0.7978    1.4244 C   0  0  0  0  0  0  0  0  0  0  0  0
    2.0253    0.0952    0.7452 N   0  0  0  0  0  0  0  0  0  0  0  0
    3.0303   -0.5297    1.4658 C   0  0  0  0  0  0  0  0  0  0  0  0
    2.8892   -0.8380    2.8285 C   0  0  0  0  0  0  0  0  0  0  0  0
    3.9044   -1.4652    3.5600 C   0  0  0  0  0  0  0  0  0  0  0  0
    5.1018   -1.8065    2.9421 C   0  0  0  0  0  0  0  0  0  0  0  0
    5.2911   -1.5151    1.5888 C   0  0  0  0  0  0  0  0  0  0  0  0
    6.5720   -1.8749    0.8820 C   0  0  0  0  0  0  0  0  0  0  0  0
    7.1108   -0.8246    0.2007 F   0  0  0  0  0  0  0  0  0  0  0  0
    7.5539   -2.3169    1.7175 F   0  0  0  0  0  0  0  0  0  0  0  0
    6.3956   -2.8631   -0.0397 F   0  0  0  0  0  0  0  0  0  0  0  0
    4.2539   -0.8826    0.8725 C   0  0  0  0  0  0  0  0  0  0  0  0
    1.9556   -0.0033   -0.7230 C   0  0  0  0  0  0  0  0  0  0  0  0
    0.5074    0.0940   -1.2407 C   0  0  0  0  0  0  0  0  0  0  0  0
   -3.1267   -2.9405    0.3781 H   0  0  0  0  0  0  0  0  0  0  0  0
   -2.1774   -3.2522    1.8354 H   0  0  0  0  0  0  0  0  0  0  0  0
   -1.4049   -2.5093    0.4246 H   0  0  0  0  0  0  0  0  0  0  0  0
   -4.9081    2.2868    1.3989 H   0  0  0  0  0  0  0  0  0  0  0  0
   -3.8391    2.7085    2.7471 H   0  0  0  0  0  0  0  0  0  0  0  0
   -3.2720    2.8962    1.0809 H   0  0  0  0  0  0  0  0  0  0  0  0
   -4.5795   -0.6514   -0.7558 H   0  0  0  0  0  0  0  0  0  0  0  0
   -3.9185    0.9751   -0.9120 H   0  0  0  0  0  0  0  0  0  0  0  0
   -3.4551   -1.4258   -3.8006 H   0  0  0  0  0  0  0  0  0  0  0  0
   -3.1667   -0.2107   -5.9432 H   0  0  0  0  0  0  0  0  0  0  0  0
   -2.0246    1.9927   -5.9827 H   0  0  0  0  0  0  0  0  0  0  0  0
   -1.1394    2.9696   -3.8794 H   0  0  0  0  0  0  0  0  0  0  0  0
    0.9946    2.6276    0.2580 H   0  0  0  0  0  0  0  0  0  0  0  0
   -0.5680    2.3294    1.0280 H   0  0  0  0  0  0  0  0  0  0  0  0
    0.1712    0.0613    1.7363 H   0  0  0  0  0  0  0  0  0  0  0  0
    1.2805    1.3227    2.3165 H   0  0  0  0  0  0  0  0  0  0  0  0
    1.9633   -0.6143    3.3538 H   0  0  0  0  0  0  0  0  0  0  0  0
    3.7499   -1.6889    4.6137 H   0  0  0  0  0  0  0  0  0  0  0  0
    5.8824   -2.2975    3.5201 H   0  0  0  0  0  0  0  0  0  0  0  0
    4.4372   -0.6445   -0.1735 H   0  0  0  0  0  0  0  0  0  0  0  0
    2.3604   -0.9600   -1.0751 H   0  0  0  0  0  0  0  0  0  0  0  0
    2.5563    0.8039   -1.1598 H   0  0  0  0  0  0  0  0  0  0  0  0
    0.5091    0.0709   -2.3343 H   0  0  0  0  0  0  0  0  0  0  0  0
   -0.0599   -0.7729   -0.8845 H   0  0  0  0  0  0  0  0  0  0  0  0
  1  2  1  0
  2  3  2  0
  3  4  1  0
  4  5  1  0
  5  6  1  0
  5  7  2  0
  7  8  1  0
  8  9  1  0
  9 10  1  0
 10 11  2  0
 11 12  1  0
 12 13  2  0
 13 14  1  0
 14 15  2  0
 15 16  1  0
 16 17  2  0
 16 18  1  0
 18 19  1  0
 19 20  1  0
 20 21  1  0
 21 22  1  0
 22 23  2  0
 23 24  1  0
 24 25  2  0
 25 26  1  0
 26 27  1  0
 27 28  1  0
 27 29  1  0
 27 30  1  0
 26 31  2  0
 21 32  1  0
 32 33  1  0
  7  2  1  0
 15 10  1  0
 33 18  1  0
 31 22  1  0
  1 34  1  0
  1 35  1  0
  1 36  1  0
  6 37  1  0
  6 38  1  0
  6 39  1  0
  8 40  1  0
  8 41  1  0
 11 42  1  0
 12 43  1  0
 13 44  1  0
 14 45  1  0
 19 46  1  0
 19 47  1  0
 20 48  1  0
 20 49  1  0
 23 50  1  0
 24 51  1  0
 25 52  1  0
 31 53  1  0
 32 54  1  0
 32 55  1  0
 33 56  1  0
 33 57  1  0
M  END
$$$$
