
     RDKit          3D

 40 43  0  0  0  0  0  0  0  0999 V2000
    6.5975   -0.7782    0.3988 O   0  0  0  0  0  0  0  0  0  0  0  0
    5.9434    0.2539    0.1906 N   0  0  0  0  0  4  0  0  0  0  0  0
    6.4304    1.3923    0.1277 O   0  0  0  0  0  1  0  0  0  0  0  0
    4.4944    0.1201    0.0033 C   0  0  0  0  0  0  0  0  0  0  0  0
    3.9015   -1.1424    0.0403 C   0  0  0  0  0  0  0  0  0  0  0  0
    2.5175   -1.2546   -0.1394 C   0  0  0  0  0  0  0  0  0  0  0  0
    1.6961   -0.1319   -0.3591 C   0  0  0  0  0  0  0  0  0  0  0  0
    0.3218   -0.2810   -0.5307 N   0  0  0  0  0  0  0  0  0  0  0  0
   -0.2529   -1.5220   -0.5386 N   0  0  0  0  0  0  0  0  0  0  0  0
   -1.4891   -1.3628   -0.9034 C   0  0  0  0  0  0  0  0  0  0  0  0
   -2.4117   -2.4536   -1.0060 C   0  0  0  0  0  0  0  0  0  0  0  0
   -2.2721   -3.8037   -0.7478 C   0  0  0  0  0  0  0  0  0  0  0  0
   -3.5230   -4.4034   -1.0278 C   0  0  0  0  0  0  0  0  0  0  0  0
   -4.3498   -3.3858   -1.4400 C   0  0  0  0  0  0  0  0  0  0  0  0
   -3.6871   -2.2008   -1.4315 O   0  0  0  0  0  0  0  0  0  0  0  0
   -1.8883    0.0369   -1.2532 C   0  0  0  0  0  0  0  0  0  0  0  0
   -0.6391    0.7933   -0.8063 C   0  0  0  0  0  0  0  0  0  0  0  0
   -0.9349    1.6668    0.4037 C   0  0  0  0  0  0  0  0  0  0  0  0
   -0.9406    1.1554    1.7117 C   0  0  0  0  0  0  0  0  0  0  0  0
   -1.2389    1.9792    2.7984 C   0  0  0  0  0  0  0  0  0  0  0  0
   -1.5435    3.3227    2.5934 C   0  0  0  0  0  0  0  0  0  0  0  0
   -1.5517    3.8443    1.3019 C   0  0  0  0  0  0  0  0  0  0  0  0
   -1.2528    3.0225    0.2134 C   0  0  0  0  0  0  0  0  0  0  0  0
    2.3282    1.1227   -0.3893 C   0  0  0  0  0  0  0  0  0  0  0  0
    3.7121    1.2575   -0.2109 C   0  0  0  0  0  0  0  0  0  0  0  0
    4.4868   -2.0437    0.2067 H   0  0  0  0  0  0  0  0  0  0  0  0
    2.0702   -2.2469   -0.1047 H   0  0  0  0  0  0  0  0  0  0  0  0
   -1.3690   -4.2863   -0.3986 H   0  0  0  0  0  0  0  0  0  0  0  0
   -3.7891   -5.4475   -0.9400 H   0  0  0  0  0  0  0  0  0  0  0  0
   -5.3825   -3.3422   -1.7575 H   0  0  0  0  0  0  0  0  0  0  0  0
   -2.8118    0.3336   -0.7478 H   0  0  0  0  0  0  0  0  0  0  0  0
   -2.0281    0.1005   -2.3377 H   0  0  0  0  0  0  0  0  0  0  0  0
   -0.2791    1.4170   -1.6347 H   0  0  0  0  0  0  0  0  0  0  0  0
   -0.7027    0.1085    1.8954 H   0  0  0  0  0  0  0  0  0  0  0  0
   -1.2316    1.5700    3.8055 H   0  0  0  0  0  0  0  0  0  0  0  0
   -1.7748    3.9625    3.4410 H   0  0  0  0  0  0  0  0  0  0  0  0
   -1.7924    4.8924    1.1428 H   0  0  0  0  0  0  0  0  0  0  0  0
   -1.2699    3.4513   -0.7864 H   0  0  0  0  0  0  0  0  0  0  0  0
    1.7532    2.0315   -0.5444 H   0  0  0  0  0  0  0  0  0  0  0  0
    4.1531    2.2517   -0.2385 H   0  0  0  0  0  0  0  0  0  0  0  0
  1  2  2  0
  2  3  1  0
  2  4  1  0
  4  5  2  0
  5  6  1  0
  6  7  2  0
  7  8  1  0
  8  9  1  0
  9 10  2  0
 10 11  1  0
 11 12  2  0
 12 13  1  0
 13 14  2  0
 14 15  1  0
 10 16  1  0
 16 17  1  0
 17 18  1  0
 18 19  2  0
 19 20  1  0
 20 21  2  0
 21 22  1  0
 22 23  2  0
  7 24  1  0
 24 25  2  0
 25  4  1  0
 17  8  1  0
 23 18  1  0
 15 11  1  0
  5 26  1  0
  6 27  1  0
 12 28  1  0
 13 29  1  0
 14 30  1  0
 16 31  1  0
 16 32  1  0
 17 33  1  0
 19 34  1  0
 20 35  1  0
 21 36  1  0
 22 37  1  0
 23 38  1  0
 24 39  1  0
 25 40  1  0
M  CHG  2   2   1   3  -1
M  END
$$$$
