
     RDKit          3D

 43 45  0  0  0  0  0  0  0  0999 V2000
   -7.5527    0.8531    3.1370 C   0  0  0  0  0  0  0  0  0  0  0  0
   -6.4968    0.1980    2.2597 C   0  0  0  0  0  0  0  0  0  0  0  0
   -5.4021    1.1853    1.8710 C   0  0  0  0  0  0  0  0  0  0  0  0
   -4.3614    0.5067    1.0339 C   0  0  0  0  0  0  0  0  0  0  0  0
   -4.4580    0.3558   -0.2493 N   0  0  0  0  0  0  0  0  0  0  0  0
   -3.3463   -0.3221   -0.6982 N   0  0  0  0  0  0  0  0  0  0  0  0
   -3.1704   -0.6407   -2.0283 C   0  0  0  0  0  0  0  0  0  0  0  0
   -3.9320   -0.3858   -2.9559 O   0  0  0  0  0  0  0  0  0  0  0  0
   -1.9117   -1.3725   -2.2995 C   0  0  0  0  0  0  0  0  0  0  0  0
   -1.0721   -1.6552   -1.2878 C   0  0  0  0  0  0  0  0  0  0  0  0
    0.2102   -2.4171   -1.5332 C   0  0  0  0  0  0  0  0  0  0  0  0
    1.6156   -1.2948   -1.8282 S   0  0  0  0  0  0  0  0  0  0  0  0
    1.7558   -0.5433   -0.1637 C   0  0  0  0  0  0  0  0  0  0  0  0
    3.0494    0.2446    0.0392 C   0  0  0  0  0  0  0  0  0  0  0  0
    3.1104    1.0893    0.9325 O   0  0  0  0  0  0  0  0  0  0  0  0
    4.0885   -0.1245   -0.7933 N   0  0  0  0  0  0  0  0  0  0  0  0
    5.3966    0.3940   -0.8445 C   0  0  0  0  0  0  0  0  0  0  0  0
    5.8779    1.3851    0.0180 C   0  0  0  0  0  0  0  0  0  0  0  0
    7.1905    1.8527   -0.1044 C   0  0  0  0  0  0  0  0  0  0  0  0
    8.0208    1.3255   -1.0881 C   0  0  0  0  0  0  0  0  0  0  0  0
    9.2761    1.7743   -1.2004 F   0  0  0  0  0  0  0  0  0  0  0  0
    7.5641    0.3381   -1.9519 C   0  0  0  0  0  0  0  0  0  0  0  0
    6.2521   -0.1272   -1.8293 C   0  0  0  0  0  0  0  0  0  0  0  0
   -1.3263   -1.3248    0.0300 N   0  0  0  0  0  0  0  0  0  0  0  0
   -2.4253   -0.6846    0.2467 C   0  0  0  0  0  0  0  0  0  0  0  0
   -2.9460   -0.1601    1.8141 S   0  0  0  0  0  0  0  0  0  0  0  0
   -8.0303    1.6907    2.6169 H   0  0  0  0  0  0  0  0  0  0  0  0
   -8.3295    0.1288    3.3994 H   0  0  0  0  0  0  0  0  0  0  0  0
   -7.1124    1.2296    4.0660 H   0  0  0  0  0  0  0  0  0  0  0  0
   -6.9745   -0.2040    1.3573 H   0  0  0  0  0  0  0  0  0  0  0  0
   -6.0616   -0.6575    2.7920 H   0  0  0  0  0  0  0  0  0  0  0  0
   -5.8312    2.0115    1.2882 H   0  0  0  0  0  0  0  0  0  0  0  0
   -4.9376    1.6174    2.7648 H   0  0  0  0  0  0  0  0  0  0  0  0
   -1.7191   -1.6410   -3.3296 H   0  0  0  0  0  0  0  0  0  0  0  0
    0.1108   -3.0624   -2.4130 H   0  0  0  0  0  0  0  0  0  0  0  0
    0.4396   -3.0777   -0.6913 H   0  0  0  0  0  0  0  0  0  0  0  0
    0.9276    0.1580   -0.0290 H   0  0  0  0  0  0  0  0  0  0  0  0
    1.7175   -1.3241    0.6030 H   0  0  0  0  0  0  0  0  0  0  0  0
    3.8377   -0.8021   -1.5079 H   0  0  0  0  0  0  0  0  0  0  0  0
    5.2565    1.8191    0.7962 H   0  0  0  0  0  0  0  0  0  0  0  0
    7.5644    2.6240    0.5648 H   0  0  0  0  0  0  0  0  0  0  0  0
    8.2257   -0.0592   -2.7146 H   0  0  0  0  0  0  0  0  0  0  0  0
    5.9094   -0.9010   -2.5111 H   0  0  0  0  0  0  0  0  0  0  0  0
  1  2  1  0
  2  3  1  0
  3  4  1  0
  4  5  2  0
  5  6  1  0
  6  7  1  0
  7  8  2  0
  7  9  1  0
  9 10  2  0
 10 11  1  0
 11 12  1  0
 12 13  1  0
 13 14  1  0
 14 15  2  0
 14 16  1  0
 16 17  1  0
 17 18  2  0
 18 19  1  0
 19 20  2  0
 20 21  1  0
 20 22  1  0
 22 23  2  0
 10 24  1  0
 24 25  2  0
 25 26  1  0
 26  4  1  0
 25  6  1  0
 23 17  1  0
  1 27  1  0
  1 28  1  0
  1 29  1  0
  2 30  1  0
  2 31  1  0
  3 32  1  0
  3 33  1  0
  9 34  1  0
 11 35  1  0
 11 36  1  0
 13 37  1  0
 13 38  1  0
 16 39  1  0
 18 40  1  0
 19 41  1  0
 22 42  1  0
 23 43  1  0
M  END
$$$$
