
     RDKit          3D

 49 52  0  0  0  0  0  0  0  0999 V2000
   -6.0957   -2.8756    0.4683 C   0  0  0  0  0  0  0  0  0  0  0  0
   -5.2976   -1.6196    0.2787 C   0  0  0  0  0  0  0  0  0  0  0  0
   -5.8903   -0.3664    0.4564 C   0  0  0  0  0  0  0  0  0  0  0  0
   -5.1348    0.8043    0.3270 C   0  0  0  0  0  0  0  0  0  0  0  0
   -5.7858    2.1460    0.5006 C   0  0  0  0  0  0  0  0  0  0  0  0
   -3.7735    0.7168   -0.0099 C   0  0  0  0  0  0  0  0  0  0  0  0
   -3.1592   -0.5269   -0.1944 C   0  0  0  0  0  0  0  0  0  0  0  0
   -1.7736   -0.6638   -0.5226 N   0  0  0  0  0  0  0  0  0  0  0  0
   -1.1926   -1.8982   -0.4339 N   0  0  0  0  0  0  0  0  0  0  0  0
    0.0969   -1.7075   -0.7009 C   0  0  0  0  0  0  0  0  0  0  0  0
    0.3855   -0.3746   -1.0097 C   0  0  0  0  0  0  0  0  0  0  0  0
   -0.8369    0.2726   -0.9432 C   0  0  0  0  0  0  0  0  0  0  0  0
   -1.0407    1.7022   -1.3129 C   0  0  0  0  0  0  0  0  0  0  0  0
    0.1631    2.2197   -2.1253 C   0  0  0  0  0  0  0  0  0  0  0  0
    1.5027    1.8088   -1.4931 C   0  0  0  0  0  0  0  0  0  0  0  0
    1.6631    0.2721   -1.4269 C   0  0  0  0  0  0  0  0  0  0  0  0
    2.6924   -0.0969   -0.4895 N   0  0  0  0  0  0  0  0  0  0  0  0
    4.0315   -0.0072   -0.7917 C   0  0  0  0  0  0  0  0  0  0  0  0
    4.4620    0.2561   -1.9100 O   0  0  0  0  0  0  0  0  0  0  0  0
    4.9017   -0.2432    0.3704 C   0  0  0  0  0  0  0  0  0  0  0  0
    6.3196   -0.2635    0.3878 C   0  0  0  0  0  0  0  0  0  0  0  0
    6.6698   -0.5181    1.6942 C   0  0  0  0  0  0  0  0  0  0  0  0
    7.9840   -0.6619    2.3570 C   0  0  0  0  0  0  0  0  0  0  0  0
    5.4900   -0.6325    2.3741 N   0  0  0  0  0  0  0  0  0  0  0  0
    4.4011   -0.4658    1.6044 N   0  0  0  0  0  0  0  0  0  0  0  0
   -3.9310   -1.6912   -0.0255 C   0  0  0  0  0  0  0  0  0  0  0  0
   -7.1536   -2.7062    0.2420 H   0  0  0  0  0  0  0  0  0  0  0  0
   -5.7435   -3.6658   -0.2030 H   0  0  0  0  0  0  0  0  0  0  0  0
   -6.0076   -3.2221    1.5025 H   0  0  0  0  0  0  0  0  0  0  0  0
   -6.9477   -0.3019    0.7062 H   0  0  0  0  0  0  0  0  0  0  0  0
   -5.0813    2.8692    0.9246 H   0  0  0  0  0  0  0  0  0  0  0  0
   -6.1379    2.5180   -0.4663 H   0  0  0  0  0  0  0  0  0  0  0  0
   -6.6373    2.0834    1.1865 H   0  0  0  0  0  0  0  0  0  0  0  0
   -3.2205    1.6438   -0.0778 H   0  0  0  0  0  0  0  0  0  0  0  0
    0.7704   -2.5550   -0.6723 H   0  0  0  0  0  0  0  0  0  0  0  0
   -1.1317    2.3038   -0.4013 H   0  0  0  0  0  0  0  0  0  0  0  0
   -1.9445    1.8331   -1.9166 H   0  0  0  0  0  0  0  0  0  0  0  0
    0.1064    3.3115   -2.2021 H   0  0  0  0  0  0  0  0  0  0  0  0
    0.1144    1.8245   -3.1484 H   0  0  0  0  0  0  0  0  0  0  0  0
    1.5619    2.2396   -0.4840 H   0  0  0  0  0  0  0  0  0  0  0  0
    2.3328    2.2431   -2.0630 H   0  0  0  0  0  0  0  0  0  0  0  0
    1.9401   -0.0987   -2.4220 H   0  0  0  0  0  0  0  0  0  0  0  0
    2.4798   -0.2001    0.4997 H   0  0  0  0  0  0  0  0  0  0  0  0
    6.9816   -0.1114   -0.4542 H   0  0  0  0  0  0  0  0  0  0  0  0
    8.1340    0.1368    3.0902 H   0  0  0  0  0  0  0  0  0  0  0  0
    8.0534   -1.6243    2.8741 H   0  0  0  0  0  0  0  0  0  0  0  0
    8.7986   -0.6104    1.6278 H   0  0  0  0  0  0  0  0  0  0  0  0
    5.3549   -0.8229    3.3620 H   0  0  0  0  0  0  0  0  0  0  0  0
   -3.4743   -2.6734   -0.1458 H   0  0  0  0  0  0  0  0  0  0  0  0
  1  2  1  0
  2  3  2  0
  3  4  1  0
  4  5  1  0
  4  6  2  0
  6  7  1  0
  7  8  1  0
  8  9  1  0
  9 10  2  0
 10 11  1  0
 11 12  2  0
 12 13  1  0
 13 14  1  0
 14 15  1  0
 15 16  1  0
 16 17  1  0
 17 18  1  0
 18 19  2  0
 18 20  1  0
 20 21  1  0
 21 22  2  0
 22 23  1  0
 22 24  1  0
 24 25  1  0
  7 26  2  0
 26  2  1  0
 12  8  1  0
 25 20  2  0
 16 11  1  0
  1 27  1  0
  1 28  1  0
  1 29  1  0
  3 30  1  0
  5 31  1  0
  5 32  1  0
  5 33  1  0
  6 34  1  0
 10 35  1  0
 13 36  1  0
 13 37  1  0
 14 38  1  0
 14 39  1  0
 15 40  1  0
 15 41  1  0
 16 42  1  0
 17 43  1  0
 21 44  1  0
 23 45  1  0
 23 46  1  0
 23 47  1  0
 24 48  1  0
 26 49  1  0
M  END
$$$$
