
     RDKit          3D

 57 60  0  0  0  0  0  0  0  0999 V2000
   -4.0680    3.3482   -1.8218 C   0  0  0  0  0  0  0  0  0  0  0  0
   -4.1898    2.4503   -0.7171 O   0  0  0  0  0  0  0  0  0  0  0  0
   -2.9717    2.1704   -0.1648 C   0  0  0  0  0  0  0  0  0  0  0  0
   -2.3368    3.1581    0.5970 C   0  0  0  0  0  0  0  0  0  0  0  0
   -1.1320    2.8802    1.2457 C   0  0  0  0  0  0  0  0  0  0  0  0
   -0.5579    1.6100    1.1397 C   0  0  0  0  0  0  0  0  0  0  0  0
    0.6966    1.3323    1.8787 C   0  0  0  0  0  0  0  0  0  0  0  0
    0.7550    1.6951    3.0517 O   0  0  0  0  0  0  0  0  0  0  0  0
    1.7403    0.6797    1.2339 N   0  0  0  0  0  0  0  0  0  0  0  0
    1.8782    0.5319   -0.2226 C   0  0  0  0  0  0  0  0  0  0  0  0
    3.3444    0.5663   -0.7007 C   0  0  0  0  0  0  0  0  0  0  0  0
    4.1637   -0.4337    0.0003 N   0  0  0  0  0  0  0  0  0  0  0  0
    5.3359   -0.9297   -0.5504 C   0  0  0  0  0  0  0  0  0  0  0  0
    5.9201   -2.1225   -0.0905 C   0  0  0  0  0  0  0  0  0  0  0  0
    7.0996   -2.6355   -0.6435 C   0  0  0  0  0  0  0  0  0  0  0  0
    7.7326   -1.9626   -1.6800 C   0  0  0  0  0  0  0  0  0  0  0  0
    7.1820   -0.7815   -2.1608 C   0  0  0  0  0  0  0  0  0  0  0  0
    6.0001   -0.2783   -1.6024 C   0  0  0  0  0  0  0  0  0  0  0  0
    3.7693   -0.7852    1.3767 C   0  0  0  0  0  0  0  0  0  0  0  0
    2.9171    0.3186    2.0264 C   0  0  0  0  0  0  0  0  0  0  0  0
   -1.2106    0.6073    0.4184 C   0  0  0  0  0  0  0  0  0  0  0  0
   -2.4187    0.8901   -0.2372 C   0  0  0  0  0  0  0  0  0  0  0  0
   -3.1514   -0.4046   -1.2056 S   0  0  0  0  0  6  0  0  0  0  0  0
   -3.9571    0.1611   -2.2666 O   0  0  0  0  0  0  0  0  0  0  0  0
   -2.0876   -1.3345   -1.5340 O   0  0  0  0  0  0  0  0  0  0  0  0
   -4.1717   -1.1789   -0.0973 N   0  0  0  0  0  0  0  0  0  0  0  0
   -4.6939   -2.5058   -0.5272 C   0  0  0  0  0  0  0  0  0  0  0  0
   -6.1902   -2.4684   -0.2405 C   0  0  0  0  0  0  0  0  0  0  0  0
   -6.3062   -1.4554    0.8791 C   0  0  0  0  0  0  0  0  0  0  0  0
   -5.3052   -0.3939    0.4508 C   0  0  0  0  0  0  0  0  0  0  0  0
   -3.9398    4.3758   -1.4674 H   0  0  0  0  0  0  0  0  0  0  0  0
   -4.9987    3.3012   -2.3945 H   0  0  0  0  0  0  0  0  0  0  0  0
   -3.2425    3.0690   -2.4874 H   0  0  0  0  0  0  0  0  0  0  0  0
   -2.7896    4.1400    0.7109 H   0  0  0  0  0  0  0  0  0  0  0  0
   -0.6503    3.6469    1.8498 H   0  0  0  0  0  0  0  0  0  0  0  0
    1.4378   -0.4372   -0.4835 H   0  0  0  0  0  0  0  0  0  0  0  0
    1.3123    1.3164   -0.7337 H   0  0  0  0  0  0  0  0  0  0  0  0
    3.3406    0.3820   -1.7816 H   0  0  0  0  0  0  0  0  0  0  0  0
    3.7655    1.5632   -0.5231 H   0  0  0  0  0  0  0  0  0  0  0  0
    5.4475   -2.6981    0.7006 H   0  0  0  0  0  0  0  0  0  0  0  0
    7.5143   -3.5649   -0.2630 H   0  0  0  0  0  0  0  0  0  0  0  0
    8.6482   -2.3563   -2.1117 H   0  0  0  0  0  0  0  0  0  0  0  0
    7.6687   -0.2433   -2.9697 H   0  0  0  0  0  0  0  0  0  0  0  0
    5.6215    0.6587   -2.0001 H   0  0  0  0  0  0  0  0  0  0  0  0
    4.6491   -0.9381    2.0131 H   0  0  0  0  0  0  0  0  0  0  0  0
    3.1976   -1.7207    1.3510 H   0  0  0  0  0  0  0  0  0  0  0  0
    3.5141    1.2320    2.1437 H   0  0  0  0  0  0  0  0  0  0  0  0
    2.6003    0.0028    3.0272 H   0  0  0  0  0  0  0  0  0  0  0  0
   -0.7930   -0.3968    0.3855 H   0  0  0  0  0  0  0  0  0  0  0  0
   -4.2002   -3.2765    0.0749 H   0  0  0  0  0  0  0  0  0  0  0  0
   -4.5092   -2.7202   -1.5844 H   0  0  0  0  0  0  0  0  0  0  0  0
   -6.5888   -3.4500    0.0288 H   0  0  0  0  0  0  0  0  0  0  0  0
   -6.7316   -2.1126   -1.1251 H   0  0  0  0  0  0  0  0  0  0  0  0
   -6.0029   -1.9058    1.8312 H   0  0  0  0  0  0  0  0  0  0  0  0
   -7.3182   -1.0579    0.9899 H   0  0  0  0  0  0  0  0  0  0  0  0
   -5.7521    0.2459   -0.3167 H   0  0  0  0  0  0  0  0  0  0  0  0
   -4.9865    0.2155    1.3006 H   0  0  0  0  0  0  0  0  0  0  0  0
  1  2  1  0
  2  3  1  0
  3  4  2  0
  4  5  1  0
  5  6  2  0
  6  7  1  0
  7  8  2  0
  7  9  1  0
  9 10  1  0
 10 11  1  0
 11 12  1  0
 12 13  1  0
 13 14  2  0
 14 15  1  0
 15 16  2  0
 16 17  1  0
 17 18  2  0
 12 19  1  0
 19 20  1  0
  6 21  1  0
 21 22  2  0
 22 23  1  0
 23 24  2  0
 23 25  2  0
 23 26  1  0
 26 27  1  0
 27 28  1  0
 28 29  1  0
 29 30  1  0
 22  3  1  0
 30 26  1  0
 20  9  1  0
 18 13  1  0
  1 31  1  0
  1 32  1  0
  1 33  1  0
  4 34  1  0
  5 35  1  0
 10 36  1  0
 10 37  1  0
 11 38  1  0
 11 39  1  0
 14 40  1  0
 15 41  1  0
 16 42  1  0
 17 43  1  0
 18 44  1  0
 19 45  1  0
 19 46  1  0
 20 47  1  0
 20 48  1  0
 21 49  1  0
 27 50  1  0
 27 51  1  0
 28 52  1  0
 28 53  1  0
 29 54  1  0
 29 55  1  0
 30 56  1  0
 30 57  1  0
M  END
$$$$
