
     RDKit          3D

 57 58  0  0  0  0  0  0  0  0999 V2000
    7.1017   -3.9784   -0.3456 C   0  0  0  0  0  0  0  0  0  0  0  0
    6.3145   -2.6779   -0.3927 C   0  0  0  0  0  0  0  0  0  0  0  0
    5.9552   -2.1922    1.0132 C   0  0  0  0  0  0  0  0  0  0  0  0
    5.1741   -0.8785    0.9880 C   0  0  0  0  0  0  0  0  0  0  0  0
    3.9153   -1.1045    0.3554 O   0  0  0  0  0  0  0  0  0  0  0  0
    3.0939   -0.0235    0.1974 C   0  0  0  0  0  0  0  0  0  0  0  0
    3.3305    1.2653    0.6723 C   0  0  0  0  0  0  0  0  0  0  0  0
    2.4000    2.2873    0.4412 C   0  0  0  0  0  0  0  0  0  0  0  0
    1.2231    2.0414   -0.2797 C   0  0  0  0  0  0  0  0  0  0  0  0
    0.1650    3.1048   -0.5291 C   0  0  0  0  0  0  0  0  0  0  0  0
    0.7251    4.5236   -0.6744 C   0  0  0  0  0  0  0  0  0  0  0  0
   -0.8315    3.0376    0.5302 N   0  0  0  0  0  0  0  0  0  0  0  0
   -2.1029    3.5182    0.3365 C   0  0  0  0  0  0  0  0  0  0  0  0
   -2.4582    4.1619   -0.6465 O   0  0  0  0  0  0  0  0  0  0  0  0
   -3.0708    3.1935    1.4510 C   0  0  0  0  0  0  0  0  0  0  0  0
   -4.2428    2.3967    0.9016 C   0  0  0  0  0  0  0  0  0  0  0  0
   -3.7921    0.6940    0.6109 S   0  0  0  0  0  6  0  0  0  0  0  0
   -2.7543    0.6708   -0.4026 O   0  0  0  0  0  0  0  0  0  0  0  0
   -3.5688    0.0967    1.9151 O   0  0  0  0  0  0  0  0  0  0  0  0
   -5.2992    0.0249   -0.0871 C   0  0  0  0  0  0  0  0  0  0  0  0
   -5.1185   -1.4426   -0.3684 C   0  0  0  0  0  0  0  0  0  0  0  0
   -4.5648   -1.8726   -1.5845 C   0  0  0  0  0  0  0  0  0  0  0  0
   -4.3993   -3.2337   -1.8479 C   0  0  0  0  0  0  0  0  0  0  0  0
   -4.7841   -4.1808   -0.8985 C   0  0  0  0  0  0  0  0  0  0  0  0
   -5.3269   -3.7625    0.3146 C   0  0  0  0  0  0  0  0  0  0  0  0
   -5.8005   -4.9301    1.4888 Cl  0  0  0  0  0  0  0  0  0  0  0  0
   -5.4932   -2.4036    0.5847 C   0  0  0  0  0  0  0  0  0  0  0  0
    0.9873    0.7346   -0.7351 C   0  0  0  0  0  0  0  0  0  0  0  0
    1.9155   -0.2826   -0.5013 C   0  0  0  0  0  0  0  0  0  0  0  0
    7.3509   -4.3075   -1.3599 H   0  0  0  0  0  0  0  0  0  0  0  0
    8.0368   -3.8522    0.2110 H   0  0  0  0  0  0  0  0  0  0  0  0
    6.5196   -4.7719    0.1357 H   0  0  0  0  0  0  0  0  0  0  0  0
    6.9110   -1.9152   -0.9062 H   0  0  0  0  0  0  0  0  0  0  0  0
    5.4056   -2.8319   -0.9856 H   0  0  0  0  0  0  0  0  0  0  0  0
    6.8713   -2.0524    1.5986 H   0  0  0  0  0  0  0  0  0  0  0  0
    5.3539   -2.9616    1.5128 H   0  0  0  0  0  0  0  0  0  0  0  0
    5.0149   -0.5483    2.0215 H   0  0  0  0  0  0  0  0  0  0  0  0
    5.7487   -0.1208    0.4409 H   0  0  0  0  0  0  0  0  0  0  0  0
    4.2256    1.5112    1.2335 H   0  0  0  0  0  0  0  0  0  0  0  0
    2.6126    3.2761    0.8407 H   0  0  0  0  0  0  0  0  0  0  0  0
   -0.3381    2.8651   -1.4757 H   0  0  0  0  0  0  0  0  0  0  0  0
   -0.0550    5.2221   -0.9947 H   0  0  0  0  0  0  0  0  0  0  0  0
    1.5269    4.5574   -1.4202 H   0  0  0  0  0  0  0  0  0  0  0  0
    1.1200    4.9059    0.2731 H   0  0  0  0  0  0  0  0  0  0  0  0
   -0.7079    2.2921    1.2061 H   0  0  0  0  0  0  0  0  0  0  0  0
   -3.4253    4.1509    1.8522 H   0  0  0  0  0  0  0  0  0  0  0  0
   -2.5711    2.6643    2.2700 H   0  0  0  0  0  0  0  0  0  0  0  0
   -4.6135    2.8043   -0.0441 H   0  0  0  0  0  0  0  0  0  0  0  0
   -5.0619    2.3846    1.6277 H   0  0  0  0  0  0  0  0  0  0  0  0
   -5.5228    0.5756   -1.0057 H   0  0  0  0  0  0  0  0  0  0  0  0
   -6.1090    0.1932    0.6295 H   0  0  0  0  0  0  0  0  0  0  0  0
   -4.2449   -1.1490   -2.3345 H   0  0  0  0  0  0  0  0  0  0  0  0
   -3.9643   -3.5551   -2.7918 H   0  0  0  0  0  0  0  0  0  0  0  0
   -4.6525   -5.2387   -1.1078 H   0  0  0  0  0  0  0  0  0  0  0  0
   -5.9074   -2.0970    1.5433 H   0  0  0  0  0  0  0  0  0  0  0  0
    0.0692    0.4978   -1.2711 H   0  0  0  0  0  0  0  0  0  0  0  0
    1.7134   -1.2866   -0.8655 H   0  0  0  0  0  0  0  0  0  0  0  0
  1  2  1  0
  2  3  1  0
  3  4  1  0
  4  5  1  0
  5  6  1  0
  6  7  2  0
  7  8  1  0
  8  9  2  0
  9 10  1  0
 10 11  1  0
 10 12  1  0
 12 13  1  0
 13 14  2  0
 13 15  1  0
 15 16  1  0
 16 17  1  0
 17 18  2  0
 17 19  2  0
 17 20  1  0
 20 21  1  0
 21 22  2  0
 22 23  1  0
 23 24  2  0
 24 25  1  0
 25 26  1  0
 25 27  2  0
  9 28  1  0
 28 29  2  0
 29  6  1  0
 27 21  1  0
  1 30  1  0
  1 31  1  0
  1 32  1  0
  2 33  1  0
  2 34  1  0
  3 35  1  0
  3 36  1  0
  4 37  1  0
  4 38  1  0
  7 39  1  0
  8 40  1  0
 10 41  1  0
 11 42  1  0
 11 43  1  0
 11 44  1  0
 12 45  1  0
 15 46  1  0
 15 47  1  0
 16 48  1  0
 16 49  1  0
 20 50  1  0
 20 51  1  0
 22 52  1  0
 23 53  1  0
 24 54  1  0
 27 55  1  0
 28 56  1  0
 29 57  1  0
M  END
$$$$
