
     RDKit          3D

 30 33  0  0  0  0  0  0  0  0999 V2000
    1.8678    1.2196    0.0798 O   0  0  0  0  0  0  0  0  0  0  0  0
    1.4492    0.1055    0.3269 C   0  0  0  0  0  0  0  0  0  0  0  0
    2.1722   -1.1629    0.6829 C   0  0  0  0  0  0  0  0  0  0  0  0
    3.4889   -1.3677    0.8328 C   0  0  0  0  0  0  0  0  0  0  0  0
    4.5273   -0.4158    0.6521 C   0  0  0  0  0  0  0  0  0  0  0  0
    4.7132    0.6054   -0.2731 C   0  0  0  0  0  0  0  0  0  0  0  0
    5.9581    1.2244   -0.0049 C   0  0  0  0  0  0  0  0  0  0  0  0
    6.4925    0.5415    1.0547 C   0  0  0  0  0  0  0  0  0  0  0  0
    5.6567   -0.4493    1.4447 O   0  0  0  0  0  0  0  0  0  0  0  0
    1.0377   -2.5016    0.9597 S   0  0  0  0  0  0  0  0  0  0  0  0
   -0.2759   -1.4624    0.6157 C   0  0  0  0  0  0  0  0  0  0  0  0
   -1.5690   -1.5931    0.5568 N   0  0  0  0  0  0  0  0  0  0  0  0
   -1.9709   -0.3002    0.2320 C   0  0  0  0  0  0  0  0  0  0  0  0
   -3.3773    0.0243    0.0303 C   0  0  0  0  0  0  0  0  0  0  0  0
   -4.1581   -0.8862   -0.7065 C   0  0  0  0  0  0  0  0  0  0  0  0
   -5.5094   -0.6387   -0.9579 C   0  0  0  0  0  0  0  0  0  0  0  0
   -6.1033    0.5208   -0.4707 C   0  0  0  0  0  0  0  0  0  0  0  0
   -5.3494    1.4267    0.2754 C   0  0  0  0  0  0  0  0  0  0  0  0
   -3.9924    1.1822    0.5321 C   0  0  0  0  0  0  0  0  0  0  0  0
   -3.1003    2.4531    1.6327 Br  0  0  0  0  0  0  0  0  0  0  0  0
   -0.9555    0.5696    0.0448 N   0  0  0  0  0  0  0  0  0  0  0  0
    0.1052   -0.2065    0.3235 N   0  0  0  0  0  0  0  0  0  0  0  0
    3.8357   -2.3444    1.1657 H   0  0  0  0  0  0  0  0  0  0  0  0
    4.0287    0.8815   -1.0637 H   0  0  0  0  0  0  0  0  0  0  0  0
    6.4066    2.0585   -0.5256 H   0  0  0  0  0  0  0  0  0  0  0  0
    7.4122    0.6276    1.6163 H   0  0  0  0  0  0  0  0  0  0  0  0
   -3.7089   -1.7992   -1.0952 H   0  0  0  0  0  0  0  0  0  0  0  0
   -6.0946   -1.3519   -1.5333 H   0  0  0  0  0  0  0  0  0  0  0  0
   -7.1552    0.7175   -0.6635 H   0  0  0  0  0  0  0  0  0  0  0  0
   -5.8318    2.3215    0.6628 H   0  0  0  0  0  0  0  0  0  0  0  0
  1  2  2  0
  2  3  1  0
  3  4  2  3
  4  5  1  0
  5  6  2  0
  6  7  1  0
  7  8  2  0
  8  9  1  0
  3 10  1  0
 10 11  1  0
 11 12  2  0
 12 13  1  0
 13 14  1  0
 14 15  2  0
 15 16  1  0
 16 17  2  0
 17 18  1  0
 18 19  2  0
 19 20  1  0
 13 21  2  0
 21 22  1  0
 22  2  1  0
  9  5  1  0
 22 11  1  0
 19 14  1  0
  4 23  1  0
  6 24  1  0
  7 25  1  0
  8 26  1  0
 15 27  1  0
 16 28  1  0
 17 29  1  0
 18 30  1  0
M  END
$$$$
