
     RDKit          3D

 38 39  0  0  0  0  0  0  0  0999 V2000
    5.9134    2.1170    0.0101 C   0  0  0  0  0  0  0  0  0  0  0  0
    4.8184    1.0932    0.0222 C   0  0  0  0  0  0  0  0  0  0  0  0
    3.4902    1.4747    0.2247 C   0  0  0  0  0  0  0  0  0  0  0  0
    2.4696    0.5157    0.2676 C   0  0  0  0  0  0  0  0  0  0  0  0
    2.7472   -0.8465    0.1282 C   0  0  0  0  0  0  0  0  0  0  0  0
    1.7723   -1.8508    0.1387 N   0  0  0  0  0  0  0  0  0  0  0  0
    0.3815   -1.8502    0.2225 C   0  0  0  0  0  0  0  0  0  0  0  0
   -0.1719   -3.0493    0.2938 N   0  0  0  0  0  0  0  0  0  0  0  0
   -1.4932   -3.0190    0.3642 C   0  0  0  0  0  0  0  0  0  0  0  0
   -2.2705   -4.5392    0.4530 Cl  0  0  0  0  0  0  0  0  0  0  0  0
   -2.2879   -1.9635    0.3596 N   0  0  0  0  0  0  0  0  0  0  0  0
   -1.6431   -0.8186    0.2824 C   0  0  0  0  0  0  0  0  0  0  0  0
   -2.3149    0.3871    0.2791 N   0  0  0  0  0  0  0  0  0  0  0  0
   -3.6657    0.5420   -0.2703 C   0  0  0  0  0  0  0  0  0  0  0  0
   -3.9694    2.0554   -0.2625 C   0  0  0  0  0  0  0  0  0  0  0  0
   -3.7451    0.0436   -1.7205 C   0  0  0  0  0  0  0  0  0  0  0  0
   -4.7159   -0.1495    0.6113 C   0  0  0  0  0  0  0  0  0  0  0  0
   -0.3213   -0.7205    0.2097 N   0  0  0  0  0  0  0  0  0  0  0  0
    4.0873   -1.2172   -0.0677 C   0  0  0  0  0  0  0  0  0  0  0  0
    5.1116   -0.2647   -0.1124 C   0  0  0  0  0  0  0  0  0  0  0  0
    6.7427    1.7946   -0.6283 H   0  0  0  0  0  0  0  0  0  0  0  0
    5.5514    3.0716   -0.3860 H   0  0  0  0  0  0  0  0  0  0  0  0
    6.2894    2.2749    1.0256 H   0  0  0  0  0  0  0  0  0  0  0  0
    3.2329    2.5240    0.3514 H   0  0  0  0  0  0  0  0  0  0  0  0
    1.4553    0.8668    0.4271 H   0  0  0  0  0  0  0  0  0  0  0  0
    2.1101   -2.8027    0.1532 H   0  0  0  0  0  0  0  0  0  0  0  0
   -1.6439    1.0855   -0.0260 H   0  0  0  0  0  0  0  0  0  0  0  0
   -3.2499    2.6081   -0.8784 H   0  0  0  0  0  0  0  0  0  0  0  0
   -4.9720    2.2646   -0.6524 H   0  0  0  0  0  0  0  0  0  0  0  0
   -3.9106    2.4653    0.7528 H   0  0  0  0  0  0  0  0  0  0  0  0
   -3.6052   -1.0400   -1.7914 H   0  0  0  0  0  0  0  0  0  0  0  0
   -4.7218    0.2725   -2.1620 H   0  0  0  0  0  0  0  0  0  0  0  0
   -2.9763    0.5149   -2.3437 H   0  0  0  0  0  0  0  0  0  0  0  0
   -4.5995    0.1357    1.6632 H   0  0  0  0  0  0  0  0  0  0  0  0
   -4.6554   -1.2402    0.5567 H   0  0  0  0  0  0  0  0  0  0  0  0
   -5.7308    0.1242    0.3001 H   0  0  0  0  0  0  0  0  0  0  0  0
    4.3531   -2.2648   -0.1887 H   0  0  0  0  0  0  0  0  0  0  0  0
    6.1379   -0.5945   -0.2563 H   0  0  0  0  0  0  0  0  0  0  0  0
  1  2  1  0
  2  3  2  0
  3  4  1  0
  4  5  2  0
  5  6  1  0
  6  7  1  0
  7  8  2  0
  8  9  1  0
  9 10  1  0
  9 11  2  0
 11 12  1  0
 12 13  1  0
 13 14  1  0
 14 15  1  0
 14 16  1  0
 14 17  1  0
 12 18  2  0
  5 19  1  0
 19 20  2  0
 20  2  1  0
 18  7  1  0
  1 21  1  0
  1 22  1  0
  1 23  1  0
  3 24  1  0
  4 25  1  0
  6 26  1  0
 13 27  1  0
 15 28  1  0
 15 29  1  0
 15 30  1  0
 16 31  1  0
 16 32  1  0
 16 33  1  0
 17 34  1  0
 17 35  1  0
 17 36  1  0
 19 37  1  0
 20 38  1  0
M  END
$$$$
