
     RDKit          3D

 58 60  0  0  0  0  0  0  0  0999 V2000
    2.9743    3.5232   -0.2396 C   0  0  0  0  0  0  0  0  0  0  0  0
    1.6635    3.0434    0.3673 C   0  0  0  0  0  0  0  0  0  0  0  0
    1.8458    2.0019    1.4754 C   0  0  0  0  0  0  0  0  0  0  0  0
    2.4327    0.7041    0.9983 C   0  0  0  0  0  0  0  0  0  0  0  0
    3.8095    0.5010    1.0774 N   0  0  0  0  0  0  0  0  0  0  0  0
    4.0397   -0.8266    0.6908 N   0  0  0  0  0  0  0  0  0  0  0  0
    5.3518   -1.3387    0.6067 C   0  0  0  0  0  0  0  0  0  0  0  0
    5.5889   -2.6773    0.2597 C   0  0  0  0  0  0  0  0  0  0  0  0
    6.8922   -3.1863    0.1789 C   0  0  0  0  0  0  0  0  0  0  0  0
    7.9791   -2.3486    0.4450 C   0  0  0  0  0  0  0  0  0  0  0  0
    9.3471   -2.8751    0.3604 N   0  0  0  0  0  4  0  0  0  0  0  0
    9.4889   -4.0664    0.0503 O   0  0  0  0  0  0  0  0  0  0  0  0
   10.2793   -2.0965    0.6075 O   0  0  0  0  0  1  0  0  0  0  0  0
    7.7683   -1.0099    0.7896 C   0  0  0  0  0  0  0  0  0  0  0  0
    6.4606   -0.5142    0.8681 C   0  0  0  0  0  0  0  0  0  0  0  0
    2.8272   -1.4121    0.3206 C   0  0  0  0  0  0  0  0  0  0  0  0
    2.5838   -2.5335   -0.0951 O   0  0  0  0  0  0  0  0  0  0  0  0
    1.7810   -0.3757    0.5306 C   0  0  0  0  0  0  0  0  0  0  0  0
    0.3485   -0.5984    0.2960 C   0  0  0  0  0  0  0  0  0  0  0  0
   -0.5541    0.3125    0.4248 N   0  0  0  0  0  0  0  0  0  0  0  0
   -1.9099   -0.1675    0.1251 C   0  0  0  0  0  0  0  0  0  0  0  0
   -2.8810    1.0074    0.2573 C   0  0  0  0  0  0  0  0  0  0  0  0
   -4.3072    0.5927   -0.0085 C   0  0  0  0  0  0  0  0  0  0  0  0
   -5.1275    0.1691    1.0405 C   0  0  0  0  0  0  0  0  0  0  0  0
   -6.4425   -0.2331    0.7946 C   0  0  0  0  0  0  0  0  0  0  0  0
   -6.9562   -0.2206   -0.5061 C   0  0  0  0  0  0  0  0  0  0  0  0
   -8.2337   -0.5992   -0.8393 O   0  0  0  0  0  0  0  0  0  0  0  0
   -9.1041   -0.9790    0.2160 C   0  0  0  0  0  0  0  0  0  0  0  0
   -6.1356    0.1984   -1.5724 C   0  0  0  0  0  0  0  0  0  0  0  0
   -6.7108    0.1777   -2.8198 O   0  0  0  0  0  0  0  0  0  0  0  0
   -5.9226    0.6144   -3.9173 C   0  0  0  0  0  0  0  0  0  0  0  0
   -4.8183    0.5995   -1.3150 C   0  0  0  0  0  0  0  0  0  0  0  0
    2.7834    4.3343   -0.9499 H   0  0  0  0  0  0  0  0  0  0  0  0
    3.4832    2.7208   -0.7825 H   0  0  0  0  0  0  0  0  0  0  0  0
    3.6501    3.9028    0.5337 H   0  0  0  0  0  0  0  0  0  0  0  0
    1.1395    3.9091    0.7899 H   0  0  0  0  0  0  0  0  0  0  0  0
    1.0225    2.6451   -0.4281 H   0  0  0  0  0  0  0  0  0  0  0  0
    2.4806    2.4202    2.2675 H   0  0  0  0  0  0  0  0  0  0  0  0
    0.8777    1.8200    1.9560 H   0  0  0  0  0  0  0  0  0  0  0  0
    4.1666    0.7200    2.0096 H   0  0  0  0  0  0  0  0  0  0  0  0
    4.7684   -3.3593    0.0484 H   0  0  0  0  0  0  0  0  0  0  0  0
    7.0338   -4.2310   -0.0930 H   0  0  0  0  0  0  0  0  0  0  0  0
    8.6015   -0.3395    0.9920 H   0  0  0  0  0  0  0  0  0  0  0  0
    6.3294    0.5367    1.1157 H   0  0  0  0  0  0  0  0  0  0  0  0
    0.0870   -1.6274   -0.0134 H   0  0  0  0  0  0  0  0  0  0  0  0
   -2.1899   -0.9652    0.8244 H   0  0  0  0  0  0  0  0  0  0  0  0
   -1.9542   -0.5743   -0.8931 H   0  0  0  0  0  0  0  0  0  0  0  0
   -2.5963    1.8105   -0.4347 H   0  0  0  0  0  0  0  0  0  0  0  0
   -2.8057    1.4469    1.2603 H   0  0  0  0  0  0  0  0  0  0  0  0
   -4.7486    0.1500    2.0601 H   0  0  0  0  0  0  0  0  0  0  0  0
   -7.0395   -0.5530    1.6417 H   0  0  0  0  0  0  0  0  0  0  0  0
   -9.2554   -0.1547    0.9210 H   0  0  0  0  0  0  0  0  0  0  0  0
   -8.7377   -1.8753    0.7268 H   0  0  0  0  0  0  0  0  0  0  0  0
  -10.0763   -1.2221   -0.2233 H   0  0  0  0  0  0  0  0  0  0  0  0
   -6.5373    0.5430   -4.8196 H   0  0  0  0  0  0  0  0  0  0  0  0
   -5.0499   -0.0319   -4.0589 H   0  0  0  0  0  0  0  0  0  0  0  0
   -5.6261    1.6623   -3.8004 H   0  0  0  0  0  0  0  0  0  0  0  0
   -4.1651    0.9250   -2.1183 H   0  0  0  0  0  0  0  0  0  0  0  0
  1  2  1  0
  2  3  1  0
  3  4  1  0
  4  5  1  0
  5  6  1  0
  6  7  1  0
  7  8  2  0
  8  9  1  0
  9 10  2  0
 10 11  1  0
 11 12  2  0
 11 13  1  0
 10 14  1  0
 14 15  2  0
  6 16  1  0
 16 17  2  0
 16 18  1  0
 18 19  1  0
 19 20  2  3
 20 21  1  0
 21 22  1  0
 22 23  1  0
 23 24  2  0
 24 25  1  0
 25 26  2  0
 26 27  1  0
 27 28  1  0
 26 29  1  0
 29 30  1  0
 30 31  1  0
 29 32  2  0
 18  4  2  0
 32 23  1  0
 15  7  1  0
  1 33  1  0
  1 34  1  0
  1 35  1  0
  2 36  1  0
  2 37  1  0
  3 38  1  0
  3 39  1  0
  5 40  1  0
  8 41  1  0
  9 42  1  0
 14 43  1  0
 15 44  1  0
 19 45  1  0
 21 46  1  0
 21 47  1  0
 22 48  1  0
 22 49  1  0
 24 50  1  0
 25 51  1  0
 28 52  1  0
 28 53  1  0
 28 54  1  0
 31 55  1  0
 31 56  1  0
 31 57  1  0
 32 58  1  0
M  CHG  2  11   1  13  -1
M  END
$$$$
