
     RDKit          3D

 36 37  0  0  0  0  0  0  0  0999 V2000
    5.8092   -0.3800   -2.4031 C   0  0  0  0  0  0  0  0  0  0  0  0
    5.2705   -0.7917   -1.1525 O   0  0  0  0  0  0  0  0  0  0  0  0
    3.9312   -0.5890   -0.9596 C   0  0  0  0  0  0  0  0  0  0  0  0
    3.0389   -0.0729   -1.8962 C   0  0  0  0  0  0  0  0  0  0  0  0
    1.6856    0.0836   -1.5722 C   0  0  0  0  0  0  0  0  0  0  0  0
    1.2149   -0.2568   -0.3047 C   0  0  0  0  0  0  0  0  0  0  0  0
   -0.1381   -0.1521    0.0983 N   0  0  0  0  0  0  0  0  0  0  0  0
   -1.2060    0.6215   -0.3593 C   0  0  0  0  0  0  0  0  0  0  0  0
   -1.1043    1.9354   -1.3887 S   0  0  0  0  0  0  0  0  0  0  0  0
   -2.3788    0.0910    0.1891 N   0  0  0  0  0  0  0  0  0  0  0  0
   -3.6837    0.6168    0.3102 C   0  0  0  0  0  0  0  0  0  0  0  0
   -3.9888    1.9781    0.3159 C   0  0  0  0  0  0  0  0  0  0  0  0
   -5.3101    2.4110    0.4741 C   0  0  0  0  0  0  0  0  0  0  0  0
   -6.3370    1.4864    0.6445 C   0  0  0  0  0  0  0  0  0  0  0  0
   -6.0423    0.1268    0.6684 C   0  0  0  0  0  0  0  0  0  0  0  0
   -4.7220   -0.3038    0.5109 C   0  0  0  0  0  0  0  0  0  0  0  0
    2.1119   -0.8086    0.6352 C   0  0  0  0  0  0  0  0  0  0  0  0
    1.5547   -1.1610    1.8451 O   0  0  0  0  0  0  0  0  0  0  0  0
    2.4441   -1.6349    2.8498 C   0  0  0  0  0  0  0  0  0  0  0  0
    3.4613   -0.9632    0.3025 C   0  0  0  0  0  0  0  0  0  0  0  0
    5.3767   -0.9571   -3.2270 H   0  0  0  0  0  0  0  0  0  0  0  0
    5.6731    0.6955   -2.5580 H   0  0  0  0  0  0  0  0  0  0  0  0
    6.8849   -0.5802   -2.3856 H   0  0  0  0  0  0  0  0  0  0  0  0
    3.3547    0.2100   -2.8951 H   0  0  0  0  0  0  0  0  0  0  0  0
    1.0219    0.4439   -2.3498 H   0  0  0  0  0  0  0  0  0  0  0  0
   -0.2859   -0.5485    1.0228 H   0  0  0  0  0  0  0  0  0  0  0  0
   -2.3067   -0.9033    0.3658 H   0  0  0  0  0  0  0  0  0  0  0  0
   -3.2184    2.7368    0.2358 H   0  0  0  0  0  0  0  0  0  0  0  0
   -5.5311    3.4755    0.4724 H   0  0  0  0  0  0  0  0  0  0  0  0
   -7.3618    1.8265    0.7667 H   0  0  0  0  0  0  0  0  0  0  0  0
   -6.8383   -0.5996    0.8088 H   0  0  0  0  0  0  0  0  0  0  0  0
   -4.5215   -1.3719    0.5314 H   0  0  0  0  0  0  0  0  0  0  0  0
    2.9111   -2.5782    2.5486 H   0  0  0  0  0  0  0  0  0  0  0  0
    1.8548   -1.8293    3.7511 H   0  0  0  0  0  0  0  0  0  0  0  0
    3.1965   -0.8800    3.1012 H   0  0  0  0  0  0  0  0  0  0  0  0
    4.1787   -1.3767    1.0033 H   0  0  0  0  0  0  0  0  0  0  0  0
  1  2  1  0
  2  3  1  0
  3  4  2  0
  4  5  1  0
  5  6  2  0
  6  7  1  0
  7  8  1  0
  8  9  2  0
  8 10  1  0
 10 11  1  0
 11 12  2  0
 12 13  1  0
 13 14  2  0
 14 15  1  0
 15 16  2  0
  6 17  1  0
 17 18  1  0
 18 19  1  0
 17 20  2  0
 20  3  1  0
 16 11  1  0
  1 21  1  0
  1 22  1  0
  1 23  1  0
  4 24  1  0
  5 25  1  0
  7 26  1  0
 10 27  1  0
 12 28  1  0
 13 29  1  0
 14 30  1  0
 15 31  1  0
 16 32  1  0
 19 33  1  0
 19 34  1  0
 19 35  1  0
 20 36  1  0
M  END
$$$$
