
     RDKit          3D

 36 37  0  0  0  0  0  0  0  0999 V2000
   -6.7447    0.9277   -1.1203 C   0  0  0  0  0  0  0  0  0  0  0  0
   -5.3513    0.3602   -1.2193 C   0  0  0  0  0  0  0  0  0  0  0  0
   -5.0396   -0.3874   -2.1377 O   0  0  0  0  0  0  0  0  0  0  0  0
   -4.5443    0.7916   -0.1813 N   0  0  0  0  0  0  0  0  0  0  0  0
   -3.1963    0.4556    0.0553 C   0  0  0  0  0  0  0  0  0  0  0  0
   -2.4527   -0.4066   -0.7477 C   0  0  0  0  0  0  0  0  0  0  0  0
   -1.1154   -0.6891   -0.4390 C   0  0  0  0  0  0  0  0  0  0  0  0
   -0.4975   -0.1128    0.6746 C   0  0  0  0  0  0  0  0  0  0  0  0
    0.8471   -0.4560    0.9150 N   0  0  0  0  0  0  0  0  0  0  0  0
    1.6851    0.0471    1.8974 C   0  0  0  0  0  0  0  0  0  0  0  0
    1.4034    0.9080    2.7258 O   0  0  0  0  0  0  0  0  0  0  0  0
    3.0581   -0.6114    1.9048 C   0  0  0  0  0  0  0  0  0  0  0  0
    3.8196   -0.4583    0.6082 C   0  0  0  0  0  0  0  0  0  0  0  0
    4.0823    0.8176    0.0852 C   0  0  0  0  0  0  0  0  0  0  0  0
    4.8053    0.9621   -1.1003 C   0  0  0  0  0  0  0  0  0  0  0  0
    5.2690   -0.1675   -1.7601 C   0  0  0  0  0  0  0  0  0  0  0  0
    5.9614   -0.0307   -2.8986 F   0  0  0  0  0  0  0  0  0  0  0  0
    5.0274   -1.4396   -1.2546 C   0  0  0  0  0  0  0  0  0  0  0  0
    4.3045   -1.5876   -0.0690 C   0  0  0  0  0  0  0  0  0  0  0  0
   -1.2421    0.7459    1.4804 C   0  0  0  0  0  0  0  0  0  0  0  0
   -2.5798    1.0275    1.1725 C   0  0  0  0  0  0  0  0  0  0  0  0
   -7.2218    0.5802   -0.2003 H   0  0  0  0  0  0  0  0  0  0  0  0
   -7.3395    0.5925   -1.9747 H   0  0  0  0  0  0  0  0  0  0  0  0
   -6.7042    2.0208   -1.1316 H   0  0  0  0  0  0  0  0  0  0  0  0
   -4.9649    1.4265    0.4854 H   0  0  0  0  0  0  0  0  0  0  0  0
   -2.8805   -0.8802   -1.6249 H   0  0  0  0  0  0  0  0  0  0  0  0
   -0.5706   -1.3649   -1.0930 H   0  0  0  0  0  0  0  0  0  0  0  0
    1.2647   -1.0992    0.2534 H   0  0  0  0  0  0  0  0  0  0  0  0
    2.9157   -1.6707    2.1513 H   0  0  0  0  0  0  0  0  0  0  0  0
    3.6549   -0.1775    2.7159 H   0  0  0  0  0  0  0  0  0  0  0  0
    3.7304    1.7098    0.6019 H   0  0  0  0  0  0  0  0  0  0  0  0
    5.0115    1.9462   -1.5093 H   0  0  0  0  0  0  0  0  0  0  0  0
    5.4103   -2.3064   -1.7810 H   0  0  0  0  0  0  0  0  0  0  0  0
    4.1363   -2.5862    0.3264 H   0  0  0  0  0  0  0  0  0  0  0  0
   -0.8172    1.2133    2.3620 H   0  0  0  0  0  0  0  0  0  0  0  0
   -3.1245    1.7033    1.8269 H   0  0  0  0  0  0  0  0  0  0  0  0
  1  2  1  0
  2  3  2  0
  2  4  1  0
  4  5  1  0
  5  6  2  0
  6  7  1  0
  7  8  2  0
  8  9  1  0
  9 10  1  0
 10 11  2  0
 10 12  1  0
 12 13  1  0
 13 14  2  0
 14 15  1  0
 15 16  2  0
 16 17  1  0
 16 18  1  0
 18 19  2  0
  8 20  1  0
 20 21  2  0
 21  5  1  0
 19 13  1  0
  1 22  1  0
  1 23  1  0
  1 24  1  0
  4 25  1  0
  6 26  1  0
  7 27  1  0
  9 28  1  0
 12 29  1  0
 12 30  1  0
 14 31  1  0
 15 32  1  0
 18 33  1  0
 19 34  1  0
 20 35  1  0
 21 36  1  0
M  END
$$$$
