
     RDKit          3D

 35 37  0  0  0  0  0  0  0  0999 V2000
   -4.6857    2.1029   -1.3587 C   0  0  0  0  0  0  0  0  0  0  0  0
   -3.7781    0.9709   -0.9738 C   0  0  0  0  0  0  0  0  0  0  0  0
   -3.7446   -0.2011   -1.7423 C   0  0  0  0  0  0  0  0  0  0  0  0
   -2.9268   -1.2686   -1.3690 C   0  0  0  0  0  0  0  0  0  0  0  0
   -2.1405   -1.1628   -0.2192 C   0  0  0  0  0  0  0  0  0  0  0  0
   -1.1081   -2.5235    0.2566 S   0  0  0  0  0  6  0  0  0  0  0  0
   -0.6279   -2.3070    1.6047 O   0  0  0  0  0  0  0  0  0  0  0  0
   -1.8034   -3.7432   -0.0986 O   0  0  0  0  0  0  0  0  0  0  0  0
    0.1896   -2.3996   -0.8241 N   0  0  0  0  0  0  0  0  0  0  0  0
    1.2118   -1.4608   -0.5251 C   0  0  0  0  0  0  0  0  0  0  0  0
    1.1015   -0.1509   -0.9844 C   0  0  0  0  0  0  0  0  0  0  0  0
    2.0807    0.7893   -0.6530 C   0  0  0  0  0  0  0  0  0  0  0  0
    3.1712    0.4202    0.1508 C   0  0  0  0  0  0  0  0  0  0  0  0
    4.1505    1.3876    0.4827 N   0  0  0  0  0  0  0  0  0  0  0  0
    5.2816    1.2612    1.2492 C   0  0  0  0  0  0  0  0  0  0  0  0
    5.9105    2.4133    1.2921 N   0  0  0  0  0  0  0  0  0  0  0  0
    5.1575    3.2750    0.5402 N   0  0  0  0  0  0  0  0  0  0  0  0
    4.0891    2.6666    0.0450 N   0  0  0  0  0  0  0  0  0  0  0  0
    3.2714   -0.8988    0.6165 C   0  0  0  0  0  0  0  0  0  0  0  0
    2.2885   -1.8351    0.2776 C   0  0  0  0  0  0  0  0  0  0  0  0
   -2.1850   -0.0131    0.5726 C   0  0  0  0  0  0  0  0  0  0  0  0
   -3.0045    1.0509    0.1925 C   0  0  0  0  0  0  0  0  0  0  0  0
   -4.8105    2.1508   -2.4456 H   0  0  0  0  0  0  0  0  0  0  0  0
   -4.2694    3.0634   -1.0373 H   0  0  0  0  0  0  0  0  0  0  0  0
   -5.6677    1.9691   -0.8948 H   0  0  0  0  0  0  0  0  0  0  0  0
   -4.3605   -0.2892   -2.6353 H   0  0  0  0  0  0  0  0  0  0  0  0
   -2.9105   -2.1738   -1.9717 H   0  0  0  0  0  0  0  0  0  0  0  0
    0.4724   -3.3238   -1.1482 H   0  0  0  0  0  0  0  0  0  0  0  0
    0.2626    0.1486   -1.6078 H   0  0  0  0  0  0  0  0  0  0  0  0
    1.9713    1.8058   -1.0291 H   0  0  0  0  0  0  0  0  0  0  0  0
    5.5942    0.3517    1.7357 H   0  0  0  0  0  0  0  0  0  0  0  0
    4.0878   -1.2338    1.2501 H   0  0  0  0  0  0  0  0  0  0  0  0
    2.3599   -2.8493    0.6635 H   0  0  0  0  0  0  0  0  0  0  0  0
   -1.5894    0.0635    1.4796 H   0  0  0  0  0  0  0  0  0  0  0  0
   -3.0395    1.9437    0.8140 H   0  0  0  0  0  0  0  0  0  0  0  0
  1  2  1  0
  2  3  2  0
  3  4  1  0
  4  5  2  0
  5  6  1  0
  6  7  2  0
  6  8  2  0
  6  9  1  0
  9 10  1  0
 10 11  2  0
 11 12  1  0
 12 13  2  0
 13 14  1  0
 14 15  1  0
 15 16  2  0
 16 17  1  0
 17 18  2  0
 13 19  1  0
 19 20  2  0
  5 21  1  0
 21 22  2  0
 22  2  1  0
 20 10  1  0
 18 14  1  0
  1 23  1  0
  1 24  1  0
  1 25  1  0
  3 26  1  0
  4 27  1  0
  9 28  1  0
 11 29  1  0
 12 30  1  0
 15 31  1  0
 19 32  1  0
 20 33  1  0
 21 34  1  0
 22 35  1  0
M  END
$$$$
