
     RDKit          3D

 41 41  0  0  0  0  0  0  0  0999 V2000
    3.9635   -2.4009    2.8292 C   0  0  0  0  0  0  0  0  0  0  0  0
    3.2183   -1.6437    1.7404 C   0  0  0  0  0  0  0  0  0  0  0  0
    2.5923   -0.3589    2.2844 C   0  0  0  0  0  0  0  0  0  0  0  0
    1.9346    0.5073    1.2044 C   0  0  0  0  0  0  0  0  0  0  0  0
    0.6947   -0.1417    0.5781 C   0  0  0  0  0  0  0  0  0  0  0  0
    0.0314    0.7287   -0.5113 C   0  0  0  0  0  0  0  0  0  0  0  0
   -0.6054    2.0026    0.0551 C   0  0  0  0  0  0  0  0  0  0  0  0
   -1.2154    2.8548   -1.0468 C   0  0  0  0  0  0  0  0  0  0  0  0
   -1.1926    4.1417   -0.8700 N   0  0  0  0  0  0  0  0  0  0  0  0
   -1.7818    4.8347   -1.9336 O   0  0  0  0  0  0  0  0  0  0  0  0
   -1.8122    2.1469   -2.2178 C   0  0  0  0  0  0  0  0  0  0  0  0
   -1.7298    0.8110   -2.3438 C   0  0  0  0  0  0  0  0  0  0  0  0
   -2.3636    0.1042   -3.5106 C   0  0  0  0  0  0  0  0  0  0  0  0
   -0.9984   -0.0719   -1.3464 C   0  0  0  0  0  0  0  0  0  0  0  0
   -2.0238   -0.7952   -0.4655 C   0  0  0  0  0  0  0  0  0  0  0  0
   -3.0025   -0.2775    0.0558 O   0  0  0  0  0  0  0  0  0  0  0  0
   -1.6714   -2.1068   -0.3239 O   0  0  0  0  0  0  0  0  0  0  0  0
   -2.5600   -2.8600    0.5024 C   0  0  0  0  0  0  0  0  0  0  0  0
    4.3994   -3.3185    2.4220 H   0  0  0  0  0  0  0  0  0  0  0  0
    4.7752   -1.7948    3.2440 H   0  0  0  0  0  0  0  0  0  0  0  0
    3.2890   -2.6781    3.6457 H   0  0  0  0  0  0  0  0  0  0  0  0
    3.9146   -1.4049    0.9283 H   0  0  0  0  0  0  0  0  0  0  0  0
    2.4457   -2.2999    1.3264 H   0  0  0  0  0  0  0  0  0  0  0  0
    3.3732    0.2393    2.7707 H   0  0  0  0  0  0  0  0  0  0  0  0
    1.8554   -0.6040    3.0589 H   0  0  0  0  0  0  0  0  0  0  0  0
    1.6569    1.4584    1.6711 H   0  0  0  0  0  0  0  0  0  0  0  0
    2.6679    0.7386    0.4225 H   0  0  0  0  0  0  0  0  0  0  0  0
   -0.0282   -0.3687    1.3711 H   0  0  0  0  0  0  0  0  0  0  0  0
    0.9851   -1.0958    0.1239 H   0  0  0  0  0  0  0  0  0  0  0  0
    0.8248    1.0405   -1.2077 H   0  0  0  0  0  0  0  0  0  0  0  0
   -1.3888    1.7743    0.7863 H   0  0  0  0  0  0  0  0  0  0  0  0
    0.1492    2.6101    0.5666 H   0  0  0  0  0  0  0  0  0  0  0  0
   -1.7087    5.7621   -1.6409 H   0  0  0  0  0  0  0  0  0  0  0  0
   -2.3312    2.7581   -2.9471 H   0  0  0  0  0  0  0  0  0  0  0  0
   -3.1120   -0.6153   -3.1635 H   0  0  0  0  0  0  0  0  0  0  0  0
   -2.8643    0.8005   -4.1917 H   0  0  0  0  0  0  0  0  0  0  0  0
   -1.6036   -0.4340   -4.0863 H   0  0  0  0  0  0  0  0  0  0  0  0
   -0.4454   -0.8301   -1.9185 H   0  0  0  0  0  0  0  0  0  0  0  0
   -2.5765   -2.4524    1.5180 H   0  0  0  0  0  0  0  0  0  0  0  0
   -3.5659   -2.8730    0.0715 H   0  0  0  0  0  0  0  0  0  0  0  0
   -2.1898   -3.8879    0.5483 H   0  0  0  0  0  0  0  0  0  0  0  0
  1  2  1  0
  2  3  1  0
  3  4  1  0
  4  5  1  0
  5  6  1  0
  6  7  1  0
  7  8  1  0
  8  9  2  3
  9 10  1  0
  8 11  1  0
 11 12  2  0
 12 13  1  0
 12 14  1  0
 14 15  1  0
 15 16  2  0
 15 17  1  0
 17 18  1  0
 14  6  1  0
  1 19  1  0
  1 20  1  0
  1 21  1  0
  2 22  1  0
  2 23  1  0
  3 24  1  0
  3 25  1  0
  4 26  1  0
  4 27  1  0
  5 28  1  0
  5 29  1  0
  6 30  1  0
  7 31  1  0
  7 32  1  0
 10 33  1  0
 11 34  1  0
 13 35  1  0
 13 36  1  0
 13 37  1  0
 14 38  1  0
 18 39  1  0
 18 40  1  0
 18 41  1  0
M  END
$$$$
