
     RDKit          3D

 31 33  0  0  0  0  0  0  0  0999 V2000
    1.7259   -1.7769    0.5522 O   0  0  0  0  0  0  0  0  0  0  0  0
    2.2520   -0.7967    0.0344 C   0  0  0  0  0  0  0  0  0  0  0  0
    1.5984    0.0313   -0.8593 N   0  0  0  0  0  0  0  0  0  0  0  0
    0.2067   -0.1129   -0.9633 N   0  0  0  0  0  0  0  0  0  0  0  0
   -0.5996    0.6068   -0.0998 C   0  0  0  0  0  0  0  0  0  0  0  0
   -0.2259    1.4636    0.6914 O   0  0  0  0  0  0  0  0  0  0  0  0
   -2.0219    0.2195   -0.3234 C   0  0  0  0  0  0  0  0  0  0  0  0
   -2.9907    0.7436    0.4401 C   0  0  0  0  0  0  0  0  0  0  0  0
   -4.3821    0.4510    0.3351 C   0  0  0  0  0  0  0  0  0  0  0  0
   -5.2001    0.2503   -0.7649 C   0  0  0  0  0  0  0  0  0  0  0  0
   -6.5579   -0.0112   -0.4163 C   0  0  0  0  0  0  0  0  0  0  0  0
   -6.7524    0.0136    0.9439 C   0  0  0  0  0  0  0  0  0  0  0  0
   -5.3112    0.3604    1.7890 S   0  0  0  0  0  0  0  0  0  0  0  0
   -2.1274   -0.9422   -1.5951 S   0  0  0  0  0  0  0  0  0  0  0  0
   -0.3865   -0.9768   -1.8590 C   0  0  0  0  0  0  0  0  0  0  0  0
    0.3445   -1.8851   -3.0516 S   0  0  0  0  0  0  0  0  0  0  0  0
    3.6608   -0.4641    0.3376 C   0  0  0  0  0  0  0  0  0  0  0  0
    4.1728    0.8356    0.3071 C   0  0  0  0  0  0  0  0  0  0  0  0
    5.5174    1.0453    0.6125 C   0  0  0  0  0  0  0  0  0  0  0  0
    6.3002   -0.0502    0.9426 C   0  0  0  0  0  0  0  0  0  0  0  0
    5.8323   -1.3154    0.9932 N   0  0  0  0  0  0  0  0  0  0  0  0
    4.5201   -1.4945    0.6996 C   0  0  0  0  0  0  0  0  0  0  0  0
    1.9845    0.9057   -1.1906 H   0  0  0  0  0  0  0  0  0  0  0  0
   -2.7019    1.4291    1.2375 H   0  0  0  0  0  0  0  0  0  0  0  0
   -4.8517    0.2927   -1.7896 H   0  0  0  0  0  0  0  0  0  0  0  0
   -7.3503   -0.2022   -1.1297 H   0  0  0  0  0  0  0  0  0  0  0  0
   -7.6750   -0.1476    1.4845 H   0  0  0  0  0  0  0  0  0  0  0  0
    3.5468    1.6939    0.0866 H   0  0  0  0  0  0  0  0  0  0  0  0
    5.9447    2.0426    0.6054 H   0  0  0  0  0  0  0  0  0  0  0  0
    7.3523    0.0649    1.1893 H   0  0  0  0  0  0  0  0  0  0  0  0
    4.1751   -2.5244    0.7605 H   0  0  0  0  0  0  0  0  0  0  0  0
  1  2  2  0
  2  3  1  0
  3  4  1  0
  4  5  1  0
  5  6  2  0
  5  7  1  0
  7  8  2  3
  8  9  1  0
  9 10  2  0
 10 11  1  0
 11 12  2  0
 12 13  1  0
  7 14  1  0
 14 15  1  0
 15 16  2  0
  2 17  1  0
 17 18  2  0
 18 19  1  0
 19 20  2  0
 20 21  1  0
 21 22  2  0
 15  4  1  0
 22 17  1  0
 13  9  1  0
  3 23  1  0
  8 24  1  0
 10 25  1  0
 11 26  1  0
 12 27  1  0
 18 28  1  0
 19 29  1  0
 20 30  1  0
 22 31  1  0
M  END
$$$$
