
     RDKit          3D

 46 50  0  0  0  0  0  0  0  0999 V2000
   -7.2096    2.0990   -1.5167 C   0  0  0  0  0  0  0  0  0  0  0  0
   -5.9821    1.4614   -0.9221 C   0  0  0  0  0  0  0  0  0  0  0  0
   -4.7157    1.9505   -1.3032 C   0  0  0  0  0  0  0  0  0  0  0  0
   -3.5578    1.3740   -0.7628 C   0  0  0  0  0  0  0  0  0  0  0  0
   -2.2325    1.6931   -0.9897 N   0  0  0  0  0  0  0  0  0  0  0  0
   -1.5877    0.8523   -0.2302 C   0  0  0  0  0  0  0  0  0  0  0  0
    0.0840    0.5869    0.0720 S   0  0  0  0  0  0  0  0  0  0  0  0
   -0.3152   -0.6944    1.1888 C   0  0  0  0  0  0  0  0  0  0  0  0
    0.4937   -1.4667    1.9279 C   0  0  0  0  0  0  0  0  0  0  0  0
    1.9154   -1.4069    1.9418 C   0  0  0  0  0  0  0  0  0  0  0  0
    2.7891   -2.0996    2.7725 C   0  0  0  0  0  0  0  0  0  0  0  0
    4.1115   -1.7315    2.4250 C   0  0  0  0  0  0  0  0  0  0  0  0
    4.0033   -0.8362    1.3849 C   0  0  0  0  0  0  0  0  0  0  0  0
    4.9465   -0.0773    0.5670 C   0  0  0  0  0  0  0  0  0  0  0  0
    4.5830    1.2050    0.1169 C   0  0  0  0  0  0  0  0  0  0  0  0
    5.4713    1.9989   -0.6162 C   0  0  0  0  0  0  0  0  0  0  0  0
    6.7468    1.5290   -0.9127 C   0  0  0  0  0  0  0  0  0  0  0  0
    7.1293    0.2590   -0.4873 C   0  0  0  0  0  0  0  0  0  0  0  0
    6.2296   -0.5431    0.2324 C   0  0  0  0  0  0  0  0  0  0  0  0
    6.7049   -1.8887    0.5883 C   0  0  0  0  0  0  0  0  0  0  0  0
    7.6766   -2.1493    1.2703 O   0  0  0  0  0  0  0  0  0  0  0  0
    5.9672   -2.8364   -0.0132 O   0  0  0  0  0  0  0  0  0  0  0  0
    2.6845   -0.6363    1.1044 O   0  0  0  0  0  0  0  0  0  0  0  0
   -1.7899   -0.8987    1.3007 C   0  0  0  0  0  0  0  0  0  0  0  0
   -2.4169   -1.6942    1.9758 O   0  0  0  0  0  0  0  0  0  0  0  0
   -2.3923    0.0162    0.4684 N   0  0  0  0  0  0  0  0  0  0  0  0
   -3.6893    0.3214    0.1473 C   0  0  0  0  0  0  0  0  0  0  0  0
   -4.9265   -0.1928    0.5458 C   0  0  0  0  0  0  0  0  0  0  0  0
   -6.0835    0.3885   -0.0082 C   0  0  0  0  0  0  0  0  0  0  0  0
   -7.4281   -0.1445    0.4176 C   0  0  0  0  0  0  0  0  0  0  0  0
   -7.7470    1.3774   -2.1400 H   0  0  0  0  0  0  0  0  0  0  0  0
   -6.9520    2.9554   -2.1479 H   0  0  0  0  0  0  0  0  0  0  0  0
   -7.8720    2.4639   -0.7265 H   0  0  0  0  0  0  0  0  0  0  0  0
   -4.6157    2.7718   -2.0060 H   0  0  0  0  0  0  0  0  0  0  0  0
    0.0438   -2.2095    2.5850 H   0  0  0  0  0  0  0  0  0  0  0  0
    2.4992   -2.7954    3.5484 H   0  0  0  0  0  0  0  0  0  0  0  0
    5.0256   -2.0792    2.8848 H   0  0  0  0  0  0  0  0  0  0  0  0
    3.5968    1.6054    0.3481 H   0  0  0  0  0  0  0  0  0  0  0  0
    5.1634    2.9874   -0.9493 H   0  0  0  0  0  0  0  0  0  0  0  0
    7.4391    2.1471   -1.4799 H   0  0  0  0  0  0  0  0  0  0  0  0
    8.1232   -0.1126   -0.7274 H   0  0  0  0  0  0  0  0  0  0  0  0
    6.3885   -3.6818    0.2448 H   0  0  0  0  0  0  0  0  0  0  0  0
   -4.9876   -1.0128    1.2570 H   0  0  0  0  0  0  0  0  0  0  0  0
   -8.0283   -0.4151   -0.4570 H   0  0  0  0  0  0  0  0  0  0  0  0
   -7.9601    0.6061    1.0104 H   0  0  0  0  0  0  0  0  0  0  0  0
   -7.3267   -1.0468    1.0307 H   0  0  0  0  0  0  0  0  0  0  0  0
  1  2  1  0
  2  3  2  0
  3  4  1  0
  4  5  1  0
  5  6  2  0
  6  7  1  0
  7  8  1  0
  8  9  2  3
  9 10  1  0
 10 11  2  0
 11 12  1  0
 12 13  2  0
 13 14  1  0
 14 15  2  0
 15 16  1  0
 16 17  2  0
 17 18  1  0
 18 19  2  0
 19 20  1  0
 20 21  2  0
 20 22  1  0
 13 23  1  0
  8 24  1  0
 24 25  2  0
 24 26  1  0
 26 27  1  0
 27 28  1  0
 28 29  2  0
 29 30  1  0
 29  2  1  0
 27  4  2  0
 26  6  1  0
 23 10  1  0
 19 14  1  0
  1 31  1  0
  1 32  1  0
  1 33  1  0
  3 34  1  0
  9 35  1  0
 11 36  1  0
 12 37  1  0
 15 38  1  0
 16 39  1  0
 17 40  1  0
 18 41  1  0
 22 42  1  0
 28 43  1  0
 30 44  1  0
 30 45  1  0
 30 46  1  0
M  END
$$$$
