
     RDKit          3D

 45 48  0  0  0  0  0  0  0  0999 V2000
   -4.4759    2.4094    0.9794 C   0  0  0  0  0  0  0  0  0  0  0  0
   -3.7437    1.3021    0.4736 O   0  0  0  0  0  0  0  0  0  0  0  0
   -4.4019    0.4177   -0.3451 C   0  0  0  0  0  0  0  0  0  0  0  0
   -5.7441    0.5629   -0.7258 C   0  0  0  0  0  0  0  0  0  0  0  0
   -6.3549   -0.3726   -1.5648 C   0  0  0  0  0  0  0  0  0  0  0  0
   -5.6331   -1.4630   -2.0339 C   0  0  0  0  0  0  0  0  0  0  0  0
   -4.2986   -1.6177   -1.6630 C   0  0  0  0  0  0  0  0  0  0  0  0
   -3.6601   -0.6914   -0.8194 C   0  0  0  0  0  0  0  0  0  0  0  0
   -2.3047   -0.9645   -0.5195 N   0  0  0  0  0  0  0  0  0  0  0  0
   -1.3806    0.0587   -1.0467 C   0  0  0  0  0  0  0  0  0  0  0  0
    0.0804   -0.4077   -0.8719 C   0  0  0  0  0  0  0  0  0  0  0  0
    0.3927   -0.8730    0.4921 N   0  0  0  0  0  0  0  0  0  0  0  0
    1.6778   -0.9194    1.0530 C   0  0  0  0  0  0  0  0  0  0  0  0
    1.8401   -1.3308    2.2049 O   0  0  0  0  0  0  0  0  0  0  0  0
    2.8559   -0.4662    0.2937 C   0  0  0  0  0  0  0  0  0  0  0  0
    4.1035   -0.0868    0.8620 C   0  0  0  0  0  0  0  0  0  0  0  0
    4.9310    0.2158   -0.1984 C   0  0  0  0  0  0  0  0  0  0  0  0
    6.2966    0.6637   -0.2210 C   0  0  0  0  0  0  0  0  0  0  0  0
    7.0545    0.9261   -1.3473 C   0  0  0  0  0  0  0  0  0  0  0  0
    8.3772    1.3560   -1.0323 C   0  0  0  0  0  0  0  0  0  0  0  0
    8.5889    1.4092    0.3263 C   0  0  0  0  0  0  0  0  0  0  0  0
    7.2008    0.9440    1.2086 S   0  0  0  0  0  0  0  0  0  0  0  0
    4.2102    0.0078   -1.3441 O   0  0  0  0  0  0  0  0  0  0  0  0
    2.9389   -0.4304   -1.0444 N   0  0  0  0  0  0  0  0  0  0  0  0
   -0.6312   -1.7299    1.1119 C   0  0  0  0  0  0  0  0  0  0  0  0
   -2.0675   -1.2145    0.9165 C   0  0  0  0  0  0  0  0  0  0  0  0
   -5.3146    2.0791    1.6010 H   0  0  0  0  0  0  0  0  0  0  0  0
   -4.8138    3.0632    0.1688 H   0  0  0  0  0  0  0  0  0  0  0  0
   -3.8021    2.9920    1.6151 H   0  0  0  0  0  0  0  0  0  0  0  0
   -6.3476    1.3977   -0.3865 H   0  0  0  0  0  0  0  0  0  0  0  0
   -7.3959   -0.2470   -1.8513 H   0  0  0  0  0  0  0  0  0  0  0  0
   -6.1031   -2.1933   -2.6866 H   0  0  0  0  0  0  0  0  0  0  0  0
   -3.7372   -2.4729   -2.0325 H   0  0  0  0  0  0  0  0  0  0  0  0
   -1.5681    0.2356   -2.1130 H   0  0  0  0  0  0  0  0  0  0  0  0
   -1.5030    1.0125   -0.5200 H   0  0  0  0  0  0  0  0  0  0  0  0
    0.7224    0.4362   -1.1354 H   0  0  0  0  0  0  0  0  0  0  0  0
    0.2902   -1.2422   -1.5513 H   0  0  0  0  0  0  0  0  0  0  0  0
    4.3449   -0.0499    1.9146 H   0  0  0  0  0  0  0  0  0  0  0  0
    6.6786    0.8140   -2.3579 H   0  0  0  0  0  0  0  0  0  0  0  0
    9.1325    1.6118   -1.7656 H   0  0  0  0  0  0  0  0  0  0  0  0
    9.4923    1.6986    0.8458 H   0  0  0  0  0  0  0  0  0  0  0  0
   -0.4381   -1.8519    2.1828 H   0  0  0  0  0  0  0  0  0  0  0  0
   -0.5269   -2.7193    0.6486 H   0  0  0  0  0  0  0  0  0  0  0  0
   -2.1944   -0.3015    1.5097 H   0  0  0  0  0  0  0  0  0  0  0  0
   -2.7681   -1.9682    1.2963 H   0  0  0  0  0  0  0  0  0  0  0  0
  1  2  1  0
  2  3  1  0
  3  4  2  0
  4  5  1  0
  5  6  2  0
  6  7  1  0
  7  8  2  0
  8  9  1  0
  9 10  1  0
 10 11  1  0
 11 12  1  0
 12 13  1  0
 13 14  2  0
 13 15  1  0
 15 16  1  0
 16 17  2  0
 17 18  1  0
 18 19  2  0
 19 20  1  0
 20 21  2  0
 21 22  1  0
 17 23  1  0
 23 24  1  0
 12 25  1  0
 25 26  1  0
  8  3  1  0
 26  9  1  0
 24 15  2  0
 22 18  1  0
  1 27  1  0
  1 28  1  0
  1 29  1  0
  4 30  1  0
  5 31  1  0
  6 32  1  0
  7 33  1  0
 10 34  1  0
 10 35  1  0
 11 36  1  0
 11 37  1  0
 16 38  1  0
 19 39  1  0
 20 40  1  0
 21 41  1  0
 25 42  1  0
 25 43  1  0
 26 44  1  0
 26 45  1  0
M  END
$$$$
