
     RDKit          3D

 48 50  0  0  0  0  0  0  0  0999 V2000
   -5.1906    3.9493    1.9959 C   0  0  0  0  0  0  0  0  0  0  0  0
   -4.0092    3.3124    2.7027 C   0  0  0  0  0  0  0  0  0  0  0  0
   -3.5343    2.1854    1.9504 O   0  0  0  0  0  0  0  0  0  0  0  0
   -4.1261    0.9998    2.2197 C   0  0  0  0  0  0  0  0  0  0  0  0
   -5.0538    0.8081    2.9892 O   0  0  0  0  0  0  0  0  0  0  0  0
   -3.5653   -0.0638    1.3829 C   0  0  0  0  0  0  0  0  0  0  0  0
   -4.3841   -1.0927    0.9760 C   0  0  0  0  0  0  0  0  0  0  0  0
   -3.9701   -2.1210    0.2025 N   0  0  0  0  0  0  0  0  0  0  0  0
   -2.6756   -2.1189   -0.1557 C   0  0  0  0  0  0  0  0  0  0  0  0
   -2.0484   -3.4587   -1.1334 S   0  0  0  0  0  0  0  0  0  0  0  0
   -3.5726   -3.9887   -1.9490 C   0  0  0  0  0  0  0  0  0  0  0  0
   -1.7907   -1.1810    0.2083 N   0  0  0  0  0  0  0  0  0  0  0  0
   -2.2569   -0.1577    0.9624 C   0  0  0  0  0  0  0  0  0  0  0  0
   -1.3367    0.7735    1.4268 O   0  0  0  0  0  0  0  0  0  0  0  0
   -0.3791    1.1585    0.5198 C   0  0  0  0  0  0  0  0  0  0  0  0
   -0.5690    2.3392   -0.1934 C   0  0  0  0  0  0  0  0  0  0  0  0
    0.4142    2.7620   -1.0835 C   0  0  0  0  0  0  0  0  0  0  0  0
    1.5844    2.0116   -1.2494 C   0  0  0  0  0  0  0  0  0  0  0  0
    1.7866    0.8372   -0.5196 C   0  0  0  0  0  0  0  0  0  0  0  0
    2.9291    0.0188   -0.6428 N   0  0  0  0  0  0  0  0  0  0  0  0
    4.0552    0.2595   -1.4074 C   0  0  0  0  0  0  0  0  0  0  0  0
    4.3120    1.2738   -2.0438 O   0  0  0  0  0  0  0  0  0  0  0  0
    5.0629   -0.8390   -1.3991 C   0  0  0  0  0  0  0  0  0  0  0  0
    4.6827   -2.1884   -1.3805 C   0  0  0  0  0  0  0  0  0  0  0  0
    5.6603   -3.1878   -1.3790 C   0  0  0  0  0  0  0  0  0  0  0  0
    7.0112   -2.8400   -1.4050 C   0  0  0  0  0  0  0  0  0  0  0  0
    8.2097   -4.0738   -1.4037 Cl  0  0  0  0  0  0  0  0  0  0  0  0
    7.3962   -1.5008   -1.4409 C   0  0  0  0  0  0  0  0  0  0  0  0
    6.4218   -0.4996   -1.4432 C   0  0  0  0  0  0  0  0  0  0  0  0
    0.7980    0.4202    0.3789 C   0  0  0  0  0  0  0  0  0  0  0  0
   -6.0322    3.2522    1.9326 H   0  0  0  0  0  0  0  0  0  0  0  0
   -4.9235    4.2200    0.9691 H   0  0  0  0  0  0  0  0  0  0  0  0
   -5.5209    4.8483    2.5244 H   0  0  0  0  0  0  0  0  0  0  0  0
   -4.2622    3.0272    3.7304 H   0  0  0  0  0  0  0  0  0  0  0  0
   -3.1832    4.0290    2.7599 H   0  0  0  0  0  0  0  0  0  0  0  0
   -5.4333   -1.1290    1.2617 H   0  0  0  0  0  0  0  0  0  0  0  0
   -4.0249   -3.1592   -2.4993 H   0  0  0  0  0  0  0  0  0  0  0  0
   -3.3351   -4.7837   -2.6618 H   0  0  0  0  0  0  0  0  0  0  0  0
   -4.2889   -4.3832   -1.2238 H   0  0  0  0  0  0  0  0  0  0  0  0
   -1.4724    2.9267   -0.0583 H   0  0  0  0  0  0  0  0  0  0  0  0
    0.2774    3.6769   -1.6547 H   0  0  0  0  0  0  0  0  0  0  0  0
    2.3200    2.3715   -1.9624 H   0  0  0  0  0  0  0  0  0  0  0  0
    2.9297   -0.8133   -0.0670 H   0  0  0  0  0  0  0  0  0  0  0  0
    3.6351   -2.4779   -1.3985 H   0  0  0  0  0  0  0  0  0  0  0  0
    5.3633   -4.2338   -1.3692 H   0  0  0  0  0  0  0  0  0  0  0  0
    8.4483   -1.2288   -1.4719 H   0  0  0  0  0  0  0  0  0  0  0  0
    6.7225    0.5463   -1.4798 H   0  0  0  0  0  0  0  0  0  0  0  0
    0.9188   -0.4866    0.9638 H   0  0  0  0  0  0  0  0  0  0  0  0
  1  2  1  0
  2  3  1  0
  3  4  1  0
  4  5  2  0
  4  6  1  0
  6  7  2  0
  7  8  1  0
  8  9  2  0
  9 10  1  0
 10 11  1  0
  9 12  1  0
 12 13  2  0
 13 14  1  0
 14 15  1  0
 15 16  2  0
 16 17  1  0
 17 18  2  0
 18 19  1  0
 19 20  1  0
 20 21  1  0
 21 22  2  0
 21 23  1  0
 23 24  2  0
 24 25  1  0
 25 26  2  0
 26 27  1  0
 26 28  1  0
 28 29  2  0
 19 30  2  0
 13  6  1  0
 30 15  1  0
 29 23  1  0
  1 31  1  0
  1 32  1  0
  1 33  1  0
  2 34  1  0
  2 35  1  0
  7 36  1  0
 11 37  1  0
 11 38  1  0
 11 39  1  0
 16 40  1  0
 17 41  1  0
 18 42  1  0
 20 43  1  0
 24 44  1  0
 25 45  1  0
 28 46  1  0
 29 47  1  0
 30 48  1  0
M  END
$$$$
