
     RDKit          3D

 34 37  0  0  0  0  0  0  0  0999 V2000
    4.7851    2.1187   -0.4096 N   0  0  0  0  0  0  0  0  0  0  0  0
    3.6899    1.3216   -0.0090 C   0  0  0  0  0  0  0  0  0  0  0  0
    3.6895   -0.0692   -0.2319 C   0  0  0  0  0  0  0  0  0  0  0  0
    5.1102   -0.8681   -0.8152 Cl  0  0  0  0  0  0  0  0  0  0  0  0
    2.5597   -0.8470    0.0288 C   0  0  0  0  0  0  0  0  0  0  0  0
    1.3864   -0.2344    0.4745 C   0  0  0  0  0  0  0  0  0  0  0  0
    0.2042   -1.0791    0.7690 C   0  0  0  0  0  0  0  0  0  0  0  0
    0.3869   -2.1548    1.4688 N   0  0  0  0  0  0  0  0  0  0  0  0
   -0.7912   -3.0006    1.7629 C   0  0  0  0  0  0  0  0  0  0  0  0
   -2.0521   -2.1915    2.0480 C   0  0  0  0  0  0  0  0  0  0  0  0
   -2.2020   -1.2136    0.9913 N   0  0  0  0  0  0  0  0  0  0  0  0
   -3.4013   -0.7609    0.6005 N   0  0  0  0  0  0  0  0  0  0  0  0
   -3.1197    0.0463   -0.4358 C   0  0  0  0  0  0  0  0  0  0  0  0
   -3.9917    0.7674   -1.2682 C   0  0  0  0  0  0  0  0  0  0  0  0
   -3.3423    1.4955   -2.2870 C   0  0  0  0  0  0  0  0  0  0  0  0
   -1.9262    1.5014   -2.4701 C   0  0  0  0  0  0  0  0  0  0  0  0
   -1.0220    0.7923   -1.6515 C   0  0  0  0  0  0  0  0  0  0  0  0
   -1.6802    0.0942   -0.6382 C   0  0  0  0  0  0  0  0  0  0  0  0
   -1.1172   -0.6932    0.3393 C   0  0  0  0  0  0  0  0  0  0  0  0
    1.3507    1.1452    0.6890 C   0  0  0  0  0  0  0  0  0  0  0  0
    2.4872    1.9131    0.4243 C   0  0  0  0  0  0  0  0  0  0  0  0
    2.3857    3.6235    0.6720 Cl  0  0  0  0  0  0  0  0  0  0  0  0
    4.8242    3.0205    0.0604 H   0  0  0  0  0  0  0  0  0  0  0  0
    5.6719    1.6190   -0.4064 H   0  0  0  0  0  0  0  0  0  0  0  0
    2.5879   -1.9242   -0.1216 H   0  0  0  0  0  0  0  0  0  0  0  0
   -0.9500   -3.6797    0.9158 H   0  0  0  0  0  0  0  0  0  0  0  0
   -0.5610   -3.6243    2.6334 H   0  0  0  0  0  0  0  0  0  0  0  0
   -2.9392   -2.8312    2.0711 H   0  0  0  0  0  0  0  0  0  0  0  0
   -1.9716   -1.6349    2.9876 H   0  0  0  0  0  0  0  0  0  0  0  0
   -5.0649    0.7541   -1.1397 H   0  0  0  0  0  0  0  0  0  0  0  0
   -3.9539    2.0777   -2.9767 H   0  0  0  0  0  0  0  0  0  0  0  0
   -1.5220    2.0872   -3.2972 H   0  0  0  0  0  0  0  0  0  0  0  0
    0.0425    0.8044   -1.8362 H   0  0  0  0  0  0  0  0  0  0  0  0
    0.4467    1.6245    1.0577 H   0  0  0  0  0  0  0  0  0  0  0  0
  1  2  1  0
  2  3  2  0
  3  4  1  0
  3  5  1  0
  5  6  2  0
  6  7  1  0
  7  8  2  0
  8  9  1  0
  9 10  1  0
 10 11  1  0
 11 12  1  0
 12 13  2  0
 13 14  1  0
 14 15  2  0
 15 16  1  0
 16 17  2  0
 17 18  1  0
 18 19  2  0
  6 20  1  0
 20 21  2  0
 21 22  1  0
 21  2  1  0
 19  7  1  0
 19 11  1  0
 18 13  1  0
  1 23  1  0
  1 24  1  0
  5 25  1  0
  9 26  1  0
  9 27  1  0
 10 28  1  0
 10 29  1  0
 14 30  1  0
 15 31  1  0
 16 32  1  0
 17 33  1  0
 20 34  1  0
M  END
$$$$
