
     RDKit          3D

 38 40  0  0  0  0  0  0  0  0999 V2000
   -5.0225   -0.7736    1.4777 C   0  0  0  0  0  0  0  0  0  0  0  0
   -3.9012   -0.7677    0.4816 C   0  0  0  0  0  0  0  0  0  0  0  0
   -2.7987   -1.6116    0.6512 C   0  0  0  0  0  0  0  0  0  0  0  0
   -1.7662   -1.6278   -0.2901 C   0  0  0  0  0  0  0  0  0  0  0  0
   -1.8195   -0.8062   -1.4259 C   0  0  0  0  0  0  0  0  0  0  0  0
   -0.7110   -0.8192   -2.4506 C   0  0  0  0  0  0  0  0  0  0  0  0
    0.4102   -0.0165   -1.8736 C   0  0  0  0  0  0  0  0  0  0  0  0
    0.4882    1.4098   -1.8489 C   0  0  0  0  0  0  0  0  0  0  0  0
    1.6721    1.7661   -1.2451 C   0  0  0  0  0  0  0  0  0  0  0  0
    2.1969    2.9573   -0.9872 O   0  0  0  0  0  0  0  0  0  0  0  0
    2.3213    0.6092   -0.8880 N   0  0  0  0  0  0  0  0  0  0  0  0
    3.6105    0.5463   -0.2095 C   0  0  0  0  0  0  0  0  0  0  0  0
    3.4586    0.5658    1.2694 C   0  0  0  0  0  0  0  0  0  0  0  0
    2.5302    0.0457    2.1507 C   0  0  0  0  0  0  0  0  0  0  0  0
    2.9629    0.4019    3.4500 C   0  0  0  0  0  0  0  0  0  0  0  0
    4.1303    1.1080    3.2842 C   0  0  0  0  0  0  0  0  0  0  0  0
    4.4432    1.2091    1.9674 O   0  0  0  0  0  0  0  0  0  0  0  0
    1.5799   -0.4805   -1.2904 C   0  0  0  0  0  0  0  0  0  0  0  0
    2.0279   -1.7129   -1.0752 O   0  0  0  0  0  0  0  0  0  0  0  0
   -2.9338    0.0276   -1.5980 C   0  0  0  0  0  0  0  0  0  0  0  0
   -3.9664    0.0423   -0.6567 C   0  0  0  0  0  0  0  0  0  0  0  0
   -4.6428   -0.9540    2.4901 H   0  0  0  0  0  0  0  0  0  0  0  0
   -5.5397    0.1928    1.4917 H   0  0  0  0  0  0  0  0  0  0  0  0
   -5.7452   -1.5563    1.2241 H   0  0  0  0  0  0  0  0  0  0  0  0
   -2.7332   -2.2606    1.5216 H   0  0  0  0  0  0  0  0  0  0  0  0
   -0.9144   -2.2830   -0.1246 H   0  0  0  0  0  0  0  0  0  0  0  0
   -1.0462   -0.3806   -3.3980 H   0  0  0  0  0  0  0  0  0  0  0  0
   -0.4099   -1.8495   -2.6685 H   0  0  0  0  0  0  0  0  0  0  0  0
   -0.2554    2.0949   -2.2331 H   0  0  0  0  0  0  0  0  0  0  0  0
    1.5393    3.6253   -1.2511 H   0  0  0  0  0  0  0  0  0  0  0  0
    4.1210   -0.3684   -0.5282 H   0  0  0  0  0  0  0  0  0  0  0  0
    4.2126    1.3925   -0.5580 H   0  0  0  0  0  0  0  0  0  0  0  0
    1.6458   -0.5157    1.8799 H   0  0  0  0  0  0  0  0  0  0  0  0
    2.4833    0.1726    4.3908 H   0  0  0  0  0  0  0  0  0  0  0  0
    4.8228    1.5816    3.9656 H   0  0  0  0  0  0  0  0  0  0  0  0
    1.3769   -2.3340   -1.4428 H   0  0  0  0  0  0  0  0  0  0  0  0
   -3.0062    0.6747   -2.4691 H   0  0  0  0  0  0  0  0  0  0  0  0
   -4.8218    0.6948   -0.8174 H   0  0  0  0  0  0  0  0  0  0  0  0
  1  2  1  0
  2  3  2  0
  3  4  1  0
  4  5  2  0
  5  6  1  0
  6  7  1  0
  7  8  1  0
  8  9  2  0
  9 10  1  0
  9 11  1  0
 11 12  1  0
 12 13  1  0
 13 14  2  0
 14 15  1  0
 15 16  2  0
 16 17  1  0
 11 18  1  0
 18 19  1  0
  5 20  1  0
 20 21  2  0
 21  2  1  0
 18  7  2  0
 17 13  1  0
  1 22  1  0
  1 23  1  0
  1 24  1  0
  3 25  1  0
  4 26  1  0
  6 27  1  0
  6 28  1  0
  8 29  1  0
 10 30  1  0
 12 31  1  0
 12 32  1  0
 14 33  1  0
 15 34  1  0
 16 35  1  0
 19 36  1  0
 20 37  1  0
 21 38  1  0
M  END
$$$$
