
     RDKit          3D

 40 41  0  0  0  0  0  0  0  0999 V2000
    1.5640    2.8869   -0.5213 O   0  0  0  0  0  0  0  0  0  0  0  0
    1.7462    2.7986    0.6794 C   0  0  0  0  0  0  0  0  0  0  0  0
    2.7624    3.4514    1.2773 O   0  0  0  0  0  0  0  0  0  0  0  0
    0.9105    2.0361    1.6687 C   0  0  0  0  0  0  0  0  0  0  0  0
   -0.0340    1.0589    0.9562 C   0  0  0  0  0  0  0  0  0  0  0  0
   -0.8905    0.3185    1.9168 N   0  0  0  0  0  0  0  0  0  0  0  0
   -2.0302    1.1157    2.3740 C   0  0  0  0  0  0  0  0  0  0  0  0
   -2.9495    0.3155    3.2326 C   0  0  0  0  0  0  0  0  0  0  0  0
   -2.8016   -0.7990    4.0377 C   0  0  0  0  0  0  0  0  0  0  0  0
   -4.0750   -1.0617    4.5994 C   0  0  0  0  0  0  0  0  0  0  0  0
   -4.9184   -0.0918    4.1088 C   0  0  0  0  0  0  0  0  0  0  0  0
   -4.2440    0.7521    3.2863 O   0  0  0  0  0  0  0  0  0  0  0  0
    0.7940    0.0217    0.1769 C   0  0  0  0  0  0  0  0  0  0  0  0
    1.9217   -0.3452    0.4911 O   0  0  0  0  0  0  0  0  0  0  0  0
    0.0820   -0.4580   -0.8818 O   0  0  0  0  0  0  0  0  0  0  0  0
    0.7456   -1.4624   -1.6707 C   0  0  0  0  0  0  0  0  0  0  0  0
    1.7303   -0.8259   -2.6622 C   0  0  0  0  0  0  0  0  0  0  0  0
    2.5856   -1.8617   -3.3795 C   0  0  0  0  0  0  0  0  0  0  0  0
    1.7837   -2.1580   -4.6219 C   0  0  0  0  0  0  0  0  0  0  0  0
    1.2038   -0.8004   -4.9452 C   0  0  0  0  0  0  0  0  0  0  0  0
    0.9820   -0.1416   -3.6921 O   0  0  0  0  0  0  0  0  0  0  0  0
    3.2354    3.9022    0.5445 H   0  0  0  0  0  0  0  0  0  0  0  0
    1.5830    1.4962    2.3468 H   0  0  0  0  0  0  0  0  0  0  0  0
    0.3444    2.7715    2.2496 H   0  0  0  0  0  0  0  0  0  0  0  0
   -0.6466    1.6000    0.2220 H   0  0  0  0  0  0  0  0  0  0  0  0
   -0.3314    0.0318    2.7179 H   0  0  0  0  0  0  0  0  0  0  0  0
   -1.6890    1.9822    2.9527 H   0  0  0  0  0  0  0  0  0  0  0  0
   -2.5951    1.4869    1.5099 H   0  0  0  0  0  0  0  0  0  0  0  0
   -1.8880   -1.3611    4.1892 H   0  0  0  0  0  0  0  0  0  0  0  0
   -4.3462   -1.8629    5.2737 H   0  0  0  0  0  0  0  0  0  0  0  0
   -5.9707    0.1235    4.2378 H   0  0  0  0  0  0  0  0  0  0  0  0
    1.2427   -2.1840   -1.0116 H   0  0  0  0  0  0  0  0  0  0  0  0
   -0.0458   -1.9983   -2.2061 H   0  0  0  0  0  0  0  0  0  0  0  0
    2.3556   -0.0822   -2.1581 H   0  0  0  0  0  0  0  0  0  0  0  0
    3.5419   -1.4074   -3.6684 H   0  0  0  0  0  0  0  0  0  0  0  0
    2.8063   -2.7494   -2.7799 H   0  0  0  0  0  0  0  0  0  0  0  0
    2.3788   -2.5729   -5.4396 H   0  0  0  0  0  0  0  0  0  0  0  0
    0.9803   -2.8665   -4.3879 H   0  0  0  0  0  0  0  0  0  0  0  0
    1.9110   -0.1948   -5.5215 H   0  0  0  0  0  0  0  0  0  0  0  0
    0.2649   -0.8646   -5.5017 H   0  0  0  0  0  0  0  0  0  0  0  0
  1  2  2  0
  2  3  1  0
  2  4  1  0
  4  5  1  0
  5  6  1  0
  6  7  1  0
  7  8  1  0
  8  9  2  0
  9 10  1  0
 10 11  2  0
 11 12  1  0
  5 13  1  0
 13 14  2  0
 13 15  1  0
 15 16  1  0
 16 17  1  0
 17 18  1  0
 18 19  1  0
 19 20  1  0
 20 21  1  0
 12  8  1  0
 21 17  1  0
  3 22  1  0
  4 23  1  0
  4 24  1  0
  5 25  1  0
  6 26  1  0
  7 27  1  0
  7 28  1  0
  9 29  1  0
 10 30  1  0
 11 31  1  0
 16 32  1  0
 16 33  1  0
 17 34  1  0
 18 35  1  0
 18 36  1  0
 19 37  1  0
 19 38  1  0
 20 39  1  0
 20 40  1  0
M  END
$$$$
