
     RDKit          3D

 38 39  0  0  0  0  0  0  0  0999 V2000
    4.7031    0.5850    1.4169 C   0  0  0  0  0  0  0  0  0  0  0  0
    5.2763    0.2593    0.0440 C   0  0  0  0  0  0  0  0  0  0  0  0
    4.3526    0.6651   -1.1043 C   0  0  0  0  0  0  0  0  0  0  0  0
    3.1284   -0.1656   -1.1662 C   0  0  0  0  0  0  0  0  0  0  0  0
    2.9568   -1.3691   -1.6678 N   0  0  0  0  0  0  0  0  0  0  0  0
    1.6300   -1.6865   -1.4631 N   0  0  0  0  0  0  0  0  0  0  0  0
    1.0839   -0.6540   -0.8516 C   0  0  0  0  0  0  0  0  0  0  0  0
   -0.2871   -0.4522   -0.3968 C   0  0  0  0  0  0  0  0  0  0  0  0
   -0.6843    0.7338    0.2445 C   0  0  0  0  0  0  0  0  0  0  0  0
   -2.0028    0.9092    0.6722 C   0  0  0  0  0  0  0  0  0  0  0  0
   -2.4787    2.0299    1.3024 O   0  0  0  0  0  0  0  0  0  0  0  0
   -1.5289    2.9962    1.7301 C   0  0  0  0  0  0  0  0  0  0  0  0
   -2.9356   -0.1140    0.4343 C   0  0  0  0  0  0  0  0  0  0  0  0
   -4.2272    0.0345    0.8908 O   0  0  0  0  0  0  0  0  0  0  0  0
   -5.0384    0.6099   -0.1318 C   0  0  0  0  0  0  0  0  0  0  0  0
   -2.5580   -1.3166   -0.1851 C   0  0  0  0  0  0  0  0  0  0  0  0
   -3.5441   -2.2552   -0.3443 O   0  0  0  0  0  0  0  0  0  0  0  0
   -3.1594   -3.5347   -0.8292 C   0  0  0  0  0  0  0  0  0  0  0  0
   -1.2346   -1.4704   -0.6037 C   0  0  0  0  0  0  0  0  0  0  0  0
    1.9829    0.3591   -0.6312 O   0  0  0  0  0  0  0  0  0  0  0  0
    5.4316    0.3388    2.1961 H   0  0  0  0  0  0  0  0  0  0  0  0
    4.4655    1.6503    1.5002 H   0  0  0  0  0  0  0  0  0  0  0  0
    3.7932    0.0114    1.6181 H   0  0  0  0  0  0  0  0  0  0  0  0
    6.2277    0.7930   -0.0682 H   0  0  0  0  0  0  0  0  0  0  0  0
    5.5033   -0.8125   -0.0082 H   0  0  0  0  0  0  0  0  0  0  0  0
    4.8945    0.5516   -2.0508 H   0  0  0  0  0  0  0  0  0  0  0  0
    4.0877    1.7255   -1.0195 H   0  0  0  0  0  0  0  0  0  0  0  0
    0.0532    1.5152    0.3988 H   0  0  0  0  0  0  0  0  0  0  0  0
   -1.0542    3.4843    0.8728 H   0  0  0  0  0  0  0  0  0  0  0  0
   -2.0649    3.7649    2.2950 H   0  0  0  0  0  0  0  0  0  0  0  0
   -0.7819    2.5529    2.3972 H   0  0  0  0  0  0  0  0  0  0  0  0
   -5.0925   -0.0391   -1.0126 H   0  0  0  0  0  0  0  0  0  0  0  0
   -6.0510    0.7207    0.2675 H   0  0  0  0  0  0  0  0  0  0  0  0
   -4.6774    1.6044   -0.4162 H   0  0  0  0  0  0  0  0  0  0  0  0
   -2.8048   -3.4718   -1.8630 H   0  0  0  0  0  0  0  0  0  0  0  0
   -4.0463   -4.1756   -0.8209 H   0  0  0  0  0  0  0  0  0  0  0  0
   -2.4087   -3.9970   -0.1796 H   0  0  0  0  0  0  0  0  0  0  0  0
   -0.9097   -2.3810   -1.1006 H   0  0  0  0  0  0  0  0  0  0  0  0
  1  2  1  0
  2  3  1  0
  3  4  1  0
  4  5  2  0
  5  6  1  0
  6  7  2  0
  7  8  1  0
  8  9  2  0
  9 10  1  0
 10 11  1  0
 11 12  1  0
 10 13  2  0
 13 14  1  0
 14 15  1  0
 13 16  1  0
 16 17  1  0
 17 18  1  0
 16 19  2  0
  7 20  1  0
 20  4  1  0
 19  8  1  0
  1 21  1  0
  1 22  1  0
  1 23  1  0
  2 24  1  0
  2 25  1  0
  3 26  1  0
  3 27  1  0
  9 28  1  0
 12 29  1  0
 12 30  1  0
 12 31  1  0
 15 32  1  0
 15 33  1  0
 15 34  1  0
 18 35  1  0
 18 36  1  0
 18 37  1  0
 19 38  1  0
M  END
$$$$
