
     RDKit          3D

 39 39  0  0  0  0  0  0  0  0999 V2000
   -3.2713   -3.0441    0.3743 C   0  0  0  0  0  0  0  0  0  0  0  0
   -2.4100   -1.9146    0.2253 O   0  0  0  0  0  0  0  0  0  0  0  0
   -3.0276   -0.7175    0.4653 C   0  0  0  0  0  0  0  0  0  0  0  0
   -4.2053   -0.5937    0.7786 O   0  0  0  0  0  0  0  0  0  0  0  0
   -2.0771    0.4604    0.2140 C   0  0  0  0  0  0  0  0  0  0  0  0
   -2.2151    1.0154   -1.2139 C   0  0  0  0  0  0  0  0  0  0  0  0
   -3.6106    1.5360   -1.5610 C   0  0  0  0  0  0  0  0  0  0  0  0
   -4.6019    0.3251   -2.5031 S   0  0  0  0  0  0  0  0  0  0  0  0
   -3.8349    0.5138   -4.1324 C   0  0  0  0  0  0  0  0  0  0  0  0
   -0.6913    0.0403    0.4500 N   0  0  0  0  0  0  0  0  0  0  0  0
    0.3075    0.9347    0.6979 C   0  0  0  0  0  0  0  0  0  0  0  0
    0.1377    2.1428    0.7884 O   0  0  0  0  0  0  0  0  0  0  0  0
    1.5182    0.3213    0.8166 N   0  0  0  0  0  0  0  0  0  0  0  0
    2.6860    1.0842    1.2025 C   0  0  0  0  0  0  0  0  0  0  0  0
    3.8882    0.1906    1.4171 C   0  0  0  0  0  0  0  0  0  0  0  0
    5.1684    0.7398    1.4215 C   0  0  0  0  0  0  0  0  0  0  0  0
    6.2569   -0.0964    1.6532 C   0  0  0  0  0  0  0  0  0  0  0  0
    6.0413   -1.4501    1.8815 C   0  0  0  0  0  0  0  0  0  0  0  0
    4.7381   -1.9167    1.8717 C   0  0  0  0  0  0  0  0  0  0  0  0
    3.6596   -1.1329    1.6506 N   0  0  0  0  0  0  0  0  0  0  0  0
   -3.6471   -3.1076    1.4003 H   0  0  0  0  0  0  0  0  0  0  0  0
   -4.0981   -2.9929   -0.3410 H   0  0  0  0  0  0  0  0  0  0  0  0
   -2.6876   -3.9444    0.1638 H   0  0  0  0  0  0  0  0  0  0  0  0
   -2.3105    1.2381    0.9513 H   0  0  0  0  0  0  0  0  0  0  0  0
   -1.8646    0.2717   -1.9402 H   0  0  0  0  0  0  0  0  0  0  0  0
   -1.5230    1.8624   -1.3115 H   0  0  0  0  0  0  0  0  0  0  0  0
   -3.5297    2.4418   -2.1719 H   0  0  0  0  0  0  0  0  0  0  0  0
   -4.1642    1.8164   -0.6591 H   0  0  0  0  0  0  0  0  0  0  0  0
   -3.9223    1.5472   -4.4776 H   0  0  0  0  0  0  0  0  0  0  0  0
   -4.3521   -0.1331   -4.8462 H   0  0  0  0  0  0  0  0  0  0  0  0
   -2.7826    0.2216   -4.1049 H   0  0  0  0  0  0  0  0  0  0  0  0
   -0.4265   -0.8817    0.1293 H   0  0  0  0  0  0  0  0  0  0  0  0
    1.5286   -0.6356    1.1463 H   0  0  0  0  0  0  0  0  0  0  0  0
    2.8835    1.8165    0.4117 H   0  0  0  0  0  0  0  0  0  0  0  0
    2.4635    1.6211    2.1316 H   0  0  0  0  0  0  0  0  0  0  0  0
    5.3207    1.8004    1.2474 H   0  0  0  0  0  0  0  0  0  0  0  0
    7.2659    0.3064    1.6580 H   0  0  0  0  0  0  0  0  0  0  0  0
    6.8693   -2.1254    2.0657 H   0  0  0  0  0  0  0  0  0  0  0  0
    4.5201   -2.9661    2.0489 H   0  0  0  0  0  0  0  0  0  0  0  0
  1  2  1  0
  2  3  1  0
  3  4  2  0
  3  5  1  0
  5  6  1  0
  6  7  1  0
  7  8  1  0
  8  9  1  0
  5 10  1  0
 10 11  1  0
 11 12  2  0
 11 13  1  0
 13 14  1  0
 14 15  1  0
 15 16  2  0
 16 17  1  0
 17 18  2  0
 18 19  1  0
 19 20  2  0
 20 15  1  0
  1 21  1  0
  1 22  1  0
  1 23  1  0
  5 24  1  0
  6 25  1  0
  6 26  1  0
  7 27  1  0
  7 28  1  0
  9 29  1  0
  9 30  1  0
  9 31  1  0
 10 32  1  0
 13 33  1  0
 14 34  1  0
 14 35  1  0
 16 36  1  0
 17 37  1  0
 18 38  1  0
 19 39  1  0
M  END
$$$$
