
     RDKit          3D

 40 41  0  0  0  0  0  0  0  0999 V2000
    5.7120    0.7380   -0.6993 C   0  0  0  0  0  0  0  0  0  0  0  0
    5.6118   -0.0741    0.5801 C   0  0  0  0  0  0  0  0  0  0  0  0
    4.5818    0.4383    1.4240 O   0  0  0  0  0  0  0  0  0  0  0  0
    3.3176   -0.0661    1.3041 C   0  0  0  0  0  0  0  0  0  0  0  0
    2.8630   -0.9305    0.3060 C   0  0  0  0  0  0  0  0  0  0  0  0
    1.5327   -1.3623    0.3018 C   0  0  0  0  0  0  0  0  0  0  0  0
    0.6567   -0.9182    1.2957 C   0  0  0  0  0  0  0  0  0  0  0  0
   -1.0279   -1.4803    1.2730 S   0  0  0  0  0  6  0  0  0  0  0  0
   -1.7099   -0.9347    2.4280 O   0  0  0  0  0  0  0  0  0  0  0  0
   -0.9902   -2.9071    1.0308 O   0  0  0  0  0  0  0  0  0  0  0  0
   -1.6715   -0.7047   -0.1204 N   0  0  0  0  0  0  0  0  0  0  0  0
   -1.6091    0.7815   -0.0879 C   0  0  0  0  0  0  0  0  0  0  0  0
   -2.3169    1.4620   -1.2572 C   0  0  0  0  0  0  0  0  0  0  0  0
   -3.7968    1.7208   -0.9800 C   0  0  0  0  0  0  0  0  0  0  0  0
   -4.6779    0.4780   -0.9962 C   0  0  0  0  0  0  0  0  0  0  0  0
   -4.1968   -0.6584   -0.0970 C   0  0  0  0  0  0  0  0  0  0  0  0
   -2.9284   -1.3198   -0.6234 C   0  0  0  0  0  0  0  0  0  0  0  0
    1.0986   -0.0587    2.3011 C   0  0  0  0  0  0  0  0  0  0  0  0
    2.4281    0.3674    2.2949 C   0  0  0  0  0  0  0  0  0  0  0  0
    5.8644    1.7977   -0.4689 H   0  0  0  0  0  0  0  0  0  0  0  0
    6.5464    0.3888   -1.3142 H   0  0  0  0  0  0  0  0  0  0  0  0
    4.7930    0.6717   -1.2890 H   0  0  0  0  0  0  0  0  0  0  0  0
    5.5049   -1.1474    0.3876 H   0  0  0  0  0  0  0  0  0  0  0  0
    6.5504    0.0385    1.1348 H   0  0  0  0  0  0  0  0  0  0  0  0
    3.5126   -1.2840   -0.4875 H   0  0  0  0  0  0  0  0  0  0  0  0
    1.1840   -2.0396   -0.4752 H   0  0  0  0  0  0  0  0  0  0  0  0
   -1.9924    1.1649    0.8641 H   0  0  0  0  0  0  0  0  0  0  0  0
   -0.5518    1.0631   -0.1527 H   0  0  0  0  0  0  0  0  0  0  0  0
   -2.1817    0.9085   -2.1932 H   0  0  0  0  0  0  0  0  0  0  0  0
   -1.8447    2.4419   -1.4055 H   0  0  0  0  0  0  0  0  0  0  0  0
   -4.1775    2.4179   -1.7369 H   0  0  0  0  0  0  0  0  0  0  0  0
   -3.9062    2.2309   -0.0148 H   0  0  0  0  0  0  0  0  0  0  0  0
   -5.6882    0.7695   -0.6833 H   0  0  0  0  0  0  0  0  0  0  0  0
   -4.7720    0.1140   -2.0271 H   0  0  0  0  0  0  0  0  0  0  0  0
   -4.0799   -0.3137    0.9363 H   0  0  0  0  0  0  0  0  0  0  0  0
   -4.9908   -1.4161   -0.0854 H   0  0  0  0  0  0  0  0  0  0  0  0
   -2.9541   -2.3815   -0.3536 H   0  0  0  0  0  0  0  0  0  0  0  0
   -2.9001   -1.3173   -1.7197 H   0  0  0  0  0  0  0  0  0  0  0  0
    0.4266    0.2812    3.0854 H   0  0  0  0  0  0  0  0  0  0  0  0
    2.7804    1.0399    3.0743 H   0  0  0  0  0  0  0  0  0  0  0  0
  1  2  1  0
  2  3  1  0
  3  4  1  0
  4  5  2  0
  5  6  1  0
  6  7  2  0
  7  8  1  0
  8  9  2  0
  8 10  2  0
  8 11  1  0
 11 12  1  0
 12 13  1  0
 13 14  1  0
 14 15  1  0
 15 16  1  0
 16 17  1  0
  7 18  1  0
 18 19  2  0
 19  4  1  0
 17 11  1  0
  1 20  1  0
  1 21  1  0
  1 22  1  0
  2 23  1  0
  2 24  1  0
  5 25  1  0
  6 26  1  0
 12 27  1  0
 12 28  1  0
 13 29  1  0
 13 30  1  0
 14 31  1  0
 14 32  1  0
 15 33  1  0
 15 34  1  0
 16 35  1  0
 16 36  1  0
 17 37  1  0
 17 38  1  0
 18 39  1  0
 19 40  1  0
M  END
$$$$
