
     RDKit          3D

 53 56  0  0  0  0  0  0  0  0999 V2000
    0.2919    0.0098   -2.9228 C   0  0  0  0  0  0  0  0  0  0  0  0
   -0.3720   -1.1191   -2.1780 C   0  0  0  0  0  0  0  0  0  0  0  0
    0.0803   -2.2638   -2.1933 O   0  0  0  0  0  0  0  0  0  0  0  0
   -1.6088   -0.8007   -1.4248 C   0  0  0  0  0  0  0  0  0  0  0  0
   -1.5021   -0.2835   -0.1791 C   0  0  0  0  0  0  0  0  0  0  0  0
   -0.3014   -0.0907    0.4992 N   0  0  0  0  0  0  0  0  0  0  0  0
    0.0744    1.2200    1.0681 C   0  0  0  0  0  0  0  0  0  0  0  0
    1.5323    1.2533    1.5888 C   0  0  0  0  0  0  0  0  0  0  0  0
    2.4567    0.5933    0.6581 N   0  0  0  0  0  0  0  0  0  0  0  0
    3.8580    0.7606    1.0619 C   0  0  0  0  0  0  0  0  0  0  0  0
    4.8437    0.3074    0.0057 C   0  0  0  0  0  0  0  0  0  0  0  0
    5.8196   -0.6542    0.3043 C   0  0  0  0  0  0  0  0  0  0  0  0
    6.7338   -1.0616   -0.6693 C   0  0  0  0  0  0  0  0  0  0  0  0
    6.6846   -0.5108   -1.9487 C   0  0  0  0  0  0  0  0  0  0  0  0
    5.7225    0.4487   -2.2569 C   0  0  0  0  0  0  0  0  0  0  0  0
    4.8088    0.8578   -1.2848 C   0  0  0  0  0  0  0  0  0  0  0  0
    2.0890   -0.8316    0.4690 C   0  0  0  0  0  0  0  0  0  0  0  0
    0.6247   -1.1917    0.8248 C   0  0  0  0  0  0  0  0  0  0  0  0
   -2.6648    0.0930    0.4509 N   0  0  0  0  0  0  0  0  0  0  0  0
   -3.9059   -0.1797   -0.0611 C   0  0  0  0  0  0  0  0  0  0  0  0
   -5.1224    0.0885    0.7689 C   0  0  0  0  0  0  0  0  0  0  0  0
   -6.3071   -0.6084    0.4995 C   0  0  0  0  0  0  0  0  0  0  0  0
   -7.4490   -0.3774    1.2686 C   0  0  0  0  0  0  0  0  0  0  0  0
   -7.4149    0.5545    2.3048 C   0  0  0  0  0  0  0  0  0  0  0  0
   -6.2424    1.2613    2.5703 C   0  0  0  0  0  0  0  0  0  0  0  0
   -5.0966    1.0324    1.8039 C   0  0  0  0  0  0  0  0  0  0  0  0
   -4.0700   -0.6777   -1.2494 N   0  0  0  0  0  0  0  0  0  0  0  0
   -2.9692   -0.9284   -2.0509 C   0  0  0  0  0  0  0  0  0  0  0  0
   -3.2080   -1.3540   -3.6746 S   0  0  0  0  0  0  0  0  0  0  0  0
   -0.2654    0.9433   -2.8039 H   0  0  0  0  0  0  0  0  0  0  0  0
    1.3023    0.1568   -2.5337 H   0  0  0  0  0  0  0  0  0  0  0  0
    0.3329   -0.2367   -3.9869 H   0  0  0  0  0  0  0  0  0  0  0  0
   -0.0382    1.9819    0.2865 H   0  0  0  0  0  0  0  0  0  0  0  0
   -0.6029    1.4810    1.8894 H   0  0  0  0  0  0  0  0  0  0  0  0
    1.8132    2.3044    1.7282 H   0  0  0  0  0  0  0  0  0  0  0  0
    1.5822    0.7767    2.5770 H   0  0  0  0  0  0  0  0  0  0  0  0
    4.0672    1.8229    1.2457 H   0  0  0  0  0  0  0  0  0  0  0  0
    4.0471    0.2426    2.0115 H   0  0  0  0  0  0  0  0  0  0  0  0
    5.8730   -1.0961    1.2962 H   0  0  0  0  0  0  0  0  0  0  0  0
    7.4840   -1.8109   -0.4306 H   0  0  0  0  0  0  0  0  0  0  0  0
    7.3942   -0.8314   -2.7068 H   0  0  0  0  0  0  0  0  0  0  0  0
    5.6800    0.8760   -3.2551 H   0  0  0  0  0  0  0  0  0  0  0  0
    4.0559    1.6018   -1.5365 H   0  0  0  0  0  0  0  0  0  0  0  0
    2.2671   -1.0825   -0.5828 H   0  0  0  0  0  0  0  0  0  0  0  0
    2.7318   -1.4929    1.0644 H   0  0  0  0  0  0  0  0  0  0  0  0
    0.5532   -1.3792    1.9044 H   0  0  0  0  0  0  0  0  0  0  0  0
    0.3408   -2.1316    0.3405 H   0  0  0  0  0  0  0  0  0  0  0  0
   -2.5535    0.2317    1.4455 H   0  0  0  0  0  0  0  0  0  0  0  0
   -6.3462   -1.3361   -0.3088 H   0  0  0  0  0  0  0  0  0  0  0  0
   -8.3649   -0.9229    1.0547 H   0  0  0  0  0  0  0  0  0  0  0  0
   -8.3069    0.7362    2.8997 H   0  0  0  0  0  0  0  0  0  0  0  0
   -6.2253    1.9985    3.3694 H   0  0  0  0  0  0  0  0  0  0  0  0
   -4.2073    1.6192    2.0105 H   0  0  0  0  0  0  0  0  0  0  0  0
  1  2  1  0
  2  3  2  0
  2  4  1  0
  4  5  2  0
  5  6  1  0
  6  7  1  0
  7  8  1  0
  8  9  1  0
  9 10  1  0
 10 11  1  0
 11 12  2  0
 12 13  1  0
 13 14  2  0
 14 15  1  0
 15 16  2  0
  9 17  1  0
 17 18  1  0
  5 19  1  0
 19 20  1  0
 20 21  1  0
 21 22  2  0
 22 23  1  0
 23 24  2  0
 24 25  1  0
 25 26  2  0
 20 27  2  0
 27 28  1  0
 28 29  2  0
 28  4  1  0
 18  6  1  0
 26 21  1  0
 16 11  1  0
  1 30  1  0
  1 31  1  0
  1 32  1  0
  7 33  1  0
  7 34  1  0
  8 35  1  0
  8 36  1  0
 10 37  1  0
 10 38  1  0
 12 39  1  0
 13 40  1  0
 14 41  1  0
 15 42  1  0
 16 43  1  0
 17 44  1  0
 17 45  1  0
 18 46  1  0
 18 47  1  0
 19 48  1  0
 22 49  1  0
 23 50  1  0
 24 51  1  0
 25 52  1  0
 26 53  1  0
M  END
$$$$
