
     RDKit          3D

 41 43  0  0  0  0  0  0  0  0999 V2000
    4.2504   -0.8509   -3.9946 Cl  0  0  0  0  0  0  0  0  0  0  0  0
    4.4701   -1.3298   -2.3498 C   0  0  0  0  0  0  0  0  0  0  0  0
    5.6164   -0.8542   -1.7008 C   0  0  0  0  0  0  0  0  0  0  0  0
    5.8896   -1.2231   -0.3845 C   0  0  0  0  0  0  0  0  0  0  0  0
    5.0193   -2.0736    0.2882 C   0  0  0  0  0  0  0  0  0  0  0  0
    3.8754   -2.5501   -0.3551 C   0  0  0  0  0  0  0  0  0  0  0  0
    3.5715   -2.1785   -1.6826 C   0  0  0  0  0  0  0  0  0  0  0  0
    2.3178   -2.7287   -2.3274 C   0  0  0  0  0  0  0  0  0  0  0  0
    0.7915   -2.1813   -1.4942 S   0  0  0  0  0  0  0  0  0  0  0  0
    0.6223   -0.5829   -2.1311 C   0  0  0  0  0  0  0  0  0  0  0  0
    0.9639   -0.1665   -3.3291 N   0  0  0  0  0  0  0  0  0  0  0  0
    0.6746    1.1816   -3.4009 N   0  0  0  0  0  0  0  0  0  0  0  0
    0.1586    1.5396   -2.2455 C   0  0  0  0  0  0  0  0  0  0  0  0
    0.0628    0.4534   -1.4241 N   0  0  0  0  0  0  0  0  0  0  0  0
   -0.4447    0.4579   -0.0755 N   0  0  0  0  0  0  0  0  0  0  0  0
   -1.8552    0.0569   -0.0324 C   0  0  0  0  0  0  0  0  0  0  0  0
   -2.7740    1.1508   -0.4961 C   0  0  0  0  0  0  0  0  0  0  0  0
   -3.6401    1.8607    0.2464 C   0  0  0  0  0  0  0  0  0  0  0  0
   -3.8166    1.7346    1.6943 C   0  0  0  0  0  0  0  0  0  0  0  0
   -2.7954    2.1011    2.5798 C   0  0  0  0  0  0  0  0  0  0  0  0
   -2.9853    1.9922    3.9590 C   0  0  0  0  0  0  0  0  0  0  0  0
   -4.1986    1.5242    4.4602 C   0  0  0  0  0  0  0  0  0  0  0  0
   -5.2228    1.1664    3.5838 C   0  0  0  0  0  0  0  0  0  0  0  0
   -5.0355    1.2748    2.2039 C   0  0  0  0  0  0  0  0  0  0  0  0
    6.3067   -0.1962   -2.2228 H   0  0  0  0  0  0  0  0  0  0  0  0
    6.7826   -0.8504    0.1114 H   0  0  0  0  0  0  0  0  0  0  0  0
    5.2307   -2.3689    1.3130 H   0  0  0  0  0  0  0  0  0  0  0  0
    3.2150   -3.2231    0.1906 H   0  0  0  0  0  0  0  0  0  0  0  0
    2.2488   -2.5168   -3.3976 H   0  0  0  0  0  0  0  0  0  0  0  0
    2.3558   -3.8238   -2.2511 H   0  0  0  0  0  0  0  0  0  0  0  0
   -0.1616    2.5297   -1.9589 H   0  0  0  0  0  0  0  0  0  0  0  0
    0.0849   -0.2091    0.4875 H   0  0  0  0  0  0  0  0  0  0  0  0
   -2.0889   -0.2330    0.9982 H   0  0  0  0  0  0  0  0  0  0  0  0
   -2.0355   -0.8439   -0.6332 H   0  0  0  0  0  0  0  0  0  0  0  0
   -2.7660    1.3500   -1.5666 H   0  0  0  0  0  0  0  0  0  0  0  0
   -4.2811    2.5977   -0.2342 H   0  0  0  0  0  0  0  0  0  0  0  0
   -1.8499    2.4812    2.1995 H   0  0  0  0  0  0  0  0  0  0  0  0
   -2.1913    2.2835    4.6420 H   0  0  0  0  0  0  0  0  0  0  0  0
   -4.3510    1.4455    5.5342 H   0  0  0  0  0  0  0  0  0  0  0  0
   -6.1709    0.8075    3.9751 H   0  0  0  0  0  0  0  0  0  0  0  0
   -5.8445    0.9957    1.5318 H   0  0  0  0  0  0  0  0  0  0  0  0
  1  2  1  0
  2  3  2  0
  3  4  1  0
  4  5  2  0
  5  6  1  0
  6  7  2  0
  7  8  1  0
  8  9  1  0
  9 10  1  0
 10 11  2  0
 11 12  1  0
 12 13  2  0
 13 14  1  0
 14 15  1  0
 15 16  1  0
 16 17  1  0
 17 18  2  3
 18 19  1  0
 19 20  2  0
 20 21  1  0
 21 22  2  0
 22 23  1  0
 23 24  2  0
  7  2  1  0
 14 10  1  0
 24 19  1  0
  3 25  1  0
  4 26  1  0
  5 27  1  0
  6 28  1  0
  8 29  1  0
  8 30  1  0
 13 31  1  0
 15 32  1  0
 16 33  1  0
 16 34  1  0
 17 35  1  0
 18 36  1  0
 20 37  1  0
 21 38  1  0
 22 39  1  0
 23 40  1  0
 24 41  1  0
M  END
$$$$
