
     RDKit          3D

 22 22  0  0  0  0  0  0  0  0999 V2000
    3.0175    1.1876    0.0421 C   0  0  0  0  0  0  0  0  0  0  0  0
    1.5551    0.9012   -0.1561 C   0  0  0  0  0  0  0  0  0  0  0  0
    0.8519    1.8789   -0.7849 N   0  0  0  0  0  0  0  0  0  0  0  0
   -0.4806    1.7062   -0.9202 C   0  0  0  0  0  0  0  0  0  0  0  0
   -1.1572    0.5902   -0.4657 C   0  0  0  0  0  0  0  0  0  0  0  0
   -2.6175    0.6061   -0.5935 C   0  0  0  0  0  0  0  0  0  0  0  0
   -3.2441    1.0474   -1.5372 O   0  0  0  0  0  0  0  0  0  0  0  0
   -3.2191    0.1881    0.5334 O   0  0  0  0  0  0  0  0  0  0  0  0
   -0.4153   -0.4407    0.1169 C   0  0  0  0  0  0  0  0  0  0  0  0
   -1.0533   -1.7294    0.4617 C   0  0  0  0  0  0  0  0  0  0  0  0
   -0.7686   -2.4563    1.3955 O   0  0  0  0  0  0  0  0  0  0  0  0
   -1.9180   -2.1260   -0.4911 O   0  0  0  0  0  0  0  0  0  0  0  0
    0.9796   -0.3029    0.2917 C   0  0  0  0  0  0  0  0  0  0  0  0
    1.7332   -1.2248    1.0391 N   0  0  0  0  0  0  0  0  0  0  0  0
    3.2686    1.1769    1.1072 H   0  0  0  0  0  0  0  0  0  0  0  0
    3.2774    2.1755   -0.3529 H   0  0  0  0  0  0  0  0  0  0  0  0
    3.6254    0.4459   -0.4852 H   0  0  0  0  0  0  0  0  0  0  0  0
   -1.0020    2.5308   -1.4014 H   0  0  0  0  0  0  0  0  0  0  0  0
   -4.1777    0.2855    0.3502 H   0  0  0  0  0  0  0  0  0  0  0  0
   -2.2328   -3.0019   -0.1824 H   0  0  0  0  0  0  0  0  0  0  0  0
    1.2679   -2.1112    1.2461 H   0  0  0  0  0  0  0  0  0  0  0  0
    2.7097   -1.3271    0.7866 H   0  0  0  0  0  0  0  0  0  0  0  0
  1  2  1  0
  2  3  2  0
  3  4  1  0
  4  5  2  0
  5  6  1  0
  6  7  2  0
  6  8  1  0
  5  9  1  0
  9 10  1  0
 10 11  2  0
 10 12  1  0
  9 13  2  0
 13 14  1  0
 13  2  1  0
  1 15  1  0
  1 16  1  0
  1 17  1  0
  4 18  1  0
  8 19  1  0
 12 20  1  0
 14 21  1  0
 14 22  1  0
M  END
$$$$
