
     RDKit          3D

 41 44  0  0  0  0  0  0  0  0999 V2000
   -5.0610   -2.6958    0.2326 C   0  0  0  0  0  0  0  0  0  0  0  0
   -5.4605   -1.2283    0.4054 C   0  0  0  0  0  0  0  0  0  0  0  0
   -6.5395   -0.8338   -0.6062 C   0  0  0  0  0  0  0  0  0  0  0  0
   -4.2548   -0.3089    0.3232 C   0  0  0  0  0  0  0  0  0  0  0  0
   -3.8916    0.4664    1.4333 C   0  0  0  0  0  0  0  0  0  0  0  0
   -2.7807    1.3135    1.3814 C   0  0  0  0  0  0  0  0  0  0  0  0
   -2.0071    1.3957    0.2202 C   0  0  0  0  0  0  0  0  0  0  0  0
   -0.8679    2.3158    0.1824 C   0  0  0  0  0  0  0  0  0  0  0  0
    0.4236    1.9803    0.0436 C   0  0  0  0  0  0  0  0  0  0  0  0
    1.6892    3.2135    0.0272 S   0  0  0  0  0  0  0  0  0  0  0  0
    2.8734    1.9896   -0.1462 C   0  0  0  0  0  0  0  0  0  0  0  0
    4.1700    1.9644   -0.2517 N   0  0  0  0  0  0  0  0  0  0  0  0
    4.4213    0.6000   -0.3625 C   0  0  0  0  0  0  0  0  0  0  0  0
    5.7751    0.0758   -0.5053 C   0  0  0  0  0  0  0  0  0  0  0  0
    6.0064   -1.2978   -0.6132 C   0  0  0  0  0  0  0  0  0  0  0  0
    7.3115   -1.7390   -0.7467 C   0  0  0  0  0  0  0  0  0  0  0  0
    8.3816   -0.9170   -0.7793 N   0  0  0  0  0  0  0  0  0  0  0  0
    8.1362    0.4058   -0.6734 C   0  0  0  0  0  0  0  0  0  0  0  0
    6.8685    0.9445   -0.5364 C   0  0  0  0  0  0  0  0  0  0  0  0
    3.3169   -0.1779   -0.3273 N   0  0  0  0  0  0  0  0  0  0  0  0
    2.3529    0.7495   -0.1870 N   0  0  0  0  0  0  0  0  0  0  0  0
    0.9858    0.5940   -0.0906 C   0  0  0  0  0  0  0  0  0  0  0  0
    0.4368   -0.4904   -0.1210 O   0  0  0  0  0  0  0  0  0  0  0  0
   -2.3695    0.6360   -0.8948 C   0  0  0  0  0  0  0  0  0  0  0  0
   -3.4798   -0.2120   -0.8414 C   0  0  0  0  0  0  0  0  0  0  0  0
   -4.2978   -2.9825    0.9646 H   0  0  0  0  0  0  0  0  0  0  0  0
   -4.6573   -2.8959   -0.7660 H   0  0  0  0  0  0  0  0  0  0  0  0
   -5.9274   -3.3501    0.3779 H   0  0  0  0  0  0  0  0  0  0  0  0
   -5.9058   -1.1313    1.4046 H   0  0  0  0  0  0  0  0  0  0  0  0
   -6.1980   -0.9581   -1.6396 H   0  0  0  0  0  0  0  0  0  0  0  0
   -7.4339   -1.4525   -0.4754 H   0  0  0  0  0  0  0  0  0  0  0  0
   -6.8343    0.2134   -0.4756 H   0  0  0  0  0  0  0  0  0  0  0  0
   -4.4710    0.4154    2.3528 H   0  0  0  0  0  0  0  0  0  0  0  0
   -2.5265    1.9017    2.2602 H   0  0  0  0  0  0  0  0  0  0  0  0
   -1.1492    3.3614    0.2999 H   0  0  0  0  0  0  0  0  0  0  0  0
    5.1913   -2.0145   -0.5942 H   0  0  0  0  0  0  0  0  0  0  0  0
    7.5374   -2.7981   -0.8337 H   0  0  0  0  0  0  0  0  0  0  0  0
    9.0150    1.0438   -0.7023 H   0  0  0  0  0  0  0  0  0  0  0  0
    6.7418    2.0194   -0.4562 H   0  0  0  0  0  0  0  0  0  0  0  0
   -1.7918    0.6851   -1.8144 H   0  0  0  0  0  0  0  0  0  0  0  0
   -3.7294   -0.8015   -1.7208 H   0  0  0  0  0  0  0  0  0  0  0  0
  1  2  1  0
  2  3  1  0
  2  4  1  0
  4  5  2  0
  5  6  1  0
  6  7  2  0
  7  8  1  0
  8  9  2  3
  9 10  1  0
 10 11  1  0
 11 12  2  0
 12 13  1  0
 13 14  1  0
 14 15  2  0
 15 16  1  0
 16 17  2  0
 17 18  1  0
 18 19  2  0
 13 20  2  0
 20 21  1  0
 21 22  1  0
 22 23  2  0
  7 24  1  0
 24 25  2  0
 25  4  1  0
 22  9  1  0
 21 11  1  0
 19 14  1  0
  1 26  1  0
  1 27  1  0
  1 28  1  0
  2 29  1  0
  3 30  1  0
  3 31  1  0
  3 32  1  0
  5 33  1  0
  6 34  1  0
  8 35  1  0
 15 36  1  0
 16 37  1  0
 18 38  1  0
 19 39  1  0
 24 40  1  0
 25 41  1  0
M  END
$$$$
