
     RDKit          3D

 37 40  0  0  0  0  0  0  0  0999 V2000
    5.8153    2.3099   -0.9641 C   0  0  0  0  0  0  0  0  0  0  0  0
    4.7103    1.3416   -0.6515 C   0  0  0  0  0  0  0  0  0  0  0  0
    4.5958    0.1517   -1.3752 C   0  0  0  0  0  0  0  0  0  0  0  0
    3.5907   -0.7763   -1.0783 C   0  0  0  0  0  0  0  0  0  0  0  0
    2.6858   -0.5190   -0.0306 C   0  0  0  0  0  0  0  0  0  0  0  0
    1.6498   -1.3444    0.3702 N   0  0  0  0  0  0  0  0  0  0  0  0
    1.0176   -0.7930    1.3693 C   0  0  0  0  0  0  0  0  0  0  0  0
   -0.0625   -1.2483    2.0708 N   0  0  0  0  0  0  0  0  0  0  0  0
   -0.7371   -2.4025    1.7404 C   0  0  0  0  0  0  0  0  0  0  0  0
   -0.4362   -3.1903    0.8468 O   0  0  0  0  0  0  0  0  0  0  0  0
   -1.9140   -2.7221    2.6545 C   0  0  0  0  0  0  0  0  0  0  0  0
   -2.8167   -1.2531    3.2232 S   0  0  0  0  0  0  0  0  0  0  0  0
   -3.3150   -0.5905    1.6918 C   0  0  0  0  0  0  0  0  0  0  0  0
   -3.4046    0.7082    1.4850 N   0  0  0  0  0  0  0  0  0  0  0  0
   -3.7758    0.8022    0.1677 C   0  0  0  0  0  0  0  0  0  0  0  0
   -4.0292    1.9153   -0.6434 C   0  0  0  0  0  0  0  0  0  0  0  0
   -4.3907    1.6890   -1.9806 C   0  0  0  0  0  0  0  0  0  0  0  0
   -4.4956    0.3890   -2.4933 C   0  0  0  0  0  0  0  0  0  0  0  0
   -4.2464   -0.7332   -1.6937 C   0  0  0  0  0  0  0  0  0  0  0  0
   -3.8932   -0.4653   -0.3775 C   0  0  0  0  0  0  0  0  0  0  0  0
   -3.5999   -1.3671    0.6013 O   0  0  0  0  0  0  0  0  0  0  0  0
    1.5975    0.7162    1.9088 S   0  0  0  0  0  0  0  0  0  0  0  0
    2.8203    0.6671    0.6946 C   0  0  0  0  0  0  0  0  0  0  0  0
    3.8256    1.6064    0.4063 C   0  0  0  0  0  0  0  0  0  0  0  0
    6.0673    2.2843   -2.0295 H   0  0  0  0  0  0  0  0  0  0  0  0
    5.5145    3.3358   -0.7266 H   0  0  0  0  0  0  0  0  0  0  0  0
    6.7076    2.0589   -0.3824 H   0  0  0  0  0  0  0  0  0  0  0  0
    5.2897   -0.0687   -2.1842 H   0  0  0  0  0  0  0  0  0  0  0  0
    3.5002   -1.6975   -1.6457 H   0  0  0  0  0  0  0  0  0  0  0  0
   -0.4212   -0.6406    2.7949 H   0  0  0  0  0  0  0  0  0  0  0  0
   -1.5272   -3.2569    3.5277 H   0  0  0  0  0  0  0  0  0  0  0  0
   -2.6059   -3.3867    2.1271 H   0  0  0  0  0  0  0  0  0  0  0  0
   -3.9448    2.9201   -0.2450 H   0  0  0  0  0  0  0  0  0  0  0  0
   -4.5902    2.5394   -2.6301 H   0  0  0  0  0  0  0  0  0  0  0  0
   -4.7744    0.2473   -3.5363 H   0  0  0  0  0  0  0  0  0  0  0  0
   -4.3177   -1.7449   -2.0729 H   0  0  0  0  0  0  0  0  0  0  0  0
    3.9103    2.5176    0.9916 H   0  0  0  0  0  0  0  0  0  0  0  0
  1  2  1  0
  2  3  2  0
  3  4  1  0
  4  5  2  0
  5  6  1  0
  6  7  2  0
  7  8  1  0
  8  9  1  0
  9 10  2  0
  9 11  1  0
 11 12  1  0
 12 13  1  0
 13 14  2  0
 14 15  1  0
 15 16  2  0
 16 17  1  0
 17 18  2  0
 18 19  1  0
 19 20  2  0
 20 21  1  0
  7 22  1  0
 22 23  1  0
 23 24  2  0
 24  2  1  0
 23  5  1  0
 21 13  1  0
 20 15  1  0
  1 25  1  0
  1 26  1  0
  1 27  1  0
  3 28  1  0
  4 29  1  0
  8 30  1  0
 11 31  1  0
 11 32  1  0
 16 33  1  0
 17 34  1  0
 18 35  1  0
 19 36  1  0
 24 37  1  0
M  END
$$$$
