
     RDKit          3D

 55 57  0  0  0  0  0  0  0  0999 V2000
   -3.9769   -0.1609    0.7370 C   0  0  0  0  0  0  0  0  0  0  0  0
   -3.4077   -1.5646    0.5572 C   0  0  0  0  0  0  0  0  0  0  0  0
   -2.5940   -1.7806   -0.7462 C   0  0  0  0  0  0  0  0  0  0  0  0
   -2.1063   -3.2417   -0.7984 C   0  0  0  0  0  0  0  0  0  0  0  0
   -3.4929   -1.5513   -1.9788 C   0  0  0  0  0  0  0  0  0  0  0  0
   -1.4580   -0.8517   -0.8358 N   0  0  0  0  0  0  0  0  0  0  0  0
   -0.4001   -0.7889    0.0601 C   0  0  0  0  0  0  0  0  0  0  0  0
   -0.2978   -1.5317    1.0357 O   0  0  0  0  0  0  0  0  0  0  0  0
    0.6174    0.3700   -0.2385 C   0  0  0  0  0  0  0  0  0  0  0  0
   -0.0580    1.6282    0.3236 C   0  0  0  0  0  0  0  0  0  0  0  0
   -0.2187    1.8337    1.7054 C   0  0  0  0  0  0  0  0  0  0  0  0
   -0.8708    2.9726    2.1830 C   0  0  0  0  0  0  0  0  0  0  0  0
   -1.3866    3.9112    1.2897 C   0  0  0  0  0  0  0  0  0  0  0  0
   -1.2584    3.7071   -0.0829 C   0  0  0  0  0  0  0  0  0  0  0  0
   -0.6053    2.5711   -0.5524 C   0  0  0  0  0  0  0  0  0  0  0  0
   -0.5176    2.3805   -1.8769 F   0  0  0  0  0  0  0  0  0  0  0  0
    1.9597    0.0448    0.3265 N   0  0  0  0  0  0  0  0  0  0  0  0
    2.6307   -1.1752    0.0333 C   0  0  0  0  0  0  0  0  0  0  0  0
    3.6593   -1.5218    0.6216 O   0  0  0  0  0  0  0  0  0  0  0  0
    2.1214   -2.0651   -1.0398 C   0  0  0  0  0  0  0  0  0  0  0  0
    2.3833   -3.4627   -1.1323 C   0  0  0  0  0  0  0  0  0  0  0  0
    1.7911   -3.8787   -2.2977 C   0  0  0  0  0  0  0  0  0  0  0  0
    1.2373   -2.7651   -2.8465 N   0  0  0  0  0  0  0  0  0  0  0  0
    1.4228   -1.6509   -2.1179 N   0  0  0  0  0  0  0  0  0  0  0  0
    2.7826    1.1007    0.8450 C   0  0  0  0  0  0  0  0  0  0  0  0
    2.9154    2.3193    0.1646 C   0  0  0  0  0  0  0  0  0  0  0  0
    3.7108    3.3435    0.6868 C   0  0  0  0  0  0  0  0  0  0  0  0
    4.3872    3.1584    1.8898 C   0  0  0  0  0  0  0  0  0  0  0  0
    4.2745    1.9471    2.5680 C   0  0  0  0  0  0  0  0  0  0  0  0
    3.4799    0.9230    2.0460 C   0  0  0  0  0  0  0  0  0  0  0  0
   -4.4841   -0.0880    1.7048 H   0  0  0  0  0  0  0  0  0  0  0  0
   -4.7137    0.0766   -0.0356 H   0  0  0  0  0  0  0  0  0  0  0  0
   -3.1923    0.5992    0.7145 H   0  0  0  0  0  0  0  0  0  0  0  0
   -2.7867   -1.7914    1.4317 H   0  0  0  0  0  0  0  0  0  0  0  0
   -4.2424   -2.2778    0.5867 H   0  0  0  0  0  0  0  0  0  0  0  0
   -1.4957   -3.5045    0.0706 H   0  0  0  0  0  0  0  0  0  0  0  0
   -1.4984   -3.4229   -1.6911 H   0  0  0  0  0  0  0  0  0  0  0  0
   -2.9514   -3.9385   -0.8240 H   0  0  0  0  0  0  0  0  0  0  0  0
   -2.9568   -1.7933   -2.9042 H   0  0  0  0  0  0  0  0  0  0  0  0
   -4.3918   -2.1758   -1.9385 H   0  0  0  0  0  0  0  0  0  0  0  0
   -3.8075   -0.5047   -2.0643 H   0  0  0  0  0  0  0  0  0  0  0  0
   -1.4151   -0.2330   -1.6381 H   0  0  0  0  0  0  0  0  0  0  0  0
    0.7438    0.4895   -1.3192 H   0  0  0  0  0  0  0  0  0  0  0  0
    0.1662    1.1039    2.4172 H   0  0  0  0  0  0  0  0  0  0  0  0
   -0.9766    3.1239    3.2551 H   0  0  0  0  0  0  0  0  0  0  0  0
   -1.8932    4.7963    1.6652 H   0  0  0  0  0  0  0  0  0  0  0  0
   -1.6665    4.4236   -0.7887 H   0  0  0  0  0  0  0  0  0  0  0  0
    2.9415   -4.0635   -0.4268 H   0  0  0  0  0  0  0  0  0  0  0  0
    1.7261   -4.8456   -2.7760 H   0  0  0  0  0  0  0  0  0  0  0  0
    0.7227   -2.6916   -3.7176 H   0  0  0  0  0  0  0  0  0  0  0  0
    2.4297    2.4797   -0.7935 H   0  0  0  0  0  0  0  0  0  0  0  0
    3.8083    4.2823    0.1490 H   0  0  0  0  0  0  0  0  0  0  0  0
    5.0075    3.9531    2.2952 H   0  0  0  0  0  0  0  0  0  0  0  0
    4.8048    1.7935    3.5030 H   0  0  0  0  0  0  0  0  0  0  0  0
    3.3975   -0.0116    2.5957 H   0  0  0  0  0  0  0  0  0  0  0  0
  1  2  1  0
  2  3  1  0
  3  4  1  0
  3  5  1  0
  3  6  1  0
  6  7  1  0
  7  8  2  0
  7  9  1  0
  9 10  1  0
 10 11  2  0
 11 12  1  0
 12 13  2  0
 13 14  1  0
 14 15  2  0
 15 16  1  0
  9 17  1  0
 17 18  1  0
 18 19  2  0
 18 20  1  0
 20 21  1  0
 21 22  2  0
 22 23  1  0
 23 24  1  0
 17 25  1  0
 25 26  2  0
 26 27  1  0
 27 28  2  0
 28 29  1  0
 29 30  2  0
 15 10  1  0
 24 20  2  0
 30 25  1  0
  1 31  1  0
  1 32  1  0
  1 33  1  0
  2 34  1  0
  2 35  1  0
  4 36  1  0
  4 37  1  0
  4 38  1  0
  5 39  1  0
  5 40  1  0
  5 41  1  0
  6 42  1  0
  9 43  1  0
 11 44  1  0
 12 45  1  0
 13 46  1  0
 14 47  1  0
 21 48  1  0
 22 49  1  0
 23 50  1  0
 26 51  1  0
 27 52  1  0
 28 53  1  0
 29 54  1  0
 30 55  1  0
M  END
$$$$
