
     RDKit          3D

 55 57  0  0  0  0  0  0  0  0999 V2000
    0.4038   -3.5417    1.3545 C   0  0  0  0  0  0  0  0  0  0  0  0
   -1.0388   -3.0700    1.3934 C   0  0  0  0  0  0  0  0  0  0  0  0
   -1.3213   -2.0644    0.4233 O   0  0  0  0  0  0  0  0  0  0  0  0
   -0.7514   -0.7868    0.7147 C   0  0  0  0  0  0  0  0  0  0  0  0
    0.5787   -0.7755    0.1800 O   0  0  0  0  0  0  0  0  0  0  0  0
    1.2135    0.4477    0.2236 C   0  0  0  0  0  0  0  0  0  0  0  0
    2.7202    0.4543    0.1250 C   0  0  0  0  0  0  0  0  0  0  0  0
    3.3660    1.4876    0.2431 O   0  0  0  0  0  0  0  0  0  0  0  0
    3.2046   -0.8189   -0.0985 N   0  0  0  0  0  0  0  0  0  0  0  0
    4.5430   -1.2287   -0.2345 C   0  0  0  0  0  0  0  0  0  0  0  0
    4.7739   -2.5908   -0.4671 C   0  0  0  0  0  0  0  0  0  0  0  0
    6.0751   -3.0788   -0.6121 C   0  0  0  0  0  0  0  0  0  0  0  0
    7.1579   -2.2082   -0.5254 C   0  0  0  0  0  0  0  0  0  0  0  0
    6.9376   -0.8523   -0.2943 C   0  0  0  0  0  0  0  0  0  0  0  0
    5.6350   -0.3638   -0.1492 C   0  0  0  0  0  0  0  0  0  0  0  0
    0.5561    1.6095    0.3399 C   0  0  0  0  0  0  0  0  0  0  0  0
   -0.9446    1.6913    0.3704 C   0  0  0  0  0  0  0  0  0  0  0  0
   -1.4437    2.7926   -0.5591 C   0  0  0  0  0  0  0  0  0  0  0  0
   -1.2316    2.7329   -1.9463 C   0  0  0  0  0  0  0  0  0  0  0  0
   -1.6941    3.7509   -2.7821 C   0  0  0  0  0  0  0  0  0  0  0  0
   -2.3714    4.8426   -2.2440 C   0  0  0  0  0  0  0  0  0  0  0  0
   -2.5844    4.9193   -0.8696 C   0  0  0  0  0  0  0  0  0  0  0  0
   -2.1222    3.9028   -0.0315 C   0  0  0  0  0  0  0  0  0  0  0  0
   -1.6181    0.3192    0.0760 C   0  0  0  0  0  0  0  0  0  0  0  0
   -3.0824    0.3356    0.5885 C   0  0  0  0  0  0  0  0  0  0  0  0
   -3.9649   -0.8067    0.0702 C   0  0  0  0  0  0  0  0  0  0  0  0
   -5.4422   -0.5632    0.3640 C   0  0  0  0  0  0  0  0  0  0  0  0
   -5.6479   -0.4819    1.7681 O   0  0  0  0  0  0  0  0  0  0  0  0
    0.5333   -4.4311    1.9783 H   0  0  0  0  0  0  0  0  0  0  0  0
    1.0826   -2.7701    1.7297 H   0  0  0  0  0  0  0  0  0  0  0  0
    0.7094   -3.7781    0.3304 H   0  0  0  0  0  0  0  0  0  0  0  0
   -1.3167   -2.7218    2.3946 H   0  0  0  0  0  0  0  0  0  0  0  0
   -1.6901   -3.9186    1.1586 H   0  0  0  0  0  0  0  0  0  0  0  0
   -0.7046   -0.6396    1.8033 H   0  0  0  0  0  0  0  0  0  0  0  0
    2.4931   -1.5377   -0.1808 H   0  0  0  0  0  0  0  0  0  0  0  0
    3.9449   -3.2899   -0.5398 H   0  0  0  0  0  0  0  0  0  0  0  0
    6.2419   -4.1373   -0.7932 H   0  0  0  0  0  0  0  0  0  0  0  0
    8.1716   -2.5833   -0.6382 H   0  0  0  0  0  0  0  0  0  0  0  0
    7.7789   -0.1673   -0.2262 H   0  0  0  0  0  0  0  0  0  0  0  0
    5.5072    0.6991    0.0296 H   0  0  0  0  0  0  0  0  0  0  0  0
    1.1100    2.5462    0.3876 H   0  0  0  0  0  0  0  0  0  0  0  0
   -1.1992    1.9754    1.4021 H   0  0  0  0  0  0  0  0  0  0  0  0
   -0.6958    1.8947   -2.3873 H   0  0  0  0  0  0  0  0  0  0  0  0
   -1.5204    3.6933   -3.8535 H   0  0  0  0  0  0  0  0  0  0  0  0
   -2.7284    5.6359   -2.8953 H   0  0  0  0  0  0  0  0  0  0  0  0
   -3.1085    5.7734   -0.4485 H   0  0  0  0  0  0  0  0  0  0  0  0
   -2.2980    3.9849    1.0389 H   0  0  0  0  0  0  0  0  0  0  0  0
   -1.6414    0.1416   -1.0080 H   0  0  0  0  0  0  0  0  0  0  0  0
   -3.0834    0.3323    1.6858 H   0  0  0  0  0  0  0  0  0  0  0  0
   -3.5551    1.2765    0.2829 H   0  0  0  0  0  0  0  0  0  0  0  0
   -3.8303   -0.9257   -1.0105 H   0  0  0  0  0  0  0  0  0  0  0  0
   -3.6776   -1.7435    0.5557 H   0  0  0  0  0  0  0  0  0  0  0  0
   -5.7859    0.3683   -0.0971 H   0  0  0  0  0  0  0  0  0  0  0  0
   -6.0433   -1.3905   -0.0264 H   0  0  0  0  0  0  0  0  0  0  0  0
   -6.6005   -0.3418    1.9059 H   0  0  0  0  0  0  0  0  0  0  0  0
  1  2  1  0
  2  3  1  0
  3  4  1  0
  4  5  1  0
  5  6  1  0
  6  7  1  0
  7  8  2  0
  7  9  1  0
  9 10  1  0
 10 11  2  0
 11 12  1  0
 12 13  2  0
 13 14  1  0
 14 15  2  0
  6 16  2  0
 16 17  1  0
 17 18  1  0
 18 19  2  0
 19 20  1  0
 20 21  2  0
 21 22  1  0
 22 23  2  0
 17 24  1  0
 24 25  1  0
 25 26  1  0
 26 27  1  0
 27 28  1  0
 24  4  1  0
 15 10  1  0
 23 18  1  0
  1 29  1  0
  1 30  1  0
  1 31  1  0
  2 32  1  0
  2 33  1  0
  4 34  1  0
  9 35  1  0
 11 36  1  0
 12 37  1  0
 13 38  1  0
 14 39  1  0
 15 40  1  0
 16 41  1  0
 17 42  1  0
 19 43  1  0
 20 44  1  0
 21 45  1  0
 22 46  1  0
 23 47  1  0
 24 48  1  0
 25 49  1  0
 25 50  1  0
 26 51  1  0
 26 52  1  0
 27 53  1  0
 27 54  1  0
 28 55  1  0
M  END
$$$$
