
     RDKit          3D

 57 60  0  0  0  0  0  0  0  0999 V2000
   -3.0976    2.3302    1.9802 C   0  0  0  0  0  0  0  0  0  0  0  0
   -4.2300    1.5165    1.4783 C   0  0  0  0  0  0  0  0  0  0  0  0
   -5.4906    1.9199    1.6733 N   0  0  0  0  0  0  0  0  0  0  0  0
   -6.2888    0.9615    1.0795 O   0  0  0  0  0  0  0  0  0  0  0  0
   -5.5075   -0.0066    0.5345 C   0  0  0  0  0  0  0  0  0  0  0  0
   -6.2084   -1.1075   -0.1530 C   0  0  0  0  0  0  0  0  0  0  0  0
   -4.1811    0.2899    0.7631 C   0  0  0  0  0  0  0  0  0  0  0  0
   -2.9799   -0.4773    0.3466 C   0  0  0  0  0  0  0  0  0  0  0  0
   -2.2461    0.2370   -0.6628 O   0  0  0  0  0  0  0  0  0  0  0  0
   -2.3094   -0.3933   -1.8755 C   0  0  0  0  0  0  0  0  0  0  0  0
   -3.1271    0.1759   -2.8517 C   0  0  0  0  0  0  0  0  0  0  0  0
   -3.2339   -0.4268   -4.1064 C   0  0  0  0  0  0  0  0  0  0  0  0
   -2.5201   -1.5930   -4.3889 C   0  0  0  0  0  0  0  0  0  0  0  0
   -1.6803   -2.1499   -3.4231 C   0  0  0  0  0  0  0  0  0  0  0  0
   -1.5552   -1.5330   -2.1741 C   0  0  0  0  0  0  0  0  0  0  0  0
   -0.6530   -2.1464   -1.1813 C   0  0  0  0  0  0  0  0  0  0  0  0
   -0.9609   -3.2530   -0.7451 O   0  0  0  0  0  0  0  0  0  0  0  0
    0.4834   -1.4533   -0.7900 N   0  0  0  0  0  0  0  0  0  0  0  0
    1.3421   -2.0330    0.2428 C   0  0  0  0  0  0  0  0  0  0  0  0
    2.1121   -0.9718    1.0493 C   0  0  0  0  0  0  0  0  0  0  0  0
    2.8811   -0.0616    0.1777 N   0  0  0  0  0  0  0  0  0  0  0  0
    4.0363    0.5529    0.6351 C   0  0  0  0  0  0  0  0  0  0  0  0
    5.0423    0.9960   -0.2374 C   0  0  0  0  0  0  0  0  0  0  0  0
    6.2052    1.6228    0.2239 C   0  0  0  0  0  0  0  0  0  0  0  0
    6.3953    1.8248    1.5855 C   0  0  0  0  0  0  0  0  0  0  0  0
    5.4229    1.3978    2.4942 C   0  0  0  0  0  0  0  0  0  0  0  0
    5.6063    1.6328    3.9717 C   0  0  0  0  0  0  0  0  0  0  0  0
    6.8905    1.4330    4.3842 F   0  0  0  0  0  0  0  0  0  0  0  0
    5.2913    2.9059    4.3393 F   0  0  0  0  0  0  0  0  0  0  0  0
    4.8383    0.8190    4.7496 F   0  0  0  0  0  0  0  0  0  0  0  0
    4.2561    0.7779    2.0052 C   0  0  0  0  0  0  0  0  0  0  0  0
    2.4675    0.0231   -1.2333 C   0  0  0  0  0  0  0  0  0  0  0  0
    0.9502   -0.1966   -1.3910 C   0  0  0  0  0  0  0  0  0  0  0  0
   -2.4854    2.6861    1.1459 H   0  0  0  0  0  0  0  0  0  0  0  0
   -3.4448    3.2038    2.5412 H   0  0  0  0  0  0  0  0  0  0  0  0
   -2.4635    1.7337    2.6438 H   0  0  0  0  0  0  0  0  0  0  0  0
   -5.9318   -1.1334   -1.2115 H   0  0  0  0  0  0  0  0  0  0  0  0
   -5.9428   -2.0696    0.2960 H   0  0  0  0  0  0  0  0  0  0  0  0
   -7.2946   -0.9926   -0.0891 H   0  0  0  0  0  0  0  0  0  0  0  0
   -2.3087   -0.5956    1.2056 H   0  0  0  0  0  0  0  0  0  0  0  0
   -3.2644   -1.4902    0.0318 H   0  0  0  0  0  0  0  0  0  0  0  0
   -3.6886    1.0802   -2.6320 H   0  0  0  0  0  0  0  0  0  0  0  0
   -3.8812    0.0105   -4.8633 H   0  0  0  0  0  0  0  0  0  0  0  0
   -2.6162   -2.0669   -5.3632 H   0  0  0  0  0  0  0  0  0  0  0  0
   -1.1243   -3.0585   -3.6422 H   0  0  0  0  0  0  0  0  0  0  0  0
    2.0496   -2.6951   -0.2721 H   0  0  0  0  0  0  0  0  0  0  0  0
    0.7454   -2.6532    0.9213 H   0  0  0  0  0  0  0  0  0  0  0  0
    2.7737   -1.5039    1.7437 H   0  0  0  0  0  0  0  0  0  0  0  0
    1.4024   -0.3774    1.6379 H   0  0  0  0  0  0  0  0  0  0  0  0
    4.9551    0.8399   -1.3086 H   0  0  0  0  0  0  0  0  0  0  0  0
    6.9619    1.9474   -0.4857 H   0  0  0  0  0  0  0  0  0  0  0  0
    7.3022    2.3139    1.9361 H   0  0  0  0  0  0  0  0  0  0  0  0
    3.4966    0.4863    2.7286 H   0  0  0  0  0  0  0  0  0  0  0  0
    2.7000    1.0088   -1.6524 H   0  0  0  0  0  0  0  0  0  0  0  0
    3.0110   -0.7333   -1.8118 H   0  0  0  0  0  0  0  0  0  0  0  0
    0.4140    0.6141   -0.8839 H   0  0  0  0  0  0  0  0  0  0  0  0
    0.6836   -0.1689   -2.4523 H   0  0  0  0  0  0  0  0  0  0  0  0
  1  2  1  0
  2  3  2  0
  3  4  1  0
  4  5  1  0
  5  6  1  0
  5  7  2  0
  7  8  1  0
  8  9  1  0
  9 10  1  0
 10 11  2  0
 11 12  1  0
 12 13  2  0
 13 14  1  0
 14 15  2  0
 15 16  1  0
 16 17  2  0
 16 18  1  0
 18 19  1  0
 19 20  1  0
 20 21  1  0
 21 22  1  0
 22 23  2  0
 23 24  1  0
 24 25  2  0
 25 26  1  0
 26 27  1  0
 27 28  1  0
 27 29  1  0
 27 30  1  0
 26 31  2  0
 21 32  1  0
 32 33  1  0
  7  2  1  0
 15 10  1  0
 33 18  1  0
 31 22  1  0
  1 34  1  0
  1 35  1  0
  1 36  1  0
  6 37  1  0
  6 38  1  0
  6 39  1  0
  8 40  1  0
  8 41  1  0
 11 42  1  0
 12 43  1  0
 13 44  1  0
 14 45  1  0
 19 46  1  0
 19 47  1  0
 20 48  1  0
 20 49  1  0
 23 50  1  0
 24 51  1  0
 25 52  1  0
 31 53  1  0
 32 54  1  0
 32 55  1  0
 33 56  1  0
 33 57  1  0
M  END
$$$$
