
     RDKit          3D

 56 60  0  0  0  0  0  0  0  0999 V2000
    6.6616   -0.1945    0.2618 C   0  0  0  0  0  0  0  0  0  0  0  0
    6.2167   -1.3430    1.1522 C   0  0  0  0  0  0  0  0  0  0  0  0
    4.8949   -1.1302    1.6889 N   0  0  0  0  0  0  0  0  0  0  0  0
    4.6158   -0.4930    2.8937 C   0  0  0  0  0  0  0  0  0  0  0  0
    5.3789   -0.0447    3.7264 O   0  0  0  0  0  0  0  0  0  0  0  0
    3.1406   -0.4470    2.9739 C   0  0  0  0  0  0  0  0  0  0  0  0
    2.2964    0.0545    3.9423 C   0  0  0  0  0  0  0  0  0  0  0  0
    0.9187   -0.0546    3.7137 C   0  0  0  0  0  0  0  0  0  0  0  0
    0.4186   -0.6484    2.5304 C   0  0  0  0  0  0  0  0  0  0  0  0
    1.2951   -1.1540    1.5266 C   0  0  0  0  0  0  0  0  0  0  0  0
    1.0441   -1.7648    0.2649 C   0  0  0  0  0  0  0  0  0  0  0  0
   -0.6279   -1.9761   -0.3114 S   0  0  0  0  0  6  0  0  0  0  0  0
   -0.5892   -2.5553   -1.6403 O   0  0  0  0  0  0  0  0  0  0  0  0
   -1.3400   -2.6520    0.7566 O   0  0  0  0  0  0  0  0  0  0  0  0
   -1.2163   -0.3677   -0.4282 N   0  0  0  0  0  0  0  0  0  0  0  0
   -0.4396    0.6108   -1.1198 C   0  0  0  0  0  0  0  0  0  0  0  0
    0.5442    0.3424   -1.7967 O   0  0  0  0  0  0  0  0  0  0  0  0
   -0.8194    2.0334   -0.9395 C   0  0  0  0  0  0  0  0  0  0  0  0
   -0.4981    2.9655   -1.9303 C   0  0  0  0  0  0  0  0  0  0  0  0
   -0.8481    4.3027   -1.7550 C   0  0  0  0  0  0  0  0  0  0  0  0
   -1.5021    4.6634   -0.5879 C   0  0  0  0  0  0  0  0  0  0  0  0
   -1.8152    3.7907    0.3951 N   0  0  0  0  0  0  0  0  0  0  0  0
   -1.4635    2.4961    0.1996 C   0  0  0  0  0  0  0  0  0  0  0  0
   -2.6240   -0.3461   -0.7747 C   0  0  0  0  0  0  0  0  0  0  0  0
   -3.5718   -0.3901    0.2485 C   0  0  0  0  0  0  0  0  0  0  0  0
   -4.9331   -0.4137   -0.0624 C   0  0  0  0  0  0  0  0  0  0  0  0
   -5.3621   -0.4234   -1.3921 C   0  0  0  0  0  0  0  0  0  0  0  0
   -6.7192   -0.4472   -1.5531 O   0  0  0  0  0  0  0  0  0  0  0  0
   -7.2098   -0.5021   -2.8868 C   0  0  0  0  0  0  0  0  0  0  0  0
   -4.4136   -0.4199   -2.4149 C   0  0  0  0  0  0  0  0  0  0  0  0
   -3.0485   -0.3929   -2.1079 C   0  0  0  0  0  0  0  0  0  0  0  0
    2.1078   -2.2042   -0.5665 C   0  0  0  0  0  0  0  0  0  0  0  0
    3.4468   -2.0378   -0.1790 C   0  0  0  0  0  0  0  0  0  0  0  0
    3.6908   -1.4360    1.0368 C   0  0  0  0  0  0  0  0  0  0  0  0
    2.6489   -1.0224    1.8297 C   0  0  0  0  0  0  0  0  0  0  0  0
    6.6611    0.7520    0.8126 H   0  0  0  0  0  0  0  0  0  0  0  0
    7.6743   -0.3731   -0.1121 H   0  0  0  0  0  0  0  0  0  0  0  0
    5.9947   -0.0796   -0.5988 H   0  0  0  0  0  0  0  0  0  0  0  0
    6.9163   -1.4322    1.9912 H   0  0  0  0  0  0  0  0  0  0  0  0
    6.2393   -2.2908    0.6042 H   0  0  0  0  0  0  0  0  0  0  0  0
    2.6905    0.5083    4.8455 H   0  0  0  0  0  0  0  0  0  0  0  0
    0.2204    0.3178    4.4616 H   0  0  0  0  0  0  0  0  0  0  0  0
   -0.6606   -0.7241    2.4141 H   0  0  0  0  0  0  0  0  0  0  0  0
    0.0227    2.6564   -2.8340 H   0  0  0  0  0  0  0  0  0  0  0  0
   -0.6133    5.0462   -2.5093 H   0  0  0  0  0  0  0  0  0  0  0  0
   -1.7959    5.6936   -0.4047 H   0  0  0  0  0  0  0  0  0  0  0  0
   -1.7109    1.8415    1.0296 H   0  0  0  0  0  0  0  0  0  0  0  0
   -3.2654   -0.4115    1.2908 H   0  0  0  0  0  0  0  0  0  0  0  0
   -5.6680   -0.4380    0.7393 H   0  0  0  0  0  0  0  0  0  0  0  0
   -8.3028   -0.5261   -2.8402 H   0  0  0  0  0  0  0  0  0  0  0  0
   -6.8777   -1.4149   -3.3925 H   0  0  0  0  0  0  0  0  0  0  0  0
   -6.9199    0.3907   -3.4506 H   0  0  0  0  0  0  0  0  0  0  0  0
   -4.7003   -0.4518   -3.4610 H   0  0  0  0  0  0  0  0  0  0  0  0
   -2.3269   -0.4294   -2.9217 H   0  0  0  0  0  0  0  0  0  0  0  0
    1.8939   -2.6636   -1.5312 H   0  0  0  0  0  0  0  0  0  0  0  0
    4.2501   -2.3695   -0.8271 H   0  0  0  0  0  0  0  0  0  0  0  0
  1  2  1  0
  2  3  1  0
  3  4  1  0
  4  5  2  0
  4  6  1  0
  6  7  2  0
  7  8  1  0
  8  9  2  0
  9 10  1  0
 10 11  2  0
 11 12  1  0
 12 13  2  0
 12 14  2  0
 12 15  1  0
 15 16  1  0
 16 17  2  0
 16 18  1  0
 18 19  2  0
 19 20  1  0
 20 21  2  0
 21 22  1  0
 22 23  2  0
 15 24  1  0
 24 25  2  0
 25 26  1  0
 26 27  2  0
 27 28  1  0
 28 29  1  0
 27 30  1  0
 30 31  2  0
 11 32  1  0
 32 33  2  0
 33 34  1  0
 34 35  2  0
 34  3  1  0
 35  6  1  0
 35 10  1  0
 23 18  1  0
 31 24  1  0
  1 36  1  0
  1 37  1  0
  1 38  1  0
  2 39  1  0
  2 40  1  0
  7 41  1  0
  8 42  1  0
  9 43  1  0
 19 44  1  0
 20 45  1  0
 21 46  1  0
 23 47  1  0
 25 48  1  0
 26 49  1  0
 29 50  1  0
 29 51  1  0
 29 52  1  0
 30 53  1  0
 31 54  1  0
 32 55  1  0
 33 56  1  0
M  END
$$$$
