
     RDKit          3D

 46 50  0  0  0  0  0  0  0  0999 V2000
   -8.1463   -1.5760    0.5324 C   0  0  0  0  0  0  0  0  0  0  0  0
   -6.6456   -1.4331    0.5241 C   0  0  0  0  0  0  0  0  0  0  0  0
   -5.8566   -2.5957    0.4686 C   0  0  0  0  0  0  0  0  0  0  0  0
   -4.4608   -2.5445    0.4573 C   0  0  0  0  0  0  0  0  0  0  0  0
   -3.8817   -1.2771    0.5039 C   0  0  0  0  0  0  0  0  0  0  0  0
   -4.6266   -0.0928    0.5600 C   0  0  0  0  0  0  0  0  0  0  0  0
   -3.7994    1.0194    0.5983 N   0  0  0  0  0  0  0  0  0  0  0  0
   -2.6010    0.5108    0.5644 C   0  0  0  0  0  0  0  0  0  0  0  0
   -1.0302    1.2098    0.5782 S   0  0  0  0  0  0  0  0  0  0  0  0
   -0.3163   -0.3813    0.5136 C   0  0  0  0  0  0  0  0  0  0  0  0
    0.9751   -0.7332    0.4611 C   0  0  0  0  0  0  0  0  0  0  0  0
    2.0994    0.1383    0.4681 C   0  0  0  0  0  0  0  0  0  0  0  0
    2.3143    1.3957    1.0199 C   0  0  0  0  0  0  0  0  0  0  0  0
    3.6447    1.7856    0.7278 C   0  0  0  0  0  0  0  0  0  0  0  0
    4.2040    0.7504    0.0155 C   0  0  0  0  0  0  0  0  0  0  0  0
    5.5150    0.4934   -0.5746 C   0  0  0  0  0  0  0  0  0  0  0  0
    6.0386   -0.8122   -0.5279 C   0  0  0  0  0  0  0  0  0  0  0  0
    7.3193   -1.1005   -1.0103 C   0  0  0  0  0  0  0  0  0  0  0  0
    8.1079   -0.0868   -1.5460 C   0  0  0  0  0  0  0  0  0  0  0  0
    7.6093    1.2122   -1.6141 C   0  0  0  0  0  0  0  0  0  0  0  0
    6.3153    1.4973   -1.1479 C   0  0  0  0  0  0  0  0  0  0  0  0
    5.8618    2.8884   -1.3114 C   0  0  0  0  0  0  0  0  0  0  0  0
    6.4415    3.8799   -0.9131 O   0  0  0  0  0  0  0  0  0  0  0  0
    4.7450    2.9549   -2.0544 O   0  0  0  0  0  0  0  0  0  0  0  0
    3.2861   -0.2478   -0.1190 O   0  0  0  0  0  0  0  0  0  0  0  0
   -1.3517   -1.4583    0.4755 C   0  0  0  0  0  0  0  0  0  0  0  0
   -1.2190   -2.6672    0.4279 O   0  0  0  0  0  0  0  0  0  0  0  0
   -2.5818   -0.8410    0.5097 N   0  0  0  0  0  0  0  0  0  0  0  0
   -6.0384   -0.1492    0.5713 C   0  0  0  0  0  0  0  0  0  0  0  0
   -6.8725    1.1007    0.6307 C   0  0  0  0  0  0  0  0  0  0  0  0
   -8.5805   -1.0746   -0.3383 H   0  0  0  0  0  0  0  0  0  0  0  0
   -8.4513   -2.6271    0.4923 H   0  0  0  0  0  0  0  0  0  0  0  0
   -8.5637   -1.1477    1.4491 H   0  0  0  0  0  0  0  0  0  0  0  0
   -6.3349   -3.5741    0.4326 H   0  0  0  0  0  0  0  0  0  0  0  0
   -3.8627   -3.4501    0.4140 H   0  0  0  0  0  0  0  0  0  0  0  0
    1.2233   -1.7896    0.3622 H   0  0  0  0  0  0  0  0  0  0  0  0
    1.6021    1.9757    1.5897 H   0  0  0  0  0  0  0  0  0  0  0  0
    4.1326    2.7053    1.0196 H   0  0  0  0  0  0  0  0  0  0  0  0
    5.4505   -1.6199   -0.0941 H   0  0  0  0  0  0  0  0  0  0  0  0
    7.7012   -2.1174   -0.9569 H   0  0  0  0  0  0  0  0  0  0  0  0
    9.1068   -0.3084   -1.9137 H   0  0  0  0  0  0  0  0  0  0  0  0
    8.2233    2.0030   -2.0408 H   0  0  0  0  0  0  0  0  0  0  0  0
    4.5593    3.9122   -2.1434 H   0  0  0  0  0  0  0  0  0  0  0  0
   -7.4954    1.1000    1.5306 H   0  0  0  0  0  0  0  0  0  0  0  0
   -6.2478    1.9990    0.6617 H   0  0  0  0  0  0  0  0  0  0  0  0
   -7.5123    1.1736   -0.2543 H   0  0  0  0  0  0  0  0  0  0  0  0
  1  2  1  0
  2  3  2  0
  3  4  1  0
  4  5  2  0
  5  6  1  0
  6  7  1  0
  7  8  2  0
  8  9  1  0
  9 10  1  0
 10 11  2  3
 11 12  1  0
 12 13  2  0
 13 14  1  0
 14 15  2  0
 15 16  1  0
 16 17  2  0
 17 18  1  0
 18 19  2  0
 19 20  1  0
 20 21  2  0
 21 22  1  0
 22 23  2  0
 22 24  1  0
 15 25  1  0
 10 26  1  0
 26 27  2  0
 26 28  1  0
  6 29  2  0
 29 30  1  0
 29  2  1  0
 28  5  1  0
 28  8  1  0
 25 12  1  0
 21 16  1  0
  1 31  1  0
  1 32  1  0
  1 33  1  0
  3 34  1  0
  4 35  1  0
 11 36  1  0
 13 37  1  0
 14 38  1  0
 17 39  1  0
 18 40  1  0
 19 41  1  0
 20 42  1  0
 24 43  1  0
 30 44  1  0
 30 45  1  0
 30 46  1  0
M  END
$$$$
