
     RDKit          3D

 98 98  0  0  0  0  0  0  0  0999 V2000
   14.7033   -0.0235    0.4447 C   0  0  0  0  0  0  0  0  0  0  0  0
   13.9242   -0.0927    1.7500 C   0  0  0  0  0  0  0  0  0  0  0  0
   12.7516   -1.0763    1.7119 C   0  0  0  0  0  0  0  0  0  0  0  0
   11.6762   -0.7933    0.6564 C   0  0  0  0  0  0  0  0  0  0  0  0
   10.9573    0.5421    0.8664 C   0  0  0  0  0  0  0  0  0  0  0  0
    9.8832    0.8294   -0.1911 C   0  0  0  0  0  0  0  0  0  0  0  0
    8.6689   -0.1017   -0.0984 C   0  0  0  0  0  0  0  0  0  0  0  0
    7.5902    0.2974   -1.1111 C   0  0  0  0  0  0  0  0  0  0  0  0
    6.3745   -0.6356   -1.0992 C   0  0  0  0  0  0  0  0  0  0  0  0
    5.5135   -0.4864    0.1611 C   0  0  0  0  0  0  0  0  0  0  0  0
    4.2859   -1.4014    0.0987 C   0  0  0  0  0  0  0  0  0  0  0  0
    3.4316   -1.3645    1.3705 C   0  0  0  0  0  0  0  0  0  0  0  0
    2.7922   -0.0108    1.7037 C   0  0  0  0  0  0  0  0  0  0  0  0
    1.7951    0.4600    0.6437 C   0  0  0  0  0  0  0  0  0  0  0  0
    1.1041    1.7602    1.0552 C   0  0  0  0  0  0  0  0  0  0  0  0
   -0.0284    2.0970    0.1181 C   0  0  0  0  0  0  0  0  0  0  0  0
   -1.1912    2.2222    0.4774 O   0  0  0  0  0  0  0  0  0  0  0  0
    0.4338    2.2467   -1.1517 O   0  0  0  0  0  0  0  0  0  0  0  0
   -0.5672    2.4229   -2.1610 C   0  0  0  0  0  0  0  0  0  0  0  0
   -0.7437    1.1062   -2.8582 C   0  0  0  0  0  0  0  0  0  0  0  0
   -1.8178    0.2868   -2.8855 C   0  0  0  0  0  0  0  0  0  0  0  0
   -1.7272   -1.0191   -3.6422 C   0  0  0  0  0  0  0  0  0  0  0  0
   -3.0752    0.6028   -2.2144 C   0  0  0  0  0  0  0  0  0  0  0  0
   -4.0883   -0.2498   -1.9836 C   0  0  0  0  0  0  0  0  0  0  0  0
   -5.3252    0.1606   -1.3454 C   0  0  0  0  0  0  0  0  0  0  0  0
   -6.2695   -0.6409   -0.8167 C   0  0  0  0  0  0  0  0  0  0  0  0
   -6.1562   -2.1438   -0.7209 C   0  0  0  0  0  0  0  0  0  0  0  0
   -7.4899   -0.0193   -0.2948 C   0  0  0  0  0  0  0  0  0  0  0  0
   -8.5016   -0.6525    0.3230 C   0  0  0  0  0  0  0  0  0  0  0  0
   -9.7378    0.0051    0.7381 C   0  0  0  0  0  0  0  0  0  0  0  0
   -9.7664    0.9777    1.6855 C   0  0  0  0  0  0  0  0  0  0  0  0
   -8.5631    1.4995    2.4388 C   0  0  0  0  0  0  0  0  0  0  0  0
  -11.0540    1.6511    2.1185 C   0  0  0  0  0  0  0  0  0  0  0  0
  -12.3297    0.9497    1.6677 C   0  0  0  0  0  0  0  0  0  0  0  0
  -12.2003    0.4815    0.2276 C   0  0  0  0  0  0  0  0  0  0  0  0
  -11.0157   -0.5069    0.0325 C   0  0  0  0  0  0  0  0  0  0  0  0
  -10.8249   -0.6585   -1.4956 C   0  0  0  0  0  0  0  0  0  0  0  0
  -11.4041   -1.8872    0.6126 C   0  0  0  0  0  0  0  0  0  0  0  0
   15.5940    0.6034    0.5684 H   0  0  0  0  0  0  0  0  0  0  0  0
   14.1016    0.4135   -0.3606 H   0  0  0  0  0  0  0  0  0  0  0  0
   15.0325   -1.0194    0.1284 H   0  0  0  0  0  0  0  0  0  0  0  0
   14.6116   -0.4075    2.5465 H   0  0  0  0  0  0  0  0  0  0  0  0
   13.5745    0.9103    2.0181 H   0  0  0  0  0  0  0  0  0  0  0  0
   13.1428   -2.0863    1.5392 H   0  0  0  0  0  0  0  0  0  0  0  0
   12.2830   -1.0956    2.7043 H   0  0  0  0  0  0  0  0  0  0  0  0
   12.1141   -0.8326   -0.3488 H   0  0  0  0  0  0  0  0  0  0  0  0
   10.9467   -1.6106    0.7083 H   0  0  0  0  0  0  0  0  0  0  0  0
   11.6872    1.3576    0.8247 H   0  0  0  0  0  0  0  0  0  0  0  0
   10.5081    0.5691    1.8678 H   0  0  0  0  0  0  0  0  0  0  0  0
    9.5445    1.8657   -0.0578 H   0  0  0  0  0  0  0  0  0  0  0  0
   10.3264    0.7697   -1.1931 H   0  0  0  0  0  0  0  0  0  0  0  0
    8.2661   -0.0670    0.9209 H   0  0  0  0  0  0  0  0  0  0  0  0
    8.9709   -1.1371   -0.2936 H   0  0  0  0  0  0  0  0  0  0  0  0
    7.2649    1.3284   -0.9242 H   0  0  0  0  0  0  0  0  0  0  0  0
    8.0251    0.2801   -2.1186 H   0  0  0  0  0  0  0  0  0  0  0  0
    5.7576   -0.4032   -1.9763 H   0  0  0  0  0  0  0  0  0  0  0  0
    6.7075   -1.6761   -1.2101 H   0  0  0  0  0  0  0  0  0  0  0  0
    5.1971    0.5594    0.2555 H   0  0  0  0  0  0  0  0  0  0  0  0
    6.1002   -0.7338    1.0545 H   0  0  0  0  0  0  0  0  0  0  0  0
    4.6214   -2.4362   -0.0548 H   0  0  0  0  0  0  0  0  0  0  0  0
    3.6726   -1.1486   -0.7736 H   0  0  0  0  0  0  0  0  0  0  0  0
    2.6390   -2.1208    1.2836 H   0  0  0  0  0  0  0  0  0  0  0  0
    4.0501   -1.6775    2.2211 H   0  0  0  0  0  0  0  0  0  0  0  0
    2.2692   -0.1172    2.6634 H   0  0  0  0  0  0  0  0  0  0  0  0
    3.5686    0.7452    1.8606 H   0  0  0  0  0  0  0  0  0  0  0  0
    1.0419   -0.3202    0.4741 H   0  0  0  0  0  0  0  0  0  0  0  0
    2.3108    0.6141   -0.3130 H   0  0  0  0  0  0  0  0  0  0  0  0
    1.8045    2.6019    1.0780 H   0  0  0  0  0  0  0  0  0  0  0  0
    0.6837    1.6587    2.0636 H   0  0  0  0  0  0  0  0  0  0  0  0
   -1.4880    2.8578   -1.7659 H   0  0  0  0  0  0  0  0  0  0  0  0
   -0.1714    3.1504   -2.8764 H   0  0  0  0  0  0  0  0  0  0  0  0
    0.1564    0.7840   -3.3820 H   0  0  0  0  0  0  0  0  0  0  0  0
   -0.7715   -1.1258   -4.1686 H   0  0  0  0  0  0  0  0  0  0  0  0
   -1.8170   -1.8701   -2.9584 H   0  0  0  0  0  0  0  0  0  0  0  0
   -2.5172   -1.0847   -4.4003 H   0  0  0  0  0  0  0  0  0  0  0  0
   -3.1868    1.6210   -1.8514 H   0  0  0  0  0  0  0  0  0  0  0  0
   -4.0089   -1.2856   -2.2949 H   0  0  0  0  0  0  0  0  0  0  0  0
   -5.4779    1.2397   -1.3187 H   0  0  0  0  0  0  0  0  0  0  0  0
   -5.1977   -2.5352   -1.0676 H   0  0  0  0  0  0  0  0  0  0  0  0
   -6.9332   -2.6277   -1.3215 H   0  0  0  0  0  0  0  0  0  0  0  0
   -6.2558   -2.4743    0.3194 H   0  0  0  0  0  0  0  0  0  0  0  0
   -7.5870    1.0550   -0.4542 H   0  0  0  0  0  0  0  0  0  0  0  0
   -8.4781   -1.7248    0.4808 H   0  0  0  0  0  0  0  0  0  0  0  0
   -8.3947    2.5538    2.1968 H   0  0  0  0  0  0  0  0  0  0  0  0
   -7.6375    0.9535    2.2341 H   0  0  0  0  0  0  0  0  0  0  0  0
   -8.7351    1.4207    3.5169 H   0  0  0  0  0  0  0  0  0  0  0  0
  -11.0501    2.6770    1.7248 H   0  0  0  0  0  0  0  0  0  0  0  0
  -11.0789    1.7292    3.2117 H   0  0  0  0  0  0  0  0  0  0  0  0
  -13.1787    1.6408    1.7591 H   0  0  0  0  0  0  0  0  0  0  0  0
  -12.5479    0.1009    2.3281 H   0  0  0  0  0  0  0  0  0  0  0  0
  -12.0599    1.3646   -0.4129 H   0  0  0  0  0  0  0  0  0  0  0  0
  -13.1439    0.0189   -0.0920 H   0  0  0  0  0  0  0  0  0  0  0  0
  -10.0774   -1.4223   -1.7425 H   0  0  0  0  0  0  0  0  0  0  0  0
  -10.5067    0.2876   -1.9485 H   0  0  0  0  0  0  0  0  0  0  0  0
  -11.7628   -0.9637   -1.9794 H   0  0  0  0  0  0  0  0  0  0  0  0
  -10.6674   -2.6520    0.3493 H   0  0  0  0  0  0  0  0  0  0  0  0
  -11.4777   -1.8707    1.7047 H   0  0  0  0  0  0  0  0  0  0  0  0
  -12.3738   -2.2233    0.2204 H   0  0  0  0  0  0  0  0  0  0  0  0
  1  2  1  0
  2  3  1  0
  3  4  1  0
  4  5  1  0
  5  6  1  0
  6  7  1  0
  7  8  1  0
  8  9  1  0
  9 10  1  0
 10 11  1  0
 11 12  1  0
 12 13  1  0
 13 14  1  0
 14 15  1  0
 15 16  1  0
 16 17  2  0
 16 18  1  0
 18 19  1  0
 19 20  1  0
 20 21  2  3
 21 22  1  0
 21 23  1  0
 23 24  2  3
 24 25  1  0
 25 26  2  3
 26 27  1  0
 26 28  1  0
 28 29  2  3
 29 30  1  0
 30 31  2  0
 31 32  1  0
 31 33  1  0
 33 34  1  0
 34 35  1  0
 35 36  1  0
 36 37  1  0
 36 38  1  0
 36 30  1  0
  1 39  1  0
  1 40  1  0
  1 41  1  0
  2 42  1  0
  2 43  1  0
  3 44  1  0
  3 45  1  0
  4 46  1  0
  4 47  1  0
  5 48  1  0
  5 49  1  0
  6 50  1  0
  6 51  1  0
  7 52  1  0
  7 53  1  0
  8 54  1  0
  8 55  1  0
  9 56  1  0
  9 57  1  0
 10 58  1  0
 10 59  1  0
 11 60  1  0
 11 61  1  0
 12 62  1  0
 12 63  1  0
 13 64  1  0
 13 65  1  0
 14 66  1  0
 14 67  1  0
 15 68  1  0
 15 69  1  0
 19 70  1  0
 19 71  1  0
 20 72  1  0
 22 73  1  0
 22 74  1  0
 22 75  1  0
 23 76  1  0
 24 77  1  0
 25 78  1  0
 27 79  1  0
 27 80  1  0
 27 81  1  0
 28 82  1  0
 29 83  1  0
 32 84  1  0
 32 85  1  0
 32 86  1  0
 33 87  1  0
 33 88  1  0
 34 89  1  0
 34 90  1  0
 35 91  1  0
 35 92  1  0
 37 93  1  0
 37 94  1  0
 37 95  1  0
 38 96  1  0
 38 97  1  0
 38 98  1  0
M  END
$$$$
