
     RDKit          3D

 46 49  0  0  0  0  0  0  0  0999 V2000
    0.0156   -0.6821    2.3708 O   0  0  0  0  0  0  0  0  0  0  0  0
    0.5131   -0.0899    1.4177 C   0  0  0  0  0  0  0  0  0  0  0  0
    2.0176    0.0402    1.2522 C   0  0  0  0  0  0  0  0  0  0  0  0
    2.5361   -0.7110   -0.3280 S   0  0  0  0  0  0  0  0  0  0  0  0
    4.3096   -0.5223   -0.2049 C   0  0  0  0  0  0  0  0  0  0  0  0
    4.7401    0.3839    0.7140 N   0  0  0  0  0  0  0  0  0  0  0  0
    6.0733    0.5290    0.8904 C   0  0  0  0  0  0  0  0  0  0  0  0
    7.0241   -0.1926    0.1932 C   0  0  0  0  0  0  0  0  0  0  0  0
    6.5812   -1.1107   -0.7516 C   0  0  0  0  0  0  0  0  0  0  0  0
    5.2070   -1.2659   -0.9712 C   0  0  0  0  0  0  0  0  0  0  0  0
    4.7998   -2.2484   -1.9809 C   0  0  0  0  0  0  0  0  0  0  0  0
    5.1791   -3.4030   -2.0360 O   0  0  0  0  0  0  0  0  0  0  0  0
    4.0507   -1.6928   -2.9464 O   0  0  0  0  0  0  0  0  0  0  0  0
   -0.2175    0.5567    0.4380 N   0  0  0  0  0  0  0  0  0  0  0  0
   -1.6779    0.5010    0.3167 C   0  0  0  0  0  0  0  0  0  0  0  0
   -2.1008    1.3895   -0.8849 C   0  0  0  0  0  0  0  0  0  0  0  0
   -3.6254    1.3654   -1.0807 C   0  0  0  0  0  0  0  0  0  0  0  0
   -4.3057    1.8942    0.1917 C   0  0  0  0  0  0  0  0  0  0  0  0
   -3.9207    1.0173    1.3931 C   0  0  0  0  0  0  0  0  0  0  0  0
   -4.3678   -0.4307    1.1299 C   0  0  0  0  0  0  0  0  0  0  0  0
   -3.6927   -0.9707   -0.1428 C   0  0  0  0  0  0  0  0  0  0  0  0
   -4.0766   -0.0811   -1.3365 C   0  0  0  0  0  0  0  0  0  0  0  0
   -2.1655   -0.9429    0.0420 C   0  0  0  0  0  0  0  0  0  0  0  0
   -2.3928    1.0491    1.5786 C   0  0  0  0  0  0  0  0  0  0  0  0
    2.5029   -0.4804    2.0838 H   0  0  0  0  0  0  0  0  0  0  0  0
    2.2784    1.1030    1.2882 H   0  0  0  0  0  0  0  0  0  0  0  0
    6.3641    1.2621    1.6394 H   0  0  0  0  0  0  0  0  0  0  0  0
    8.0824   -0.0458    0.3809 H   0  0  0  0  0  0  0  0  0  0  0  0
    7.2990   -1.7003   -1.3182 H   0  0  0  0  0  0  0  0  0  0  0  0
    3.8723   -2.4259   -3.5725 H   0  0  0  0  0  0  0  0  0  0  0  0
    0.3017    0.7492   -0.4121 H   0  0  0  0  0  0  0  0  0  0  0  0
   -1.7633    2.4224   -0.7275 H   0  0  0  0  0  0  0  0  0  0  0  0
   -1.6072    1.0436   -1.8025 H   0  0  0  0  0  0  0  0  0  0  0  0
   -3.8993    1.9943   -1.9355 H   0  0  0  0  0  0  0  0  0  0  0  0
   -5.3951    1.8964    0.0616 H   0  0  0  0  0  0  0  0  0  0  0  0
   -4.0053    2.9331    0.3748 H   0  0  0  0  0  0  0  0  0  0  0  0
   -4.4097    1.3945    2.2981 H   0  0  0  0  0  0  0  0  0  0  0  0
   -4.1110   -1.0643    1.9884 H   0  0  0  0  0  0  0  0  0  0  0  0
   -5.4587   -0.4702    1.0203 H   0  0  0  0  0  0  0  0  0  0  0  0
   -4.0220   -1.9992   -0.3278 H   0  0  0  0  0  0  0  0  0  0  0  0
   -3.6108   -0.4637   -2.2534 H   0  0  0  0  0  0  0  0  0  0  0  0
   -5.1619   -0.1117   -1.4935 H   0  0  0  0  0  0  0  0  0  0  0  0
   -1.6730   -1.3438   -0.8560 H   0  0  0  0  0  0  0  0  0  0  0  0
   -1.8897   -1.6126    0.8671 H   0  0  0  0  0  0  0  0  0  0  0  0
   -2.1356    0.4614    2.4672 H   0  0  0  0  0  0  0  0  0  0  0  0
   -2.0623    2.0758    1.7831 H   0  0  0  0  0  0  0  0  0  0  0  0
  1  2  2  0
  2  3  1  0
  3  4  1  0
  4  5  1  0
  5  6  2  0
  6  7  1  0
  7  8  2  0
  8  9  1  0
  9 10  2  0
 10 11  1  0
 11 12  2  0
 11 13  1  0
  2 14  1  0
 14 15  1  0
 15 16  1  0
 16 17  1  0
 17 18  1  0
 18 19  1  0
 19 20  1  0
 20 21  1  0
 21 22  1  0
 21 23  1  0
 19 24  1  0
 10  5  1  0
 23 15  1  0
 24 15  1  0
 22 17  1  0
  3 25  1  0
  3 26  1  0
  7 27  1  0
  8 28  1  0
  9 29  1  0
 13 30  1  0
 14 31  1  0
 16 32  1  0
 16 33  1  0
 17 34  1  0
 18 35  1  0
 18 36  1  0
 19 37  1  0
 20 38  1  0
 20 39  1  0
 21 40  1  0
 22 41  1  0
 22 42  1  0
 23 43  1  0
 23 44  1  0
 24 45  1  0
 24 46  1  0
M  END
$$$$
