
     RDKit          3D

 49 51  0  0  0  0  0  0  0  0999 V2000
   -4.9098    0.1303   -0.2379 C   0  0  0  0  0  0  0  0  0  0  0  0
   -3.6972   -0.6675    0.1712 C   0  0  0  0  0  0  0  0  0  0  0  0
   -3.9125   -2.1114    0.4793 C   0  0  0  0  0  0  0  0  0  0  0  0
   -2.8234   -2.7722    0.8985 C   0  0  0  0  0  0  0  0  0  0  0  0
   -2.8467   -4.2302    1.2435 C   0  0  0  0  0  0  0  0  0  0  0  0
   -1.6290   -2.0993    1.0059 N   0  0  0  0  0  0  0  0  0  0  0  0
   -1.4673   -0.7979    0.6192 C   0  0  0  0  0  0  0  0  0  0  0  0
   -0.2778   -0.2778    0.6175 N   0  0  0  0  0  0  0  0  0  0  0  0
   -0.0831    0.9952    0.1483 C   0  0  0  0  0  0  0  0  0  0  0  0
    0.8538    1.1956   -0.7190 N   0  0  0  0  0  0  0  0  0  0  0  0
    1.7686    0.0192   -1.3460 S   0  0  0  0  0  6  0  0  0  0  0  0
    0.9457   -1.1004   -1.7718 O   0  0  0  0  0  0  0  0  0  0  0  0
    2.6561    0.6533   -2.3080 O   0  0  0  0  0  0  0  0  0  0  0  0
    2.7670   -0.4717    0.0655 C   0  0  0  0  0  0  0  0  0  0  0  0
    3.7955   -1.4880   -0.3655 C   0  0  0  0  0  0  0  0  0  0  0  0
    5.0875   -1.0832   -0.7306 C   0  0  0  0  0  0  0  0  0  0  0  0
    6.0378   -2.0243   -1.1291 C   0  0  0  0  0  0  0  0  0  0  0  0
    5.7073   -3.3774   -1.1693 C   0  0  0  0  0  0  0  0  0  0  0  0
    4.4252   -3.7911   -0.8142 C   0  0  0  0  0  0  0  0  0  0  0  0
    3.4728   -2.8523   -0.4151 C   0  0  0  0  0  0  0  0  0  0  0  0
   -0.8425    2.0118    0.6804 N   0  0  0  0  0  0  0  0  0  0  0  0
   -0.9147    3.3816    0.3473 C   0  0  0  0  0  0  0  0  0  0  0  0
    0.0774    4.0539   -0.3786 C   0  0  0  0  0  0  0  0  0  0  0  0
   -0.0150    5.4257   -0.6458 C   0  0  0  0  0  0  0  0  0  0  0  0
   -1.0956    6.1633   -0.1742 C   0  0  0  0  0  0  0  0  0  0  0  0
   -2.0842    5.5313    0.5726 C   0  0  0  0  0  0  0  0  0  0  0  0
   -1.9890    4.1597    0.8340 C   0  0  0  0  0  0  0  0  0  0  0  0
   -3.3780    3.3712    1.8744 Br  0  0  0  0  0  0  0  0  0  0  0  0
   -2.5587   -0.0466    0.2523 N   0  0  0  0  0  0  0  0  0  0  0  0
   -4.6368    0.8417   -1.0231 H   0  0  0  0  0  0  0  0  0  0  0  0
   -5.7025   -0.5206   -0.6165 H   0  0  0  0  0  0  0  0  0  0  0  0
   -5.2833    0.6823    0.6291 H   0  0  0  0  0  0  0  0  0  0  0  0
   -4.8908   -2.5547    0.3596 H   0  0  0  0  0  0  0  0  0  0  0  0
   -3.8438   -4.6654    1.1167 H   0  0  0  0  0  0  0  0  0  0  0  0
   -2.1546   -4.7846    0.6011 H   0  0  0  0  0  0  0  0  0  0  0  0
   -2.5460   -4.3790    2.2859 H   0  0  0  0  0  0  0  0  0  0  0  0
   -0.7833   -2.6284    1.1703 H   0  0  0  0  0  0  0  0  0  0  0  0
    2.1291   -0.8956    0.8436 H   0  0  0  0  0  0  0  0  0  0  0  0
    3.2494    0.4274    0.4621 H   0  0  0  0  0  0  0  0  0  0  0  0
    5.3596   -0.0293   -0.7216 H   0  0  0  0  0  0  0  0  0  0  0  0
    7.0339   -1.6993   -1.4182 H   0  0  0  0  0  0  0  0  0  0  0  0
    6.4464   -4.1079   -1.4873 H   0  0  0  0  0  0  0  0  0  0  0  0
    4.1637   -4.8451   -0.8587 H   0  0  0  0  0  0  0  0  0  0  0  0
    2.4719   -3.1918   -0.1568 H   0  0  0  0  0  0  0  0  0  0  0  0
   -1.7176    1.6629    1.0648 H   0  0  0  0  0  0  0  0  0  0  0  0
    0.9524    3.5339   -0.7565 H   0  0  0  0  0  0  0  0  0  0  0  0
    0.7671    5.9131   -1.2241 H   0  0  0  0  0  0  0  0  0  0  0  0
   -1.1627    7.2278   -0.3831 H   0  0  0  0  0  0  0  0  0  0  0  0
   -2.9227    6.1119    0.9480 H   0  0  0  0  0  0  0  0  0  0  0  0
  1  2  1  0
  2  3  1  0
  3  4  2  0
  4  5  1  0
  4  6  1  0
  6  7  1  0
  7  8  2  3
  8  9  1  0
  9 10  2  3
 10 11  1  0
 11 12  2  0
 11 13  2  0
 11 14  1  0
 14 15  1  0
 15 16  2  0
 16 17  1  0
 17 18  2  0
 18 19  1  0
 19 20  2  0
  9 21  1  0
 21 22  1  0
 22 23  2  0
 23 24  1  0
 24 25  2  0
 25 26  1  0
 26 27  2  0
 27 28  1  0
  7 29  1  0
 29  2  2  0
 20 15  1  0
 27 22  1  0
  1 30  1  0
  1 31  1  0
  1 32  1  0
  3 33  1  0
  5 34  1  0
  5 35  1  0
  5 36  1  0
  6 37  1  0
 14 38  1  0
 14 39  1  0
 16 40  1  0
 17 41  1  0
 18 42  1  0
 19 43  1  0
 20 44  1  0
 21 45  1  0
 23 46  1  0
 24 47  1  0
 25 48  1  0
 26 49  1  0
M  END
$$$$
