
     RDKit          3D

 48 51  0  0  0  0  0  0  0  0999 V2000
    8.2535    3.6407    0.0646 C   0  0  0  0  0  0  0  0  0  0  0  0
    7.5841    2.3257    0.2200 C   0  0  0  0  0  0  0  0  0  0  0  0
    7.2745    1.7770    1.3755 N   0  0  0  0  0  0  0  0  0  0  0  0
    6.6596    0.5510    1.2186 N   0  0  0  0  0  0  0  0  0  0  0  0
    6.5192    0.2230   -0.0474 C   0  0  0  0  0  0  0  0  0  0  0  0
    5.7792   -1.2720   -0.5642 S   0  0  0  0  0  0  0  0  0  0  0  0
    4.8787   -1.7539    0.9417 C   0  0  0  0  0  0  0  0  0  0  0  0
    3.5885   -0.9750    1.0871 C   0  0  0  0  0  0  0  0  0  0  0  0
    3.4882    0.0283    1.9727 C   0  0  0  0  0  0  0  0  0  0  0  0
    2.2049    0.7293    2.0849 C   0  0  0  0  0  0  0  0  0  0  0  0
    2.0423    1.6532    2.8723 O   0  0  0  0  0  0  0  0  0  0  0  0
    1.2290    0.2644    1.2601 N   0  0  0  0  0  0  0  0  0  0  0  0
    1.3953   -0.7868    0.3997 C   0  0  0  0  0  0  0  0  0  0  0  0
    0.3530   -1.2031   -0.3654 N   0  0  0  0  0  0  0  0  0  0  0  0
   -0.9710   -0.8049   -0.3300 C   0  0  0  0  0  0  0  0  0  0  0  0
   -1.3506    0.2032    0.4704 N   0  0  0  0  0  0  0  0  0  0  0  0
   -2.6613    0.5335    0.4923 C   0  0  0  0  0  0  0  0  0  0  0  0
   -3.0257    1.6594    1.4177 C   0  0  0  0  0  0  0  0  0  0  0  0
   -3.6186   -0.1271   -0.2841 C   0  0  0  0  0  0  0  0  0  0  0  0
   -5.0065    0.1612   -0.2999 C   0  0  0  0  0  0  0  0  0  0  0  0
   -5.8937   -0.5627   -1.1078 C   0  0  0  0  0  0  0  0  0  0  0  0
   -7.3595   -0.2226   -1.0927 C   0  0  0  0  0  0  0  0  0  0  0  0
   -5.3813   -1.5800   -1.9264 C   0  0  0  0  0  0  0  0  0  0  0  0
   -6.2726   -2.4001   -2.8184 C   0  0  0  0  0  0  0  0  0  0  0  0
   -4.0013   -1.8536   -1.8937 C   0  0  0  0  0  0  0  0  0  0  0  0
   -3.1140   -1.1497   -1.0889 C   0  0  0  0  0  0  0  0  0  0  0  0
   -1.8168   -1.4833   -1.1139 N   0  0  0  0  0  0  0  0  0  0  0  0
    2.5388   -1.4032    0.3005 N   0  0  0  0  0  0  0  0  0  0  0  0
    7.1525    1.3778   -1.1460 S   0  0  0  0  0  0  0  0  0  0  0  0
    8.0717    4.0873   -0.9186 H   0  0  0  0  0  0  0  0  0  0  0  0
    7.8877    4.3411    0.8241 H   0  0  0  0  0  0  0  0  0  0  0  0
    9.3345    3.5279    0.1972 H   0  0  0  0  0  0  0  0  0  0  0  0
    4.6428   -2.8220    0.8617 H   0  0  0  0  0  0  0  0  0  0  0  0
    5.5202   -1.6556    1.8234 H   0  0  0  0  0  0  0  0  0  0  0  0
    4.2984    0.3645    2.6059 H   0  0  0  0  0  0  0  0  0  0  0  0
    0.3175    0.7022    1.3137 H   0  0  0  0  0  0  0  0  0  0  0  0
    0.5029   -2.0047   -0.9562 H   0  0  0  0  0  0  0  0  0  0  0  0
   -3.4655    2.4903    0.8571 H   0  0  0  0  0  0  0  0  0  0  0  0
   -3.7325    1.3150    2.1790 H   0  0  0  0  0  0  0  0  0  0  0  0
   -2.1369    2.0381    1.9349 H   0  0  0  0  0  0  0  0  0  0  0  0
   -5.4004    0.9563    0.3308 H   0  0  0  0  0  0  0  0  0  0  0  0
   -7.9589   -1.1163   -0.8884 H   0  0  0  0  0  0  0  0  0  0  0  0
   -7.6586    0.2059   -2.0551 H   0  0  0  0  0  0  0  0  0  0  0  0
   -7.5929    0.5091   -0.3111 H   0  0  0  0  0  0  0  0  0  0  0  0
   -6.9495   -3.0124   -2.2146 H   0  0  0  0  0  0  0  0  0  0  0  0
   -6.8578   -1.7517   -3.4783 H   0  0  0  0  0  0  0  0  0  0  0  0
   -5.6928   -3.0744   -3.4566 H   0  0  0  0  0  0  0  0  0  0  0  0
   -3.5981   -2.6503   -2.5175 H   0  0  0  0  0  0  0  0  0  0  0  0
  1  2  1  0
  2  3  2  0
  3  4  1  0
  4  5  2  0
  5  6  1  0
  6  7  1  0
  7  8  1  0
  8  9  2  0
  9 10  1  0
 10 11  2  0
 10 12  1  0
 12 13  1  0
 13 14  1  0
 14 15  1  0
 15 16  2  0
 16 17  1  0
 17 18  1  0
 17 19  2  0
 19 20  1  0
 20 21  2  0
 21 22  1  0
 21 23  1  0
 23 24  1  0
 23 25  2  0
 25 26  1  0
 26 27  2  0
 13 28  2  0
  5 29  1  0
 29  2  1  0
 28  8  1  0
 27 15  1  0
 26 19  1  0
  1 30  1  0
  1 31  1  0
  1 32  1  0
  7 33  1  0
  7 34  1  0
  9 35  1  0
 12 36  1  0
 14 37  1  0
 18 38  1  0
 18 39  1  0
 18 40  1  0
 20 41  1  0
 22 42  1  0
 22 43  1  0
 22 44  1  0
 24 45  1  0
 24 46  1  0
 24 47  1  0
 25 48  1  0
M  END
$$$$
