
     RDKit          3D

 51 53  0  0  0  0  0  0  0  0999 V2000
   -5.6148   -0.3474   -0.5526 C   0  0  0  0  0  0  0  0  0  0  0  0
   -4.7120    0.8299   -0.2916 C   0  0  0  0  0  0  0  0  0  0  0  0
   -5.0580    1.7107    0.7435 C   0  0  0  0  0  0  0  0  0  0  0  0
   -4.2590    2.8079    1.0355 C   0  0  0  0  0  0  0  0  0  0  0  0
   -3.0939    3.0362    0.3061 C   0  0  0  0  0  0  0  0  0  0  0  0
   -2.7107    2.1758   -0.7297 C   0  0  0  0  0  0  0  0  0  0  0  0
   -1.5242    2.3935   -1.4740 N   0  0  0  0  0  0  0  0  0  0  0  0
   -0.4985    3.2790   -1.2024 C   0  0  0  0  0  0  0  0  0  0  0  0
   -0.4131    4.0220   -0.2261 O   0  0  0  0  0  0  0  0  0  0  0  0
    0.5740    3.3542   -2.2807 C   0  0  0  0  0  0  0  0  0  0  0  0
    1.0798    1.7586   -2.9726 S   0  0  0  0  0  0  0  0  0  0  0  0
    1.2994    0.8537   -1.4975 C   0  0  0  0  0  0  0  0  0  0  0  0
    0.4440   -0.0704   -1.2434 N   0  0  0  0  0  0  0  0  0  0  0  0
    0.5875   -0.7803   -0.0705 C   0  0  0  0  0  0  0  0  0  0  0  0
   -0.2392   -1.6209    0.2695 O   0  0  0  0  0  0  0  0  0  0  0  0
    1.7895   -0.5070    0.8101 C   0  0  0  0  0  0  0  0  0  0  0  0
    1.9002   -1.3663    2.0445 C   0  0  0  0  0  0  0  0  0  0  0  0
    2.6887   -2.6390    1.8178 C   0  0  0  0  0  0  0  0  0  0  0  0
    2.0688   -3.7710    1.2685 C   0  0  0  0  0  0  0  0  0  0  0  0
    2.7955   -4.9410    1.0417 C   0  0  0  0  0  0  0  0  0  0  0  0
    4.1497   -4.9949    1.3627 C   0  0  0  0  0  0  0  0  0  0  0  0
    4.7784   -3.8785    1.9097 C   0  0  0  0  0  0  0  0  0  0  0  0
    4.0530   -2.7068    2.1359 C   0  0  0  0  0  0  0  0  0  0  0  0
    2.6171    0.4971    0.4467 C   0  0  0  0  0  0  0  0  0  0  0  0
    3.8354    0.9397    1.2082 C   0  0  0  0  0  0  0  0  0  0  0  0
    2.3548    1.1845   -0.7155 N   0  0  0  0  0  0  0  0  0  0  0  0
   -3.5394    1.0689   -1.0542 C   0  0  0  0  0  0  0  0  0  0  0  0
   -3.1556    0.1243   -2.1703 C   0  0  0  0  0  0  0  0  0  0  0  0
   -6.0687   -0.2653   -1.5454 H   0  0  0  0  0  0  0  0  0  0  0  0
   -5.0514   -1.2826   -0.4743 H   0  0  0  0  0  0  0  0  0  0  0  0
   -6.4306   -0.4005    0.1771 H   0  0  0  0  0  0  0  0  0  0  0  0
   -5.9571    1.5438    1.3331 H   0  0  0  0  0  0  0  0  0  0  0  0
   -4.5367    3.4873    1.8369 H   0  0  0  0  0  0  0  0  0  0  0  0
   -2.5071    3.9095    0.5712 H   0  0  0  0  0  0  0  0  0  0  0  0
   -1.3210    1.7135   -2.1989 H   0  0  0  0  0  0  0  0  0  0  0  0
    1.4597    3.8369   -1.8542 H   0  0  0  0  0  0  0  0  0  0  0  0
    0.2006    3.9904   -3.0893 H   0  0  0  0  0  0  0  0  0  0  0  0
    0.9068   -1.6232    2.4354 H   0  0  0  0  0  0  0  0  0  0  0  0
    2.3544   -0.8031    2.8688 H   0  0  0  0  0  0  0  0  0  0  0  0
    1.0103   -3.7507    1.0129 H   0  0  0  0  0  0  0  0  0  0  0  0
    2.3010   -5.8097    0.6143 H   0  0  0  0  0  0  0  0  0  0  0  0
    4.7140   -5.9067    1.1865 H   0  0  0  0  0  0  0  0  0  0  0  0
    5.8352   -3.9208    2.1614 H   0  0  0  0  0  0  0  0  0  0  0  0
    4.5645   -1.8507    2.5678 H   0  0  0  0  0  0  0  0  0  0  0  0
    4.7366    0.7563    0.6130 H   0  0  0  0  0  0  0  0  0  0  0  0
    3.7767    2.0137    1.4174 H   0  0  0  0  0  0  0  0  0  0  0  0
    3.9622    0.4348    2.1669 H   0  0  0  0  0  0  0  0  0  0  0  0
    3.0228    1.8735   -1.0365 H   0  0  0  0  0  0  0  0  0  0  0  0
   -2.2889   -0.4737   -1.8734 H   0  0  0  0  0  0  0  0  0  0  0  0
   -3.9563   -0.5678   -2.4428 H   0  0  0  0  0  0  0  0  0  0  0  0
   -2.9243    0.6830   -3.0837 H   0  0  0  0  0  0  0  0  0  0  0  0
  1  2  1  0
  2  3  2  0
  3  4  1  0
  4  5  2  0
  5  6  1  0
  6  7  1  0
  7  8  1  0
  8  9  2  0
  8 10  1  0
 10 11  1  0
 11 12  1  0
 12 13  2  0
 13 14  1  0
 14 15  2  0
 14 16  1  0
 16 17  1  0
 17 18  1  0
 18 19  2  0
 19 20  1  0
 20 21  2  0
 21 22  1  0
 22 23  2  0
 16 24  2  0
 24 25  1  0
 24 26  1  0
  6 27  2  0
 27 28  1  0
 27  2  1  0
 26 12  1  0
 23 18  1  0
  1 29  1  0
  1 30  1  0
  1 31  1  0
  3 32  1  0
  4 33  1  0
  5 34  1  0
  7 35  1  0
 10 36  1  0
 10 37  1  0
 17 38  1  0
 17 39  1  0
 19 40  1  0
 20 41  1  0
 21 42  1  0
 22 43  1  0
 23 44  1  0
 25 45  1  0
 25 46  1  0
 25 47  1  0
 26 48  1  0
 28 49  1  0
 28 50  1  0
 28 51  1  0
M  END
$$$$
