
     RDKit          3D

 41 42  0  0  0  0  0  0  0  0999 V2000
   -6.6038    0.1287   -1.3039 C   0  0  0  0  0  0  0  0  0  0  0  0
   -5.7217   -1.0275   -0.8714 C   0  0  0  0  0  0  0  0  0  0  0  0
   -4.3590   -0.5934   -0.7521 O   0  0  0  0  0  0  0  0  0  0  0  0
   -4.0084   -0.0527    0.4458 C   0  0  0  0  0  0  0  0  0  0  0  0
   -4.7747    0.0735    1.3928 O   0  0  0  0  0  0  0  0  0  0  0  0
   -2.6871    0.3450    0.4717 N   0  0  0  0  0  0  0  0  0  0  0  0
   -1.7764    0.1766   -0.6582 C   0  0  0  0  0  0  0  0  0  0  0  0
   -0.3069    0.1109   -0.2184 C   0  0  0  0  0  0  0  0  0  0  0  0
    0.1103    1.2553    0.6178 N   0  0  0  0  0  0  0  0  0  0  0  0
    1.4139    1.7971    0.5608 C   0  0  0  0  0  0  0  0  0  0  0  0
    1.7848    3.3693    1.0134 S   0  0  0  0  0  0  0  0  0  0  0  0
    2.3530    0.8621    0.1085 N   0  0  0  0  0  0  0  0  0  0  0  0
    3.7030    1.0389   -0.1925 C   0  0  0  0  0  0  0  0  0  0  0  0
    4.2430    2.0845   -0.5286 O   0  0  0  0  0  0  0  0  0  0  0  0
    4.5320   -0.1968   -0.1739 C   0  0  0  0  0  0  0  0  0  0  0  0
    5.8655   -0.0914    0.2556 C   0  0  0  0  0  0  0  0  0  0  0  0
    6.6876   -1.2208    0.2874 C   0  0  0  0  0  0  0  0  0  0  0  0
    6.1775   -2.4482   -0.1201 C   0  0  0  0  0  0  0  0  0  0  0  0
    6.9642   -3.5318   -0.0888 F   0  0  0  0  0  0  0  0  0  0  0  0
    4.8630   -2.5504   -0.5632 C   0  0  0  0  0  0  0  0  0  0  0  0
    4.3782   -3.7324   -0.9674 F   0  0  0  0  0  0  0  0  0  0  0  0
    4.0325   -1.4332   -0.5992 C   0  0  0  0  0  0  0  0  0  0  0  0
   -0.9880    1.9506    1.3271 C   0  0  0  0  0  0  0  0  0  0  0  0
   -2.1682    1.0272    1.6534 C   0  0  0  0  0  0  0  0  0  0  0  0
   -6.2328    0.5673   -2.2360 H   0  0  0  0  0  0  0  0  0  0  0  0
   -7.6339   -0.2054   -1.4564 H   0  0  0  0  0  0  0  0  0  0  0  0
   -6.6025    0.9263   -0.5543 H   0  0  0  0  0  0  0  0  0  0  0  0
   -6.0802   -1.4814    0.0596 H   0  0  0  0  0  0  0  0  0  0  0  0
   -5.7410   -1.8101   -1.6370 H   0  0  0  0  0  0  0  0  0  0  0  0
   -2.0324   -0.7274   -1.2201 H   0  0  0  0  0  0  0  0  0  0  0  0
   -1.9320    1.0370   -1.3200 H   0  0  0  0  0  0  0  0  0  0  0  0
    0.3311    0.0436   -1.1059 H   0  0  0  0  0  0  0  0  0  0  0  0
   -0.1437   -0.7888    0.3870 H   0  0  0  0  0  0  0  0  0  0  0  0
    2.0892   -0.0739    0.3690 H   0  0  0  0  0  0  0  0  0  0  0  0
    6.2645    0.8747    0.5646 H   0  0  0  0  0  0  0  0  0  0  0  0
    7.7185   -1.1478    0.6211 H   0  0  0  0  0  0  0  0  0  0  0  0
    3.0279   -1.5493   -0.9903 H   0  0  0  0  0  0  0  0  0  0  0  0
   -1.3251    2.7664    0.6756 H   0  0  0  0  0  0  0  0  0  0  0  0
   -0.6074    2.3869    2.2562 H   0  0  0  0  0  0  0  0  0  0  0  0
   -1.8470    0.2441    2.3509 H   0  0  0  0  0  0  0  0  0  0  0  0
   -2.9678    1.5966    2.1396 H   0  0  0  0  0  0  0  0  0  0  0  0
  1  2  1  0
  2  3  1  0
  3  4  1  0
  4  5  2  0
  4  6  1  0
  6  7  1  0
  7  8  1  0
  8  9  1  0
  9 10  1  0
 10 11  2  0
 10 12  1  0
 12 13  1  0
 13 14  2  0
 13 15  1  0
 15 16  2  0
 16 17  1  0
 17 18  2  0
 18 19  1  0
 18 20  1  0
 20 21  1  0
 20 22  2  0
  9 23  1  0
 23 24  1  0
 24  6  1  0
 22 15  1  0
  1 25  1  0
  1 26  1  0
  1 27  1  0
  2 28  1  0
  2 29  1  0
  7 30  1  0
  7 31  1  0
  8 32  1  0
  8 33  1  0
 12 34  1  0
 16 35  1  0
 17 36  1  0
 22 37  1  0
 23 38  1  0
 23 39  1  0
 24 40  1  0
 24 41  1  0
M  END
$$$$
