
     RDKit          3D

 35 36  0  0  0  0  0  0  0  0999 V2000
   -6.5526    0.3709    2.1586 C   0  0  0  0  0  0  0  0  0  0  0  0
   -5.2884    0.5416    1.3355 C   0  0  0  0  0  0  0  0  0  0  0  0
   -4.1852    0.0980    2.1250 O   0  0  0  0  0  0  0  0  0  0  0  0
   -2.9484    0.1199    1.5466 C   0  0  0  0  0  0  0  0  0  0  0  0
   -1.9299   -0.4247    2.3244 C   0  0  0  0  0  0  0  0  0  0  0  0
   -0.6085   -0.4700    1.8611 C   0  0  0  0  0  0  0  0  0  0  0  0
   -0.2635    0.0326    0.6018 C   0  0  0  0  0  0  0  0  0  0  0  0
    1.0738   -0.0109    0.1283 N   0  0  0  0  0  0  0  0  0  0  0  0
    2.1924   -0.5703    0.7286 C   0  0  0  0  0  0  0  0  0  0  0  0
    2.2209   -1.1460    1.8125 O   0  0  0  0  0  0  0  0  0  0  0  0
    3.4597   -0.3771   -0.0873 C   0  0  0  0  0  0  0  0  0  0  0  0
    3.3792   -1.3881   -1.5885 S   0  0  0  0  0  0  0  0  0  0  0  0
    4.8945   -0.9507   -2.3185 C   0  0  0  0  0  0  0  0  0  0  0  0
    5.7313    0.0113   -1.8202 N   0  0  0  0  0  0  0  0  0  0  0  0
    6.7277    0.0073   -2.6746 C   0  0  0  0  0  0  0  0  0  0  0  0
    6.4904   -0.9162   -3.6426 N   0  0  0  0  0  0  0  0  0  0  0  0
    5.3212   -1.5400   -3.4386 N   0  0  0  0  0  0  0  0  0  0  0  0
   -1.3050    0.5900   -0.1783 C   0  0  0  0  0  0  0  0  0  0  0  0
   -1.0525    1.1532   -1.5161 N   0  0  0  0  0  4  0  0  0  0  0  0
   -2.0325    1.4334   -2.2218 O   0  0  0  0  0  0  0  0  0  0  0  0
    0.1255    1.3251   -1.8669 O   0  0  0  0  0  1  0  0  0  0  0  0
   -2.6363    0.6319    0.2923 C   0  0  0  0  0  0  0  0  0  0  0  0
   -7.4325    0.6868    1.5914 H   0  0  0  0  0  0  0  0  0  0  0  0
   -6.6806   -0.6747    2.4574 H   0  0  0  0  0  0  0  0  0  0  0  0
   -6.4950    0.9606    3.0794 H   0  0  0  0  0  0  0  0  0  0  0  0
   -5.1691    1.6004    1.0789 H   0  0  0  0  0  0  0  0  0  0  0  0
   -5.3698   -0.0614    0.4241 H   0  0  0  0  0  0  0  0  0  0  0  0
   -2.1608   -0.8266    3.3098 H   0  0  0  0  0  0  0  0  0  0  0  0
    0.1278   -0.9114    2.5269 H   0  0  0  0  0  0  0  0  0  0  0  0
    1.2311    0.3892   -0.7992 H   0  0  0  0  0  0  0  0  0  0  0  0
    3.5615    0.6855   -0.3334 H   0  0  0  0  0  0  0  0  0  0  0  0
    4.3179   -0.6763    0.5237 H   0  0  0  0  0  0  0  0  0  0  0  0
    7.6127    0.6266   -2.6451 H   0  0  0  0  0  0  0  0  0  0  0  0
    7.0549   -1.1664   -4.4468 H   0  0  0  0  0  0  0  0  0  0  0  0
   -3.4118    1.0718   -0.3282 H   0  0  0  0  0  0  0  0  0  0  0  0
  1  2  1  0
  2  3  1  0
  3  4  1  0
  4  5  2  0
  5  6  1  0
  6  7  2  0
  7  8  1  0
  8  9  1  0
  9 10  2  0
  9 11  1  0
 11 12  1  0
 12 13  1  0
 13 14  1  0
 14 15  2  0
 15 16  1  0
 16 17  1  0
  7 18  1  0
 18 19  1  0
 19 20  2  0
 19 21  1  0
 18 22  2  0
 22  4  1  0
 17 13  2  0
  1 23  1  0
  1 24  1  0
  1 25  1  0
  2 26  1  0
  2 27  1  0
  5 28  1  0
  6 29  1  0
  8 30  1  0
 11 31  1  0
 11 32  1  0
 15 33  1  0
 16 34  1  0
 22 35  1  0
M  CHG  2  19   1  21  -1
M  END
$$$$
