
     RDKit          3D

 43 44  0  0  0  0  0  0  0  0999 V2000
   -4.6617    3.7583    0.0252 C   0  0  0  0  0  0  0  0  0  0  0  0
   -4.9043    2.2618    0.0133 C   0  0  0  0  0  0  0  0  0  0  0  0
   -3.6355    1.6036   -0.0476 O   0  0  0  0  0  0  0  0  0  0  0  0
   -3.7023    0.2381   -0.0799 C   0  0  0  0  0  0  0  0  0  0  0  0
   -4.7543   -0.3912   -0.0420 O   0  0  0  0  0  0  0  0  0  0  0  0
   -2.3809   -0.4065   -0.1673 C   0  0  0  0  0  0  0  0  0  0  0  0
   -1.2624    0.3138   -0.3350 N   0  0  0  0  0  0  0  0  0  0  0  0
   -0.2377   -0.5715   -0.3916 N   0  0  0  0  0  0  0  0  0  0  0  0
    1.0991   -0.0587   -0.4058 C   0  0  0  0  0  0  0  0  0  0  0  0
    1.2977    1.3065   -0.6700 C   0  0  0  0  0  0  0  0  0  0  0  0
    2.5862    1.8503   -0.6867 C   0  0  0  0  0  0  0  0  0  0  0  0
    3.7012    1.0518   -0.4351 C   0  0  0  0  0  0  0  0  0  0  0  0
    4.8954    1.7123   -0.4791 O   0  0  0  0  0  0  0  0  0  0  0  0
    6.1035    0.9565   -0.4146 C   0  0  0  0  0  0  0  0  0  0  0  0
    6.5697    0.8097    1.0234 C   0  0  0  0  0  0  0  0  0  0  0  0
    3.5097   -0.2964   -0.1434 C   0  0  0  0  0  0  0  0  0  0  0  0
    2.2183   -0.8483   -0.1233 C   0  0  0  0  0  0  0  0  0  0  0  0
   -0.7167   -1.8766   -0.4147 C   0  0  0  0  0  0  0  0  0  0  0  0
    0.1047   -3.0872   -0.6934 C   0  0  0  0  0  0  0  0  0  0  0  0
   -2.0841   -1.7968   -0.1569 C   0  0  0  0  0  0  0  0  0  0  0  0
   -2.9876   -2.9326    0.0128 C   0  0  0  0  0  0  0  0  0  0  0  0
   -3.9887   -2.9164    1.1407 C   0  0  0  0  0  0  0  0  0  0  0  0
   -2.9070   -3.9236   -0.7131 O   0  0  0  0  0  0  0  0  0  0  0  0
   -4.1112    4.0666   -0.8700 H   0  0  0  0  0  0  0  0  0  0  0  0
   -4.0510    4.0436    0.8884 H   0  0  0  0  0  0  0  0  0  0  0  0
   -5.6072    4.3066    0.0645 H   0  0  0  0  0  0  0  0  0  0  0  0
   -5.5038    1.9924   -0.8633 H   0  0  0  0  0  0  0  0  0  0  0  0
   -5.4315    1.9650    0.9268 H   0  0  0  0  0  0  0  0  0  0  0  0
    0.4579    1.9680   -0.8776 H   0  0  0  0  0  0  0  0  0  0  0  0
    2.7175    2.9090   -0.8994 H   0  0  0  0  0  0  0  0  0  0  0  0
    6.0264   -0.0075   -0.9299 H   0  0  0  0  0  0  0  0  0  0  0  0
    6.8574    1.5308   -0.9653 H   0  0  0  0  0  0  0  0  0  0  0  0
    7.5319    0.2914    1.0664 H   0  0  0  0  0  0  0  0  0  0  0  0
    5.8459    0.2508    1.6240 H   0  0  0  0  0  0  0  0  0  0  0  0
    6.6786    1.7930    1.4935 H   0  0  0  0  0  0  0  0  0  0  0  0
    4.3413   -0.9506    0.0972 H   0  0  0  0  0  0  0  0  0  0  0  0
    2.1392   -1.8888    0.1649 H   0  0  0  0  0  0  0  0  0  0  0  0
   -0.4994   -3.9005   -1.1037 H   0  0  0  0  0  0  0  0  0  0  0  0
    0.8758   -2.8862   -1.4430 H   0  0  0  0  0  0  0  0  0  0  0  0
    0.5687   -3.4582    0.2256 H   0  0  0  0  0  0  0  0  0  0  0  0
   -3.8011   -2.0924    1.8340 H   0  0  0  0  0  0  0  0  0  0  0  0
   -3.8976   -3.8503    1.7040 H   0  0  0  0  0  0  0  0  0  0  0  0
   -5.0000   -2.8401    0.7346 H   0  0  0  0  0  0  0  0  0  0  0  0
  1  2  1  0
  2  3  1  0
  3  4  1  0
  4  5  2  0
  4  6  1  0
  6  7  2  0
  7  8  1  0
  8  9  1  0
  9 10  2  0
 10 11  1  0
 11 12  2  0
 12 13  1  0
 13 14  1  0
 14 15  1  0
 12 16  1  0
 16 17  2  0
  8 18  1  0
 18 19  1  0
 18 20  2  0
 20 21  1  0
 21 22  1  0
 21 23  2  0
 20  6  1  0
 17  9  1  0
  1 24  1  0
  1 25  1  0
  1 26  1  0
  2 27  1  0
  2 28  1  0
 10 29  1  0
 11 30  1  0
 14 31  1  0
 14 32  1  0
 15 33  1  0
 15 34  1  0
 15 35  1  0
 16 36  1  0
 17 37  1  0
 19 38  1  0
 19 39  1  0
 19 40  1  0
 22 41  1  0
 22 42  1  0
 22 43  1  0
M  END
$$$$
