
     RDKit          3D

 48 51  0  0  0  0  0  0  0  0999 V2000
    3.7973    0.8935   -2.4804 C   0  0  0  0  0  0  0  0  0  0  0  0
    4.3544    1.1342   -1.0763 C   0  0  0  0  0  0  0  0  0  0  0  0
    5.4773    0.1385   -0.7813 C   0  0  0  0  0  0  0  0  0  0  0  0
    3.2456    1.0551   -0.0180 C   0  0  0  0  0  0  0  0  0  0  0  0
    2.6655   -0.2539   -0.0168 O   0  0  0  0  0  0  0  0  0  0  0  0
    1.6012   -0.3856    0.8163 C   0  0  0  0  0  0  0  0  0  0  0  0
    1.1562    0.4679    1.5655 O   0  0  0  0  0  0  0  0  0  0  0  0
    1.0708   -1.7650    0.7021 C   0  0  0  0  0  0  0  0  0  0  0  0
    1.9918   -2.8213    0.8307 C   0  0  0  0  0  0  0  0  0  0  0  0
    1.5499   -4.1415    0.9168 C   0  0  0  0  0  0  0  0  0  0  0  0
    0.1858   -4.4172    0.8955 C   0  0  0  0  0  0  0  0  0  0  0  0
   -0.7386   -3.3776    0.7678 C   0  0  0  0  0  0  0  0  0  0  0  0
   -0.3052   -2.0455    0.6506 C   0  0  0  0  0  0  0  0  0  0  0  0
   -1.2815   -1.0279    0.4317 N   0  0  0  0  0  0  0  0  0  0  0  0
   -2.5478   -0.9510    1.0519 C   0  0  0  0  0  0  0  0  0  0  0  0
   -2.9575   -1.8207    1.9711 O   0  0  0  0  0  0  0  0  0  0  0  0
   -3.1546    0.1707    0.5682 C   0  0  0  0  0  0  0  0  0  0  0  0
   -2.3108    0.7734   -0.3810 C   0  0  0  0  0  0  0  0  0  0  0  0
   -1.1801    0.0221   -0.5059 C   0  0  0  0  0  0  0  0  0  0  0  0
   -0.1581    0.1395   -1.3487 O   0  0  0  0  0  0  0  0  0  0  0  0
   -3.0212    1.9818   -0.9034 C   0  0  0  0  0  0  0  0  0  0  0  0
   -3.0776    3.0281    0.2397 C   0  0  0  0  0  0  0  0  0  0  0  0
   -4.0120    2.3614    1.3021 C   0  0  0  0  0  0  0  0  0  0  0  0
   -4.3934    1.0055    0.6532 C   0  0  0  0  0  0  0  0  0  0  0  0
   -4.4960    1.4649   -0.8386 C   0  0  0  0  0  0  0  0  0  0  0  0
    4.5820    1.0202   -3.2339 H   0  0  0  0  0  0  0  0  0  0  0  0
    3.3901   -0.1176   -2.5871 H   0  0  0  0  0  0  0  0  0  0  0  0
    2.9979    1.6067   -2.7078 H   0  0  0  0  0  0  0  0  0  0  0  0
    4.7778    2.1459   -1.0454 H   0  0  0  0  0  0  0  0  0  0  0  0
    5.8910    0.3058    0.2187 H   0  0  0  0  0  0  0  0  0  0  0  0
    6.2933    0.2522   -1.5030 H   0  0  0  0  0  0  0  0  0  0  0  0
    5.1252   -0.8972   -0.8343 H   0  0  0  0  0  0  0  0  0  0  0  0
    2.4727    1.8015   -0.2405 H   0  0  0  0  0  0  0  0  0  0  0  0
    3.6642    1.2635    0.9740 H   0  0  0  0  0  0  0  0  0  0  0  0
    3.0580   -2.6145    0.8947 H   0  0  0  0  0  0  0  0  0  0  0  0
    2.2681   -4.9509    1.0197 H   0  0  0  0  0  0  0  0  0  0  0  0
   -0.1637   -5.4440    0.9713 H   0  0  0  0  0  0  0  0  0  0  0  0
   -1.7961   -3.6285    0.7214 H   0  0  0  0  0  0  0  0  0  0  0  0
   -3.8108   -1.4954    2.3069 H   0  0  0  0  0  0  0  0  0  0  0  0
   -0.3143    0.9465   -1.8691 H   0  0  0  0  0  0  0  0  0  0  0  0
   -2.6893    2.3507   -1.8735 H   0  0  0  0  0  0  0  0  0  0  0  0
   -2.0893    3.2456    0.6594 H   0  0  0  0  0  0  0  0  0  0  0  0
   -3.5224    3.9665   -0.1100 H   0  0  0  0  0  0  0  0  0  0  0  0
   -4.9000    2.9839    1.4586 H   0  0  0  0  0  0  0  0  0  0  0  0
   -3.4989    2.2379    2.2620 H   0  0  0  0  0  0  0  0  0  0  0  0
   -5.2760    0.5122    1.0594 H   0  0  0  0  0  0  0  0  0  0  0  0
   -5.2413    2.2508   -1.0027 H   0  0  0  0  0  0  0  0  0  0  0  0
   -4.6798    0.6289   -1.5250 H   0  0  0  0  0  0  0  0  0  0  0  0
  1  2  1  0
  2  3  1  0
  2  4  1  0
  4  5  1  0
  5  6  1  0
  6  7  2  0
  6  8  1  0
  8  9  2  0
  9 10  1  0
 10 11  2  0
 11 12  1  0
 12 13  2  0
 13 14  1  0
 14 15  1  0
 15 16  1  0
 15 17  2  0
 17 18  1  0
 18 19  2  0
 19 20  1  0
 18 21  1  0
 21 22  1  0
 22 23  1  0
 23 24  1  0
 24 25  1  0
 13  8  1  0
 19 14  1  0
 25 21  1  0
 24 17  1  0
  1 26  1  0
  1 27  1  0
  1 28  1  0
  2 29  1  0
  3 30  1  0
  3 31  1  0
  3 32  1  0
  4 33  1  0
  4 34  1  0
  9 35  1  0
 10 36  1  0
 11 37  1  0
 12 38  1  0
 16 39  1  0
 20 40  1  0
 21 41  1  0
 22 42  1  0
 22 43  1  0
 23 44  1  0
 23 45  1  0
 24 46  1  0
 25 47  1  0
 25 48  1  0
M  END
$$$$
