
     RDKit          3D

 43 46  0  0  0  0  0  0  0  0999 V2000
    2.0168    2.1685    2.6652 C   0  0  0  0  0  0  0  0  0  0  0  0
    3.1299    1.3023    2.4903 O   0  0  0  0  0  0  0  0  0  0  0  0
    2.8253    0.1599    1.7792 C   0  0  0  0  0  0  0  0  0  0  0  0
    1.5992   -0.0051    1.2925 N   0  0  0  0  0  0  0  0  0  0  0  0
    1.4025   -1.1239    0.6155 C   0  0  0  0  0  0  0  0  0  0  0  0
    0.1725   -1.4208    0.0632 N   0  0  0  0  0  0  0  0  0  0  0  0
   -0.7584   -0.3893   -0.3951 C   0  0  0  0  0  0  0  0  0  0  0  0
   -1.8924   -1.1202   -1.1726 C   0  0  0  0  0  0  0  0  0  0  0  0
   -2.9357   -0.1213   -1.6977 C   0  0  0  0  0  0  0  0  0  0  0  0
   -3.5521    0.6330   -0.5101 C   0  0  0  0  0  0  0  0  0  0  0  0
   -2.4533    1.3787    0.2622 C   0  0  0  0  0  0  0  0  0  0  0  0
   -1.7552    2.3745   -0.6807 C   0  0  0  0  0  0  0  0  0  0  0  0
   -1.1379    1.6305   -1.8780 C   0  0  0  0  0  0  0  0  0  0  0  0
   -2.2456    0.8815   -2.6352 C   0  0  0  0  0  0  0  0  0  0  0  0
   -0.0974    0.6183   -1.3653 C   0  0  0  0  0  0  0  0  0  0  0  0
   -1.4188    0.3645    0.7838 C   0  0  0  0  0  0  0  0  0  0  0  0
    2.3382   -2.0398    0.4137 N   0  0  0  0  0  0  0  0  0  0  0  0
    3.5247   -1.7669    0.9520 C   0  0  0  0  0  0  0  0  0  0  0  0
    4.5671   -2.6570    0.7954 O   0  0  0  0  0  0  0  0  0  0  0  0
    4.1902   -3.8549    0.1308 C   0  0  0  0  0  0  0  0  0  0  0  0
    3.8347   -0.6815    1.6394 N   0  0  0  0  0  0  0  0  0  0  0  0
    1.6463    2.5406    1.7034 H   0  0  0  0  0  0  0  0  0  0  0  0
    1.2167    1.6797    3.2321 H   0  0  0  0  0  0  0  0  0  0  0  0
    2.3541    3.0323    3.2464 H   0  0  0  0  0  0  0  0  0  0  0  0
    0.3311   -2.1799   -0.5915 H   0  0  0  0  0  0  0  0  0  0  0  0
   -1.4707   -1.6859   -2.0146 H   0  0  0  0  0  0  0  0  0  0  0  0
   -2.3810   -1.8589   -0.5228 H   0  0  0  0  0  0  0  0  0  0  0  0
   -3.7206   -0.6574   -2.2428 H   0  0  0  0  0  0  0  0  0  0  0  0
   -4.3075    1.3433   -0.8678 H   0  0  0  0  0  0  0  0  0  0  0  0
   -4.0666   -0.0708    0.1555 H   0  0  0  0  0  0  0  0  0  0  0  0
   -2.8976    1.9184    1.1060 H   0  0  0  0  0  0  0  0  0  0  0  0
   -2.4772    3.1196   -1.0368 H   0  0  0  0  0  0  0  0  0  0  0  0
   -0.9751    2.9215   -0.1370 H   0  0  0  0  0  0  0  0  0  0  0  0
   -0.6533    2.3485   -2.5491 H   0  0  0  0  0  0  0  0  0  0  0  0
   -1.8200    0.3560   -3.4990 H   0  0  0  0  0  0  0  0  0  0  0  0
   -2.9805    1.5952   -3.0273 H   0  0  0  0  0  0  0  0  0  0  0  0
    0.3584    0.0887   -2.2122 H   0  0  0  0  0  0  0  0  0  0  0  0
    0.7137    1.1682   -0.8738 H   0  0  0  0  0  0  0  0  0  0  0  0
   -0.6778    0.9058    1.3806 H   0  0  0  0  0  0  0  0  0  0  0  0
   -1.9022   -0.3464    1.4667 H   0  0  0  0  0  0  0  0  0  0  0  0
    3.4141   -4.3927    0.6868 H   0  0  0  0  0  0  0  0  0  0  0  0
    5.0716   -4.5018    0.0829 H   0  0  0  0  0  0  0  0  0  0  0  0
    3.8698   -3.6550   -0.8977 H   0  0  0  0  0  0  0  0  0  0  0  0
  1  2  1  0
  2  3  1  0
  3  4  2  0
  4  5  1  0
  5  6  1  0
  6  7  1  0
  7  8  1  0
  8  9  1  0
  9 10  1  0
 10 11  1  0
 11 12  1  0
 12 13  1  0
 13 14  1  0
 13 15  1  0
 11 16  1  0
  5 17  2  0
 17 18  1  0
 18 19  1  0
 19 20  1  0
 18 21  2  0
 21  3  1  0
 15  7  1  0
 16  7  1  0
 14  9  1  0
  1 22  1  0
  1 23  1  0
  1 24  1  0
  6 25  1  0
  8 26  1  0
  8 27  1  0
  9 28  1  0
 10 29  1  0
 10 30  1  0
 11 31  1  0
 12 32  1  0
 12 33  1  0
 13 34  1  0
 14 35  1  0
 14 36  1  0
 15 37  1  0
 15 38  1  0
 16 39  1  0
 16 40  1  0
 20 41  1  0
 20 42  1  0
 20 43  1  0
M  END
$$$$
