
     RDKit          3D

 58 60  0  0  0  0  0  0  0  0999 V2000
   -5.1992    3.4653    0.6882 C   0  0  0  0  0  0  0  0  0  0  0  0
   -5.7454    2.2476    0.1965 O   0  0  0  0  0  0  0  0  0  0  0  0
   -5.0149    1.0998    0.3671 C   0  0  0  0  0  0  0  0  0  0  0  0
   -3.6849    1.0698    0.8081 C   0  0  0  0  0  0  0  0  0  0  0  0
   -3.0141   -0.1493    0.9445 C   0  0  0  0  0  0  0  0  0  0  0  0
   -1.7158   -0.2993    1.3655 O   0  0  0  0  0  0  0  0  0  0  0  0
   -0.9500    0.8830    1.5756 C   0  0  0  0  0  0  0  0  0  0  0  0
   -3.6820   -1.3477    0.6331 C   0  0  0  0  0  0  0  0  0  0  0  0
   -2.9592   -2.5814    0.7304 N   0  0  0  0  0  0  0  0  0  0  0  0
   -2.6032   -3.4150   -0.6985 S   0  0  0  0  0  6  0  0  0  0  0  0
   -1.5480   -4.3556   -0.3912 O   0  0  0  0  0  0  0  0  0  0  0  0
   -3.8416   -3.8467   -1.3111 O   0  0  0  0  0  0  0  0  0  0  0  0
   -1.8944   -2.1578   -1.7413 C   0  0  0  0  0  0  0  0  0  0  0  0
   -2.6022   -1.6844   -2.8495 C   0  0  0  0  0  0  0  0  0  0  0  0
   -2.0528   -0.6675   -3.6345 C   0  0  0  0  0  0  0  0  0  0  0  0
   -0.8052   -0.1210   -3.3122 C   0  0  0  0  0  0  0  0  0  0  0  0
   -0.1843    1.1221   -4.3347 Cl  0  0  0  0  0  0  0  0  0  0  0  0
   -0.1001   -0.6113   -2.2083 C   0  0  0  0  0  0  0  0  0  0  0  0
    1.1782   -0.0171   -1.7872 C   0  0  0  0  0  0  0  0  0  0  0  0
    1.3383    1.1595   -1.5165 O   0  0  0  0  0  0  0  0  0  0  0  0
    2.1030   -1.0044   -1.7228 O   0  0  0  0  0  0  0  0  0  0  0  0
    3.3397   -0.6053   -1.1137 C   0  0  0  0  0  0  0  0  0  0  0  0
    4.3285   -1.7425   -1.3337 C   0  0  0  0  0  0  0  0  0  0  0  0
    3.1540   -0.3648    0.4008 C   0  0  0  0  0  0  0  0  0  0  0  0
    2.1834   -0.8333    1.0050 O   0  0  0  0  0  0  0  0  0  0  0  0
    4.1176    0.3718    1.0576 N   0  0  0  0  0  0  0  0  0  0  0  0
    4.0275    0.6090    2.4877 C   0  0  0  0  0  0  0  0  0  0  0  0
    5.3584    1.2513    2.8466 C   0  0  0  0  0  0  0  0  0  0  0  0
    5.7001    2.0375    1.5879 C   0  0  0  0  0  0  0  0  0  0  0  0
    5.2151    1.1247    0.4679 C   0  0  0  0  0  0  0  0  0  0  0  0
   -0.6354   -1.6434   -1.4251 C   0  0  0  0  0  0  0  0  0  0  0  0
   -5.0003   -1.3307    0.1893 C   0  0  0  0  0  0  0  0  0  0  0  0
   -5.6614   -0.1098    0.0551 C   0  0  0  0  0  0  0  0  0  0  0  0
   -7.2976   -0.1354   -0.5067 Cl  0  0  0  0  0  0  0  0  0  0  0  0
   -4.9644    3.3931    1.7550 H   0  0  0  0  0  0  0  0  0  0  0  0
   -4.3202    3.7615    0.1063 H   0  0  0  0  0  0  0  0  0  0  0  0
   -5.9562    4.2456    0.5662 H   0  0  0  0  0  0  0  0  0  0  0  0
   -3.1710    1.9949    1.0367 H   0  0  0  0  0  0  0  0  0  0  0  0
   -0.8651    1.4649    0.6520 H   0  0  0  0  0  0  0  0  0  0  0  0
   -1.3698    1.4851    2.3871 H   0  0  0  0  0  0  0  0  0  0  0  0
    0.0570    0.5819    1.8780 H   0  0  0  0  0  0  0  0  0  0  0  0
   -2.1315   -2.5271    1.3307 H   0  0  0  0  0  0  0  0  0  0  0  0
   -3.5795   -2.0913   -3.1038 H   0  0  0  0  0  0  0  0  0  0  0  0
   -2.6081   -0.3012   -4.4960 H   0  0  0  0  0  0  0  0  0  0  0  0
    3.7064    0.2962   -1.6147 H   0  0  0  0  0  0  0  0  0  0  0  0
    5.3108   -1.5239   -0.9083 H   0  0  0  0  0  0  0  0  0  0  0  0
    3.9626   -2.6697   -0.8781 H   0  0  0  0  0  0  0  0  0  0  0  0
    4.4489   -1.9427   -2.4043 H   0  0  0  0  0  0  0  0  0  0  0  0
    3.1911    1.2956    2.6646 H   0  0  0  0  0  0  0  0  0  0  0  0
    3.8429   -0.3238    3.0295 H   0  0  0  0  0  0  0  0  0  0  0  0
    6.1168    0.4776    3.0170 H   0  0  0  0  0  0  0  0  0  0  0  0
    5.2972    1.8779    3.7408 H   0  0  0  0  0  0  0  0  0  0  0  0
    5.1358    2.9783    1.5747 H   0  0  0  0  0  0  0  0  0  0  0  0
    6.7651    2.2746    1.5065 H   0  0  0  0  0  0  0  0  0  0  0  0
    5.9955    0.4161    0.1726 H   0  0  0  0  0  0  0  0  0  0  0  0
    4.8860    1.6892   -0.4079 H   0  0  0  0  0  0  0  0  0  0  0  0
   -0.0888   -2.0117   -0.5574 H   0  0  0  0  0  0  0  0  0  0  0  0
   -5.5131   -2.2592   -0.0494 H   0  0  0  0  0  0  0  0  0  0  0  0
  1  2  1  0
  2  3  1  0
  3  4  2  0
  4  5  1  0
  5  6  1  0
  6  7  1  0
  5  8  2  0
  8  9  1  0
  9 10  1  0
 10 11  2  0
 10 12  2  0
 10 13  1  0
 13 14  2  0
 14 15  1  0
 15 16  2  0
 16 17  1  0
 16 18  1  0
 18 19  1  0
 19 20  2  0
 19 21  1  0
 21 22  1  0
 22 23  1  0
 22 24  1  0
 24 25  2  0
 24 26  1  0
 26 27  1  0
 27 28  1  0
 28 29  1  0
 29 30  1  0
 18 31  2  0
  8 32  1  0
 32 33  2  0
 33 34  1  0
 33  3  1  0
 31 13  1  0
 30 26  1  0
  1 35  1  0
  1 36  1  0
  1 37  1  0
  4 38  1  0
  7 39  1  0
  7 40  1  0
  7 41  1  0
  9 42  1  0
 14 43  1  0
 15 44  1  0
 22 45  1  0
 23 46  1  0
 23 47  1  0
 23 48  1  0
 27 49  1  0
 27 50  1  0
 28 51  1  0
 28 52  1  0
 29 53  1  0
 29 54  1  0
 30 55  1  0
 30 56  1  0
 31 57  1  0
 32 58  1  0
M  END
$$$$
