
     RDKit          3D

 56 60  0  0  0  0  0  0  0  0999 V2000
    2.4547   -1.5967   -3.8925 C   0  0  0  0  0  0  0  0  0  0  0  0
    2.2672   -0.8662   -2.5845 C   0  0  0  0  0  0  0  0  0  0  0  0
    0.9837   -0.4360   -2.1504 C   0  0  0  0  0  0  0  0  0  0  0  0
   -0.1619   -0.6541   -2.9369 C   0  0  0  0  0  0  0  0  0  0  0  0
   -1.4104   -0.2224   -2.5187 C   0  0  0  0  0  0  0  0  0  0  0  0
   -1.5454    0.4193   -1.3452 N   0  0  0  0  0  4  0  0  0  0  0  0
   -2.8872    0.8883   -0.9153 C   0  0  0  0  0  0  0  0  0  0  0  0
   -3.5526   -0.1948   -0.0502 C   0  0  0  0  0  0  0  0  0  0  0  0
   -4.9605    0.0994    0.2470 N   0  0  0  0  0  0  0  0  0  0  0  0
   -5.6837   -1.0920    0.7366 C   0  0  0  0  0  0  0  0  0  0  0  0
   -5.3091   -1.4995    2.1635 C   0  0  0  0  0  0  0  0  0  0  0  0
   -5.4886   -0.3373    3.1342 C   0  0  0  0  0  0  0  0  0  0  0  0
   -4.7795    0.9137    2.6269 C   0  0  0  0  0  0  0  0  0  0  0  0
   -5.1666    1.2236    1.1787 C   0  0  0  0  0  0  0  0  0  0  0  0
   -0.4708    0.6481   -0.5597 C   0  0  0  0  0  0  0  0  0  0  0  0
    0.8251    0.2272   -0.9096 C   0  0  0  0  0  0  0  0  0  0  0  0
    1.9530    0.4571   -0.0568 C   0  0  0  0  0  0  0  0  0  0  0  0
    1.7715    1.0846    1.3073 C   0  0  0  0  0  0  0  0  0  0  0  0
    3.2497    0.1093   -0.5319 C   0  0  0  0  0  0  0  0  0  0  0  0
    3.3607   -0.5530   -1.7538 C   0  0  0  0  0  0  0  0  0  0  0  0
    4.7016   -0.8175   -1.9442 N   0  0  0  0  0  0  0  0  0  0  0  0
    5.4668   -0.3087   -0.9293 C   0  0  0  0  0  0  0  0  0  0  0  0
    6.8578   -0.3374   -0.7585 C   0  0  0  0  0  0  0  0  0  0  0  0
    7.3890    0.2845    0.3731 C   0  0  0  0  0  0  0  0  0  0  0  0
    6.5473    0.9101    1.2806 C   0  0  0  0  0  0  0  0  0  0  0  0
    7.0399    1.5372    2.3887 O   0  0  0  0  0  0  0  0  0  0  0  0
    5.1628    0.9298    1.0995 C   0  0  0  0  0  0  0  0  0  0  0  0
    4.5938    0.2946   -0.0275 C   0  0  0  0  0  0  0  0  0  0  0  0
    3.4934   -1.8947   -4.0583 H   0  0  0  0  0  0  0  0  0  0  0  0
    1.8547   -2.5126   -3.9050 H   0  0  0  0  0  0  0  0  0  0  0  0
    2.1621   -0.9544   -4.7295 H   0  0  0  0  0  0  0  0  0  0  0  0
   -0.1006   -1.1619   -3.8974 H   0  0  0  0  0  0  0  0  0  0  0  0
   -2.3029   -0.3846   -3.1169 H   0  0  0  0  0  0  0  0  0  0  0  0
   -2.7493    1.8305   -0.3744 H   0  0  0  0  0  0  0  0  0  0  0  0
   -3.4720    1.1007   -1.8179 H   0  0  0  0  0  0  0  0  0  0  0  0
   -2.9630   -0.3588    0.8590 H   0  0  0  0  0  0  0  0  0  0  0  0
   -3.4999   -1.1347   -0.6154 H   0  0  0  0  0  0  0  0  0  0  0  0
   -6.7609   -0.8831    0.6950 H   0  0  0  0  0  0  0  0  0  0  0  0
   -5.5262   -1.9373    0.0555 H   0  0  0  0  0  0  0  0  0  0  0  0
   -4.2706   -1.8500    2.1956 H   0  0  0  0  0  0  0  0  0  0  0  0
   -5.9353   -2.3411    2.4811 H   0  0  0  0  0  0  0  0  0  0  0  0
   -6.5586   -0.1249    3.2508 H   0  0  0  0  0  0  0  0  0  0  0  0
   -5.1073   -0.6110    4.1241 H   0  0  0  0  0  0  0  0  0  0  0  0
   -5.0407    1.7652    3.2659 H   0  0  0  0  0  0  0  0  0  0  0  0
   -3.6943    0.7821    2.7090 H   0  0  0  0  0  0  0  0  0  0  0  0
   -4.6295    2.1148    0.8366 H   0  0  0  0  0  0  0  0  0  0  0  0
   -6.2283    1.5023    1.1481 H   0  0  0  0  0  0  0  0  0  0  0  0
   -0.6780    1.1890    0.3573 H   0  0  0  0  0  0  0  0  0  0  0  0
    2.5521    0.7637    1.9992 H   0  0  0  0  0  0  0  0  0  0  0  0
    0.8402    0.7627    1.7826 H   0  0  0  0  0  0  0  0  0  0  0  0
    1.7821    2.1753    1.2255 H   0  0  0  0  0  0  0  0  0  0  0  0
    5.0867   -1.3006   -2.7422 H   0  0  0  0  0  0  0  0  0  0  0  0
    7.5093   -0.8211   -1.4802 H   0  0  0  0  0  0  0  0  0  0  0  0
    8.4649    0.2741    0.5222 H   0  0  0  0  0  0  0  0  0  0  0  0
    8.0078    1.4489    2.3944 H   0  0  0  0  0  0  0  0  0  0  0  0
    4.5556    1.4503    1.8307 H   0  0  0  0  0  0  0  0  0  0  0  0
  1  2  1  0
  2  3  2  0
  3  4  1  0
  4  5  2  0
  5  6  1  0
  6  7  1  0
  7  8  1  0
  8  9  1  0
  9 10  1  0
 10 11  1  0
 11 12  1  0
 12 13  1  0
 13 14  1  0
  6 15  2  0
 15 16  1  0
 16 17  2  0
 17 18  1  0
 17 19  1  0
 19 20  2  0
 20 21  1  0
 21 22  1  0
 22 23  2  0
 23 24  1  0
 24 25  2  0
 25 26  1  0
 25 27  1  0
 27 28  2  0
 20  2  1  0
 28 22  1  0
 16  3  1  0
 28 19  1  0
 14  9  1  0
  1 29  1  0
  1 30  1  0
  1 31  1  0
  4 32  1  0
  5 33  1  0
  7 34  1  0
  7 35  1  0
  8 36  1  0
  8 37  1  0
 10 38  1  0
 10 39  1  0
 11 40  1  0
 11 41  1  0
 12 42  1  0
 12 43  1  0
 13 44  1  0
 13 45  1  0
 14 46  1  0
 14 47  1  0
 15 48  1  0
 18 49  1  0
 18 50  1  0
 18 51  1  0
 21 52  1  0
 23 53  1  0
 24 54  1  0
 26 55  1  0
 27 56  1  0
M  CHG  1   6   1
M  END
$$$$
