
     RDKit          3D

 35 36  0  0  0  0  0  0  0  0999 V2000
   -5.8203   -0.5556    1.8801 C   0  0  0  0  0  0  0  0  0  0  0  0
   -4.6325   -0.5307    0.9351 C   0  0  0  0  0  0  0  0  0  0  0  0
   -3.5899    0.2189    1.5584 O   0  0  0  0  0  0  0  0  0  0  0  0
   -2.4244    0.3664    0.8623 C   0  0  0  0  0  0  0  0  0  0  0  0
   -2.1480   -0.1536   -0.3974 C   0  0  0  0  0  0  0  0  0  0  0  0
   -0.9039    0.0734   -1.0074 C   0  0  0  0  0  0  0  0  0  0  0  0
    0.0961    0.8260   -0.3792 C   0  0  0  0  0  0  0  0  0  0  0  0
    1.3550    1.0529   -0.9933 N   0  0  0  0  0  0  0  0  0  0  0  0
    1.8287    0.5844   -2.2082 C   0  0  0  0  0  0  0  0  0  0  0  0
    1.1830   -0.0823   -3.0145 O   0  0  0  0  0  0  0  0  0  0  0  0
    3.2389    1.0514   -2.5570 C   0  0  0  0  0  0  0  0  0  0  0  0
    4.3525    1.1175   -1.1268 S   0  0  0  0  0  0  0  0  0  0  0  0
    4.3324   -0.5550   -0.6517 C   0  0  0  0  0  0  0  0  0  0  0  0
    4.1139   -1.5852   -1.5208 N   0  0  0  0  0  0  0  0  0  0  0  0
    4.1673   -2.6427   -0.7457 C   0  0  0  0  0  0  0  0  0  0  0  0
    4.4044   -2.2533    0.5341 N   0  0  0  0  0  0  0  0  0  0  0  0
    4.5014   -0.9178    0.6217 N   0  0  0  0  0  0  0  0  0  0  0  0
   -0.2006    1.3439    0.9008 C   0  0  0  0  0  0  0  0  0  0  0  0
    0.7751    2.1384    1.6542 N   0  0  0  0  0  4  0  0  0  0  0  0
    1.6582    2.7297    1.0142 O   0  0  0  0  0  0  0  0  0  0  0  0
    0.6605    2.1767    2.8874 O   0  0  0  0  0  1  0  0  0  0  0  0
   -1.4471    1.1155    1.5126 C   0  0  0  0  0  0  0  0  0  0  0  0
   -5.5425   -1.0108    2.8366 H   0  0  0  0  0  0  0  0  0  0  0  0
   -6.1606    0.4621    2.0984 H   0  0  0  0  0  0  0  0  0  0  0  0
   -6.6508   -1.1207    1.4479 H   0  0  0  0  0  0  0  0  0  0  0  0
   -4.3017   -1.5590    0.7486 H   0  0  0  0  0  0  0  0  0  0  0  0
   -4.9330   -0.0547   -0.0054 H   0  0  0  0  0  0  0  0  0  0  0  0
   -2.8754   -0.7451   -0.9458 H   0  0  0  0  0  0  0  0  0  0  0  0
   -0.7577   -0.3624   -1.9917 H   0  0  0  0  0  0  0  0  0  0  0  0
    2.0166    1.6286   -0.4661 H   0  0  0  0  0  0  0  0  0  0  0  0
    3.6598    0.3861   -3.3177 H   0  0  0  0  0  0  0  0  0  0  0  0
    3.1626    2.0543   -2.9889 H   0  0  0  0  0  0  0  0  0  0  0  0
    4.0467   -3.6743   -1.0441 H   0  0  0  0  0  0  0  0  0  0  0  0
    4.5055   -2.8175    1.3706 H   0  0  0  0  0  0  0  0  0  0  0  0
   -1.6705    1.5198    2.4989 H   0  0  0  0  0  0  0  0  0  0  0  0
  1  2  1  0
  2  3  1  0
  3  4  1  0
  4  5  2  0
  5  6  1  0
  6  7  2  0
  7  8  1  0
  8  9  1  0
  9 10  2  0
  9 11  1  0
 11 12  1  0
 12 13  1  0
 13 14  1  0
 14 15  2  0
 15 16  1  0
 16 17  1  0
  7 18  1  0
 18 19  1  0
 19 20  2  0
 19 21  1  0
 18 22  2  0
 22  4  1  0
 17 13  2  0
  1 23  1  0
  1 24  1  0
  1 25  1  0
  2 26  1  0
  2 27  1  0
  5 28  1  0
  6 29  1  0
  8 30  1  0
 11 31  1  0
 11 32  1  0
 15 33  1  0
 16 34  1  0
 22 35  1  0
M  CHG  2  19   1  21  -1
M  END
$$$$
