
     RDKit          3D

 55 58  0  0  0  0  0  0  0  0999 V2000
   -7.8315   -1.5342    1.1451 C   0  0  0  0  0  0  0  0  0  0  0  0
   -6.5206   -2.2829    0.9393 C   0  0  0  0  0  0  0  0  0  0  0  0
   -6.0079   -2.8475    2.2594 C   0  0  0  0  0  0  0  0  0  0  0  0
   -5.5688   -1.3348    0.4208 O   0  0  0  0  0  0  0  0  0  0  0  0
   -4.5438   -1.8502   -0.3036 C   0  0  0  0  0  0  0  0  0  0  0  0
   -4.3661   -3.0312   -0.5575 O   0  0  0  0  0  0  0  0  0  0  0  0
   -3.6329   -0.7657   -0.7618 C   0  0  0  0  0  0  0  0  0  0  0  0
   -3.8362    0.5792   -0.4268 C   0  0  0  0  0  0  0  0  0  0  0  0
   -2.9427    1.5579   -0.8720 C   0  0  0  0  0  0  0  0  0  0  0  0
   -1.8395    1.2093   -1.6633 C   0  0  0  0  0  0  0  0  0  0  0  0
   -0.8552    2.2629   -2.1034 C   0  0  0  0  0  0  0  0  0  0  0  0
    0.2548    2.2689   -1.1975 O   0  0  0  0  0  0  0  0  0  0  0  0
    0.1947    3.1850   -0.2016 C   0  0  0  0  0  0  0  0  0  0  0  0
   -0.6734    4.0296   -0.0498 O   0  0  0  0  0  0  0  0  0  0  0  0
    1.3522    3.0261    0.7214 C   0  0  0  0  0  0  0  0  0  0  0  0
    1.4739    3.9276    1.7867 C   0  0  0  0  0  0  0  0  0  0  0  0
    2.5341    3.8149    2.6845 C   0  0  0  0  0  0  0  0  0  0  0  0
    3.4783    2.7999    2.5220 C   0  0  0  0  0  0  0  0  0  0  0  0
    3.3786    1.8841    1.4623 C   0  0  0  0  0  0  0  0  0  0  0  0
    4.3834    0.8379    1.3199 C   0  0  0  0  0  0  0  0  0  0  0  0
    5.4301    0.5608    2.0707 N   0  0  0  0  0  0  0  0  0  0  0  0
    6.0565   -0.5218    1.4866 N   0  0  0  0  0  0  0  0  0  0  0  0
    5.3495   -0.8335    0.4188 C   0  0  0  0  0  0  0  0  0  0  0  0
    5.5539   -1.8889   -0.5666 C   0  0  0  0  0  0  0  0  0  0  0  0
    6.6658   -2.7382   -0.4531 C   0  0  0  0  0  0  0  0  0  0  0  0
    6.8866   -3.7581   -1.3835 C   0  0  0  0  0  0  0  0  0  0  0  0
    5.9971   -3.9422   -2.4401 C   0  0  0  0  0  0  0  0  0  0  0  0
    4.8875   -3.1097   -2.5674 C   0  0  0  0  0  0  0  0  0  0  0  0
    4.6671   -2.0889   -1.6368 C   0  0  0  0  0  0  0  0  0  0  0  0
    4.2667   -0.0077    0.2479 O   0  0  0  0  0  0  0  0  0  0  0  0
    2.3053    2.0071    0.5649 C   0  0  0  0  0  0  0  0  0  0  0  0
   -1.6348   -0.1379   -1.9910 C   0  0  0  0  0  0  0  0  0  0  0  0
   -2.5267   -1.1177   -1.5462 C   0  0  0  0  0  0  0  0  0  0  0  0
   -8.6105   -2.1960    1.5363 H   0  0  0  0  0  0  0  0  0  0  0  0
   -7.7018   -0.6952    1.8382 H   0  0  0  0  0  0  0  0  0  0  0  0
   -8.1782   -1.1083    0.1978 H   0  0  0  0  0  0  0  0  0  0  0  0
   -6.6915   -3.0906    0.2172 H   0  0  0  0  0  0  0  0  0  0  0  0
   -5.0688   -3.3916    2.1132 H   0  0  0  0  0  0  0  0  0  0  0  0
   -5.7955   -2.0434    2.9724 H   0  0  0  0  0  0  0  0  0  0  0  0
   -6.7361   -3.5307    2.7068 H   0  0  0  0  0  0  0  0  0  0  0  0
   -4.6802    0.8820    0.1884 H   0  0  0  0  0  0  0  0  0  0  0  0
   -3.1058    2.5971   -0.5864 H   0  0  0  0  0  0  0  0  0  0  0  0
   -0.4676    2.0154   -3.0987 H   0  0  0  0  0  0  0  0  0  0  0  0
   -1.3298    3.2470   -2.1997 H   0  0  0  0  0  0  0  0  0  0  0  0
    0.7409    4.7211    1.9225 H   0  0  0  0  0  0  0  0  0  0  0  0
    2.6254    4.5164    3.5116 H   0  0  0  0  0  0  0  0  0  0  0  0
    4.3007    2.7262    3.2335 H   0  0  0  0  0  0  0  0  0  0  0  0
    7.3717   -2.6086    0.3670 H   0  0  0  0  0  0  0  0  0  0  0  0
    7.7528   -4.4069   -1.2813 H   0  0  0  0  0  0  0  0  0  0  0  0
    6.1685   -4.7349   -3.1638 H   0  0  0  0  0  0  0  0  0  0  0  0
    4.1921   -3.2541   -3.3912 H   0  0  0  0  0  0  0  0  0  0  0  0
    3.7924   -1.4530   -1.7580 H   0  0  0  0  0  0  0  0  0  0  0  0
    2.2109    1.3003   -0.2574 H   0  0  0  0  0  0  0  0  0  0  0  0
   -0.7745   -0.4338   -2.5887 H   0  0  0  0  0  0  0  0  0  0  0  0
   -2.3513   -2.1595   -1.8081 H   0  0  0  0  0  0  0  0  0  0  0  0
  1  2  1  0
  2  3  1  0
  2  4  1  0
  4  5  1  0
  5  6  2  0
  5  7  1  0
  7  8  2  0
  8  9  1  0
  9 10  2  0
 10 11  1  0
 11 12  1  0
 12 13  1  0
 13 14  2  0
 13 15  1  0
 15 16  2  0
 16 17  1  0
 17 18  2  0
 18 19  1  0
 19 20  1  0
 20 21  2  0
 21 22  1  0
 22 23  2  0
 23 24  1  0
 24 25  2  0
 25 26  1  0
 26 27  2  0
 27 28  1  0
 28 29  2  0
 23 30  1  0
 19 31  2  0
 10 32  1  0
 32 33  2  0
 33  7  1  0
 31 15  1  0
 30 20  1  0
 29 24  1  0
  1 34  1  0
  1 35  1  0
  1 36  1  0
  2 37  1  0
  3 38  1  0
  3 39  1  0
  3 40  1  0
  8 41  1  0
  9 42  1  0
 11 43  1  0
 11 44  1  0
 16 45  1  0
 17 46  1  0
 18 47  1  0
 25 48  1  0
 26 49  1  0
 27 50  1  0
 28 51  1  0
 29 52  1  0
 31 53  1  0
 32 54  1  0
 33 55  1  0
M  END
$$$$
