
     RDKit          3D

 45 47  0  0  0  0  0  0  0  0999 V2000
   -4.8688   -0.7291   -1.4210 C   0  0  0  0  0  0  0  0  0  0  0  0
   -3.4224   -1.1843   -1.2480 C   0  0  0  0  0  0  0  0  0  0  0  0
   -2.6935   -0.6287   -0.0979 N   0  0  0  0  0  0  0  0  0  0  0  0
   -3.2924   -0.9419    1.2092 C   0  0  0  0  0  0  0  0  0  0  0  0
   -3.4199   -2.4380    1.4816 C   0  0  0  0  0  0  0  0  0  0  0  0
   -2.4794    0.8262   -0.2533 C   0  0  0  0  0  0  0  0  0  0  0  0
   -1.3331    1.3582    0.5854 C   0  0  0  0  0  0  0  0  0  0  0  0
   -1.5657    2.1843    1.6966 C   0  0  0  0  0  0  0  0  0  0  0  0
   -2.8516    2.5195    2.0200 O   0  0  0  0  0  0  0  0  0  0  0  0
   -0.5147    2.6672    2.4784 C   0  0  0  0  0  0  0  0  0  0  0  0
    0.7975    2.3268    2.1560 C   0  0  0  0  0  0  0  0  0  0  0  0
    1.0514    1.5085    1.0509 C   0  0  0  0  0  0  0  0  0  0  0  0
    2.4390    1.1462    0.7041 C   0  0  0  0  0  0  0  0  0  0  0  0
    3.3766    1.5761    1.3670 O   0  0  0  0  0  0  0  0  0  0  0  0
    2.6235    0.2478   -0.4687 C   0  0  0  0  0  0  0  0  0  0  0  0
    3.9511   -0.2079   -0.9216 C   0  0  0  0  0  0  0  0  0  0  0  0
    4.9970    0.7084   -1.0997 C   0  0  0  0  0  0  0  0  0  0  0  0
    6.2538    0.2819   -1.5366 C   0  0  0  0  0  0  0  0  0  0  0  0
    6.4815   -1.0671   -1.7987 C   0  0  0  0  0  0  0  0  0  0  0  0
    5.4550   -1.9914   -1.6197 C   0  0  0  0  0  0  0  0  0  0  0  0
    4.1981   -1.5654   -1.1822 C   0  0  0  0  0  0  0  0  0  0  0  0
    1.5144   -0.1137   -1.1313 C   0  0  0  0  0  0  0  0  0  0  0  0
    0.2228    0.2405   -0.8341 O   0  0  0  0  0  0  0  0  0  0  0  0
   -0.0006    1.0303    0.2685 C   0  0  0  0  0  0  0  0  0  0  0  0
   -5.2943   -1.1879   -2.3199 H   0  0  0  0  0  0  0  0  0  0  0  0
   -4.9413    0.3559   -1.5412 H   0  0  0  0  0  0  0  0  0  0  0  0
   -5.4934   -1.0284   -0.5744 H   0  0  0  0  0  0  0  0  0  0  0  0
   -2.8697   -0.9432   -2.1656 H   0  0  0  0  0  0  0  0  0  0  0  0
   -3.3986   -2.2793   -1.2015 H   0  0  0  0  0  0  0  0  0  0  0  0
   -2.6547   -0.5421    2.0060 H   0  0  0  0  0  0  0  0  0  0  0  0
   -4.2729   -0.4649    1.3256 H   0  0  0  0  0  0  0  0  0  0  0  0
   -3.7292   -2.6017    2.5194 H   0  0  0  0  0  0  0  0  0  0  0  0
   -2.4629   -2.9494    1.3337 H   0  0  0  0  0  0  0  0  0  0  0  0
   -4.1710   -2.9080    0.8399 H   0  0  0  0  0  0  0  0  0  0  0  0
   -3.4058    1.3787   -0.0541 H   0  0  0  0  0  0  0  0  0  0  0  0
   -2.2301    1.0622   -1.2974 H   0  0  0  0  0  0  0  0  0  0  0  0
   -2.8447    3.0765    2.8161 H   0  0  0  0  0  0  0  0  0  0  0  0
   -0.6968    3.3042    3.3390 H   0  0  0  0  0  0  0  0  0  0  0  0
    1.6200    2.6980    2.7641 H   0  0  0  0  0  0  0  0  0  0  0  0
    4.8445    1.7660   -0.8923 H   0  0  0  0  0  0  0  0  0  0  0  0
    7.0552    1.0049   -1.6652 H   0  0  0  0  0  0  0  0  0  0  0  0
    7.4607   -1.3981   -2.1345 H   0  0  0  0  0  0  0  0  0  0  0  0
    5.6335   -3.0458   -1.8142 H   0  0  0  0  0  0  0  0  0  0  0  0
    3.4172   -2.3084   -1.0352 H   0  0  0  0  0  0  0  0  0  0  0  0
    1.5145   -0.7435   -2.0131 H   0  0  0  0  0  0  0  0  0  0  0  0
  1  2  1  0
  2  3  1  0
  3  4  1  0
  4  5  1  0
  3  6  1  0
  6  7  1  0
  7  8  2  0
  8  9  1  0
  8 10  1  0
 10 11  2  0
 11 12  1  0
 12 13  1  0
 13 14  2  0
 13 15  1  0
 15 16  1  0
 16 17  2  0
 17 18  1  0
 18 19  2  0
 19 20  1  0
 20 21  2  0
 15 22  2  0
 22 23  1  0
 23 24  1  0
 24  7  1  0
 24 12  2  0
 21 16  1  0
  1 25  1  0
  1 26  1  0
  1 27  1  0
  2 28  1  0
  2 29  1  0
  4 30  1  0
  4 31  1  0
  5 32  1  0
  5 33  1  0
  5 34  1  0
  6 35  1  0
  6 36  1  0
  9 37  1  0
 10 38  1  0
 11 39  1  0
 17 40  1  0
 18 41  1  0
 19 42  1  0
 20 43  1  0
 21 44  1  0
 22 45  1  0
M  END
$$$$
