
     RDKit          3D

 38 40  0  0  0  0  0  0  0  0999 V2000
    3.0546    0.3839    2.8357 N   0  0  0  0  0  0  0  0  0  0  0  0
    2.2673   -0.0154    2.0819 C   0  0  0  0  0  0  0  0  0  0  0  0
    1.3328   -0.4876    1.1209 C   0  0  0  0  0  0  0  0  0  0  0  0
    1.5764   -0.5933   -0.2006 C   0  0  0  0  0  0  0  0  0  0  0  0
    2.8131   -0.2069   -0.8979 C   0  0  0  0  0  0  0  0  0  0  0  0
    2.7102    0.5989   -2.0445 C   0  0  0  0  0  0  0  0  0  0  0  0
    3.8521    0.9714   -2.7580 C   0  0  0  0  0  0  0  0  0  0  0  0
    5.0926    0.5307   -2.3265 C   0  0  0  0  0  0  0  0  0  0  0  0
    6.2081    0.8968   -3.0220 O   0  0  0  0  0  0  0  0  0  0  0  0
    5.2081   -0.2777   -1.1998 C   0  0  0  0  0  0  0  0  0  0  0  0
    6.4638   -0.6751   -0.8310 O   0  0  0  0  0  0  0  0  0  0  0  0
    4.0760   -0.6614   -0.4870 C   0  0  0  0  0  0  0  0  0  0  0  0
    0.0109   -0.9541    1.6292 C   0  0  0  0  0  0  0  0  0  0  0  0
   -0.0265   -1.8082    2.5048 O   0  0  0  0  0  0  0  0  0  0  0  0
   -1.0584   -0.3080    1.0322 N   0  0  0  0  0  0  0  0  0  0  0  0
   -2.4462   -0.5311    1.2500 C   0  0  0  0  0  0  0  0  0  0  0  0
   -2.8947   -1.5535    2.0930 C   0  0  0  0  0  0  0  0  0  0  0  0
   -4.2550   -1.7686    2.2844 C   0  0  0  0  0  0  0  0  0  0  0  0
   -5.1817   -0.9636    1.6311 C   0  0  0  0  0  0  0  0  0  0  0  0
   -4.7887    0.0595    0.7870 C   0  0  0  0  0  0  0  0  0  0  0  0
   -5.7625    0.7791    0.2032 N   0  0  0  0  0  0  0  0  0  0  0  0
   -5.4136    1.7859   -0.6200 C   0  0  0  0  0  0  0  0  0  0  0  0
   -4.1077    2.1194   -0.8985 C   0  0  0  0  0  0  0  0  0  0  0  0
   -3.1011    1.3710   -0.2944 C   0  0  0  0  0  0  0  0  0  0  0  0
   -3.4071    0.2977    0.5806 C   0  0  0  0  0  0  0  0  0  0  0  0
    0.8105   -0.9980   -0.8624 H   0  0  0  0  0  0  0  0  0  0  0  0
    1.7420    0.9493   -2.3952 H   0  0  0  0  0  0  0  0  0  0  0  0
    3.7751    1.5983   -3.6414 H   0  0  0  0  0  0  0  0  0  0  0  0
    6.9481    0.4760   -2.5398 H   0  0  0  0  0  0  0  0  0  0  0  0
    6.3998   -1.1458    0.0188 H   0  0  0  0  0  0  0  0  0  0  0  0
    4.1756   -1.3152    0.3744 H   0  0  0  0  0  0  0  0  0  0  0  0
   -0.8265    0.4355    0.3909 H   0  0  0  0  0  0  0  0  0  0  0  0
   -2.2126   -2.2131    2.6196 H   0  0  0  0  0  0  0  0  0  0  0  0
   -4.5937   -2.5652    2.9423 H   0  0  0  0  0  0  0  0  0  0  0  0
   -6.2441   -1.1397    1.7862 H   0  0  0  0  0  0  0  0  0  0  0  0
   -6.2421    2.3332   -1.0605 H   0  0  0  0  0  0  0  0  0  0  0  0
   -3.8759    2.9417   -1.5659 H   0  0  0  0  0  0  0  0  0  0  0  0
   -2.0792    1.6530   -0.5209 H   0  0  0  0  0  0  0  0  0  0  0  0
  1  2  3  0
  2  3  1  0
  3  4  2  3
  4  5  1  0
  5  6  2  0
  6  7  1  0
  7  8  2  0
  8  9  1  0
  8 10  1  0
 10 11  1  0
 10 12  2  0
  3 13  1  0
 13 14  2  0
 13 15  1  0
 15 16  1  0
 16 17  2  0
 17 18  1  0
 18 19  2  0
 19 20  1  0
 20 21  2  0
 21 22  1  0
 22 23  2  0
 23 24  1  0
 24 25  2  0
 12  5  1  0
 25 16  1  0
 25 20  1  0
  4 26  1  0
  6 27  1  0
  7 28  1  0
  9 29  1  0
 11 30  1  0
 12 31  1  0
 15 32  1  0
 17 33  1  0
 18 34  1  0
 19 35  1  0
 22 36  1  0
 23 37  1  0
 24 38  1  0
M  END
$$$$
