
     RDKit          3D

 48 51  0  0  0  0  0  0  0  0999 V2000
   -7.3032   -2.9660   -0.5181 C   0  0  0  0  0  0  0  0  0  0  0  0
   -6.2949   -1.8565   -0.4306 C   0  0  0  0  0  0  0  0  0  0  0  0
   -6.7270   -0.5573   -0.1929 C   0  0  0  0  0  0  0  0  0  0  0  0
   -5.8005    0.4968   -0.1119 C   0  0  0  0  0  0  0  0  0  0  0  0
   -6.3112    1.8891    0.1337 C   0  0  0  0  0  0  0  0  0  0  0  0
   -4.4243    0.1645   -0.2612 C   0  0  0  0  0  0  0  0  0  0  0  0
   -3.1985    0.9269   -0.2255 C   0  0  0  0  0  0  0  0  0  0  0  0
   -3.1387    2.2626    0.0039 N   0  0  0  0  0  0  0  0  0  0  0  0
   -2.0643    0.1647   -0.4559 C   0  0  0  0  0  0  0  0  0  0  0  0
   -0.6752    0.6121   -0.4817 C   0  0  0  0  0  0  0  0  0  0  0  0
   -0.3366    1.7699   -0.2198 O   0  0  0  0  0  0  0  0  0  0  0  0
    0.2700   -0.3542   -0.8325 N   0  0  0  0  0  0  0  0  0  0  0  0
    1.6363   -0.1278   -0.5196 N   0  0  0  0  0  0  0  0  0  0  0  0
    2.2997    0.8523   -1.3725 C   0  0  0  0  0  0  0  0  0  0  0  0
    3.8159    0.6466   -1.2935 C   0  0  0  0  0  0  0  0  0  0  0  0
    4.5177    0.8674   -2.2785 O   0  0  0  0  0  0  0  0  0  0  0  0
    4.2713    0.2525   -0.0197 N   0  0  0  0  0  0  0  0  0  0  0  0
    5.6480   -0.0422    0.2643 C   0  0  0  0  0  0  0  0  0  0  0  0
    6.6949    0.5309   -0.4721 C   0  0  0  0  0  0  0  0  0  0  0  0
    8.0349    0.2411   -0.1799 C   0  0  0  0  0  0  0  0  0  0  0  0
    8.3577   -0.6372    0.8499 C   0  0  0  0  0  0  0  0  0  0  0  0
    7.3383   -1.2323    1.5835 C   0  0  0  0  0  0  0  0  0  0  0  0
    6.0063   -0.9386    1.2879 C   0  0  0  0  0  0  0  0  0  0  0  0
    5.0667   -1.6055    1.9763 F   0  0  0  0  0  0  0  0  0  0  0  0
    3.3412    0.4272    1.1109 C   0  0  0  0  0  0  0  0  0  0  0  0
    2.0027   -0.2389    0.8216 C   0  0  0  0  0  0  0  0  0  0  0  0
    1.2777   -0.7152    1.6913 O   0  0  0  0  0  0  0  0  0  0  0  0
   -2.4729   -1.4788   -0.7016 S   0  0  0  0  0  0  0  0  0  0  0  0
   -4.1326   -1.1748   -0.5042 C   0  0  0  0  0  0  0  0  0  0  0  0
   -5.0051   -2.1976   -0.5967 N   0  0  0  0  0  0  0  0  0  0  0  0
   -6.8117   -3.9267   -0.7027 H   0  0  0  0  0  0  0  0  0  0  0  0
   -7.8616   -3.0441    0.4200 H   0  0  0  0  0  0  0  0  0  0  0  0
   -8.0019   -2.7776   -1.3392 H   0  0  0  0  0  0  0  0  0  0  0  0
   -7.7900   -0.3607   -0.0752 H   0  0  0  0  0  0  0  0  0  0  0  0
   -5.9063    2.5803   -0.6118 H   0  0  0  0  0  0  0  0  0  0  0  0
   -7.4029    1.9380    0.0610 H   0  0  0  0  0  0  0  0  0  0  0  0
   -6.0253    2.2212    1.1363 H   0  0  0  0  0  0  0  0  0  0  0  0
   -3.8772    2.7459    0.5029 H   0  0  0  0  0  0  0  0  0  0  0  0
   -2.2242    2.6957    0.1643 H   0  0  0  0  0  0  0  0  0  0  0  0
   -0.0256   -1.3252   -0.7577 H   0  0  0  0  0  0  0  0  0  0  0  0
    2.0705    1.8694   -1.0404 H   0  0  0  0  0  0  0  0  0  0  0  0
    1.9760    0.7006   -2.4073 H   0  0  0  0  0  0  0  0  0  0  0  0
    6.5056    1.2438   -1.2699 H   0  0  0  0  0  0  0  0  0  0  0  0
    8.8248    0.7086   -0.7640 H   0  0  0  0  0  0  0  0  0  0  0  0
    9.3975   -0.8639    1.0708 H   0  0  0  0  0  0  0  0  0  0  0  0
    7.5660   -1.9391    2.3756 H   0  0  0  0  0  0  0  0  0  0  0  0
    3.7300    0.0495    2.0564 H   0  0  0  0  0  0  0  0  0  0  0  0
    3.1619    1.5027    1.2326 H   0  0  0  0  0  0  0  0  0  0  0  0
  1  2  1  0
  2  3  2  0
  3  4  1  0
  4  5  1  0
  4  6  2  0
  6  7  1  0
  7  8  1  0
  7  9  2  0
  9 10  1  0
 10 11  2  0
 10 12  1  0
 12 13  1  0
 13 14  1  0
 14 15  1  0
 15 16  2  0
 15 17  1  0
 17 18  1  0
 18 19  2  0
 19 20  1  0
 20 21  2  0
 21 22  1  0
 22 23  2  0
 23 24  1  0
 17 25  1  0
 25 26  1  0
 26 27  2  0
  9 28  1  0
 28 29  1  0
 29 30  2  0
 30  2  1  0
 29  6  1  0
 26 13  1  0
 23 18  1  0
  1 31  1  0
  1 32  1  0
  1 33  1  0
  3 34  1  0
  5 35  1  0
  5 36  1  0
  5 37  1  0
  8 38  1  0
  8 39  1  0
 12 40  1  0
 14 41  1  0
 14 42  1  0
 19 43  1  0
 20 44  1  0
 21 45  1  0
 22 46  1  0
 25 47  1  0
 25 48  1  0
M  END
$$$$
