
     RDKit          3D

 32 34  0  0  0  0  0  0  0  0999 V2000
    6.0118   -1.9101   -0.9100 C   0  0  0  0  0  0  0  0  0  0  0  0
    5.7127   -0.5195   -0.8935 O   0  0  0  0  0  0  0  0  0  0  0  0
    4.4090   -0.1663   -0.6673 C   0  0  0  0  0  0  0  0  0  0  0  0
    4.1806    1.2097   -0.6573 C   0  0  0  0  0  0  0  0  0  0  0  0
    2.8997    1.7302   -0.4390 C   0  0  0  0  0  0  0  0  0  0  0  0
    1.8220    0.8512   -0.2252 C   0  0  0  0  0  0  0  0  0  0  0  0
    0.5049    1.2156    0.0022 N   0  0  0  0  0  0  0  0  0  0  0  0
   -0.2277    0.1412    0.1675 C   0  0  0  0  0  0  0  0  0  0  0  0
   -1.5743    0.2500    0.3959 N   0  0  0  0  0  0  0  0  0  0  0  0
   -2.4582   -0.7646    0.6688 C   0  0  0  0  0  0  0  0  0  0  0  0
   -2.1776   -1.9451    0.8349 O   0  0  0  0  0  0  0  0  0  0  0  0
   -3.8435   -0.3205    0.8194 C   0  0  0  0  0  0  0  0  0  0  0  0
   -4.8487   -0.9754    1.5970 C   0  0  0  0  0  0  0  0  0  0  0  0
   -5.9985   -0.2386    1.4662 C   0  0  0  0  0  0  0  0  0  0  0  0
   -5.7878    0.8153    0.6423 O   0  0  0  0  0  0  0  0  0  0  0  0
   -4.4892    0.7577    0.2283 C   0  0  0  0  0  0  0  0  0  0  0  0
   -4.1015    1.8035   -0.7451 C   0  0  0  0  0  0  0  0  0  0  0  0
    0.5821   -1.3472    0.0437 S   0  0  0  0  0  0  0  0  0  0  0  0
    2.0664   -0.5224   -0.2387 C   0  0  0  0  0  0  0  0  0  0  0  0
    3.3507   -1.0562   -0.4576 C   0  0  0  0  0  0  0  0  0  0  0  0
    7.0842   -2.0189   -1.0982 H   0  0  0  0  0  0  0  0  0  0  0  0
    5.7950   -2.3719    0.0589 H   0  0  0  0  0  0  0  0  0  0  0  0
    5.4782   -2.4187   -1.7197 H   0  0  0  0  0  0  0  0  0  0  0  0
    5.0113    1.8930   -0.8218 H   0  0  0  0  0  0  0  0  0  0  0  0
    2.7327    2.8025   -0.4329 H   0  0  0  0  0  0  0  0  0  0  0  0
   -1.8851    1.2074    0.4395 H   0  0  0  0  0  0  0  0  0  0  0  0
   -4.7277   -1.8757    2.1849 H   0  0  0  0  0  0  0  0  0  0  0  0
   -6.9991   -0.3309    1.8654 H   0  0  0  0  0  0  0  0  0  0  0  0
   -3.4287    1.3987   -1.5071 H   0  0  0  0  0  0  0  0  0  0  0  0
   -3.5983    2.6307   -0.2358 H   0  0  0  0  0  0  0  0  0  0  0  0
   -4.9796    2.2065   -1.2602 H   0  0  0  0  0  0  0  0  0  0  0  0
    3.4842   -2.1312   -0.4578 H   0  0  0  0  0  0  0  0  0  0  0  0
  1  2  1  0
  2  3  1  0
  3  4  2  0
  4  5  1  0
  5  6  2  0
  6  7  1  0
  7  8  2  0
  8  9  1  0
  9 10  1  0
 10 11  2  0
 10 12  1  0
 12 13  1  0
 13 14  2  0
 14 15  1  0
 15 16  1  0
 16 17  1  0
  8 18  1  0
 18 19  1  0
 19 20  2  0
 20  3  1  0
 19  6  1  0
 16 12  2  0
  1 21  1  0
  1 22  1  0
  1 23  1  0
  4 24  1  0
  5 25  1  0
  9 26  1  0
 13 27  1  0
 14 28  1  0
 17 29  1  0
 17 30  1  0
 17 31  1  0
 20 32  1  0
M  END
$$$$
