
     RDKit          3D

 52 56  0  0  0  0  0  0  0  0999 V2000
   -3.1562   -1.8887    0.5155 C   0  0  0  0  0  0  0  0  0  0  0  0
   -2.6895   -0.4743    0.1946 C   0  0  0  0  0  0  0  0  0  0  0  0
   -1.1657   -0.3967    0.0213 C   0  0  0  0  0  0  0  0  0  0  0  0
   -0.3603   -0.8241    1.2221 C   0  0  0  0  0  0  0  0  0  0  0  0
    0.4243   -1.7595    1.1000 O   0  0  0  0  0  0  0  0  0  0  0  0
   -0.4575   -0.0877    2.5115 C   0  0  0  0  0  0  0  0  0  0  0  0
   -0.9366    1.2249    2.5938 C   0  0  0  0  0  0  0  0  0  0  0  0
   -0.9883    1.8751    3.8316 C   0  0  0  0  0  0  0  0  0  0  0  0
   -0.5573    1.2188    4.9831 C   0  0  0  0  0  0  0  0  0  0  0  0
   -0.6249    2.0217    6.5022 Cl  0  0  0  0  0  0  0  0  0  0  0  0
   -0.0685   -0.0835    4.9093 C   0  0  0  0  0  0  0  0  0  0  0  0
   -0.0145   -0.7349    3.6742 C   0  0  0  0  0  0  0  0  0  0  0  0
   -0.6240   -0.7489   -1.3731 C   0  0  0  0  0  0  0  0  0  0  0  0
   -1.4528   -0.9200   -2.6133 C   0  0  0  0  0  0  0  0  0  0  0  0
   -1.6504   -2.1801   -3.1970 C   0  0  0  0  0  0  0  0  0  0  0  0
   -2.3694   -2.3221   -4.3881 C   0  0  0  0  0  0  0  0  0  0  0  0
   -2.9027   -1.2017   -5.0226 C   0  0  0  0  0  0  0  0  0  0  0  0
   -2.7260    0.0595   -4.4617 C   0  0  0  0  0  0  0  0  0  0  0  0
   -2.0116    0.1838   -3.2696 C   0  0  0  0  0  0  0  0  0  0  0  0
   -1.9425    1.4849   -2.7249 O   0  0  0  0  0  0  0  0  0  0  0  0
   -1.4734    1.6980   -1.4281 C   0  0  0  0  0  0  0  0  0  0  0  0
   -1.8681    2.6268   -0.7323 O   0  0  0  0  0  0  0  0  0  0  0  0
   -0.5071    0.6858   -0.8889 C   0  0  0  0  0  0  0  0  0  0  0  0
    0.9012    1.2250   -0.6846 C   0  0  0  0  0  0  0  0  0  0  0  0
    1.1115    2.3908   -0.9949 O   0  0  0  0  0  0  0  0  0  0  0  0
    1.8642    0.3592   -0.1885 N   0  0  0  0  0  0  0  0  0  0  0  0
    3.2160    0.6484    0.1045 C   0  0  0  0  0  0  0  0  0  0  0  0
    3.8216    1.8891   -0.0985 C   0  0  0  0  0  0  0  0  0  0  0  0
    5.1689    2.0818    0.2263 C   0  0  0  0  0  0  0  0  0  0  0  0
    5.9215    1.0370    0.7570 C   0  0  0  0  0  0  0  0  0  0  0  0
    5.3277   -0.2042    0.9647 C   0  0  0  0  0  0  0  0  0  0  0  0
    3.9824   -0.3966    0.6402 C   0  0  0  0  0  0  0  0  0  0  0  0
   -2.8508   -2.5940   -0.2633 H   0  0  0  0  0  0  0  0  0  0  0  0
   -4.2476   -1.9174    0.5934 H   0  0  0  0  0  0  0  0  0  0  0  0
   -2.7433   -2.2397    1.4664 H   0  0  0  0  0  0  0  0  0  0  0  0
   -3.2251   -0.1339   -0.6964 H   0  0  0  0  0  0  0  0  0  0  0  0
   -3.0048    0.1951    1.0017 H   0  0  0  0  0  0  0  0  0  0  0  0
   -1.2619    1.7766    1.7159 H   0  0  0  0  0  0  0  0  0  0  0  0
   -1.3588    2.8965    3.8864 H   0  0  0  0  0  0  0  0  0  0  0  0
    0.2754   -0.5947    5.8049 H   0  0  0  0  0  0  0  0  0  0  0  0
    0.3755   -1.7502    3.6255 H   0  0  0  0  0  0  0  0  0  0  0  0
    0.2767   -1.3588   -1.3872 H   0  0  0  0  0  0  0  0  0  0  0  0
   -1.2306   -3.0670   -2.7254 H   0  0  0  0  0  0  0  0  0  0  0  0
   -2.5069   -3.3090   -4.8240 H   0  0  0  0  0  0  0  0  0  0  0  0
   -3.4594   -1.3127   -5.9497 H   0  0  0  0  0  0  0  0  0  0  0  0
   -3.1513    0.9371   -4.9408 H   0  0  0  0  0  0  0  0  0  0  0  0
    1.5970   -0.5975    0.0259 H   0  0  0  0  0  0  0  0  0  0  0  0
    3.2787    2.7340   -0.5090 H   0  0  0  0  0  0  0  0  0  0  0  0
    5.6272    3.0540    0.0625 H   0  0  0  0  0  0  0  0  0  0  0  0
    6.9674    1.1919    1.0082 H   0  0  0  0  0  0  0  0  0  0  0  0
    5.9091   -1.0229    1.3803 H   0  0  0  0  0  0  0  0  0  0  0  0
    3.5416   -1.3753    0.8173 H   0  0  0  0  0  0  0  0  0  0  0  0
  1  2  1  0
  2  3  1  0
  3  4  1  0
  4  5  2  0
  4  6  1  0
  6  7  2  0
  7  8  1  0
  8  9  2  0
  9 10  1  0
  9 11  1  0
 11 12  2  0
  3 13  1  0
 13 14  1  0
 14 15  2  0
 15 16  1  0
 16 17  2  0
 17 18  1  0
 18 19  2  0
 19 20  1  0
 20 21  1  0
 21 22  2  0
 21 23  1  0
 23 24  1  0
 24 25  2  0
 24 26  1  0
 26 27  1  0
 27 28  2  0
 28 29  1  0
 29 30  2  0
 30 31  1  0
 31 32  2  0
 23  3  1  0
 32 27  1  0
 12  6  1  0
 23 13  1  0
 19 14  1  0
  1 33  1  0
  1 34  1  0
  1 35  1  0
  2 36  1  0
  2 37  1  0
  7 38  1  0
  8 39  1  0
 11 40  1  0
 12 41  1  0
 13 42  1  0
 15 43  1  0
 16 44  1  0
 17 45  1  0
 18 46  1  0
 26 47  1  0
 28 48  1  0
 29 49  1  0
 30 50  1  0
 31 51  1  0
 32 52  1  0
M  END
$$$$
