
     RDKit          3D

 53 54  0  0  0  0  0  0  0  0999 V2000
    0.8174    4.7893    0.0962 C   0  0  0  0  0  0  0  0  0  0  0  0
   -0.9823    4.6397   -0.0270 S   0  0  0  0  0  0  0  0  0  0  0  0
   -1.1343    2.8346   -0.2366 C   0  0  0  0  0  0  0  0  0  0  0  0
   -0.8165    2.0746    1.0500 C   0  0  0  0  0  0  0  0  0  0  0  0
   -1.0477    0.5651    0.9053 C   0  0  0  0  0  0  0  0  0  0  0  0
   -0.9256   -0.0966    2.2078 N   0  0  0  0  0  0  0  0  0  0  0  0
   -2.0018   -0.2290    3.0603 C   0  0  0  0  0  0  0  0  0  0  0  0
   -3.1174    0.1932    2.7722 O   0  0  0  0  0  0  0  0  0  0  0  0
   -1.6675   -0.9373    4.3798 C   0  0  0  0  0  0  0  0  0  0  0  0
   -2.7612   -1.5586    5.0311 O   0  0  0  0  0  0  0  0  0  0  0  0
   -3.1878   -2.7698    4.5602 C   0  0  0  0  0  0  0  0  0  0  0  0
   -4.2447   -3.3308    5.2832 C   0  0  0  0  0  0  0  0  0  0  0  0
   -4.7811   -4.5679    4.9207 C   0  0  0  0  0  0  0  0  0  0  0  0
   -4.2619   -5.2548    3.8267 C   0  0  0  0  0  0  0  0  0  0  0  0
   -3.2108   -4.7014    3.0977 C   0  0  0  0  0  0  0  0  0  0  0  0
   -2.6742   -3.4611    3.4617 C   0  0  0  0  0  0  0  0  0  0  0  0
    0.0038   -0.0644   -0.0101 C   0  0  0  0  0  0  0  0  0  0  0  0
    1.0872   -0.4850    0.3813 O   0  0  0  0  0  0  0  0  0  0  0  0
   -0.4159   -0.0637   -1.3044 O   0  0  0  0  0  0  0  0  0  0  0  0
    0.4831   -0.6651   -2.2500 C   0  0  0  0  0  0  0  0  0  0  0  0
    1.5552    0.3234   -2.7018 C   0  0  0  0  0  0  0  0  0  0  0  0
    2.3560   -0.3042   -3.7004 O   0  0  0  0  0  0  0  0  0  0  0  0
    3.3550    0.4429   -4.2600 C   0  0  0  0  0  0  0  0  0  0  0  0
    4.0905   -0.2170   -5.2494 C   0  0  0  0  0  0  0  0  0  0  0  0
    5.1393    0.4284   -5.9084 C   0  0  0  0  0  0  0  0  0  0  0  0
    5.4540    1.7423   -5.5740 C   0  0  0  0  0  0  0  0  0  0  0  0
    6.8694    2.6258   -6.4612 Br  0  0  0  0  0  0  0  0  0  0  0  0
    4.7306    2.4103   -4.5880 C   0  0  0  0  0  0  0  0  0  0  0  0
    3.6805    1.7599   -3.9300 C   0  0  0  0  0  0  0  0  0  0  0  0
    1.1814    4.3447    1.0256 H   0  0  0  0  0  0  0  0  0  0  0  0
    1.3016    4.3108   -0.7593 H   0  0  0  0  0  0  0  0  0  0  0  0
    1.0871    5.8489    0.0972 H   0  0  0  0  0  0  0  0  0  0  0  0
   -0.4815    2.5312   -1.0600 H   0  0  0  0  0  0  0  0  0  0  0  0
   -2.1654    2.6293   -0.5430 H   0  0  0  0  0  0  0  0  0  0  0  0
   -1.4485    2.4573    1.8619 H   0  0  0  0  0  0  0  0  0  0  0  0
    0.2232    2.2515    1.3506 H   0  0  0  0  0  0  0  0  0  0  0  0
   -2.0469    0.3501    0.5091 H   0  0  0  0  0  0  0  0  0  0  0  0
   -0.0041   -0.4266    2.4809 H   0  0  0  0  0  0  0  0  0  0  0  0
   -0.8298   -1.6351    4.2565 H   0  0  0  0  0  0  0  0  0  0  0  0
   -1.3071   -0.1520    5.0558 H   0  0  0  0  0  0  0  0  0  0  0  0
   -4.6564   -2.7957    6.1357 H   0  0  0  0  0  0  0  0  0  0  0  0
   -5.6041   -4.9900    5.4910 H   0  0  0  0  0  0  0  0  0  0  0  0
   -4.6782   -6.2170    3.5396 H   0  0  0  0  0  0  0  0  0  0  0  0
   -2.8089   -5.2349    2.2398 H   0  0  0  0  0  0  0  0  0  0  0  0
   -1.8630   -3.0696    2.8597 H   0  0  0  0  0  0  0  0  0  0  0  0
   -0.1159   -0.9787   -3.1125 H   0  0  0  0  0  0  0  0  0  0  0  0
    0.9280   -1.5842   -1.8478 H   0  0  0  0  0  0  0  0  0  0  0  0
    2.1725    0.6174   -1.8450 H   0  0  0  0  0  0  0  0  0  0  0  0
    1.0644    1.2185   -3.1037 H   0  0  0  0  0  0  0  0  0  0  0  0
    3.8441   -1.2438   -5.5098 H   0  0  0  0  0  0  0  0  0  0  0  0
    5.6982   -0.1013   -6.6748 H   0  0  0  0  0  0  0  0  0  0  0  0
    4.9765    3.4354   -4.3217 H   0  0  0  0  0  0  0  0  0  0  0  0
    3.1415    2.3110   -3.1668 H   0  0  0  0  0  0  0  0  0  0  0  0
  1  2  1  0
  2  3  1  0
  3  4  1  0
  4  5  1  0
  5  6  1  0
  6  7  1  0
  7  8  2  0
  7  9  1  0
  9 10  1  0
 10 11  1  0
 11 12  2  0
 12 13  1  0
 13 14  2  0
 14 15  1  0
 15 16  2  0
  5 17  1  0
 17 18  2  0
 17 19  1  0
 19 20  1  0
 20 21  1  0
 21 22  1  0
 22 23  1  0
 23 24  2  0
 24 25  1  0
 25 26  2  0
 26 27  1  0
 26 28  1  0
 28 29  2  0
 16 11  1  0
 29 23  1  0
  1 30  1  0
  1 31  1  0
  1 32  1  0
  3 33  1  0
  3 34  1  0
  4 35  1  0
  4 36  1  0
  5 37  1  0
  6 38  1  0
  9 39  1  0
  9 40  1  0
 12 41  1  0
 13 42  1  0
 14 43  1  0
 15 44  1  0
 16 45  1  0
 20 46  1  0
 20 47  1  0
 21 48  1  0
 21 49  1  0
 24 50  1  0
 25 51  1  0
 28 52  1  0
 29 53  1  0
M  END
$$$$
