
     RDKit          3D

 38 40  0  0  0  0  0  0  0  0999 V2000
   -5.2798    0.1162   -0.9497 C   0  0  0  0  0  0  0  0  0  0  0  0
   -4.8625   -0.8117    0.0451 O   0  0  0  0  0  0  0  0  0  0  0  0
   -3.5213   -0.8486    0.3275 C   0  0  0  0  0  0  0  0  0  0  0  0
   -2.5290   -0.0713   -0.2704 C   0  0  0  0  0  0  0  0  0  0  0  0
   -1.1733   -0.2074    0.1045 C   0  0  0  0  0  0  0  0  0  0  0  0
   -0.8319   -1.1301    1.1099 C   0  0  0  0  0  0  0  0  0  0  0  0
   -1.8300   -1.9032    1.7173 C   0  0  0  0  0  0  0  0  0  0  0  0
   -3.1514   -1.7613    1.3172 C   0  0  0  0  0  0  0  0  0  0  0  0
   -4.0989   -2.5368    1.9290 O   0  0  0  0  0  0  0  0  0  0  0  0
    0.5834   -1.2332    1.6036 C   0  0  0  0  0  0  0  0  0  0  0  0
    1.6014   -0.7365    0.5820 C   0  0  0  0  0  0  0  0  0  0  0  0
    1.2202    0.5605    0.0248 N   0  0  0  0  0  0  0  0  0  0  0  0
    2.1013    1.6293   -0.2061 C   0  0  0  0  0  0  0  0  0  0  0  0
    1.6605    2.7244   -0.5651 O   0  0  0  0  0  0  0  0  0  0  0  0
    3.5326    1.4429   -0.0298 C   0  0  0  0  0  0  0  0  0  0  0  0
    4.5165    2.3681    0.2757 C   0  0  0  0  0  0  0  0  0  0  0  0
    5.7533    1.6814    0.2530 C   0  0  0  0  0  0  0  0  0  0  0  0
    5.4605    0.3850   -0.0938 C   0  0  0  0  0  0  0  0  0  0  0  0
    4.1250    0.2322   -0.2822 O   0  0  0  0  0  0  0  0  0  0  0  0
   -0.1170    0.6532   -0.5824 C   0  0  0  0  0  0  0  0  0  0  0  0
   -0.0268    0.3049   -2.0780 C   0  0  0  0  0  0  0  0  0  0  0  0
   -5.0604    1.1452   -0.6462 H   0  0  0  0  0  0  0  0  0  0  0  0
   -4.8289   -0.1163   -1.9201 H   0  0  0  0  0  0  0  0  0  0  0  0
   -6.3650    0.0251   -1.0566 H   0  0  0  0  0  0  0  0  0  0  0  0
   -2.7813    0.6592   -1.0329 H   0  0  0  0  0  0  0  0  0  0  0  0
   -1.5863   -2.6089    2.5069 H   0  0  0  0  0  0  0  0  0  0  0  0
   -4.9428   -2.2746    1.5126 H   0  0  0  0  0  0  0  0  0  0  0  0
    0.8218   -2.2704    1.8668 H   0  0  0  0  0  0  0  0  0  0  0  0
    0.6626   -0.6302    2.5173 H   0  0  0  0  0  0  0  0  0  0  0  0
    2.5629   -0.6838    1.0957 H   0  0  0  0  0  0  0  0  0  0  0  0
    1.6972   -1.4403   -0.2530 H   0  0  0  0  0  0  0  0  0  0  0  0
    4.3439    3.4157    0.4834 H   0  0  0  0  0  0  0  0  0  0  0  0
    6.7369    2.0851    0.4484 H   0  0  0  0  0  0  0  0  0  0  0  0
    6.0593   -0.5018   -0.2497 H   0  0  0  0  0  0  0  0  0  0  0  0
   -0.4525    1.6946   -0.4936 H   0  0  0  0  0  0  0  0  0  0  0  0
   -0.9823    0.4585   -2.5901 H   0  0  0  0  0  0  0  0  0  0  0  0
    0.7189    0.9265   -2.5854 H   0  0  0  0  0  0  0  0  0  0  0  0
    0.2633   -0.7420   -2.2247 H   0  0  0  0  0  0  0  0  0  0  0  0
  1  2  1  0
  2  3  1  0
  3  4  2  0
  4  5  1  0
  5  6  2  0
  6  7  1  0
  7  8  2  0
  8  9  1  0
  6 10  1  0
 10 11  1  0
 11 12  1  0
 12 13  1  0
 13 14  2  0
 13 15  1  0
 15 16  2  0
 16 17  1  0
 17 18  2  0
 18 19  1  0
 12 20  1  0
 20 21  1  0
  8  3  1  0
 19 15  1  0
 20  5  1  0
  1 22  1  0
  1 23  1  0
  1 24  1  0
  4 25  1  0
  7 26  1  0
  9 27  1  0
 10 28  1  0
 10 29  1  0
 11 30  1  0
 11 31  1  0
 16 32  1  0
 17 33  1  0
 18 34  1  0
 20 35  1  0
 21 36  1  0
 21 37  1  0
 21 38  1  0
M  END
$$$$
