
     RDKit          3D

 44 46  0  0  0  0  0  0  0  0999 V2000
    3.1456   -1.6664    2.3282 C   0  0  0  0  0  0  0  0  0  0  0  0
    2.3245   -1.0816    1.2283 C   0  0  0  0  0  0  0  0  0  0  0  0
    0.9713   -0.8094    1.2619 C   0  0  0  0  0  0  0  0  0  0  0  0
    0.6071   -0.1536    0.0585 C   0  0  0  0  0  0  0  0  0  0  0  0
   -0.7247    0.3490   -0.3237 C   0  0  0  0  0  0  0  0  0  0  0  0
   -0.8858    1.0422   -1.3287 O   0  0  0  0  0  0  0  0  0  0  0  0
   -1.8911    0.0070    0.6052 C   0  0  0  0  0  0  0  0  0  0  0  0
   -3.1456    0.3603    0.0219 O   0  0  0  0  0  0  0  0  0  0  0  0
   -4.1653    0.4911    0.8991 C   0  0  0  0  0  0  0  0  0  0  0  0
   -4.0734    0.3926    2.1153 O   0  0  0  0  0  0  0  0  0  0  0  0
   -5.4090    0.8469    0.1965 C   0  0  0  0  0  0  0  0  0  0  0  0
   -6.2246    1.7525    0.7698 C   0  0  0  0  0  0  0  0  0  0  0  0
   -7.4450    2.1769    0.1217 C   0  0  0  0  0  0  0  0  0  0  0  0
   -7.7752    1.6671   -1.0703 C   0  0  0  0  0  0  0  0  0  0  0  0
   -6.9690    0.7326   -1.6661 N   0  0  0  0  0  0  0  0  0  0  0  0
   -5.8026    0.2470   -1.1101 C   0  0  0  0  0  0  0  0  0  0  0  0
   -5.1678   -0.6476   -1.6580 O   0  0  0  0  0  0  0  0  0  0  0  0
    1.7640   -0.0889   -0.7162 C   0  0  0  0  0  0  0  0  0  0  0  0
    1.8888    0.3753   -2.1354 C   0  0  0  0  0  0  0  0  0  0  0  0
    2.8282   -0.6130    0.0187 N   0  0  0  0  0  0  0  0  0  0  0  0
    4.1964   -0.6386   -0.3845 C   0  0  0  0  0  0  0  0  0  0  0  0
    4.9652   -1.7974   -0.2067 C   0  0  0  0  0  0  0  0  0  0  0  0
    6.3056   -1.8104   -0.5992 C   0  0  0  0  0  0  0  0  0  0  0  0
    6.8694   -0.6709   -1.1614 C   0  0  0  0  0  0  0  0  0  0  0  0
    8.1554   -0.6874   -1.5348 F   0  0  0  0  0  0  0  0  0  0  0  0
    6.1187    0.4846   -1.3427 C   0  0  0  0  0  0  0  0  0  0  0  0
    4.7773    0.5041   -0.9553 C   0  0  0  0  0  0  0  0  0  0  0  0
    4.0956   -1.1382    2.4519 H   0  0  0  0  0  0  0  0  0  0  0  0
    2.6127   -1.5916    3.2828 H   0  0  0  0  0  0  0  0  0  0  0  0
    3.3388   -2.7275    2.1460 H   0  0  0  0  0  0  0  0  0  0  0  0
    0.3259   -1.0375    2.1021 H   0  0  0  0  0  0  0  0  0  0  0  0
   -1.8959   -1.0734    0.7843 H   0  0  0  0  0  0  0  0  0  0  0  0
   -1.7279    0.5509    1.5431 H   0  0  0  0  0  0  0  0  0  0  0  0
   -5.9818    2.2072    1.7267 H   0  0  0  0  0  0  0  0  0  0  0  0
   -8.0701    2.9146    0.6147 H   0  0  0  0  0  0  0  0  0  0  0  0
   -8.6756    1.9537   -1.6042 H   0  0  0  0  0  0  0  0  0  0  0  0
   -7.2299    0.3255   -2.5567 H   0  0  0  0  0  0  0  0  0  0  0  0
    0.9905    0.1233   -2.7079 H   0  0  0  0  0  0  0  0  0  0  0  0
    2.0253    1.4604   -2.1715 H   0  0  0  0  0  0  0  0  0  0  0  0
    2.7181   -0.1075   -2.6603 H   0  0  0  0  0  0  0  0  0  0  0  0
    4.5302   -2.7096    0.1914 H   0  0  0  0  0  0  0  0  0  0  0  0
    6.9101   -2.7038   -0.4784 H   0  0  0  0  0  0  0  0  0  0  0  0
    6.5830    1.3640   -1.7776 H   0  0  0  0  0  0  0  0  0  0  0  0
    4.2124    1.4258   -1.0714 H   0  0  0  0  0  0  0  0  0  0  0  0
  1  2  1  0
  2  3  2  0
  3  4  1  0
  4  5  1  0
  5  6  2  0
  5  7  1  0
  7  8  1  0
  8  9  1  0
  9 10  2  0
  9 11  1  0
 11 12  2  0
 12 13  1  0
 13 14  2  0
 14 15  1  0
 15 16  1  0
 16 17  2  0
  4 18  2  0
 18 19  1  0
 18 20  1  0
 20 21  1  0
 21 22  2  0
 22 23  1  0
 23 24  2  0
 24 25  1  0
 24 26  1  0
 26 27  2  0
 20  2  1  0
 27 21  1  0
 16 11  1  0
  1 28  1  0
  1 29  1  0
  1 30  1  0
  3 31  1  0
  7 32  1  0
  7 33  1  0
 12 34  1  0
 13 35  1  0
 14 36  1  0
 15 37  1  0
 19 38  1  0
 19 39  1  0
 19 40  1  0
 22 41  1  0
 23 42  1  0
 26 43  1  0
 27 44  1  0
M  END
$$$$
