
     RDKit          3D

 35 36  0  0  0  0  0  0  0  0999 V2000
   -5.0714   -0.6220    1.7907 C   0  0  0  0  0  0  0  0  0  0  0  0
   -4.2417    0.5990    2.1474 C   0  0  0  0  0  0  0  0  0  0  0  0
   -3.7956    1.2671    0.9678 O   0  0  0  0  0  0  0  0  0  0  0  0
   -2.5910    0.9267    0.4256 C   0  0  0  0  0  0  0  0  0  0  0  0
   -2.1643    1.7585   -0.6114 C   0  0  0  0  0  0  0  0  0  0  0  0
   -0.9451    1.5410   -1.2718 C   0  0  0  0  0  0  0  0  0  0  0  0
   -0.1144    0.4765   -0.9163 C   0  0  0  0  0  0  0  0  0  0  0  0
    1.1369    0.2482   -1.5440 N   0  0  0  0  0  0  0  0  0  0  0  0
    1.7910    1.0456   -2.4698 C   0  0  0  0  0  0  0  0  0  0  0  0
    1.3794    2.1114   -2.9208 O   0  0  0  0  0  0  0  0  0  0  0  0
    3.1266    0.4708   -2.9213 C   0  0  0  0  0  0  0  0  0  0  0  0
    4.4680    1.0269   -1.8428 S   0  0  0  0  0  0  0  0  0  0  0  0
    4.3445   -0.0635   -0.4922 C   0  0  0  0  0  0  0  0  0  0  0  0
    5.2611   -0.0684    0.5214 N   0  0  0  0  0  0  0  0  0  0  0  0
    4.8188   -1.0031    1.3280 C   0  0  0  0  0  0  0  0  0  0  0  0
    3.6812   -1.5389    0.8168 N   0  0  0  0  0  0  0  0  0  0  0  0
    3.3510   -0.9504   -0.3509 N   0  0  0  0  0  0  0  0  0  0  0  0
   -0.5780   -0.3627    0.1155 C   0  0  0  0  0  0  0  0  0  0  0  0
    0.1951   -1.5157    0.5301 N   0  0  0  0  0  4  0  0  0  0  0  0
    0.5324   -1.5840    1.7214 O   0  0  0  0  0  0  0  0  0  0  0  0
    0.4782   -2.3571   -0.3329 O   0  0  0  0  0  1  0  0  0  0  0  0
   -1.7940   -0.1492    0.7910 C   0  0  0  0  0  0  0  0  0  0  0  0
   -5.9077   -0.3404    1.1423 H   0  0  0  0  0  0  0  0  0  0  0  0
   -5.4701   -1.0953    2.6925 H   0  0  0  0  0  0  0  0  0  0  0  0
   -4.4804   -1.3609    1.2416 H   0  0  0  0  0  0  0  0  0  0  0  0
   -4.8827    1.3092    2.6822 H   0  0  0  0  0  0  0  0  0  0  0  0
   -3.4203    0.3604    2.8320 H   0  0  0  0  0  0  0  0  0  0  0  0
   -2.7853    2.6006   -0.9140 H   0  0  0  0  0  0  0  0  0  0  0  0
   -0.6834    2.2356   -2.0649 H   0  0  0  0  0  0  0  0  0  0  0  0
    1.7007   -0.5351   -1.1997 H   0  0  0  0  0  0  0  0  0  0  0  0
    3.3209    0.8416   -3.9338 H   0  0  0  0  0  0  0  0  0  0  0  0
    3.0823   -0.6208   -2.9958 H   0  0  0  0  0  0  0  0  0  0  0  0
    5.2624   -1.3202    2.2611 H   0  0  0  0  0  0  0  0  0  0  0  0
    3.0869   -2.2686    1.2002 H   0  0  0  0  0  0  0  0  0  0  0  0
   -2.0920   -0.8374    1.5751 H   0  0  0  0  0  0  0  0  0  0  0  0
  1  2  1  0
  2  3  1  0
  3  4  1  0
  4  5  2  0
  5  6  1  0
  6  7  2  0
  7  8  1  0
  8  9  1  0
  9 10  2  0
  9 11  1  0
 11 12  1  0
 12 13  1  0
 13 14  1  0
 14 15  2  0
 15 16  1  0
 16 17  1  0
  7 18  1  0
 18 19  1  0
 19 20  2  0
 19 21  1  0
 18 22  2  0
 22  4  1  0
 17 13  2  0
  1 23  1  0
  1 24  1  0
  1 25  1  0
  2 26  1  0
  2 27  1  0
  5 28  1  0
  6 29  1  0
  8 30  1  0
 11 31  1  0
 11 32  1  0
 15 33  1  0
 16 34  1  0
 22 35  1  0
M  CHG  2  19   1  21  -1
M  END
$$$$
