
     RDKit          3D

 57 58  0  0  0  0  0  0  0  0999 V2000
    4.6072   -4.0845    0.6748 C   0  0  0  0  0  0  0  0  0  0  0  0
    5.8371   -3.2772    1.0610 C   0  0  0  0  0  0  0  0  0  0  0  0
    5.6458   -1.7699    0.9005 C   0  0  0  0  0  0  0  0  0  0  0  0
    4.6279   -1.1783    1.8747 C   0  0  0  0  0  0  0  0  0  0  0  0
    4.5752    0.2430    1.7387 O   0  0  0  0  0  0  0  0  0  0  0  0
    3.6881    0.7845    0.8516 C   0  0  0  0  0  0  0  0  0  0  0  0
    3.5893    2.1759    0.9075 C   0  0  0  0  0  0  0  0  0  0  0  0
    2.7217    2.8710    0.0589 C   0  0  0  0  0  0  0  0  0  0  0  0
    1.9429    2.1835   -0.8808 C   0  0  0  0  0  0  0  0  0  0  0  0
    0.9582    2.8830   -1.8032 C   0  0  0  0  0  0  0  0  0  0  0  0
    1.4348    4.2448   -2.3112 C   0  0  0  0  0  0  0  0  0  0  0  0
   -0.3186    3.0280   -1.1200 N   0  0  0  0  0  0  0  0  0  0  0  0
   -1.3177    2.0893   -1.2507 C   0  0  0  0  0  0  0  0  0  0  0  0
   -1.2910    1.1646   -2.0556 O   0  0  0  0  0  0  0  0  0  0  0  0
   -2.4761    2.3289   -0.3127 C   0  0  0  0  0  0  0  0  0  0  0  0
   -3.5103    1.2236   -0.4451 C   0  0  0  0  0  0  0  0  0  0  0  0
   -4.8829    1.5121    0.6527 S   0  0  0  0  0  6  0  0  0  0  0  0
   -4.4115    1.3404    2.0149 O   0  0  0  0  0  0  0  0  0  0  0  0
   -5.4892    2.7714    0.2549 O   0  0  0  0  0  0  0  0  0  0  0  0
   -6.0681    0.2217    0.2759 C   0  0  0  0  0  0  0  0  0  0  0  0
   -5.4358   -1.1431    0.3392 C   0  0  0  0  0  0  0  0  0  0  0  0
   -5.1399   -1.8434   -0.8411 C   0  0  0  0  0  0  0  0  0  0  0  0
   -4.5500   -3.1080   -0.7886 C   0  0  0  0  0  0  0  0  0  0  0  0
   -4.2551   -3.6914    0.4427 C   0  0  0  0  0  0  0  0  0  0  0  0
   -4.5533   -3.0085    1.6189 C   0  0  0  0  0  0  0  0  0  0  0  0
   -4.1935   -3.7302    3.1385 Cl  0  0  0  0  0  0  0  0  0  0  0  0
   -5.1415   -1.7439    1.5733 C   0  0  0  0  0  0  0  0  0  0  0  0
    2.0444    0.7833   -0.9252 C   0  0  0  0  0  0  0  0  0  0  0  0
    2.9119    0.0902   -0.0725 C   0  0  0  0  0  0  0  0  0  0  0  0
    3.7718   -3.8953    1.3551 H   0  0  0  0  0  0  0  0  0  0  0  0
    4.8327   -5.1550    0.7171 H   0  0  0  0  0  0  0  0  0  0  0  0
    4.2849   -3.8466   -0.3439 H   0  0  0  0  0  0  0  0  0  0  0  0
    6.1195   -3.5116    2.0939 H   0  0  0  0  0  0  0  0  0  0  0  0
    6.6730   -3.5914    0.4247 H   0  0  0  0  0  0  0  0  0  0  0  0
    6.6101   -1.2700    1.0583 H   0  0  0  0  0  0  0  0  0  0  0  0
    5.3658   -1.5380   -0.1336 H   0  0  0  0  0  0  0  0  0  0  0  0
    3.6346   -1.6329    1.7993 H   0  0  0  0  0  0  0  0  0  0  0  0
    4.9673   -1.3742    2.8988 H   0  0  0  0  0  0  0  0  0  0  0  0
    4.1910    2.7261    1.6275 H   0  0  0  0  0  0  0  0  0  0  0  0
    2.6682    3.9519    0.1524 H   0  0  0  0  0  0  0  0  0  0  0  0
    0.8142    2.2533   -2.6908 H   0  0  0  0  0  0  0  0  0  0  0  0
    2.4182    4.1674   -2.7874 H   0  0  0  0  0  0  0  0  0  0  0  0
    0.7303    4.6408   -3.0516 H   0  0  0  0  0  0  0  0  0  0  0  0
    1.4995    4.9873   -1.5083 H   0  0  0  0  0  0  0  0  0  0  0  0
   -0.3251    3.6101   -0.2924 H   0  0  0  0  0  0  0  0  0  0  0  0
   -2.0955    2.3719    0.7144 H   0  0  0  0  0  0  0  0  0  0  0  0
   -2.9182    3.3027   -0.5517 H   0  0  0  0  0  0  0  0  0  0  0  0
   -3.0672    0.2568   -0.1897 H   0  0  0  0  0  0  0  0  0  0  0  0
   -3.9106    1.1779   -1.4632 H   0  0  0  0  0  0  0  0  0  0  0  0
   -6.4719    0.4304   -0.7202 H   0  0  0  0  0  0  0  0  0  0  0  0
   -6.8883    0.3037    0.9962 H   0  0  0  0  0  0  0  0  0  0  0  0
   -5.3637   -1.4126   -1.8162 H   0  0  0  0  0  0  0  0  0  0  0  0
   -4.3204   -3.6405   -1.7090 H   0  0  0  0  0  0  0  0  0  0  0  0
   -3.7961   -4.6758    0.4783 H   0  0  0  0  0  0  0  0  0  0  0  0
   -5.3631   -1.2243    2.5048 H   0  0  0  0  0  0  0  0  0  0  0  0
    1.4350    0.2165   -1.6291 H   0  0  0  0  0  0  0  0  0  0  0  0
    2.9540   -0.9894   -0.1647 H   0  0  0  0  0  0  0  0  0  0  0  0
  1  2  1  0
  2  3  1  0
  3  4  1  0
  4  5  1  0
  5  6  1  0
  6  7  2  0
  7  8  1  0
  8  9  2  0
  9 10  1  0
 10 11  1  0
 10 12  1  0
 12 13  1  0
 13 14  2  0
 13 15  1  0
 15 16  1  0
 16 17  1  0
 17 18  2  0
 17 19  2  0
 17 20  1  0
 20 21  1  0
 21 22  2  0
 22 23  1  0
 23 24  2  0
 24 25  1  0
 25 26  1  0
 25 27  2  0
  9 28  1  0
 28 29  2  0
 29  6  1  0
 27 21  1  0
  1 30  1  0
  1 31  1  0
  1 32  1  0
  2 33  1  0
  2 34  1  0
  3 35  1  0
  3 36  1  0
  4 37  1  0
  4 38  1  0
  7 39  1  0
  8 40  1  0
 10 41  1  0
 11 42  1  0
 11 43  1  0
 11 44  1  0
 12 45  1  0
 15 46  1  0
 15 47  1  0
 16 48  1  0
 16 49  1  0
 20 50  1  0
 20 51  1  0
 22 52  1  0
 23 53  1  0
 24 54  1  0
 27 55  1  0
 28 56  1  0
 29 57  1  0
M  END
$$$$
