
     RDKit          3D

 45 47  0  0  0  0  0  0  0  0999 V2000
   -5.9251   -0.5797   -1.3867 C   0  0  0  0  0  0  0  0  0  0  0  0
   -5.4850   -0.9347    0.0274 C   0  0  0  0  0  0  0  0  0  0  0  0
   -4.4047   -0.0564    0.4963 N   0  0  0  0  0  0  0  0  0  0  0  0
   -4.7507    0.9016    1.5547 C   0  0  0  0  0  0  0  0  0  0  0  0
   -5.3090    2.1911    0.9723 C   0  0  0  0  0  0  0  0  0  0  0  0
   -3.1038   -0.1594    0.0128 C   0  0  0  0  0  0  0  0  0  0  0  0
   -2.1421    0.8426    0.2270 C   0  0  0  0  0  0  0  0  0  0  0  0
   -0.8271    0.7470   -0.2573 C   0  0  0  0  0  0  0  0  0  0  0  0
   -0.4139   -0.3747   -0.9692 C   0  0  0  0  0  0  0  0  0  0  0  0
    0.9311   -0.5013   -1.5370 C   0  0  0  0  0  0  0  0  0  0  0  0
    2.1008   -0.3512   -0.9012 C   0  0  0  0  0  0  0  0  0  0  0  0
    2.4054   -0.0337    0.5210 C   0  0  0  0  0  0  0  0  0  0  0  0
    1.6545    0.1884    1.4454 O   0  0  0  0  0  0  0  0  0  0  0  0
    3.8713   -0.0323    0.6121 C   0  0  0  0  0  0  0  0  0  0  0  0
    4.6521    0.2100    1.7282 C   0  0  0  0  0  0  0  0  0  0  0  0
    6.0427    0.1566    1.5717 C   0  0  0  0  0  0  0  0  0  0  0  0
    6.6231   -0.1353    0.3140 C   0  0  0  0  0  0  0  0  0  0  0  0
    8.0940   -0.1962    0.1295 C   0  0  0  0  0  0  0  0  0  0  0  0
    8.6680   -0.4402   -0.9145 O   0  0  0  0  0  0  0  0  0  0  0  0
    8.7710    0.0520    1.2630 O   0  0  0  0  0  0  0  0  0  0  0  0
    5.8106   -0.3778   -0.8042 C   0  0  0  0  0  0  0  0  0  0  0  0
    4.4392   -0.3196   -0.6256 C   0  0  0  0  0  0  0  0  0  0  0  0
    3.3894   -0.5337   -1.6270 C   0  0  0  0  0  0  0  0  0  0  0  0
    3.5627   -0.8039   -2.7965 O   0  0  0  0  0  0  0  0  0  0  0  0
   -1.3501   -1.3773   -1.2146 C   0  0  0  0  0  0  0  0  0  0  0  0
   -2.6630   -1.2681   -0.7282 C   0  0  0  0  0  0  0  0  0  0  0  0
   -6.2535    0.4624   -1.4489 H   0  0  0  0  0  0  0  0  0  0  0  0
   -5.1197   -0.7173   -2.1138 H   0  0  0  0  0  0  0  0  0  0  0  0
   -6.7620   -1.2166   -1.6904 H   0  0  0  0  0  0  0  0  0  0  0  0
   -5.1980   -1.9898    0.0959 H   0  0  0  0  0  0  0  0  0  0  0  0
   -6.3607   -0.8372    0.6814 H   0  0  0  0  0  0  0  0  0  0  0  0
   -5.5036    0.4616    2.2209 H   0  0  0  0  0  0  0  0  0  0  0  0
   -3.8969    1.1134    2.2088 H   0  0  0  0  0  0  0  0  0  0  0  0
   -6.2427    2.0068    0.4317 H   0  0  0  0  0  0  0  0  0  0  0  0
   -5.5222    2.9055    1.7737 H   0  0  0  0  0  0  0  0  0  0  0  0
   -4.6069    2.6592    0.2758 H   0  0  0  0  0  0  0  0  0  0  0  0
   -2.3932    1.7500    0.7675 H   0  0  0  0  0  0  0  0  0  0  0  0
   -0.1414    1.5673   -0.0614 H   0  0  0  0  0  0  0  0  0  0  0  0
    0.9413   -0.7707   -2.5935 H   0  0  0  0  0  0  0  0  0  0  0  0
    4.1999    0.4327    2.6907 H   0  0  0  0  0  0  0  0  0  0  0  0
    6.6763    0.3438    2.4378 H   0  0  0  0  0  0  0  0  0  0  0  0
    9.7129   -0.0204    0.9987 H   0  0  0  0  0  0  0  0  0  0  0  0
    6.2354   -0.6042   -1.7791 H   0  0  0  0  0  0  0  0  0  0  0  0
   -1.0758   -2.2641   -1.7813 H   0  0  0  0  0  0  0  0  0  0  0  0
   -3.3306   -2.0963   -0.9430 H   0  0  0  0  0  0  0  0  0  0  0  0
  1  2  1  0
  2  3  1  0
  3  4  1  0
  4  5  1  0
  3  6  1  0
  6  7  2  0
  7  8  1  0
  8  9  2  0
  9 10  1  0
 10 11  2  3
 11 12  1  0
 12 13  2  0
 12 14  1  0
 14 15  2  0
 15 16  1  0
 16 17  2  0
 17 18  1  0
 18 19  2  0
 18 20  1  0
 17 21  1  0
 21 22  2  0
 22 23  1  0
 23 24  2  0
  9 25  1  0
 25 26  2  0
 26  6  1  0
 23 11  1  0
 22 14  1  0
  1 27  1  0
  1 28  1  0
  1 29  1  0
  2 30  1  0
  2 31  1  0
  4 32  1  0
  4 33  1  0
  5 34  1  0
  5 35  1  0
  5 36  1  0
  7 37  1  0
  8 38  1  0
 10 39  1  0
 15 40  1  0
 16 41  1  0
 20 42  1  0
 21 43  1  0
 25 44  1  0
 26 45  1  0
M  END
$$$$
