
     RDKit          3D

 56 60  0  0  0  0  0  0  0  0999 V2000
    2.2335   -3.2932    3.9418 C   0  0  0  0  0  0  0  0  0  0  0  0
    3.3998   -2.5084    3.3602 C   0  0  0  0  0  0  0  0  0  0  0  0
    3.1671   -2.1370    1.9850 N   0  0  0  0  0  0  0  0  0  0  0  0
    3.4945   -2.9184    0.8816 C   0  0  0  0  0  0  0  0  0  0  0  0
    4.0524   -3.9968    0.8363 O   0  0  0  0  0  0  0  0  0  0  0  0
    2.9951   -2.1642   -0.2872 C   0  0  0  0  0  0  0  0  0  0  0  0
    3.0407   -2.4525   -1.6337 C   0  0  0  0  0  0  0  0  0  0  0  0
    2.4564   -1.5265   -2.5034 C   0  0  0  0  0  0  0  0  0  0  0  0
    1.8453   -0.3468   -2.0142 C   0  0  0  0  0  0  0  0  0  0  0  0
    1.7880   -0.0508   -0.6189 C   0  0  0  0  0  0  0  0  0  0  0  0
    1.2164    1.0295    0.1213 C   0  0  0  0  0  0  0  0  0  0  0  0
    0.3760    2.3945   -0.6729 S   0  0  0  0  0  6  0  0  0  0  0  0
    0.8424    2.5092   -2.0384 O   0  0  0  0  0  0  0  0  0  0  0  0
    0.5112    3.5288    0.2202 O   0  0  0  0  0  0  0  0  0  0  0  0
   -1.2618    1.8825   -0.6489 N   0  0  0  0  0  0  0  0  0  0  0  0
   -2.2841    2.8800   -0.6726 C   0  0  0  0  0  0  0  0  0  0  0  0
   -3.0858    3.0352   -1.5881 O   0  0  0  0  0  0  0  0  0  0  0  0
   -2.4296    3.7005    0.5509 C   0  0  0  0  0  0  0  0  0  0  0  0
   -2.9181    5.0076    0.4651 C   0  0  0  0  0  0  0  0  0  0  0  0
   -3.0747    5.7572    1.6291 C   0  0  0  0  0  0  0  0  0  0  0  0
   -2.7450    5.1663    2.8404 C   0  0  0  0  0  0  0  0  0  0  0  0
   -2.2829    3.8995    2.9607 N   0  0  0  0  0  0  0  0  0  0  0  0
   -2.1377    3.1951    1.8113 C   0  0  0  0  0  0  0  0  0  0  0  0
   -1.5483    0.7258   -1.4602 C   0  0  0  0  0  0  0  0  0  0  0  0
   -1.5909    0.7770   -2.8550 C   0  0  0  0  0  0  0  0  0  0  0  0
   -1.8274   -0.3881   -3.5863 C   0  0  0  0  0  0  0  0  0  0  0  0
   -2.0207   -1.6112   -2.9388 C   0  0  0  0  0  0  0  0  0  0  0  0
   -2.2324   -2.6704   -3.7751 O   0  0  0  0  0  0  0  0  0  0  0  0
   -2.4431   -3.9407   -3.1699 C   0  0  0  0  0  0  0  0  0  0  0  0
   -1.9866   -1.6598   -1.5453 C   0  0  0  0  0  0  0  0  0  0  0  0
   -1.7574   -0.4930   -0.8085 C   0  0  0  0  0  0  0  0  0  0  0  0
    1.3129    1.0783    1.5415 C   0  0  0  0  0  0  0  0  0  0  0  0
    1.9468    0.0587    2.2663 C   0  0  0  0  0  0  0  0  0  0  0  0
    2.4846   -0.9900    1.5529 C   0  0  0  0  0  0  0  0  0  0  0  0
    2.3966   -1.0198    0.1819 C   0  0  0  0  0  0  0  0  0  0  0  0
    2.4392   -3.5643    4.9819 H   0  0  0  0  0  0  0  0  0  0  0  0
    1.3088   -2.7073    3.9168 H   0  0  0  0  0  0  0  0  0  0  0  0
    2.0593   -4.2147    3.3740 H   0  0  0  0  0  0  0  0  0  0  0  0
    3.5982   -1.6101    3.9566 H   0  0  0  0  0  0  0  0  0  0  0  0
    4.3003   -3.1318    3.3980 H   0  0  0  0  0  0  0  0  0  0  0  0
    3.5108   -3.3604   -1.9973 H   0  0  0  0  0  0  0  0  0  0  0  0
    2.4668   -1.7129   -3.5757 H   0  0  0  0  0  0  0  0  0  0  0  0
    1.4128    0.3278   -2.7493 H   0  0  0  0  0  0  0  0  0  0  0  0
   -3.1747    5.4403   -0.4998 H   0  0  0  0  0  0  0  0  0  0  0  0
   -3.4472    6.7752    1.5922 H   0  0  0  0  0  0  0  0  0  0  0  0
   -2.8531    5.7131    3.7736 H   0  0  0  0  0  0  0  0  0  0  0  0
   -1.7900    2.1751    1.9549 H   0  0  0  0  0  0  0  0  0  0  0  0
   -1.4409    1.7163   -3.3825 H   0  0  0  0  0  0  0  0  0  0  0  0
   -1.8605   -0.3411   -4.6717 H   0  0  0  0  0  0  0  0  0  0  0  0
   -3.3341   -3.9333   -2.5340 H   0  0  0  0  0  0  0  0  0  0  0  0
   -1.5587   -4.2618   -2.6105 H   0  0  0  0  0  0  0  0  0  0  0  0
   -2.6127   -4.6660   -3.9701 H   0  0  0  0  0  0  0  0  0  0  0  0
   -2.1343   -2.5877   -1.0029 H   0  0  0  0  0  0  0  0  0  0  0  0
   -1.7336   -0.5501    0.2759 H   0  0  0  0  0  0  0  0  0  0  0  0
    0.8967    1.9226    2.0940 H   0  0  0  0  0  0  0  0  0  0  0  0
    2.0135    0.1128    3.3465 H   0  0  0  0  0  0  0  0  0  0  0  0
  1  2  1  0
  2  3  1  0
  3  4  1  0
  4  5  2  0
  4  6  1  0
  6  7  2  0
  7  8  1  0
  8  9  2  0
  9 10  1  0
 10 11  2  0
 11 12  1  0
 12 13  2  0
 12 14  2  0
 12 15  1  0
 15 16  1  0
 16 17  2  0
 16 18  1  0
 18 19  2  0
 19 20  1  0
 20 21  2  0
 21 22  1  0
 22 23  2  0
 15 24  1  0
 24 25  2  0
 25 26  1  0
 26 27  2  0
 27 28  1  0
 28 29  1  0
 27 30  1  0
 30 31  2  0
 11 32  1  0
 32 33  2  0
 33 34  1  0
 34 35  2  0
 34  3  1  0
 35  6  1  0
 35 10  1  0
 23 18  1  0
 31 24  1  0
  1 36  1  0
  1 37  1  0
  1 38  1  0
  2 39  1  0
  2 40  1  0
  7 41  1  0
  8 42  1  0
  9 43  1  0
 19 44  1  0
 20 45  1  0
 21 46  1  0
 23 47  1  0
 25 48  1  0
 26 49  1  0
 29 50  1  0
 29 51  1  0
 29 52  1  0
 30 53  1  0
 31 54  1  0
 32 55  1  0
 33 56  1  0
M  END
$$$$
