
     RDKit          3D

 39 40  0  0  0  0  0  0  0  0999 V2000
   -3.0626   -2.0393   -0.8906 C   0  0  0  0  0  0  0  0  0  0  0  0
   -3.6232   -0.8285   -0.1606 C   0  0  0  0  0  0  0  0  0  0  0  0
   -2.6544    0.2690   -0.1013 N   0  0  0  0  0  0  0  0  0  0  0  0
   -2.6212    1.1870   -1.2415 C   0  0  0  0  0  0  0  0  0  0  0  0
   -3.5620    2.3652   -1.0438 C   0  0  0  0  0  0  0  0  0  0  0  0
   -1.7838    0.5037    0.9636 C   0  0  0  0  0  0  0  0  0  0  0  0
   -1.0310    1.4839    0.9670 O   0  0  0  0  0  0  0  0  0  0  0  0
   -1.8183   -0.4902    2.1275 C   0  0  0  0  0  0  0  0  0  0  0  0
   -0.3267   -0.3819    3.1674 S   0  0  0  0  0  0  0  0  0  0  0  0
    0.8431   -0.9054    2.0038 C   0  0  0  0  0  0  0  0  0  0  0  0
    0.9493   -2.1110    1.5045 N   0  0  0  0  0  0  0  0  0  0  0  0
    1.9567   -2.0722    0.5685 N   0  0  0  0  0  0  0  0  0  0  0  0
    2.4508   -0.8401    0.5086 C   0  0  0  0  0  0  0  0  0  0  0  0
    3.5242   -0.4163   -0.3987 C   0  0  0  0  0  0  0  0  0  0  0  0
    3.7930   -1.1911   -1.5335 C   0  0  0  0  0  0  0  0  0  0  0  0
    4.8096   -0.8026   -2.3904 C   0  0  0  0  0  0  0  0  0  0  0  0
    5.5732    0.2912   -2.1969 N   0  0  0  0  0  0  0  0  0  0  0  0
    5.3120    1.0205   -1.0931 C   0  0  0  0  0  0  0  0  0  0  0  0
    4.3179    0.7106   -0.1770 C   0  0  0  0  0  0  0  0  0  0  0  0
    1.7437   -0.0585    1.4065 N   0  0  0  0  0  0  0  0  0  0  0  0
    1.8158    1.3733    1.5937 N   0  0  0  0  0  0  0  0  0  0  0  0
   -3.7982   -2.8494   -0.9020 H   0  0  0  0  0  0  0  0  0  0  0  0
   -2.8118   -1.7939   -1.9276 H   0  0  0  0  0  0  0  0  0  0  0  0
   -2.1517   -2.4095   -0.4101 H   0  0  0  0  0  0  0  0  0  0  0  0
   -4.5271   -0.4690   -0.6650 H   0  0  0  0  0  0  0  0  0  0  0  0
   -3.9235   -1.1152    0.8512 H   0  0  0  0  0  0  0  0  0  0  0  0
   -2.8857    0.6369   -2.1511 H   0  0  0  0  0  0  0  0  0  0  0  0
   -1.6000    1.5601   -1.3792 H   0  0  0  0  0  0  0  0  0  0  0  0
   -3.5167    3.0365   -1.9068 H   0  0  0  0  0  0  0  0  0  0  0  0
   -4.5969    2.0283   -0.9265 H   0  0  0  0  0  0  0  0  0  0  0  0
   -3.2950    2.9383   -0.1500 H   0  0  0  0  0  0  0  0  0  0  0  0
   -2.6883   -0.2584    2.7492 H   0  0  0  0  0  0  0  0  0  0  0  0
   -1.9005   -1.5175    1.7665 H   0  0  0  0  0  0  0  0  0  0  0  0
    3.2195   -2.0876   -1.7506 H   0  0  0  0  0  0  0  0  0  0  0  0
    5.0421   -1.3808   -3.2800 H   0  0  0  0  0  0  0  0  0  0  0  0
    5.9464    1.8914   -0.9533 H   0  0  0  0  0  0  0  0  0  0  0  0
    4.1920    1.3466    0.6913 H   0  0  0  0  0  0  0  0  0  0  0  0
    0.9592    1.7844    1.1938 H   0  0  0  0  0  0  0  0  0  0  0  0
    1.7302    1.5916    2.5871 H   0  0  0  0  0  0  0  0  0  0  0  0
  1  2  1  0
  2  3  1  0
  3  4  1  0
  4  5  1  0
  3  6  1  0
  6  7  2  0
  6  8  1  0
  8  9  1  0
  9 10  1  0
 10 11  2  0
 11 12  1  0
 12 13  2  0
 13 14  1  0
 14 15  2  0
 15 16  1  0
 16 17  2  0
 17 18  1  0
 18 19  2  0
 13 20  1  0
 20 21  1  0
 20 10  1  0
 19 14  1  0
  1 22  1  0
  1 23  1  0
  1 24  1  0
  2 25  1  0
  2 26  1  0
  4 27  1  0
  4 28  1  0
  5 29  1  0
  5 30  1  0
  5 31  1  0
  8 32  1  0
  8 33  1  0
 15 34  1  0
 16 35  1  0
 18 36  1  0
 19 37  1  0
 21 38  1  0
 21 39  1  0
M  END
$$$$
