
     RDKit          3D

 63 67  0  0  0  0  0  0  0  0999 V2000
   -6.5000    5.7401    1.3435 C   0  0  0  0  0  0  0  0  0  0  0  0
   -6.6604    4.3288    1.2785 O   0  0  0  0  0  0  0  0  0  0  0  0
   -5.5308    3.5840    1.0698 C   0  0  0  0  0  0  0  0  0  0  0  0
   -4.2414    4.0809    0.9361 C   0  0  0  0  0  0  0  0  0  0  0  0
   -3.1642    3.2094    0.7262 C   0  0  0  0  0  0  0  0  0  0  0  0
   -3.3649    1.8078    0.6467 C   0  0  0  0  0  0  0  0  0  0  0  0
   -2.4284    0.7273    0.4396 C   0  0  0  0  0  0  0  0  0  0  0  0
   -0.9865    0.8615    0.2783 C   0  0  0  0  0  0  0  0  0  0  0  0
   -0.1812    1.1419    1.3865 C   0  0  0  0  0  0  0  0  0  0  0  0
    1.2058    1.2638    1.2405 C   0  0  0  0  0  0  0  0  0  0  0  0
    1.7951    1.1060   -0.0136 C   0  0  0  0  0  0  0  0  0  0  0  0
    3.1279    1.1821   -0.3010 O   0  0  0  0  0  0  0  0  0  0  0  0
    4.0673    1.3150    0.7653 C   0  0  0  0  0  0  0  0  0  0  0  0
    4.3613   -0.0133    1.4966 C   0  0  0  0  0  0  0  0  0  0  0  0
    5.0917   -1.0812    0.7937 N   0  0  0  0  0  0  0  0  0  0  0  0
    4.3566   -1.6305   -0.3609 C   0  0  0  0  0  0  0  0  0  0  0  0
    5.1265   -2.8109   -0.9770 C   0  0  0  0  0  0  0  0  0  0  0  0
    6.4431   -2.4141   -1.3899 O   0  0  0  0  0  0  0  0  0  0  0  0
    7.1742   -1.8913   -0.2715 C   0  0  0  0  0  0  0  0  0  0  0  0
    6.4458   -0.6939    0.3639 C   0  0  0  0  0  0  0  0  0  0  0  0
    0.9838    0.8412   -1.1210 C   0  0  0  0  0  0  0  0  0  0  0  0
   -0.3999    0.7191   -0.9805 C   0  0  0  0  0  0  0  0  0  0  0  0
   -3.0467   -0.5115    0.4175 C   0  0  0  0  0  0  0  0  0  0  0  0
   -2.4660   -1.8503    0.2514 C   0  0  0  0  0  0  0  0  0  0  0  0
   -1.9830   -2.5194    1.3880 C   0  0  0  0  0  0  0  0  0  0  0  0
   -1.4111   -3.7851    1.2753 C   0  0  0  0  0  0  0  0  0  0  0  0
   -1.3149   -4.3908    0.0262 C   0  0  0  0  0  0  0  0  0  0  0  0
   -1.7882   -3.7345   -1.1140 C   0  0  0  0  0  0  0  0  0  0  0  0
   -2.3656   -2.4630   -1.0149 C   0  0  0  0  0  0  0  0  0  0  0  0
   -2.8425   -1.7429   -2.0818 O   0  0  0  0  0  0  0  0  0  0  0  0
   -2.8153   -2.3633   -3.3591 C   0  0  0  0  0  0  0  0  0  0  0  0
   -4.7341   -0.3805    0.6534 S   0  0  0  0  0  0  0  0  0  0  0  0
   -4.6702    1.3325    0.7805 C   0  0  0  0  0  0  0  0  0  0  0  0
   -5.7553    2.2061    0.9931 C   0  0  0  0  0  0  0  0  0  0  0  0
   -6.1082    6.1369    0.4011 H   0  0  0  0  0  0  0  0  0  0  0  0
   -7.4881    6.1817    1.5051 H   0  0  0  0  0  0  0  0  0  0  0  0
   -5.8654    6.0266    2.1885 H   0  0  0  0  0  0  0  0  0  0  0  0
   -4.0276    5.1433    0.9871 H   0  0  0  0  0  0  0  0  0  0  0  0
   -2.1615    3.6170    0.6181 H   0  0  0  0  0  0  0  0  0  0  0  0
   -0.6275    1.2588    2.3714 H   0  0  0  0  0  0  0  0  0  0  0  0
    1.7885    1.4766    2.1293 H   0  0  0  0  0  0  0  0  0  0  0  0
    3.7476    2.0879    1.4743 H   0  0  0  0  0  0  0  0  0  0  0  0
    4.9900    1.7077    0.3253 H   0  0  0  0  0  0  0  0  0  0  0  0
    3.4220   -0.4452    1.8611 H   0  0  0  0  0  0  0  0  0  0  0  0
    4.9353    0.2307    2.3998 H   0  0  0  0  0  0  0  0  0  0  0  0
    4.2310   -0.8670   -1.1365 H   0  0  0  0  0  0  0  0  0  0  0  0
    3.3649   -1.9778   -0.0507 H   0  0  0  0  0  0  0  0  0  0  0  0
    5.2064   -3.6465   -0.2710 H   0  0  0  0  0  0  0  0  0  0  0  0
    4.5985   -3.1746   -1.8644 H   0  0  0  0  0  0  0  0  0  0  0  0
    7.3350   -2.6925    0.4601 H   0  0  0  0  0  0  0  0  0  0  0  0
    8.1558   -1.5749   -0.6383 H   0  0  0  0  0  0  0  0  0  0  0  0
    7.0289   -0.3410    1.2218 H   0  0  0  0  0  0  0  0  0  0  0  0
    6.3982    0.1153   -0.3744 H   0  0  0  0  0  0  0  0  0  0  0  0
    1.4345    0.7216   -2.1033 H   0  0  0  0  0  0  0  0  0  0  0  0
   -1.0125    0.5055   -1.8534 H   0  0  0  0  0  0  0  0  0  0  0  0
   -2.0527   -2.0506    2.3670 H   0  0  0  0  0  0  0  0  0  0  0  0
   -1.0410   -4.2955    2.1605 H   0  0  0  0  0  0  0  0  0  0  0  0
   -0.8681   -5.3779   -0.0641 H   0  0  0  0  0  0  0  0  0  0  0  0
   -1.6866   -4.2436   -2.0664 H   0  0  0  0  0  0  0  0  0  0  0  0
   -3.2612   -1.6684   -4.0773 H   0  0  0  0  0  0  0  0  0  0  0  0
   -3.4143   -3.2798   -3.3678 H   0  0  0  0  0  0  0  0  0  0  0  0
   -1.7869   -2.5575   -3.6802 H   0  0  0  0  0  0  0  0  0  0  0  0
   -6.7632    1.8130    1.0950 H   0  0  0  0  0  0  0  0  0  0  0  0
  1  2  1  0
  2  3  1  0
  3  4  2  0
  4  5  1  0
  5  6  2  0
  6  7  1  0
  7  8  1  0
  8  9  2  0
  9 10  1  0
 10 11  2  0
 11 12  1  0
 12 13  1  0
 13 14  1  0
 14 15  1  0
 15 16  1  0
 16 17  1  0
 17 18  1  0
 18 19  1  0
 19 20  1  0
 11 21  1  0
 21 22  2  0
  7 23  2  0
 23 24  1  0
 24 25  2  0
 25 26  1  0
 26 27  2  0
 27 28  1  0
 28 29  2  0
 29 30  1  0
 30 31  1  0
 23 32  1  0
 32 33  1  0
 33 34  2  0
 34  3  1  0
 33  6  1  0
 22  8  1  0
 29 24  1  0
 20 15  1  0
  1 35  1  0
  1 36  1  0
  1 37  1  0
  4 38  1  0
  5 39  1  0
  9 40  1  0
 10 41  1  0
 13 42  1  0
 13 43  1  0
 14 44  1  0
 14 45  1  0
 16 46  1  0
 16 47  1  0
 17 48  1  0
 17 49  1  0
 19 50  1  0
 19 51  1  0
 20 52  1  0
 20 53  1  0
 21 54  1  0
 22 55  1  0
 25 56  1  0
 26 57  1  0
 27 58  1  0
 28 59  1  0
 31 60  1  0
 31 61  1  0
 31 62  1  0
 34 63  1  0
M  END
$$$$
