
     RDKit          3D

 49 52  0  0  0  0  0  0  0  0999 V2000
    7.0928    0.2761    0.6845 C   0  0  0  0  0  0  0  0  0  0  0  0
    5.8795   -0.3601    1.3451 C   0  0  0  0  0  0  0  0  0  0  0  0
    4.6470   -0.2411    0.4865 C   0  0  0  0  0  0  0  0  0  0  0  0
    3.8078    0.8732    0.5917 C   0  0  0  0  0  0  0  0  0  0  0  0
    2.6690    0.9942   -0.2175 C   0  0  0  0  0  0  0  0  0  0  0  0
    2.3361    0.0061   -1.1526 C   0  0  0  0  0  0  0  0  0  0  0  0
    1.1529    0.0575   -2.0311 C   0  0  0  0  0  0  0  0  0  0  0  0
    0.1609    1.2016   -1.9821 C   0  0  0  0  0  0  0  0  0  0  0  0
   -1.0319    1.0348   -1.1477 N   0  0  0  0  0  0  0  0  0  0  0  0
   -0.7595    0.9171    0.2860 C   0  0  0  0  0  0  0  0  0  0  0  0
   -1.9959    0.6853    1.1117 C   0  0  0  0  0  0  0  0  0  0  0  0
   -3.1802    0.3177    0.5868 C   0  0  0  0  0  0  0  0  0  0  0  0
   -4.3744    0.1075    1.4307 C   0  0  0  0  0  0  0  0  0  0  0  0
   -4.2918   -0.6137    2.6316 C   0  0  0  0  0  0  0  0  0  0  0  0
   -5.4262   -0.8271    3.4198 C   0  0  0  0  0  0  0  0  0  0  0  0
   -6.6604   -0.3246    3.0159 C   0  0  0  0  0  0  0  0  0  0  0  0
   -6.7610    0.3886    1.8241 C   0  0  0  0  0  0  0  0  0  0  0  0
   -5.6261    0.6003    1.0357 C   0  0  0  0  0  0  0  0  0  0  0  0
   -3.3110    0.1173   -0.9047 C   0  0  0  0  0  0  0  0  0  0  0  0
   -1.9451   -0.0170   -1.6030 C   0  0  0  0  0  0  0  0  0  0  0  0
    1.0167   -0.9148   -2.9481 C   0  0  0  0  0  0  0  0  0  0  0  0
    1.9248   -2.0615   -3.0738 C   0  0  0  0  0  0  0  0  0  0  0  0
    1.7312   -2.9207   -3.9261 O   0  0  0  0  0  0  0  0  0  0  0  0
    2.9815   -2.1198   -2.1872 O   0  0  0  0  0  0  0  0  0  0  0  0
    3.1993   -1.0881   -1.2539 C   0  0  0  0  0  0  0  0  0  0  0  0
    4.3374   -1.2250   -0.4544 C   0  0  0  0  0  0  0  0  0  0  0  0
    6.9300    1.3430    0.4980 H   0  0  0  0  0  0  0  0  0  0  0  0
    7.9714    0.1747    1.3294 H   0  0  0  0  0  0  0  0  0  0  0  0
    7.3192   -0.2017   -0.2748 H   0  0  0  0  0  0  0  0  0  0  0  0
    5.6975    0.1114    2.3185 H   0  0  0  0  0  0  0  0  0  0  0  0
    6.0828   -1.4175    1.5538 H   0  0  0  0  0  0  0  0  0  0  0  0
    4.0350    1.6625    1.3062 H   0  0  0  0  0  0  0  0  0  0  0  0
    2.0602    1.8842   -0.0890 H   0  0  0  0  0  0  0  0  0  0  0  0
    0.6618    2.1375   -1.7081 H   0  0  0  0  0  0  0  0  0  0  0  0
   -0.1796    1.4084   -3.0075 H   0  0  0  0  0  0  0  0  0  0  0  0
   -0.2950    1.8462    0.6356 H   0  0  0  0  0  0  0  0  0  0  0  0
   -0.0714    0.0922    0.5019 H   0  0  0  0  0  0  0  0  0  0  0  0
   -1.8836    0.8381    2.1815 H   0  0  0  0  0  0  0  0  0  0  0  0
   -3.3426   -1.0312    2.9591 H   0  0  0  0  0  0  0  0  0  0  0  0
   -5.3443   -1.3894    4.3461 H   0  0  0  0  0  0  0  0  0  0  0  0
   -7.5429   -0.4898    3.6283 H   0  0  0  0  0  0  0  0  0  0  0  0
   -7.7223    0.7836    1.5062 H   0  0  0  0  0  0  0  0  0  0  0  0
   -5.7309    1.1705    0.1162 H   0  0  0  0  0  0  0  0  0  0  0  0
   -3.8965   -0.7856   -1.1175 H   0  0  0  0  0  0  0  0  0  0  0  0
   -3.8492    0.9705   -1.3368 H   0  0  0  0  0  0  0  0  0  0  0  0
   -1.5279   -1.0135   -1.4078 H   0  0  0  0  0  0  0  0  0  0  0  0
   -2.1142    0.0596   -2.6840 H   0  0  0  0  0  0  0  0  0  0  0  0
    0.1922   -0.9216   -3.6526 H   0  0  0  0  0  0  0  0  0  0  0  0
    4.9767   -2.0960   -0.5760 H   0  0  0  0  0  0  0  0  0  0  0  0
  1  2  1  0
  2  3  1  0
  3  4  2  0
  4  5  1  0
  5  6  2  0
  6  7  1  0
  7  8  1  0
  8  9  1  0
  9 10  1  0
 10 11  1  0
 11 12  2  0
 12 13  1  0
 13 14  2  0
 14 15  1  0
 15 16  2  0
 16 17  1  0
 17 18  2  0
 12 19  1  0
 19 20  1  0
  7 21  2  0
 21 22  1  0
 22 23  2  0
 22 24  1  0
 24 25  1  0
 25 26  2  0
 26  3  1  0
 25  6  1  0
 20  9  1  0
 18 13  1  0
  1 27  1  0
  1 28  1  0
  1 29  1  0
  2 30  1  0
  2 31  1  0
  4 32  1  0
  5 33  1  0
  8 34  1  0
  8 35  1  0
 10 36  1  0
 10 37  1  0
 11 38  1  0
 14 39  1  0
 15 40  1  0
 16 41  1  0
 17 42  1  0
 18 43  1  0
 19 44  1  0
 19 45  1  0
 20 46  1  0
 20 47  1  0
 21 48  1  0
 26 49  1  0
M  END
$$$$
