
     RDKit          3D

 74 78  0  0  0  0  0  0  0  0999 V2000
    2.9923    6.2905    1.0135 C   0  0  0  0  0  0  0  0  0  0  0  0
    2.2864    4.9750    0.8628 C   0  0  0  0  0  0  0  0  0  0  0  0
    2.9745    3.7726    1.0454 C   0  0  0  0  0  0  0  0  0  0  0  0
    2.3360    2.5309    0.8811 C   0  0  0  0  0  0  0  0  0  0  0  0
    3.1786    1.2995    1.0912 C   0  0  0  0  0  0  0  0  0  0  0  0
    0.9758    2.5071    0.5040 C   0  0  0  0  0  0  0  0  0  0  0  0
    0.3000    1.2727    0.3006 N   0  0  0  0  0  0  0  0  0  0  0  0
   -0.1088    0.4610    1.3600 C   0  0  0  0  0  0  0  0  0  0  0  0
   -0.5578   -0.6762    1.1836 O   0  0  0  0  0  0  0  0  0  0  0  0
   -0.0454    1.0689    2.7694 C   0  0  0  0  0  0  0  0  0  0  0  0
   -0.3013    0.0430    3.7858 N   0  0  0  0  0  0  0  0  0  0  0  0
   -1.5667   -0.5404    4.0229 C   0  0  0  0  0  0  0  0  0  0  0  0
   -2.6401   -0.0397    3.7463 O   0  0  0  0  0  0  0  0  0  0  0  0
   -1.3823   -1.8504    4.6737 C   0  0  0  0  0  0  0  0  0  0  0  0
   -2.3874   -2.7136    5.0810 C   0  0  0  0  0  0  0  0  0  0  0  0
   -2.0139   -3.9222    5.6793 C   0  0  0  0  0  0  0  0  0  0  0  0
   -0.6557   -4.2492    5.8579 C   0  0  0  0  0  0  0  0  0  0  0  0
    0.3505   -3.3741    5.4419 C   0  0  0  0  0  0  0  0  0  0  0  0
   -0.0476   -2.1870    4.8551 C   0  0  0  0  0  0  0  0  0  0  0  0
    0.9886   -0.9260    4.2580 S   0  0  0  0  0  6  0  0  0  0  0  0
    1.6455   -0.3024    5.3832 O   0  0  0  0  0  0  0  0  0  0  0  0
    1.7064   -1.4119    3.1056 O   0  0  0  0  0  0  0  0  0  0  0  0
    0.1982    0.7933   -1.0974 C   0  0  0  0  0  0  0  0  0  0  0  0
   -1.2550    0.3935   -1.4955 C   0  0  0  0  0  0  0  0  0  0  0  0
   -2.2482    0.8206   -0.9032 O   0  0  0  0  0  0  0  0  0  0  0  0
   -1.3825   -0.3501   -2.6570 N   0  0  0  0  0  0  0  0  0  0  0  0
   -2.6691   -0.9075   -3.0381 C   0  0  0  0  0  0  0  0  0  0  0  0
   -2.6317   -1.4386   -4.4693 C   0  0  0  0  0  0  0  0  0  0  0  0
   -3.9327   -2.0891   -4.9050 C   0  0  0  0  0  0  0  0  0  0  0  0
   -3.4527   -3.0366   -5.9756 C   0  0  0  0  0  0  0  0  0  0  0  0
   -2.1388   -3.5226   -5.4011 C   0  0  0  0  0  0  0  0  0  0  0  0
   -1.6142   -2.4574   -4.5938 O   0  0  0  0  0  0  0  0  0  0  0  0
    1.2984   -0.1980   -1.4860 C   0  0  0  0  0  0  0  0  0  0  0  0
    1.2515   -1.5556   -1.1251 C   0  0  0  0  0  0  0  0  0  0  0  0
    2.2757   -2.4291   -1.4967 C   0  0  0  0  0  0  0  0  0  0  0  0
    3.3527   -1.9528   -2.2318 C   0  0  0  0  0  0  0  0  0  0  0  0
    4.3335   -2.7921   -2.5893 F   0  0  0  0  0  0  0  0  0  0  0  0
    3.4278   -0.6169   -2.6000 C   0  0  0  0  0  0  0  0  0  0  0  0
    2.4061    0.2589   -2.2277 C   0  0  0  0  0  0  0  0  0  0  0  0
    0.2688    3.7150    0.3193 C   0  0  0  0  0  0  0  0  0  0  0  0
   -1.1883    3.7459   -0.0591 C   0  0  0  0  0  0  0  0  0  0  0  0
    0.9411    4.9359    0.4878 C   0  0  0  0  0  0  0  0  0  0  0  0
    3.8623    6.1981    1.6720 H   0  0  0  0  0  0  0  0  0  0  0  0
    2.3273    7.0381    1.4580 H   0  0  0  0  0  0  0  0  0  0  0  0
    3.3287    6.6488    0.0359 H   0  0  0  0  0  0  0  0  0  0  0  0
    4.0285    3.7975    1.3208 H   0  0  0  0  0  0  0  0  0  0  0  0
    3.6953    1.3623    2.0553 H   0  0  0  0  0  0  0  0  0  0  0  0
    3.9262    1.2202    0.2958 H   0  0  0  0  0  0  0  0  0  0  0  0
    2.5986    0.3759    1.1049 H   0  0  0  0  0  0  0  0  0  0  0  0
    0.9275    1.5218    2.9718 H   0  0  0  0  0  0  0  0  0  0  0  0
   -0.8050    1.8543    2.8476 H   0  0  0  0  0  0  0  0  0  0  0  0
   -3.4338   -2.4583    4.9370 H   0  0  0  0  0  0  0  0  0  0  0  0
   -2.7820   -4.6203    6.0090 H   0  0  0  0  0  0  0  0  0  0  0  0
   -0.3896   -5.1961    6.3245 H   0  0  0  0  0  0  0  0  0  0  0  0
    1.4004   -3.6166    5.5732 H   0  0  0  0  0  0  0  0  0  0  0  0
    0.3550    1.6772   -1.7363 H   0  0  0  0  0  0  0  0  0  0  0  0
   -0.5798   -0.8855   -2.9734 H   0  0  0  0  0  0  0  0  0  0  0  0
   -3.4446   -0.1420   -2.9259 H   0  0  0  0  0  0  0  0  0  0  0  0
   -2.8765   -1.7171   -2.3285 H   0  0  0  0  0  0  0  0  0  0  0  0
   -2.3567   -0.6339   -5.1629 H   0  0  0  0  0  0  0  0  0  0  0  0
   -4.3816   -2.6604   -4.0834 H   0  0  0  0  0  0  0  0  0  0  0  0
   -4.6705   -1.3658   -5.2633 H   0  0  0  0  0  0  0  0  0  0  0  0
   -3.2729   -2.4855   -6.9063 H   0  0  0  0  0  0  0  0  0  0  0  0
   -4.1514   -3.8495   -6.1894 H   0  0  0  0  0  0  0  0  0  0  0  0
   -2.2878   -4.3907   -4.7500 H   0  0  0  0  0  0  0  0  0  0  0  0
   -1.4143   -3.7881   -6.1761 H   0  0  0  0  0  0  0  0  0  0  0  0
    0.4160   -1.9537   -0.5522 H   0  0  0  0  0  0  0  0  0  0  0  0
    2.2367   -3.4759   -1.2135 H   0  0  0  0  0  0  0  0  0  0  0  0
    4.2808   -0.2646   -3.1715 H   0  0  0  0  0  0  0  0  0  0  0  0
    2.4854    1.3066   -2.5137 H   0  0  0  0  0  0  0  0  0  0  0  0
   -1.6158    4.7449    0.0832 H   0  0  0  0  0  0  0  0  0  0  0  0
   -1.7677    3.0649    0.5719 H   0  0  0  0  0  0  0  0  0  0  0  0
   -1.3119    3.4769   -1.1120 H   0  0  0  0  0  0  0  0  0  0  0  0
    0.4058    5.8716    0.3319 H   0  0  0  0  0  0  0  0  0  0  0  0
  1  2  1  0
  2  3  2  0
  3  4  1  0
  4  5  1  0
  4  6  2  0
  6  7  1  0
  7  8  1  0
  8  9  2  0
  8 10  1  0
 10 11  1  0
 11 12  1  0
 12 13  2  0
 12 14  1  0
 14 15  2  0
 15 16  1  0
 16 17  2  0
 17 18  1  0
 18 19  2  0
 19 20  1  0
 20 21  2  0
 20 22  2  0
  7 23  1  0
 23 24  1  0
 24 25  2  0
 24 26  1  0
 26 27  1  0
 27 28  1  0
 28 29  1  0
 29 30  1  0
 30 31  1  0
 31 32  1  0
 23 33  1  0
 33 34  2  0
 34 35  1  0
 35 36  2  0
 36 37  1  0
 36 38  1  0
 38 39  2  0
  6 40  1  0
 40 41  1  0
 40 42  2  0
 42  2  1  0
 20 11  1  0
 32 28  1  0
 39 33  1  0
 19 14  1  0
  1 43  1  0
  1 44  1  0
  1 45  1  0
  3 46  1  0
  5 47  1  0
  5 48  1  0
  5 49  1  0
 10 50  1  0
 10 51  1  0
 15 52  1  0
 16 53  1  0
 17 54  1  0
 18 55  1  0
 23 56  1  0
 26 57  1  0
 27 58  1  0
 27 59  1  0
 28 60  1  0
 29 61  1  0
 29 62  1  0
 30 63  1  0
 30 64  1  0
 31 65  1  0
 31 66  1  0
 34 67  1  0
 35 68  1  0
 38 69  1  0
 39 70  1  0
 41 71  1  0
 41 72  1  0
 41 73  1  0
 42 74  1  0
M  END
$$$$
