
     RDKit          3D

 52 54  0  0  0  0  0  0  0  0999 V2000
    3.2190    2.7012    0.3605 C   0  0  0  0  0  0  0  0  0  0  0  0
    3.1864    1.1747    0.2639 C   0  0  0  0  0  0  0  0  0  0  0  0
    4.0657    0.4988    1.3313 C   0  0  0  0  0  0  0  0  0  0  0  0
    5.5638    0.8141    1.2450 C   0  0  0  0  0  0  0  0  0  0  0  0
    6.2210    0.3134   -0.0165 C   0  0  0  0  0  0  0  0  0  0  0  0
    6.6297    1.2105   -1.0121 C   0  0  0  0  0  0  0  0  0  0  0  0
    7.2279    0.7436   -2.1838 C   0  0  0  0  0  0  0  0  0  0  0  0
    7.4257   -0.6228   -2.3708 C   0  0  0  0  0  0  0  0  0  0  0  0
    7.0262   -1.5239   -1.3864 C   0  0  0  0  0  0  0  0  0  0  0  0
    6.4269   -1.0589   -0.2147 C   0  0  0  0  0  0  0  0  0  0  0  0
    1.8101    0.7006    0.4125 N   0  0  0  0  0  0  0  0  0  0  0  0
    0.9156    0.7448   -0.6396 C   0  0  0  0  0  0  0  0  0  0  0  0
    1.2093    1.1076   -1.7719 O   0  0  0  0  0  0  0  0  0  0  0  0
   -0.4851    0.3569   -0.3192 C   0  0  0  0  0  0  0  0  0  0  0  0
   -0.7817   -0.5945    0.6617 C   0  0  0  0  0  0  0  0  0  0  0  0
   -2.1138   -0.9325    0.9272 C   0  0  0  0  0  0  0  0  0  0  0  0
   -3.1628   -0.3285    0.2202 C   0  0  0  0  0  0  0  0  0  0  0  0
   -4.4750   -0.7289    0.5480 N   0  0  0  0  0  0  0  0  0  0  0  0
   -5.6568   -0.2016    0.0590 C   0  0  0  0  0  0  0  0  0  0  0  0
   -5.7815    0.7618   -0.6862 O   0  0  0  0  0  0  0  0  0  0  0  0
   -6.8914   -0.8744    0.5501 C   0  0  0  0  0  0  0  0  0  0  0  0
   -6.9481   -2.2640    0.7304 C   0  0  0  0  0  0  0  0  0  0  0  0
   -8.1250   -2.8596    1.1889 C   0  0  0  0  0  0  0  0  0  0  0  0
   -9.2458   -2.0734    1.4598 C   0  0  0  0  0  0  0  0  0  0  0  0
   -9.1906   -0.6938    1.2615 C   0  0  0  0  0  0  0  0  0  0  0  0
  -10.7164    0.3638    1.6185 Br  0  0  0  0  0  0  0  0  0  0  0  0
   -8.0223   -0.0892    0.8029 C   0  0  0  0  0  0  0  0  0  0  0  0
   -2.8575    0.6067   -0.7704 C   0  0  0  0  0  0  0  0  0  0  0  0
   -1.5262    0.9440   -1.0433 C   0  0  0  0  0  0  0  0  0  0  0  0
    2.5440    3.1570   -0.3721 H   0  0  0  0  0  0  0  0  0  0  0  0
    2.8996    3.0395    1.3524 H   0  0  0  0  0  0  0  0  0  0  0  0
    4.2201    3.0968    0.1691 H   0  0  0  0  0  0  0  0  0  0  0  0
    3.5257    0.8802   -0.7360 H   0  0  0  0  0  0  0  0  0  0  0  0
    3.7103    0.7946    2.3277 H   0  0  0  0  0  0  0  0  0  0  0  0
    3.9190   -0.5883    1.2752 H   0  0  0  0  0  0  0  0  0  0  0  0
    6.0718    0.3458    2.0986 H   0  0  0  0  0  0  0  0  0  0  0  0
    5.7375    1.8896    1.3650 H   0  0  0  0  0  0  0  0  0  0  0  0
    6.4812    2.2805   -0.8870 H   0  0  0  0  0  0  0  0  0  0  0  0
    7.5360    1.4470   -2.9529 H   0  0  0  0  0  0  0  0  0  0  0  0
    7.8886   -0.9849   -3.2848 H   0  0  0  0  0  0  0  0  0  0  0  0
    7.1787   -2.5899   -1.5324 H   0  0  0  0  0  0  0  0  0  0  0  0
    6.1202   -1.7759    0.5433 H   0  0  0  0  0  0  0  0  0  0  0  0
    1.4326    0.6574    1.3492 H   0  0  0  0  0  0  0  0  0  0  0  0
    0.0104   -1.1016    1.2054 H   0  0  0  0  0  0  0  0  0  0  0  0
   -2.3162   -1.6785    1.6916 H   0  0  0  0  0  0  0  0  0  0  0  0
   -4.5522   -1.4298    1.2731 H   0  0  0  0  0  0  0  0  0  0  0  0
   -6.0982   -2.8965    0.4872 H   0  0  0  0  0  0  0  0  0  0  0  0
   -8.1748   -3.9379    1.3232 H   0  0  0  0  0  0  0  0  0  0  0  0
  -10.1597   -2.5452    1.8130 H   0  0  0  0  0  0  0  0  0  0  0  0
   -7.9825    0.9860    0.6407 H   0  0  0  0  0  0  0  0  0  0  0  0
   -3.6316    1.0880   -1.3608 H   0  0  0  0  0  0  0  0  0  0  0  0
   -1.3077    1.6698   -1.8248 H   0  0  0  0  0  0  0  0  0  0  0  0
  1  2  1  0
  2  3  1  0
  3  4  1  0
  4  5  1  0
  5  6  2  0
  6  7  1  0
  7  8  2  0
  8  9  1  0
  9 10  2  0
  2 11  1  0
 11 12  1  0
 12 13  2  0
 12 14  1  0
 14 15  2  0
 15 16  1  0
 16 17  2  0
 17 18  1  0
 18 19  1  0
 19 20  2  0
 19 21  1  0
 21 22  2  0
 22 23  1  0
 23 24  2  0
 24 25  1  0
 25 26  1  0
 25 27  2  0
 17 28  1  0
 28 29  2  0
 10  5  1  0
 29 14  1  0
 27 21  1  0
  1 30  1  0
  1 31  1  0
  1 32  1  0
  2 33  1  0
  3 34  1  0
  3 35  1  0
  4 36  1  0
  4 37  1  0
  6 38  1  0
  7 39  1  0
  8 40  1  0
  9 41  1  0
 10 42  1  0
 11 43  1  0
 15 44  1  0
 16 45  1  0
 18 46  1  0
 22 47  1  0
 23 48  1  0
 24 49  1  0
 27 50  1  0
 28 51  1  0
 29 52  1  0
M  END
$$$$
