
     RDKit          3D

 55 58  0  0  0  0  0  0  0  0999 V2000
   -0.7396    2.5149   -2.8787 C   0  0  0  0  0  0  0  0  0  0  0  0
   -1.2640    1.7749   -1.7711 O   0  0  0  0  0  0  0  0  0  0  0  0
   -2.4175    2.2793   -1.2616 C   0  0  0  0  0  0  0  0  0  0  0  0
   -2.9848    3.2770   -1.6807 O   0  0  0  0  0  0  0  0  0  0  0  0
   -2.9407    1.4538   -0.1258 C   0  0  0  0  0  0  0  0  0  0  0  0
   -4.2260    1.8148    0.3270 C   0  0  0  0  0  0  0  0  0  0  0  0
   -4.8422    1.1315    1.3768 C   0  0  0  0  0  0  0  0  0  0  0  0
   -6.0893    1.4236    1.8682 O   0  0  0  0  0  0  0  0  0  0  0  0
   -6.7859    2.5256    1.3032 C   0  0  0  0  0  0  0  0  0  0  0  0
   -4.1676    0.0641    1.9910 C   0  0  0  0  0  0  0  0  0  0  0  0
   -4.8389   -0.5627    3.0123 O   0  0  0  0  0  0  0  0  0  0  0  0
   -4.1778   -1.6243    3.6879 C   0  0  0  0  0  0  0  0  0  0  0  0
   -2.8883   -0.2968    1.5458 C   0  0  0  0  0  0  0  0  0  0  0  0
   -2.2551    0.3850    0.4952 C   0  0  0  0  0  0  0  0  0  0  0  0
   -0.9585    0.0176    0.0568 N   0  0  0  0  0  0  0  0  0  0  0  0
   -0.1250   -0.9712    0.5381 C   0  0  0  0  0  0  0  0  0  0  0  0
   -0.3087   -1.7087    1.4962 O   0  0  0  0  0  0  0  0  0  0  0  0
    1.1663   -1.0684   -0.1839 C   0  0  0  0  0  0  0  0  0  0  0  0
    2.3151   -0.8953    0.5900 C   0  0  0  0  0  0  0  0  0  0  0  0
    3.5463   -0.9014   -0.0413 C   0  0  0  0  0  0  0  0  0  0  0  0
    4.8266   -0.7121    0.6754 C   0  0  0  0  0  0  0  0  0  0  0  0
    6.0136   -1.2913    0.1866 C   0  0  0  0  0  0  0  0  0  0  0  0
    7.2349   -1.1306    0.8482 C   0  0  0  0  0  0  0  0  0  0  0  0
    7.2990   -0.3796    2.0170 C   0  0  0  0  0  0  0  0  0  0  0  0
    6.1447    0.2124    2.5201 C   0  0  0  0  0  0  0  0  0  0  0  0
    4.9238    0.0492    1.8556 C   0  0  0  0  0  0  0  0  0  0  0  0
    3.6440   -1.0829   -1.3827 N   0  0  0  0  0  0  0  0  0  0  0  0
    2.5403   -1.2830   -2.1219 C   0  0  0  0  0  0  0  0  0  0  0  0
    2.6921   -1.4835   -3.4875 C   0  0  0  0  0  0  0  0  0  0  0  0
    1.6015   -1.7163   -4.3282 C   0  0  0  0  0  0  0  0  0  0  0  0
    0.3219   -1.7605   -3.7957 C   0  0  0  0  0  0  0  0  0  0  0  0
    0.1424   -1.5595   -2.4287 C   0  0  0  0  0  0  0  0  0  0  0  0
    1.2462   -1.2993   -1.5743 C   0  0  0  0  0  0  0  0  0  0  0  0
    0.1804    2.0229   -3.2065 H   0  0  0  0  0  0  0  0  0  0  0  0
   -0.4972    3.5379   -2.5745 H   0  0  0  0  0  0  0  0  0  0  0  0
   -1.4503    2.5125   -3.7110 H   0  0  0  0  0  0  0  0  0  0  0  0
   -4.7336    2.6409   -0.1637 H   0  0  0  0  0  0  0  0  0  0  0  0
   -7.0050    2.3524    0.2446 H   0  0  0  0  0  0  0  0  0  0  0  0
   -7.7410    2.6221    1.8284 H   0  0  0  0  0  0  0  0  0  0  0  0
   -6.2321    3.4593    1.4466 H   0  0  0  0  0  0  0  0  0  0  0  0
   -4.8461   -1.9859    4.4753 H   0  0  0  0  0  0  0  0  0  0  0  0
   -3.9809   -2.4612    3.0100 H   0  0  0  0  0  0  0  0  0  0  0  0
   -3.2578   -1.2756    4.1684 H   0  0  0  0  0  0  0  0  0  0  0  0
   -2.3818   -1.1239    2.0262 H   0  0  0  0  0  0  0  0  0  0  0  0
   -0.5970    0.5727   -0.7172 H   0  0  0  0  0  0  0  0  0  0  0  0
    2.2286   -0.7654    1.6641 H   0  0  0  0  0  0  0  0  0  0  0  0
    5.9894   -1.8840   -0.7270 H   0  0  0  0  0  0  0  0  0  0  0  0
    8.1326   -1.5929    0.4460 H   0  0  0  0  0  0  0  0  0  0  0  0
    8.2474   -0.2523    2.5321 H   0  0  0  0  0  0  0  0  0  0  0  0
    6.1920    0.8069    3.4291 H   0  0  0  0  0  0  0  0  0  0  0  0
    4.0500    0.5448    2.2721 H   0  0  0  0  0  0  0  0  0  0  0  0
    3.6946   -1.4648   -3.9106 H   0  0  0  0  0  0  0  0  0  0  0  0
    1.7605   -1.8755   -5.3918 H   0  0  0  0  0  0  0  0  0  0  0  0
   -0.5327   -1.9607   -4.4374 H   0  0  0  0  0  0  0  0  0  0  0  0
   -0.8690   -1.6268   -2.0323 H   0  0  0  0  0  0  0  0  0  0  0  0
  1  2  1  0
  2  3  1  0
  3  4  2  0
  3  5  1  0
  5  6  2  0
  6  7  1  0
  7  8  1  0
  8  9  1  0
  7 10  2  0
 10 11  1  0
 11 12  1  0
 10 13  1  0
 13 14  2  0
 14 15  1  0
 15 16  1  0
 16 17  2  0
 16 18  1  0
 18 19  2  0
 19 20  1  0
 20 21  1  0
 21 22  2  0
 22 23  1  0
 23 24  2  0
 24 25  1  0
 25 26  2  0
 20 27  2  0
 27 28  1  0
 28 29  2  0
 29 30  1  0
 30 31  2  0
 31 32  1  0
 32 33  2  0
 14  5  1  0
 33 18  1  0
 26 21  1  0
 33 28  1  0
  1 34  1  0
  1 35  1  0
  1 36  1  0
  6 37  1  0
  9 38  1  0
  9 39  1  0
  9 40  1  0
 12 41  1  0
 12 42  1  0
 12 43  1  0
 13 44  1  0
 15 45  1  0
 19 46  1  0
 22 47  1  0
 23 48  1  0
 24 49  1  0
 25 50  1  0
 26 51  1  0
 29 52  1  0
 30 53  1  0
 31 54  1  0
 32 55  1  0
M  END
$$$$
