
     RDKit          3D

 67 71  0  0  0  0  0  0  0  0999 V2000
    4.7184   -2.6893    1.7891 O   0  0  0  0  0  0  0  0  0  0  0  0
    5.8579   -2.8302    1.3736 C   0  0  0  0  0  0  0  0  0  0  0  0
    6.8920   -3.7548    1.9697 C   0  0  0  0  0  0  0  0  0  0  0  0
    8.0260   -3.7142    0.9538 C   0  0  0  0  0  0  0  0  0  0  0  0
    7.8798   -2.3488    0.3146 C   0  0  0  0  0  0  0  0  0  0  0  0
    6.4539   -2.1357    0.3215 N   0  0  0  0  0  0  0  0  0  0  0  0
    5.8633   -0.9330   -0.2435 C   0  0  0  0  0  0  0  0  0  0  0  0
    4.6002   -1.2380   -1.0501 C   0  0  0  0  0  0  0  0  0  0  0  0
    4.0070    0.0166   -1.6856 C   0  0  0  0  0  0  0  0  0  0  0  0
    3.4586    0.8987   -0.6705 N   0  0  0  0  0  0  0  0  0  0  0  0
    2.7673    2.0541   -0.9367 C   0  0  0  0  0  0  0  0  0  0  0  0
    3.0560    2.8865   -2.1501 C   0  0  0  0  0  0  0  0  0  0  0  0
    2.3366    3.9961   -2.3568 C   0  0  0  0  0  0  0  0  0  0  0  0
    1.3389    4.3412   -1.4279 C   0  0  0  0  0  0  0  0  0  0  0  0
    0.4851    5.3380   -1.3668 N   0  0  0  0  0  0  0  0  0  0  0  0
   -0.2646    5.1737   -0.2215 N   0  0  0  0  0  0  0  0  0  0  0  0
    0.1484    4.0787    0.3898 C   0  0  0  0  0  0  0  0  0  0  0  0
   -0.3686    3.4985    1.6614 C   0  0  0  0  0  0  0  0  0  0  0  0
   -1.2576    2.2783    1.4196 C   0  0  0  0  0  0  0  0  0  0  0  0
   -2.6863    2.6425    1.0416 C   0  0  0  0  0  0  0  0  0  0  0  0
   -3.1189    3.7854    1.1847 O   0  0  0  0  0  0  0  0  0  0  0  0
   -3.4942    1.6095    0.5856 N   0  0  0  0  0  0  0  0  0  0  0  0
   -4.8973    1.8906    0.2683 C   0  0  0  0  0  0  0  0  0  0  0  0
   -5.8479    0.7708    0.7337 C   0  0  0  0  0  0  0  0  0  0  0  0
   -5.4388   -0.5598    0.2300 N   0  0  0  0  0  0  0  0  0  0  0  0
   -6.4172   -1.5011   -0.0755 C   0  0  0  0  0  0  0  0  0  0  0  0
   -6.2351   -2.4864   -1.0600 C   0  0  0  0  0  0  0  0  0  0  0  0
   -7.2268   -3.4297   -1.3612 C   0  0  0  0  0  0  0  0  0  0  0  0
   -8.4356   -3.4164   -0.6757 C   0  0  0  0  0  0  0  0  0  0  0  0
   -8.6437   -2.4671    0.3156 C   0  0  0  0  0  0  0  0  0  0  0  0
   -7.6457   -1.5284    0.6095 C   0  0  0  0  0  0  0  0  0  0  0  0
   -4.0787   -0.6662   -0.3203 C   0  0  0  0  0  0  0  0  0  0  0  0
   -3.0819    0.2060    0.4700 C   0  0  0  0  0  0  0  0  0  0  0  0
    1.1720    3.5152   -0.3376 N   0  0  0  0  0  0  0  0  0  0  0  0
    1.8543    2.3661   -0.0510 N   0  0  0  0  0  0  0  0  0  0  0  0
    6.4903   -4.7643    2.0912 H   0  0  0  0  0  0  0  0  0  0  0  0
    7.2109   -3.3525    2.9363 H   0  0  0  0  0  0  0  0  0  0  0  0
    9.0098   -3.8701    1.4053 H   0  0  0  0  0  0  0  0  0  0  0  0
    7.8707   -4.4975    0.2013 H   0  0  0  0  0  0  0  0  0  0  0  0
    8.2682   -2.3202   -0.7074 H   0  0  0  0  0  0  0  0  0  0  0  0
    8.3561   -1.5689    0.9195 H   0  0  0  0  0  0  0  0  0  0  0  0
    6.6081   -0.4615   -0.8970 H   0  0  0  0  0  0  0  0  0  0  0  0
    5.6480   -0.2446    0.5816 H   0  0  0  0  0  0  0  0  0  0  0  0
    3.8462   -1.7193   -0.4186 H   0  0  0  0  0  0  0  0  0  0  0  0
    4.8436   -1.9557   -1.8420 H   0  0  0  0  0  0  0  0  0  0  0  0
    4.7751    0.5332   -2.2706 H   0  0  0  0  0  0  0  0  0  0  0  0
    3.2051   -0.2803   -2.3718 H   0  0  0  0  0  0  0  0  0  0  0  0
    3.0459    0.4101    0.1242 H   0  0  0  0  0  0  0  0  0  0  0  0
    3.8459    2.5860   -2.8233 H   0  0  0  0  0  0  0  0  0  0  0  0
    2.5052    4.6407   -3.2114 H   0  0  0  0  0  0  0  0  0  0  0  0
   -0.8975    4.2712    2.2302 H   0  0  0  0  0  0  0  0  0  0  0  0
    0.4865    3.1957    2.2789 H   0  0  0  0  0  0  0  0  0  0  0  0
   -1.3179    1.6959    2.3460 H   0  0  0  0  0  0  0  0  0  0  0  0
   -0.8123    1.6473    0.6469 H   0  0  0  0  0  0  0  0  0  0  0  0
   -5.2161    2.8443    0.7030 H   0  0  0  0  0  0  0  0  0  0  0  0
   -4.9542    1.9968   -0.8225 H   0  0  0  0  0  0  0  0  0  0  0  0
   -5.8601    0.7364    1.8298 H   0  0  0  0  0  0  0  0  0  0  0  0
   -6.8559    1.0364    0.3907 H   0  0  0  0  0  0  0  0  0  0  0  0
   -5.3148   -2.5344   -1.6356 H   0  0  0  0  0  0  0  0  0  0  0  0
   -7.0464   -4.1732   -2.1337 H   0  0  0  0  0  0  0  0  0  0  0  0
   -9.2069   -4.1466   -0.9067 H   0  0  0  0  0  0  0  0  0  0  0  0
   -9.5825   -2.4507    0.8648 H   0  0  0  0  0  0  0  0  0  0  0  0
   -7.8427   -0.8211    1.4113 H   0  0  0  0  0  0  0  0  0  0  0  0
   -3.7163   -1.6988   -0.2732 H   0  0  0  0  0  0  0  0  0  0  0  0
   -4.0876   -0.3529   -1.3718 H   0  0  0  0  0  0  0  0  0  0  0  0
   -2.1012    0.1482   -0.0110 H   0  0  0  0  0  0  0  0  0  0  0  0
   -2.9799   -0.1771    1.4936 H   0  0  0  0  0  0  0  0  0  0  0  0
  1  2  2  0
  2  3  1  0
  3  4  1  0
  4  5  1  0
  5  6  1  0
  6  7  1  0
  7  8  1  0
  8  9  1  0
  9 10  1  0
 10 11  1  0
 11 12  1  0
 12 13  2  0
 13 14  1  0
 14 15  2  0
 15 16  1  0
 16 17  2  0
 17 18  1  0
 18 19  1  0
 19 20  1  0
 20 21  2  0
 20 22  1  0
 22 23  1  0
 23 24  1  0
 24 25  1  0
 25 26  1  0
 26 27  2  0
 27 28  1  0
 28 29  2  0
 29 30  1  0
 30 31  2  0
 25 32  1  0
 32 33  1  0
 17 34  1  0
 34 35  1  0
  6  2  1  0
 35 11  2  0
 34 14  1  0
 33 22  1  0
 31 26  1  0
  3 36  1  0
  3 37  1  0
  4 38  1  0
  4 39  1  0
  5 40  1  0
  5 41  1  0
  7 42  1  0
  7 43  1  0
  8 44  1  0
  8 45  1  0
  9 46  1  0
  9 47  1  0
 10 48  1  0
 12 49  1  0
 13 50  1  0
 18 51  1  0
 18 52  1  0
 19 53  1  0
 19 54  1  0
 23 55  1  0
 23 56  1  0
 24 57  1  0
 24 58  1  0
 27 59  1  0
 28 60  1  0
 29 61  1  0
 30 62  1  0
 31 63  1  0
 32 64  1  0
 32 65  1  0
 33 66  1  0
 33 67  1  0
M  END
$$$$
