
     RDKit          3D

 46 50  0  0  0  0  0  0  0  0999 V2000
   -8.1242    0.6533    0.6777 C   0  0  0  0  0  0  0  0  0  0  0  0
   -6.6301    0.6193    0.4901 C   0  0  0  0  0  0  0  0  0  0  0  0
   -5.8036    0.8746    1.6035 C   0  0  0  0  0  0  0  0  0  0  0  0
   -4.4100    0.8478    1.4536 C   0  0  0  0  0  0  0  0  0  0  0  0
   -3.4233    1.0660    2.3965 N   0  0  0  0  0  0  0  0  0  0  0  0
   -2.3216    0.9171    1.7164 C   0  0  0  0  0  0  0  0  0  0  0  0
   -0.6588    1.0215    2.1417 S   0  0  0  0  0  0  0  0  0  0  0  0
   -0.2090    0.6598    0.4944 C   0  0  0  0  0  0  0  0  0  0  0  0
    1.0101    0.5184   -0.0422 C   0  0  0  0  0  0  0  0  0  0  0  0
    2.2588    0.6599    0.6246 C   0  0  0  0  0  0  0  0  0  0  0  0
    2.6678    1.4272    1.7099 C   0  0  0  0  0  0  0  0  0  0  0  0
    4.0471    1.1872    1.9274 C   0  0  0  0  0  0  0  0  0  0  0  0
    4.4344    0.2836    0.9669 C   0  0  0  0  0  0  0  0  0  0  0  0
    5.6997   -0.3435    0.6087 C   0  0  0  0  0  0  0  0  0  0  0  0
    6.8649    0.4444    0.6088 C   0  0  0  0  0  0  0  0  0  0  0  0
    8.0960   -0.0858    0.2102 C   0  0  0  0  0  0  0  0  0  0  0  0
    8.1852   -1.4130   -0.1999 C   0  0  0  0  0  0  0  0  0  0  0  0
    7.0461   -2.2158   -0.1963 C   0  0  0  0  0  0  0  0  0  0  0  0
    5.8126   -1.6912    0.2229 C   0  0  0  0  0  0  0  0  0  0  0  0
    4.6789   -2.6346    0.2485 C   0  0  0  0  0  0  0  0  0  0  0  0
    4.3727   -3.4078   -0.6395 O   0  0  0  0  0  0  0  0  0  0  0  0
    4.0713   -2.6473    1.4480 O   0  0  0  0  0  0  0  0  0  0  0  0
    3.3732   -0.0134    0.1694 O   0  0  0  0  0  0  0  0  0  0  0  0
   -1.4035    0.4530   -0.3798 C   0  0  0  0  0  0  0  0  0  0  0  0
   -1.4672    0.1888   -1.5660 O   0  0  0  0  0  0  0  0  0  0  0  0
   -2.5187    0.6224    0.4093 N   0  0  0  0  0  0  0  0  0  0  0  0
   -3.8712    0.5665    0.1950 C   0  0  0  0  0  0  0  0  0  0  0  0
   -4.6576    0.3079   -0.9312 C   0  0  0  0  0  0  0  0  0  0  0  0
   -6.0564    0.3365   -0.7702 C   0  0  0  0  0  0  0  0  0  0  0  0
   -6.9237    0.0602   -1.9722 C   0  0  0  0  0  0  0  0  0  0  0  0
   -8.5587   -0.3239    0.4447 H   0  0  0  0  0  0  0  0  0  0  0  0
   -8.5712    1.4168    0.0333 H   0  0  0  0  0  0  0  0  0  0  0  0
   -8.3944    0.8962    1.7109 H   0  0  0  0  0  0  0  0  0  0  0  0
   -6.2235    1.0930    2.5804 H   0  0  0  0  0  0  0  0  0  0  0  0
    1.0883    0.2272   -1.0896 H   0  0  0  0  0  0  0  0  0  0  0  0
    2.0513    2.1052    2.2829 H   0  0  0  0  0  0  0  0  0  0  0  0
    4.6767    1.6210    2.6912 H   0  0  0  0  0  0  0  0  0  0  0  0
    6.8186    1.4931    0.8970 H   0  0  0  0  0  0  0  0  0  0  0  0
    8.9825    0.5442    0.2083 H   0  0  0  0  0  0  0  0  0  0  0  0
    9.1400   -1.8234   -0.5196 H   0  0  0  0  0  0  0  0  0  0  0  0
    7.1186   -3.2556   -0.5096 H   0  0  0  0  0  0  0  0  0  0  0  0
    3.3631   -3.3155    1.3482 H   0  0  0  0  0  0  0  0  0  0  0  0
   -4.2010    0.0925   -1.8942 H   0  0  0  0  0  0  0  0  0  0  0  0
   -7.5520    0.9284   -2.1946 H   0  0  0  0  0  0  0  0  0  0  0  0
   -7.5564   -0.8145   -1.7915 H   0  0  0  0  0  0  0  0  0  0  0  0
   -6.3218   -0.1479   -2.8632 H   0  0  0  0  0  0  0  0  0  0  0  0
  1  2  1  0
  2  3  2  0
  3  4  1  0
  4  5  1  0
  5  6  2  0
  6  7  1  0
  7  8  1  0
  8  9  2  3
  9 10  1  0
 10 11  2  0
 11 12  1  0
 12 13  2  0
 13 14  1  0
 14 15  2  0
 15 16  1  0
 16 17  2  0
 17 18  1  0
 18 19  2  0
 19 20  1  0
 20 21  2  0
 20 22  1  0
 13 23  1  0
  8 24  1  0
 24 25  2  0
 24 26  1  0
 26 27  1  0
 27 28  1  0
 28 29  2  0
 29 30  1  0
 29  2  1  0
 27  4  2  0
 26  6  1  0
 23 10  1  0
 19 14  1  0
  1 31  1  0
  1 32  1  0
  1 33  1  0
  3 34  1  0
  9 35  1  0
 11 36  1  0
 12 37  1  0
 15 38  1  0
 16 39  1  0
 17 40  1  0
 18 41  1  0
 22 42  1  0
 28 43  1  0
 30 44  1  0
 30 45  1  0
 30 46  1  0
M  END
$$$$
