
     RDKit          3D

 49 52  0  0  0  0  0  0  0  0999 V2000
   -4.5449    3.9016    0.5879 C   0  0  0  0  0  0  0  0  0  0  0  0
   -4.8403    2.4390    0.3146 C   0  0  0  0  0  0  0  0  0  0  0  0
   -3.9262    1.6047    1.0425 O   0  0  0  0  0  0  0  0  0  0  0  0
   -2.7417    1.3365    0.4167 C   0  0  0  0  0  0  0  0  0  0  0  0
   -2.4144    1.7725   -0.6773 O   0  0  0  0  0  0  0  0  0  0  0  0
   -1.8931    0.4600    1.3139 C   0  0  0  0  0  0  0  0  0  0  0  0
   -0.7547   -0.2372    0.5959 C   0  0  0  0  0  0  0  0  0  0  0  0
    0.4975    0.4037    0.7250 C   0  0  0  0  0  0  0  0  0  0  0  0
    1.6256   -0.1429    0.1458 C   0  0  0  0  0  0  0  0  0  0  0  0
    2.9686    0.4649    0.2397 C   0  0  0  0  0  0  0  0  0  0  0  0
    3.8954    0.3213   -0.8092 C   0  0  0  0  0  0  0  0  0  0  0  0
    5.1750    0.8912   -0.7497 C   0  0  0  0  0  0  0  0  0  0  0  0
    5.5635    1.6194    0.3709 C   0  0  0  0  0  0  0  0  0  0  0  0
    6.7740    2.2256    0.5603 O   0  0  0  0  0  0  0  0  0  0  0  0
    7.7261    2.0959   -0.4882 C   0  0  0  0  0  0  0  0  0  0  0  0
    4.6638    1.7662    1.4262 C   0  0  0  0  0  0  0  0  0  0  0  0
    3.3860    1.1963    1.3642 C   0  0  0  0  0  0  0  0  0  0  0  0
    1.5447   -1.2882   -0.5540 N   0  0  0  0  0  0  0  0  0  0  0  0
    0.3632   -1.9025   -0.7019 C   0  0  0  0  0  0  0  0  0  0  0  0
    0.4366   -3.0659   -1.4347 C   0  0  0  0  0  0  0  0  0  0  0  0
   -0.6788   -3.8458   -1.6971 C   0  0  0  0  0  0  0  0  0  0  0  0
   -1.9290   -3.4616   -1.2335 C   0  0  0  0  0  0  0  0  0  0  0  0
   -3.0225   -4.2891   -1.5452 C   0  0  0  0  0  0  0  0  0  0  0  0
   -4.3078   -3.9682   -1.1338 C   0  0  0  0  0  0  0  0  0  0  0  0
   -4.5065   -2.8091   -0.4103 C   0  0  0  0  0  0  0  0  0  0  0  0
   -3.4178   -1.9833   -0.0957 C   0  0  0  0  0  0  0  0  0  0  0  0
   -2.0761   -2.2652   -0.4764 C   0  0  0  0  0  0  0  0  0  0  0  0
   -0.8775   -1.4519   -0.1743 C   0  0  0  0  0  0  0  0  0  0  0  0
   -4.5769    4.1058    1.6632 H   0  0  0  0  0  0  0  0  0  0  0  0
   -5.2724    4.5448    0.0848 H   0  0  0  0  0  0  0  0  0  0  0  0
   -3.5420    4.1716    0.2424 H   0  0  0  0  0  0  0  0  0  0  0  0
   -5.8469    2.1943    0.6691 H   0  0  0  0  0  0  0  0  0  0  0  0
   -4.8149    2.2168   -0.7584 H   0  0  0  0  0  0  0  0  0  0  0  0
   -2.4945   -0.2744    1.8559 H   0  0  0  0  0  0  0  0  0  0  0  0
   -1.4931    1.1185    2.0970 H   0  0  0  0  0  0  0  0  0  0  0  0
    0.5749    1.3426    1.2662 H   0  0  0  0  0  0  0  0  0  0  0  0
    3.6164   -0.2448   -1.6976 H   0  0  0  0  0  0  0  0  0  0  0  0
    5.8357    0.7419   -1.5967 H   0  0  0  0  0  0  0  0  0  0  0  0
    7.9963    1.0469   -0.6487 H   0  0  0  0  0  0  0  0  0  0  0  0
    8.6318    2.6299   -0.1850 H   0  0  0  0  0  0  0  0  0  0  0  0
    7.3614    2.5570   -1.4120 H   0  0  0  0  0  0  0  0  0  0  0  0
    4.9605    2.3249    2.3106 H   0  0  0  0  0  0  0  0  0  0  0  0
    2.7301    1.3199    2.2223 H   0  0  0  0  0  0  0  0  0  0  0  0
    1.4033   -3.3868   -1.8191 H   0  0  0  0  0  0  0  0  0  0  0  0
   -0.5489   -4.7552   -2.2799 H   0  0  0  0  0  0  0  0  0  0  0  0
   -2.8788   -5.2005   -2.1233 H   0  0  0  0  0  0  0  0  0  0  0  0
   -5.1438   -4.6146   -1.3841 H   0  0  0  0  0  0  0  0  0  0  0  0
   -5.5073   -2.5326   -0.0876 H   0  0  0  0  0  0  0  0  0  0  0  0
   -3.6793   -1.0940    0.4550 H   0  0  0  0  0  0  0  0  0  0  0  0
  1  2  1  0
  2  3  1  0
  3  4  1  0
  4  5  2  0
  4  6  1  0
  6  7  1  0
  7  8  2  0
  8  9  1  0
  9 10  1  0
 10 11  2  0
 11 12  1  0
 12 13  2  0
 13 14  1  0
 14 15  1  0
 13 16  1  0
 16 17  2  0
  9 18  2  0
 18 19  1  0
 19 20  2  0
 20 21  1  0
 21 22  2  0
 22 23  1  0
 23 24  2  0
 24 25  1  0
 25 26  2  0
 26 27  1  0
 27 28  2  0
 28  7  1  0
 17 10  1  0
 28 19  1  0
 27 22  1  0
  1 29  1  0
  1 30  1  0
  1 31  1  0
  2 32  1  0
  2 33  1  0
  6 34  1  0
  6 35  1  0
  8 36  1  0
 11 37  1  0
 12 38  1  0
 15 39  1  0
 15 40  1  0
 15 41  1  0
 16 42  1  0
 17 43  1  0
 20 44  1  0
 21 45  1  0
 23 46  1  0
 24 47  1  0
 25 48  1  0
 26 49  1  0
M  END
$$$$
