
     RDKit          3D

 42 44  0  0  0  0  0  0  0  0999 V2000
    4.3460   -0.9963   -0.6341 C   0  0  0  0  0  0  0  0  0  0  0  0
    3.9917    0.0722    0.3886 C   0  0  0  0  0  0  0  0  0  0  0  0
    2.6038   -0.1107    1.0084 C   0  0  0  0  0  0  0  0  0  0  0  0
    1.4603    0.0724    0.0001 C   0  0  0  0  0  0  0  0  0  0  0  0
    0.0595   -0.0054    0.6696 C   0  0  0  0  0  0  0  0  0  0  0  0
   -0.7347   -1.1686    0.1053 C   0  0  0  0  0  0  0  0  0  0  0  0
   -1.8035   -0.9896   -0.6933 C   0  0  0  0  0  0  0  0  0  0  0  0
   -2.6303   -2.1033   -1.2693 C   0  0  0  0  0  0  0  0  0  0  0  0
   -2.4826   -3.3952   -0.4758 C   0  0  0  0  0  0  0  0  0  0  0  0
   -1.0192   -3.7138   -0.2245 C   0  0  0  0  0  0  0  0  0  0  0  0
   -0.3196   -2.5577    0.4568 C   0  0  0  0  0  0  0  0  0  0  0  0
    0.6030   -2.7551    1.2438 O   0  0  0  0  0  0  0  0  0  0  0  0
   -2.2663    0.2747   -1.0311 O   0  0  0  0  0  0  0  0  0  0  0  0
   -1.7610    1.3796   -0.3605 C   0  0  0  0  0  0  0  0  0  0  0  0
   -0.6936    1.2936    0.4547 C   0  0  0  0  0  0  0  0  0  0  0  0
   -0.2668    2.5032    1.2168 C   0  0  0  0  0  0  0  0  0  0  0  0
    0.6676    2.4418    2.0129 O   0  0  0  0  0  0  0  0  0  0  0  0
   -1.0560    3.7842    1.0486 C   0  0  0  0  0  0  0  0  0  0  0  0
   -1.6657    3.8830   -0.3390 C   0  0  0  0  0  0  0  0  0  0  0  0
   -2.5048    2.6508   -0.6520 C   0  0  0  0  0  0  0  0  0  0  0  0
    4.2427   -1.9989   -0.2074 H   0  0  0  0  0  0  0  0  0  0  0  0
    3.7098   -0.9298   -1.5214 H   0  0  0  0  0  0  0  0  0  0  0  0
    5.3833   -0.8728   -0.9616 H   0  0  0  0  0  0  0  0  0  0  0  0
    4.7365    0.0431    1.1931 H   0  0  0  0  0  0  0  0  0  0  0  0
    4.0665    1.0623   -0.0759 H   0  0  0  0  0  0  0  0  0  0  0  0
    2.4968    0.6204    1.8173 H   0  0  0  0  0  0  0  0  0  0  0  0
    2.5434   -1.1007    1.4727 H   0  0  0  0  0  0  0  0  0  0  0  0
    1.5517   -0.6892   -0.7840 H   0  0  0  0  0  0  0  0  0  0  0  0
    1.5985    1.0374   -0.5055 H   0  0  0  0  0  0  0  0  0  0  0  0
    0.1523   -0.1622    1.7527 H   0  0  0  0  0  0  0  0  0  0  0  0
   -2.3295   -2.2639   -2.3116 H   0  0  0  0  0  0  0  0  0  0  0  0
   -3.6889   -1.8174   -1.2792 H   0  0  0  0  0  0  0  0  0  0  0  0
   -3.0041   -3.2925    0.4849 H   0  0  0  0  0  0  0  0  0  0  0  0
   -2.9617   -4.2210   -1.0134 H   0  0  0  0  0  0  0  0  0  0  0  0
   -0.4943   -3.9294   -1.1616 H   0  0  0  0  0  0  0  0  0  0  0  0
   -0.9473   -4.5954    0.4217 H   0  0  0  0  0  0  0  0  0  0  0  0
   -0.3808    4.6321    1.2067 H   0  0  0  0  0  0  0  0  0  0  0  0
   -1.8325    3.8111    1.8209 H   0  0  0  0  0  0  0  0  0  0  0  0
   -0.8651    3.9768   -1.0844 H   0  0  0  0  0  0  0  0  0  0  0  0
   -2.2825    4.7853   -0.4164 H   0  0  0  0  0  0  0  0  0  0  0  0
   -2.7927    2.6812   -1.7096 H   0  0  0  0  0  0  0  0  0  0  0  0
   -3.4302    2.6637   -0.0637 H   0  0  0  0  0  0  0  0  0  0  0  0
  1  2  1  0
  2  3  1  0
  3  4  1  0
  4  5  1  0
  5  6  1  0
  6  7  2  0
  7  8  1  0
  8  9  1  0
  9 10  1  0
 10 11  1  0
 11 12  2  0
  7 13  1  0
 13 14  1  0
 14 15  2  0
 15 16  1  0
 16 17  2  0
 16 18  1  0
 18 19  1  0
 19 20  1  0
 15  5  1  0
 11  6  1  0
 20 14  1  0
  1 21  1  0
  1 22  1  0
  1 23  1  0
  2 24  1  0
  2 25  1  0
  3 26  1  0
  3 27  1  0
  4 28  1  0
  4 29  1  0
  5 30  1  0
  8 31  1  0
  8 32  1  0
  9 33  1  0
  9 34  1  0
 10 35  1  0
 10 36  1  0
 18 37  1  0
 18 38  1  0
 19 39  1  0
 19 40  1  0
 20 41  1  0
 20 42  1  0
M  END
$$$$
