
     RDKit          3D

 46 48  0  0  0  0  0  0  0  0999 V2000
   -1.6621   -0.0329   -3.1892 N   0  0  0  0  0  0  0  0  0  0  0  0
   -0.4628    0.0802   -2.5916 C   0  0  0  0  0  0  0  0  0  0  0  0
    0.5802    0.5227   -3.2314 N   0  0  0  0  0  0  0  0  0  0  0  0
    1.6670    0.5001   -2.2141 C   0  0  0  0  0  0  0  0  0  0  0  0
    1.1146   -0.2538   -0.9843 C   0  0  0  0  0  0  0  0  0  0  0  0
    1.4221    0.4628    0.3354 C   0  0  0  0  0  0  0  0  0  0  0  0
    2.8885    0.4220    0.6986 C   0  0  0  0  0  0  0  0  0  0  0  0
    3.4663   -0.7575    1.1925 C   0  0  0  0  0  0  0  0  0  0  0  0
    4.8242   -0.8012    1.5171 C   0  0  0  0  0  0  0  0  0  0  0  0
    5.6049    0.3370    1.3474 C   0  0  0  0  0  0  0  0  0  0  0  0
    6.9340    0.3392    1.6508 O   0  0  0  0  0  0  0  0  0  0  0  0
    5.0501    1.5139    0.8612 C   0  0  0  0  0  0  0  0  0  0  0  0
    3.6934    1.5582    0.5374 C   0  0  0  0  0  0  0  0  0  0  0  0
   -0.3191   -0.2780   -1.2867 N   0  0  0  0  0  0  0  0  0  0  0  0
   -1.1859   -1.1747   -0.5382 C   0  0  0  0  0  0  0  0  0  0  0  0
   -2.4613   -0.4681   -0.0394 C   0  0  0  0  0  0  0  0  0  0  0  0
   -3.4130   -1.4990    0.5919 C   0  0  0  0  0  0  0  0  0  0  0  0
   -4.6802   -0.8455    1.1376 C   0  0  0  0  0  0  0  0  0  0  0  0
   -4.3563    0.2704    2.1247 C   0  0  0  0  0  0  0  0  0  0  0  0
   -3.4149    1.3013    1.5120 C   0  0  0  0  0  0  0  0  0  0  0  0
   -2.1448    0.6524    0.9654 C   0  0  0  0  0  0  0  0  0  0  0  0
   -2.1406   -0.9028   -3.0129 H   0  0  0  0  0  0  0  0  0  0  0  0
   -1.5723    0.1426   -4.1845 H   0  0  0  0  0  0  0  0  0  0  0  0
    1.9448    1.5348   -1.9862 H   0  0  0  0  0  0  0  0  0  0  0  0
    2.5466   -0.0104   -2.6201 H   0  0  0  0  0  0  0  0  0  0  0  0
    1.5035   -1.2804   -0.9829 H   0  0  0  0  0  0  0  0  0  0  0  0
    1.0714    1.5025    0.2973 H   0  0  0  0  0  0  0  0  0  0  0  0
    0.8625    0.0020    1.1588 H   0  0  0  0  0  0  0  0  0  0  0  0
    2.8604   -1.6503    1.3314 H   0  0  0  0  0  0  0  0  0  0  0  0
    5.2502   -1.7237    1.8985 H   0  0  0  0  0  0  0  0  0  0  0  0
    7.1792   -0.5419    1.9768 H   0  0  0  0  0  0  0  0  0  0  0  0
    5.6716    2.3958    0.7343 H   0  0  0  0  0  0  0  0  0  0  0  0
    3.2719    2.4868    0.1579 H   0  0  0  0  0  0  0  0  0  0  0  0
   -1.4493   -2.0332   -1.1687 H   0  0  0  0  0  0  0  0  0  0  0  0
   -0.6494   -1.5937    0.3225 H   0  0  0  0  0  0  0  0  0  0  0  0
   -2.9819   -0.0143   -0.8919 H   0  0  0  0  0  0  0  0  0  0  0  0
   -3.6915   -2.2542   -0.1528 H   0  0  0  0  0  0  0  0  0  0  0  0
   -2.9014   -2.0286    1.4059 H   0  0  0  0  0  0  0  0  0  0  0  0
   -5.3026   -1.6023    1.6284 H   0  0  0  0  0  0  0  0  0  0  0  0
   -5.2682   -0.4388    0.3056 H   0  0  0  0  0  0  0  0  0  0  0  0
   -5.2826    0.7605    2.4451 H   0  0  0  0  0  0  0  0  0  0  0  0
   -3.8941   -0.1584    3.0223 H   0  0  0  0  0  0  0  0  0  0  0  0
   -3.9306    1.8315    0.7019 H   0  0  0  0  0  0  0  0  0  0  0  0
   -3.1495    2.0513    2.2657 H   0  0  0  0  0  0  0  0  0  0  0  0
   -1.5601    0.2488    1.8015 H   0  0  0  0  0  0  0  0  0  0  0  0
   -1.5326    1.4268    0.4896 H   0  0  0  0  0  0  0  0  0  0  0  0
  1  2  1  0
  2  3  2  0
  3  4  1  0
  4  5  1  0
  5  6  1  0
  6  7  1  0
  7  8  2  0
  8  9  1  0
  9 10  2  0
 10 11  1  0
 10 12  1  0
 12 13  2  0
  5 14  1  0
 14 15  1  0
 15 16  1  0
 16 17  1  0
 17 18  1  0
 18 19  1  0
 19 20  1  0
 20 21  1  0
 14  2  1  0
 21 16  1  0
 13  7  1  0
  1 22  1  0
  1 23  1  0
  4 24  1  0
  4 25  1  0
  5 26  1  0
  6 27  1  0
  6 28  1  0
  8 29  1  0
  9 30  1  0
 11 31  1  0
 12 32  1  0
 13 33  1  0
 15 34  1  0
 15 35  1  0
 16 36  1  0
 17 37  1  0
 17 38  1  0
 18 39  1  0
 18 40  1  0
 19 41  1  0
 19 42  1  0
 20 43  1  0
 20 44  1  0
 21 45  1  0
 21 46  1  0
M  END
$$$$
