
     RDKit          3D

 31 32  0  0  0  0  0  0  0  0999 V2000
   -6.9977   -0.3878    0.2250 N   0  0  0  0  0  0  0  0  0  0  0  0
   -5.6447   -0.7821    0.3230 N   0  0  0  0  0  0  0  0  0  0  0  0
   -4.6435    0.1861    0.2239 C   0  0  0  0  0  0  0  0  0  0  0  0
   -4.8967    1.3852    0.1285 O   0  0  0  0  0  0  0  0  0  0  0  0
   -3.2365   -0.4128    0.2519 C   0  0  0  0  0  0  0  0  0  0  0  0
   -2.2459    0.5984    0.1563 O   0  0  0  0  0  0  0  0  0  0  0  0
   -0.9394    0.1983    0.1695 C   0  0  0  0  0  0  0  0  0  0  0  0
   -0.4797   -1.1135    0.2704 C   0  0  0  0  0  0  0  0  0  0  0  0
    0.8957   -1.3804    0.2716 C   0  0  0  0  0  0  0  0  0  0  0  0
    1.8380   -0.3431    0.1730 C   0  0  0  0  0  0  0  0  0  0  0  0
    3.3188   -0.6674    0.1730 C   0  0  0  0  0  0  0  0  0  0  0  0
    4.1242   -0.2304   -1.4045 S   0  0  0  0  0  0  0  0  0  0  0  0
    5.2098    1.0566   -0.7407 C   0  0  0  0  0  0  0  0  0  0  0  0
    5.6693    0.6090    0.6314 C   0  0  0  0  0  0  0  0  0  0  0  0
    4.2028    0.1100    1.5664 S   0  0  0  0  0  0  0  0  0  0  0  0
    1.3596    0.9730    0.0707 C   0  0  0  0  0  0  0  0  0  0  0  0
   -0.0129    1.2364    0.0699 C   0  0  0  0  0  0  0  0  0  0  0  0
   -7.2564    0.0385    1.1216 H   0  0  0  0  0  0  0  0  0  0  0  0
   -7.0296    0.4135   -0.4212 H   0  0  0  0  0  0  0  0  0  0  0  0
   -5.4229   -1.7732    0.2532 H   0  0  0  0  0  0  0  0  0  0  0  0
   -3.1573   -1.1001   -0.5991 H   0  0  0  0  0  0  0  0  0  0  0  0
   -3.1318   -0.9558    1.1990 H   0  0  0  0  0  0  0  0  0  0  0  0
   -1.1579   -1.9558    0.3497 H   0  0  0  0  0  0  0  0  0  0  0  0
    1.2258   -2.4147    0.3503 H   0  0  0  0  0  0  0  0  0  0  0  0
    3.4527   -1.7478    0.2923 H   0  0  0  0  0  0  0  0  0  0  0  0
    6.0628    1.2020   -1.4102 H   0  0  0  0  0  0  0  0  0  0  0  0
    4.6604    2.0032   -0.6916 H   0  0  0  0  0  0  0  0  0  0  0  0
    6.1840    1.4201    1.1552 H   0  0  0  0  0  0  0  0  0  0  0  0
    6.3610   -0.2381    0.5668 H   0  0  0  0  0  0  0  0  0  0  0  0
    2.0507    1.8092   -0.0088 H   0  0  0  0  0  0  0  0  0  0  0  0
   -0.3628    2.2634   -0.0094 H   0  0  0  0  0  0  0  0  0  0  0  0
  1  2  1  0
  2  3  1  0
  3  4  2  0
  3  5  1  0
  5  6  1  0
  6  7  1  0
  7  8  2  0
  8  9  1  0
  9 10  2  0
 10 11  1  0
 11 12  1  0
 12 13  1  0
 13 14  1  0
 14 15  1  0
 10 16  1  0
 16 17  2  0
 17  7  1  0
 15 11  1  0
  1 18  1  0
  1 19  1  0
  2 20  1  0
  5 21  1  0
  5 22  1  0
  8 23  1  0
  9 24  1  0
 11 25  1  0
 13 26  1  0
 13 27  1  0
 14 28  1  0
 14 29  1  0
 16 30  1  0
 17 31  1  0
M  END
$$$$
