
     RDKit          3D

 36 38  0  0  0  0  0  0  0  0999 V2000
    2.4276   -2.2795    2.0684 C   0  0  0  0  0  0  0  0  0  0  0  0
    1.7267   -1.3839    1.0530 C   0  0  0  0  0  0  0  0  0  0  0  0
    2.7070   -0.9500    0.1230 O   0  0  0  0  0  0  0  0  0  0  0  0
    2.2453    0.0424   -0.6992 C   0  0  0  0  0  0  0  0  0  0  0  0
    2.9067    0.1655   -1.9229 C   0  0  0  0  0  0  0  0  0  0  0  0
    2.5381    1.1662   -2.8170 C   0  0  0  0  0  0  0  0  0  0  0  0
    1.5200    2.0523   -2.4777 C   0  0  0  0  0  0  0  0  0  0  0  0
    0.8710    1.9421   -1.2428 C   0  0  0  0  0  0  0  0  0  0  0  0
    1.2229    0.9321   -0.3355 C   0  0  0  0  0  0  0  0  0  0  0  0
    0.6137    0.8076    0.9475 N   0  0  0  0  0  0  0  0  0  0  0  0
   -0.2928    1.8375    1.4541 C   0  0  0  0  0  0  0  0  0  0  0  0
   -1.7051    1.8050    0.8731 C   0  0  0  0  0  0  0  0  0  0  0  0
   -2.4115    2.8114    0.8212 O   0  0  0  0  0  0  0  0  0  0  0  0
   -2.2837    0.5258    0.4062 C   0  0  0  0  0  0  0  0  0  0  0  0
   -2.8084    0.4626   -0.8905 C   0  0  0  0  0  0  0  0  0  0  0  0
   -3.3601   -0.7323   -1.3539 C   0  0  0  0  0  0  0  0  0  0  0  0
   -3.3963   -1.8419   -0.5150 C   0  0  0  0  0  0  0  0  0  0  0  0
   -3.9258   -2.9878   -0.9615 F   0  0  0  0  0  0  0  0  0  0  0  0
   -2.8999   -1.7783    0.7837 C   0  0  0  0  0  0  0  0  0  0  0  0
   -2.3468   -0.5860    1.2533 C   0  0  0  0  0  0  0  0  0  0  0  0
    0.9349   -0.2751    1.7615 C   0  0  0  0  0  0  0  0  0  0  0  0
    0.5240   -0.3887    2.9167 O   0  0  0  0  0  0  0  0  0  0  0  0
    2.9767   -3.0806    1.5619 H   0  0  0  0  0  0  0  0  0  0  0  0
    1.7172   -2.7322    2.7672 H   0  0  0  0  0  0  0  0  0  0  0  0
    3.1607   -1.7072    2.6483 H   0  0  0  0  0  0  0  0  0  0  0  0
    0.9933   -1.9994    0.5129 H   0  0  0  0  0  0  0  0  0  0  0  0
    3.7098   -0.5216   -2.1768 H   0  0  0  0  0  0  0  0  0  0  0  0
    3.0493    1.2593   -3.7719 H   0  0  0  0  0  0  0  0  0  0  0  0
    1.2350    2.8408   -3.1709 H   0  0  0  0  0  0  0  0  0  0  0  0
    0.0959    2.6709   -1.0256 H   0  0  0  0  0  0  0  0  0  0  0  0
   -0.3959    1.7541    2.5418 H   0  0  0  0  0  0  0  0  0  0  0  0
    0.1513    2.8201    1.2568 H   0  0  0  0  0  0  0  0  0  0  0  0
   -2.7890    1.3378   -1.5359 H   0  0  0  0  0  0  0  0  0  0  0  0
   -3.7668   -0.8039   -2.3579 H   0  0  0  0  0  0  0  0  0  0  0  0
   -2.9571   -2.6534    1.4241 H   0  0  0  0  0  0  0  0  0  0  0  0
   -1.9879   -0.5318    2.2786 H   0  0  0  0  0  0  0  0  0  0  0  0
  1  2  1  0
  2  3  1  0
  3  4  1  0
  4  5  2  0
  5  6  1  0
  6  7  2  0
  7  8  1  0
  8  9  2  0
  9 10  1  0
 10 11  1  0
 11 12  1  0
 12 13  2  0
 12 14  1  0
 14 15  2  0
 15 16  1  0
 16 17  2  0
 17 18  1  0
 17 19  1  0
 19 20  2  0
 10 21  1  0
 21 22  2  0
 21  2  1  0
  9  4  1  0
 20 14  1  0
  1 23  1  0
  1 24  1  0
  1 25  1  0
  2 26  1  0
  5 27  1  0
  6 28  1  0
  7 29  1  0
  8 30  1  0
 11 31  1  0
 11 32  1  0
 15 33  1  0
 16 34  1  0
 19 35  1  0
 20 36  1  0
M  END
$$$$
