
     RDKit          3D

 49 51  0  0  0  0  0  0  0  0999 V2000
    6.4754    0.2661   -1.7366 C   0  0  0  0  0  0  0  0  0  0  0  0
    5.9258   -0.2822   -0.4517 C   0  0  0  0  0  0  0  0  0  0  0  0
    6.7857   -0.5894    0.6101 C   0  0  0  0  0  0  0  0  0  0  0  0
    6.2785   -1.0917    1.8090 C   0  0  0  0  0  0  0  0  0  0  0  0
    4.9072   -1.2703    1.9613 C   0  0  0  0  0  0  0  0  0  0  0  0
    4.4882   -1.7956    3.1544 O   0  0  0  0  0  0  0  0  0  0  0  0
    4.0243   -0.9193    0.9314 C   0  0  0  0  0  0  0  0  0  0  0  0
    2.5638   -1.0896    1.1371 C   0  0  0  0  0  0  0  0  0  0  0  0
    2.1754   -1.9605    1.9156 O   0  0  0  0  0  0  0  0  0  0  0  0
    1.5593   -0.2431    0.4639 C   0  0  0  0  0  0  0  0  0  0  0  0
    1.7627    1.1109    0.2341 C   0  0  0  0  0  0  0  0  0  0  0  0
    0.8607    1.9123   -0.3821 N   0  0  0  0  0  0  0  0  0  0  0  0
   -0.3099    1.3469   -0.7411 C   0  0  0  0  0  0  0  0  0  0  0  0
   -0.6197    0.0148   -0.5328 C   0  0  0  0  0  0  0  0  0  0  0  0
    0.3366   -0.7974    0.0819 C   0  0  0  0  0  0  0  0  0  0  0  0
   -1.9139   -0.5126   -1.0505 C   0  0  0  0  0  0  0  0  0  0  0  0
   -2.9069    0.5229   -1.2830 N   0  0  0  0  0  0  0  0  0  0  0  0
   -4.2651    0.0890   -1.5901 C   0  0  0  0  0  0  0  0  0  0  0  0
   -5.3499    0.7158   -0.7027 C   0  0  0  0  0  0  0  0  0  0  0  0
   -5.3823    0.3060    0.7838 C   0  0  0  0  0  0  0  0  0  0  0  0
   -5.4745   -1.2063    0.9805 C   0  0  0  0  0  0  0  0  0  0  0  0
   -4.2261    0.8869    1.5965 C   0  0  0  0  0  0  0  0  0  0  0  0
   -2.5268    1.8067   -1.6307 C   0  0  0  0  0  0  0  0  0  0  0  0
   -3.2890    2.6292   -2.1341 O   0  0  0  0  0  0  0  0  0  0  0  0
   -1.2427    2.1586   -1.3542 N   0  0  0  0  0  0  0  0  0  0  0  0
    4.5421   -0.4442   -0.2829 C   0  0  0  0  0  0  0  0  0  0  0  0
    7.4885   -0.1069   -1.9198 H   0  0  0  0  0  0  0  0  0  0  0  0
    5.8579   -0.0411   -2.5872 H   0  0  0  0  0  0  0  0  0  0  0  0
    6.5030    1.3592   -1.6946 H   0  0  0  0  0  0  0  0  0  0  0  0
    7.8606   -0.4533    0.5064 H   0  0  0  0  0  0  0  0  0  0  0  0
    6.9521   -1.3508    2.6218 H   0  0  0  0  0  0  0  0  0  0  0  0
    3.5477   -2.0638    3.0498 H   0  0  0  0  0  0  0  0  0  0  0  0
    2.6694    1.6202    0.5497 H   0  0  0  0  0  0  0  0  0  0  0  0
    0.1362   -1.8520    0.2591 H   0  0  0  0  0  0  0  0  0  0  0  0
   -1.7421   -1.0297   -2.0019 H   0  0  0  0  0  0  0  0  0  0  0  0
   -2.3316   -1.2243   -0.3299 H   0  0  0  0  0  0  0  0  0  0  0  0
   -4.3195   -1.0039   -1.5404 H   0  0  0  0  0  0  0  0  0  0  0  0
   -4.4669    0.3604   -2.6342 H   0  0  0  0  0  0  0  0  0  0  0  0
   -6.3190    0.4387   -1.1395 H   0  0  0  0  0  0  0  0  0  0  0  0
   -5.3008    1.8094   -0.7633 H   0  0  0  0  0  0  0  0  0  0  0  0
   -6.3029    0.7400    1.1980 H   0  0  0  0  0  0  0  0  0  0  0  0
   -4.5527   -1.7139    0.6813 H   0  0  0  0  0  0  0  0  0  0  0  0
   -5.6545   -1.4452    2.0343 H   0  0  0  0  0  0  0  0  0  0  0  0
   -6.3017   -1.6255    0.3984 H   0  0  0  0  0  0  0  0  0  0  0  0
   -3.2761    0.3955    1.3735 H   0  0  0  0  0  0  0  0  0  0  0  0
   -4.1141    1.9599    1.4104 H   0  0  0  0  0  0  0  0  0  0  0  0
   -4.4127    0.7547    2.6681 H   0  0  0  0  0  0  0  0  0  0  0  0
   -0.9837    3.1196   -1.5176 H   0  0  0  0  0  0  0  0  0  0  0  0
    3.8840   -0.2112   -1.1170 H   0  0  0  0  0  0  0  0  0  0  0  0
  1  2  1  0
  2  3  2  0
  3  4  1  0
  4  5  2  0
  5  6  1  0
  5  7  1  0
  7  8  1  0
  8  9  2  0
  8 10  1  0
 10 11  2  0
 11 12  1  0
 12 13  2  0
 13 14  1  0
 14 15  2  0
 14 16  1  0
 16 17  1  0
 17 18  1  0
 18 19  1  0
 19 20  1  0
 20 21  1  0
 20 22  1  0
 17 23  1  0
 23 24  2  0
 23 25  1  0
  7 26  2  0
 26  2  1  0
 15 10  1  0
 25 13  1  0
  1 27  1  0
  1 28  1  0
  1 29  1  0
  3 30  1  0
  4 31  1  0
  6 32  1  0
 11 33  1  0
 15 34  1  0
 16 35  1  0
 16 36  1  0
 18 37  1  0
 18 38  1  0
 19 39  1  0
 19 40  1  0
 20 41  1  0
 21 42  1  0
 21 43  1  0
 21 44  1  0
 22 45  1  0
 22 46  1  0
 22 47  1  0
 25 48  1  0
 26 49  1  0
M  END
$$$$
