
     RDKit          3D

 43 45  0  0  0  0  0  0  0  0999 V2000
    3.5209    2.3533    1.3265 O   0  0  0  0  0  0  0  0  0  0  0  0
    2.9737    1.7383    0.4072 C   0  0  0  0  0  0  0  0  0  0  0  0
    3.6515    1.6043   -0.9810 C   0  0  0  0  0  0  0  0  0  0  0  0
    4.2226    0.2089   -1.1805 C   0  0  0  0  0  0  0  0  0  0  0  0
    5.6160    0.3530   -0.6176 C   0  0  0  0  0  0  0  0  0  0  0  0
    5.9820    1.7661   -1.0128 C   0  0  0  0  0  0  0  0  0  0  0  0
    4.7596    2.5022   -1.1422 O   0  0  0  0  0  0  0  0  0  0  0  0
    1.7432    1.1155    0.5995 N   0  0  0  0  0  0  0  0  0  0  0  0
    1.1543    1.1529    1.9419 C   0  0  0  0  0  0  0  0  0  0  0  0
    0.1669    0.0053    2.1886 C   0  0  0  0  0  0  0  0  0  0  0  0
   -0.9094   -0.0583    1.1768 N   0  0  0  0  0  0  0  0  0  0  0  0
   -2.1000   -0.7846    1.3944 C   0  0  0  0  0  0  0  0  0  0  0  0
   -2.3004   -1.8538    2.6764 S   0  0  0  0  0  0  0  0  0  0  0  0
   -3.0832   -0.4560    0.4685 N   0  0  0  0  0  0  0  0  0  0  0  0
   -4.2501   -1.1448    0.0722 C   0  0  0  0  0  0  0  0  0  0  0  0
   -5.2740   -0.3849   -0.5133 C   0  0  0  0  0  0  0  0  0  0  0  0
   -6.4469   -0.9969   -0.9625 C   0  0  0  0  0  0  0  0  0  0  0  0
   -6.5886   -2.3725   -0.8433 C   0  0  0  0  0  0  0  0  0  0  0  0
   -7.7101   -2.9615   -1.2775 F   0  0  0  0  0  0  0  0  0  0  0  0
   -5.5757   -3.1455   -0.2926 C   0  0  0  0  0  0  0  0  0  0  0  0
   -4.4021   -2.5320    0.1573 C   0  0  0  0  0  0  0  0  0  0  0  0
   -0.5691    0.5143   -0.1392 C   0  0  0  0  0  0  0  0  0  0  0  0
    0.9375    0.4731   -0.4437 C   0  0  0  0  0  0  0  0  0  0  0  0
    2.9261    1.8665   -1.7544 H   0  0  0  0  0  0  0  0  0  0  0  0
    3.6605   -0.5926   -0.6953 H   0  0  0  0  0  0  0  0  0  0  0  0
    4.2851   -0.0150   -2.2522 H   0  0  0  0  0  0  0  0  0  0  0  0
    5.5889    0.2656    0.4750 H   0  0  0  0  0  0  0  0  0  0  0  0
    6.3215   -0.3911   -0.9968 H   0  0  0  0  0  0  0  0  0  0  0  0
    6.4858    1.7863   -1.9848 H   0  0  0  0  0  0  0  0  0  0  0  0
    6.6291    2.2519   -0.2770 H   0  0  0  0  0  0  0  0  0  0  0  0
    1.9459    1.1271    2.6987 H   0  0  0  0  0  0  0  0  0  0  0  0
    0.6388    2.1168    2.0326 H   0  0  0  0  0  0  0  0  0  0  0  0
    0.6990   -0.9534    2.1519 H   0  0  0  0  0  0  0  0  0  0  0  0
   -0.2723    0.1179    3.1850 H   0  0  0  0  0  0  0  0  0  0  0  0
   -3.0580    0.5207    0.2065 H   0  0  0  0  0  0  0  0  0  0  0  0
   -5.1811    0.6936   -0.6122 H   0  0  0  0  0  0  0  0  0  0  0  0
   -7.2471   -0.4107   -1.4026 H   0  0  0  0  0  0  0  0  0  0  0  0
   -5.6971   -4.2218   -0.2226 H   0  0  0  0  0  0  0  0  0  0  0  0
   -3.6115   -3.1692    0.5397 H   0  0  0  0  0  0  0  0  0  0  0  0
   -0.9167    1.5542   -0.1265 H   0  0  0  0  0  0  0  0  0  0  0  0
   -1.1062   -0.0150   -0.9330 H   0  0  0  0  0  0  0  0  0  0  0  0
    1.1195    0.9407   -1.4131 H   0  0  0  0  0  0  0  0  0  0  0  0
    1.2712   -0.5692   -0.5028 H   0  0  0  0  0  0  0  0  0  0  0  0
  1  2  2  0
  2  3  1  0
  3  4  1  0
  4  5  1  0
  5  6  1  0
  6  7  1  0
  2  8  1  0
  8  9  1  0
  9 10  1  0
 10 11  1  0
 11 12  1  0
 12 13  2  0
 12 14  1  0
 14 15  1  0
 15 16  2  0
 16 17  1  0
 17 18  2  0
 18 19  1  0
 18 20  1  0
 20 21  2  0
 11 22  1  0
 22 23  1  0
  7  3  1  0
 23  8  1  0
 21 15  1  0
  3 24  1  0
  4 25  1  0
  4 26  1  0
  5 27  1  0
  5 28  1  0
  6 29  1  0
  6 30  1  0
  9 31  1  0
  9 32  1  0
 10 33  1  0
 10 34  1  0
 14 35  1  0
 16 36  1  0
 17 37  1  0
 20 38  1  0
 21 39  1  0
 22 40  1  0
 22 41  1  0
 23 42  1  0
 23 43  1  0
M  END
$$$$
