
     RDKit          3D

 80 86  0  0  0  0  0  0  0  0999 V2000
   -5.7235   -0.9716    1.0997 C   0  0  0  0  0  0  0  0  0  0  0  0
   -4.3368   -0.4744    1.3889 C   0  0  0  0  0  0  0  0  0  0  0  0
   -4.0025   -0.0026    2.6808 C   0  0  0  0  0  0  0  0  0  0  0  0
   -5.1505    0.0596    3.9786 Cl  0  0  0  0  0  0  0  0  0  0  0  0
   -2.7177    0.4692    2.9858 C   0  0  0  0  0  0  0  0  0  0  0  0
   -1.7186    0.4716    2.0223 C   0  0  0  0  0  0  0  0  0  0  0  0
   -2.0148   -0.0041    0.7483 C   0  0  0  0  0  0  0  0  0  0  0  0
   -3.3205   -0.4357    0.4178 C   0  0  0  0  0  0  0  0  0  0  0  0
   -3.3551   -0.7228   -0.9691 N   0  0  0  0  0  0  0  0  0  0  0  0
   -4.4849   -1.1258   -1.7760 C   0  0  0  0  0  0  0  0  0  0  0  0
   -4.7897   -2.6087   -1.7643 C   0  0  0  0  0  0  0  0  0  0  0  0
   -3.7852   -3.5813   -1.6477 C   0  0  0  0  0  0  0  0  0  0  0  0
   -4.1037   -4.9408   -1.6720 C   0  0  0  0  0  0  0  0  0  0  0  0
   -5.4268   -5.3475   -1.8284 C   0  0  0  0  0  0  0  0  0  0  0  0
   -6.4329   -4.3956   -1.9713 C   0  0  0  0  0  0  0  0  0  0  0  0
   -6.1160   -3.0362   -1.9494 C   0  0  0  0  0  0  0  0  0  0  0  0
   -2.1080   -0.4948   -1.5801 C   0  0  0  0  0  0  0  0  0  0  0  0
   -1.8666   -0.6098   -2.7764 O   0  0  0  0  0  0  0  0  0  0  0  0
   -1.1100   -0.0977   -0.4556 C   0  0  1  0  0  0  0  0  0  0  0  0
   -0.4483    1.2028   -0.7203 C   0  0  0  0  0  0  0  0  0  0  0  0
    0.8126    0.9716   -1.2814 C   0  0  0  0  0  0  0  0  0  0  0  0
    1.4325    2.1693   -1.4929 C   0  0  0  0  0  0  0  0  0  0  0  0
    2.6788    2.3826   -1.9088 O   0  0  0  0  0  0  0  0  0  0  0  0
    0.5157    3.1808   -1.1407 N   0  0  0  0  0  0  0  0  0  0  0  0
    0.7099    4.5868   -1.3286 C   0  0  0  0  0  0  0  0  0  0  0  0
    0.1437    5.5133   -0.4439 C   0  0  0  0  0  0  0  0  0  0  0  0
    0.3504    6.8831   -0.6322 C   0  0  0  0  0  0  0  0  0  0  0  0
    1.1132    7.3378   -1.7058 C   0  0  0  0  0  0  0  0  0  0  0  0
    1.6637    6.4245   -2.6023 C   0  0  0  0  0  0  0  0  0  0  0  0
    1.4624    5.0545   -2.4182 C   0  0  0  0  0  0  0  0  0  0  0  0
   -0.6295    2.5580   -0.5992 C   0  0  0  0  0  0  0  0  0  0  0  0
   -1.6722    3.2493   -0.1437 O   0  0  0  0  0  0  0  0  0  0  0  0
    1.0709   -0.4850   -1.4459 C   0  0  1  0  0  0  0  0  0  0  0  0
    2.5384   -0.9508   -1.3240 C   0  0  0  0  0  0  0  0  0  0  0  0
    2.9589   -1.2593    0.0374 N   0  0  0  0  0  0  0  0  0  0  0  0
    4.2683   -1.0461    0.4162 C   0  0  0  0  0  0  0  0  0  0  0  0
    5.1122   -0.5323   -0.3066 O   0  0  0  0  0  0  0  0  0  0  0  0
    4.5037   -1.4636    1.6862 O   0  0  0  0  0  0  0  0  0  0  0  0
    5.7980   -1.2751    2.3126 C   0  0  0  0  0  0  0  0  0  0  0  0
    6.9068   -2.0230    1.5639 C   0  0  0  0  0  0  0  0  0  0  0  0
    5.6443   -1.8994    3.7082 C   0  0  0  0  0  0  0  0  0  0  0  0
    6.1167    0.2149    2.4750 C   0  0  0  0  0  0  0  0  0  0  0  0
    1.9984   -2.0291    0.8152 C   0  0  0  0  0  0  0  0  0  0  0  0
    0.6553   -1.2928    0.8530 C   0  0  0  0  0  0  0  0  0  0  0  0
    0.0457   -1.0927   -0.4792 N   0  0  0  0  0  0  0  0  0  0  0  0
   -5.6799   -1.9664    0.6558 H   0  0  0  0  0  0  0  0  0  0  0  0
   -6.3414   -1.0970    1.9910 H   0  0  0  0  0  0  0  0  0  0  0  0
   -6.2536   -0.2745    0.4462 H   0  0  0  0  0  0  0  0  0  0  0  0
   -2.4939    0.8405    3.9847 H   0  0  0  0  0  0  0  0  0  0  0  0
   -0.7362    0.8625    2.2712 H   0  0  0  0  0  0  0  0  0  0  0  0
   -4.2906   -0.8543   -2.8217 H   0  0  0  0  0  0  0  0  0  0  0  0
   -5.3558   -0.5332   -1.4827 H   0  0  0  0  0  0  0  0  0  0  0  0
   -2.7408   -3.2942   -1.5453 H   0  0  0  0  0  0  0  0  0  0  0  0
   -3.3147   -5.6829   -1.5772 H   0  0  0  0  0  0  0  0  0  0  0  0
   -5.6714   -6.4060   -1.8504 H   0  0  0  0  0  0  0  0  0  0  0  0
   -7.4641   -4.7113   -2.1067 H   0  0  0  0  0  0  0  0  0  0  0  0
   -6.9151   -2.3082   -2.0740 H   0  0  0  0  0  0  0  0  0  0  0  0
    2.9790    3.2459   -1.5716 H   0  0  0  0  0  0  0  0  0  0  0  0
   -0.4355    5.1960    0.4192 H   0  0  0  0  0  0  0  0  0  0  0  0
   -0.0849    7.5956    0.0646 H   0  0  0  0  0  0  0  0  0  0  0  0
    1.2689    8.4038   -1.8500 H   0  0  0  0  0  0  0  0  0  0  0  0
    2.2379    6.7795   -3.4543 H   0  0  0  0  0  0  0  0  0  0  0  0
    1.8579    4.3740   -3.1703 H   0  0  0  0  0  0  0  0  0  0  0  0
   -2.3628    2.6212    0.1310 H   0  0  0  0  0  0  0  0  0  0  0  0
    0.7487   -0.7473   -2.4635 H   0  0  0  0  0  0  0  0  0  0  0  0
    3.2237   -0.2336   -1.7867 H   0  0  0  0  0  0  0  0  0  0  0  0
    2.6489   -1.8930   -1.8769 H   0  0  0  0  0  0  0  0  0  0  0  0
    7.1369   -1.5573    0.6014 H   0  0  0  0  0  0  0  0  0  0  0  0
    6.6055   -3.0545    1.3512 H   0  0  0  0  0  0  0  0  0  0  0  0
    7.8363   -2.0425    2.1439 H   0  0  0  0  0  0  0  0  0  0  0  0
    4.8263   -1.4226    4.2606 H   0  0  0  0  0  0  0  0  0  0  0  0
    6.5617   -1.8070    4.2991 H   0  0  0  0  0  0  0  0  0  0  0  0
    5.3862   -2.9614    3.6319 H   0  0  0  0  0  0  0  0  0  0  0  0
    6.2880    0.7043    1.5110 H   0  0  0  0  0  0  0  0  0  0  0  0
    7.0138    0.3668    3.0851 H   0  0  0  0  0  0  0  0  0  0  0  0
    5.2802    0.7413    2.9487 H   0  0  0  0  0  0  0  0  0  0  0  0
    2.3491   -2.1908    1.8389 H   0  0  0  0  0  0  0  0  0  0  0  0
    1.8946   -3.0143    0.3445 H   0  0  0  0  0  0  0  0  0  0  0  0
   -0.0320   -1.8760    1.4760 H   0  0  0  0  0  0  0  0  0  0  0  0
    0.8425   -0.3343    1.3494 H   0  0  0  0  0  0  0  0  0  0  0  0
  1  2  1  0
  2  3  2  0
  3  4  1  0
  3  5  1  0
  5  6  2  0
  6  7  1  0
  7  8  2  0
  8  9  1  0
  9 10  1  0
 10 11  1  0
 11 12  2  0
 12 13  1  0
 13 14  2  0
 14 15  1  0
 15 16  2  0
  9 17  1  0
 17 18  2  0
 17 19  1  0
 19 20  1  0
 20 21  1  0
 21 22  2  0
 22 23  1  0
 22 24  1  0
 24 25  1  0
 25 26  2  0
 26 27  1  0
 27 28  2  0
 28 29  1  0
 29 30  2  0
 24 31  1  0
 31 32  1  0
 21 33  1  0
 33 34  1  0
 34 35  1  0
 35 36  1  0
 36 37  2  0
 36 38  1  0
 38 39  1  0
 39 40  1  0
 39 41  1  0
 39 42  1  0
 35 43  1  0
 43 44  1  0
 44 45  1  0
  8  2  1  0
 16 11  1  0
 19 45  1  1
 19  7  1  0
 31 20  2  0
 45 33  1  0
 30 25  1  0
  1 46  1  0
  1 47  1  0
  1 48  1  0
  5 49  1  0
  6 50  1  0
 10 51  1  0
 10 52  1  0
 12 53  1  0
 13 54  1  0
 14 55  1  0
 15 56  1  0
 16 57  1  0
 23 58  1  0
 26 59  1  0
 27 60  1  0
 28 61  1  0
 29 62  1  0
 30 63  1  0
 32 64  1  0
 33 65  1  6
 34 66  1  0
 34 67  1  0
 40 68  1  0
 40 69  1  0
 40 70  1  0
 41 71  1  0
 41 72  1  0
 41 73  1  0
 42 74  1  0
 42 75  1  0
 42 76  1  0
 43 77  1  0
 43 78  1  0
 44 79  1  0
 44 80  1  0
M  END
$$$$
