
     RDKit          3D

 64 68  0  0  0  0  0  0  0  0999 V2000
    1.5790   -2.2963    1.6039 O   0  0  0  0  0  0  0  0  0  0  0  0
    1.6291   -1.3657    0.7989 C   0  0  0  0  0  0  0  0  0  0  0  0
    0.4419   -1.0636   -0.1276 C   0  0  0  0  0  0  0  0  0  0  0  0
   -0.3877   -2.3224   -0.4349 C   0  0  0  0  0  0  0  0  0  0  0  0
   -1.3655   -2.7289    0.6694 C   0  0  0  0  0  0  0  0  0  0  0  0
   -2.2426   -1.5708    1.1621 C   0  0  0  0  0  0  0  0  0  0  0  0
   -3.3047   -1.1888    0.1105 C   0  0  0  0  0  0  0  0  0  0  0  0
   -4.2306   -0.2067    0.6629 N   0  0  0  0  0  0  0  0  0  0  0  0
   -5.1673    0.5274   -0.0553 C   0  0  0  0  0  0  0  0  0  0  0  0
   -4.9406    0.7700   -1.3846 N   0  0  0  0  0  0  0  0  0  0  0  0
   -5.7504    1.4883   -2.2223 C   0  0  0  0  0  0  0  0  0  0  0  0
   -5.2452    1.6904   -3.8096 S   0  0  0  0  0  0  0  0  0  0  0  0
   -6.9145    1.9997   -1.7261 N   0  0  0  0  0  0  0  0  0  0  0  0
   -7.1666    1.8012   -0.4718 C   0  0  0  0  0  0  0  0  0  0  0  0
   -8.4276    2.3604    0.0921 C   0  0  0  0  0  0  0  0  0  0  0  0
   -8.7334    2.1985    1.3862 C   0  0  0  0  0  0  0  0  0  0  0  0
   -7.8690    1.4868    2.2939 C   0  0  0  0  0  0  0  0  0  0  0  0
   -6.7182    0.9402    1.8772 C   0  0  0  0  0  0  0  0  0  0  0  0
   -6.2935    1.0454    0.4895 C   0  0  0  0  0  0  0  0  0  0  0  0
   -1.3503   -0.3887    1.5697 C   0  0  0  0  0  0  0  0  0  0  0  0
   -0.4151    0.0718    0.4513 C   0  0  0  0  0  0  0  0  0  0  0  0
    2.7302   -0.5228    0.7333 N   0  0  0  0  0  0  0  0  0  0  0  0
    3.8667   -0.7613    1.6359 C   0  0  0  0  0  0  0  0  0  0  0  0
    5.2213   -0.7048    0.9029 C   0  0  0  0  0  0  0  0  0  0  0  0
    5.3978    0.5551    0.1322 N   0  0  0  0  0  0  0  0  0  0  0  0
    6.3692    0.4961   -0.8709 C   0  0  0  0  0  0  0  0  0  0  0  0
    7.6672    0.0470   -0.5593 C   0  0  0  0  0  0  0  0  0  0  0  0
    8.6765   -0.0240   -1.5249 C   0  0  0  0  0  0  0  0  0  0  0  0
    8.3990    0.3573   -2.8269 C   0  0  0  0  0  0  0  0  0  0  0  0
    9.3582    0.2918   -3.7590 F   0  0  0  0  0  0  0  0  0  0  0  0
    7.1355    0.8077   -3.1746 C   0  0  0  0  0  0  0  0  0  0  0  0
    6.1309    0.8782   -2.2014 C   0  0  0  0  0  0  0  0  0  0  0  0
    4.1824    1.3739   -0.0318 C   0  0  0  0  0  0  0  0  0  0  0  0
    2.9513    0.4945   -0.3084 C   0  0  0  0  0  0  0  0  0  0  0  0
    0.8551   -0.7365   -1.0887 H   0  0  0  0  0  0  0  0  0  0  0  0
    0.2771   -3.1675   -0.6531 H   0  0  0  0  0  0  0  0  0  0  0  0
   -0.9586   -2.1430   -1.3550 H   0  0  0  0  0  0  0  0  0  0  0  0
   -0.8056   -3.1321    1.5213 H   0  0  0  0  0  0  0  0  0  0  0  0
   -1.9956   -3.5518    0.3100 H   0  0  0  0  0  0  0  0  0  0  0  0
   -2.7724   -1.9135    2.0615 H   0  0  0  0  0  0  0  0  0  0  0  0
   -2.8216   -0.8063   -0.7927 H   0  0  0  0  0  0  0  0  0  0  0  0
   -3.8755   -2.0798   -0.1772 H   0  0  0  0  0  0  0  0  0  0  0  0
   -4.5573   -0.4690    1.5876 H   0  0  0  0  0  0  0  0  0  0  0  0
   -4.0824    0.4424   -1.7988 H   0  0  0  0  0  0  0  0  0  0  0  0
   -9.0736    2.8981   -0.5912 H   0  0  0  0  0  0  0  0  0  0  0  0
   -9.6541    2.6137    1.7851 H   0  0  0  0  0  0  0  0  0  0  0  0
   -8.1765    1.4086    3.3333 H   0  0  0  0  0  0  0  0  0  0  0  0
   -6.0930    0.4237    2.5948 H   0  0  0  0  0  0  0  0  0  0  0  0
   -0.7469   -0.6843    2.4379 H   0  0  0  0  0  0  0  0  0  0  0  0
   -1.9613    0.4583    1.9031 H   0  0  0  0  0  0  0  0  0  0  0  0
    0.2139    0.8775    0.8464 H   0  0  0  0  0  0  0  0  0  0  0  0
   -1.0071    0.5165   -0.3574 H   0  0  0  0  0  0  0  0  0  0  0  0
    3.7705   -1.7228    2.1500 H   0  0  0  0  0  0  0  0  0  0  0  0
    3.8244    0.0206    2.4044 H   0  0  0  0  0  0  0  0  0  0  0  0
    5.2745   -1.5651    0.2214 H   0  0  0  0  0  0  0  0  0  0  0  0
    6.0235   -0.8037    1.6430 H   0  0  0  0  0  0  0  0  0  0  0  0
    7.9156   -0.2313    0.4625 H   0  0  0  0  0  0  0  0  0  0  0  0
    9.6714   -0.3666   -1.2612 H   0  0  0  0  0  0  0  0  0  0  0  0
    6.9348    1.1009   -4.2004 H   0  0  0  0  0  0  0  0  0  0  0  0
    5.1516    1.2155   -2.5236 H   0  0  0  0  0  0  0  0  0  0  0  0
    4.2878    2.1484   -0.7988 H   0  0  0  0  0  0  0  0  0  0  0  0
    4.0243    1.9210    0.9068 H   0  0  0  0  0  0  0  0  0  0  0  0
    3.0804   -0.0419   -1.2558 H   0  0  0  0  0  0  0  0  0  0  0  0
    2.0635    1.1251   -0.3978 H   0  0  0  0  0  0  0  0  0  0  0  0
  1  2  2  0
  2  3  1  0
  3  4  1  0
  4  5  1  0
  5  6  1  0
  6  7  1  0
  7  8  1  0
  8  9  1  0
  9 10  1  0
 10 11  1  0
 11 12  2  0
 11 13  1  0
 13 14  2  0
 14 15  1  0
 15 16  2  0
 16 17  1  0
 17 18  2  0
 18 19  1  0
  6 20  1  0
 20 21  1  0
  2 22  1  0
 22 23  1  0
 23 24  1  0
 24 25  1  0
 25 26  1  0
 26 27  2  0
 27 28  1  0
 28 29  2  0
 29 30  1  0
 29 31  1  0
 31 32  2  0
 25 33  1  0
 33 34  1  0
 21  3  1  0
 34 22  1  0
 19  9  2  0
 32 26  1  0
 19 14  1  0
  3 35  1  0
  4 36  1  0
  4 37  1  0
  5 38  1  0
  5 39  1  0
  6 40  1  0
  7 41  1  0
  7 42  1  0
  8 43  1  0
 10 44  1  0
 15 45  1  0
 16 46  1  0
 17 47  1  0
 18 48  1  0
 20 49  1  0
 20 50  1  0
 21 51  1  0
 21 52  1  0
 23 53  1  0
 23 54  1  0
 24 55  1  0
 24 56  1  0
 27 57  1  0
 28 58  1  0
 31 59  1  0
 32 60  1  0
 33 61  1  0
 33 62  1  0
 34 63  1  0
 34 64  1  0
M  END
$$$$
