
     RDKit          3D

 34 36  0  0  0  0  0  0  0  0999 V2000
    2.9077   -0.5430    3.0668 C   0  0  0  0  0  0  0  0  0  0  0  0
    3.2988   -0.9198    1.6701 C   0  0  0  0  0  0  0  0  0  0  0  0
    4.0470   -2.0556    1.4381 C   0  0  0  0  0  0  0  0  0  0  0  0
    4.3617   -2.3140    0.1256 C   0  0  0  0  0  0  0  0  0  0  0  0
    3.9768   -1.5346   -0.8987 N   0  0  0  0  0  0  0  0  0  0  0  0
    3.2323   -0.4593   -0.5825 C   0  0  0  0  0  0  0  0  0  0  0  0
    2.7596    0.6094   -1.9244 S   0  0  0  0  0  0  0  0  0  0  0  0
    1.1416    1.0940   -1.4746 C   0  0  0  0  0  0  0  0  0  0  0  0
    0.7444    2.4299   -1.2888 C   0  0  0  0  0  0  0  0  0  0  0  0
   -0.5842    2.4219   -0.9203 C   0  0  0  0  0  0  0  0  0  0  0  0
   -1.3832    3.4562   -0.6643 O   0  0  0  0  0  0  0  0  0  0  0  0
   -1.0388    1.0991   -0.9320 N   0  0  0  0  0  0  0  0  0  0  0  0
   -2.3885    0.6627   -0.7295 C   0  0  0  0  0  0  0  0  0  0  0  0
   -3.2477    1.3673    0.1241 C   0  0  0  0  0  0  0  0  0  0  0  0
   -4.5637    0.9347    0.3176 C   0  0  0  0  0  0  0  0  0  0  0  0
   -5.0279   -0.1965   -0.3485 C   0  0  0  0  0  0  0  0  0  0  0  0
   -6.8079   -0.7764   -0.0884 Br  0  0  0  0  0  0  0  0  0  0  0  0
   -4.1902   -0.8993   -1.2104 C   0  0  0  0  0  0  0  0  0  0  0  0
   -2.8732   -0.4702   -1.4034 C   0  0  0  0  0  0  0  0  0  0  0  0
    0.0614    0.2776   -1.2126 C   0  0  0  0  0  0  0  0  0  0  0  0
    0.0283   -1.0579   -1.1662 O   0  0  0  0  0  0  0  0  0  0  0  0
    2.8933   -0.1072    0.6742 N   0  0  0  0  0  0  0  0  0  0  0  0
    3.7999   -0.3826    3.6797 H   0  0  0  0  0  0  0  0  0  0  0  0
    2.3201    0.3807    3.0718 H   0  0  0  0  0  0  0  0  0  0  0  0
    2.3004   -1.3348    3.5159 H   0  0  0  0  0  0  0  0  0  0  0  0
    4.3748   -2.7071    2.2369 H   0  0  0  0  0  0  0  0  0  0  0  0
    4.9526   -3.1824   -0.1503 H   0  0  0  0  0  0  0  0  0  0  0  0
    1.3652    3.3084   -1.4022 H   0  0  0  0  0  0  0  0  0  0  0  0
   -0.8562    4.2679   -0.7744 H   0  0  0  0  0  0  0  0  0  0  0  0
   -2.9097    2.2405    0.6761 H   0  0  0  0  0  0  0  0  0  0  0  0
   -5.2136    1.4892    0.9895 H   0  0  0  0  0  0  0  0  0  0  0  0
   -4.5544   -1.7705   -1.7495 H   0  0  0  0  0  0  0  0  0  0  0  0
   -2.2626   -1.0058   -2.1281 H   0  0  0  0  0  0  0  0  0  0  0  0
   -0.6641   -1.3271   -0.5373 H   0  0  0  0  0  0  0  0  0  0  0  0
  1  2  1  0
  2  3  2  0
  3  4  1  0
  4  5  2  0
  5  6  1  0
  6  7  1  0
  7  8  1  0
  8  9  1  0
  9 10  2  0
 10 11  1  0
 10 12  1  0
 12 13  1  0
 13 14  2  0
 14 15  1  0
 15 16  2  0
 16 17  1  0
 16 18  1  0
 18 19  2  0
 12 20  1  0
 20 21  1  0
  6 22  2  0
 22  2  1  0
 20  8  2  0
 19 13  1  0
  1 23  1  0
  1 24  1  0
  1 25  1  0
  3 26  1  0
  4 27  1  0
  9 28  1  0
 11 29  1  0
 14 30  1  0
 15 31  1  0
 18 32  1  0
 19 33  1  0
 21 34  1  0
M  END
$$$$
