
     RDKit          3D

 39 41  0  0  0  0  0  0  0  0999 V2000
   -7.9856    1.6143   -1.0026 C   0  0  0  0  0  0  0  0  0  0  0  0
   -6.5103    1.2602   -0.9492 C   0  0  0  0  0  0  0  0  0  0  0  0
   -6.0033    1.6782    0.3174 O   0  0  0  0  0  0  0  0  0  0  0  0
   -4.6768    1.4487    0.5681 C   0  0  0  0  0  0  0  0  0  0  0  0
   -4.2473    1.8813    1.8226 C   0  0  0  0  0  0  0  0  0  0  0  0
   -2.9179    1.7189    2.2294 C   0  0  0  0  0  0  0  0  0  0  0  0
   -1.9967    1.1084    1.3585 C   0  0  0  0  0  0  0  0  0  0  0  0
   -0.6554    0.8803    1.6194 N   0  0  0  0  0  0  0  0  0  0  0  0
   -0.0996    0.2931    0.5878 C   0  0  0  0  0  0  0  0  0  0  0  0
    1.2320   -0.0350    0.6100 N   0  0  0  0  0  0  0  0  0  0  0  0
    1.9576   -0.6517   -0.3854 C   0  0  0  0  0  0  0  0  0  0  0  0
    1.5484   -1.0241   -1.4780 O   0  0  0  0  0  0  0  0  0  0  0  0
    3.4038   -0.8380    0.0248 C   0  0  0  0  0  0  0  0  0  0  0  0
    4.2048   -1.5215   -1.0743 C   0  0  0  0  0  0  0  0  0  0  0  0
    5.5936   -1.6991   -0.6839 N   0  0  0  0  0  0  0  0  0  0  0  0
    6.0960   -2.7913   -0.0274 C   0  0  0  0  0  0  0  0  0  0  0  0
    7.4425   -2.5798    0.1749 C   0  0  0  0  0  0  0  0  0  0  0  0
    7.7607   -1.3186   -0.3834 C   0  0  0  0  0  0  0  0  0  0  0  0
    6.5992   -0.7969   -0.9101 C   0  0  0  0  0  0  0  0  0  0  0  0
   -1.1157   -0.0214   -0.7369 S   0  0  0  0  0  0  0  0  0  0  0  0
   -2.4416    0.6807    0.1071 C   0  0  0  0  0  0  0  0  0  0  0  0
   -3.7765    0.8394   -0.3116 C   0  0  0  0  0  0  0  0  0  0  0  0
   -8.1285    2.6920   -0.8714 H   0  0  0  0  0  0  0  0  0  0  0  0
   -8.4246    1.3133   -1.9580 H   0  0  0  0  0  0  0  0  0  0  0  0
   -8.5304    1.1196   -0.1916 H   0  0  0  0  0  0  0  0  0  0  0  0
   -5.9878    1.7821   -1.7591 H   0  0  0  0  0  0  0  0  0  0  0  0
   -6.3982    0.1760   -1.0646 H   0  0  0  0  0  0  0  0  0  0  0  0
   -4.9565    2.3540    2.4992 H   0  0  0  0  0  0  0  0  0  0  0  0
   -2.5939    2.0590    3.2076 H   0  0  0  0  0  0  0  0  0  0  0  0
    1.6837    0.2255    1.4764 H   0  0  0  0  0  0  0  0  0  0  0  0
    3.4320   -1.4370    0.9433 H   0  0  0  0  0  0  0  0  0  0  0  0
    3.8322    0.1462    0.2506 H   0  0  0  0  0  0  0  0  0  0  0  0
    3.7984   -2.5127   -1.3086 H   0  0  0  0  0  0  0  0  0  0  0  0
    4.1948   -0.9350   -2.0009 H   0  0  0  0  0  0  0  0  0  0  0  0
    5.4644   -3.6283    0.2411 H   0  0  0  0  0  0  0  0  0  0  0  0
    8.1228   -3.2627    0.6669 H   0  0  0  0  0  0  0  0  0  0  0  0
    8.7331   -0.8439   -0.4037 H   0  0  0  0  0  0  0  0  0  0  0  0
    6.4144    0.1369   -1.4253 H   0  0  0  0  0  0  0  0  0  0  0  0
   -4.0680    0.4890   -1.2943 H   0  0  0  0  0  0  0  0  0  0  0  0
  1  2  1  0
  2  3  1  0
  3  4  1  0
  4  5  2  0
  5  6  1  0
  6  7  2  0
  7  8  1  0
  8  9  2  0
  9 10  1  0
 10 11  1  0
 11 12  2  0
 11 13  1  0
 13 14  1  0
 14 15  1  0
 15 16  1  0
 16 17  2  0
 17 18  1  0
 18 19  2  0
  9 20  1  0
 20 21  1  0
 21 22  2  0
 22  4  1  0
 21  7  1  0
 19 15  1  0
  1 23  1  0
  1 24  1  0
  1 25  1  0
  2 26  1  0
  2 27  1  0
  5 28  1  0
  6 29  1  0
 10 30  1  0
 13 31  1  0
 13 32  1  0
 14 33  1  0
 14 34  1  0
 16 35  1  0
 17 36  1  0
 18 37  1  0
 19 38  1  0
 22 39  1  0
M  END
$$$$
