
     RDKit          3D

 52 54  0  0  0  0  0  0  0  0999 V2000
    2.6822   -0.4577    0.3346 O   0  0  0  0  0  0  0  0  0  0  0  0
    3.2180    0.3226   -0.4474 C   0  0  0  0  0  0  0  0  0  0  0  0
    4.7052    0.6023   -0.4781 C   0  0  0  0  0  0  0  0  0  0  0  0
    5.4519   -0.1917    0.5904 C   0  0  0  0  0  0  0  0  0  0  0  0
    6.9334    0.0860    0.5411 C   0  0  0  0  0  0  0  0  0  0  0  0
    7.4761    1.1718    1.2417 C   0  0  0  0  0  0  0  0  0  0  0  0
    8.8437    1.4426    1.1752 C   0  0  0  0  0  0  0  0  0  0  0  0
    9.6795    0.6336    0.4070 C   0  0  0  0  0  0  0  0  0  0  0  0
    9.1491   -0.4467   -0.2956 C   0  0  0  0  0  0  0  0  0  0  0  0
    7.7817   -0.7188   -0.2314 C   0  0  0  0  0  0  0  0  0  0  0  0
    2.5173    1.0484   -1.4036 N   0  0  0  0  0  0  0  0  0  0  0  0
    1.1571    1.0477   -1.6905 C   0  0  0  0  0  0  0  0  0  0  0  0
    0.6861    2.0857   -2.9095 S   0  0  0  0  0  0  0  0  0  0  0  0
    0.4129    0.1918   -0.9133 N   0  0  0  0  0  0  0  0  0  0  0  0
   -0.9541   -0.1597   -0.8715 C   0  0  0  0  0  0  0  0  0  0  0  0
   -1.3241   -1.0516    0.1514 C   0  0  0  0  0  0  0  0  0  0  0  0
   -2.6466   -1.4793    0.3016 C   0  0  0  0  0  0  0  0  0  0  0  0
   -3.6158   -1.0129   -0.5828 C   0  0  0  0  0  0  0  0  0  0  0  0
   -5.3050   -1.5305   -0.4192 S   0  0  0  0  0  6  0  0  0  0  0  0
   -5.4261   -2.3143    0.7914 O   0  0  0  0  0  0  0  0  0  0  0  0
   -5.7111   -2.0656   -1.7007 O   0  0  0  0  0  0  0  0  0  0  0  0
   -6.1240   -0.0595   -0.1696 N   0  0  0  0  0  0  0  0  0  0  0  0
   -5.8228    0.6822    1.0958 C   0  0  0  0  0  0  0  0  0  0  0  0
   -6.6639    0.1774    2.2756 C   0  0  0  0  0  0  0  0  0  0  0  0
   -8.0654    0.2019    1.9703 O   0  0  0  0  0  0  0  0  0  0  0  0
   -8.3437   -0.6253    0.8308 C   0  0  0  0  0  0  0  0  0  0  0  0
   -7.6013   -0.1097   -0.4042 C   0  0  0  0  0  0  0  0  0  0  0  0
   -3.2695   -0.1381   -1.6128 C   0  0  0  0  0  0  0  0  0  0  0  0
   -1.9414    0.2857   -1.7519 C   0  0  0  0  0  0  0  0  0  0  0  0
    5.0816    0.3448   -1.4762 H   0  0  0  0  0  0  0  0  0  0  0  0
    4.8560    1.6788   -0.3285 H   0  0  0  0  0  0  0  0  0  0  0  0
    5.2750   -1.2674    0.4616 H   0  0  0  0  0  0  0  0  0  0  0  0
    5.0673    0.0530    1.5886 H   0  0  0  0  0  0  0  0  0  0  0  0
    6.8376    1.8120    1.8463 H   0  0  0  0  0  0  0  0  0  0  0  0
    9.2578    2.2847    1.7240 H   0  0  0  0  0  0  0  0  0  0  0  0
   10.7446    0.8439    0.3576 H   0  0  0  0  0  0  0  0  0  0  0  0
    9.8013   -1.0790   -0.8931 H   0  0  0  0  0  0  0  0  0  0  0  0
    7.3837   -1.5660   -0.7862 H   0  0  0  0  0  0  0  0  0  0  0  0
    3.0460    1.6783   -1.9937 H   0  0  0  0  0  0  0  0  0  0  0  0
    0.9794   -0.2858   -0.2094 H   0  0  0  0  0  0  0  0  0  0  0  0
   -0.5788   -1.4287    0.8504 H   0  0  0  0  0  0  0  0  0  0  0  0
   -2.9019   -2.1725    1.0998 H   0  0  0  0  0  0  0  0  0  0  0  0
   -4.7569    0.6377    1.3363 H   0  0  0  0  0  0  0  0  0  0  0  0
   -6.0582    1.7371    0.9072 H   0  0  0  0  0  0  0  0  0  0  0  0
   -6.3836   -0.8350    2.5814 H   0  0  0  0  0  0  0  0  0  0  0  0
   -6.5064    0.8306    3.1401 H   0  0  0  0  0  0  0  0  0  0  0  0
   -9.4231   -0.5877    0.6543 H   0  0  0  0  0  0  0  0  0  0  0  0
   -8.0823   -1.6635    1.0637 H   0  0  0  0  0  0  0  0  0  0  0  0
   -7.9259    0.9138   -0.6297 H   0  0  0  0  0  0  0  0  0  0  0  0
   -7.8388   -0.7162   -1.2830 H   0  0  0  0  0  0  0  0  0  0  0  0
   -4.0246    0.2146   -2.3131 H   0  0  0  0  0  0  0  0  0  0  0  0
   -1.7292    0.9540   -2.5756 H   0  0  0  0  0  0  0  0  0  0  0  0
  1  2  2  0
  2  3  1  0
  3  4  1  0
  4  5  1  0
  5  6  2  0
  6  7  1  0
  7  8  2  0
  8  9  1  0
  9 10  2  0
  2 11  1  0
 11 12  1  0
 12 13  2  0
 12 14  1  0
 14 15  1  0
 15 16  2  0
 16 17  1  0
 17 18  2  0
 18 19  1  0
 19 20  2  0
 19 21  2  0
 19 22  1  0
 22 23  1  0
 23 24  1  0
 24 25  1  0
 25 26  1  0
 26 27  1  0
 18 28  1  0
 28 29  2  0
 10  5  1  0
 29 15  1  0
 27 22  1  0
  3 30  1  0
  3 31  1  0
  4 32  1  0
  4 33  1  0
  6 34  1  0
  7 35  1  0
  8 36  1  0
  9 37  1  0
 10 38  1  0
 11 39  1  0
 14 40  1  0
 16 41  1  0
 17 42  1  0
 23 43  1  0
 23 44  1  0
 24 45  1  0
 24 46  1  0
 26 47  1  0
 26 48  1  0
 27 49  1  0
 27 50  1  0
 28 51  1  0
 29 52  1  0
M  END
$$$$
