
     RDKit          3D

 46 49  0  0  0  0  0  0  0  0999 V2000
    6.3592    0.1188    1.3276 N   0  0  0  0  0  0  0  0  0  0  0  0
    6.0285   -0.5906   -0.1575 S   0  0  0  0  0  6  0  0  0  0  0  0
    6.6074    0.2850   -1.1503 O   0  0  0  0  0  0  0  0  0  0  0  0
    6.4164   -1.9761   -0.0299 O   0  0  0  0  0  0  0  0  0  0  0  0
    4.2678   -0.4783   -0.2346 C   0  0  0  0  0  0  0  0  0  0  0  0
    3.6682    0.6225   -0.8434 C   0  0  0  0  0  0  0  0  0  0  0  0
    2.2715    0.6950   -0.9230 C   0  0  0  0  0  0  0  0  0  0  0  0
    1.4473   -0.3214   -0.4104 C   0  0  0  0  0  0  0  0  0  0  0  0
    0.0559   -0.2627   -0.4776 N   0  0  0  0  0  0  0  0  0  0  0  0
   -0.7100   -1.2922   -0.0091 N   0  0  0  0  0  0  0  0  0  0  0  0
   -1.9303   -1.0718   -0.3947 C   0  0  0  0  0  0  0  0  0  0  0  0
   -3.0612   -1.9669   -0.0541 C   0  0  0  0  0  0  0  0  0  0  0  0
   -4.3482   -1.7450   -0.5571 C   0  0  0  0  0  0  0  0  0  0  0  0
   -5.3918   -2.6093   -0.2147 C   0  0  0  0  0  0  0  0  0  0  0  0
   -5.1550   -3.6952    0.6274 C   0  0  0  0  0  0  0  0  0  0  0  0
   -3.8749   -3.9216    1.1295 C   0  0  0  0  0  0  0  0  0  0  0  0
   -2.8298   -3.0605    0.7900 C   0  0  0  0  0  0  0  0  0  0  0  0
   -2.1175    0.1497   -1.2511 C   0  0  0  0  0  0  0  0  0  0  0  0
   -0.7285    0.7815   -1.1411 C   0  0  0  0  0  0  0  0  0  0  0  0
   -0.7864    2.0865   -0.3607 C   0  0  0  0  0  0  0  0  0  0  0  0
   -0.7911    2.1160    1.0434 C   0  0  0  0  0  0  0  0  0  0  0  0
   -0.8711    3.3278    1.7313 C   0  0  0  0  0  0  0  0  0  0  0  0
   -0.9551    4.5263    1.0267 C   0  0  0  0  0  0  0  0  0  0  0  0
   -0.9602    4.5150   -0.3662 C   0  0  0  0  0  0  0  0  0  0  0  0
   -0.8795    3.3039   -1.0565 C   0  0  0  0  0  0  0  0  0  0  0  0
    2.0912   -1.4213    0.1883 C   0  0  0  0  0  0  0  0  0  0  0  0
    3.4849   -1.5108    0.2745 C   0  0  0  0  0  0  0  0  0  0  0  0
    6.9187    0.9608    1.1931 H   0  0  0  0  0  0  0  0  0  0  0  0
    6.7825   -0.5672    1.9524 H   0  0  0  0  0  0  0  0  0  0  0  0
    4.2710    1.4286   -1.2549 H   0  0  0  0  0  0  0  0  0  0  0  0
    1.8420    1.5748   -1.3929 H   0  0  0  0  0  0  0  0  0  0  0  0
   -4.5645   -0.9111   -1.2176 H   0  0  0  0  0  0  0  0  0  0  0  0
   -6.3915   -2.4362   -0.6060 H   0  0  0  0  0  0  0  0  0  0  0  0
   -5.9684   -4.3664    0.8920 H   0  0  0  0  0  0  0  0  0  0  0  0
   -3.6877   -4.7682    1.7852 H   0  0  0  0  0  0  0  0  0  0  0  0
   -1.8346   -3.2481    1.1883 H   0  0  0  0  0  0  0  0  0  0  0  0
   -2.9295    0.7850   -0.8871 H   0  0  0  0  0  0  0  0  0  0  0  0
   -2.3234   -0.1685   -2.2787 H   0  0  0  0  0  0  0  0  0  0  0  0
   -0.3367    0.9679   -2.1494 H   0  0  0  0  0  0  0  0  0  0  0  0
   -0.7221    1.1892    1.6118 H   0  0  0  0  0  0  0  0  0  0  0  0
   -0.8648    3.3334    2.8182 H   0  0  0  0  0  0  0  0  0  0  0  0
   -1.0156    5.4690    1.5643 H   0  0  0  0  0  0  0  0  0  0  0  0
   -1.0267    5.4508   -0.9153 H   0  0  0  0  0  0  0  0  0  0  0  0
   -0.8878    3.3187   -2.1443 H   0  0  0  0  0  0  0  0  0  0  0  0
    1.4929   -2.2338    0.5965 H   0  0  0  0  0  0  0  0  0  0  0  0
    3.9384   -2.3832    0.7379 H   0  0  0  0  0  0  0  0  0  0  0  0
  1  2  1  0
  2  3  2  0
  2  4  2  0
  2  5  1  0
  5  6  2  0
  6  7  1  0
  7  8  2  0
  8  9  1  0
  9 10  1  0
 10 11  2  0
 11 12  1  0
 12 13  2  0
 13 14  1  0
 14 15  2  0
 15 16  1  0
 16 17  2  0
 11 18  1  0
 18 19  1  0
 19 20  1  0
 20 21  2  0
 21 22  1  0
 22 23  2  0
 23 24  1  0
 24 25  2  0
  8 26  1  0
 26 27  2  0
 27  5  1  0
 19  9  1  0
 25 20  1  0
 17 12  1  0
  1 28  1  0
  1 29  1  0
  6 30  1  0
  7 31  1  0
 13 32  1  0
 14 33  1  0
 15 34  1  0
 16 35  1  0
 17 36  1  0
 18 37  1  0
 18 38  1  0
 19 39  1  0
 21 40  1  0
 22 41  1  0
 23 42  1  0
 24 43  1  0
 25 44  1  0
 26 45  1  0
 27 46  1  0
M  END
$$$$
