
     RDKit          3D

 47 49  0  0  0  0  0  0  0  0999 V2000
    7.7295   -1.0961    0.9181 C   0  0  0  0  0  0  0  0  0  0  0  0
    7.3230    0.1018    0.0776 C   0  0  0  0  0  0  0  0  0  0  0  0
    6.2065    0.7724    0.6589 O   0  0  0  0  0  0  0  0  0  0  0  0
    4.9469    0.3894    0.2961 C   0  0  0  0  0  0  0  0  0  0  0  0
    4.6068   -0.7043   -0.4932 C   0  0  0  0  0  0  0  0  0  0  0  0
    3.2615   -0.9812   -0.7834 C   0  0  0  0  0  0  0  0  0  0  0  0
    2.2297   -0.1718   -0.2871 C   0  0  0  0  0  0  0  0  0  0  0  0
    0.8517   -0.4614   -0.5865 N   0  0  0  0  0  0  0  0  0  0  0  0
    0.3669   -1.2147   -1.6708 C   0  0  0  0  0  0  0  0  0  0  0  0
    1.1584   -1.7146   -2.6195 O   0  0  0  0  0  0  0  0  0  0  0  0
   -1.0100   -1.2800   -1.5913 C   0  0  0  0  0  0  0  0  0  0  0  0
   -1.4025   -0.5651   -0.4507 C   0  0  0  0  0  0  0  0  0  0  0  0
   -2.6639   -0.3682    0.0410 N   0  0  0  0  0  0  0  0  0  0  0  0
   -3.0026   -1.1547    1.2407 C   0  0  0  0  0  0  0  0  0  0  0  0
   -3.7691   -0.2721   -0.9337 C   0  0  0  0  0  0  0  0  0  0  0  0
   -4.8861    0.6076   -0.4145 C   0  0  0  0  0  0  0  0  0  0  0  0
   -4.6365    1.9496   -0.0880 C   0  0  0  0  0  0  0  0  0  0  0  0
   -5.6638    2.7688    0.3811 C   0  0  0  0  0  0  0  0  0  0  0  0
   -6.9518    2.2571    0.5256 C   0  0  0  0  0  0  0  0  0  0  0  0
   -7.2138    0.9270    0.2008 C   0  0  0  0  0  0  0  0  0  0  0  0
   -6.1873    0.1053   -0.2687 C   0  0  0  0  0  0  0  0  0  0  0  0
   -0.2709   -0.0412    0.1361 C   0  0  0  0  0  0  0  0  0  0  0  0
   -0.2179    0.7225    1.2284 O   0  0  0  0  0  0  0  0  0  0  0  0
    2.5824    0.9206    0.5144 C   0  0  0  0  0  0  0  0  0  0  0  0
    3.9263    1.1940    0.8004 C   0  0  0  0  0  0  0  0  0  0  0  0
    6.9332   -1.8451    0.9600 H   0  0  0  0  0  0  0  0  0  0  0  0
    7.9300   -0.7893    1.9501 H   0  0  0  0  0  0  0  0  0  0  0  0
    8.6289   -1.5666    0.5106 H   0  0  0  0  0  0  0  0  0  0  0  0
    8.1504    0.8208    0.0797 H   0  0  0  0  0  0  0  0  0  0  0  0
    7.1578   -0.1604   -0.9732 H   0  0  0  0  0  0  0  0  0  0  0  0
    5.3552   -1.3792   -0.8930 H   0  0  0  0  0  0  0  0  0  0  0  0
    3.0559   -1.8683   -1.3741 H   0  0  0  0  0  0  0  0  0  0  0  0
    0.5892   -2.1367   -3.2864 H   0  0  0  0  0  0  0  0  0  0  0  0
   -1.6522   -1.7994   -2.2877 H   0  0  0  0  0  0  0  0  0  0  0  0
   -3.8892   -0.7490    1.7382 H   0  0  0  0  0  0  0  0  0  0  0  0
   -3.2014   -2.1990    0.9740 H   0  0  0  0  0  0  0  0  0  0  0  0
   -2.1925   -1.1384    1.9783 H   0  0  0  0  0  0  0  0  0  0  0  0
   -4.1424   -1.2752   -1.1775 H   0  0  0  0  0  0  0  0  0  0  0  0
   -3.4242    0.1760   -1.8757 H   0  0  0  0  0  0  0  0  0  0  0  0
   -3.6321    2.3552   -0.1961 H   0  0  0  0  0  0  0  0  0  0  0  0
   -5.4580    3.8057    0.6336 H   0  0  0  0  0  0  0  0  0  0  0  0
   -7.7519    2.8956    0.8909 H   0  0  0  0  0  0  0  0  0  0  0  0
   -8.2195    0.5300    0.3129 H   0  0  0  0  0  0  0  0  0  0  0  0
   -6.4106   -0.9294   -0.5177 H   0  0  0  0  0  0  0  0  0  0  0  0
   -1.1568    0.9022    1.4339 H   0  0  0  0  0  0  0  0  0  0  0  0
    1.8420    1.6073    0.9109 H   0  0  0  0  0  0  0  0  0  0  0  0
    4.1746    2.0525    1.4199 H   0  0  0  0  0  0  0  0  0  0  0  0
  1  2  1  0
  2  3  1  0
  3  4  1  0
  4  5  2  0
  5  6  1  0
  6  7  2  0
  7  8  1  0
  8  9  1  0
  9 10  1  0
  9 11  2  0
 11 12  1  0
 12 13  1  0
 13 14  1  0
 13 15  1  0
 15 16  1  0
 16 17  2  0
 17 18  1  0
 18 19  2  0
 19 20  1  0
 20 21  2  0
 12 22  2  0
 22 23  1  0
  7 24  1  0
 24 25  2  0
 25  4  1  0
 22  8  1  0
 21 16  1  0
  1 26  1  0
  1 27  1  0
  1 28  1  0
  2 29  1  0
  2 30  1  0
  5 31  1  0
  6 32  1  0
 10 33  1  0
 11 34  1  0
 14 35  1  0
 14 36  1  0
 14 37  1  0
 15 38  1  0
 15 39  1  0
 17 40  1  0
 18 41  1  0
 19 42  1  0
 20 43  1  0
 21 44  1  0
 23 45  1  0
 24 46  1  0
 25 47  1  0
M  END
$$$$
