
     RDKit          3D

 53 54  0  0  0  0  0  0  0  0999 V2000
    4.6866   -1.7123    3.7777 C   0  0  0  0  0  0  0  0  0  0  0  0
    4.3510   -0.3401    3.2027 C   0  0  0  0  0  0  0  0  0  0  0  0
    3.1357   -0.3617    2.3819 N   0  0  0  0  0  0  0  0  0  0  0  0
    3.2938   -1.0821    1.1023 C   0  0  0  0  0  0  0  0  0  0  0  0
    3.1806   -0.1960   -0.1605 C   0  0  0  0  0  0  0  0  0  0  0  0
    1.9124    0.5567   -0.2385 N   0  0  0  0  0  0  0  0  0  0  0  0
    2.0434    1.6615   -1.2225 C   0  0  0  0  0  0  0  0  0  0  0  0
    0.6727    2.2052   -1.6579 C   0  0  0  0  0  0  0  0  0  0  0  0
    0.5566    3.3458   -2.0983 O   0  0  0  0  0  0  0  0  0  0  0  0
   -0.3299    1.2666   -1.5392 N   0  0  0  0  0  0  0  0  0  0  0  0
   -1.6971    1.3704   -1.8534 C   0  0  0  0  0  0  0  0  0  0  0  0
   -2.2630    2.5047   -2.4421 C   0  0  0  0  0  0  0  0  0  0  0  0
   -3.6349    2.5486   -2.7400 C   0  0  0  0  0  0  0  0  0  0  0  0
   -4.2286    3.7875   -3.3651 C   0  0  0  0  0  0  0  0  0  0  0  0
   -5.4965    3.5983   -3.8299 F   0  0  0  0  0  0  0  0  0  0  0  0
   -3.5110    4.2417   -4.4292 F   0  0  0  0  0  0  0  0  0  0  0  0
   -4.3071    4.8269   -2.4899 F   0  0  0  0  0  0  0  0  0  0  0  0
   -4.4340    1.4394   -2.4288 C   0  0  0  0  0  0  0  0  0  0  0  0
   -3.8763    0.3006   -1.8391 C   0  0  0  0  0  0  0  0  0  0  0  0
   -2.5107    0.2579   -1.5496 C   0  0  0  0  0  0  0  0  0  0  0  0
   -1.8610   -0.8042   -0.9665 O   0  0  0  0  0  0  0  0  0  0  0  0
   -2.6399   -1.9515   -0.6292 C   0  0  0  0  0  0  0  0  0  0  0  0
   -1.7114   -3.0008   -0.0166 C   0  0  0  0  0  0  0  0  0  0  0  0
   -2.3910   -4.2234    0.2663 O   0  0  0  0  0  0  0  0  0  0  0  0
   -3.1155   -4.1915    1.4889 C   0  0  0  0  0  0  0  0  0  0  0  0
    1.5075    1.0524    1.1003 C   0  0  0  0  0  0  0  0  0  0  0  0
    2.6174    1.0027    2.1739 C   0  0  0  0  0  0  0  0  0  0  0  0
    4.9503   -2.4323    2.9995 H   0  0  0  0  0  0  0  0  0  0  0  0
    5.5426   -1.6322    4.4565 H   0  0  0  0  0  0  0  0  0  0  0  0
    3.8440   -2.1181    4.3468 H   0  0  0  0  0  0  0  0  0  0  0  0
    5.2049    0.0532    2.6375 H   0  0  0  0  0  0  0  0  0  0  0  0
    4.1995    0.3305    4.0584 H   0  0  0  0  0  0  0  0  0  0  0  0
    2.5058   -1.8455    1.0635 H   0  0  0  0  0  0  0  0  0  0  0  0
    4.2446   -1.6257    1.0488 H   0  0  0  0  0  0  0  0  0  0  0  0
    4.0398    0.4881   -0.1770 H   0  0  0  0  0  0  0  0  0  0  0  0
    3.2626   -0.8370   -1.0472 H   0  0  0  0  0  0  0  0  0  0  0  0
    2.6454    2.4828   -0.8163 H   0  0  0  0  0  0  0  0  0  0  0  0
    2.5228    1.2965   -2.1388 H   0  0  0  0  0  0  0  0  0  0  0  0
   -0.0406    0.3898   -1.1038 H   0  0  0  0  0  0  0  0  0  0  0  0
   -1.6535    3.3725   -2.6844 H   0  0  0  0  0  0  0  0  0  0  0  0
   -5.5016    1.4559   -2.6460 H   0  0  0  0  0  0  0  0  0  0  0  0
   -4.5365   -0.5309   -1.6166 H   0  0  0  0  0  0  0  0  0  0  0  0
   -3.4174   -1.6791    0.0935 H   0  0  0  0  0  0  0  0  0  0  0  0
   -3.1169   -2.3758   -1.5210 H   0  0  0  0  0  0  0  0  0  0  0  0
   -1.2063   -2.6129    0.8775 H   0  0  0  0  0  0  0  0  0  0  0  0
   -0.9171   -3.2304   -0.7353 H   0  0  0  0  0  0  0  0  0  0  0  0
   -2.4471   -3.9774    2.3293 H   0  0  0  0  0  0  0  0  0  0  0  0
   -3.9202   -3.4524    1.4478 H   0  0  0  0  0  0  0  0  0  0  0  0
   -3.5633   -5.1790    1.6444 H   0  0  0  0  0  0  0  0  0  0  0  0
    1.1055    2.0719    1.0514 H   0  0  0  0  0  0  0  0  0  0  0  0
    0.6732    0.4207    1.4355 H   0  0  0  0  0  0  0  0  0  0  0  0
    3.4246    1.6869    1.8786 H   0  0  0  0  0  0  0  0  0  0  0  0
    2.2052    1.3768    3.1198 H   0  0  0  0  0  0  0  0  0  0  0  0
  1  2  1  0
  2  3  1  0
  3  4  1  0
  4  5  1  0
  5  6  1  0
  6  7  1  0
  7  8  1  0
  8  9  2  0
  8 10  1  0
 10 11  1  0
 11 12  2  0
 12 13  1  0
 13 14  1  0
 14 15  1  0
 14 16  1  0
 14 17  1  0
 13 18  2  0
 18 19  1  0
 19 20  2  0
 20 21  1  0
 21 22  1  0
 22 23  1  0
 23 24  1  0
 24 25  1  0
  6 26  1  0
 26 27  1  0
 27  3  1  0
 20 11  1  0
  1 28  1  0
  1 29  1  0
  1 30  1  0
  2 31  1  0
  2 32  1  0
  4 33  1  0
  4 34  1  0
  5 35  1  0
  5 36  1  0
  7 37  1  0
  7 38  1  0
 10 39  1  0
 12 40  1  0
 18 41  1  0
 19 42  1  0
 22 43  1  0
 22 44  1  0
 23 45  1  0
 23 46  1  0
 25 47  1  0
 25 48  1  0
 25 49  1  0
 26 50  1  0
 26 51  1  0
 27 52  1  0
 27 53  1  0
M  END
$$$$
