
     RDKit          3D

 49 52  0  0  0  0  0  0  0  0999 V2000
   -4.5145    3.6843    1.4559 C   0  0  0  0  0  0  0  0  0  0  0  0
   -4.8154    2.2605    1.0274 C   0  0  0  0  0  0  0  0  0  0  0  0
   -3.9649    1.8821   -0.0657 O   0  0  0  0  0  0  0  0  0  0  0  0
   -2.7464    1.3705    0.2810 C   0  0  0  0  0  0  0  0  0  0  0  0
   -2.3408    1.2458    1.4273 O   0  0  0  0  0  0  0  0  0  0  0  0
   -1.9731    1.0334   -0.9767 C   0  0  0  0  0  0  0  0  0  0  0  0
   -0.8016    0.0991   -0.7477 C   0  0  0  0  0  0  0  0  0  0  0  0
    0.4497    0.7459   -0.6419 C   0  0  0  0  0  0  0  0  0  0  0  0
    1.6043    0.0096   -0.4636 C   0  0  0  0  0  0  0  0  0  0  0  0
    2.9481    0.6121   -0.3482 C   0  0  0  0  0  0  0  0  0  0  0  0
    3.3027    1.7934   -1.0210 C   0  0  0  0  0  0  0  0  0  0  0  0
    4.5828    2.3463   -0.8912 C   0  0  0  0  0  0  0  0  0  0  0  0
    5.5473    1.7350   -0.0907 C   0  0  0  0  0  0  0  0  0  0  0  0
    6.7526    2.3789   -0.0514 O   0  0  0  0  0  0  0  0  0  0  0  0
    7.7691    1.7868    0.7476 C   0  0  0  0  0  0  0  0  0  0  0  0
    5.2212    0.5589    0.5783 C   0  0  0  0  0  0  0  0  0  0  0  0
    3.9392    0.0071    0.4464 C   0  0  0  0  0  0  0  0  0  0  0  0
    1.5507   -1.3314   -0.3815 N   0  0  0  0  0  0  0  0  0  0  0  0
    0.3716   -1.9624   -0.4629 C   0  0  0  0  0  0  0  0  0  0  0  0
    0.4738   -3.3324   -0.3706 C   0  0  0  0  0  0  0  0  0  0  0  0
   -0.6346   -4.1622   -0.4335 C   0  0  0  0  0  0  0  0  0  0  0  0
   -1.9061   -3.6257   -0.5785 C   0  0  0  0  0  0  0  0  0  0  0  0
   -2.9902   -4.5204   -0.6218 C   0  0  0  0  0  0  0  0  0  0  0  0
   -4.2943   -4.0648   -0.7483 C   0  0  0  0  0  0  0  0  0  0  0  0
   -4.5210   -2.7050   -0.8263 C   0  0  0  0  0  0  0  0  0  0  0  0
   -3.4419   -1.8106   -0.7860 C   0  0  0  0  0  0  0  0  0  0  0  0
   -2.0829   -2.2164   -0.6719 C   0  0  0  0  0  0  0  0  0  0  0  0
   -0.8935   -1.3370   -0.6336 C   0  0  0  0  0  0  0  0  0  0  0  0
   -3.4868    3.7764    1.8211 H   0  0  0  0  0  0  0  0  0  0  0  0
   -4.6136    4.3699    0.6079 H   0  0  0  0  0  0  0  0  0  0  0  0
   -5.1967    4.0030    2.2490 H   0  0  0  0  0  0  0  0  0  0  0  0
   -5.8470    2.1950    0.6665 H   0  0  0  0  0  0  0  0  0  0  0  0
   -4.7233    1.5600    1.8654 H   0  0  0  0  0  0  0  0  0  0  0  0
   -1.6147    1.9893   -1.3822 H   0  0  0  0  0  0  0  0  0  0  0  0
   -2.6208    0.6306   -1.7596 H   0  0  0  0  0  0  0  0  0  0  0  0
    0.5068    1.8301   -0.6813 H   0  0  0  0  0  0  0  0  0  0  0  0
    2.5940    2.2953   -1.6750 H   0  0  0  0  0  0  0  0  0  0  0  0
    4.8300    3.2602   -1.4259 H   0  0  0  0  0  0  0  0  0  0  0  0
    7.4734    1.7529    1.8015 H   0  0  0  0  0  0  0  0  0  0  0  0
    8.6616    2.4155    0.6728 H   0  0  0  0  0  0  0  0  0  0  0  0
    8.0321    0.7902    0.3777 H   0  0  0  0  0  0  0  0  0  0  0  0
    5.9335    0.0396    1.2100 H   0  0  0  0  0  0  0  0  0  0  0  0
    3.7098   -0.9149    0.9800 H   0  0  0  0  0  0  0  0  0  0  0  0
    1.4583   -3.7804   -0.2468 H   0  0  0  0  0  0  0  0  0  0  0  0
   -0.4816   -5.2367   -0.3573 H   0  0  0  0  0  0  0  0  0  0  0  0
   -2.8238   -5.5941   -0.5516 H   0  0  0  0  0  0  0  0  0  0  0  0
   -5.1226   -4.7666   -0.7774 H   0  0  0  0  0  0  0  0  0  0  0  0
   -5.5361   -2.3257   -0.9143 H   0  0  0  0  0  0  0  0  0  0  0  0
   -3.7243   -0.7711   -0.8348 H   0  0  0  0  0  0  0  0  0  0  0  0
  1  2  1  0
  2  3  1  0
  3  4  1  0
  4  5  2  0
  4  6  1  0
  6  7  1  0
  7  8  2  0
  8  9  1  0
  9 10  1  0
 10 11  2  0
 11 12  1  0
 12 13  2  0
 13 14  1  0
 14 15  1  0
 13 16  1  0
 16 17  2  0
  9 18  2  0
 18 19  1  0
 19 20  2  0
 20 21  1  0
 21 22  2  0
 22 23  1  0
 23 24  2  0
 24 25  1  0
 25 26  2  0
 26 27  1  0
 27 28  2  0
 28  7  1  0
 17 10  1  0
 28 19  1  0
 27 22  1  0
  1 29  1  0
  1 30  1  0
  1 31  1  0
  2 32  1  0
  2 33  1  0
  6 34  1  0
  6 35  1  0
  8 36  1  0
 11 37  1  0
 12 38  1  0
 15 39  1  0
 15 40  1  0
 15 41  1  0
 16 42  1  0
 17 43  1  0
 20 44  1  0
 21 45  1  0
 23 46  1  0
 24 47  1  0
 25 48  1  0
 26 49  1  0
M  END
$$$$
