
     RDKit          3D

 49 52  0  0  0  0  0  0  0  0999 V2000
    7.0266    1.8048    0.2159 C   0  0  0  0  0  0  0  0  0  0  0  0
    6.3881    0.7671   -0.5921 N   0  0  0  0  0  0  0  0  0  0  0  0
    6.4365    0.9724   -2.0384 C   0  0  0  0  0  0  0  0  0  0  0  0
    5.3332    0.0296   -0.0426 C   0  0  0  0  0  0  0  0  0  0  0  0
    5.0721    0.0133    1.3396 C   0  0  0  0  0  0  0  0  0  0  0  0
    4.0260   -0.7364    1.8991 C   0  0  0  0  0  0  0  0  0  0  0  0
    3.1994   -1.5066    1.0868 C   0  0  0  0  0  0  0  0  0  0  0  0
    2.1130   -2.2863    1.6810 C   0  0  0  0  0  0  0  0  0  0  0  0
    0.8107   -2.0439    1.4831 C   0  0  0  0  0  0  0  0  0  0  0  0
    0.1662   -1.0345    0.7143 C   0  0  0  0  0  0  0  0  0  0  0  0
   -1.1406   -1.2491    0.8671 C   0  0  0  0  0  0  0  0  0  0  0  0
   -2.2596   -0.4853    0.2907 C   0  0  0  0  0  0  0  0  0  0  0  0
   -2.0670    0.4359   -0.7470 C   0  0  0  0  0  0  0  0  0  0  0  0
   -3.1419    1.1528   -1.2822 C   0  0  0  0  0  0  0  0  0  0  0  0
   -4.4402    0.9696   -0.7921 C   0  0  0  0  0  0  0  0  0  0  0  0
   -4.6590    0.0324    0.2292 C   0  0  0  0  0  0  0  0  0  0  0  0
   -3.5673   -0.6742    0.7657 C   0  0  0  0  0  0  0  0  0  0  0  0
   -6.0334   -0.1934    0.8117 C   0  0  0  0  0  0  0  0  0  0  0  0
   -7.1593    0.3263   -0.0803 C   0  0  0  0  0  0  0  0  0  0  0  0
   -6.8463    1.7358   -0.5655 C   0  0  0  0  0  0  0  0  0  0  0  0
   -5.5786    1.7373   -1.4177 C   0  0  0  0  0  0  0  0  0  0  0  0
   -1.4652   -2.3432    1.7008 O   0  0  0  0  0  0  0  0  0  0  0  0
   -0.2575   -2.8643    2.1100 C   0  0  0  0  0  0  0  0  0  0  0  0
   -0.1059   -3.8208    2.8495 O   0  0  0  0  0  0  0  0  0  0  0  0
    3.4457   -1.5329   -0.2837 C   0  0  0  0  0  0  0  0  0  0  0  0
    4.4955   -0.7797   -0.8310 C   0  0  0  0  0  0  0  0  0  0  0  0
    7.5031    1.3779    1.1049 H   0  0  0  0  0  0  0  0  0  0  0  0
    7.8264    2.3069   -0.3403 H   0  0  0  0  0  0  0  0  0  0  0  0
    6.3031    2.5705    0.5166 H   0  0  0  0  0  0  0  0  0  0  0  0
    5.5445    1.5019   -2.3909 H   0  0  0  0  0  0  0  0  0  0  0  0
    6.5349    0.0204   -2.5710 H   0  0  0  0  0  0  0  0  0  0  0  0
    7.3097    1.5683   -2.3271 H   0  0  0  0  0  0  0  0  0  0  0  0
    5.6842    0.5849    2.0306 H   0  0  0  0  0  0  0  0  0  0  0  0
    3.8718   -0.7058    2.9753 H   0  0  0  0  0  0  0  0  0  0  0  0
    2.4248   -3.1003    2.3334 H   0  0  0  0  0  0  0  0  0  0  0  0
    0.6559   -0.2601    0.1489 H   0  0  0  0  0  0  0  0  0  0  0  0
   -1.0798    0.6108   -1.1663 H   0  0  0  0  0  0  0  0  0  0  0  0
   -2.9579    1.8578   -2.0904 H   0  0  0  0  0  0  0  0  0  0  0  0
   -3.7532   -1.3811    1.5734 H   0  0  0  0  0  0  0  0  0  0  0  0
   -6.1919   -1.2638    0.9900 H   0  0  0  0  0  0  0  0  0  0  0  0
   -6.0774    0.3146    1.7833 H   0  0  0  0  0  0  0  0  0  0  0  0
   -7.2892   -0.3388   -0.9436 H   0  0  0  0  0  0  0  0  0  0  0  0
   -8.1031    0.3183    0.4763 H   0  0  0  0  0  0  0  0  0  0  0  0
   -6.7172    2.4011    0.2977 H   0  0  0  0  0  0  0  0  0  0  0  0
   -7.6843    2.1291   -1.1519 H   0  0  0  0  0  0  0  0  0  0  0  0
   -5.7975    1.2848   -2.3931 H   0  0  0  0  0  0  0  0  0  0  0  0
   -5.2752    2.7760   -1.5951 H   0  0  0  0  0  0  0  0  0  0  0  0
    2.8361   -2.1450   -0.9442 H   0  0  0  0  0  0  0  0  0  0  0  0
    4.6409   -0.8552   -1.9043 H   0  0  0  0  0  0  0  0  0  0  0  0
  1  2  1  0
  2  3  1  0
  2  4  1  0
  4  5  2  0
  5  6  1  0
  6  7  2  0
  7  8  1  0
  8  9  2  3
  9 10  1  0
 10 11  2  0
 11 12  1  0
 12 13  2  0
 13 14  1  0
 14 15  2  0
 15 16  1  0
 16 17  2  0
 16 18  1  0
 18 19  1  0
 19 20  1  0
 20 21  1  0
 11 22  1  0
 22 23  1  0
 23 24  2  0
  7 25  1  0
 25 26  2  0
 26  4  1  0
 23  9  1  0
 17 12  1  0
 21 15  1  0
  1 27  1  0
  1 28  1  0
  1 29  1  0
  3 30  1  0
  3 31  1  0
  3 32  1  0
  5 33  1  0
  6 34  1  0
  8 35  1  0
 10 36  1  0
 13 37  1  0
 14 38  1  0
 17 39  1  0
 18 40  1  0
 18 41  1  0
 19 42  1  0
 19 43  1  0
 20 44  1  0
 20 45  1  0
 21 46  1  0
 21 47  1  0
 25 48  1  0
 26 49  1  0
M  END
$$$$
