
     RDKit          3D

 41 43  0  0  0  0  0  0  0  0999 V2000
   -3.8729   -0.1932    3.4165 C   0  0  0  0  0  0  0  0  0  0  0  0
   -4.8012   -0.5754    2.4080 O   0  0  0  0  0  0  0  0  0  0  0  0
   -4.3502   -0.5630    1.1160 C   0  0  0  0  0  0  0  0  0  0  0  0
   -5.3057   -0.9262    0.1657 C   0  0  0  0  0  0  0  0  0  0  0  0
   -4.9873   -0.9612   -1.1938 C   0  0  0  0  0  0  0  0  0  0  0  0
   -3.6996   -0.6283   -1.6148 C   0  0  0  0  0  0  0  0  0  0  0  0
   -3.2724   -0.6277   -2.9231 O   0  0  0  0  0  0  0  0  0  0  0  0
   -4.2226   -1.0076   -3.9119 C   0  0  0  0  0  0  0  0  0  0  0  0
   -2.7285   -0.2563   -0.6603 C   0  0  0  0  0  0  0  0  0  0  0  0
   -1.4443    0.0646   -1.1544 N   0  0  0  0  0  0  0  0  0  0  0  0
   -0.3533    0.5319   -0.4663 C   0  0  0  0  0  0  0  0  0  0  0  0
   -0.2862    0.8159    0.7267 O   0  0  0  0  0  0  0  0  0  0  0  0
    0.7454    0.6922   -1.3020 N   0  0  0  0  0  0  0  0  0  0  0  0
    1.9724    0.9838   -0.6424 N   0  0  0  0  0  0  0  0  0  0  0  0
    3.0487    0.1688   -0.9572 C   0  0  0  0  0  0  0  0  0  0  0  0
    2.9951   -0.6143   -1.9050 O   0  0  0  0  0  0  0  0  0  0  0  0
    4.1993    0.2971   -0.0814 C   0  0  0  0  0  0  0  0  0  0  0  0
    5.2934   -0.5678   -0.0264 C   0  0  0  0  0  0  0  0  0  0  0  0
    6.1254   -0.0179    0.9574 C   0  0  0  0  0  0  0  0  0  0  0  0
    7.3171   -0.2990    1.5423 O   0  0  0  0  0  0  0  0  0  0  0  0
    7.5028    0.7130    2.4401 C   0  0  0  0  0  0  0  0  0  0  0  0
    6.4722    1.6273    2.4433 C   0  0  0  0  0  0  0  0  0  0  0  0
    5.5982    1.1119    1.4655 C   0  0  0  0  0  0  0  0  0  0  0  0
    4.4088    1.3302    0.8259 N   0  0  0  0  0  0  0  0  0  0  0  0
   -3.0598   -0.2299    0.6994 C   0  0  0  0  0  0  0  0  0  0  0  0
   -3.0247   -0.8847    3.4543 H   0  0  0  0  0  0  0  0  0  0  0  0
   -3.5380    0.8396    3.2743 H   0  0  0  0  0  0  0  0  0  0  0  0
   -4.3877   -0.2459    4.3807 H   0  0  0  0  0  0  0  0  0  0  0  0
   -6.3110   -1.1864    0.4899 H   0  0  0  0  0  0  0  0  0  0  0  0
   -5.7672   -1.2513   -1.8892 H   0  0  0  0  0  0  0  0  0  0  0  0
   -4.5596   -2.0384   -3.7603 H   0  0  0  0  0  0  0  0  0  0  0  0
   -3.7267   -0.9603   -4.8862 H   0  0  0  0  0  0  0  0  0  0  0  0
   -5.0677   -0.3118   -3.9348 H   0  0  0  0  0  0  0  0  0  0  0  0
   -1.3699    0.0166   -2.1639 H   0  0  0  0  0  0  0  0  0  0  0  0
    0.8533    0.0029   -2.0467 H   0  0  0  0  0  0  0  0  0  0  0  0
    1.8447    1.2740    0.3256 H   0  0  0  0  0  0  0  0  0  0  0  0
    5.4456   -1.4609   -0.6165 H   0  0  0  0  0  0  0  0  0  0  0  0
    8.4227    0.6433    3.0053 H   0  0  0  0  0  0  0  0  0  0  0  0
    6.3815    2.5124    3.0545 H   0  0  0  0  0  0  0  0  0  0  0  0
    3.8204    2.1362    0.9982 H   0  0  0  0  0  0  0  0  0  0  0  0
   -2.3103    0.0457    1.4293 H   0  0  0  0  0  0  0  0  0  0  0  0
  1  2  1  0
  2  3  1  0
  3  4  2  0
  4  5  1  0
  5  6  2  0
  6  7  1  0
  7  8  1  0
  6  9  1  0
  9 10  1  0
 10 11  1  0
 11 12  2  0
 11 13  1  0
 13 14  1  0
 14 15  1  0
 15 16  2  0
 15 17  1  0
 17 18  2  0
 18 19  1  0
 19 20  1  0
 20 21  1  0
 21 22  2  0
 22 23  1  0
 23 24  1  0
  9 25  2  0
 25  3  1  0
 24 17  1  0
 23 19  2  0
  1 26  1  0
  1 27  1  0
  1 28  1  0
  4 29  1  0
  5 30  1  0
  8 31  1  0
  8 32  1  0
  8 33  1  0
 10 34  1  0
 13 35  1  0
 14 36  1  0
 18 37  1  0
 21 38  1  0
 22 39  1  0
 24 40  1  0
 25 41  1  0
M  END
$$$$
