
     RDKit          3D

 43 46  0  0  0  0  0  0  0  0999 V2000
    3.2127   -0.9074    4.2388 C   0  0  0  0  0  0  0  0  0  0  0  0
    3.7200   -1.5183    3.0600 O   0  0  0  0  0  0  0  0  0  0  0  0
    2.8357   -1.4797    2.0016 C   0  0  0  0  0  0  0  0  0  0  0  0
    1.6803   -0.8333    2.1299 N   0  0  0  0  0  0  0  0  0  0  0  0
    0.9001   -0.8525    1.0583 C   0  0  0  0  0  0  0  0  0  0  0  0
   -0.3034   -0.1930    1.2081 N   0  0  0  0  0  0  0  0  0  0  0  0
   -1.0082    0.4310    0.0878 C   0  0  0  0  0  0  0  0  0  0  0  0
   -0.1105    1.4095   -0.7058 C   0  0  0  0  0  0  0  0  0  0  0  0
   -0.9219    2.1004   -1.8170 C   0  0  0  0  0  0  0  0  0  0  0  0
   -1.5047    1.0324   -2.7593 C   0  0  0  0  0  0  0  0  0  0  0  0
   -2.4344    0.0852   -1.9803 C   0  0  0  0  0  0  0  0  0  0  0  0
   -3.5739    0.8990   -1.3486 C   0  0  0  0  0  0  0  0  0  0  0  0
   -2.9951    1.9570   -0.3976 C   0  0  0  0  0  0  0  0  0  0  0  0
   -2.0720    2.8998   -1.1849 C   0  0  0  0  0  0  0  0  0  0  0  0
   -2.1799    1.2548    0.6997 C   0  0  0  0  0  0  0  0  0  0  0  0
   -1.6295   -0.6142   -0.8691 C   0  0  0  0  0  0  0  0  0  0  0  0
    1.2211   -1.4521   -0.0748 N   0  0  0  0  0  0  0  0  0  0  0  0
    2.3999   -2.0605   -0.0874 C   0  0  0  0  0  0  0  0  0  0  0  0
    2.7103   -2.6698   -1.2858 O   0  0  0  0  0  0  0  0  0  0  0  0
    3.9605   -3.3460   -1.2643 C   0  0  0  0  0  0  0  0  0  0  0  0
    3.2597   -2.1090    0.9184 N   0  0  0  0  0  0  0  0  0  0  0  0
    3.0389    0.1637    4.0881 H   0  0  0  0  0  0  0  0  0  0  0  0
    2.3030   -1.4083    4.5880 H   0  0  0  0  0  0  0  0  0  0  0  0
    3.9702   -1.0129    5.0217 H   0  0  0  0  0  0  0  0  0  0  0  0
   -0.2138    0.3838    2.0376 H   0  0  0  0  0  0  0  0  0  0  0  0
    0.7374    0.8866   -1.1635 H   0  0  0  0  0  0  0  0  0  0  0  0
    0.3193    2.1631   -0.0329 H   0  0  0  0  0  0  0  0  0  0  0  0
   -0.2705    2.7761   -2.3824 H   0  0  0  0  0  0  0  0  0  0  0  0
   -2.0609    1.5157   -3.5720 H   0  0  0  0  0  0  0  0  0  0  0  0
   -0.6927    0.4608   -3.2255 H   0  0  0  0  0  0  0  0  0  0  0  0
   -2.8513   -0.6655   -2.6610 H   0  0  0  0  0  0  0  0  0  0  0  0
   -4.2518    0.2327   -0.8011 H   0  0  0  0  0  0  0  0  0  0  0  0
   -4.1683    1.3839   -2.1326 H   0  0  0  0  0  0  0  0  0  0  0  0
   -3.8101    2.5316    0.0565 H   0  0  0  0  0  0  0  0  0  0  0  0
   -1.6695    3.6733   -0.5193 H   0  0  0  0  0  0  0  0  0  0  0  0
   -2.6426    3.4174   -1.9659 H   0  0  0  0  0  0  0  0  0  0  0  0
   -2.8369    0.5989    1.2868 H   0  0  0  0  0  0  0  0  0  0  0  0
   -1.7899    2.0040    1.4021 H   0  0  0  0  0  0  0  0  0  0  0  0
   -2.2794   -1.3014   -0.3116 H   0  0  0  0  0  0  0  0  0  0  0  0
   -0.8611   -1.2350   -1.3411 H   0  0  0  0  0  0  0  0  0  0  0  0
    4.1085   -3.8046   -2.2469 H   0  0  0  0  0  0  0  0  0  0  0  0
    4.7879   -2.6475   -1.0969 H   0  0  0  0  0  0  0  0  0  0  0  0
    3.9666   -4.1494   -0.5194 H   0  0  0  0  0  0  0  0  0  0  0  0
  1  2  1  0
  2  3  1  0
  3  4  2  0
  4  5  1  0
  5  6  1  0
  6  7  1  0
  7  8  1  0
  8  9  1  0
  9 10  1  0
 10 11  1  0
 11 12  1  0
 12 13  1  0
 13 14  1  0
 13 15  1  0
 11 16  1  0
  5 17  2  0
 17 18  1  0
 18 19  1  0
 19 20  1  0
 18 21  2  0
 21  3  1  0
 15  7  1  0
 16  7  1  0
 14  9  1  0
  1 22  1  0
  1 23  1  0
  1 24  1  0
  6 25  1  0
  8 26  1  0
  8 27  1  0
  9 28  1  0
 10 29  1  0
 10 30  1  0
 11 31  1  0
 12 32  1  0
 12 33  1  0
 13 34  1  0
 14 35  1  0
 14 36  1  0
 15 37  1  0
 15 38  1  0
 16 39  1  0
 16 40  1  0
 20 41  1  0
 20 42  1  0
 20 43  1  0
M  END
$$$$
