
     RDKit          3D

 32 33  0  0  0  0  0  0  0  0999 V2000
   -0.2553    2.0390   -2.7445 N   0  0  0  0  0  0  0  0  0  0  0  0
   -0.8776    1.3246   -2.0726 C   0  0  0  0  0  0  0  0  0  0  0  0
   -1.6819    0.4722   -1.2387 C   0  0  0  0  0  0  0  0  0  0  0  0
   -2.9929    0.8945   -0.9565 C   0  0  0  0  0  0  0  0  0  0  0  0
   -3.8248    0.0948   -0.1689 C   0  0  0  0  0  0  0  0  0  0  0  0
   -5.1943    0.5327    0.1270 N   0  0  0  0  0  4  0  0  0  0  0  0
   -5.5685    1.6122   -0.3515 O   0  0  0  0  0  0  0  0  0  0  0  0
   -5.8922   -0.2014    0.8405 O   0  0  0  0  0  1  0  0  0  0  0  0
   -3.3644   -1.1261    0.3261 C   0  0  0  0  0  0  0  0  0  0  0  0
   -2.0575   -1.5385    0.0412 C   0  0  0  0  0  0  0  0  0  0  0  0
   -1.1755   -0.7403   -0.7089 C   0  0  0  0  0  0  0  0  0  0  0  0
    0.1081   -1.1967   -1.0492 N   0  0  0  0  0  0  0  0  0  0  0  0
    0.8881   -2.0236   -0.1158 C   0  0  0  0  0  0  0  0  0  0  0  0
    1.3624   -1.2435    1.1204 C   0  0  0  0  0  0  0  0  0  0  0  0
    2.3223   -0.1142    0.8151 C   0  0  0  0  0  0  0  0  0  0  0  0
    3.2654    0.2744    1.7634 C   0  0  0  0  0  0  0  0  0  0  0  0
    4.0990    1.3543    1.4821 C   0  0  0  0  0  0  0  0  0  0  0  0
    3.9631    2.0267    0.2738 C   0  0  0  0  0  0  0  0  0  0  0  0
    2.9926    1.5900   -0.6090 C   0  0  0  0  0  0  0  0  0  0  0  0
    2.1745    0.5422   -0.3630 N   0  0  0  0  0  0  0  0  0  0  0  0
   -3.3509    1.8404   -1.3624 H   0  0  0  0  0  0  0  0  0  0  0  0
   -4.0050   -1.7757    0.9197 H   0  0  0  0  0  0  0  0  0  0  0  0
   -1.7490   -2.5136    0.4081 H   0  0  0  0  0  0  0  0  0  0  0  0
    0.7238   -0.4176   -1.3323 H   0  0  0  0  0  0  0  0  0  0  0  0
    0.3299   -2.9154    0.1866 H   0  0  0  0  0  0  0  0  0  0  0  0
    1.7642   -2.3940   -0.6629 H   0  0  0  0  0  0  0  0  0  0  0  0
    1.8599   -1.9566    1.7897 H   0  0  0  0  0  0  0  0  0  0  0  0
    0.5084   -0.8273    1.6671 H   0  0  0  0  0  0  0  0  0  0  0  0
    3.3539   -0.2470    2.7111 H   0  0  0  0  0  0  0  0  0  0  0  0
    4.8449    1.6735    2.2047 H   0  0  0  0  0  0  0  0  0  0  0  0
    4.5931    2.8740    0.0281 H   0  0  0  0  0  0  0  0  0  0  0  0
    2.8363    2.0859   -1.5639 H   0  0  0  0  0  0  0  0  0  0  0  0
  1  2  3  0
  2  3  1  0
  3  4  2  0
  4  5  1  0
  5  6  1  0
  6  7  2  0
  6  8  1  0
  5  9  2  0
  9 10  1  0
 10 11  2  0
 11 12  1  0
 12 13  1  0
 13 14  1  0
 14 15  1  0
 15 16  2  0
 16 17  1  0
 17 18  2  0
 18 19  1  0
 19 20  2  0
 11  3  1  0
 20 15  1  0
  4 21  1  0
  9 22  1  0
 10 23  1  0
 12 24  1  0
 13 25  1  0
 13 26  1  0
 14 27  1  0
 14 28  1  0
 16 29  1  0
 17 30  1  0
 18 31  1  0
 19 32  1  0
M  CHG  2   6   1   8  -1
M  END
$$$$
