
     RDKit          3D

 55 57  0  0  0  0  0  0  0  0999 V2000
   -4.5929   -3.1284    0.6638 C   0  0  0  0  0  0  0  0  0  0  0  0
   -3.2584   -2.4391    0.9216 C   0  0  0  0  0  0  0  0  0  0  0  0
   -2.6975   -1.5524   -0.2291 C   0  0  0  0  0  0  0  0  0  0  0  0
   -3.6851   -0.4092   -0.5300 C   0  0  0  0  0  0  0  0  0  0  0  0
   -2.4723   -2.4008   -1.4926 C   0  0  0  0  0  0  0  0  0  0  0  0
   -1.4104   -1.0080    0.2544 N   0  0  0  0  0  0  0  0  0  0  0  0
   -0.5932   -0.1404   -0.4625 C   0  0  0  0  0  0  0  0  0  0  0  0
   -0.9163    0.3302   -1.5506 O   0  0  0  0  0  0  0  0  0  0  0  0
    0.7205    0.2439    0.2850 C   0  0  0  0  0  0  0  0  0  0  0  0
    0.5150    1.3032    1.3752 C   0  0  0  0  0  0  0  0  0  0  0  0
   -0.6289    2.1144    1.4655 C   0  0  0  0  0  0  0  0  0  0  0  0
   -0.7536    3.0608    2.4873 C   0  0  0  0  0  0  0  0  0  0  0  0
    0.2569    3.2098    3.4353 C   0  0  0  0  0  0  0  0  0  0  0  0
    1.3936    2.4096    3.3648 C   0  0  0  0  0  0  0  0  0  0  0  0
    1.5118    1.4683    2.3461 C   0  0  0  0  0  0  0  0  0  0  0  0
    2.6074    0.6951    2.3143 F   0  0  0  0  0  0  0  0  0  0  0  0
    1.8396    0.5059   -0.6581 N   0  0  0  0  0  0  0  0  0  0  0  0
    2.6446   -0.5354   -1.1937 C   0  0  0  0  0  0  0  0  0  0  0  0
    3.6018   -0.3017   -1.9403 O   0  0  0  0  0  0  0  0  0  0  0  0
    2.3633   -1.9721   -0.9040 C   0  0  0  0  0  0  0  0  0  0  0  0
    3.2593   -3.0353   -1.2406 C   0  0  0  0  0  0  0  0  0  0  0  0
    2.6318   -4.1958   -0.8644 C   0  0  0  0  0  0  0  0  0  0  0  0
    1.4344   -3.8132   -0.3518 N   0  0  0  0  0  0  0  0  0  0  0  0
    1.2441   -2.4826   -0.3479 N   0  0  0  0  0  0  0  0  0  0  0  0
    2.1405    1.8720   -1.0183 C   0  0  0  0  0  0  0  0  0  0  0  0
    3.4687    2.3295   -1.0472 C   0  0  0  0  0  0  0  0  0  0  0  0
    3.7747    3.6552   -1.3715 C   0  0  0  0  0  0  0  0  0  0  0  0
    2.7556    4.5523   -1.6719 C   0  0  0  0  0  0  0  0  0  0  0  0
    1.4335    4.1214   -1.6480 C   0  0  0  0  0  0  0  0  0  0  0  0
    1.1310    2.7936   -1.3251 C   0  0  0  0  0  0  0  0  0  0  0  0
   -4.8796   -3.7167    1.5432 H   0  0  0  0  0  0  0  0  0  0  0  0
   -5.3946   -2.4075    0.4806 H   0  0  0  0  0  0  0  0  0  0  0  0
   -4.5369   -3.8159   -0.1845 H   0  0  0  0  0  0  0  0  0  0  0  0
   -3.3601   -1.8286    1.8289 H   0  0  0  0  0  0  0  0  0  0  0  0
   -2.5216   -3.2163    1.1694 H   0  0  0  0  0  0  0  0  0  0  0  0
   -3.3225    0.2571   -1.3183 H   0  0  0  0  0  0  0  0  0  0  0  0
   -4.6547   -0.7885   -0.8698 H   0  0  0  0  0  0  0  0  0  0  0  0
   -3.8531    0.2064    0.3610 H   0  0  0  0  0  0  0  0  0  0  0  0
   -3.4128   -2.8046   -1.8809 H   0  0  0  0  0  0  0  0  0  0  0  0
   -1.7995   -3.2422   -1.2875 H   0  0  0  0  0  0  0  0  0  0  0  0
   -2.0211   -1.8175   -2.3022 H   0  0  0  0  0  0  0  0  0  0  0  0
   -0.9022   -1.5908    0.9114 H   0  0  0  0  0  0  0  0  0  0  0  0
    1.0073   -0.6236    0.8846 H   0  0  0  0  0  0  0  0  0  0  0  0
   -1.4345    2.0341    0.7378 H   0  0  0  0  0  0  0  0  0  0  0  0
   -1.6416    3.6872    2.5381 H   0  0  0  0  0  0  0  0  0  0  0  0
    0.1594    3.9502    4.2251 H   0  0  0  0  0  0  0  0  0  0  0  0
    2.1907    2.5118    4.0946 H   0  0  0  0  0  0  0  0  0  0  0  0
    4.2284   -2.9369   -1.7117 H   0  0  0  0  0  0  0  0  0  0  0  0
    2.9217   -5.2346   -0.9316 H   0  0  0  0  0  0  0  0  0  0  0  0
    0.6938   -4.4090    0.0072 H   0  0  0  0  0  0  0  0  0  0  0  0
    4.2921    1.6668   -0.7895 H   0  0  0  0  0  0  0  0  0  0  0  0
    4.8110    3.9777   -1.3904 H   0  0  0  0  0  0  0  0  0  0  0  0
    2.9912    5.5805   -1.9287 H   0  0  0  0  0  0  0  0  0  0  0  0
    0.6314    4.8122   -1.8920 H   0  0  0  0  0  0  0  0  0  0  0  0
    0.0883    2.4976   -1.3605 H   0  0  0  0  0  0  0  0  0  0  0  0
  1  2  1  0
  2  3  1  0
  3  4  1  0
  3  5  1  0
  3  6  1  0
  6  7  1  0
  7  8  2  0
  7  9  1  0
  9 10  1  0
 10 11  2  0
 11 12  1  0
 12 13  2  0
 13 14  1  0
 14 15  2  0
 15 16  1  0
  9 17  1  0
 17 18  1  0
 18 19  2  0
 18 20  1  0
 20 21  1  0
 21 22  2  0
 22 23  1  0
 23 24  1  0
 17 25  1  0
 25 26  2  0
 26 27  1  0
 27 28  2  0
 28 29  1  0
 29 30  2  0
 15 10  1  0
 24 20  2  0
 30 25  1  0
  1 31  1  0
  1 32  1  0
  1 33  1  0
  2 34  1  0
  2 35  1  0
  4 36  1  0
  4 37  1  0
  4 38  1  0
  5 39  1  0
  5 40  1  0
  5 41  1  0
  6 42  1  0
  9 43  1  0
 11 44  1  0
 12 45  1  0
 13 46  1  0
 14 47  1  0
 21 48  1  0
 22 49  1  0
 23 50  1  0
 26 51  1  0
 27 52  1  0
 28 53  1  0
 29 54  1  0
 30 55  1  0
M  END
$$$$
