
     RDKit          3D

 38 39  0  0  0  0  0  0  0  0999 V2000
   -2.7310    2.1804    3.0032 C   0  0  0  0  0  0  0  0  0  0  0  0
   -2.3862    0.9799    2.2558 N   0  0  0  0  0  0  0  0  0  0  0  0
   -3.0429    0.9735    0.9465 C   0  0  0  0  0  0  0  0  0  0  0  0
   -2.6739   -0.2679    0.1626 C   0  0  0  0  0  0  0  0  0  0  0  0
   -3.2825   -1.4880    0.5098 C   0  0  0  0  0  0  0  0  0  0  0  0
   -2.9792   -2.6594   -0.1799 C   0  0  0  0  0  0  0  0  0  0  0  0
   -2.0571   -2.6277   -1.2201 C   0  0  0  0  0  0  0  0  0  0  0  0
   -1.4340   -1.4273   -1.5706 C   0  0  0  0  0  0  0  0  0  0  0  0
   -1.7373   -0.2431   -0.8879 C   0  0  0  0  0  0  0  0  0  0  0  0
   -1.1412    0.9666   -1.1363 O   0  0  0  0  0  0  0  0  0  0  0  0
   -0.4486    1.1365   -2.3683 C   0  0  0  0  0  0  0  0  0  0  0  0
    1.0268    0.7131   -2.3534 C   0  0  0  0  0  0  0  0  0  0  0  0
    1.6593    0.6253   -3.4020 O   0  0  0  0  0  0  0  0  0  0  0  0
    1.5051    0.4846   -1.0761 N   0  0  0  0  0  0  0  0  0  0  0  0
    2.8004    0.0960   -0.6887 C   0  0  0  0  0  0  0  0  0  0  0  0
    3.0149   -0.1395    0.6757 C   0  0  0  0  0  0  0  0  0  0  0  0
    4.2730   -0.5278    1.1433 C   0  0  0  0  0  0  0  0  0  0  0  0
    5.3293   -0.6830    0.2501 C   0  0  0  0  0  0  0  0  0  0  0  0
    5.1256   -0.4498   -1.1079 C   0  0  0  0  0  0  0  0  0  0  0  0
    3.8659   -0.0615   -1.5761 C   0  0  0  0  0  0  0  0  0  0  0  0
   -2.4087    3.0869    2.4803 H   0  0  0  0  0  0  0  0  0  0  0  0
   -2.2321    2.1588    3.9771 H   0  0  0  0  0  0  0  0  0  0  0  0
   -3.8089    2.2367    3.1870 H   0  0  0  0  0  0  0  0  0  0  0  0
   -1.3788    0.9509    2.1094 H   0  0  0  0  0  0  0  0  0  0  0  0
   -2.7885    1.8778    0.3812 H   0  0  0  0  0  0  0  0  0  0  0  0
   -4.1336    0.9887    1.0713 H   0  0  0  0  0  0  0  0  0  0  0  0
   -3.9938   -1.5220    1.3332 H   0  0  0  0  0  0  0  0  0  0  0  0
   -3.4562   -3.5949    0.1001 H   0  0  0  0  0  0  0  0  0  0  0  0
   -1.8113   -3.5421   -1.7547 H   0  0  0  0  0  0  0  0  0  0  0  0
   -0.7035   -1.4634   -2.3728 H   0  0  0  0  0  0  0  0  0  0  0  0
   -0.9707    0.6477   -3.1993 H   0  0  0  0  0  0  0  0  0  0  0  0
   -0.4546    2.2116   -2.5820 H   0  0  0  0  0  0  0  0  0  0  0  0
    0.8129    0.5631   -0.3372 H   0  0  0  0  0  0  0  0  0  0  0  0
    2.2060   -0.0289    1.3933 H   0  0  0  0  0  0  0  0  0  0  0  0
    4.4265   -0.7101    2.2037 H   0  0  0  0  0  0  0  0  0  0  0  0
    6.3094   -0.9854    0.6097 H   0  0  0  0  0  0  0  0  0  0  0  0
    5.9470   -0.5689   -1.8101 H   0  0  0  0  0  0  0  0  0  0  0  0
    3.7524    0.1126   -2.6413 H   0  0  0  0  0  0  0  0  0  0  0  0
  1  2  1  0
  2  3  1  0
  3  4  1  0
  4  5  2  0
  5  6  1  0
  6  7  2  0
  7  8  1  0
  8  9  2  0
  9 10  1  0
 10 11  1  0
 11 12  1  0
 12 13  2  0
 12 14  1  0
 14 15  1  0
 15 16  2  0
 16 17  1  0
 17 18  2  0
 18 19  1  0
 19 20  2  0
  9  4  1  0
 20 15  1  0
  1 21  1  0
  1 22  1  0
  1 23  1  0
  2 24  1  0
  3 25  1  0
  3 26  1  0
  5 27  1  0
  6 28  1  0
  7 29  1  0
  8 30  1  0
 11 31  1  0
 11 32  1  0
 14 33  1  0
 16 34  1  0
 17 35  1  0
 18 36  1  0
 19 37  1  0
 20 38  1  0
M  END
$$$$
