
     RDKit          3D

 49 52  0  0  0  0  0  0  0  0999 V2000
    7.6935   -0.7849   -1.4438 C   0  0  0  0  0  0  0  0  0  0  0  0
    7.3509   -0.4299   -0.0667 N   0  0  0  0  0  0  0  0  0  0  0  0
    8.2272    0.5595    0.5587 C   0  0  0  0  0  0  0  0  0  0  0  0
    6.0034   -0.4732    0.3188 C   0  0  0  0  0  0  0  0  0  0  0  0
    5.0333   -1.1674   -0.4257 C   0  0  0  0  0  0  0  0  0  0  0  0
    3.6856   -1.2279   -0.0370 C   0  0  0  0  0  0  0  0  0  0  0  0
    3.2542   -0.5891    1.1219 C   0  0  0  0  0  0  0  0  0  0  0  0
    1.8669   -0.6707    1.5862 C   0  0  0  0  0  0  0  0  0  0  0  0
    0.7684   -0.2733    0.9278 C   0  0  0  0  0  0  0  0  0  0  0  0
   -0.5604   -0.3830    1.4383 C   0  0  0  0  0  0  0  0  0  0  0  0
   -1.3558    0.1281    0.5005 C   0  0  0  0  0  0  0  0  0  0  0  0
   -2.8225    0.2478    0.5207 C   0  0  0  0  0  0  0  0  0  0  0  0
   -3.5521    0.1600    1.7173 C   0  0  0  0  0  0  0  0  0  0  0  0
   -4.9453    0.2869    1.7264 C   0  0  0  0  0  0  0  0  0  0  0  0
   -5.6363    0.4937    0.5331 C   0  0  0  0  0  0  0  0  0  0  0  0
   -4.9256    0.5906   -0.6717 C   0  0  0  0  0  0  0  0  0  0  0  0
   -3.5295    0.4771   -0.6708 C   0  0  0  0  0  0  0  0  0  0  0  0
   -5.6983    0.8740   -1.9324 C   0  0  0  0  0  0  0  0  0  0  0  0
   -6.9722    0.0296   -2.0007 C   0  0  0  0  0  0  0  0  0  0  0  0
   -7.7506   -0.0759   -0.6802 C   0  0  0  0  0  0  0  0  0  0  0  0
   -7.1293    0.6787    0.4966 C   0  0  0  0  0  0  0  0  0  0  0  0
   -0.6854    0.5932   -0.6488 O   0  0  0  0  0  0  0  0  0  0  0  0
    0.6561    0.3643   -0.4176 C   0  0  0  0  0  0  0  0  0  0  0  0
    1.5492    0.6428   -1.1961 O   0  0  0  0  0  0  0  0  0  0  0  0
    4.1976    0.0802    1.8984 C   0  0  0  0  0  0  0  0  0  0  0  0
    5.5431    0.1327    1.5012 C   0  0  0  0  0  0  0  0  0  0  0  0
    8.7711   -0.6912   -1.6203 H   0  0  0  0  0  0  0  0  0  0  0  0
    7.1835   -0.1305   -2.1594 H   0  0  0  0  0  0  0  0  0  0  0  0
    7.4468   -1.8304   -1.6575 H   0  0  0  0  0  0  0  0  0  0  0  0
    9.2452    0.4967    0.1576 H   0  0  0  0  0  0  0  0  0  0  0  0
    8.3203    0.3833    1.6357 H   0  0  0  0  0  0  0  0  0  0  0  0
    7.8640    1.5778    0.3807 H   0  0  0  0  0  0  0  0  0  0  0  0
    5.2963   -1.6882   -1.3410 H   0  0  0  0  0  0  0  0  0  0  0  0
    2.9863   -1.7783   -0.6615 H   0  0  0  0  0  0  0  0  0  0  0  0
    1.7664   -1.0933    2.5843 H   0  0  0  0  0  0  0  0  0  0  0  0
   -0.8391   -0.8083    2.3876 H   0  0  0  0  0  0  0  0  0  0  0  0
   -3.0493    0.0074    2.6686 H   0  0  0  0  0  0  0  0  0  0  0  0
   -5.4813    0.2277    2.6705 H   0  0  0  0  0  0  0  0  0  0  0  0
   -2.9942    0.5664   -1.6145 H   0  0  0  0  0  0  0  0  0  0  0  0
   -5.0867    0.6724   -2.8195 H   0  0  0  0  0  0  0  0  0  0  0  0
   -5.9530    1.9409   -1.9514 H   0  0  0  0  0  0  0  0  0  0  0  0
   -6.7032   -0.9873   -2.3171 H   0  0  0  0  0  0  0  0  0  0  0  0
   -7.6266    0.4219   -2.7883 H   0  0  0  0  0  0  0  0  0  0  0  0
   -8.7819    0.2663   -0.8277 H   0  0  0  0  0  0  0  0  0  0  0  0
   -7.8255   -1.1394   -0.4157 H   0  0  0  0  0  0  0  0  0  0  0  0
   -7.3448    1.7510    0.4112 H   0  0  0  0  0  0  0  0  0  0  0  0
   -7.5887    0.3304    1.4289 H   0  0  0  0  0  0  0  0  0  0  0  0
    3.9049    0.5734    2.8221 H   0  0  0  0  0  0  0  0  0  0  0  0
    6.2233    0.6672    2.1566 H   0  0  0  0  0  0  0  0  0  0  0  0
  1  2  1  0
  2  3  1  0
  2  4  1  0
  4  5  2  0
  5  6  1  0
  6  7  2  0
  7  8  1  0
  8  9  2  3
  9 10  1  0
 10 11  2  0
 11 12  1  0
 12 13  2  0
 13 14  1  0
 14 15  2  0
 15 16  1  0
 16 17  2  0
 16 18  1  0
 18 19  1  0
 19 20  1  0
 20 21  1  0
 11 22  1  0
 22 23  1  0
 23 24  2  0
  7 25  1  0
 25 26  2  0
 26  4  1  0
 23  9  1  0
 17 12  1  0
 21 15  1  0
  1 27  1  0
  1 28  1  0
  1 29  1  0
  3 30  1  0
  3 31  1  0
  3 32  1  0
  5 33  1  0
  6 34  1  0
  8 35  1  0
 10 36  1  0
 13 37  1  0
 14 38  1  0
 17 39  1  0
 18 40  1  0
 18 41  1  0
 19 42  1  0
 19 43  1  0
 20 44  1  0
 20 45  1  0
 21 46  1  0
 21 47  1  0
 25 48  1  0
 26 49  1  0
M  END
$$$$
