
     RDKit          3D

 30 31  0  0  0  0  0  0  0  0999 V2000
   -4.2445    0.6528   -0.8197 C   0  0  0  0  0  0  0  0  0  0  0  0
   -2.7897    0.8336   -0.5781 C   0  0  0  0  0  0  0  0  0  0  0  0
   -2.3616    1.2131    0.6327 N   0  0  0  0  0  0  0  0  0  0  0  0
   -1.0176    1.2903    0.5070 N   0  0  0  0  0  0  0  0  0  0  0  0
   -0.2549    1.7266    1.6560 C   0  0  0  0  0  0  0  0  0  0  0  0
   -0.5722    0.9446   -0.7463 C   0  0  0  0  0  0  0  0  0  0  0  0
    1.1126    1.0031   -1.1911 S   0  0  0  0  0  0  0  0  0  0  0  0
    1.7037   -0.4227   -0.2714 C   0  0  0  0  0  0  0  0  0  0  0  0
    1.2468   -1.7045   -0.6110 C   0  0  0  0  0  0  0  0  0  0  0  0
    1.6716   -2.8206    0.1093 C   0  0  0  0  0  0  0  0  0  0  0  0
    2.5506   -2.6635    1.1764 C   0  0  0  0  0  0  0  0  0  0  0  0
    3.0274   -1.3938    1.5074 C   0  0  0  0  0  0  0  0  0  0  0  0
    2.6587   -0.2700    0.7571 C   0  0  0  0  0  0  0  0  0  0  0  0
    3.0812    1.0048    1.1934 N   0  0  0  0  0  0  0  0  0  0  0  0
   -1.7087    0.6514   -1.4763 C   0  0  0  0  0  0  0  0  0  0  0  0
   -1.7901    0.2543   -2.8473 N   0  0  0  0  0  4  0  0  0  0  0  0
   -0.8672   -0.4307   -3.3041 O   0  0  0  0  0  0  0  0  0  0  0  0
   -2.8010    0.6048   -3.4693 O   0  0  0  0  0  1  0  0  0  0  0  0
   -4.4397   -0.3093   -1.3039 H   0  0  0  0  0  0  0  0  0  0  0  0
   -4.6266    1.4526   -1.4617 H   0  0  0  0  0  0  0  0  0  0  0  0
   -4.8111    0.6733    0.1173 H   0  0  0  0  0  0  0  0  0  0  0  0
    0.1781    0.8460    2.1344 H   0  0  0  0  0  0  0  0  0  0  0  0
    0.5147    2.4312    1.3353 H   0  0  0  0  0  0  0  0  0  0  0  0
   -0.9237    2.2331    2.3581 H   0  0  0  0  0  0  0  0  0  0  0  0
    0.5553   -1.8459   -1.4382 H   0  0  0  0  0  0  0  0  0  0  0  0
    1.3065   -3.8097   -0.1565 H   0  0  0  0  0  0  0  0  0  0  0  0
    2.8637   -3.5288    1.7554 H   0  0  0  0  0  0  0  0  0  0  0  0
    3.6975   -1.2889    2.3569 H   0  0  0  0  0  0  0  0  0  0  0  0
    3.9924    0.9879    1.6430 H   0  0  0  0  0  0  0  0  0  0  0  0
    3.0478    1.6849    0.4351 H   0  0  0  0  0  0  0  0  0  0  0  0
  1  2  1  0
  2  3  2  0
  3  4  1  0
  4  5  1  0
  4  6  1  0
  6  7  1  0
  7  8  1  0
  8  9  2  0
  9 10  1  0
 10 11  2  0
 11 12  1  0
 12 13  2  0
 13 14  1  0
  6 15  2  0
 15 16  1  0
 16 17  2  0
 16 18  1  0
 15  2  1  0
 13  8  1  0
  1 19  1  0
  1 20  1  0
  1 21  1  0
  5 22  1  0
  5 23  1  0
  5 24  1  0
  9 25  1  0
 10 26  1  0
 11 27  1  0
 12 28  1  0
 14 29  1  0
 14 30  1  0
M  CHG  2  16   1  18  -1
M  END
$$$$
