
     RDKit          3D

 93 99  0  0  0  0  0  0  0  0999 V2000
   -3.7392    0.6892   -4.4767 C   0  0  0  0  0  0  0  0  0  0  0  0
   -3.7484    1.2580   -3.0641 C   0  0  0  0  0  0  0  0  0  0  0  0
   -2.5008    0.8803   -2.2747 C   0  0  0  0  0  0  0  0  0  0  0  0
   -1.5661    1.8133   -1.9867 C   0  0  0  0  0  0  0  0  0  0  0  0
   -1.7035    3.1350   -2.4318 O   0  0  0  0  0  0  0  0  0  0  0  0
   -2.1926    3.9769   -1.4581 C   0  0  0  0  0  0  0  0  0  0  0  0
   -2.5435    3.6091   -0.3385 O   0  0  0  0  0  0  0  0  0  0  0  0
   -2.2706    5.2990   -1.8844 N   0  0  0  0  0  0  0  0  0  0  0  0
   -2.7478    6.3132   -0.9521 C   0  0  0  0  0  0  0  0  0  0  0  0
   -1.6171    6.8535   -0.0888 C   0  0  0  0  0  0  0  0  0  0  0  0
   -1.7695    5.7357   -3.1862 C   0  0  0  0  0  0  0  0  0  0  0  0
   -2.8634    5.6840   -4.2416 C   0  0  0  0  0  0  0  0  0  0  0  0
   -0.4061    1.4969   -1.3089 N   0  0  0  0  0  0  0  0  0  0  0  0
    0.6777    2.3231   -1.1809 C   0  0  0  0  0  0  0  0  0  0  0  0
    0.8080    3.4866   -1.5225 O   0  0  0  0  0  0  0  0  0  0  0  0
    1.6828    1.6099   -0.6453 O   0  0  0  0  0  0  0  0  0  0  0  0
    1.2665    0.3357   -0.4654 C   0  0  0  0  0  0  0  0  0  0  0  0
    2.1054   -0.6068   -0.1889 N   0  0  0  0  0  0  0  0  0  0  0  0
    3.5215   -0.1670   -0.1173 C   0  0  0  0  0  0  0  0  0  0  0  0
    4.4278   -1.2866    0.4060 C   0  0  0  0  0  0  0  0  0  0  0  0
    4.3947   -1.4435    1.8951 C   0  0  0  0  0  0  0  0  0  0  0  0
    3.8263   -2.4886    2.5962 C   0  0  0  0  0  0  0  0  0  0  0  0
    4.0265   -2.2743    3.9327 N   0  0  0  0  0  0  0  0  0  0  0  0
    4.7227   -1.1051    4.1291 C   0  0  0  0  0  0  0  0  0  0  0  0
    5.1466   -0.4947    5.3160 C   0  0  0  0  0  0  0  0  0  0  0  0
    5.8584    0.7045    5.2092 C   0  0  0  0  0  0  0  0  0  0  0  0
    6.1353    1.2666    3.9652 C   0  0  0  0  0  0  0  0  0  0  0  0
    5.6996    0.6452    2.7891 C   0  0  0  0  0  0  0  0  0  0  0  0
    4.9763   -0.5636    2.8675 C   0  0  0  0  0  0  0  0  0  0  0  0
   -0.2505    0.2084   -0.5876 C   0  0  0  0  0  0  0  0  0  0  0  0
   -0.8916    0.3800    0.8232 C   0  0  0  0  0  0  0  0  0  0  0  0
   -0.9646   -0.8122    1.7439 C   0  0  0  0  0  0  0  0  0  0  0  0
   -2.1947   -1.4526    1.9661 C   0  0  0  0  0  0  0  0  0  0  0  0
   -2.2836   -2.5528    2.8203 C   0  0  0  0  0  0  0  0  0  0  0  0
   -1.1470   -3.0125    3.4817 C   0  0  0  0  0  0  0  0  0  0  0  0
    0.0738   -2.3671    3.2924 C   0  0  0  0  0  0  0  0  0  0  0  0
    0.1655   -1.2711    2.4316 C   0  0  0  0  0  0  0  0  0  0  0  0
   -0.8245   -0.9127   -1.5027 C   0  0  0  0  0  0  0  0  0  0  0  0
   -2.3052   -0.5200   -1.8417 C   0  0  0  0  0  0  0  0  0  0  0  0
   -3.3462   -1.3701   -1.7168 C   0  0  0  0  0  0  0  0  0  0  0  0
   -3.2714   -2.7964   -1.2645 C   0  0  0  0  0  0  0  0  0  0  0  0
   -1.8814   -3.2390   -1.0027 C   0  0  0  0  0  0  0  0  0  0  0  0
   -0.7262   -2.3805   -1.0829 C   0  0  0  0  0  0  0  0  0  0  0  0
    0.3646   -3.2184   -0.8897 C   0  0  0  0  0  0  0  0  0  0  0  0
    1.6748   -3.0224   -0.9369 O   0  0  0  0  0  0  0  0  0  0  0  0
   -0.0971   -4.4881   -0.6257 N   0  0  0  0  0  0  0  0  0  0  0  0
    0.7454   -5.6443   -0.3725 C   0  0  0  0  0  0  0  0  0  0  0  0
    1.1269   -5.7714    1.0894 C   0  0  0  0  0  0  0  0  0  0  0  0
   -1.4633   -4.5152   -0.6903 C   0  0  0  0  0  0  0  0  0  0  0  0
   -2.1368   -5.6436   -0.4927 O   0  0  0  0  0  0  0  0  0  0  0  0
   -3.7453   -0.4048   -4.4744 H   0  0  0  0  0  0  0  0  0  0  0  0
   -2.8584    1.0284   -5.0323 H   0  0  0  0  0  0  0  0  0  0  0  0
   -4.6293    1.0231   -5.0224 H   0  0  0  0  0  0  0  0  0  0  0  0
   -4.6543    0.9492   -2.5341 H   0  0  0  0  0  0  0  0  0  0  0  0
   -3.8521    2.3441   -3.1555 H   0  0  0  0  0  0  0  0  0  0  0  0
   -3.5143    5.8728   -0.3022 H   0  0  0  0  0  0  0  0  0  0  0  0
   -3.2229    7.1230   -1.5187 H   0  0  0  0  0  0  0  0  0  0  0  0
   -0.8454    7.3328   -0.7036 H   0  0  0  0  0  0  0  0  0  0  0  0
   -1.1336    6.0497    0.4802 H   0  0  0  0  0  0  0  0  0  0  0  0
   -2.0006    7.5927    0.6217 H   0  0  0  0  0  0  0  0  0  0  0  0
   -1.3779    6.7556   -3.0946 H   0  0  0  0  0  0  0  0  0  0  0  0
   -0.9321    5.1006   -3.4972 H   0  0  0  0  0  0  0  0  0  0  0  0
   -2.4664    5.9861   -5.2151 H   0  0  0  0  0  0  0  0  0  0  0  0
   -3.2741    4.6739   -4.3380 H   0  0  0  0  0  0  0  0  0  0  0  0
   -3.6897    6.3543   -3.9814 H   0  0  0  0  0  0  0  0  0  0  0  0
    3.8531    0.0882   -1.1317 H   0  0  0  0  0  0  0  0  0  0  0  0
    3.6232    0.7221    0.5177 H   0  0  0  0  0  0  0  0  0  0  0  0
    4.1768   -2.2391   -0.0782 H   0  0  0  0  0  0  0  0  0  0  0  0
    5.4643   -1.0625    0.1202 H   0  0  0  0  0  0  0  0  0  0  0  0
    3.2932   -3.3644    2.2516 H   0  0  0  0  0  0  0  0  0  0  0  0
    3.7181   -2.8876    4.6746 H   0  0  0  0  0  0  0  0  0  0  0  0
    4.9376   -0.9314    6.2877 H   0  0  0  0  0  0  0  0  0  0  0  0
    6.2078    1.2018    6.1118 H   0  0  0  0  0  0  0  0  0  0  0  0
    6.6953    2.1969    3.9037 H   0  0  0  0  0  0  0  0  0  0  0  0
    5.9195    1.0948    1.8256 H   0  0  0  0  0  0  0  0  0  0  0  0
   -1.9087    0.7807    0.7129 H   0  0  0  0  0  0  0  0  0  0  0  0
   -0.3617    1.1721    1.3743 H   0  0  0  0  0  0  0  0  0  0  0  0
   -3.0973   -1.1023    1.4654 H   0  0  0  0  0  0  0  0  0  0  0  0
   -3.2381   -3.0526    2.9685 H   0  0  0  0  0  0  0  0  0  0  0  0
   -1.2135   -3.8679    4.1474 H   0  0  0  0  0  0  0  0  0  0  0  0
    0.9592   -2.7146    3.8187 H   0  0  0  0  0  0  0  0  0  0  0  0
    1.1306   -0.7812    2.3135 H   0  0  0  0  0  0  0  0  0  0  0  0
   -0.2771   -0.8711   -2.4602 H   0  0  0  0  0  0  0  0  0  0  0  0
   -4.3607   -1.0538   -1.9336 H   0  0  0  0  0  0  0  0  0  0  0  0
   -3.8789   -2.9183   -0.3587 H   0  0  0  0  0  0  0  0  0  0  0  0
   -3.7116   -3.4289   -2.0465 H   0  0  0  0  0  0  0  0  0  0  0  0
    1.8452   -2.0889   -0.6948 H   0  0  0  0  0  0  0  0  0  0  0  0
    1.6348   -5.5576   -1.0022 H   0  0  0  0  0  0  0  0  0  0  0  0
    0.2085   -6.5380   -0.7060 H   0  0  0  0  0  0  0  0  0  0  0  0
    1.7821   -6.6345    1.2395 H   0  0  0  0  0  0  0  0  0  0  0  0
    0.2418   -5.8929    1.7223 H   0  0  0  0  0  0  0  0  0  0  0  0
    1.6559   -4.8797    1.4367 H   0  0  0  0  0  0  0  0  0  0  0  0
   -3.0772   -5.4544   -0.6476 H   0  0  0  0  0  0  0  0  0  0  0  0
  1  2  1  0
  2  3  1  0
  3  4  2  0
  4  5  1  0
  5  6  1  0
  6  7  2  0
  6  8  1  0
  8  9  1  0
  9 10  1  0
  8 11  1  0
 11 12  1  0
  4 13  1  0
 13 14  1  0
 14 15  2  0
 14 16  1  0
 16 17  1  0
 17 18  2  3
 18 19  1  0
 19 20  1  0
 20 21  1  0
 21 22  2  0
 22 23  1  0
 23 24  1  0
 24 25  2  0
 25 26  1  0
 26 27  2  0
 27 28  1  0
 28 29  2  0
 17 30  1  0
 30 31  1  0
 31 32  1  0
 32 33  2  0
 33 34  1  0
 34 35  2  0
 35 36  1  0
 36 37  2  0
 30 38  1  0
 38 39  1  0
 39 40  2  0
 40 41  1  0
 41 42  1  0
 42 43  1  0
 43 44  2  0
 44 45  1  0
 44 46  1  0
 46 47  1  0
 47 48  1  0
 46 49  1  0
 49 50  1  0
 39  3  1  0
 49 42  2  0
 30 13  1  0
 37 32  1  0
 43 38  1  0
 29 21  1  0
 29 24  1  0
  1 51  1  0
  1 52  1  0
  1 53  1  0
  2 54  1  0
  2 55  1  0
  9 56  1  0
  9 57  1  0
 10 58  1  0
 10 59  1  0
 10 60  1  0
 11 61  1  0
 11 62  1  0
 12 63  1  0
 12 64  1  0
 12 65  1  0
 19 66  1  0
 19 67  1  0
 20 68  1  0
 20 69  1  0
 22 70  1  0
 23 71  1  0
 25 72  1  0
 26 73  1  0
 27 74  1  0
 28 75  1  0
 31 76  1  0
 31 77  1  0
 33 78  1  0
 34 79  1  0
 35 80  1  0
 36 81  1  0
 37 82  1  0
 38 83  1  0
 40 84  1  0
 41 85  1  0
 41 86  1  0
 45 87  1  0
 47 88  1  0
 47 89  1  0
 48 90  1  0
 48 91  1  0
 48 92  1  0
 50 93  1  0
M  END
$$$$
