
     RDKit          3D

 37 38  0  0  0  0  0  0  0  0999 V2000
    3.1455   -2.7436    1.3296 C   0  0  0  0  0  0  0  0  0  0  0  0
    2.1079   -1.7415    1.3444 N   0  0  0  0  0  0  0  0  0  0  0  0
    1.8006   -1.0701    0.1773 C   0  0  0  0  0  0  0  0  0  0  0  0
    2.4153   -1.2157   -0.8722 O   0  0  0  0  0  0  0  0  0  0  0  0
    0.7280   -0.2211    0.3236 N   0  0  0  0  0  0  0  0  0  0  0  0
    0.3220    0.1214    1.6365 O   0  0  0  0  0  0  0  0  0  0  0  0
    0.2760    0.6969   -0.7364 C   0  0  0  0  0  0  0  0  0  0  0  0
   -1.1638    1.0008   -0.7136 N   0  0  0  0  0  0  0  0  0  0  0  0
   -2.1087   -0.0278   -0.4058 C   0  0  0  0  0  0  0  0  0  0  0  0
   -3.2657    0.2676    0.3270 C   0  0  0  0  0  0  0  0  0  0  0  0
   -4.1841   -0.7344    0.6535 C   0  0  0  0  0  0  0  0  0  0  0  0
   -3.9538   -2.0488    0.2578 C   0  0  0  0  0  0  0  0  0  0  0  0
   -2.8024   -2.3624   -0.4586 C   0  0  0  0  0  0  0  0  0  0  0  0
   -1.8830   -1.3601   -0.7832 C   0  0  0  0  0  0  0  0  0  0  0  0
   -1.4995    2.1899   -1.3720 C   0  0  0  0  0  0  0  0  0  0  0  0
   -2.9894    2.7785   -1.8504 S   0  0  0  0  0  0  0  0  0  0  0  0
   -0.0348    3.0926   -1.7799 S   0  0  0  0  0  0  0  0  0  0  0  0
    1.0563    2.0384   -0.7644 C   0  0  0  0  0  0  0  0  0  0  0  0
    2.4173    1.9304   -1.4558 C   0  0  0  0  0  0  0  0  0  0  0  0
    1.2148    2.7299    0.5958 C   0  0  0  0  0  0  0  0  0  0  0  0
    4.0604   -2.3239    0.9024 H   0  0  0  0  0  0  0  0  0  0  0  0
    2.8152   -3.5905    0.7218 H   0  0  0  0  0  0  0  0  0  0  0  0
    3.3271   -3.0700    2.3560 H   0  0  0  0  0  0  0  0  0  0  0  0
    1.2753   -1.9704    1.8765 H   0  0  0  0  0  0  0  0  0  0  0  0
    1.1610    0.0722    2.1355 H   0  0  0  0  0  0  0  0  0  0  0  0
    0.4558    0.1848   -1.6939 H   0  0  0  0  0  0  0  0  0  0  0  0
   -3.4548    1.2757    0.6868 H   0  0  0  0  0  0  0  0  0  0  0  0
   -5.0762   -0.4846    1.2221 H   0  0  0  0  0  0  0  0  0  0  0  0
   -4.6702   -2.8266    0.5086 H   0  0  0  0  0  0  0  0  0  0  0  0
   -2.6207   -3.3869   -0.7730 H   0  0  0  0  0  0  0  0  0  0  0  0
   -1.0094   -1.6416   -1.3640 H   0  0  0  0  0  0  0  0  0  0  0  0
    3.1186    1.3470   -0.8501 H   0  0  0  0  0  0  0  0  0  0  0  0
    2.3426    1.4438   -2.4350 H   0  0  0  0  0  0  0  0  0  0  0  0
    2.8742    2.9161   -1.6057 H   0  0  0  0  0  0  0  0  0  0  0  0
    1.9129    2.1799    1.2365 H   0  0  0  0  0  0  0  0  0  0  0  0
    0.2636    2.8126    1.1340 H   0  0  0  0  0  0  0  0  0  0  0  0
    1.6258    3.7414    0.4883 H   0  0  0  0  0  0  0  0  0  0  0  0
  1  2  1  0
  2  3  1  0
  3  4  2  0
  3  5  1  0
  5  6  1  0
  5  7  1  0
  7  8  1  0
  8  9  1  0
  9 10  2  0
 10 11  1  0
 11 12  2  0
 12 13  1  0
 13 14  2  0
  8 15  1  0
 15 16  2  0
 15 17  1  0
 17 18  1  0
 18 19  1  0
 18 20  1  0
 18  7  1  0
 14  9  1  0
  1 21  1  0
  1 22  1  0
  1 23  1  0
  2 24  1  0
  6 25  1  0
  7 26  1  0
 10 27  1  0
 11 28  1  0
 12 29  1  0
 13 30  1  0
 14 31  1  0
 19 32  1  0
 19 33  1  0
 19 34  1  0
 20 35  1  0
 20 36  1  0
 20 37  1  0
M  END
$$$$
