
     RDKit          3D

 35 37  0  0  0  0  0  0  0  0999 V2000
   -7.1816   -0.1613    0.6961 C   0  0  0  0  0  0  0  0  0  0  0  0
   -5.7268   -0.1565    1.0958 C   0  0  0  0  0  0  0  0  0  0  0  0
   -5.4019   -0.2401    2.2747 O   0  0  0  0  0  0  0  0  0  0  0  0
   -4.8850   -0.0795    0.0012 N   0  0  0  0  0  0  0  0  0  0  0  0
   -3.4754   -0.0568    0.0014 C   0  0  0  0  0  0  0  0  0  0  0  0
   -2.8366    0.0149   -1.2408 C   0  0  0  0  0  0  0  0  0  0  0  0
   -1.4395    0.0425   -1.3250 C   0  0  0  0  0  0  0  0  0  0  0  0
   -0.6475   -0.0005   -0.1711 C   0  0  0  0  0  0  0  0  0  0  0  0
    0.8030    0.0300   -0.2970 C   0  0  0  0  0  0  0  0  0  0  0  0
    1.7220   -0.0085    0.7318 C   0  0  0  0  0  0  0  0  0  0  0  0
    2.9550    0.0429    0.1317 N   0  0  0  0  0  0  0  0  0  0  0  0
    4.2223    0.0335    0.7099 C   0  0  0  0  0  0  0  0  0  0  0  0
    5.3117    0.0925   -0.0810 C   0  0  0  0  0  0  0  0  0  0  0  0
    6.7161    0.0886    0.4347 C   0  0  0  0  0  0  0  0  0  0  0  0
    5.1119    0.1646   -1.5287 C   0  0  0  0  0  0  0  0  0  0  0  0
    3.8804    0.1729   -2.0762 C   0  0  0  0  0  0  0  0  0  0  0  0
    2.7334    0.1105   -1.2373 C   0  0  0  0  0  0  0  0  0  0  0  0
    1.4474    0.1039   -1.5155 N   0  0  0  0  0  0  0  0  0  0  0  0
   -1.2922   -0.0714    1.0693 C   0  0  0  0  0  0  0  0  0  0  0  0
   -2.6924   -0.0991    1.1543 C   0  0  0  0  0  0  0  0  0  0  0  0
   -7.3572    0.5089   -0.1504 H   0  0  0  0  0  0  0  0  0  0  0  0
   -7.7900    0.1876    1.5355 H   0  0  0  0  0  0  0  0  0  0  0  0
   -7.4803   -1.1782    0.4288 H   0  0  0  0  0  0  0  0  0  0  0  0
   -5.3248   -0.0425   -0.9095 H   0  0  0  0  0  0  0  0  0  0  0  0
   -3.4081    0.0503   -2.1643 H   0  0  0  0  0  0  0  0  0  0  0  0
   -0.9686    0.0982   -2.3053 H   0  0  0  0  0  0  0  0  0  0  0  0
    1.6211   -0.0662    1.8049 H   0  0  0  0  0  0  0  0  0  0  0  0
    4.2700   -0.0220    1.7901 H   0  0  0  0  0  0  0  0  0  0  0  0
    7.2679   -0.7722    0.0421 H   0  0  0  0  0  0  0  0  0  0  0  0
    6.7459    0.0321    1.5281 H   0  0  0  0  0  0  0  0  0  0  0  0
    7.2389    1.0029    0.1345 H   0  0  0  0  0  0  0  0  0  0  0  0
    5.9898    0.2121   -2.1672 H   0  0  0  0  0  0  0  0  0  0  0  0
    3.7340    0.2263   -3.1487 H   0  0  0  0  0  0  0  0  0  0  0  0
   -0.7264   -0.1066    1.9959 H   0  0  0  0  0  0  0  0  0  0  0  0
   -3.1364   -0.1536    2.1435 H   0  0  0  0  0  0  0  0  0  0  0  0
  1  2  1  0
  2  3  2  0
  2  4  1  0
  4  5  1  0
  5  6  2  0
  6  7  1  0
  7  8  2  0
  8  9  1  0
  9 10  2  0
 10 11  1  0
 11 12  1  0
 12 13  2  0
 13 14  1  0
 13 15  1  0
 15 16  2  0
 16 17  1  0
 17 18  2  0
  8 19  1  0
 19 20  2  0
 20  5  1  0
 18  9  1  0
 17 11  1  0
  1 21  1  0
  1 22  1  0
  1 23  1  0
  4 24  1  0
  6 25  1  0
  7 26  1  0
 10 27  1  0
 12 28  1  0
 14 29  1  0
 14 30  1  0
 14 31  1  0
 15 32  1  0
 16 33  1  0
 19 34  1  0
 20 35  1  0
M  END
$$$$
