
     RDKit          3D

 48 50  0  0  0  0  0  0  0  0999 V2000
   -1.7604    0.3183   -1.1919 O   0  0  0  0  0  0  0  0  0  0  0  0
   -2.0544    1.4192   -0.7350 C   0  0  0  0  0  0  0  0  0  0  0  0
   -1.1780    2.2160    0.2081 C   0  0  0  0  0  0  0  0  0  0  0  0
    0.1113    1.5005    0.6089 C   0  0  0  0  0  0  0  0  0  0  0  0
    1.0978    1.3416   -0.5550 C   0  0  0  0  0  0  0  0  0  0  0  0
    2.4413    1.0079   -0.0747 N   0  0  0  0  0  0  0  0  0  0  0  0
    2.7539   -0.3200    0.1635 C   0  0  0  0  0  0  0  0  0  0  0  0
    2.0147   -1.2799   -0.0041 O   0  0  0  0  0  0  0  0  0  0  0  0
    4.1439   -0.4373    0.6751 C   0  0  0  0  0  0  0  0  0  0  0  0
    4.6836   -1.6219    0.9901 C   0  0  0  0  0  0  0  0  0  0  0  0
    6.0406   -1.8129    1.5186 C   0  0  0  0  0  0  0  0  0  0  0  0
    7.0767   -2.0724    0.6097 C   0  0  0  0  0  0  0  0  0  0  0  0
    8.3863   -2.2524    1.0604 C   0  0  0  0  0  0  0  0  0  0  0  0
    8.6738   -2.1754    2.4218 C   0  0  0  0  0  0  0  0  0  0  0  0
    7.6518   -1.9189    3.3361 C   0  0  0  0  0  0  0  0  0  0  0  0
    6.3397   -1.7380    2.8890 C   0  0  0  0  0  0  0  0  0  0  0  0
    5.1165   -1.4299    4.0726 Cl  0  0  0  0  0  0  0  0  0  0  0  0
    4.8686    1.1141    0.7914 S   0  0  0  0  0  0  0  0  0  0  0  0
    3.4184    1.9351    0.2275 C   0  0  0  0  0  0  0  0  0  0  0  0
    3.3329    3.5980    0.1103 S   0  0  0  0  0  0  0  0  0  0  0  0
   -3.2309    2.0688   -1.0593 N   0  0  0  0  0  0  0  0  0  0  0  0
   -4.2101    1.3010   -1.7223 N   0  0  0  0  0  0  0  0  0  0  0  0
   -5.5061    1.4178   -1.2522 C   0  0  0  0  0  0  0  0  0  0  0  0
   -5.8312    2.2718   -0.4302 O   0  0  0  0  0  0  0  0  0  0  0  0
   -6.4963    0.4287   -1.7622 C   0  0  0  0  0  0  0  0  0  0  0  0
   -7.6641    0.2148   -1.0156 C   0  0  0  0  0  0  0  0  0  0  0  0
   -8.6247   -0.7011   -1.4536 C   0  0  0  0  0  0  0  0  0  0  0  0
   -8.4231   -1.3986   -2.6427 C   0  0  0  0  0  0  0  0  0  0  0  0
   -9.6046   -2.5247   -3.1846 Cl  0  0  0  0  0  0  0  0  0  0  0  0
   -7.2720   -1.1844   -3.4001 C   0  0  0  0  0  0  0  0  0  0  0  0
   -6.3083   -0.2685   -2.9641 C   0  0  0  0  0  0  0  0  0  0  0  0
   -0.9457    3.1797   -0.2597 H   0  0  0  0  0  0  0  0  0  0  0  0
   -1.7630    2.4159    1.1141 H   0  0  0  0  0  0  0  0  0  0  0  0
    0.5820    2.0803    1.4126 H   0  0  0  0  0  0  0  0  0  0  0  0
   -0.1161    0.5147    1.0332 H   0  0  0  0  0  0  0  0  0  0  0  0
    0.7647    0.5444   -1.2281 H   0  0  0  0  0  0  0  0  0  0  0  0
    1.1418    2.2605   -1.1478 H   0  0  0  0  0  0  0  0  0  0  0  0
    4.1043   -2.5364    0.8751 H   0  0  0  0  0  0  0  0  0  0  0  0
    6.8721   -2.1332   -0.4574 H   0  0  0  0  0  0  0  0  0  0  0  0
    9.1830   -2.4511    0.3472 H   0  0  0  0  0  0  0  0  0  0  0  0
    9.6939   -2.3146    2.7717 H   0  0  0  0  0  0  0  0  0  0  0  0
    7.8838   -1.8606    4.3965 H   0  0  0  0  0  0  0  0  0  0  0  0
   -3.6086    2.7889   -0.4409 H   0  0  0  0  0  0  0  0  0  0  0  0
   -3.8689    0.4171   -2.1008 H   0  0  0  0  0  0  0  0  0  0  0  0
   -7.8292    0.7602   -0.0877 H   0  0  0  0  0  0  0  0  0  0  0  0
   -9.5244   -0.8615   -0.8649 H   0  0  0  0  0  0  0  0  0  0  0  0
   -7.1225   -1.7214   -4.3338 H   0  0  0  0  0  0  0  0  0  0  0  0
   -5.4350   -0.0998   -3.5882 H   0  0  0  0  0  0  0  0  0  0  0  0
  1  2  2  0
  2  3  1  0
  3  4  1  0
  4  5  1  0
  5  6  1  0
  6  7  1  0
  7  8  2  0
  7  9  1  0
  9 10  2  3
 10 11  1  0
 11 12  2  0
 12 13  1  0
 13 14  2  0
 14 15  1  0
 15 16  2  0
 16 17  1  0
  9 18  1  0
 18 19  1  0
 19 20  2  0
  2 21  1  0
 21 22  1  0
 22 23  1  0
 23 24  2  0
 23 25  1  0
 25 26  2  0
 26 27  1  0
 27 28  2  0
 28 29  1  0
 28 30  1  0
 30 31  2  0
 19  6  1  0
 31 25  1  0
 16 11  1  0
  3 32  1  0
  3 33  1  0
  4 34  1  0
  4 35  1  0
  5 36  1  0
  5 37  1  0
 10 38  1  0
 12 39  1  0
 13 40  1  0
 14 41  1  0
 15 42  1  0
 21 43  1  0
 22 44  1  0
 26 45  1  0
 27 46  1  0
 30 47  1  0
 31 48  1  0
M  END
$$$$
