
     RDKit          3D

 39 41  0  0  0  0  0  0  0  0999 V2000
    3.6317    0.3100    2.3856 C   0  0  0  0  0  0  0  0  0  0  0  0
    4.1671    0.0008    1.0358 C   0  0  0  0  0  0  0  0  0  0  0  0
    5.4918    0.0044    0.8278 N   0  0  0  0  0  0  0  0  0  0  0  0
    5.6207   -0.3185   -0.4681 N   0  0  0  0  0  0  0  0  0  0  0  0
    6.9390   -0.4199   -1.0448 C   0  0  0  0  0  0  0  0  0  0  0  0
    4.4305   -0.5176   -1.0993 C   0  0  0  0  0  0  0  0  0  0  0  0
    3.4477   -0.3189   -0.1492 C   0  0  0  0  0  0  0  0  0  0  0  0
    2.0279   -0.4337   -0.3924 C   0  0  0  0  0  0  0  0  0  0  0  0
    1.2015   -0.2107    0.5782 N   0  0  0  0  0  0  0  0  0  0  0  0
   -0.1454   -0.3543    0.3400 N   0  0  0  0  0  0  0  0  0  0  0  0
   -0.7261   -1.2805   -0.5180 C   0  0  0  0  0  0  0  0  0  0  0  0
   -0.1079   -2.0589   -1.2379 O   0  0  0  0  0  0  0  0  0  0  0  0
   -2.1916   -1.3085   -0.4441 C   0  0  0  0  0  0  0  0  0  0  0  0
   -2.8746   -2.5120   -0.5222 C   0  0  0  0  0  0  0  0  0  0  0  0
   -4.5661   -2.3371   -0.4021 S   0  0  0  0  0  0  0  0  0  0  0  0
   -4.4331   -0.6467   -0.3141 C   0  0  0  0  0  0  0  0  0  0  0  0
   -3.1210   -0.2017   -0.3386 C   0  0  0  0  0  0  0  0  0  0  0  0
   -2.8056    1.2720   -0.3544 C   0  0  0  0  0  0  0  0  0  0  0  0
   -4.0097    2.1347    0.0566 C   0  0  0  0  0  0  0  0  0  0  0  0
   -5.3048    1.6666   -0.6157 C   0  0  0  0  0  0  0  0  0  0  0  0
   -5.6486    0.2252   -0.2201 C   0  0  0  0  0  0  0  0  0  0  0  0
    2.9898    1.1959    2.3500 H   0  0  0  0  0  0  0  0  0  0  0  0
    4.4369    0.5099    3.1006 H   0  0  0  0  0  0  0  0  0  0  0  0
    3.0472   -0.5323    2.7688 H   0  0  0  0  0  0  0  0  0  0  0  0
    6.8549   -0.6891   -2.1005 H   0  0  0  0  0  0  0  0  0  0  0  0
    7.4344    0.5492   -0.9453 H   0  0  0  0  0  0  0  0  0  0  0  0
    7.4927   -1.1926   -0.5057 H   0  0  0  0  0  0  0  0  0  0  0  0
    4.3769   -0.7832   -2.1459 H   0  0  0  0  0  0  0  0  0  0  0  0
    1.7238   -0.6774   -1.4237 H   0  0  0  0  0  0  0  0  0  0  0  0
   -0.7241   -0.0286    1.1079 H   0  0  0  0  0  0  0  0  0  0  0  0
   -2.4447   -3.4997   -0.6321 H   0  0  0  0  0  0  0  0  0  0  0  0
   -2.4960    1.5445   -1.3711 H   0  0  0  0  0  0  0  0  0  0  0  0
   -1.9747    1.5095    0.3146 H   0  0  0  0  0  0  0  0  0  0  0  0
   -3.8118    3.1817   -0.1997 H   0  0  0  0  0  0  0  0  0  0  0  0
   -4.1357    2.0909    1.1461 H   0  0  0  0  0  0  0  0  0  0  0  0
   -6.1322    2.3294   -0.3387 H   0  0  0  0  0  0  0  0  0  0  0  0
   -5.1899    1.7341   -1.7052 H   0  0  0  0  0  0  0  0  0  0  0  0
   -6.0175    0.2083    0.8129 H   0  0  0  0  0  0  0  0  0  0  0  0
   -6.4533   -0.1452   -0.8654 H   0  0  0  0  0  0  0  0  0  0  0  0
  1  2  1  0
  2  3  2  0
  3  4  1  0
  4  5  1  0
  4  6  1  0
  6  7  2  0
  7  8  1  0
  8  9  2  3
  9 10  1  0
 10 11  1  0
 11 12  2  0
 11 13  1  0
 13 14  2  0
 14 15  1  0
 15 16  1  0
 16 17  2  0
 17 18  1  0
 18 19  1  0
 19 20  1  0
 20 21  1  0
  7  2  1  0
 17 13  1  0
 21 16  1  0
  1 22  1  0
  1 23  1  0
  1 24  1  0
  5 25  1  0
  5 26  1  0
  5 27  1  0
  6 28  1  0
  8 29  1  0
 10 30  1  0
 14 31  1  0
 18 32  1  0
 18 33  1  0
 19 34  1  0
 19 35  1  0
 20 36  1  0
 20 37  1  0
 21 38  1  0
 21 39  1  0
M  END
$$$$
