
     RDKit          3D

 43 45  0  0  0  0  0  0  0  0999 V2000
    6.8416    2.4313   -1.7977 C   0  0  0  0  0  0  0  0  0  0  0  0
    5.4435    2.1755   -1.7431 O   0  0  0  0  0  0  0  0  0  0  0  0
    5.0463    1.0625   -1.0532 C   0  0  0  0  0  0  0  0  0  0  0  0
    5.8799    0.1856   -0.3623 C   0  0  0  0  0  0  0  0  0  0  0  0
    5.3327   -0.9066    0.3135 C   0  0  0  0  0  0  0  0  0  0  0  0
    3.9542   -1.1334    0.2934 C   0  0  0  0  0  0  0  0  0  0  0  0
    3.1113   -0.2805   -0.4180 C   0  0  0  0  0  0  0  0  0  0  0  0
    1.7059   -0.4207   -0.4529 N   0  0  0  0  0  0  0  0  0  0  0  0
    0.9095   -1.5445   -0.2909 C   0  0  0  0  0  0  0  0  0  0  0  0
    1.4102   -3.1113   -0.6563 S   0  0  0  0  0  0  0  0  0  0  0  0
   -0.3967   -1.2289    0.1319 N   0  0  0  0  0  0  0  0  0  0  0  0
   -0.7781    0.0570    0.7446 C   0  0  0  0  0  0  0  0  0  0  0  0
   -2.1373    0.5731    0.2300 C   0  0  0  0  0  0  0  0  0  0  0  0
   -3.1844   -0.4644    0.2511 N   0  0  0  0  0  0  0  0  0  0  0  0
   -4.4693   -0.0375    0.5995 C   0  0  0  0  0  0  0  0  0  0  0  0
   -5.0195    1.1035    0.0100 C   0  0  0  0  0  0  0  0  0  0  0  0
   -6.3068    1.5179    0.3508 C   0  0  0  0  0  0  0  0  0  0  0  0
   -7.0316    0.7804    1.2722 C   0  0  0  0  0  0  0  0  0  0  0  0
   -6.4336   -0.3445    1.8055 C   0  0  0  0  0  0  0  0  0  0  0  0
   -5.1867   -0.7607    1.4876 N   0  0  0  0  0  0  0  0  0  0  0  0
   -2.7896   -1.7686    0.8047 C   0  0  0  0  0  0  0  0  0  0  0  0
   -1.4694   -2.2504    0.1696 C   0  0  0  0  0  0  0  0  0  0  0  0
    3.6664    0.8289   -1.0682 C   0  0  0  0  0  0  0  0  0  0  0  0
    7.2460    2.6245   -0.7987 H   0  0  0  0  0  0  0  0  0  0  0  0
    6.9929    3.3336   -2.3980 H   0  0  0  0  0  0  0  0  0  0  0  0
    7.3750    1.6110   -2.2894 H   0  0  0  0  0  0  0  0  0  0  0  0
    6.9546    0.3257   -0.3206 H   0  0  0  0  0  0  0  0  0  0  0  0
    5.9801   -1.5828    0.8666 H   0  0  0  0  0  0  0  0  0  0  0  0
    3.5636   -1.9682    0.8666 H   0  0  0  0  0  0  0  0  0  0  0  0
    1.2186    0.3406   -0.9055 H   0  0  0  0  0  0  0  0  0  0  0  0
   -0.8317   -0.1213    1.8263 H   0  0  0  0  0  0  0  0  0  0  0  0
   -0.0211    0.8319    0.6051 H   0  0  0  0  0  0  0  0  0  0  0  0
   -2.0185    0.9126   -0.8060 H   0  0  0  0  0  0  0  0  0  0  0  0
   -2.4124    1.4439    0.8387 H   0  0  0  0  0  0  0  0  0  0  0  0
   -4.4623    1.6622   -0.7339 H   0  0  0  0  0  0  0  0  0  0  0  0
   -6.7370    2.4020   -0.1098 H   0  0  0  0  0  0  0  0  0  0  0  0
   -8.0362    1.0668    1.5602 H   0  0  0  0  0  0  0  0  0  0  0  0
   -6.9555   -0.9671    2.5263 H   0  0  0  0  0  0  0  0  0  0  0  0
   -2.6641   -1.6924    1.8931 H   0  0  0  0  0  0  0  0  0  0  0  0
   -3.5538   -2.5305    0.6055 H   0  0  0  0  0  0  0  0  0  0  0  0
   -1.1159   -3.1268    0.7235 H   0  0  0  0  0  0  0  0  0  0  0  0
   -1.6534   -2.5532   -0.8685 H   0  0  0  0  0  0  0  0  0  0  0  0
    3.0326    1.5238   -1.6127 H   0  0  0  0  0  0  0  0  0  0  0  0
  1  2  1  0
  2  3  1  0
  3  4  2  0
  4  5  1  0
  5  6  2  0
  6  7  1  0
  7  8  1  0
  8  9  1  0
  9 10  2  0
  9 11  1  0
 11 12  1  0
 12 13  1  0
 13 14  1  0
 14 15  1  0
 15 16  2  0
 16 17  1  0
 17 18  2  0
 18 19  1  0
 19 20  2  0
 14 21  1  0
 21 22  1  0
  7 23  2  0
 23  3  1  0
 22 11  1  0
 20 15  1  0
  1 24  1  0
  1 25  1  0
  1 26  1  0
  4 27  1  0
  5 28  1  0
  6 29  1  0
  8 30  1  0
 12 31  1  0
 12 32  1  0
 13 33  1  0
 13 34  1  0
 16 35  1  0
 17 36  1  0
 18 37  1  0
 19 38  1  0
 21 39  1  0
 21 40  1  0
 22 41  1  0
 22 42  1  0
 23 43  1  0
M  END
$$$$
