
     RDKit          3D

 45 47  0  0  0  0  0  0  0  0999 V2000
    4.0031   -2.1006    4.0316 N   0  0  0  0  0  0  0  0  0  0  0  0
    4.3567   -1.6267    3.0326 C   0  0  0  0  0  0  0  0  0  0  0  0
    4.7783   -1.0468    1.7994 C   0  0  0  0  0  0  0  0  0  0  0  0
    6.1794   -1.0631    1.5369 C   0  0  0  0  0  0  0  0  0  0  0  0
    7.3179   -1.0707    1.3113 N   0  0  0  0  0  0  0  0  0  0  0  0
    3.8990   -0.5021    0.9224 C   0  0  0  0  0  0  0  0  0  0  0  0
    2.4501   -0.4998    1.1345 C   0  0  0  0  0  0  0  0  0  0  0  0
    1.6177    0.3042    0.4499 C   0  0  0  0  0  0  0  0  0  0  0  0
    0.1751    0.1685    0.5558 C   0  0  0  0  0  0  0  0  0  0  0  0
   -0.6878    0.6027   -0.3899 C   0  0  0  0  0  0  0  0  0  0  0  0
   -2.0937    0.5144   -0.2667 N   0  0  0  0  0  0  0  0  0  0  0  0
   -2.9869    0.6822   -1.4387 C   0  0  0  0  0  0  0  0  0  0  0  0
   -4.4522    0.2977   -1.2164 C   0  0  0  0  0  0  0  0  0  0  0  0
   -4.7027   -1.1691   -0.8567 C   0  0  0  0  0  0  0  0  0  0  0  0
   -3.6336   -1.8619   -0.0159 C   0  0  0  0  0  0  0  0  0  0  0  0
   -3.2014   -1.1139    1.2446 C   0  0  0  0  0  0  0  0  0  0  0  0
   -2.7587    0.3340    1.0348 C   0  0  0  0  0  0  0  0  0  0  0  0
   -0.1284    1.2223   -1.6762 C   0  0  0  0  0  0  0  0  0  0  0  0
    1.3980    1.1373   -1.8445 C   0  0  0  0  0  0  0  0  0  0  0  0
    2.0895    1.3789   -0.5043 C   0  0  0  0  0  0  0  0  0  0  0  0
    3.6183    1.4663   -0.6194 C   0  0  0  0  0  0  0  0  0  0  0  0
    4.3036    0.1191   -0.4084 C   0  0  0  0  0  0  0  0  0  0  0  0
    2.0304   -1.2218    1.8342 H   0  0  0  0  0  0  0  0  0  0  0  0
   -0.1934   -0.3492    1.4356 H   0  0  0  0  0  0  0  0  0  0  0  0
   -2.9507    1.7317   -1.7548 H   0  0  0  0  0  0  0  0  0  0  0  0
   -2.6126    0.0721   -2.2694 H   0  0  0  0  0  0  0  0  0  0  0  0
   -5.0086    0.5173   -2.1372 H   0  0  0  0  0  0  0  0  0  0  0  0
   -4.9108    0.9443   -0.4601 H   0  0  0  0  0  0  0  0  0  0  0  0
   -4.8155   -1.7405   -1.7871 H   0  0  0  0  0  0  0  0  0  0  0  0
   -5.6700   -1.2397   -0.3440 H   0  0  0  0  0  0  0  0  0  0  0  0
   -4.0055   -2.8523    0.2754 H   0  0  0  0  0  0  0  0  0  0  0  0
   -2.7532   -2.0558   -0.6421 H   0  0  0  0  0  0  0  0  0  0  0  0
   -2.3716   -1.6744    1.6939 H   0  0  0  0  0  0  0  0  0  0  0  0
   -4.0122   -1.1318    1.9829 H   0  0  0  0  0  0  0  0  0  0  0  0
   -3.6123    1.0141    1.1253 H   0  0  0  0  0  0  0  0  0  0  0  0
   -2.1122    0.6408    1.8662 H   0  0  0  0  0  0  0  0  0  0  0  0
   -0.4224    2.2800   -1.6927 H   0  0  0  0  0  0  0  0  0  0  0  0
   -0.5721    0.7495   -2.5586 H   0  0  0  0  0  0  0  0  0  0  0  0
    1.7178    1.8771   -2.5880 H   0  0  0  0  0  0  0  0  0  0  0  0
    1.6691    0.1505   -2.2433 H   0  0  0  0  0  0  0  0  0  0  0  0
    1.7513    2.3550   -0.1255 H   0  0  0  0  0  0  0  0  0  0  0  0
    3.9121    1.8903   -1.5868 H   0  0  0  0  0  0  0  0  0  0  0  0
    3.9875    2.1647    0.1447 H   0  0  0  0  0  0  0  0  0  0  0  0
    4.0291   -0.5677   -1.2199 H   0  0  0  0  0  0  0  0  0  0  0  0
    5.3847    0.2730   -0.4854 H   0  0  0  0  0  0  0  0  0  0  0  0
  1  2  3  0
  2  3  1  0
  3  4  1  0
  4  5  3  0
  3  6  2  3
  6  7  1  0
  7  8  2  0
  8  9  1  0
  9 10  2  0
 10 11  1  0
 11 12  1  0
 12 13  1  0
 13 14  1  0
 14 15  1  0
 15 16  1  0
 16 17  1  0
 10 18  1  0
 18 19  1  0
 19 20  1  0
 20 21  1  0
 21 22  1  0
 22  6  1  0
 20  8  1  0
 17 11  1  0
  7 23  1  0
  9 24  1  0
 12 25  1  0
 12 26  1  0
 13 27  1  0
 13 28  1  0
 14 29  1  0
 14 30  1  0
 15 31  1  0
 15 32  1  0
 16 33  1  0
 16 34  1  0
 17 35  1  0
 17 36  1  0
 18 37  1  0
 18 38  1  0
 19 39  1  0
 19 40  1  0
 20 41  1  0
 21 42  1  0
 21 43  1  0
 22 44  1  0
 22 45  1  0
M  END
$$$$
