
     RDKit          3D

 49 52  0  0  0  0  0  0  0  0999 V2000
    6.1404   -1.9293    0.9343 C   0  0  0  0  0  0  0  0  0  0  0  0
    6.3182   -0.5555    0.3549 C   0  0  0  0  0  0  0  0  0  0  0  0
    7.3904   -0.2862   -0.5092 C   0  0  0  0  0  0  0  0  0  0  0  0
    7.5594    0.9919   -1.0442 C   0  0  0  0  0  0  0  0  0  0  0  0
    8.8805    1.3062   -2.1018 Cl  0  0  0  0  0  0  0  0  0  0  0  0
    6.6727    2.0172   -0.7242 C   0  0  0  0  0  0  0  0  0  0  0  0
    5.6028    1.7618    0.1342 C   0  0  0  0  0  0  0  0  0  0  0  0
    5.4150    0.4770    0.6561 C   0  0  0  0  0  0  0  0  0  0  0  0
    4.3976    0.2094    1.5424 O   0  0  0  0  0  0  0  0  0  0  0  0
    3.1252    0.4778    1.2344 C   0  0  0  0  0  0  0  0  0  0  0  0
    2.7173    0.8994    0.0559 N   0  0  0  0  0  0  0  0  0  0  0  0
    1.3464    1.0544    0.0685 C   0  0  0  0  0  0  0  0  0  0  0  0
    0.7156    0.7420    1.2561 C   0  0  0  0  0  0  0  0  0  0  0  0
   -0.7414    0.8053    1.5969 C   0  0  0  0  0  0  0  0  0  0  0  0
   -1.3353   -0.5249    1.8011 N   0  0  0  0  0  0  0  0  0  0  0  0
   -1.4201   -1.3275    0.5578 C   0  0  0  0  0  0  0  0  0  0  0  0
   -2.4464   -0.8249   -0.4849 C   0  0  0  0  0  0  0  0  0  0  0  0
   -3.7838   -0.6672    0.1203 N   0  0  0  0  0  0  0  0  0  0  0  0
   -4.8672   -0.3932   -0.7314 C   0  0  0  0  0  0  0  0  0  0  0  0
   -4.7183   -0.0079   -2.0730 C   0  0  0  0  0  0  0  0  0  0  0  0
   -5.8254    0.2490   -2.8922 C   0  0  0  0  0  0  0  0  0  0  0  0
   -7.1144    0.1129   -2.3902 C   0  0  0  0  0  0  0  0  0  0  0  0
   -7.2947   -0.2878   -1.0723 C   0  0  0  0  0  0  0  0  0  0  0  0
   -6.1838   -0.5407   -0.2598 C   0  0  0  0  0  0  0  0  0  0  0  0
   -3.7836    0.1098    1.3810 C   0  0  0  0  0  0  0  0  0  0  0  0
   -2.7033   -0.4149    2.3591 C   0  0  0  0  0  0  0  0  0  0  0  0
    1.8931    0.2547    2.4068 S   0  0  0  0  0  0  0  0  0  0  0  0
    6.1716   -1.8867    2.0278 H   0  0  0  0  0  0  0  0  0  0  0  0
    6.9331   -2.6097    0.6059 H   0  0  0  0  0  0  0  0  0  0  0  0
    5.1832   -2.3537    0.6146 H   0  0  0  0  0  0  0  0  0  0  0  0
    8.0967   -1.0724   -0.7651 H   0  0  0  0  0  0  0  0  0  0  0  0
    6.8073    3.0133   -1.1361 H   0  0  0  0  0  0  0  0  0  0  0  0
    4.9162    2.5649    0.3888 H   0  0  0  0  0  0  0  0  0  0  0  0
    0.8497    1.3987   -0.8308 H   0  0  0  0  0  0  0  0  0  0  0  0
   -0.8340    1.3898    2.5226 H   0  0  0  0  0  0  0  0  0  0  0  0
   -1.2720    1.3780    0.8270 H   0  0  0  0  0  0  0  0  0  0  0  0
   -0.4354   -1.4196    0.0857 H   0  0  0  0  0  0  0  0  0  0  0  0
   -1.6947   -2.3519    0.8448 H   0  0  0  0  0  0  0  0  0  0  0  0
   -2.4863   -1.5630   -1.2955 H   0  0  0  0  0  0  0  0  0  0  0  0
   -2.1015    0.1270   -0.9064 H   0  0  0  0  0  0  0  0  0  0  0  0
   -3.7356    0.1177   -2.5158 H   0  0  0  0  0  0  0  0  0  0  0  0
   -5.6741    0.5534   -3.9244 H   0  0  0  0  0  0  0  0  0  0  0  0
   -7.9735    0.3075   -3.0259 H   0  0  0  0  0  0  0  0  0  0  0  0
   -8.2970   -0.4173   -0.6733 H   0  0  0  0  0  0  0  0  0  0  0  0
   -6.3627   -0.8932    0.7526 H   0  0  0  0  0  0  0  0  0  0  0  0
   -3.6057    1.1697    1.1594 H   0  0  0  0  0  0  0  0  0  0  0  0
   -4.7460    0.0426    1.8997 H   0  0  0  0  0  0  0  0  0  0  0  0
   -2.6920    0.2103    3.2605 H   0  0  0  0  0  0  0  0  0  0  0  0
   -3.0043   -1.4142    2.7016 H   0  0  0  0  0  0  0  0  0  0  0  0
  1  2  1  0
  2  3  2  0
  3  4  1  0
  4  5  1  0
  4  6  2  0
  6  7  1  0
  7  8  2  0
  8  9  1  0
  9 10  1  0
 10 11  2  0
 11 12  1  0
 12 13  2  0
 13 14  1  0
 14 15  1  0
 15 16  1  0
 16 17  1  0
 17 18  1  0
 18 19  1  0
 19 20  2  0
 20 21  1  0
 21 22  2  0
 22 23  1  0
 23 24  2  0
 18 25  1  0
 25 26  1  0
 13 27  1  0
  8  2  1  0
 27 10  1  0
 26 15  1  0
 24 19  1  0
  1 28  1  0
  1 29  1  0
  1 30  1  0
  3 31  1  0
  6 32  1  0
  7 33  1  0
 12 34  1  0
 14 35  1  0
 14 36  1  0
 16 37  1  0
 16 38  1  0
 17 39  1  0
 17 40  1  0
 20 41  1  0
 21 42  1  0
 22 43  1  0
 23 44  1  0
 24 45  1  0
 25 46  1  0
 25 47  1  0
 26 48  1  0
 26 49  1  0
M  END
$$$$
