
     RDKit          3D

 53 57  0  0  0  0  0  0  0  0999 V2000
    7.9834    0.8040    1.4059 C   0  0  0  0  0  0  0  0  0  0  0  0
    7.3895    0.4216    0.1716 O   0  0  0  0  0  0  0  0  0  0  0  0
    6.0240    0.3973    0.1258 C   0  0  0  0  0  0  0  0  0  0  0  0
    5.4850    0.0369   -1.1073 C   0  0  0  0  0  0  0  0  0  0  0  0
    4.0987   -0.0286   -1.2958 C   0  0  0  0  0  0  0  0  0  0  0  0
    3.2179    0.2645   -0.2430 C   0  0  0  0  0  0  0  0  0  0  0  0
    1.7953    0.1966   -0.4432 N   0  0  0  0  0  0  0  0  0  0  0  0
    1.1772    0.0880   -1.6789 C   0  0  0  0  0  0  0  0  0  0  0  0
   -0.1905    0.0599   -1.5143 C   0  0  0  0  0  0  0  0  0  0  0  0
   -1.0940   -0.0045   -2.6451 C   0  0  0  0  0  0  0  0  0  0  0  0
   -1.1505   -1.1552   -3.4393 C   0  0  0  0  0  0  0  0  0  0  0  0
   -2.0368   -1.2190   -4.5160 C   0  0  0  0  0  0  0  0  0  0  0  0
   -2.8670   -0.1352   -4.8024 C   0  0  0  0  0  0  0  0  0  0  0  0
   -2.8120    1.0145   -4.0153 C   0  0  0  0  0  0  0  0  0  0  0  0
   -1.9264    1.0819   -2.9387 C   0  0  0  0  0  0  0  0  0  0  0  0
   -0.4560    0.1311   -0.1180 C   0  0  0  0  0  0  0  0  0  0  0  0
   -1.6148    0.1155    0.6958 C   0  0  0  0  0  0  0  0  0  0  0  0
   -2.9070    0.0019    0.1410 N   0  0  0  0  0  0  0  0  0  0  0  0
   -4.0667   -0.3453    0.8443 N   0  0  0  0  0  0  0  0  0  0  0  0
   -4.0918   -1.7012    1.3944 C   0  0  0  0  0  0  0  0  0  0  0  0
   -3.8569   -1.7927    2.9071 C   0  0  0  0  0  0  0  0  0  0  0  0
   -4.6940   -0.8750    3.6217 O   0  0  0  0  0  0  0  0  0  0  0  0
   -4.3786    0.4678    3.2298 C   0  0  0  0  0  0  0  0  0  0  0  0
   -4.6000    0.6931    1.7271 C   0  0  0  0  0  0  0  0  0  0  0  0
   -1.4413    0.2240    2.0340 N   0  0  0  0  0  0  0  0  0  0  0  0
   -0.2004    0.3098    2.5297 C   0  0  0  0  0  0  0  0  0  0  0  0
    0.9513    0.3087    1.8551 N   0  0  0  0  0  0  0  0  0  0  0  0
    0.7814    0.2278    0.5204 C   0  0  0  0  0  0  0  0  0  0  0  0
    3.7692    0.6261    0.9929 C   0  0  0  0  0  0  0  0  0  0  0  0
    5.1596    0.6925    1.1752 C   0  0  0  0  0  0  0  0  0  0  0  0
    9.0695    0.7755    1.2773 H   0  0  0  0  0  0  0  0  0  0  0  0
    7.7244    0.1007    2.2040 H   0  0  0  0  0  0  0  0  0  0  0  0
    7.7069    1.8283    1.6759 H   0  0  0  0  0  0  0  0  0  0  0  0
    6.1508   -0.2007   -1.9338 H   0  0  0  0  0  0  0  0  0  0  0  0
    3.7540   -0.3377   -2.2772 H   0  0  0  0  0  0  0  0  0  0  0  0
    1.7462    0.0811   -2.5973 H   0  0  0  0  0  0  0  0  0  0  0  0
   -0.5126   -2.0090   -3.2223 H   0  0  0  0  0  0  0  0  0  0  0  0
   -2.0807   -2.1146   -5.1312 H   0  0  0  0  0  0  0  0  0  0  0  0
   -3.5573   -0.1862   -5.6409 H   0  0  0  0  0  0  0  0  0  0  0  0
   -3.4585    1.8592   -4.2404 H   0  0  0  0  0  0  0  0  0  0  0  0
   -1.8924    1.9853   -2.3330 H   0  0  0  0  0  0  0  0  0  0  0  0
   -2.8897   -0.2947   -0.8332 H   0  0  0  0  0  0  0  0  0  0  0  0
   -5.0998   -2.0894    1.1981 H   0  0  0  0  0  0  0  0  0  0  0  0
   -3.4051   -2.3717    0.8633 H   0  0  0  0  0  0  0  0  0  0  0  0
   -2.8107   -1.6192    3.1756 H   0  0  0  0  0  0  0  0  0  0  0  0
   -4.1118   -2.8001    3.2529 H   0  0  0  0  0  0  0  0  0  0  0  0
   -5.0405    1.1327    3.7951 H   0  0  0  0  0  0  0  0  0  0  0  0
   -3.3572    0.7035    3.5410 H   0  0  0  0  0  0  0  0  0  0  0  0
   -5.6852    0.6967    1.5611 H   0  0  0  0  0  0  0  0  0  0  0  0
   -4.2543    1.6939    1.4403 H   0  0  0  0  0  0  0  0  0  0  0  0
   -0.1243    0.3864    3.6099 H   0  0  0  0  0  0  0  0  0  0  0  0
    3.1540    0.8906    1.8463 H   0  0  0  0  0  0  0  0  0  0  0  0
    5.5269    0.9825    2.1542 H   0  0  0  0  0  0  0  0  0  0  0  0
  1  2  1  0
  2  3  1  0
  3  4  2  0
  4  5  1  0
  5  6  2  0
  6  7  1  0
  7  8  1  0
  8  9  2  0
  9 10  1  0
 10 11  2  0
 11 12  1  0
 12 13  2  0
 13 14  1  0
 14 15  2  0
  9 16  1  0
 16 17  2  0
 17 18  1  0
 18 19  1  0
 19 20  1  0
 20 21  1  0
 21 22  1  0
 22 23  1  0
 23 24  1  0
 17 25  1  0
 25 26  2  0
 26 27  1  0
 27 28  2  0
  6 29  1  0
 29 30  2  0
 30  3  1  0
 28  7  1  0
 15 10  1  0
 28 16  1  0
 24 19  1  0
  1 31  1  0
  1 32  1  0
  1 33  1  0
  4 34  1  0
  5 35  1  0
  8 36  1  0
 11 37  1  0
 12 38  1  0
 13 39  1  0
 14 40  1  0
 15 41  1  0
 18 42  1  0
 20 43  1  0
 20 44  1  0
 21 45  1  0
 21 46  1  0
 23 47  1  0
 23 48  1  0
 24 49  1  0
 24 50  1  0
 26 51  1  0
 29 52  1  0
 30 53  1  0
M  END
$$$$
