
     RDKit          3D

 50 53  0  0  0  0  0  0  0  0999 V2000
    7.1087    1.7306   -1.2516 C   0  0  0  0  0  0  0  0  0  0  0  0
    5.9813    0.8352   -0.8434 C   0  0  0  0  0  0  0  0  0  0  0  0
    4.6614    1.1825   -1.1262 C   0  0  0  0  0  0  0  0  0  0  0  0
    3.6019    0.4120   -0.7813 N   0  0  0  0  0  0  0  0  0  0  0  0
    3.9252   -0.7439   -0.1324 C   0  0  0  0  0  0  0  0  0  0  0  0
    2.8008   -1.6318    0.2736 C   0  0  0  0  0  0  0  0  0  0  0  0
    2.9961   -2.6725    0.8894 O   0  0  0  0  0  0  0  0  0  0  0  0
    1.5557   -1.1748   -0.0945 N   0  0  0  0  0  0  0  0  0  0  0  0
    0.3323   -1.8434    0.2857 C   0  0  0  0  0  0  0  0  0  0  0  0
   -0.0391   -1.5939    1.7674 C   0  0  0  0  0  0  0  0  0  0  0  0
   -0.7706   -0.2430    2.0498 C   0  0  0  0  0  0  0  0  0  0  0  0
    0.1573    0.9632    1.8004 C   0  0  0  0  0  0  0  0  0  0  0  0
   -1.1782   -0.2153    3.5373 C   0  0  0  0  0  0  0  0  0  0  0  0
   -2.0587   -0.1151    1.1778 C   0  0  0  0  0  0  0  0  0  0  0  0
   -1.8300   -0.5917   -0.2187 C   0  0  0  0  0  0  0  0  0  0  0  0
   -0.7503   -1.3622   -0.6142 C   0  0  0  0  0  0  0  0  0  0  0  0
   -0.9129   -1.5251   -1.9929 C   0  0  0  0  0  0  0  0  0  0  0  0
   -1.9941   -0.9012   -2.4512 N   0  0  0  0  0  0  0  0  0  0  0  0
   -2.6077   -0.3703   -1.3508 N   0  0  0  0  0  0  0  0  0  0  0  0
   -3.8697    0.2834   -1.5173 C   0  0  0  0  0  0  0  0  0  0  0  0
   -4.3177    0.5615   -2.8224 C   0  0  0  0  0  0  0  0  0  0  0  0
   -5.5411    1.2002   -3.0413 C   0  0  0  0  0  0  0  0  0  0  0  0
   -6.3393    1.5617   -1.9613 C   0  0  0  0  0  0  0  0  0  0  0  0
   -5.9174    1.2771   -0.6653 C   0  0  0  0  0  0  0  0  0  0  0  0
   -4.6915    0.6378   -0.4417 C   0  0  0  0  0  0  0  0  0  0  0  0
    5.2327   -1.0988    0.1551 C   0  0  0  0  0  0  0  0  0  0  0  0
    6.2867   -0.3167   -0.1941 N   0  0  0  0  0  0  0  0  0  0  0  0
    7.1168    1.8574   -2.3386 H   0  0  0  0  0  0  0  0  0  0  0  0
    8.0717    1.3059   -0.9507 H   0  0  0  0  0  0  0  0  0  0  0  0
    7.0049    2.7107   -0.7760 H   0  0  0  0  0  0  0  0  0  0  0  0
    4.4188    2.1043   -1.6459 H   0  0  0  0  0  0  0  0  0  0  0  0
    1.5220   -0.2706   -0.5591 H   0  0  0  0  0  0  0  0  0  0  0  0
    0.4856   -2.9203    0.1433 H   0  0  0  0  0  0  0  0  0  0  0  0
   -0.7125   -2.4067    2.0769 H   0  0  0  0  0  0  0  0  0  0  0  0
    0.8507   -1.6794    2.4040 H   0  0  0  0  0  0  0  0  0  0  0  0
   -0.3010    1.8906    2.1637 H   0  0  0  0  0  0  0  0  0  0  0  0
    1.1121    0.8409    2.3237 H   0  0  0  0  0  0  0  0  0  0  0  0
    0.3692    1.1148    0.7386 H   0  0  0  0  0  0  0  0  0  0  0  0
   -1.8298   -1.0602    3.7869 H   0  0  0  0  0  0  0  0  0  0  0  0
   -1.7205    0.7050    3.7822 H   0  0  0  0  0  0  0  0  0  0  0  0
   -0.2988   -0.2699    4.1888 H   0  0  0  0  0  0  0  0  0  0  0  0
   -2.3911    0.9289    1.1852 H   0  0  0  0  0  0  0  0  0  0  0  0
   -2.8507   -0.7332    1.6191 H   0  0  0  0  0  0  0  0  0  0  0  0
   -0.2761   -2.0547   -2.6904 H   0  0  0  0  0  0  0  0  0  0  0  0
   -3.7153    0.2924   -3.6890 H   0  0  0  0  0  0  0  0  0  0  0  0
   -5.8666    1.4114   -4.0566 H   0  0  0  0  0  0  0  0  0  0  0  0
   -7.2926    2.0558   -2.1295 H   0  0  0  0  0  0  0  0  0  0  0  0
   -6.5499    1.5439    0.1783 H   0  0  0  0  0  0  0  0  0  0  0  0
   -4.4446    0.4076    0.5853 H   0  0  0  0  0  0  0  0  0  0  0  0
    5.4758   -2.0201    0.6737 H   0  0  0  0  0  0  0  0  0  0  0  0
  1  2  1  0
  2  3  2  0
  3  4  1  0
  4  5  2  0
  5  6  1  0
  6  7  2  0
  6  8  1  0
  8  9  1  0
  9 10  1  0
 10 11  1  0
 11 12  1  0
 11 13  1  0
 11 14  1  0
 14 15  1  0
 15 16  2  0
 16 17  1  0
 17 18  2  0
 18 19  1  0
 19 20  1  0
 20 21  2  0
 21 22  1  0
 22 23  2  0
 23 24  1  0
 24 25  2  0
  5 26  1  0
 26 27  2  0
 27  2  1  0
 16  9  1  0
 25 20  1  0
 19 15  1  0
  1 28  1  0
  1 29  1  0
  1 30  1  0
  3 31  1  0
  8 32  1  0
  9 33  1  0
 10 34  1  0
 10 35  1  0
 12 36  1  0
 12 37  1  0
 12 38  1  0
 13 39  1  0
 13 40  1  0
 13 41  1  0
 14 42  1  0
 14 43  1  0
 17 44  1  0
 21 45  1  0
 22 46  1  0
 23 47  1  0
 24 48  1  0
 25 49  1  0
 26 50  1  0
M  END
$$$$
