
     RDKit          3D

 43 46  0  0  0  0  0  0  0  0999 V2000
   -3.3041    4.9069   -1.3552 N   0  0  0  0  0  0  0  0  0  0  0  0
   -2.8708    4.5077   -2.3545 C   0  0  0  0  0  0  0  0  0  0  0  0
   -2.2959    4.0249   -3.6153 C   0  0  0  0  0  0  0  0  0  0  0  0
   -0.8281    3.6597   -3.4428 C   0  0  0  0  0  0  0  0  0  0  0  0
   -0.6430    2.4728   -2.6289 N   0  0  0  0  0  0  0  0  0  0  0  0
   -0.0992    2.4105   -1.3819 C   0  0  0  0  0  0  0  0  0  0  0  0
   -0.1276    1.0820   -1.0209 C   0  0  0  0  0  0  0  0  0  0  0  0
    0.3510    0.5137    0.2035 C   0  0  0  0  0  0  0  0  0  0  0  0
    1.4103    0.8865    0.9585 C   0  0  0  0  0  0  0  0  0  0  0  0
    2.2618    1.9668    0.5712 C   0  0  0  0  0  0  0  0  0  0  0  0
    2.9532    2.8473    0.2611 N   0  0  0  0  0  0  0  0  0  0  0  0
    1.6762    0.1308    2.1585 C   0  0  0  0  0  0  0  0  0  0  0  0
    0.9750   -0.9067    2.5868 N   0  0  0  0  0  0  0  0  0  0  0  0
    1.4838   -1.4141    3.7697 C   0  0  0  0  0  0  0  0  0  0  0  0
    0.9718   -2.5153    4.4852 C   0  0  0  0  0  0  0  0  0  0  0  0
    1.5897   -2.9204    5.6728 C   0  0  0  0  0  0  0  0  0  0  0  0
    2.7063   -2.2428    6.1518 C   0  0  0  0  0  0  0  0  0  0  0  0
    3.2317   -1.1477    5.4588 C   0  0  0  0  0  0  0  0  0  0  0  0
    2.6020   -0.7512    4.2673 C   0  0  0  0  0  0  0  0  0  0  0  0
    3.0041    0.5354    3.2058 S   0  0  0  0  0  0  0  0  0  0  0  0
   -0.7616    0.4162   -2.1177 C   0  0  0  0  0  0  0  0  0  0  0  0
   -1.0838   -0.9990   -2.2745 C   0  0  0  0  0  0  0  0  0  0  0  0
   -0.5773   -1.7118   -3.3719 C   0  0  0  0  0  0  0  0  0  0  0  0
   -0.8780   -3.0659   -3.5316 C   0  0  0  0  0  0  0  0  0  0  0  0
   -1.6901   -3.7009   -2.5993 C   0  0  0  0  0  0  0  0  0  0  0  0
   -1.9795   -4.9996   -2.7527 F   0  0  0  0  0  0  0  0  0  0  0  0
   -2.2122   -3.0075   -1.5130 C   0  0  0  0  0  0  0  0  0  0  0  0
   -1.9129   -1.6527   -1.3512 C   0  0  0  0  0  0  0  0  0  0  0  0
   -1.0377    1.2836   -3.1058 N   0  0  0  0  0  0  0  0  0  0  0  0
   -2.8745    3.1712   -3.9862 H   0  0  0  0  0  0  0  0  0  0  0  0
   -2.3776    4.8167   -4.3690 H   0  0  0  0  0  0  0  0  0  0  0  0
   -0.2601    4.4774   -2.9835 H   0  0  0  0  0  0  0  0  0  0  0  0
   -0.3726    3.4438   -4.4165 H   0  0  0  0  0  0  0  0  0  0  0  0
    0.2458    3.3028   -0.8765 H   0  0  0  0  0  0  0  0  0  0  0  0
   -0.2153   -0.3542    0.5420 H   0  0  0  0  0  0  0  0  0  0  0  0
    0.1005   -3.0418    4.1084 H   0  0  0  0  0  0  0  0  0  0  0  0
    1.1926   -3.7705    6.2229 H   0  0  0  0  0  0  0  0  0  0  0  0
    3.1781   -2.5676    7.0771 H   0  0  0  0  0  0  0  0  0  0  0  0
    4.1034   -0.6197    5.8338 H   0  0  0  0  0  0  0  0  0  0  0  0
    0.0505   -1.2096   -4.1052 H   0  0  0  0  0  0  0  0  0  0  0  0
   -0.4886   -3.6244   -4.3766 H   0  0  0  0  0  0  0  0  0  0  0  0
   -2.8534   -3.5225   -0.8048 H   0  0  0  0  0  0  0  0  0  0  0  0
   -2.3437   -1.1107   -0.5127 H   0  0  0  0  0  0  0  0  0  0  0  0
  1  2  3  0
  2  3  1  0
  3  4  1  0
  4  5  1  0
  5  6  1  0
  6  7  2  0
  7  8  1  0
  8  9  2  3
  9 10  1  0
 10 11  3  0
  9 12  1  0
 12 13  2  0
 13 14  1  0
 14 15  2  0
 15 16  1  0
 16 17  2  0
 17 18  1  0
 18 19  2  0
 19 20  1  0
  7 21  1  0
 21 22  1  0
 22 23  2  0
 23 24  1  0
 24 25  2  0
 25 26  1  0
 25 27  1  0
 27 28  2  0
 21 29  2  0
 29  5  1  0
 20 12  1  0
 28 22  1  0
 19 14  1  0
  3 30  1  0
  3 31  1  0
  4 32  1  0
  4 33  1  0
  6 34  1  0
  8 35  1  0
 15 36  1  0
 16 37  1  0
 17 38  1  0
 18 39  1  0
 23 40  1  0
 24 41  1  0
 27 42  1  0
 28 43  1  0
M  END
$$$$
