
     RDKit          3D

 37 40  0  0  0  0  0  0  0  0999 V2000
    5.2359   -0.9672    0.2818 C   0  0  0  0  0  0  0  0  0  0  0  0
    5.0177    0.3699   -0.1493 O   0  0  0  0  0  0  0  0  0  0  0  0
    3.7163    0.7712   -0.2961 C   0  0  0  0  0  0  0  0  0  0  0  0
    3.5652    2.0839   -0.7368 C   0  0  0  0  0  0  0  0  0  0  0  0
    2.3018    2.6478   -0.9231 C   0  0  0  0  0  0  0  0  0  0  0  0
    1.1899    1.8420   -0.6582 C   0  0  0  0  0  0  0  0  0  0  0  0
   -0.1434    2.1414   -0.7370 N   0  0  0  0  0  0  0  0  0  0  0  0
   -0.9299    1.0731   -0.3634 C   0  0  0  0  0  0  0  0  0  0  0  0
   -2.3342    0.9957   -0.2689 C   0  0  0  0  0  0  0  0  0  0  0  0
   -3.2183    2.1734   -0.5963 C   0  0  0  0  0  0  0  0  0  0  0  0
   -2.8872   -0.2362    0.1779 C   0  0  0  0  0  0  0  0  0  0  0  0
   -4.2777   -0.4012    0.3548 C   0  0  0  0  0  0  0  0  0  0  0  0
   -4.7897   -1.6066    0.8022 C   0  0  0  0  0  0  0  0  0  0  0  0
   -4.0266   -2.6668    1.0932 N   0  0  0  0  0  0  0  0  0  0  0  0
   -2.6937   -2.5032    0.9175 C   0  0  0  0  0  0  0  0  0  0  0  0
   -2.0463   -1.3379    0.4590 C   0  0  0  0  0  0  0  0  0  0  0  0
   -0.6253   -1.2439    0.2818 C   0  0  0  0  0  0  0  0  0  0  0  0
    0.2425   -2.4589    0.5091 C   0  0  0  0  0  0  0  0  0  0  0  0
   -0.0658    0.0147   -0.0809 C   0  0  0  0  0  0  0  0  0  0  0  0
    1.2838    0.5197   -0.2345 C   0  0  0  0  0  0  0  0  0  0  0  0
    2.5835   -0.0128   -0.0389 C   0  0  0  0  0  0  0  0  0  0  0  0
    4.8258   -1.6860   -0.4354 H   0  0  0  0  0  0  0  0  0  0  0  0
    4.8269   -1.1301    1.2844 H   0  0  0  0  0  0  0  0  0  0  0  0
    6.3168   -1.1294    0.3335 H   0  0  0  0  0  0  0  0  0  0  0  0
    4.4500    2.6858   -0.9330 H   0  0  0  0  0  0  0  0  0  0  0  0
    2.1971    3.6751   -1.2564 H   0  0  0  0  0  0  0  0  0  0  0  0
   -0.4985    3.0449   -1.0097 H   0  0  0  0  0  0  0  0  0  0  0  0
   -3.7610    2.4993    0.2970 H   0  0  0  0  0  0  0  0  0  0  0  0
   -2.6490    3.0320   -0.9622 H   0  0  0  0  0  0  0  0  0  0  0  0
   -3.9322    1.9058   -1.3823 H   0  0  0  0  0  0  0  0  0  0  0  0
   -4.9790    0.4014    0.1537 H   0  0  0  0  0  0  0  0  0  0  0  0
   -5.8574   -1.7448    0.9433 H   0  0  0  0  0  0  0  0  0  0  0  0
   -2.1331   -3.3938    1.1872 H   0  0  0  0  0  0  0  0  0  0  0  0
    1.1544   -2.4124   -0.0888 H   0  0  0  0  0  0  0  0  0  0  0  0
   -0.2505   -3.3788    0.1811 H   0  0  0  0  0  0  0  0  0  0  0  0
    0.5056   -2.5426    1.5674 H   0  0  0  0  0  0  0  0  0  0  0  0
    2.6858   -1.0246    0.3262 H   0  0  0  0  0  0  0  0  0  0  0  0
  1  2  1  0
  2  3  1  0
  3  4  2  0
  4  5  1  0
  5  6  2  0
  6  7  1  0
  7  8  1  0
  8  9  2  0
  9 10  1  0
  9 11  1  0
 11 12  2  0
 12 13  1  0
 13 14  2  0
 14 15  1  0
 15 16  2  0
 16 17  1  0
 17 18  1  0
 17 19  2  0
 19 20  1  0
 20 21  2  0
 21  3  1  0
 20  6  1  0
 19  8  1  0
 16 11  1  0
  1 22  1  0
  1 23  1  0
  1 24  1  0
  4 25  1  0
  5 26  1  0
  7 27  1  0
 10 28  1  0
 10 29  1  0
 10 30  1  0
 12 31  1  0
 13 32  1  0
 15 33  1  0
 18 34  1  0
 18 35  1  0
 18 36  1  0
 21 37  1  0
M  END
$$$$
