
     RDKit          3D

 74 78  0  0  0  0  0  0  0  0999 V2000
    2.7412    6.4408    0.9920 C   0  0  0  0  0  0  0  0  0  0  0  0
    2.1585    5.1051    0.6343 C   0  0  0  0  0  0  0  0  0  0  0  0
    2.8512    3.9281    0.9308 C   0  0  0  0  0  0  0  0  0  0  0  0
    2.3137    2.6657    0.6258 C   0  0  0  0  0  0  0  0  0  0  0  0
    3.1665    1.4651    0.9458 C   0  0  0  0  0  0  0  0  0  0  0  0
    1.0429    2.5964    0.0160 C   0  0  0  0  0  0  0  0  0  0  0  0
    0.4726    1.3393   -0.3326 N   0  0  0  0  0  0  0  0  0  0  0  0
   -0.0744    0.4992    0.6330 C   0  0  0  0  0  0  0  0  0  0  0  0
   -0.5204   -0.6174    0.3432 O   0  0  0  0  0  0  0  0  0  0  0  0
   -0.2237    1.0548    2.0582 C   0  0  0  0  0  0  0  0  0  0  0  0
   -0.7042    0.0090    2.9653 N   0  0  0  0  0  0  0  0  0  0  0  0
   -1.9889   -0.5763    2.9103 C   0  0  0  0  0  0  0  0  0  0  0  0
   -2.9570   -0.1004    2.3481 O   0  0  0  0  0  0  0  0  0  0  0  0
   -1.9655   -1.8611    3.6342 C   0  0  0  0  0  0  0  0  0  0  0  0
   -3.0430   -2.7077    3.8416 C   0  0  0  0  0  0  0  0  0  0  0  0
   -2.8207   -3.8920    4.5537 C   0  0  0  0  0  0  0  0  0  0  0  0
   -1.5391   -4.2117    5.0410 C   0  0  0  0  0  0  0  0  0  0  0  0
   -0.4584   -3.3539    4.8247 C   0  0  0  0  0  0  0  0  0  0  0  0
   -0.7064   -2.1915    4.1187 C   0  0  0  0  0  0  0  0  0  0  0  0
    0.4491   -0.9587    3.7125 S   0  0  0  0  0  6  0  0  0  0  0  0
    0.8799   -0.3061    4.9261 O   0  0  0  0  0  0  0  0  0  0  0  0
    1.3662   -1.4774    2.7270 O   0  0  0  0  0  0  0  0  0  0  0  0
    0.6304    0.9375   -1.7630 C   0  0  0  0  0  0  0  0  0  0  0  0
   -0.6740    0.7033   -2.5842 C   0  0  0  0  0  0  0  0  0  0  0  0
   -0.7301    1.0031   -3.7782 O   0  0  0  0  0  0  0  0  0  0  0  0
   -1.7266    0.1029   -1.9301 N   0  0  0  0  0  0  0  0  0  0  0  0
   -2.9573   -0.2824   -2.5995 C   0  0  0  0  0  0  0  0  0  0  0  0
   -3.0277   -1.7666   -2.9843 C   0  0  0  0  0  0  0  0  0  0  0  0
   -2.9232   -2.7443   -1.8244 C   0  0  0  0  0  0  0  0  0  0  0  0
   -2.5206   -4.0106   -2.5401 C   0  0  0  0  0  0  0  0  0  0  0  0
   -1.5955   -3.4905   -3.6219 C   0  0  0  0  0  0  0  0  0  0  0  0
   -1.9903   -2.1413   -3.9058 O   0  0  0  0  0  0  0  0  0  0  0  0
    1.6935   -0.1382   -1.9861 C   0  0  0  0  0  0  0  0  0  0  0  0
    1.4193   -1.5066   -1.8355 C   0  0  0  0  0  0  0  0  0  0  0  0
    2.4201   -2.4619   -2.0276 C   0  0  0  0  0  0  0  0  0  0  0  0
    3.7000   -2.0555   -2.3779 C   0  0  0  0  0  0  0  0  0  0  0  0
    4.6589   -2.9730   -2.5619 F   0  0  0  0  0  0  0  0  0  0  0  0
    4.0000   -0.7105   -2.5407 C   0  0  0  0  0  0  0  0  0  0  0  0
    3.0014    0.2453   -2.3448 C   0  0  0  0  0  0  0  0  0  0  0  0
    0.3194    3.7760   -0.2627 C   0  0  0  0  0  0  0  0  0  0  0  0
   -1.0410    3.7570   -0.9082 C   0  0  0  0  0  0  0  0  0  0  0  0
    0.8934    5.0189    0.0473 C   0  0  0  0  0  0  0  0  0  0  0  0
    2.4366    6.7231    2.0046 H   0  0  0  0  0  0  0  0  0  0  0  0
    2.4049    7.2132    0.2922 H   0  0  0  0  0  0  0  0  0  0  0  0
    3.8351    6.4150    0.9443 H   0  0  0  0  0  0  0  0  0  0  0  0
    3.8333    3.9915    1.3993 H   0  0  0  0  0  0  0  0  0  0  0  0
    2.6460    0.5157    0.8093 H   0  0  0  0  0  0  0  0  0  0  0  0
    4.0541    1.4593    0.3054 H   0  0  0  0  0  0  0  0  0  0  0  0
    3.4865    1.5045    1.9926 H   0  0  0  0  0  0  0  0  0  0  0  0
   -0.9489    1.8754    2.0447 H   0  0  0  0  0  0  0  0  0  0  0  0
    0.7222    1.4456    2.4381 H   0  0  0  0  0  0  0  0  0  0  0  0
   -4.0304   -2.4591    3.4638 H   0  0  0  0  0  0  0  0  0  0  0  0
   -3.6483   -4.5767    4.7334 H   0  0  0  0  0  0  0  0  0  0  0  0
   -1.3912   -5.1394    5.5918 H   0  0  0  0  0  0  0  0  0  0  0  0
    0.5335   -3.5919    5.1956 H   0  0  0  0  0  0  0  0  0  0  0  0
    1.0247    1.8367   -2.2645 H   0  0  0  0  0  0  0  0  0  0  0  0
   -1.5338   -0.3187   -1.0231 H   0  0  0  0  0  0  0  0  0  0  0  0
   -3.7751   -0.0408   -1.9125 H   0  0  0  0  0  0  0  0  0  0  0  0
   -3.0739    0.3321   -3.4989 H   0  0  0  0  0  0  0  0  0  0  0  0
   -3.9792   -1.9341   -3.5060 H   0  0  0  0  0  0  0  0  0  0  0  0
   -2.1313   -2.4620   -1.1233 H   0  0  0  0  0  0  0  0  0  0  0  0
   -3.8578   -2.8422   -1.2652 H   0  0  0  0  0  0  0  0  0  0  0  0
   -3.4017   -4.4786   -2.9949 H   0  0  0  0  0  0  0  0  0  0  0  0
   -2.0414   -4.7491   -1.8918 H   0  0  0  0  0  0  0  0  0  0  0  0
   -1.6463   -4.0890   -4.5357 H   0  0  0  0  0  0  0  0  0  0  0  0
   -0.5573   -3.4704   -3.2783 H   0  0  0  0  0  0  0  0  0  0  0  0
    0.4239   -1.8487   -1.5654 H   0  0  0  0  0  0  0  0  0  0  0  0
    2.2057   -3.5184   -1.9057 H   0  0  0  0  0  0  0  0  0  0  0  0
    5.0062   -0.4142   -2.8185 H   0  0  0  0  0  0  0  0  0  0  0  0
    3.2508    1.2973   -2.4743 H   0  0  0  0  0  0  0  0  0  0  0  0
   -1.6664    2.9632   -0.4886 H   0  0  0  0  0  0  0  0  0  0  0  0
   -0.9428    3.6156   -1.9883 H   0  0  0  0  0  0  0  0  0  0  0  0
   -1.5740    4.6983   -0.7349 H   0  0  0  0  0  0  0  0  0  0  0  0
    0.3460    5.9348   -0.1727 H   0  0  0  0  0  0  0  0  0  0  0  0
  1  2  1  0
  2  3  2  0
  3  4  1  0
  4  5  1  0
  4  6  2  0
  6  7  1  0
  7  8  1  0
  8  9  2  0
  8 10  1  0
 10 11  1  0
 11 12  1  0
 12 13  2  0
 12 14  1  0
 14 15  2  0
 15 16  1  0
 16 17  2  0
 17 18  1  0
 18 19  2  0
 19 20  1  0
 20 21  2  0
 20 22  2  0
  7 23  1  0
 23 24  1  0
 24 25  2  0
 24 26  1  0
 26 27  1  0
 27 28  1  0
 28 29  1  0
 29 30  1  0
 30 31  1  0
 31 32  1  0
 23 33  1  0
 33 34  2  0
 34 35  1  0
 35 36  2  0
 36 37  1  0
 36 38  1  0
 38 39  2  0
  6 40  1  0
 40 41  1  0
 40 42  2  0
 42  2  1  0
 20 11  1  0
 32 28  1  0
 39 33  1  0
 19 14  1  0
  1 43  1  0
  1 44  1  0
  1 45  1  0
  3 46  1  0
  5 47  1  0
  5 48  1  0
  5 49  1  0
 10 50  1  0
 10 51  1  0
 15 52  1  0
 16 53  1  0
 17 54  1  0
 18 55  1  0
 23 56  1  0
 26 57  1  0
 27 58  1  0
 27 59  1  0
 28 60  1  0
 29 61  1  0
 29 62  1  0
 30 63  1  0
 30 64  1  0
 31 65  1  0
 31 66  1  0
 34 67  1  0
 35 68  1  0
 38 69  1  0
 39 70  1  0
 41 71  1  0
 41 72  1  0
 41 73  1  0
 42 74  1  0
M  END
$$$$
