
     RDKit          3D

 39 41  0  0  0  0  0  0  0  0999 V2000
   -4.0874    1.9783    0.0284 O   0  0  0  0  0  0  0  0  0  0  0  0
   -4.7004    0.9767   -0.2943 C   0  0  0  0  0  0  0  0  0  0  0  0
   -5.9500    1.0422   -0.7952 O   0  0  0  0  0  0  0  0  0  0  0  0
   -4.2246   -0.4173   -0.1545 C   0  0  0  0  0  0  0  0  0  0  0  0
   -5.1262   -1.3384    0.3108 N   0  0  0  0  0  0  0  0  0  0  0  0
   -4.6356   -2.5806    0.5210 C   0  0  0  0  0  0  0  0  0  0  0  0
   -3.3047   -2.9014    0.3055 C   0  0  0  0  0  0  0  0  0  0  0  0
   -2.4018   -1.9987   -0.1428 N   0  0  0  0  0  0  0  0  0  0  0  0
   -2.8950   -0.7409   -0.3763 C   0  0  0  0  0  0  0  0  0  0  0  0
   -1.9758    0.2227   -1.0281 C   0  0  0  0  0  0  0  0  0  0  0  0
   -2.3505    0.7225   -2.0891 O   0  0  0  0  0  0  0  0  0  0  0  0
   -0.7380    0.5038   -0.4450 N   0  0  0  0  0  0  0  0  0  0  0  0
    0.2530    1.2130   -1.2659 C   0  0  0  0  0  0  0  0  0  0  0  0
    1.2330    2.0540   -0.4287 C   0  0  0  0  0  0  0  0  0  0  0  0
    1.8521    1.2334    0.6412 N   0  0  0  0  0  0  0  0  0  0  0  0
    3.0150    0.5321    0.3133 C   0  0  0  0  0  0  0  0  0  0  0  0
    4.0798    1.1874   -0.3316 C   0  0  0  0  0  0  0  0  0  0  0  0
    5.2676    0.5283   -0.6704 C   0  0  0  0  0  0  0  0  0  0  0  0
    5.4300   -0.8144   -0.3576 C   0  0  0  0  0  0  0  0  0  0  0  0
    4.4097   -1.4861    0.3037 C   0  0  0  0  0  0  0  0  0  0  0  0
    3.2251   -0.8165    0.6404 C   0  0  0  0  0  0  0  0  0  0  0  0
    0.8282    0.6348    1.5203 C   0  0  0  0  0  0  0  0  0  0  0  0
   -0.2000   -0.2010    0.7303 C   0  0  0  0  0  0  0  0  0  0  0  0
   -6.1504    1.9996   -0.8350 H   0  0  0  0  0  0  0  0  0  0  0  0
   -5.3470   -3.3191    0.8756 H   0  0  0  0  0  0  0  0  0  0  0  0
   -2.9291   -3.9038    0.4826 H   0  0  0  0  0  0  0  0  0  0  0  0
   -0.2501    1.8621   -1.9905 H   0  0  0  0  0  0  0  0  0  0  0  0
    0.7979    0.4487   -1.8336 H   0  0  0  0  0  0  0  0  0  0  0  0
    1.9631    2.5331   -1.0878 H   0  0  0  0  0  0  0  0  0  0  0  0
    0.6789    2.8707    0.0520 H   0  0  0  0  0  0  0  0  0  0  0  0
    4.0142    2.2498   -0.5517 H   0  0  0  0  0  0  0  0  0  0  0  0
    6.0654    1.0739   -1.1669 H   0  0  0  0  0  0  0  0  0  0  0  0
    6.3501   -1.3305   -0.6159 H   0  0  0  0  0  0  0  0  0  0  0  0
    4.5297   -2.5344    0.5642 H   0  0  0  0  0  0  0  0  0  0  0  0
    2.4674   -1.3958    1.1564 H   0  0  0  0  0  0  0  0  0  0  0  0
    1.2713    0.0515    2.3354 H   0  0  0  0  0  0  0  0  0  0  0  0
    0.2938    1.4597    2.0104 H   0  0  0  0  0  0  0  0  0  0  0  0
   -1.0141   -0.4731    1.4085 H   0  0  0  0  0  0  0  0  0  0  0  0
    0.2552   -1.1262    0.3608 H   0  0  0  0  0  0  0  0  0  0  0  0
  1  2  2  0
  2  3  1  0
  2  4  1  0
  4  5  2  0
  5  6  1  0
  6  7  2  0
  7  8  1  0
  8  9  2  0
  9 10  1  0
 10 11  2  0
 10 12  1  0
 12 13  1  0
 13 14  1  0
 14 15  1  0
 15 16  1  0
 16 17  2  0
 17 18  1  0
 18 19  2  0
 19 20  1  0
 20 21  2  0
 15 22  1  0
 22 23  1  0
  9  4  1  0
 23 12  1  0
 21 16  1  0
  3 24  1  0
  6 25  1  0
  7 26  1  0
 13 27  1  0
 13 28  1  0
 14 29  1  0
 14 30  1  0
 17 31  1  0
 18 32  1  0
 19 33  1  0
 20 34  1  0
 21 35  1  0
 22 36  1  0
 22 37  1  0
 23 38  1  0
 23 39  1  0
M  END
$$$$
