
     RDKit          3D

 55 59  0  0  0  0  0  0  0  0999 V2000
   -1.5107    1.4774   -1.6875 C   0  0  0  0  0  0  0  0  0  0  0  0
   -2.3030    0.2584   -1.3043 C   0  0  0  0  0  0  0  0  0  0  0  0
   -3.6882    0.1998   -1.4509 C   0  0  0  0  0  0  0  0  0  0  0  0
   -4.5137    1.3157   -1.9398 C   0  0  0  0  0  0  0  0  0  0  0  0
   -5.2757    1.1767   -3.1132 C   0  0  0  0  0  0  0  0  0  0  0  0
   -6.0657    2.2261   -3.5899 C   0  0  0  0  0  0  0  0  0  0  0  0
   -6.1127    3.4319   -2.8935 C   0  0  0  0  0  0  0  0  0  0  0  0
   -5.3766    3.5782   -1.7204 C   0  0  0  0  0  0  0  0  0  0  0  0
   -5.4401    5.0637   -0.8533 Cl  0  0  0  0  0  0  0  0  0  0  0  0
   -4.5867    2.5323   -1.2412 C   0  0  0  0  0  0  0  0  0  0  0  0
   -4.4094   -0.9094   -1.1505 N   0  0  0  0  0  0  0  0  0  0  0  0
   -3.7965   -1.9954   -0.6576 C   0  0  0  0  0  0  0  0  0  0  0  0
   -4.5711   -3.1089   -0.3588 C   0  0  0  0  0  0  0  0  0  0  0  0
   -4.0161   -4.2767    0.1681 C   0  0  0  0  0  0  0  0  0  0  0  0
   -2.6519   -4.3387    0.4074 C   0  0  0  0  0  0  0  0  0  0  0  0
   -1.8546   -3.2338    0.1152 C   0  0  0  0  0  0  0  0  0  0  0  0
   -2.4139   -2.0466   -0.4250 C   0  0  0  0  0  0  0  0  0  0  0  0
   -1.6851   -0.8796   -0.7530 C   0  0  0  0  0  0  0  0  0  0  0  0
   -0.2298   -0.8675   -0.5202 C   0  0  0  0  0  0  0  0  0  0  0  0
    0.5779   -1.4964   -1.1787 O   0  0  0  0  0  0  0  0  0  0  0  0
    0.0188   -0.0522    0.5336 O   0  0  0  0  0  0  0  0  0  0  0  0
    1.3918    0.0012    0.9337 C   0  0  0  0  0  0  0  0  0  0  0  0
    1.7544   -1.1537    1.8725 C   0  0  0  0  0  0  0  0  0  0  0  0
    1.0297   -2.1517    1.9809 O   0  0  0  0  0  0  0  0  0  0  0  0
    2.9599   -1.0021    2.7798 C   0  0  0  0  0  0  0  0  0  0  0  0
    2.5769   -0.1767    3.9309 C   0  0  0  0  0  0  0  0  0  0  0  0
    2.3397    0.5019    4.8425 N   0  0  0  0  0  0  0  0  0  0  0  0
    4.1496   -0.4276    2.0713 C   0  0  0  0  0  0  0  0  0  0  0  0
    4.3684   -0.4293    0.7712 N   0  0  0  0  0  0  0  0  0  0  0  0
    5.5914    0.1659    0.5855 C   0  0  0  0  0  0  0  0  0  0  0  0
    6.2955    0.4219   -0.5985 C   0  0  0  0  0  0  0  0  0  0  0  0
    7.5423    1.0541   -0.5117 C   0  0  0  0  0  0  0  0  0  0  0  0
    8.0739    1.4216    0.7273 C   0  0  0  0  0  0  0  0  0  0  0  0
    7.3836    1.1721    1.9192 C   0  0  0  0  0  0  0  0  0  0  0  0
    6.1441    0.5404    1.8026 C   0  0  0  0  0  0  0  0  0  0  0  0
    5.2187    0.1451    2.7334 N   0  0  0  0  0  0  0  0  0  0  0  0
   -1.9691    2.0100   -2.5269 H   0  0  0  0  0  0  0  0  0  0  0  0
   -1.4299    2.1579   -0.8344 H   0  0  0  0  0  0  0  0  0  0  0  0
   -0.5032    1.2139   -2.0253 H   0  0  0  0  0  0  0  0  0  0  0  0
   -5.2569    0.2338   -3.6587 H   0  0  0  0  0  0  0  0  0  0  0  0
   -6.6467    2.0979   -4.4997 H   0  0  0  0  0  0  0  0  0  0  0  0
   -6.7292    4.2464   -3.2638 H   0  0  0  0  0  0  0  0  0  0  0  0
   -4.0346    2.6596   -0.3130 H   0  0  0  0  0  0  0  0  0  0  0  0
   -5.6431   -3.0646   -0.5396 H   0  0  0  0  0  0  0  0  0  0  0  0
   -4.6522   -5.1291    0.3907 H   0  0  0  0  0  0  0  0  0  0  0  0
   -2.2045   -5.2395    0.8193 H   0  0  0  0  0  0  0  0  0  0  0  0
   -0.7855   -3.3083    0.3117 H   0  0  0  0  0  0  0  0  0  0  0  0
    1.5183    0.9462    1.4704 H   0  0  0  0  0  0  0  0  0  0  0  0
    2.0466    0.0142    0.0582 H   0  0  0  0  0  0  0  0  0  0  0  0
    3.2382   -2.0064    3.1237 H   0  0  0  0  0  0  0  0  0  0  0  0
    5.8784    0.1324   -1.5569 H   0  0  0  0  0  0  0  0  0  0  0  0
    8.1018    1.2586   -1.4215 H   0  0  0  0  0  0  0  0  0  0  0  0
    9.0456    1.9101    0.7662 H   0  0  0  0  0  0  0  0  0  0  0  0
    7.7996    1.4574    2.8795 H   0  0  0  0  0  0  0  0  0  0  0  0
    5.3114    0.2713    3.7331 H   0  0  0  0  0  0  0  0  0  0  0  0
  1  2  1  0
  2  3  2  0
  3  4  1  0
  4  5  2  0
  5  6  1  0
  6  7  2  0
  7  8  1  0
  8  9  1  0
  8 10  2  0
  3 11  1  0
 11 12  2  0
 12 13  1  0
 13 14  2  0
 14 15  1  0
 15 16  2  0
 16 17  1  0
 17 18  2  0
 18 19  1  0
 19 20  2  0
 19 21  1  0
 21 22  1  0
 22 23  1  0
 23 24  2  0
 23 25  1  0
 25 26  1  0
 26 27  3  0
 25 28  1  0
 28 29  2  0
 29 30  1  0
 30 31  2  0
 31 32  1  0
 32 33  2  0
 33 34  1  0
 34 35  2  0
 35 36  1  0
 18  2  1  0
 36 28  1  0
 10  4  1  0
 17 12  1  0
 35 30  1  0
  1 37  1  0
  1 38  1  0
  1 39  1  0
  5 40  1  0
  6 41  1  0
  7 42  1  0
 10 43  1  0
 13 44  1  0
 14 45  1  0
 15 46  1  0
 16 47  1  0
 22 48  1  0
 22 49  1  0
 25 50  1  0
 31 51  1  0
 32 52  1  0
 33 53  1  0
 34 54  1  0
 36 55  1  0
M  END
$$$$
