
     RDKit          3D

 47 49  0  0  0  0  0  0  0  0999 V2000
   -2.4614    5.6193    0.2871 C   0  0  0  0  0  0  0  0  0  0  0  0
   -2.3807    4.5611   -0.6694 O   0  0  0  0  0  0  0  0  0  0  0  0
   -1.7480    3.4433   -0.2085 C   0  0  0  0  0  0  0  0  0  0  0  0
   -1.2124    3.3460    0.8884 O   0  0  0  0  0  0  0  0  0  0  0  0
   -1.7290    2.3737   -1.2935 C   0  0  0  0  0  0  0  0  0  0  0  0
   -1.7367    1.0214   -0.7348 N   0  0  0  0  0  0  0  0  0  0  0  0
   -0.6071    0.3045   -0.3240 C   0  0  0  0  0  0  0  0  0  0  0  0
    0.7657    0.8739   -0.5539 C   0  0  0  0  0  0  0  0  0  0  0  0
    1.9946    0.0721   -0.1110 C   0  0  0  0  0  0  0  0  0  0  0  0
    1.9356   -0.7734    0.7766 O   0  0  0  0  0  0  0  0  0  0  0  0
    3.1392    0.4429   -0.8023 N   0  0  0  0  0  0  0  0  0  0  0  0
    4.4413   -0.0813   -0.6558 C   0  0  0  0  0  0  0  0  0  0  0  0
    4.7822   -1.1003    0.2370 C   0  0  0  0  0  0  0  0  0  0  0  0
    6.1011   -1.5641    0.3170 C   0  0  0  0  0  0  0  0  0  0  0  0
    7.0847   -1.0103   -0.4965 C   0  0  0  0  0  0  0  0  0  0  0  0
    8.7036   -1.5807   -0.3970 Cl  0  0  0  0  0  0  0  0  0  0  0  0
    6.7611    0.0049   -1.3911 C   0  0  0  0  0  0  0  0  0  0  0  0
    5.4434    0.4670   -1.4695 C   0  0  0  0  0  0  0  0  0  0  0  0
   -1.0386   -0.8575    0.2121 C   0  0  0  0  0  0  0  0  0  0  0  0
   -0.3114   -1.8988    0.7005 O   0  0  0  0  0  0  0  0  0  0  0  0
   -2.4271   -0.9478    0.1654 N   0  0  0  0  0  0  0  0  0  0  0  0
   -3.2230   -2.0316    0.6451 C   0  0  0  0  0  0  0  0  0  0  0  0
   -2.8462   -2.7426    1.7960 C   0  0  0  0  0  0  0  0  0  0  0  0
   -3.6121   -3.8124    2.2742 C   0  0  0  0  0  0  0  0  0  0  0  0
   -4.7648   -4.1928    1.5972 C   0  0  0  0  0  0  0  0  0  0  0  0
   -5.7081   -5.5081    2.1783 Cl  0  0  0  0  0  0  0  0  0  0  0  0
   -5.1523   -3.5157    0.4462 C   0  0  0  0  0  0  0  0  0  0  0  0
   -4.3826   -2.4452   -0.0265 C   0  0  0  0  0  0  0  0  0  0  0  0
   -2.9176    0.2829   -0.3983 C   0  0  0  0  0  0  0  0  0  0  0  0
   -4.4827    0.8445   -0.5663 S   0  0  0  0  0  0  0  0  0  0  0  0
   -3.0218    6.4423   -0.1650 H   0  0  0  0  0  0  0  0  0  0  0  0
   -2.9954    5.2881    1.1834 H   0  0  0  0  0  0  0  0  0  0  0  0
   -1.4601    5.9799    0.5420 H   0  0  0  0  0  0  0  0  0  0  0  0
   -2.6061    2.4979   -1.9358 H   0  0  0  0  0  0  0  0  0  0  0  0
   -0.8443    2.5221   -1.9193 H   0  0  0  0  0  0  0  0  0  0  0  0
    0.8449    1.8416   -0.0445 H   0  0  0  0  0  0  0  0  0  0  0  0
    0.8709    1.0544   -1.6316 H   0  0  0  0  0  0  0  0  0  0  0  0
    3.0442    1.1836   -1.4864 H   0  0  0  0  0  0  0  0  0  0  0  0
    4.0492   -1.5614    0.8912 H   0  0  0  0  0  0  0  0  0  0  0  0
    6.3476   -2.3569    1.0188 H   0  0  0  0  0  0  0  0  0  0  0  0
    7.5261    0.4407   -2.0284 H   0  0  0  0  0  0  0  0  0  0  0  0
    5.2178    1.2610   -2.1769 H   0  0  0  0  0  0  0  0  0  0  0  0
    0.6116   -1.6047    0.8505 H   0  0  0  0  0  0  0  0  0  0  0  0
   -1.9634   -2.4537    2.3608 H   0  0  0  0  0  0  0  0  0  0  0  0
   -3.2999   -4.3357    3.1736 H   0  0  0  0  0  0  0  0  0  0  0  0
   -6.0437   -3.8166   -0.0974 H   0  0  0  0  0  0  0  0  0  0  0  0
   -4.6885   -1.9776   -0.9576 H   0  0  0  0  0  0  0  0  0  0  0  0
  1  2  1  0
  2  3  1  0
  3  4  2  0
  3  5  1  0
  5  6  1  0
  6  7  1  0
  7  8  1  0
  8  9  1  0
  9 10  2  0
  9 11  1  0
 11 12  1  0
 12 13  2  0
 13 14  1  0
 14 15  2  0
 15 16  1  0
 15 17  1  0
 17 18  2  0
  7 19  2  0
 19 20  1  0
 19 21  1  0
 21 22  1  0
 22 23  2  0
 23 24  1  0
 24 25  2  0
 25 26  1  0
 25 27  1  0
 27 28  2  0
 21 29  1  0
 29 30  2  0
 29  6  1  0
 18 12  1  0
 28 22  1  0
  1 31  1  0
  1 32  1  0
  1 33  1  0
  5 34  1  0
  5 35  1  0
  8 36  1  0
  8 37  1  0
 11 38  1  0
 13 39  1  0
 14 40  1  0
 17 41  1  0
 18 42  1  0
 20 43  1  0
 23 44  1  0
 24 45  1  0
 27 46  1  0
 28 47  1  0
M  END
$$$$
