
     RDKit          3D

 70 73  0  0  0  0  0  0  0  0999 V2000
   -2.9576    2.1545    2.6386 C   0  0  0  0  0  0  0  0  0  0  0  0
   -2.6361    1.4575    1.4356 O   0  0  0  0  0  0  0  0  0  0  0  0
   -2.0082    2.2292    0.4917 C   0  0  0  0  0  0  0  0  0  0  0  0
   -2.5516    3.4731    0.1230 C   0  0  0  0  0  0  0  0  0  0  0  0
   -1.9665    4.2511   -0.8809 C   0  0  0  0  0  0  0  0  0  0  0  0
   -2.4347    5.4762   -1.2854 O   0  0  0  0  0  0  0  0  0  0  0  0
   -3.6596    5.9335   -0.7270 C   0  0  0  0  0  0  0  0  0  0  0  0
   -0.8269    3.7684   -1.5397 C   0  0  0  0  0  0  0  0  0  0  0  0
   -0.1657    4.5110   -2.6119 C   0  0  0  0  0  0  0  0  0  0  0  0
    0.8995    4.0031   -3.2378 C   0  0  0  0  0  0  0  0  0  0  0  0
    1.4630    2.6947   -2.8825 C   0  0  0  0  0  0  0  0  0  0  0  0
    2.4438    2.2504   -3.4672 O   0  0  0  0  0  0  0  0  0  0  0  0
    0.8312    2.0136   -1.8553 O   0  0  0  0  0  0  0  0  0  0  0  0
   -0.3114    2.5177   -1.1759 C   0  0  0  0  0  0  0  0  0  0  0  0
   -0.8752    1.7147   -0.1595 C   0  0  0  0  0  0  0  0  0  0  0  0
   -0.2547    0.3413    0.1363 C   0  0  0  0  0  0  0  0  0  0  0  0
   -0.2786   -0.1081    1.6210 C   0  0  0  0  0  0  0  0  0  0  0  0
    0.7348   -1.2235    1.9444 C   0  0  0  0  0  0  0  0  0  0  0  0
    2.1425   -0.8539    1.7254 N   0  0  0  0  0  0  0  0  0  0  0  0
    2.5664    0.2681    2.5772 C   0  0  0  0  0  0  0  0  0  0  0  0
    4.0842    0.3568    2.7095 C   0  0  0  0  0  0  0  0  0  0  0  0
    4.6621   -0.8957    3.3683 C   0  0  0  0  0  0  0  0  0  0  0  0
    3.7872   -2.1372    3.1331 C   0  0  0  0  0  0  0  0  0  0  0  0
    4.6283   -3.4109    3.1885 C   0  0  0  0  0  0  0  0  0  0  0  0
    3.0347   -2.0232    1.8000 C   0  0  0  0  0  0  0  0  0  0  0  0
   -0.8016   -0.7341   -0.7999 C   0  0  0  0  0  0  0  0  0  0  0  0
    0.0202   -1.2927   -1.7820 C   0  0  0  0  0  0  0  0  0  0  0  0
   -0.4658   -2.2770   -2.6564 C   0  0  0  0  0  0  0  0  0  0  0  0
   -1.7834   -2.7598   -2.5891 C   0  0  0  0  0  0  0  0  0  0  0  0
   -2.2731   -3.7321   -3.4719 N   0  0  0  0  0  0  0  0  0  0  0  0
   -1.3318   -4.4510   -4.3277 C   0  0  0  0  0  0  0  0  0  0  0  0
   -3.4776   -4.4708   -3.0978 C   0  0  0  0  0  0  0  0  0  0  0  0
   -2.5962   -2.1694   -1.6061 C   0  0  0  0  0  0  0  0  0  0  0  0
   -2.1215   -1.1830   -0.7273 C   0  0  0  0  0  0  0  0  0  0  0  0
   -3.9013    2.6980    2.5298 H   0  0  0  0  0  0  0  0  0  0  0  0
   -2.1512    2.8288    2.9483 H   0  0  0  0  0  0  0  0  0  0  0  0
   -3.0927    1.4085    3.4282 H   0  0  0  0  0  0  0  0  0  0  0  0
   -3.4566    3.8071    0.6164 H   0  0  0  0  0  0  0  0  0  0  0  0
   -3.9050    6.8905   -1.1975 H   0  0  0  0  0  0  0  0  0  0  0  0
   -4.4781    5.2380   -0.9422 H   0  0  0  0  0  0  0  0  0  0  0  0
   -3.5605    6.1080    0.3492 H   0  0  0  0  0  0  0  0  0  0  0  0
   -0.5619    5.4795   -2.8980 H   0  0  0  0  0  0  0  0  0  0  0  0
    1.3988    4.5329   -4.0399 H   0  0  0  0  0  0  0  0  0  0  0  0
    0.8133    0.4571   -0.0888 H   0  0  0  0  0  0  0  0  0  0  0  0
   -0.0884    0.7519    2.2749 H   0  0  0  0  0  0  0  0  0  0  0  0
   -1.2679   -0.4893    1.8993 H   0  0  0  0  0  0  0  0  0  0  0  0
    0.5903   -1.5400    2.9857 H   0  0  0  0  0  0  0  0  0  0  0  0
    0.4823   -2.0914    1.3227 H   0  0  0  0  0  0  0  0  0  0  0  0
    2.1367    0.1816    3.5835 H   0  0  0  0  0  0  0  0  0  0  0  0
    2.2000    1.2060    2.1459 H   0  0  0  0  0  0  0  0  0  0  0  0
    4.5305    0.4859    1.7150 H   0  0  0  0  0  0  0  0  0  0  0  0
    4.3640    1.2426    3.2913 H   0  0  0  0  0  0  0  0  0  0  0  0
    5.6820   -1.0496    2.9945 H   0  0  0  0  0  0  0  0  0  0  0  0
    4.7563   -0.7336    4.4494 H   0  0  0  0  0  0  0  0  0  0  0  0
    3.0464   -2.1986    3.9424 H   0  0  0  0  0  0  0  0  0  0  0  0
    5.1397   -3.4945    4.1535 H   0  0  0  0  0  0  0  0  0  0  0  0
    5.3878   -3.4217    2.3985 H   0  0  0  0  0  0  0  0  0  0  0  0
    3.9982   -4.2984    3.0635 H   0  0  0  0  0  0  0  0  0  0  0  0
    2.4926   -2.9542    1.5900 H   0  0  0  0  0  0  0  0  0  0  0  0
    3.7665   -1.9294    0.9861 H   0  0  0  0  0  0  0  0  0  0  0  0
    1.0536   -0.9654   -1.8844 H   0  0  0  0  0  0  0  0  0  0  0  0
    0.2330   -2.6524   -3.3972 H   0  0  0  0  0  0  0  0  0  0  0  0
   -1.8554   -5.1493   -4.9903 H   0  0  0  0  0  0  0  0  0  0  0  0
   -0.6198   -5.0311   -3.7308 H   0  0  0  0  0  0  0  0  0  0  0  0
   -0.7892   -3.7656   -4.9877 H   0  0  0  0  0  0  0  0  0  0  0  0
   -4.3499   -3.8099   -3.0538 H   0  0  0  0  0  0  0  0  0  0  0  0
   -3.7202   -5.2392   -3.8408 H   0  0  0  0  0  0  0  0  0  0  0  0
   -3.3486   -4.9755   -2.1337 H   0  0  0  0  0  0  0  0  0  0  0  0
   -3.6382   -2.4531   -1.5008 H   0  0  0  0  0  0  0  0  0  0  0  0
   -2.8067   -0.7666    0.0064 H   0  0  0  0  0  0  0  0  0  0  0  0
  1  2  1  0
  2  3  1  0
  3  4  2  0
  4  5  1  0
  5  6  1  0
  6  7  1  0
  5  8  2  0
  8  9  1  0
  9 10  2  0
 10 11  1  0
 11 12  2  0
 11 13  1  0
 13 14  1  0
 14 15  2  0
 15 16  1  0
 16 17  1  0
 17 18  1  0
 18 19  1  0
 19 20  1  0
 20 21  1  0
 21 22  1  0
 22 23  1  0
 23 24  1  0
 23 25  1  0
 16 26  1  0
 26 27  2  0
 27 28  1  0
 28 29  2  0
 29 30  1  0
 30 31  1  0
 30 32  1  0
 29 33  1  0
 33 34  2  0
 15  3  1  0
 25 19  1  0
 34 26  1  0
 14  8  1  0
  1 35  1  0
  1 36  1  0
  1 37  1  0
  4 38  1  0
  7 39  1  0
  7 40  1  0
  7 41  1  0
  9 42  1  0
 10 43  1  0
 16 44  1  0
 17 45  1  0
 17 46  1  0
 18 47  1  0
 18 48  1  0
 20 49  1  0
 20 50  1  0
 21 51  1  0
 21 52  1  0
 22 53  1  0
 22 54  1  0
 23 55  1  0
 24 56  1  0
 24 57  1  0
 24 58  1  0
 25 59  1  0
 25 60  1  0
 27 61  1  0
 28 62  1  0
 31 63  1  0
 31 64  1  0
 31 65  1  0
 32 66  1  0
 32 67  1  0
 32 68  1  0
 33 69  1  0
 34 70  1  0
M  END
$$$$
