
     RDKit          3D

 36 38  0  0  0  0  0  0  0  0999 V2000
    2.6132    2.0340    2.4993 N   0  0  0  0  0  0  0  0  0  0  0  0
    1.8996    1.4450    1.7978 C   0  0  0  0  0  0  0  0  0  0  0  0
    1.0066    0.7358    0.9267 C   0  0  0  0  0  0  0  0  0  0  0  0
   -0.2158    1.3117    0.5326 C   0  0  0  0  0  0  0  0  0  0  0  0
   -0.6406    2.6503    0.9693 C   0  0  0  0  0  0  0  0  0  0  0  0
   -0.0924    3.8046    0.3887 C   0  0  0  0  0  0  0  0  0  0  0  0
   -0.5024    5.0738    0.8028 C   0  0  0  0  0  0  0  0  0  0  0  0
   -1.4672    5.2052    1.7991 C   0  0  0  0  0  0  0  0  0  0  0  0
   -2.0239    4.0693    2.3822 C   0  0  0  0  0  0  0  0  0  0  0  0
   -1.6145    2.7995    1.9693 C   0  0  0  0  0  0  0  0  0  0  0  0
   -1.0657    0.5779   -0.3105 C   0  0  0  0  0  0  0  0  0  0  0  0
   -0.6874   -0.6867   -0.7370 C   0  0  0  0  0  0  0  0  0  0  0  0
   -1.4935   -1.5483   -1.6212 C   0  0  0  0  0  0  0  0  0  0  0  0
   -1.1438   -2.7764   -2.1646 C   0  0  0  0  0  0  0  0  0  0  0  0
   -2.1658   -3.3455   -2.9778 C   0  0  0  0  0  0  0  0  0  0  0  0
   -3.2781   -2.5399   -3.0362 C   0  0  0  0  0  0  0  0  0  0  0  0
   -3.0834   -1.1148   -2.1172 S   0  0  0  0  0  0  0  0  0  0  0  0
    0.4908   -1.2387   -0.3625 N   0  0  0  0  0  0  0  0  0  0  0  0
    1.3183   -0.5406    0.4545 C   0  0  0  0  0  0  0  0  0  0  0  0
    2.8495   -1.3643    0.8906 S   0  0  0  0  0  0  0  0  0  0  0  0
    2.6446   -2.9521    0.0205 C   0  0  0  0  0  0  0  0  0  0  0  0
    3.8285   -3.8628    0.2409 C   0  0  0  0  0  0  0  0  0  0  0  0
    4.8384   -3.6691    0.8959 O   0  0  0  0  0  0  0  0  0  0  0  0
    3.6761   -5.0397   -0.4105 O   0  0  0  0  0  0  0  0  0  0  0  0
    0.6624    3.7260   -0.3914 H   0  0  0  0  0  0  0  0  0  0  0  0
   -0.0651    5.9603    0.3500 H   0  0  0  0  0  0  0  0  0  0  0  0
   -1.7822    6.1937    2.1241 H   0  0  0  0  0  0  0  0  0  0  0  0
   -2.7738    4.1717    3.1627 H   0  0  0  0  0  0  0  0  0  0  0  0
   -2.0585    1.9251    2.4413 H   0  0  0  0  0  0  0  0  0  0  0  0
   -2.0087    1.0178   -0.6235 H   0  0  0  0  0  0  0  0  0  0  0  0
   -0.1847   -3.2477   -1.9833 H   0  0  0  0  0  0  0  0  0  0  0  0
   -2.0869   -4.2963   -3.4910 H   0  0  0  0  0  0  0  0  0  0  0  0
   -4.1985   -2.7199   -3.5750 H   0  0  0  0  0  0  0  0  0  0  0  0
    1.7522   -3.4607    0.3979 H   0  0  0  0  0  0  0  0  0  0  0  0
    2.5563   -2.7671   -1.0544 H   0  0  0  0  0  0  0  0  0  0  0  0
    4.4964   -5.5309   -0.1901 H   0  0  0  0  0  0  0  0  0  0  0  0
  1  2  3  0
  2  3  1  0
  3  4  2  0
  4  5  1  0
  5  6  2  0
  6  7  1  0
  7  8  2  0
  8  9  1  0
  9 10  2  0
  4 11  1  0
 11 12  2  0
 12 13  1  0
 13 14  2  0
 14 15  1  0
 15 16  2  0
 16 17  1  0
 12 18  1  0
 18 19  2  0
 19 20  1  0
 20 21  1  0
 21 22  1  0
 22 23  2  0
 22 24  1  0
 19  3  1  0
 10  5  1  0
 17 13  1  0
  6 25  1  0
  7 26  1  0
  8 27  1  0
  9 28  1  0
 10 29  1  0
 11 30  1  0
 14 31  1  0
 15 32  1  0
 16 33  1  0
 21 34  1  0
 21 35  1  0
 24 36  1  0
M  END
$$$$
