
     RDKit          3D

 48 51  0  0  0  0  0  0  0  0999 V2000
    6.6741   -1.7800    2.0580 O   0  0  0  0  0  0  0  0  0  0  0  0
    5.5367   -0.9006    1.8918 S   0  0  0  0  0  6  0  0  0  0  0  0
    5.5213    0.4268    2.4662 O   0  0  0  0  0  0  0  0  0  0  0  0
    4.1879   -1.7653    2.4208 N   0  0  0  0  0  0  0  0  0  0  0  0
    2.8855   -1.2938    2.1036 C   0  0  0  0  0  0  0  0  0  0  0  0
    2.4271   -0.0711    2.5840 C   0  0  0  0  0  0  0  0  0  0  0  0
    1.1649    0.4034    2.2070 C   0  0  0  0  0  0  0  0  0  0  0  0
    0.3342   -0.3314    1.3412 C   0  0  0  0  0  0  0  0  0  0  0  0
   -0.9929    0.1578    0.9214 C   0  0  0  0  0  0  0  0  0  0  0  0
   -1.3227    1.4983    0.7913 C   0  0  0  0  0  0  0  0  0  0  0  0
   -2.6091    1.8515    0.3767 C   0  0  0  0  0  0  0  0  0  0  0  0
   -3.5504    0.8688    0.0925 C   0  0  0  0  0  0  0  0  0  0  0  0
   -4.8458    1.2377   -0.3244 N   0  0  0  0  0  0  0  0  0  0  0  0
   -4.8195    2.0153   -1.5881 C   0  0  0  0  0  0  0  0  0  0  0  0
   -6.1542    1.8794   -2.3380 C   0  0  0  0  0  0  0  0  0  0  0  0
   -6.4554    0.5248   -2.7082 O   0  0  0  0  0  0  0  0  0  0  0  0
   -5.9783   -0.4449   -1.7566 C   0  0  0  0  0  0  0  0  0  0  0  0
   -5.8240    0.1242   -0.3391 C   0  0  0  0  0  0  0  0  0  0  0  0
   -3.1948   -0.4232    0.2362 N   0  0  0  0  0  0  0  0  0  0  0  0
   -1.9191   -0.7824    0.6411 N   0  0  0  0  0  0  0  0  0  0  0  0
    0.8178   -1.5740    0.8872 C   0  0  0  0  0  0  0  0  0  0  0  0
    2.0784   -2.0524    1.2612 C   0  0  0  0  0  0  0  0  0  0  0  0
    5.2457   -0.7383    0.1422 C   0  0  0  0  0  0  0  0  0  0  0  0
    5.6662   -1.7499   -0.7253 C   0  0  0  0  0  0  0  0  0  0  0  0
    5.4344   -1.6169   -2.0958 C   0  0  0  0  0  0  0  0  0  0  0  0
    4.7925   -0.4773   -2.5959 C   0  0  0  0  0  0  0  0  0  0  0  0
    4.5301   -0.3885   -4.3008 Cl  0  0  0  0  0  0  0  0  0  0  0  0
    4.3901    0.5401   -1.7203 C   0  0  0  0  0  0  0  0  0  0  0  0
    3.5900    1.9702   -2.2672 Cl  0  0  0  0  0  0  0  0  0  0  0  0
    4.6268    0.4155   -0.3497 C   0  0  0  0  0  0  0  0  0  0  0  0
    4.3473   -2.7715    2.4267 H   0  0  0  0  0  0  0  0  0  0  0  0
    3.0374    0.5219    3.2619 H   0  0  0  0  0  0  0  0  0  0  0  0
    0.8352    1.3545    2.6204 H   0  0  0  0  0  0  0  0  0  0  0  0
   -0.5999    2.2811    0.9927 H   0  0  0  0  0  0  0  0  0  0  0  0
   -2.8721    2.9009    0.2951 H   0  0  0  0  0  0  0  0  0  0  0  0
   -4.6351    3.0723   -1.3666 H   0  0  0  0  0  0  0  0  0  0  0  0
   -4.0199    1.6502   -2.2471 H   0  0  0  0  0  0  0  0  0  0  0  0
   -6.9832    2.2567   -1.7278 H   0  0  0  0  0  0  0  0  0  0  0  0
   -6.1308    2.4721   -3.2580 H   0  0  0  0  0  0  0  0  0  0  0  0
   -6.6916   -1.2750   -1.7549 H   0  0  0  0  0  0  0  0  0  0  0  0
   -5.0228   -0.8318   -2.1283 H   0  0  0  0  0  0  0  0  0  0  0  0
   -6.7878    0.5395   -0.0180 H   0  0  0  0  0  0  0  0  0  0  0  0
   -5.5863   -0.6675    0.3806 H   0  0  0  0  0  0  0  0  0  0  0  0
    0.2057   -2.1835    0.2218 H   0  0  0  0  0  0  0  0  0  0  0  0
    2.4133   -3.0112    0.8759 H   0  0  0  0  0  0  0  0  0  0  0  0
    6.1734   -2.6358   -0.3475 H   0  0  0  0  0  0  0  0  0  0  0  0
    5.7588   -2.4046   -2.7730 H   0  0  0  0  0  0  0  0  0  0  0  0
    4.3209    1.2080    0.3305 H   0  0  0  0  0  0  0  0  0  0  0  0
  1  2  2  0
  2  3  2  0
  2  4  1  0
  4  5  1  0
  5  6  2  0
  6  7  1  0
  7  8  2  0
  8  9  1  0
  9 10  2  0
 10 11  1  0
 11 12  2  0
 12 13  1  0
 13 14  1  0
 14 15  1  0
 15 16  1  0
 16 17  1  0
 17 18  1  0
 12 19  1  0
 19 20  2  0
  8 21  1  0
 21 22  2  0
  2 23  1  0
 23 24  2  0
 24 25  1  0
 25 26  2  0
 26 27  1  0
 26 28  1  0
 28 29  1  0
 28 30  2  0
 22  5  1  0
 30 23  1  0
 20  9  1  0
 18 13  1  0
  4 31  1  0
  6 32  1  0
  7 33  1  0
 10 34  1  0
 11 35  1  0
 14 36  1  0
 14 37  1  0
 15 38  1  0
 15 39  1  0
 17 40  1  0
 17 41  1  0
 18 42  1  0
 18 43  1  0
 21 44  1  0
 22 45  1  0
 24 46  1  0
 25 47  1  0
 30 48  1  0
M  END
$$$$
