
     RDKit          3D

 49 50  0  0  0  0  0  0  0  0999 V2000
   -4.1908   -2.2763    1.6092 C   0  0  0  0  0  0  0  0  0  0  0  0
   -5.1651   -1.3158    1.2176 O   0  0  0  0  0  0  0  0  0  0  0  0
   -4.7289   -0.1688    0.6080 C   0  0  0  0  0  0  0  0  0  0  0  0
   -3.3754    0.1525    0.4230 C   0  0  0  0  0  0  0  0  0  0  0  0
   -2.9923    1.3260   -0.2461 C   0  0  0  0  0  0  0  0  0  0  0  0
   -1.5806    1.6897   -0.4215 C   0  0  0  0  0  0  0  0  0  0  0  0
   -0.6579    0.8330   -0.8888 C   0  0  0  0  0  0  0  0  0  0  0  0
    0.7662    1.1735   -1.0821 C   0  0  0  0  0  0  0  0  0  0  0  0
    1.5609    0.3942   -1.5889 O   0  0  0  0  0  0  0  0  0  0  0  0
    1.0583    2.4092   -0.6209 O   0  0  0  0  0  0  0  0  0  0  0  0
    2.4243    2.8013   -0.7494 C   0  0  0  0  0  0  0  0  0  0  0  0
    3.3613    2.0794    0.2232 C   0  0  0  0  0  0  0  0  0  0  0  0
    3.5753    2.4992    1.3556 O   0  0  0  0  0  0  0  0  0  0  0  0
    3.9246    0.9299   -0.2946 N   0  0  0  0  0  0  0  0  0  0  0  0
    4.7031    0.0413    0.5505 C   0  0  0  0  0  0  0  0  0  0  0  0
    5.7517   -0.7522   -0.2330 C   0  0  0  0  0  0  0  0  0  0  0  0
    5.1796   -1.6410   -1.3296 C   0  0  0  0  0  0  0  0  0  0  0  0
    6.2752   -2.6705   -1.4829 C   0  0  0  0  0  0  0  0  0  0  0  0
    6.7206   -2.8725   -0.0486 C   0  0  0  0  0  0  0  0  0  0  0  0
    6.4714   -1.6392    0.6481 O   0  0  0  0  0  0  0  0  0  0  0  0
   -3.9783    2.1929   -0.7202 C   0  0  0  0  0  0  0  0  0  0  0  0
   -5.3264    1.8839   -0.5432 C   0  0  0  0  0  0  0  0  0  0  0  0
   -5.7077    0.7217    0.1340 C   0  0  0  0  0  0  0  0  0  0  0  0
   -7.0661    0.5521    0.2174 O   0  0  0  0  0  0  0  0  0  0  0  0
   -7.5491    0.0000    1.4473 C   0  0  0  0  0  0  0  0  0  0  0  0
   -8.9258    0.4636    1.6918 C   0  0  0  0  0  0  0  0  0  0  0  0
  -10.0087    0.8271    1.9063 N   0  0  0  0  0  0  0  0  0  0  0  0
   -4.7223   -3.1314    2.0425 H   0  0  0  0  0  0  0  0  0  0  0  0
   -3.5284   -1.8704    2.3825 H   0  0  0  0  0  0  0  0  0  0  0  0
   -3.6212   -2.6396    0.7452 H   0  0  0  0  0  0  0  0  0  0  0  0
   -2.5938   -0.4982    0.8026 H   0  0  0  0  0  0  0  0  0  0  0  0
   -1.3240    2.7166   -0.1693 H   0  0  0  0  0  0  0  0  0  0  0  0
   -0.9126   -0.1808   -1.1777 H   0  0  0  0  0  0  0  0  0  0  0  0
    2.7671    2.6752   -1.7840 H   0  0  0  0  0  0  0  0  0  0  0  0
    2.4850    3.8739   -0.5325 H   0  0  0  0  0  0  0  0  0  0  0  0
    3.3527    0.4805   -1.0112 H   0  0  0  0  0  0  0  0  0  0  0  0
    4.0012   -0.6359    1.0553 H   0  0  0  0  0  0  0  0  0  0  0  0
    5.1925    0.6154    1.3471 H   0  0  0  0  0  0  0  0  0  0  0  0
    6.4882   -0.0625   -0.6654 H   0  0  0  0  0  0  0  0  0  0  0  0
    4.9667   -1.0966   -2.2544 H   0  0  0  0  0  0  0  0  0  0  0  0
    4.2548   -2.1292   -0.9962 H   0  0  0  0  0  0  0  0  0  0  0  0
    5.9468   -3.5968   -1.9654 H   0  0  0  0  0  0  0  0  0  0  0  0
    7.0998   -2.2517   -2.0731 H   0  0  0  0  0  0  0  0  0  0  0  0
    6.1324   -3.6545    0.4422 H   0  0  0  0  0  0  0  0  0  0  0  0
    7.7821   -3.1322    0.0293 H   0  0  0  0  0  0  0  0  0  0  0  0
   -3.7103    3.1107   -1.2387 H   0  0  0  0  0  0  0  0  0  0  0  0
   -6.0877    2.5596   -0.9273 H   0  0  0  0  0  0  0  0  0  0  0  0
   -7.5628   -1.0916    1.3690 H   0  0  0  0  0  0  0  0  0  0  0  0
   -6.9256    0.3053    2.2959 H   0  0  0  0  0  0  0  0  0  0  0  0
  1  2  1  0
  2  3  1  0
  3  4  2  0
  4  5  1  0
  5  6  1  0
  6  7  2  3
  7  8  1  0
  8  9  2  0
  8 10  1  0
 10 11  1  0
 11 12  1  0
 12 13  2  0
 12 14  1  0
 14 15  1  0
 15 16  1  0
 16 17  1  0
 17 18  1  0
 18 19  1  0
 19 20  1  0
  5 21  2  0
 21 22  1  0
 22 23  2  0
 23 24  1  0
 24 25  1  0
 25 26  1  0
 26 27  3  0
 23  3  1  0
 20 16  1  0
  1 28  1  0
  1 29  1  0
  1 30  1  0
  4 31  1  0
  6 32  1  0
  7 33  1  0
 11 34  1  0
 11 35  1  0
 14 36  1  0
 15 37  1  0
 15 38  1  0
 16 39  1  0
 17 40  1  0
 17 41  1  0
 18 42  1  0
 18 43  1  0
 19 44  1  0
 19 45  1  0
 21 46  1  0
 22 47  1  0
 25 48  1  0
 25 49  1  0
M  END
$$$$
