
     RDKit          3D

 67 72  0  0  0  0  0  0  0  0999 V2000
   -2.3030   -3.5119    0.1273 O   0  0  0  0  0  0  0  0  0  0  0  0
   -2.0170   -2.3556   -0.2043 C   0  0  0  0  0  0  0  0  0  0  0  0
   -3.0513   -1.4939   -0.9375 C   0  0  0  0  0  0  0  0  0  0  0  0
   -3.9492   -0.8135    0.1158 C   0  0  0  0  0  0  0  0  0  0  0  0
   -5.1266   -0.0790   -0.4839 C   0  0  0  0  0  0  0  0  0  0  0  0
   -5.0758    1.3092   -0.6713 C   0  0  0  0  0  0  0  0  0  0  0  0
   -6.1581    1.9859   -1.2351 C   0  0  0  0  0  0  0  0  0  0  0  0
   -7.2983    1.2825   -1.6191 C   0  0  0  0  0  0  0  0  0  0  0  0
   -7.3570   -0.0984   -1.4404 C   0  0  0  0  0  0  0  0  0  0  0  0
   -6.2759   -0.7779   -0.8763 C   0  0  0  0  0  0  0  0  0  0  0  0
   -2.4162   -0.5351   -1.8368 N   0  0  0  0  0  0  0  0  0  0  0  0
   -1.3598    0.1748   -1.2774 C   0  0  0  0  0  0  0  0  0  0  0  0
   -1.2407    1.4296   -1.7339 N   0  0  0  0  0  0  0  0  0  0  0  0
   -0.1927    2.1104   -1.2819 C   0  0  0  0  0  0  0  0  0  0  0  0
    0.7659    1.6290   -0.4872 N   0  0  0  0  0  0  0  0  0  0  0  0
    0.6646    0.3445   -0.0818 C   0  0  0  0  0  0  0  0  0  0  0  0
    1.8005   -0.1990    0.5449 N   0  0  0  0  0  0  0  0  0  0  0  0
    2.7011    0.7797    1.2104 C   0  0  0  0  0  0  0  0  0  0  0  0
    3.6924    1.4995    0.2619 C   0  0  0  0  0  0  0  0  0  0  0  0
    4.4087    0.5298   -0.6101 N   0  0  0  0  0  0  0  0  0  0  0  0
    5.4731    1.1047   -1.3257 C   0  0  0  0  0  0  0  0  0  0  0  0
    6.5632    1.6463   -0.6212 C   0  0  0  0  0  0  0  0  0  0  0  0
    7.6581    2.2148   -1.2801 C   0  0  0  0  0  0  0  0  0  0  0  0
    7.6904    2.2489   -2.6698 C   0  0  0  0  0  0  0  0  0  0  0  0
    6.6304    1.7122   -3.3928 C   0  0  0  0  0  0  0  0  0  0  0  0
    5.5372    1.1445   -2.7265 C   0  0  0  0  0  0  0  0  0  0  0  0
    3.4721   -0.3448   -1.3492 C   0  0  0  0  0  0  0  0  0  0  0  0
    2.5567   -1.1064   -0.3654 C   0  0  0  0  0  0  0  0  0  0  0  0
   -0.4796   -0.4233   -0.3647 C   0  0  0  0  0  0  0  0  0  0  0  0
   -0.8223   -1.7228    0.1765 N   0  0  0  0  0  0  0  0  0  0  0  0
   -0.1513   -2.3094    1.3333 C   0  0  0  0  0  0  0  0  0  0  0  0
   -0.8261   -1.9253    2.6383 C   0  0  0  0  0  0  0  0  0  0  0  0
   -1.7491   -2.7943    3.2434 C   0  0  0  0  0  0  0  0  0  0  0  0
   -2.3965   -2.4357    4.4264 C   0  0  0  0  0  0  0  0  0  0  0  0
   -2.1298   -1.2042    5.0204 C   0  0  0  0  0  0  0  0  0  0  0  0
   -1.2168   -0.3317    4.4319 C   0  0  0  0  0  0  0  0  0  0  0  0
   -0.5679   -0.6901    3.2488 C   0  0  0  0  0  0  0  0  0  0  0  0
   -3.6495   -2.1712   -1.5597 H   0  0  0  0  0  0  0  0  0  0  0  0
   -3.3691   -0.1201    0.7392 H   0  0  0  0  0  0  0  0  0  0  0  0
   -4.3343   -1.5668    0.8172 H   0  0  0  0  0  0  0  0  0  0  0  0
   -4.1901    1.8728   -0.3820 H   0  0  0  0  0  0  0  0  0  0  0  0
   -6.1100    3.0631   -1.3744 H   0  0  0  0  0  0  0  0  0  0  0  0
   -8.1416    1.8109   -2.0558 H   0  0  0  0  0  0  0  0  0  0  0  0
   -8.2468   -0.6471   -1.7386 H   0  0  0  0  0  0  0  0  0  0  0  0
   -6.3401   -1.8553   -0.7412 H   0  0  0  0  0  0  0  0  0  0  0  0
   -3.0408    0.1062   -2.3192 H   0  0  0  0  0  0  0  0  0  0  0  0
   -0.0934    3.1402   -1.6068 H   0  0  0  0  0  0  0  0  0  0  0  0
    3.2879    0.2175    1.9485 H   0  0  0  0  0  0  0  0  0  0  0  0
    2.1232    1.5138    1.7854 H   0  0  0  0  0  0  0  0  0  0  0  0
    3.1732    2.2342   -0.3635 H   0  0  0  0  0  0  0  0  0  0  0  0
    4.3919    2.0606    0.8922 H   0  0  0  0  0  0  0  0  0  0  0  0
    6.5793    1.6004    0.4649 H   0  0  0  0  0  0  0  0  0  0  0  0
    8.4879    2.6164   -0.7059 H   0  0  0  0  0  0  0  0  0  0  0  0
    8.5393    2.6849   -3.1881 H   0  0  0  0  0  0  0  0  0  0  0  0
    6.6516    1.7295   -4.4799 H   0  0  0  0  0  0  0  0  0  0  0  0
    4.7322    0.7480   -3.3369 H   0  0  0  0  0  0  0  0  0  0  0  0
    2.8625    0.2473   -2.0422 H   0  0  0  0  0  0  0  0  0  0  0  0
    4.0282   -1.0922   -1.9287 H   0  0  0  0  0  0  0  0  0  0  0  0
    3.1797   -1.7562    0.2627 H   0  0  0  0  0  0  0  0  0  0  0  0
    1.8888   -1.7730   -0.9242 H   0  0  0  0  0  0  0  0  0  0  0  0
    0.9104   -2.0941    1.3921 H   0  0  0  0  0  0  0  0  0  0  0  0
   -0.1805   -3.4026    1.2327 H   0  0  0  0  0  0  0  0  0  0  0  0
   -1.9778   -3.7562    2.7862 H   0  0  0  0  0  0  0  0  0  0  0  0
   -3.1111   -3.1175    4.8801 H   0  0  0  0  0  0  0  0  0  0  0  0
   -2.6352   -0.9233    5.9401 H   0  0  0  0  0  0  0  0  0  0  0  0
   -1.0099    0.6306    4.8930 H   0  0  0  0  0  0  0  0  0  0  0  0
    0.1403    0.0052    2.8061 H   0  0  0  0  0  0  0  0  0  0  0  0
  1  2  2  0
  2  3  1  0
  3  4  1  0
  4  5  1  0
  5  6  2  0
  6  7  1  0
  7  8  2  0
  8  9  1  0
  9 10  2  0
  3 11  1  0
 11 12  1  0
 12 13  2  0
 13 14  1  0
 14 15  2  0
 15 16  1  0
 16 17  1  0
 17 18  1  0
 18 19  1  0
 19 20  1  0
 20 21  1  0
 21 22  2  0
 22 23  1  0
 23 24  2  0
 24 25  1  0
 25 26  2  0
 20 27  1  0
 27 28  1  0
 16 29  2  0
 29 30  1  0
 30 31  1  0
 31 32  1  0
 32 33  2  0
 33 34  1  0
 34 35  2  0
 35 36  1  0
 36 37  2  0
 30  2  1  0
 37 32  1  0
 10  5  1  0
 29 12  1  0
 28 17  1  0
 26 21  1  0
  3 38  1  0
  4 39  1  0
  4 40  1  0
  6 41  1  0
  7 42  1  0
  8 43  1  0
  9 44  1  0
 10 45  1  0
 11 46  1  0
 14 47  1  0
 18 48  1  0
 18 49  1  0
 19 50  1  0
 19 51  1  0
 22 52  1  0
 23 53  1  0
 24 54  1  0
 25 55  1  0
 26 56  1  0
 27 57  1  0
 27 58  1  0
 28 59  1  0
 28 60  1  0
 31 61  1  0
 31 62  1  0
 33 63  1  0
 34 64  1  0
 35 65  1  0
 36 66  1  0
 37 67  1  0
M  END
$$$$
