
     RDKit          3D

 59 63  0  0  0  0  0  0  0  0999 V2000
   -5.2158   -2.5897    2.7613 C   0  0  0  0  0  0  0  0  0  0  0  0
   -4.6876   -2.1785    1.4192 C   0  0  0  0  0  0  0  0  0  0  0  0
   -5.1627   -1.0201    0.7942 C   0  0  0  0  0  0  0  0  0  0  0  0
   -4.6475   -0.6188   -0.4405 C   0  0  0  0  0  0  0  0  0  0  0  0
   -3.6475   -1.3691   -1.0716 C   0  0  0  0  0  0  0  0  0  0  0  0
   -3.0719   -0.9200   -2.3892 C   0  0  0  0  0  0  0  0  0  0  0  0
   -1.8521   -0.1745   -2.1836 N   0  0  0  0  0  0  0  0  0  0  0  0
   -1.8526    1.1949   -2.0904 C   0  0  0  0  0  0  0  0  0  0  0  0
   -2.8532    1.8678   -2.3191 O   0  0  0  0  0  0  0  0  0  0  0  0
   -0.6115    1.7851   -1.6475 C   0  0  0  0  0  0  0  0  0  0  0  0
   -0.4803    2.9026   -0.8407 C   0  0  0  0  0  0  0  0  0  0  0  0
    0.9068    3.1372   -0.6783 C   0  0  0  0  0  0  0  0  0  0  0  0
    1.5719    4.1857    0.1052 C   0  0  0  0  0  0  0  0  0  0  0  0
    2.9622    4.3642    0.0201 C   0  0  0  0  0  0  0  0  0  0  0  0
    3.6065    5.3580    0.7622 C   0  0  0  0  0  0  0  0  0  0  0  0
    2.8689    6.1881    1.6020 C   0  0  0  0  0  0  0  0  0  0  0  0
    1.4892    6.0249    1.7001 C   0  0  0  0  0  0  0  0  0  0  0  0
    0.8443    5.0304    0.9570 C   0  0  0  0  0  0  0  0  0  0  0  0
    1.6041    2.2308   -1.3803 N   0  0  0  0  0  0  0  0  0  0  0  0
    0.6776    1.4400   -1.9614 N   0  0  0  0  0  0  0  0  0  0  0  0
    1.1590    0.4676   -2.9267 C   0  0  0  0  0  0  0  0  0  0  0  0
    1.6121   -0.8644   -2.3345 C   0  0  0  0  0  0  0  0  0  0  0  0
    2.5090   -0.8295   -1.1159 C   0  0  0  0  0  0  0  0  0  0  0  0
    2.0425   -2.0970   -0.4815 C   0  0  0  0  0  0  0  0  0  0  0  0
    2.8071   -2.7686    0.5858 C   0  0  0  0  0  0  0  0  0  0  0  0
    2.4003   -4.0179    1.0584 C   0  0  0  0  0  0  0  0  0  0  0  0
    3.1337   -4.6441    2.0639 C   0  0  0  0  0  0  0  0  0  0  0  0
    4.2517   -3.9956    2.5630 C   0  0  0  0  0  0  0  0  0  0  0  0
    4.6712   -2.7860    2.1313 N   0  0  0  0  0  0  0  0  0  0  0  0
    3.9365   -2.1964    1.1562 C   0  0  0  0  0  0  0  0  0  0  0  0
    0.9043   -2.5343   -0.9239 N   0  0  0  0  0  0  0  0  0  0  0  0
    0.4748   -1.6367   -1.9218 O   0  0  0  0  0  0  0  0  0  0  0  0
   -3.1509   -2.5120   -0.4303 C   0  0  0  0  0  0  0  0  0  0  0  0
   -3.6667   -2.9122    0.8046 C   0  0  0  0  0  0  0  0  0  0  0  0
   -6.2553   -2.2697    2.8876 H   0  0  0  0  0  0  0  0  0  0  0  0
   -5.1967   -3.6793    2.8701 H   0  0  0  0  0  0  0  0  0  0  0  0
   -4.6094   -2.1431    3.5553 H   0  0  0  0  0  0  0  0  0  0  0  0
   -5.9348   -0.4172    1.2668 H   0  0  0  0  0  0  0  0  0  0  0  0
   -5.0216    0.2923   -0.9045 H   0  0  0  0  0  0  0  0  0  0  0  0
   -3.7999   -0.3258   -2.9526 H   0  0  0  0  0  0  0  0  0  0  0  0
   -2.8226   -1.7930   -3.0028 H   0  0  0  0  0  0  0  0  0  0  0  0
   -1.1099   -0.6878   -1.7210 H   0  0  0  0  0  0  0  0  0  0  0  0
   -1.3058    3.4640   -0.4246 H   0  0  0  0  0  0  0  0  0  0  0  0
    3.5559    3.7270   -0.6321 H   0  0  0  0  0  0  0  0  0  0  0  0
    4.6832    5.4812    0.6816 H   0  0  0  0  0  0  0  0  0  0  0  0
    3.3687    6.9612    2.1797 H   0  0  0  0  0  0  0  0  0  0  0  0
    0.9115    6.6709    2.3564 H   0  0  0  0  0  0  0  0  0  0  0  0
   -0.2322    4.9286    1.0621 H   0  0  0  0  0  0  0  0  0  0  0  0
    0.3639    0.3142   -3.6642 H   0  0  0  0  0  0  0  0  0  0  0  0
    1.9978    0.9399   -3.4534 H   0  0  0  0  0  0  0  0  0  0  0  0
    2.0976   -1.4425   -3.1323 H   0  0  0  0  0  0  0  0  0  0  0  0
    3.5673   -0.8373   -1.3837 H   0  0  0  0  0  0  0  0  0  0  0  0
    2.2982   -0.0195   -0.4156 H   0  0  0  0  0  0  0  0  0  0  0  0
    1.5186   -4.5063    0.6505 H   0  0  0  0  0  0  0  0  0  0  0  0
    2.8388   -5.6143    2.4482 H   0  0  0  0  0  0  0  0  0  0  0  0
    4.8562   -4.4438    3.3470 H   0  0  0  0  0  0  0  0  0  0  0  0
    4.3074   -1.2204    0.8587 H   0  0  0  0  0  0  0  0  0  0  0  0
   -2.3492   -3.0922   -0.8839 H   0  0  0  0  0  0  0  0  0  0  0  0
   -3.2613   -3.7991    1.2860 H   0  0  0  0  0  0  0  0  0  0  0  0
  1  2  1  0
  2  3  2  0
  3  4  1  0
  4  5  2  0
  5  6  1  0
  6  7  1  0
  7  8  1  0
  8  9  2  0
  8 10  1  0
 10 11  2  0
 11 12  1  0
 12 13  1  0
 13 14  2  0
 14 15  1  0
 15 16  2  0
 16 17  1  0
 17 18  2  0
 12 19  2  0
 19 20  1  0
 20 21  1  0
 21 22  1  0
 22 23  1  0
 23 24  1  0
 24 25  1  0
 25 26  2  0
 26 27  1  0
 27 28  2  0
 28 29  1  0
 29 30  2  0
 24 31  2  0
 31 32  1  0
  5 33  1  0
 33 34  2  0
 34  2  1  0
 20 10  1  0
 32 22  1  0
 18 13  1  0
 30 25  1  0
  1 35  1  0
  1 36  1  0
  1 37  1  0
  3 38  1  0
  4 39  1  0
  6 40  1  0
  6 41  1  0
  7 42  1  0
 11 43  1  0
 14 44  1  0
 15 45  1  0
 16 46  1  0
 17 47  1  0
 18 48  1  0
 21 49  1  0
 21 50  1  0
 22 51  1  0
 23 52  1  0
 23 53  1  0
 26 54  1  0
 27 55  1  0
 28 56  1  0
 30 57  1  0
 33 58  1  0
 34 59  1  0
M  END
$$$$
