
     RDKit          3D

 46 49  0  0  0  0  0  0  0  0999 V2000
    4.1983   -1.2386   -3.3393 C   0  0  0  0  0  0  0  0  0  0  0  0
    3.1501   -1.0632   -2.5242 C   0  0  0  0  0  0  0  0  0  0  0  0
    3.2579   -0.9666   -1.0202 C   0  0  0  0  0  0  0  0  0  0  0  0
    2.3801   -2.0254   -0.2950 C   0  0  0  0  0  0  0  0  0  0  0  0
    1.3646   -1.3958    0.5943 N   0  0  0  0  0  0  0  0  0  0  0  0
    2.0867   -0.6192    1.6351 C   0  0  0  0  0  0  0  0  0  0  0  0
    3.0643    0.4020    1.0366 C   0  0  0  0  0  0  0  0  0  0  0  0
    2.8724    0.4373   -0.4873 C   0  0  0  0  0  0  0  0  0  0  0  0
    1.3760    0.7249   -0.7210 C   0  0  0  0  0  0  0  0  0  0  0  0
    0.5401   -0.4888   -0.2629 C   0  0  0  0  0  0  0  0  0  0  0  0
   -0.7651   -0.1232    0.3992 C   0  0  0  0  0  0  0  0  0  0  0  0
   -1.1805   -0.7989    1.5243 N   0  0  0  0  0  0  0  0  0  0  0  0
   -2.3941   -0.3408    1.9631 C   0  0  0  0  0  0  0  0  0  0  0  0
   -3.1566   -0.7261    3.0720 C   0  0  0  0  0  0  0  0  0  0  0  0
   -4.3842   -0.0878    3.2670 C   0  0  0  0  0  0  0  0  0  0  0  0
   -4.8290    0.8923    2.3840 C   0  0  0  0  0  0  0  0  0  0  0  0
   -4.0528    1.2615    1.2788 C   0  0  0  0  0  0  0  0  0  0  0  0
   -2.8056    0.6377    1.0623 C   0  0  0  0  0  0  0  0  0  0  0  0
   -1.7856    0.7596    0.0574 C   0  0  0  0  0  0  0  0  0  0  0  0
   -1.8555    1.6576   -1.1380 C   0  0  0  0  0  0  0  0  0  0  0  0
   -2.3044    0.9196   -2.3968 C   0  0  0  0  0  0  0  0  0  0  0  0
   -2.3682    1.8167   -3.5023 O   0  0  0  0  0  0  0  0  0  0  0  0
    5.2129   -1.3187   -2.9615 H   0  0  0  0  0  0  0  0  0  0  0  0
    4.0596   -1.3029   -4.4147 H   0  0  0  0  0  0  0  0  0  0  0  0
    2.1581   -0.9914   -2.9667 H   0  0  0  0  0  0  0  0  0  0  0  0
    4.3028   -1.1566   -0.7352 H   0  0  0  0  0  0  0  0  0  0  0  0
    3.0217   -2.6821    0.3077 H   0  0  0  0  0  0  0  0  0  0  0  0
    1.8777   -2.6935   -1.0067 H   0  0  0  0  0  0  0  0  0  0  0  0
    1.3773   -0.1061    2.2947 H   0  0  0  0  0  0  0  0  0  0  0  0
    2.6326   -1.3114    2.2886 H   0  0  0  0  0  0  0  0  0  0  0  0
    2.8790    1.3931    1.4676 H   0  0  0  0  0  0  0  0  0  0  0  0
    4.0974    0.1303    1.2844 H   0  0  0  0  0  0  0  0  0  0  0  0
    3.4949    1.2208   -0.9334 H   0  0  0  0  0  0  0  0  0  0  0  0
    1.1005    1.6369   -0.1762 H   0  0  0  0  0  0  0  0  0  0  0  0
    1.1920    0.9222   -1.7837 H   0  0  0  0  0  0  0  0  0  0  0  0
    0.2401   -1.0555   -1.1572 H   0  0  0  0  0  0  0  0  0  0  0  0
   -0.6347   -1.5332    1.9560 H   0  0  0  0  0  0  0  0  0  0  0  0
   -2.8124   -1.4941    3.7568 H   0  0  0  0  0  0  0  0  0  0  0  0
   -5.0005   -0.3638    4.1194 H   0  0  0  0  0  0  0  0  0  0  0  0
   -5.7881    1.3755    2.5519 H   0  0  0  0  0  0  0  0  0  0  0  0
   -4.4141    2.0263    0.5985 H   0  0  0  0  0  0  0  0  0  0  0  0
   -2.5444    2.4898   -0.9464 H   0  0  0  0  0  0  0  0  0  0  0  0
   -0.8909    2.1419   -1.3202 H   0  0  0  0  0  0  0  0  0  0  0  0
   -1.5992    0.1230   -2.6555 H   0  0  0  0  0  0  0  0  0  0  0  0
   -3.2908    0.4619   -2.2643 H   0  0  0  0  0  0  0  0  0  0  0  0
   -3.0803    2.4529   -3.3173 H   0  0  0  0  0  0  0  0  0  0  0  0
  1  2  2  0
  2  3  1  0
  3  4  1  0
  4  5  1  0
  5  6  1  0
  6  7  1  0
  7  8  1  0
  8  9  1  0
  9 10  1  0
 10 11  1  0
 11 12  1  0
 12 13  1  0
 13 14  2  0
 14 15  1  0
 15 16  2  0
 16 17  1  0
 17 18  2  0
 18 19  1  0
 19 20  1  0
 20 21  1  0
 21 22  1  0
  8  3  1  0
 19 11  2  0
 10  5  1  0
 18 13  1  0
  1 23  1  0
  1 24  1  0
  2 25  1  0
  3 26  1  0
  4 27  1  0
  4 28  1  0
  6 29  1  0
  6 30  1  0
  7 31  1  0
  7 32  1  0
  8 33  1  0
  9 34  1  0
  9 35  1  0
 10 36  1  0
 12 37  1  0
 14 38  1  0
 15 39  1  0
 16 40  1  0
 17 41  1  0
 20 42  1  0
 20 43  1  0
 21 44  1  0
 21 45  1  0
 22 46  1  0
M  END
$$$$
