
     RDKit          3D

 59 63  0  0  0  0  0  0  0  0999 V2000
   -1.3203   -1.0300    2.7046 C   0  0  0  0  0  0  0  0  0  0  0  0
   -2.2798   -0.5583    1.7698 O   0  0  0  0  0  0  0  0  0  0  0  0
   -2.8870   -1.4878    0.9620 C   0  0  0  0  0  0  0  0  0  0  0  0
   -2.7715   -2.8731    1.1317 C   0  0  0  0  0  0  0  0  0  0  0  0
   -3.4361   -3.7527    0.2718 C   0  0  0  0  0  0  0  0  0  0  0  0
   -4.2244   -3.2597   -0.7632 C   0  0  0  0  0  0  0  0  0  0  0  0
   -4.3510   -1.8832   -0.9408 C   0  0  0  0  0  0  0  0  0  0  0  0
   -3.6897   -0.9865   -0.0838 C   0  0  0  0  0  0  0  0  0  0  0  0
   -3.8330    0.4574   -0.3211 C   0  0  0  0  0  0  0  0  0  0  0  0
   -5.2976    1.2145    0.1321 S   0  0  0  0  0  0  0  0  0  0  0  0
   -4.7601    2.7628   -0.3848 C   0  0  0  0  0  0  0  0  0  0  0  0
   -5.4811    3.9722   -0.3184 C   0  0  0  0  0  0  0  0  0  0  0  0
   -4.8863    5.1442   -0.7900 C   0  0  0  0  0  0  0  0  0  0  0  0
   -3.6041    5.1190   -1.3180 C   0  0  0  0  0  0  0  0  0  0  0  0
   -2.8930    3.9171   -1.3819 C   0  0  0  0  0  0  0  0  0  0  0  0
   -3.4665    2.7078   -0.9082 C   0  0  0  0  0  0  0  0  0  0  0  0
   -2.9384    1.3626   -0.8685 C   0  0  0  0  0  0  0  0  0  0  0  0
   -1.6163    0.9501   -1.3234 C   0  0  0  0  0  0  0  0  0  0  0  0
   -0.4877    1.2600   -0.5585 C   0  0  0  0  0  0  0  0  0  0  0  0
    0.7861    0.8661   -0.9833 C   0  0  0  0  0  0  0  0  0  0  0  0
    0.9402    0.1616   -2.1776 C   0  0  0  0  0  0  0  0  0  0  0  0
    2.1157   -0.2932   -2.7064 O   0  0  0  0  0  0  0  0  0  0  0  0
    3.3270   -0.0846   -1.9735 C   0  0  0  0  0  0  0  0  0  0  0  0
    3.5182   -1.1762   -0.9058 C   0  0  0  0  0  0  0  0  0  0  0  0
    4.8043   -1.0926   -0.1879 N   0  0  0  0  0  0  0  0  0  0  0  0
    5.0158   -2.3208    0.6132 C   0  0  0  0  0  0  0  0  0  0  0  0
    6.3129   -2.2453    1.4336 C   0  0  0  0  0  0  0  0  0  0  0  0
    6.3030   -1.1097    2.3085 O   0  0  0  0  0  0  0  0  0  0  0  0
    6.1568    0.0927    1.5428 C   0  0  0  0  0  0  0  0  0  0  0  0
    4.8567    0.0747    0.7204 C   0  0  0  0  0  0  0  0  0  0  0  0
   -0.1904   -0.1373   -2.9441 C   0  0  0  0  0  0  0  0  0  0  0  0
   -1.4639    0.2534   -2.5237 C   0  0  0  0  0  0  0  0  0  0  0  0
   -1.7960   -1.6343    3.4833 H   0  0  0  0  0  0  0  0  0  0  0  0
   -0.5170   -1.5834    2.2067 H   0  0  0  0  0  0  0  0  0  0  0  0
   -0.8701   -0.1582    3.1900 H   0  0  0  0  0  0  0  0  0  0  0  0
   -2.1764   -3.3026    1.9303 H   0  0  0  0  0  0  0  0  0  0  0  0
   -3.3388   -4.8262    0.4145 H   0  0  0  0  0  0  0  0  0  0  0  0
   -4.7409   -3.9443   -1.4310 H   0  0  0  0  0  0  0  0  0  0  0  0
   -4.9665   -1.5065   -1.7549 H   0  0  0  0  0  0  0  0  0  0  0  0
   -6.4860    3.9934    0.0941 H   0  0  0  0  0  0  0  0  0  0  0  0
   -5.4351    6.0818   -0.7427 H   0  0  0  0  0  0  0  0  0  0  0  0
   -3.1479    6.0351   -1.6853 H   0  0  0  0  0  0  0  0  0  0  0  0
   -1.8897    3.9109   -1.8018 H   0  0  0  0  0  0  0  0  0  0  0  0
   -0.5982    1.7977    0.3808 H   0  0  0  0  0  0  0  0  0  0  0  0
    1.6278    1.1232   -0.3509 H   0  0  0  0  0  0  0  0  0  0  0  0
    3.3828    0.9350   -1.5788 H   0  0  0  0  0  0  0  0  0  0  0  0
    4.1415   -0.1651   -2.7037 H   0  0  0  0  0  0  0  0  0  0  0  0
    3.4578   -2.1413   -1.4280 H   0  0  0  0  0  0  0  0  0  0  0  0
    2.6776   -1.1767   -0.2003 H   0  0  0  0  0  0  0  0  0  0  0  0
    5.0714   -3.1924   -0.0490 H   0  0  0  0  0  0  0  0  0  0  0  0
    4.1709   -2.4682    1.2987 H   0  0  0  0  0  0  0  0  0  0  0  0
    7.1942   -2.1946    0.7829 H   0  0  0  0  0  0  0  0  0  0  0  0
    6.4100   -3.1409    2.0555 H   0  0  0  0  0  0  0  0  0  0  0  0
    7.0341    0.2203    0.8967 H   0  0  0  0  0  0  0  0  0  0  0  0
    6.1376    0.9317    2.2458 H   0  0  0  0  0  0  0  0  0  0  0  0
    4.0023    0.0493    1.4096 H   0  0  0  0  0  0  0  0  0  0  0  0
    4.8043    1.0071    0.1492 H   0  0  0  0  0  0  0  0  0  0  0  0
   -0.0789   -0.6841   -3.8774 H   0  0  0  0  0  0  0  0  0  0  0  0
   -2.3289    0.0082   -3.1344 H   0  0  0  0  0  0  0  0  0  0  0  0
  1  2  1  0
  2  3  1  0
  3  4  2  0
  4  5  1  0
  5  6  2  0
  6  7  1  0
  7  8  2  0
  8  9  1  0
  9 10  1  0
 10 11  1  0
 11 12  2  0
 12 13  1  0
 13 14  2  0
 14 15  1  0
 15 16  2  0
 16 17  1  0
 17 18  1  0
 18 19  2  0
 19 20  1  0
 20 21  2  0
 21 22  1  0
 22 23  1  0
 23 24  1  0
 24 25  1  0
 25 26  1  0
 26 27  1  0
 27 28  1  0
 28 29  1  0
 29 30  1  0
 21 31  1  0
 31 32  2  0
  8  3  1  0
 17  9  2  0
 32 18  1  0
 16 11  1  0
 30 25  1  0
  1 33  1  0
  1 34  1  0
  1 35  1  0
  4 36  1  0
  5 37  1  0
  6 38  1  0
  7 39  1  0
 12 40  1  0
 13 41  1  0
 14 42  1  0
 15 43  1  0
 19 44  1  0
 20 45  1  0
 23 46  1  0
 23 47  1  0
 24 48  1  0
 24 49  1  0
 26 50  1  0
 26 51  1  0
 27 52  1  0
 27 53  1  0
 29 54  1  0
 29 55  1  0
 30 56  1  0
 30 57  1  0
 31 58  1  0
 32 59  1  0
M  END
$$$$
