
     RDKit          3D

 56 58  0  0  0  0  0  0  0  0999 V2000
   -8.8329   -0.0773    2.2981 C   0  0  0  0  0  0  0  0  0  0  0  0
   -8.0447    0.7850    1.4909 O   0  0  0  0  0  0  0  0  0  0  0  0
   -6.7137    0.4790    1.3430 C   0  0  0  0  0  0  0  0  0  0  0  0
   -6.1046   -0.6694    1.8610 C   0  0  0  0  0  0  0  0  0  0  0  0
   -4.7408   -0.9002    1.6623 C   0  0  0  0  0  0  0  0  0  0  0  0
   -3.9661    0.0148    0.9453 C   0  0  0  0  0  0  0  0  0  0  0  0
   -2.4958   -0.2318    0.7162 C   0  0  0  0  0  0  0  0  0  0  0  0
   -2.2294   -0.8708   -0.6496 C   0  0  0  0  0  0  0  0  0  0  0  0
   -0.8128   -1.0803   -0.8900 N   0  0  0  0  0  0  0  0  0  0  0  0
    0.0060   -0.0380   -1.2477 C   0  0  0  0  0  0  0  0  0  0  0  0
   -0.4007    1.1046   -1.4293 O   0  0  0  0  0  0  0  0  0  0  0  0
    1.4483   -0.3885   -1.3889 C   0  0  0  0  0  0  0  0  0  0  0  0
    2.3468    0.6112   -1.3113 C   0  0  0  0  0  0  0  0  0  0  0  0
    3.8295    0.4317   -1.4479 C   0  0  0  0  0  0  0  0  0  0  0  0
    4.1904   -1.0080   -1.3559 N   0  0  0  0  0  0  0  0  0  0  0  0
    5.8526   -1.3326   -1.5759 S   0  0  0  0  0  6  0  0  0  0  0  0
    6.0622   -2.7528   -1.3916 O   0  0  0  0  0  0  0  0  0  0  0  0
    6.2740   -0.6674   -2.7899 O   0  0  0  0  0  0  0  0  0  0  0  0
    6.6052   -0.5086   -0.1922 C   0  0  0  0  0  0  0  0  0  0  0  0
    7.3313    0.6722   -0.3899 C   0  0  0  0  0  0  0  0  0  0  0  0
    7.9338    1.2936    0.7043 C   0  0  0  0  0  0  0  0  0  0  0  0
    7.8134    0.7271    1.9713 C   0  0  0  0  0  0  0  0  0  0  0  0
    8.3981    1.3254    3.0175 F   0  0  0  0  0  0  0  0  0  0  0  0
    7.1021   -0.4537    2.1688 C   0  0  0  0  0  0  0  0  0  0  0  0
    6.4938   -1.0808    1.0812 C   0  0  0  0  0  0  0  0  0  0  0  0
    3.3120   -1.8446   -2.2207 C   0  0  0  0  0  0  0  0  0  0  0  0
    1.8826   -1.7967   -1.6736 C   0  0  0  0  0  0  0  0  0  0  0  0
   -4.5770    1.1631    0.4172 C   0  0  0  0  0  0  0  0  0  0  0  0
   -5.9426    1.4037    0.6110 C   0  0  0  0  0  0  0  0  0  0  0  0
   -6.6130    2.5022    0.1299 O   0  0  0  0  0  0  0  0  0  0  0  0
   -5.8585    3.4774   -0.5740 C   0  0  0  0  0  0  0  0  0  0  0  0
   -8.9089   -1.0736    1.8512 H   0  0  0  0  0  0  0  0  0  0  0  0
   -8.4443   -0.1295    3.3203 H   0  0  0  0  0  0  0  0  0  0  0  0
   -9.8424    0.3414    2.3482 H   0  0  0  0  0  0  0  0  0  0  0  0
   -6.6654   -1.4073    2.4243 H   0  0  0  0  0  0  0  0  0  0  0  0
   -4.2911   -1.8002    2.0764 H   0  0  0  0  0  0  0  0  0  0  0  0
   -1.9549    0.7178    0.8132 H   0  0  0  0  0  0  0  0  0  0  0  0
   -2.0966   -0.8750    1.5113 H   0  0  0  0  0  0  0  0  0  0  0  0
   -2.6282   -0.2431   -1.4561 H   0  0  0  0  0  0  0  0  0  0  0  0
   -2.7154   -1.8504   -0.7192 H   0  0  0  0  0  0  0  0  0  0  0  0
   -0.4156   -1.9684   -0.6208 H   0  0  0  0  0  0  0  0  0  0  0  0
    2.0107    1.6327   -1.1390 H   0  0  0  0  0  0  0  0  0  0  0  0
    4.1542    0.8619   -2.4010 H   0  0  0  0  0  0  0  0  0  0  0  0
    4.3068    0.9782   -0.6284 H   0  0  0  0  0  0  0  0  0  0  0  0
    7.4387    1.1055   -1.3828 H   0  0  0  0  0  0  0  0  0  0  0  0
    8.5030    2.2101    0.5790 H   0  0  0  0  0  0  0  0  0  0  0  0
    7.0344   -0.8794    3.1657 H   0  0  0  0  0  0  0  0  0  0  0  0
    5.9456   -2.0100    1.2254 H   0  0  0  0  0  0  0  0  0  0  0  0
    3.6431   -2.8883   -2.2208 H   0  0  0  0  0  0  0  0  0  0  0  0
    3.3458   -1.4780   -3.2543 H   0  0  0  0  0  0  0  0  0  0  0  0
    1.8309   -2.3781   -0.7444 H   0  0  0  0  0  0  0  0  0  0  0  0
    1.2139   -2.2697   -2.4023 H   0  0  0  0  0  0  0  0  0  0  0  0
   -3.9595    1.8580   -0.1447 H   0  0  0  0  0  0  0  0  0  0  0  0
   -6.5396    4.2847   -0.8584 H   0  0  0  0  0  0  0  0  0  0  0  0
   -5.0789    3.9102    0.0619 H   0  0  0  0  0  0  0  0  0  0  0  0
   -5.4361    3.0610   -1.4945 H   0  0  0  0  0  0  0  0  0  0  0  0
  1  2  1  0
  2  3  1  0
  3  4  2  0
  4  5  1  0
  5  6  2  0
  6  7  1  0
  7  8  1  0
  8  9  1  0
  9 10  1  0
 10 11  2  0
 10 12  1  0
 12 13  2  0
 13 14  1  0
 14 15  1  0
 15 16  1  0
 16 17  2  0
 16 18  2  0
 16 19  1  0
 19 20  2  0
 20 21  1  0
 21 22  2  0
 22 23  1  0
 22 24  1  0
 24 25  2  0
 15 26  1  0
 26 27  1  0
  6 28  1  0
 28 29  2  0
 29 30  1  0
 30 31  1  0
 29  3  1  0
 27 12  1  0
 25 19  1  0
  1 32  1  0
  1 33  1  0
  1 34  1  0
  4 35  1  0
  5 36  1  0
  7 37  1  0
  7 38  1  0
  8 39  1  0
  8 40  1  0
  9 41  1  0
 13 42  1  0
 14 43  1  0
 14 44  1  0
 20 45  1  0
 21 46  1  0
 24 47  1  0
 25 48  1  0
 26 49  1  0
 26 50  1  0
 27 51  1  0
 27 52  1  0
 28 53  1  0
 31 54  1  0
 31 55  1  0
 31 56  1  0
M  END
$$$$
