
     RDKit          3D

 80 86  0  0  0  0  0  0  0  0999 V2000
   -5.5834   -2.1357    1.5496 C   0  0  0  0  0  0  0  0  0  0  0  0
   -4.4249   -1.2173    1.8078 C   0  0  0  0  0  0  0  0  0  0  0  0
   -4.4219   -0.3637    2.9368 C   0  0  0  0  0  0  0  0  0  0  0  0
   -5.8103   -0.1913    3.9618 Cl  0  0  0  0  0  0  0  0  0  0  0  0
   -3.2910    0.3896    3.2974 C   0  0  0  0  0  0  0  0  0  0  0  0
   -2.1277    0.3185    2.5425 C   0  0  0  0  0  0  0  0  0  0  0  0
   -2.1382   -0.4672    1.3983 C   0  0  0  0  0  0  0  0  0  0  0  0
   -3.2778   -1.1968    1.0026 C   0  0  0  0  0  0  0  0  0  0  0  0
   -2.9901   -1.8489   -0.2253 N   0  0  0  0  0  0  0  0  0  0  0  0
   -3.9373   -2.3287   -1.2047 C   0  0  0  0  0  0  0  0  0  0  0  0
   -4.3393   -1.2475   -2.1908 C   0  0  0  0  0  0  0  0  0  0  0  0
   -5.2969   -0.2785   -1.8598 C   0  0  0  0  0  0  0  0  0  0  0  0
   -5.6408    0.7244   -2.7692 C   0  0  0  0  0  0  0  0  0  0  0  0
   -5.0267    0.7762   -4.0181 C   0  0  0  0  0  0  0  0  0  0  0  0
   -4.0644   -0.1713   -4.3570 C   0  0  0  0  0  0  0  0  0  0  0  0
   -3.7203   -1.1747   -3.4485 C   0  0  0  0  0  0  0  0  0  0  0  0
   -1.6500   -1.6359   -0.6224 C   0  0  0  0  0  0  0  0  0  0  0  0
   -1.1045   -2.1086   -1.6131 O   0  0  0  0  0  0  0  0  0  0  0  0
   -1.0295   -0.6907    0.4175 C   0  0  1  0  0  0  0  0  0  0  0  0
   -0.6161    0.6091   -0.1747 C   0  0  0  0  0  0  0  0  0  0  0  0
    0.7796    0.6566   -0.3061 C   0  0  0  0  0  0  0  0  0  0  0  0
    1.1391    1.8643   -0.8309 C   0  0  0  0  0  0  0  0  0  0  0  0
    2.3662    2.3501   -1.0069 O   0  0  0  0  0  0  0  0  0  0  0  0
   -0.0573    2.5567   -1.1122 N   0  0  0  0  0  0  0  0  0  0  0  0
   -0.1556    3.8429   -1.7203 C   0  0  0  0  0  0  0  0  0  0  0  0
    0.7160    4.1972   -2.7591 C   0  0  0  0  0  0  0  0  0  0  0  0
    0.6177    5.4580   -3.3503 C   0  0  0  0  0  0  0  0  0  0  0  0
   -0.3454    6.3645   -2.9104 C   0  0  0  0  0  0  0  0  0  0  0  0
   -1.2164    6.0136   -1.8798 C   0  0  0  0  0  0  0  0  0  0  0  0
   -1.1267    4.7545   -1.2838 C   0  0  0  0  0  0  0  0  0  0  0  0
   -1.1426    1.7576   -0.7000 C   0  0  0  0  0  0  0  0  0  0  0  0
   -2.4256    2.0660   -0.8795 O   0  0  0  0  0  0  0  0  0  0  0  0
    1.3754   -0.6101    0.1559 C   0  0  1  0  0  0  0  0  0  0  0  0
    2.6549   -0.5755    0.9812 C   0  0  0  0  0  0  0  0  0  0  0  0
    2.9452   -1.9150    1.5395 N   0  0  0  0  0  0  0  0  0  0  0  0
    4.2228   -2.2744    1.9326 C   0  0  0  0  0  0  0  0  0  0  0  0
    4.4688   -3.2688    2.6031 O   0  0  0  0  0  0  0  0  0  0  0  0
    5.1594   -1.4016    1.4818 O   0  0  0  0  0  0  0  0  0  0  0  0
    6.5701   -1.6080    1.7451 C   0  0  0  0  0  0  0  0  0  0  0  0
    7.0710   -2.9082    1.1062 C   0  0  0  0  0  0  0  0  0  0  0  0
    6.8740   -1.5506    3.2460 C   0  0  0  0  0  0  0  0  0  0  0  0
    7.2682   -0.4249    1.0573 C   0  0  0  0  0  0  0  0  0  0  0  0
    1.8116   -2.6463    2.1308 C   0  0  0  0  0  0  0  0  0  0  0  0
    0.4869   -2.5293    1.3323 C   0  0  0  0  0  0  0  0  0  0  0  0
    0.2577   -1.1324    1.0078 N   0  0  0  0  0  0  0  0  0  0  0  0
   -5.2219   -3.1325    1.2750 H   0  0  0  0  0  0  0  0  0  0  0  0
   -6.2343   -1.7386    0.7682 H   0  0  0  0  0  0  0  0  0  0  0  0
   -6.1976   -2.3076    2.4374 H   0  0  0  0  0  0  0  0  0  0  0  0
   -3.3144    1.0251    4.1798 H   0  0  0  0  0  0  0  0  0  0  0  0
   -1.2415    0.8805    2.8235 H   0  0  0  0  0  0  0  0  0  0  0  0
   -4.8241   -2.7652   -0.7484 H   0  0  0  0  0  0  0  0  0  0  0  0
   -3.4645   -3.1532   -1.7547 H   0  0  0  0  0  0  0  0  0  0  0  0
   -5.7756   -0.2835   -0.8854 H   0  0  0  0  0  0  0  0  0  0  0  0
   -6.3847    1.4689   -2.4970 H   0  0  0  0  0  0  0  0  0  0  0  0
   -5.2934    1.5580   -4.7247 H   0  0  0  0  0  0  0  0  0  0  0  0
   -3.5746   -0.1278   -5.3260 H   0  0  0  0  0  0  0  0  0  0  0  0
   -2.9497   -1.8938   -3.7218 H   0  0  0  0  0  0  0  0  0  0  0  0
    2.3175    3.3217   -1.0615 H   0  0  0  0  0  0  0  0  0  0  0  0
    1.4445    3.4919   -3.1557 H   0  0  0  0  0  0  0  0  0  0  0  0
    1.2849    5.7288   -4.1649 H   0  0  0  0  0  0  0  0  0  0  0  0
   -0.4186    7.3454   -3.3734 H   0  0  0  0  0  0  0  0  0  0  0  0
   -1.9631    6.7250   -1.5352 H   0  0  0  0  0  0  0  0  0  0  0  0
   -1.7924    4.5223   -0.4547 H   0  0  0  0  0  0  0  0  0  0  0  0
   -2.5061    2.6250   -1.6738 H   0  0  0  0  0  0  0  0  0  0  0  0
    1.5160   -1.2658   -0.7156 H   0  0  0  0  0  0  0  0  0  0  0  0
    2.5738    0.1177    1.8282 H   0  0  0  0  0  0  0  0  0  0  0  0
    3.4887   -0.2319    0.3606 H   0  0  0  0  0  0  0  0  0  0  0  0
    6.7661   -2.9678    0.0552 H   0  0  0  0  0  0  0  0  0  0  0  0
    6.6611   -3.7928    1.6029 H   0  0  0  0  0  0  0  0  0  0  0  0
    8.1628   -2.9816    1.1564 H   0  0  0  0  0  0  0  0  0  0  0  0
    7.9529   -1.5362    3.4334 H   0  0  0  0  0  0  0  0  0  0  0  0
    6.4284   -0.6579    3.6990 H   0  0  0  0  0  0  0  0  0  0  0  0
    6.4619   -2.4120    3.7800 H   0  0  0  0  0  0  0  0  0  0  0  0
    7.0315   -0.4034   -0.0131 H   0  0  0  0  0  0  0  0  0  0  0  0
    6.9159    0.5279    1.4701 H   0  0  0  0  0  0  0  0  0  0  0  0
    8.3570   -0.4718    1.1697 H   0  0  0  0  0  0  0  0  0  0  0  0
    1.6692   -2.2368    3.1391 H   0  0  0  0  0  0  0  0  0  0  0  0
    2.0759   -3.7036    2.2445 H   0  0  0  0  0  0  0  0  0  0  0  0
    0.5521   -3.1433    0.4261 H   0  0  0  0  0  0  0  0  0  0  0  0
   -0.3276   -2.9289    1.9462 H   0  0  0  0  0  0  0  0  0  0  0  0
  1  2  1  0
  2  3  2  0
  3  4  1  0
  3  5  1  0
  5  6  2  0
  6  7  1  0
  7  8  2  0
  8  9  1  0
  9 10  1  0
 10 11  1  0
 11 12  2  0
 12 13  1  0
 13 14  2  0
 14 15  1  0
 15 16  2  0
  9 17  1  0
 17 18  2  0
 17 19  1  0
 19 20  1  0
 20 21  1  0
 21 22  2  0
 22 23  1  0
 22 24  1  0
 24 25  1  0
 25 26  2  0
 26 27  1  0
 27 28  2  0
 28 29  1  0
 29 30  2  0
 24 31  1  0
 31 32  1  0
 21 33  1  0
 33 34  1  0
 34 35  1  0
 35 36  1  0
 36 37  2  0
 36 38  1  0
 38 39  1  0
 39 40  1  0
 39 41  1  0
 39 42  1  0
 35 43  1  0
 43 44  1  0
 44 45  1  0
  8  2  1  0
 16 11  1  0
 19 45  1  1
 19  7  1  0
 31 20  2  0
 45 33  1  0
 30 25  1  0
  1 46  1  0
  1 47  1  0
  1 48  1  0
  5 49  1  0
  6 50  1  0
 10 51  1  0
 10 52  1  0
 12 53  1  0
 13 54  1  0
 14 55  1  0
 15 56  1  0
 16 57  1  0
 23 58  1  0
 26 59  1  0
 27 60  1  0
 28 61  1  0
 29 62  1  0
 30 63  1  0
 32 64  1  0
 33 65  1  6
 34 66  1  0
 34 67  1  0
 40 68  1  0
 40 69  1  0
 40 70  1  0
 41 71  1  0
 41 72  1  0
 41 73  1  0
 42 74  1  0
 42 75  1  0
 42 76  1  0
 43 77  1  0
 43 78  1  0
 44 79  1  0
 44 80  1  0
M  END
$$$$
