
     RDKit          3D

 54 57  0  0  0  0  0  0  0  0999 V2000
    7.6280    3.8777    2.0609 C   0  0  0  0  0  0  0  0  0  0  0  0
    7.5978    3.0057    0.9383 O   0  0  0  0  0  0  0  0  0  0  0  0
    6.4405    2.3103    0.7265 C   0  0  0  0  0  0  0  0  0  0  0  0
    6.4553    1.4731   -0.3872 C   0  0  0  0  0  0  0  0  0  0  0  0
    5.3331    0.7052   -0.7180 C   0  0  0  0  0  0  0  0  0  0  0  0
    4.1572    0.7522    0.0512 C   0  0  0  0  0  0  0  0  0  0  0  0
    2.9797   -0.0637   -0.3193 C   0  0  0  0  0  0  0  0  0  0  0  0
    1.6788    0.2994   -0.0191 C   0  0  0  0  0  0  0  0  0  0  0  0
    0.6401   -0.5506   -0.4040 C   0  0  0  0  0  0  0  0  0  0  0  0
   -0.7191   -0.1322    0.0040 C   0  0  0  0  0  0  0  0  0  0  0  0
   -1.1226    0.9913   -0.2659 O   0  0  0  0  0  0  0  0  0  0  0  0
   -1.4281   -1.0543    0.7403 N   0  0  0  0  0  0  0  0  0  0  0  0
   -2.7472   -0.7531    1.2678 C   0  0  0  0  0  0  0  0  0  0  0  0
   -3.8369   -0.7755    0.1775 C   0  0  0  0  0  0  0  0  0  0  0  0
   -5.2060   -0.6446    0.7093 N   0  0  0  0  0  0  0  0  0  0  0  0
   -6.2192   -0.8338   -0.3545 C   0  0  0  0  0  0  0  0  0  0  0  0
   -6.7888    0.4837   -0.9034 C   0  0  0  0  0  0  0  0  0  0  0  0
   -7.4330    1.2769    0.1025 O   0  0  0  0  0  0  0  0  0  0  0  0
   -6.8855    1.0744    1.4124 C   0  0  0  0  0  0  0  0  0  0  0  0
   -5.4058    0.6613    1.3817 C   0  0  0  0  0  0  0  0  0  0  0  0
    0.8929   -1.7322   -1.1333 C   0  0  0  0  0  0  0  0  0  0  0  0
   -0.0978   -2.6156   -1.6373 C   0  0  0  0  0  0  0  0  0  0  0  0
    0.2533   -3.7655   -2.3416 C   0  0  0  0  0  0  0  0  0  0  0  0
    1.5932   -4.0466   -2.5622 C   0  0  0  0  0  0  0  0  0  0  0  0
    2.5702   -3.1689   -2.0876 C   0  0  0  0  0  0  0  0  0  0  0  0
    2.2465   -2.0148   -1.3866 C   0  0  0  0  0  0  0  0  0  0  0  0
    3.2484   -1.2145   -0.9859 N   0  0  0  0  0  0  0  0  0  0  0  0
    4.1667    1.5973    1.1760 C   0  0  0  0  0  0  0  0  0  0  0  0
    5.2911    2.3682    1.5101 C   0  0  0  0  0  0  0  0  0  0  0  0
    7.5068    3.3210    2.9960 H   0  0  0  0  0  0  0  0  0  0  0  0
    6.8741    4.6666    1.9693 H   0  0  0  0  0  0  0  0  0  0  0  0
    8.6109    4.3580    2.0847 H   0  0  0  0  0  0  0  0  0  0  0  0
    7.3467    1.4134   -1.0068 H   0  0  0  0  0  0  0  0  0  0  0  0
    5.3825    0.0626   -1.5963 H   0  0  0  0  0  0  0  0  0  0  0  0
    1.4527    1.2264    0.4981 H   0  0  0  0  0  0  0  0  0  0  0  0
   -0.9906   -1.9285    1.0053 H   0  0  0  0  0  0  0  0  0  0  0  0
   -2.7000    0.2278    1.7533 H   0  0  0  0  0  0  0  0  0  0  0  0
   -2.9612   -1.5059    2.0344 H   0  0  0  0  0  0  0  0  0  0  0  0
   -3.6372   -0.0016   -0.5748 H   0  0  0  0  0  0  0  0  0  0  0  0
   -3.7526   -1.7398   -0.3416 H   0  0  0  0  0  0  0  0  0  0  0  0
   -7.0434   -1.4036    0.0929 H   0  0  0  0  0  0  0  0  0  0  0  0
   -5.8346   -1.4490   -1.1765 H   0  0  0  0  0  0  0  0  0  0  0  0
   -7.5319    0.2764   -1.6801 H   0  0  0  0  0  0  0  0  0  0  0  0
   -5.9984    1.0883   -1.3632 H   0  0  0  0  0  0  0  0  0  0  0  0
   -7.0028    2.0129    1.9641 H   0  0  0  0  0  0  0  0  0  0  0  0
   -7.4919    0.3185    1.9253 H   0  0  0  0  0  0  0  0  0  0  0  0
   -5.0282    0.5986    2.4080 H   0  0  0  0  0  0  0  0  0  0  0  0
   -4.8459    1.4492    0.8606 H   0  0  0  0  0  0  0  0  0  0  0  0
   -1.1561   -2.4030   -1.5021 H   0  0  0  0  0  0  0  0  0  0  0  0
   -0.5164   -4.4320   -2.7227 H   0  0  0  0  0  0  0  0  0  0  0  0
    1.8852   -4.9377   -3.1120 H   0  0  0  0  0  0  0  0  0  0  0  0
    3.6191   -3.3888   -2.2769 H   0  0  0  0  0  0  0  0  0  0  0  0
    3.2989    1.6614    1.8288 H   0  0  0  0  0  0  0  0  0  0  0  0
    5.2316    2.9981    2.3915 H   0  0  0  0  0  0  0  0  0  0  0  0
  1  2  1  0
  2  3  1  0
  3  4  2  0
  4  5  1  0
  5  6  2  0
  6  7  1  0
  7  8  2  0
  8  9  1  0
  9 10  1  0
 10 11  2  0
 10 12  1  0
 12 13  1  0
 13 14  1  0
 14 15  1  0
 15 16  1  0
 16 17  1  0
 17 18  1  0
 18 19  1  0
 19 20  1  0
  9 21  2  0
 21 22  1  0
 22 23  2  0
 23 24  1  0
 24 25  2  0
 25 26  1  0
 26 27  2  0
  6 28  1  0
 28 29  2  0
 29  3  1  0
 27  7  1  0
 20 15  1  0
 26 21  1  0
  1 30  1  0
  1 31  1  0
  1 32  1  0
  4 33  1  0
  5 34  1  0
  8 35  1  0
 12 36  1  0
 13 37  1  0
 13 38  1  0
 14 39  1  0
 14 40  1  0
 16 41  1  0
 16 42  1  0
 17 43  1  0
 17 44  1  0
 19 45  1  0
 19 46  1  0
 20 47  1  0
 20 48  1  0
 22 49  1  0
 23 50  1  0
 24 51  1  0
 25 52  1  0
 28 53  1  0
 29 54  1  0
M  END
$$$$
