
     RDKit          3D

 46 48  0  0  0  0  0  0  0  0999 V2000
   -1.8635    1.9613   -0.0036 C   0  0  0  0  0  0  0  0  0  0  0  0
   -2.1558    0.5127    0.2952 C   0  0  0  0  0  0  0  0  0  0  0  0
   -3.3002   -0.0892   -0.0979 C   0  0  0  0  0  0  0  0  0  0  0  0
   -4.4108    0.5542   -0.8068 C   0  0  0  0  0  0  0  0  0  0  0  0
   -4.5997    0.3095   -2.1708 C   0  0  0  0  0  0  0  0  0  0  0  0
   -5.6594    0.9121   -2.8516 C   0  0  0  0  0  0  0  0  0  0  0  0
   -6.5341    1.7594   -2.1720 C   0  0  0  0  0  0  0  0  0  0  0  0
   -6.3525    2.0037   -0.8112 C   0  0  0  0  0  0  0  0  0  0  0  0
   -5.2944    1.4011   -0.1283 C   0  0  0  0  0  0  0  0  0  0  0  0
   -1.1640   -0.3076    1.0011 C   0  0  0  0  0  0  0  0  0  0  0  0
   -0.0113   -0.0050    1.6199 C   0  0  0  0  0  0  0  0  0  0  0  0
    0.7571    1.5185    1.8520 S   0  0  0  0  0  0  0  0  0  0  0  0
    2.1105    0.8316    2.7276 C   0  0  0  0  0  0  0  0  0  0  0  0
    3.3604    1.7254    3.3725 S   0  0  0  0  0  0  0  0  0  0  0  0
    1.9527   -0.5348    2.7934 N   0  0  0  0  0  0  0  0  0  0  0  0
    2.9794   -1.4138    3.4710 N   0  0  0  0  0  0  0  0  0  0  0  0
    3.9491   -2.4177    2.4917 S   0  0  0  0  0  6  0  0  0  0  0  0
    5.3021   -2.2355    2.9751 O   0  0  0  0  0  0  0  0  0  0  0  0
    3.3474   -3.7293    2.4251 O   0  0  0  0  0  0  0  0  0  0  0  0
    3.8618   -1.6775    0.8786 C   0  0  0  0  0  0  0  0  0  0  0  0
    4.7146   -0.6192    0.5565 C   0  0  0  0  0  0  0  0  0  0  0  0
    4.6185   -0.0185   -0.6994 C   0  0  0  0  0  0  0  0  0  0  0  0
    3.6811   -0.4750   -1.6363 C   0  0  0  0  0  0  0  0  0  0  0  0
    3.6045    0.1523   -2.9980 C   0  0  0  0  0  0  0  0  0  0  0  0
    2.8652   -1.5684   -1.3158 C   0  0  0  0  0  0  0  0  0  0  0  0
    2.9562   -2.1743   -0.0625 C   0  0  0  0  0  0  0  0  0  0  0  0
    0.8067   -1.0910    2.2479 C   0  0  0  0  0  0  0  0  0  0  0  0
    0.4910   -2.2719    2.2468 O   0  0  0  0  0  0  0  0  0  0  0  0
   -0.9042    2.0643   -0.5214 H   0  0  0  0  0  0  0  0  0  0  0  0
   -1.8520    2.5514    0.9181 H   0  0  0  0  0  0  0  0  0  0  0  0
   -2.6037    2.4245   -0.6628 H   0  0  0  0  0  0  0  0  0  0  0  0
   -3.4812   -1.1440    0.1038 H   0  0  0  0  0  0  0  0  0  0  0  0
   -3.9234   -0.3484   -2.7111 H   0  0  0  0  0  0  0  0  0  0  0  0
   -5.8027    0.7201   -3.9119 H   0  0  0  0  0  0  0  0  0  0  0  0
   -7.3590    2.2278   -2.7029 H   0  0  0  0  0  0  0  0  0  0  0  0
   -7.0359    2.6619   -0.2810 H   0  0  0  0  0  0  0  0  0  0  0  0
   -5.1637    1.5952    0.9334 H   0  0  0  0  0  0  0  0  0  0  0  0
   -1.4345   -1.3684    1.0201 H   0  0  0  0  0  0  0  0  0  0  0  0
    3.5899   -0.9100    4.1236 H   0  0  0  0  0  0  0  0  0  0  0  0
    5.4525   -0.2566    1.2692 H   0  0  0  0  0  0  0  0  0  0  0  0
    5.2848    0.8061   -0.9475 H   0  0  0  0  0  0  0  0  0  0  0  0
    3.8673    1.2145   -2.9535 H   0  0  0  0  0  0  0  0  0  0  0  0
    2.5885    0.0859   -3.4010 H   0  0  0  0  0  0  0  0  0  0  0  0
    4.2914   -0.3547   -3.6825 H   0  0  0  0  0  0  0  0  0  0  0  0
    2.1573   -1.9586   -2.0450 H   0  0  0  0  0  0  0  0  0  0  0  0
    2.3160   -3.0239    0.1734 H   0  0  0  0  0  0  0  0  0  0  0  0
  1  2  1  0
  2  3  2  3
  3  4  1  0
  4  5  2  0
  5  6  1  0
  6  7  2  0
  7  8  1  0
  8  9  2  0
  2 10  1  0
 10 11  2  3
 11 12  1  0
 12 13  1  0
 13 14  2  0
 13 15  1  0
 15 16  1  0
 16 17  1  0
 17 18  2  0
 17 19  2  0
 17 20  1  0
 20 21  2  0
 21 22  1  0
 22 23  2  0
 23 24  1  0
 23 25  1  0
 25 26  2  0
 15 27  1  0
 27 28  2  0
  9  4  1  0
 27 11  1  0
 26 20  1  0
  1 29  1  0
  1 30  1  0
  1 31  1  0
  3 32  1  0
  5 33  1  0
  6 34  1  0
  7 35  1  0
  8 36  1  0
  9 37  1  0
 10 38  1  0
 16 39  1  0
 21 40  1  0
 22 41  1  0
 24 42  1  0
 24 43  1  0
 24 44  1  0
 25 45  1  0
 26 46  1  0
M  END
$$$$
