
     RDKit          3D

 58 60  0  0  0  0  0  0  0  0999 V2000
   10.1264    1.5786   -0.6155 C   0  0  0  0  0  0  0  0  0  0  0  0
    8.6997    1.0650   -0.7333 C   0  0  0  0  0  0  0  0  0  0  0  0
    8.1275    0.6873    0.6344 C   0  0  0  0  0  0  0  0  0  0  0  0
    6.7067    0.1320    0.5353 C   0  0  0  0  0  0  0  0  0  0  0  0
    5.8435    1.1541    0.0390 O   0  0  0  0  0  0  0  0  0  0  0  0
    4.5137    0.8552   -0.0618 C   0  0  0  0  0  0  0  0  0  0  0  0
    3.9276   -0.3817    0.2085 C   0  0  0  0  0  0  0  0  0  0  0  0
    2.5440   -0.5516    0.0708 C   0  0  0  0  0  0  0  0  0  0  0  0
    1.7356    0.5164   -0.3391 C   0  0  0  0  0  0  0  0  0  0  0  0
    0.2551    0.3661   -0.4752 C   0  0  0  0  0  0  0  0  0  0  0  0
   -0.4209    1.3048   -0.8780 O   0  0  0  0  0  0  0  0  0  0  0  0
   -0.2600   -0.8668   -0.1506 N   0  0  0  0  0  0  0  0  0  0  0  0
   -1.3584   -0.8914    0.5502 C   0  0  0  0  0  0  0  0  0  0  0  0
   -1.9754   -2.2152    0.9412 C   0  0  0  0  0  0  0  0  0  0  0  0
   -3.4191   -2.3456    0.5202 C   0  0  0  0  0  0  0  0  0  0  0  0
   -3.7462   -2.5016   -0.8355 C   0  0  0  0  0  0  0  0  0  0  0  0
   -5.0819   -2.5290   -1.2432 C   0  0  0  0  0  0  0  0  0  0  0  0
   -6.0975   -2.4013   -0.2878 C   0  0  0  0  0  0  0  0  0  0  0  0
   -7.5016   -2.3885   -0.7154 N   0  0  0  0  0  4  0  0  0  0  0  0
   -7.7362   -2.4415   -1.9317 O   0  0  0  0  0  0  0  0  0  0  0  0
   -8.3741   -2.3255    0.1635 O   0  0  0  0  0  1  0  0  0  0  0  0
   -5.7851   -2.2677    1.0702 C   0  0  0  0  0  0  0  0  0  0  0  0
   -4.4473   -2.2412    1.4695 C   0  0  0  0  0  0  0  0  0  0  0  0
   -2.0598    0.3430    1.0905 C   0  0  0  0  0  0  0  0  0  0  0  0
   -1.6943    0.8801    2.1193 O   0  0  0  0  0  0  0  0  0  0  0  0
   -3.0841    0.6602    0.2854 O   0  0  0  0  0  0  0  0  0  0  0  0
   -3.8617    1.7746    0.7210 C   0  0  0  0  0  0  0  0  0  0  0  0
   -5.2056    1.5920    0.1174 C   0  0  0  0  0  0  0  0  0  0  0  0
   -5.6709    1.6015   -1.1819 C   0  0  0  0  0  0  0  0  0  0  0  0
   -7.0642    1.3601   -1.1104 C   0  0  0  0  0  0  0  0  0  0  0  0
   -7.3604    1.2166    0.2241 C   0  0  0  0  0  0  0  0  0  0  0  0
   -6.2376    1.3484    0.9773 O   0  0  0  0  0  0  0  0  0  0  0  0
    2.3264    1.7536   -0.6175 C   0  0  0  0  0  0  0  0  0  0  0  0
    3.7073    1.9173   -0.4793 C   0  0  0  0  0  0  0  0  0  0  0  0
   10.5101    1.8582   -1.6017 H   0  0  0  0  0  0  0  0  0  0  0  0
   10.7873    0.8112   -0.1993 H   0  0  0  0  0  0  0  0  0  0  0  0
   10.1743    2.4621    0.0299 H   0  0  0  0  0  0  0  0  0  0  0  0
    8.6848    0.1918   -1.3959 H   0  0  0  0  0  0  0  0  0  0  0  0
    8.0805    1.8381   -1.2018 H   0  0  0  0  0  0  0  0  0  0  0  0
    8.1240    1.5769    1.2755 H   0  0  0  0  0  0  0  0  0  0  0  0
    8.7701   -0.0621    1.1103 H   0  0  0  0  0  0  0  0  0  0  0  0
    6.6977   -0.7335   -0.1383 H   0  0  0  0  0  0  0  0  0  0  0  0
    6.3834   -0.1752    1.5374 H   0  0  0  0  0  0  0  0  0  0  0  0
    4.5157   -1.2359    0.5279 H   0  0  0  0  0  0  0  0  0  0  0  0
    2.1104   -1.5251    0.2866 H   0  0  0  0  0  0  0  0  0  0  0  0
   -1.3974   -3.0338    0.4955 H   0  0  0  0  0  0  0  0  0  0  0  0
   -1.8792   -2.3234    2.0283 H   0  0  0  0  0  0  0  0  0  0  0  0
   -2.9613   -2.5767   -1.5872 H   0  0  0  0  0  0  0  0  0  0  0  0
   -5.3110   -2.6316   -2.3019 H   0  0  0  0  0  0  0  0  0  0  0  0
   -6.5645   -2.1595    1.8214 H   0  0  0  0  0  0  0  0  0  0  0  0
   -4.2177   -2.1113    2.5259 H   0  0  0  0  0  0  0  0  0  0  0  0
   -3.4023    2.6974    0.3521 H   0  0  0  0  0  0  0  0  0  0  0  0
   -3.9399    1.8179    1.8137 H   0  0  0  0  0  0  0  0  0  0  0  0
   -5.0727    1.7608   -2.0684 H   0  0  0  0  0  0  0  0  0  0  0  0
   -7.7675    1.2952   -1.9296 H   0  0  0  0  0  0  0  0  0  0  0  0
   -8.2725    1.0203    0.7715 H   0  0  0  0  0  0  0  0  0  0  0  0
    1.7184    2.5970   -0.9383 H   0  0  0  0  0  0  0  0  0  0  0  0
    4.1580    2.8832   -0.6949 H   0  0  0  0  0  0  0  0  0  0  0  0
  1  2  1  0
  2  3  1  0
  3  4  1  0
  4  5  1  0
  5  6  1  0
  6  7  2  0
  7  8  1  0
  8  9  2  0
  9 10  1  0
 10 11  2  0
 10 12  1  0
 12 13  2  3
 13 14  1  0
 14 15  1  0
 15 16  2  0
 16 17  1  0
 17 18  2  0
 18 19  1  0
 19 20  2  0
 19 21  1  0
 18 22  1  0
 22 23  2  0
 13 24  1  0
 24 25  2  0
 24 26  1  0
 26 27  1  0
 27 28  1  0
 28 29  2  0
 29 30  1  0
 30 31  2  0
 31 32  1  0
  9 33  1  0
 33 34  2  0
 34  6  1  0
 23 15  1  0
 32 28  1  0
  1 35  1  0
  1 36  1  0
  1 37  1  0
  2 38  1  0
  2 39  1  0
  3 40  1  0
  3 41  1  0
  4 42  1  0
  4 43  1  0
  7 44  1  0
  8 45  1  0
 14 46  1  0
 14 47  1  0
 16 48  1  0
 17 49  1  0
 22 50  1  0
 23 51  1  0
 27 52  1  0
 27 53  1  0
 29 54  1  0
 30 55  1  0
 31 56  1  0
 33 57  1  0
 34 58  1  0
M  CHG  2  19   1  21  -1
M  END
$$$$
