
     RDKit          3D

 45 47  0  0  0  0  0  0  0  0999 V2000
    1.5318   -1.7480   -1.1137 O   0  0  0  0  0  0  0  0  0  0  0  0
    2.5623   -1.1683   -0.7882 C   0  0  0  0  0  0  0  0  0  0  0  0
    2.6920    0.3437   -0.6563 C   0  0  0  0  0  0  0  0  0  0  0  0
    1.3932    0.9459   -0.3916 N   0  0  0  0  0  0  0  0  0  0  0  0
    0.9515    1.0733    0.9101 C   0  0  0  0  0  0  0  0  0  0  0  0
    1.6545    0.8219    1.8822 O   0  0  0  0  0  0  0  0  0  0  0  0
   -0.4656    1.4953    1.0909 C   0  0  0  0  0  0  0  0  0  0  0  0
   -1.1212    1.1411    2.2741 C   0  0  0  0  0  0  0  0  0  0  0  0
   -2.4522    1.5175    2.4826 C   0  0  0  0  0  0  0  0  0  0  0  0
   -3.1530    2.2634    1.5209 C   0  0  0  0  0  0  0  0  0  0  0  0
   -4.5537    2.6587    1.7419 C   0  0  0  0  0  0  0  0  0  0  0  0
   -4.9499    4.0036    1.6510 C   0  0  0  0  0  0  0  0  0  0  0  0
   -6.2797    4.3790    1.8606 C   0  0  0  0  0  0  0  0  0  0  0  0
   -7.2369    3.4144    2.1640 C   0  0  0  0  0  0  0  0  0  0  0  0
   -6.8657    2.0757    2.2589 C   0  0  0  0  0  0  0  0  0  0  0  0
   -5.5353    1.7020    2.0502 C   0  0  0  0  0  0  0  0  0  0  0  0
   -2.4756    2.6262    0.3445 C   0  0  0  0  0  0  0  0  0  0  0  0
   -1.1443    2.2505    0.1289 C   0  0  0  0  0  0  0  0  0  0  0  0
    3.7666   -1.7610   -0.5622 O   0  0  0  0  0  0  0  0  0  0  0  0
    3.7888   -3.1864   -0.6931 C   0  0  0  0  0  0  0  0  0  0  0  0
    4.2561   -3.5540   -2.0785 C   0  0  0  0  0  0  0  0  0  0  0  0
    3.3295   -3.9058   -3.0708 C   0  0  0  0  0  0  0  0  0  0  0  0
    3.7604   -4.2254   -4.3604 C   0  0  0  0  0  0  0  0  0  0  0  0
    5.1191   -4.1877   -4.6653 C   0  0  0  0  0  0  0  0  0  0  0  0
    5.6499   -4.5791   -6.2545 Cl  0  0  0  0  0  0  0  0  0  0  0  0
    6.0507   -3.8296   -3.6932 C   0  0  0  0  0  0  0  0  0  0  0  0
    5.6199   -3.5096   -2.4035 C   0  0  0  0  0  0  0  0  0  0  0  0
    3.3873    0.5903    0.1516 H   0  0  0  0  0  0  0  0  0  0  0  0
    3.0611    0.7461   -1.6036 H   0  0  0  0  0  0  0  0  0  0  0  0
    0.6876    0.8064   -1.1046 H   0  0  0  0  0  0  0  0  0  0  0  0
   -0.5991    0.5696    3.0392 H   0  0  0  0  0  0  0  0  0  0  0  0
   -2.9373    1.2341    3.4151 H   0  0  0  0  0  0  0  0  0  0  0  0
   -4.2162    4.7756    1.4276 H   0  0  0  0  0  0  0  0  0  0  0  0
   -6.5652    5.4254    1.7900 H   0  0  0  0  0  0  0  0  0  0  0  0
   -8.2712    3.7057    2.3274 H   0  0  0  0  0  0  0  0  0  0  0  0
   -7.6105    1.3198    2.4936 H   0  0  0  0  0  0  0  0  0  0  0  0
   -5.2693    0.6490    2.1194 H   0  0  0  0  0  0  0  0  0  0  0  0
   -2.9889    3.2061   -0.4209 H   0  0  0  0  0  0  0  0  0  0  0  0
   -0.6513    2.5757   -0.7825 H   0  0  0  0  0  0  0  0  0  0  0  0
    2.8221   -3.6464   -0.4536 H   0  0  0  0  0  0  0  0  0  0  0  0
    4.4976   -3.5745    0.0478 H   0  0  0  0  0  0  0  0  0  0  0  0
    2.2643   -3.9262   -2.8445 H   0  0  0  0  0  0  0  0  0  0  0  0
    3.0321   -4.4981   -5.1194 H   0  0  0  0  0  0  0  0  0  0  0  0
    7.1101   -3.7945   -3.9324 H   0  0  0  0  0  0  0  0  0  0  0  0
    6.3535   -3.2218   -1.6529 H   0  0  0  0  0  0  0  0  0  0  0  0
  1  2  2  0
  2  3  1  0
  3  4  1  0
  4  5  1  0
  5  6  2  0
  5  7  1  0
  7  8  2  0
  8  9  1  0
  9 10  2  0
 10 11  1  0
 11 12  2  0
 12 13  1  0
 13 14  2  0
 14 15  1  0
 15 16  2  0
 10 17  1  0
 17 18  2  0
  2 19  1  0
 19 20  1  0
 20 21  1  0
 21 22  2  0
 22 23  1  0
 23 24  2  0
 24 25  1  0
 24 26  1  0
 26 27  2  0
 18  7  1  0
 27 21  1  0
 16 11  1  0
  3 28  1  0
  3 29  1  0
  4 30  1  0
  8 31  1  0
  9 32  1  0
 12 33  1  0
 13 34  1  0
 14 35  1  0
 15 36  1  0
 16 37  1  0
 17 38  1  0
 18 39  1  0
 20 40  1  0
 20 41  1  0
 22 42  1  0
 23 43  1  0
 26 44  1  0
 27 45  1  0
M  END
$$$$
