
     RDKit          3D

 36 38  0  0  0  0  0  0  0  0999 V2000
   -1.6030   -3.4901    1.9849 C   0  0  0  0  0  0  0  0  0  0  0  0
   -1.1823   -2.1777    1.3559 C   0  0  0  0  0  0  0  0  0  0  0  0
    0.0976   -2.0203    1.1730 N   0  0  0  0  0  0  0  0  0  0  0  0
    0.5297   -0.8555    0.6202 N   0  0  0  0  0  0  0  0  0  0  0  0
    1.8846   -0.7612    0.2439 C   0  0  0  0  0  0  0  0  0  0  0  0
    2.7572   -1.7252    0.6491 N   0  0  0  0  0  0  0  0  0  0  0  0
    4.0366   -1.6630    0.2744 C   0  0  0  0  0  0  0  0  0  0  0  0
    4.6111   -0.7294   -0.4793 N   0  0  0  0  0  0  0  0  0  0  0  0
    3.7463    0.2285   -0.8483 C   0  0  0  0  0  0  0  0  0  0  0  0
    4.2937    1.5177   -1.8082 S   0  0  0  0  0  0  0  0  0  0  0  0
    2.7552    2.2526   -1.8264 C   0  0  0  0  0  0  0  0  0  0  0  0
    2.5696    3.5370   -2.5684 C   0  0  0  0  0  0  0  0  0  0  0  0
    1.8195    1.5305   -1.0956 C   0  0  0  0  0  0  0  0  0  0  0  0
    0.4009    1.9660   -0.9118 C   0  0  0  0  0  0  0  0  0  0  0  0
    2.3955    0.3097   -0.5374 C   0  0  0  0  0  0  0  0  0  0  0  0
   -2.2688   -1.1980    1.0263 C   0  0  0  0  0  0  0  0  0  0  0  0
   -3.4245   -1.1377    1.7993 C   0  0  0  0  0  0  0  0  0  0  0  0
   -4.4189   -0.2319    1.4385 C   0  0  0  0  0  0  0  0  0  0  0  0
   -4.2337    0.5764    0.3235 C   0  0  0  0  0  0  0  0  0  0  0  0
   -3.0507    0.4553   -0.3862 C   0  0  0  0  0  0  0  0  0  0  0  0
   -2.0569   -0.4010   -0.0586 N   0  0  0  0  0  0  0  0  0  0  0  0
   -1.6126   -3.3829    3.0734 H   0  0  0  0  0  0  0  0  0  0  0  0
   -0.8899   -4.2759    1.7161 H   0  0  0  0  0  0  0  0  0  0  0  0
   -2.5914   -3.7995    1.6346 H   0  0  0  0  0  0  0  0  0  0  0  0
   -0.1197   -0.3525    0.0159 H   0  0  0  0  0  0  0  0  0  0  0  0
    4.6764   -2.4666    0.6234 H   0  0  0  0  0  0  0  0  0  0  0  0
    2.3924    4.3562   -1.8638 H   0  0  0  0  0  0  0  0  0  0  0  0
    3.4407    3.7988   -3.1779 H   0  0  0  0  0  0  0  0  0  0  0  0
    1.7075    3.4666   -3.2399 H   0  0  0  0  0  0  0  0  0  0  0  0
   -0.2594    1.3515   -1.5304 H   0  0  0  0  0  0  0  0  0  0  0  0
    0.2520    3.0107   -1.2019 H   0  0  0  0  0  0  0  0  0  0  0  0
    0.1000    1.8831    0.1369 H   0  0  0  0  0  0  0  0  0  0  0  0
   -3.5598   -1.7652    2.6732 H   0  0  0  0  0  0  0  0  0  0  0  0
   -5.3325   -0.1590    2.0231 H   0  0  0  0  0  0  0  0  0  0  0  0
   -4.9942    1.2861    0.0151 H   0  0  0  0  0  0  0  0  0  0  0  0
   -2.8680    1.0658   -1.2667 H   0  0  0  0  0  0  0  0  0  0  0  0
  1  2  1  0
  2  3  2  3
  3  4  1  0
  4  5  1  0
  5  6  2  0
  6  7  1  0
  7  8  2  0
  8  9  1  0
  9 10  1  0
 10 11  1  0
 11 12  1  0
 11 13  2  0
 13 14  1  0
 13 15  1  0
  2 16  1  0
 16 17  2  0
 17 18  1  0
 18 19  2  0
 19 20  1  0
 20 21  2  0
 15  5  1  0
 21 16  1  0
 15  9  2  0
  1 22  1  0
  1 23  1  0
  1 24  1  0
  4 25  1  0
  7 26  1  0
 12 27  1  0
 12 28  1  0
 12 29  1  0
 14 30  1  0
 14 31  1  0
 14 32  1  0
 17 33  1  0
 18 34  1  0
 19 35  1  0
 20 36  1  0
M  END
$$$$
