
     RDKit          3D

 58 62  0  0  0  0  0  0  0  0999 V2000
   -5.6257   -1.6999   -1.6640 C   0  0  0  0  0  0  0  0  0  0  0  0
   -4.1069   -1.7504   -1.4899 C   0  0  0  0  0  0  0  0  0  0  0  0
   -3.7052   -2.0393   -0.0223 C   0  0  0  0  0  0  0  0  0  0  0  0
   -3.0393   -0.7707    0.4017 C   0  0  0  0  0  0  0  0  0  0  0  0
   -2.5464   -0.4630    1.6566 C   0  0  0  0  0  0  0  0  0  0  0  0
   -1.9819    0.7965    1.8606 C   0  0  0  0  0  0  0  0  0  0  0  0
   -1.9333    1.7257    0.8181 C   0  0  0  0  0  0  0  0  0  0  0  0
   -2.4109    1.3975   -0.4537 C   0  0  0  0  0  0  0  0  0  0  0  0
   -2.9381    0.1346   -0.6508 C   0  0  0  0  0  0  0  0  0  0  0  0
   -3.5484   -0.3985   -1.8242 N   0  0  0  0  0  0  0  0  0  0  0  0
   -2.8228   -0.1844   -3.3417 S   0  0  0  0  0  6  0  0  0  0  0  0
   -2.5560    1.2221   -3.5535 O   0  0  0  0  0  0  0  0  0  0  0  0
   -3.5846   -0.9408   -4.3152 O   0  0  0  0  0  0  0  0  0  0  0  0
   -1.2394   -0.9982   -3.1754 C   0  0  0  0  0  0  0  0  0  0  0  0
   -1.1139   -2.3634   -3.4742 C   0  0  0  0  0  0  0  0  0  0  0  0
    0.1377   -2.9788   -3.3978 C   0  0  0  0  0  0  0  0  0  0  0  0
    1.2626   -2.2345   -3.0322 C   0  0  0  0  0  0  0  0  0  0  0  0
    1.1259   -0.8753   -2.7354 C   0  0  0  0  0  0  0  0  0  0  0  0
    2.3157   -0.0986   -2.3309 C   0  0  0  0  0  0  0  0  0  0  0  0
    3.2225    0.0480   -3.1424 O   0  0  0  0  0  0  0  0  0  0  0  0
    2.3333    0.4271   -1.0453 N   0  0  0  0  0  0  0  0  0  0  0  0
    3.4252    1.3274   -0.6629 C   0  0  0  0  0  0  0  0  0  0  0  0
    3.0411    2.2567    0.5060 C   0  0  0  0  0  0  0  0  0  0  0  0
    2.5615    1.4927    1.6720 N   0  0  0  0  0  0  0  0  0  0  0  0
    3.2638    1.6268    2.8664 C   0  0  0  0  0  0  0  0  0  0  0  0
    4.0994    2.6643    3.0235 N   0  0  0  0  0  0  0  0  0  0  0  0
    4.7711    2.7706    4.1947 C   0  0  0  0  0  0  0  0  0  0  0  0
    4.6424    1.8783    5.2260 C   0  0  0  0  0  0  0  0  0  0  0  0
    3.7589    0.8585    4.9919 C   0  0  0  0  0  0  0  0  0  0  0  0
    3.0674    0.7162    3.8385 N   0  0  0  0  0  0  0  0  0  0  0  0
    2.0200    0.1530    1.4195 C   0  0  0  0  0  0  0  0  0  0  0  0
    1.3870    0.0708    0.0216 C   0  0  0  0  0  0  0  0  0  0  0  0
   -0.1186   -0.2406   -2.8197 C   0  0  0  0  0  0  0  0  0  0  0  0
   -6.0839   -2.6640   -1.4212 H   0  0  0  0  0  0  0  0  0  0  0  0
   -6.0820   -0.9346   -1.0213 H   0  0  0  0  0  0  0  0  0  0  0  0
   -5.8865   -1.4589   -2.7027 H   0  0  0  0  0  0  0  0  0  0  0  0
   -3.7043   -2.5316   -2.1417 H   0  0  0  0  0  0  0  0  0  0  0  0
   -2.9986   -2.8772    0.0304 H   0  0  0  0  0  0  0  0  0  0  0  0
   -4.5771   -2.2640    0.6041 H   0  0  0  0  0  0  0  0  0  0  0  0
   -2.6107   -1.1796    2.4732 H   0  0  0  0  0  0  0  0  0  0  0  0
   -1.5868    1.0663    2.8369 H   0  0  0  0  0  0  0  0  0  0  0  0
   -1.5045    2.7113    0.9945 H   0  0  0  0  0  0  0  0  0  0  0  0
   -2.3718    2.1405   -1.2453 H   0  0  0  0  0  0  0  0  0  0  0  0
   -1.9781   -2.9459   -3.7914 H   0  0  0  0  0  0  0  0  0  0  0  0
    0.2390   -4.0342   -3.6398 H   0  0  0  0  0  0  0  0  0  0  0  0
    2.2402   -2.7084   -2.9851 H   0  0  0  0  0  0  0  0  0  0  0  0
    3.7275    1.9262   -1.5358 H   0  0  0  0  0  0  0  0  0  0  0  0
    4.2789    0.6980   -0.3759 H   0  0  0  0  0  0  0  0  0  0  0  0
    3.8920    2.9135    0.7218 H   0  0  0  0  0  0  0  0  0  0  0  0
    2.2206    2.9113    0.1852 H   0  0  0  0  0  0  0  0  0  0  0  0
    5.4356    3.6261    4.2727 H   0  0  0  0  0  0  0  0  0  0  0  0
    5.1932    1.9732    6.1561 H   0  0  0  0  0  0  0  0  0  0  0  0
    3.5716    0.0977    5.7428 H   0  0  0  0  0  0  0  0  0  0  0  0
    2.8248   -0.5879    1.4832 H   0  0  0  0  0  0  0  0  0  0  0  0
    1.2552   -0.1007    2.1621 H   0  0  0  0  0  0  0  0  0  0  0  0
    0.5641    0.7896   -0.0513 H   0  0  0  0  0  0  0  0  0  0  0  0
    0.9803   -0.9333   -0.1402 H   0  0  0  0  0  0  0  0  0  0  0  0
   -0.2026    0.8363   -2.6192 H   0  0  0  0  0  0  0  0  0  0  0  0
  1  2  1  0
  2  3  1  0
  3  4  1  0
  4  5  2  0
  5  6  1  0
  6  7  2  0
  7  8  1  0
  8  9  2  0
  9 10  1  0
 10 11  1  0
 11 12  2  0
 11 13  2  0
 11 14  1  0
 14 15  2  0
 15 16  1  0
 16 17  2  0
 17 18  1  0
 18 19  1  0
 19 20  2  0
 19 21  1  0
 21 22  1  0
 22 23  1  0
 23 24  1  0
 24 25  1  0
 25 26  2  0
 26 27  1  0
 27 28  2  0
 28 29  1  0
 29 30  2  0
 24 31  1  0
 31 32  1  0
 18 33  2  0
 10  2  1  0
 33 14  1  0
  9  4  1  0
 32 21  1  0
 30 25  1  0
  1 34  1  0
  1 35  1  0
  1 36  1  0
  2 37  1  0
  3 38  1  0
  3 39  1  0
  5 40  1  0
  6 41  1  0
  7 42  1  0
  8 43  1  0
 15 44  1  0
 16 45  1  0
 17 46  1  0
 22 47  1  0
 22 48  1  0
 23 49  1  0
 23 50  1  0
 27 51  1  0
 28 52  1  0
 29 53  1  0
 31 54  1  0
 31 55  1  0
 32 56  1  0
 32 57  1  0
 33 58  1  0
M  END
$$$$
