
     RDKit          3D

 38 40  0  0  0  0  0  0  0  0999 V2000
    3.1932    4.0437    0.9570 C   0  0  0  0  0  0  0  0  0  0  0  0
    3.1842    2.5913    0.5152 C   0  0  0  0  0  0  0  0  0  0  0  0
    1.9625    1.8434    1.0112 C   0  0  0  0  0  0  0  0  0  0  0  0
    1.0833    2.3533    1.6948 O   0  0  0  0  0  0  0  0  0  0  0  0
    1.9464    0.5317    0.6084 N   0  0  0  0  0  0  0  0  0  0  0  0
    0.8719   -0.3837    0.9630 C   0  0  0  0  0  0  0  0  0  0  0  0
    1.4218   -1.7787    0.8860 C   0  0  0  0  0  0  0  0  0  0  0  0
    1.1997   -2.9176    1.6349 C   0  0  0  0  0  0  0  0  0  0  0  0
    2.0089   -3.9334    1.0737 C   0  0  0  0  0  0  0  0  0  0  0  0
    2.6750   -3.3556    0.0192 C   0  0  0  0  0  0  0  0  0  0  0  0
    2.3299   -2.0483   -0.1053 O   0  0  0  0  0  0  0  0  0  0  0  0
   -0.3499   -0.2241    0.0752 C   0  0  0  0  0  0  0  0  0  0  0  0
   -0.2488    0.1521   -1.2701 C   0  0  0  0  0  0  0  0  0  0  0  0
   -1.3936    0.2796   -2.0640 C   0  0  0  0  0  0  0  0  0  0  0  0
   -1.1586    0.7603   -3.7122 Cl  0  0  0  0  0  0  0  0  0  0  0  0
   -2.6833    0.0202   -1.5401 C   0  0  0  0  0  0  0  0  0  0  0  0
   -3.8905    0.1254   -2.2664 C   0  0  0  0  0  0  0  0  0  0  0  0
   -5.1090   -0.1596   -1.6599 C   0  0  0  0  0  0  0  0  0  0  0  0
   -5.0972   -0.5477   -0.3363 C   0  0  0  0  0  0  0  0  0  0  0  0
   -3.9715   -0.6647    0.4003 N   0  0  0  0  0  0  0  0  0  0  0  0
   -2.7924   -0.3803   -0.1952 C   0  0  0  0  0  0  0  0  0  0  0  0
   -1.6310   -0.4976    0.5693 C   0  0  0  0  0  0  0  0  0  0  0  0
   -1.7692   -0.9160    1.8768 O   0  0  0  0  0  0  0  0  0  0  0  0
    4.0870    4.5510    0.5812 H   0  0  0  0  0  0  0  0  0  0  0  0
    3.1886    4.1224    2.0492 H   0  0  0  0  0  0  0  0  0  0  0  0
    2.3135    4.5750    0.5790 H   0  0  0  0  0  0  0  0  0  0  0  0
    3.2009    2.5422   -0.5794 H   0  0  0  0  0  0  0  0  0  0  0  0
    4.0791    2.0872    0.8970 H   0  0  0  0  0  0  0  0  0  0  0  0
    2.6996    0.1527    0.0497 H   0  0  0  0  0  0  0  0  0  0  0  0
    0.6037   -0.1576    2.0025 H   0  0  0  0  0  0  0  0  0  0  0  0
    0.5258   -2.9964    2.4776 H   0  0  0  0  0  0  0  0  0  0  0  0
    2.0938   -4.9618    1.3956 H   0  0  0  0  0  0  0  0  0  0  0  0
    3.3904   -3.7217   -0.7041 H   0  0  0  0  0  0  0  0  0  0  0  0
    0.7277    0.3477   -1.7075 H   0  0  0  0  0  0  0  0  0  0  0  0
   -3.8893    0.4308   -3.3102 H   0  0  0  0  0  0  0  0  0  0  0  0
   -6.0406   -0.0801   -2.2091 H   0  0  0  0  0  0  0  0  0  0  0  0
   -6.0208   -0.7824    0.1859 H   0  0  0  0  0  0  0  0  0  0  0  0
   -2.7413   -1.0028    1.9949 H   0  0  0  0  0  0  0  0  0  0  0  0
  1  2  1  0
  2  3  1  0
  3  4  2  0
  3  5  1  0
  5  6  1  0
  6  7  1  0
  7  8  2  0
  8  9  1  0
  9 10  2  0
 10 11  1  0
  6 12  1  0
 12 13  2  0
 13 14  1  0
 14 15  1  0
 14 16  2  0
 16 17  1  0
 17 18  2  0
 18 19  1  0
 19 20  2  0
 20 21  1  0
 21 22  2  0
 22 23  1  0
 11  7  1  0
 22 12  1  0
 21 16  1  0
  1 24  1  0
  1 25  1  0
  1 26  1  0
  2 27  1  0
  2 28  1  0
  5 29  1  0
  6 30  1  0
  8 31  1  0
  9 32  1  0
 10 33  1  0
 13 34  1  0
 17 35  1  0
 18 36  1  0
 19 37  1  0
 23 38  1  0
M  END
$$$$
