
     RDKit          3D

 34 36  0  0  0  0  0  0  0  0999 V2000
    3.1508   -2.8395    0.0778 C   0  0  0  0  0  0  0  0  0  0  0  0
    3.3640   -1.5638    0.8346 C   0  0  0  0  0  0  0  0  0  0  0  0
    3.9737   -1.5807    2.0722 C   0  0  0  0  0  0  0  0  0  0  0  0
    4.1309   -0.3602    2.6855 C   0  0  0  0  0  0  0  0  0  0  0  0
    3.7249    0.8010    2.1457 N   0  0  0  0  0  0  0  0  0  0  0  0
    3.1206    0.7210    0.9461 C   0  0  0  0  0  0  0  0  0  0  0  0
    2.6210    2.2544    0.1950 S   0  0  0  0  0  0  0  0  0  0  0  0
    1.0788    1.8421   -0.5178 C   0  0  0  0  0  0  0  0  0  0  0  0
    0.7819    1.9830   -1.8851 C   0  0  0  0  0  0  0  0  0  0  0  0
   -0.5091    1.5387   -2.0790 C   0  0  0  0  0  0  0  0  0  0  0  0
   -1.2178    1.5059   -3.2064 O   0  0  0  0  0  0  0  0  0  0  0  0
   -1.0442    1.1789   -0.8376 N   0  0  0  0  0  0  0  0  0  0  0  0
   -2.3964    0.7829   -0.5776 C   0  0  0  0  0  0  0  0  0  0  0  0
   -3.0045    1.1090    0.6456 C   0  0  0  0  0  0  0  0  0  0  0  0
   -4.3236    0.7241    0.9049 C   0  0  0  0  0  0  0  0  0  0  0  0
   -5.0406    0.0174   -0.0572 C   0  0  0  0  0  0  0  0  0  0  0  0
   -6.8230   -0.5033    0.2942 Br  0  0  0  0  0  0  0  0  0  0  0  0
   -4.4540   -0.3020   -1.2789 C   0  0  0  0  0  0  0  0  0  0  0  0
   -3.1356    0.0843   -1.5417 C   0  0  0  0  0  0  0  0  0  0  0  0
   -0.0243    1.3079    0.1149 C   0  0  0  0  0  0  0  0  0  0  0  0
   -0.1361    0.9149    1.3878 O   0  0  0  0  0  0  0  0  0  0  0  0
    2.9412   -0.4230    0.2546 N   0  0  0  0  0  0  0  0  0  0  0  0
    2.5240   -3.5236    0.6583 H   0  0  0  0  0  0  0  0  0  0  0  0
    2.6509   -2.6475   -0.8772 H   0  0  0  0  0  0  0  0  0  0  0  0
    4.1113   -3.3206   -0.1311 H   0  0  0  0  0  0  0  0  0  0  0  0
    4.3143   -2.4956    2.5381 H   0  0  0  0  0  0  0  0  0  0  0  0
    4.6047   -0.2773    3.6592 H   0  0  0  0  0  0  0  0  0  0  0  0
    1.4442    2.3594   -2.6530 H   0  0  0  0  0  0  0  0  0  0  0  0
   -0.6532    1.8578   -3.9180 H   0  0  0  0  0  0  0  0  0  0  0  0
   -2.4911    1.7108    1.3935 H   0  0  0  0  0  0  0  0  0  0  0  0
   -4.7843    0.9948    1.8516 H   0  0  0  0  0  0  0  0  0  0  0  0
   -5.0096   -0.8509   -2.0350 H   0  0  0  0  0  0  0  0  0  0  0  0
   -2.6995   -0.2002   -2.4960 H   0  0  0  0  0  0  0  0  0  0  0  0
   -0.7904    0.1954    1.4319 H   0  0  0  0  0  0  0  0  0  0  0  0
  1  2  1  0
  2  3  2  0
  3  4  1  0
  4  5  2  0
  5  6  1  0
  6  7  1  0
  7  8  1  0
  8  9  1  0
  9 10  2  0
 10 11  1  0
 10 12  1  0
 12 13  1  0
 13 14  2  0
 14 15  1  0
 15 16  2  0
 16 17  1  0
 16 18  1  0
 18 19  2  0
 12 20  1  0
 20 21  1  0
  6 22  2  0
 22  2  1  0
 20  8  2  0
 19 13  1  0
  1 23  1  0
  1 24  1  0
  1 25  1  0
  3 26  1  0
  4 27  1  0
  9 28  1  0
 11 29  1  0
 14 30  1  0
 15 31  1  0
 18 32  1  0
 19 33  1  0
 21 34  1  0
M  END
$$$$
