
     RDKit          3D

 30 31  0  0  0  0  0  0  0  0999 V2000
    0.6763    1.4549   -1.5524 C   0  0  0  0  0  0  0  0  0  0  0  0
    0.9095    0.9327   -0.1475 C   0  0  0  0  0  0  0  0  0  0  0  0
    0.0638    1.0859    0.8324 N   0  0  0  0  0  0  0  0  0  0  0  0
   -1.1069    1.7278    0.5274 N   0  0  0  0  0  0  0  0  0  0  0  0
   -2.2557    0.9094    0.3864 C   0  0  0  0  0  0  0  0  0  0  0  0
   -2.1606   -0.3066   -0.1865 N   0  0  0  0  0  0  0  0  0  0  0  0
   -3.2748   -1.0330   -0.3059 C   0  0  0  0  0  0  0  0  0  0  0  0
   -3.1373   -2.2997   -0.8707 N   0  0  0  0  0  0  0  0  0  0  0  0
   -4.4938   -0.5943    0.1329 C   0  0  0  0  0  0  0  0  0  0  0  0
   -4.4848    0.6549    0.6912 C   0  0  0  0  0  0  0  0  0  0  0  0
   -5.9360    1.3554    1.2850 Cl  0  0  0  0  0  0  0  0  0  0  0  0
   -3.4030    1.4330    0.8276 N   0  0  0  0  0  0  0  0  0  0  0  0
    2.1893    0.2170    0.1333 C   0  0  0  0  0  0  0  0  0  0  0  0
    2.1968   -0.8018    1.0979 C   0  0  0  0  0  0  0  0  0  0  0  0
    3.3790   -1.4859    1.3862 C   0  0  0  0  0  0  0  0  0  0  0  0
    4.5477   -1.1442    0.7159 C   0  0  0  0  0  0  0  0  0  0  0  0
    5.6827   -1.7991    0.9922 F   0  0  0  0  0  0  0  0  0  0  0  0
    4.5583   -0.1286   -0.2347 C   0  0  0  0  0  0  0  0  0  0  0  0
    3.3771    0.5583   -0.5271 C   0  0  0  0  0  0  0  0  0  0  0  0
    1.3724    1.0171   -2.2719 H   0  0  0  0  0  0  0  0  0  0  0  0
   -0.3308    1.2015   -1.8938 H   0  0  0  0  0  0  0  0  0  0  0  0
    0.7939    2.5423   -1.5554 H   0  0  0  0  0  0  0  0  0  0  0  0
   -1.4086    2.4022    1.2321 H   0  0  0  0  0  0  0  0  0  0  0  0
   -3.7689   -2.4487   -1.6493 H   0  0  0  0  0  0  0  0  0  0  0  0
   -2.1638   -2.4048   -1.1499 H   0  0  0  0  0  0  0  0  0  0  0  0
   -5.3894   -1.1918    0.0566 H   0  0  0  0  0  0  0  0  0  0  0  0
    1.2807   -1.0675    1.6224 H   0  0  0  0  0  0  0  0  0  0  0  0
    3.3939   -2.2776    2.1284 H   0  0  0  0  0  0  0  0  0  0  0  0
    5.4870    0.1256   -0.7359 H   0  0  0  0  0  0  0  0  0  0  0  0
    3.4061    1.3657   -1.2532 H   0  0  0  0  0  0  0  0  0  0  0  0
  1  2  1  0
  2  3  2  3
  3  4  1  0
  4  5  1  0
  5  6  2  0
  6  7  1  0
  7  8  1  0
  7  9  2  0
  9 10  1  0
 10 11  1  0
 10 12  2  0
  2 13  1  0
 13 14  2  0
 14 15  1  0
 15 16  2  0
 16 17  1  0
 16 18  1  0
 18 19  2  0
 12  5  1  0
 19 13  1  0
  1 20  1  0
  1 21  1  0
  1 22  1  0
  4 23  1  0
  8 24  1  0
  8 25  1  0
  9 26  1  0
 14 27  1  0
 15 28  1  0
 18 29  1  0
 19 30  1  0
M  END
$$$$
