
     RDKit          3D

 55 58  0  0  0  0  0  0  0  0999 V2000
    1.9996   -3.1162   -4.9377 C   0  0  0  0  0  0  0  0  0  0  0  0
    1.7054   -2.1268   -3.9618 O   0  0  0  0  0  0  0  0  0  0  0  0
    1.9725   -2.4292   -2.6508 C   0  0  0  0  0  0  0  0  0  0  0  0
    2.4560   -3.6614   -2.2070 C   0  0  0  0  0  0  0  0  0  0  0  0
    2.7176   -3.8663   -0.8529 C   0  0  0  0  0  0  0  0  0  0  0  0
    2.5179   -2.8361    0.0650 C   0  0  0  0  0  0  0  0  0  0  0  0
    2.0495   -1.5752   -0.3469 C   0  0  0  0  0  0  0  0  0  0  0  0
    1.8647   -0.5045    0.7149 C   0  0  0  0  0  0  0  0  0  0  0  0
    2.3274    0.9082    0.3441 C   0  0  0  0  0  0  0  0  0  0  0  0
    1.0332    1.6760    0.2625 C   0  0  0  0  0  0  0  0  0  0  0  0
    0.9841    3.0679   -0.2458 C   0  0  0  0  0  0  0  0  0  0  0  0
    2.1435    3.7470   -0.6359 C   0  0  0  0  0  0  0  0  0  0  0  0
    2.0603    5.0591   -1.1102 C   0  0  0  0  0  0  0  0  0  0  0  0
    0.8233    5.6966   -1.1961 C   0  0  0  0  0  0  0  0  0  0  0  0
   -0.3346    5.0256   -0.8081 C   0  0  0  0  0  0  0  0  0  0  0  0
   -0.2558    3.7148   -0.3338 C   0  0  0  0  0  0  0  0  0  0  0  0
   -0.0177    1.0515    0.7007 N   0  0  0  0  0  0  0  0  0  0  0  0
    0.4338   -0.3315    1.0834 N   0  0  0  0  0  0  0  0  0  0  0  0
    0.0480   -0.8718    2.6646 S   0  0  0  0  0  6  0  0  0  0  0  0
    0.6336    0.0570    3.6133 O   0  0  0  0  0  0  0  0  0  0  0  0
    0.3534   -2.2873    2.7510 O   0  0  0  0  0  0  0  0  0  0  0  0
   -1.7167   -0.6932    2.7027 C   0  0  0  0  0  0  0  0  0  0  0  0
   -2.5179   -1.7007    2.1595 C   0  0  0  0  0  0  0  0  0  0  0  0
   -3.9073   -1.5789    2.2142 C   0  0  0  0  0  0  0  0  0  0  0  0
   -4.4989   -0.4546    2.8068 C   0  0  0  0  0  0  0  0  0  0  0  0
   -5.9928   -0.3420    2.8939 C   0  0  0  0  0  0  0  0  0  0  0  0
   -3.6817    0.5360    3.3696 C   0  0  0  0  0  0  0  0  0  0  0  0
   -2.2915    0.4204    3.3185 C   0  0  0  0  0  0  0  0  0  0  0  0
    1.7389   -1.4042   -1.7092 C   0  0  0  0  0  0  0  0  0  0  0  0
    1.2526   -0.1877   -2.1283 O   0  0  0  0  0  0  0  0  0  0  0  0
   -0.1454   -0.2785   -2.4177 C   0  0  0  0  0  0  0  0  0  0  0  0
    1.7595   -2.6981   -5.9201 H   0  0  0  0  0  0  0  0  0  0  0  0
    1.3786   -4.0066   -4.7953 H   0  0  0  0  0  0  0  0  0  0  0  0
    3.0646   -3.3703   -4.9363 H   0  0  0  0  0  0  0  0  0  0  0  0
    2.6366   -4.4866   -2.8873 H   0  0  0  0  0  0  0  0  0  0  0  0
    3.0809   -4.8324   -0.5096 H   0  0  0  0  0  0  0  0  0  0  0  0
    2.7245   -3.0302    1.1175 H   0  0  0  0  0  0  0  0  0  0  0  0
    2.4583   -0.7979    1.5913 H   0  0  0  0  0  0  0  0  0  0  0  0
    2.9180    1.3397    1.1612 H   0  0  0  0  0  0  0  0  0  0  0  0
    2.9139    0.9597   -0.5757 H   0  0  0  0  0  0  0  0  0  0  0  0
    3.1221    3.2804   -0.5806 H   0  0  0  0  0  0  0  0  0  0  0  0
    2.9622    5.5847   -1.4138 H   0  0  0  0  0  0  0  0  0  0  0  0
    0.7616    6.7173   -1.5657 H   0  0  0  0  0  0  0  0  0  0  0  0
   -1.3000    5.5213   -0.8744 H   0  0  0  0  0  0  0  0  0  0  0  0
   -1.1689    3.2038   -0.0355 H   0  0  0  0  0  0  0  0  0  0  0  0
   -2.0687   -2.5759    1.6958 H   0  0  0  0  0  0  0  0  0  0  0  0
   -4.5268   -2.3674    1.7922 H   0  0  0  0  0  0  0  0  0  0  0  0
   -6.4731   -0.8518    2.0519 H   0  0  0  0  0  0  0  0  0  0  0  0
   -6.3475   -0.7894    3.8274 H   0  0  0  0  0  0  0  0  0  0  0  0
   -6.3075    0.7065    2.8605 H   0  0  0  0  0  0  0  0  0  0  0  0
   -4.1246    1.4049    3.8517 H   0  0  0  0  0  0  0  0  0  0  0  0
   -1.6676    1.1981    3.7526 H   0  0  0  0  0  0  0  0  0  0  0  0
   -0.6877   -0.8637   -1.6662 H   0  0  0  0  0  0  0  0  0  0  0  0
   -0.3114   -0.6971   -3.4146 H   0  0  0  0  0  0  0  0  0  0  0  0
   -0.5523    0.7371   -2.4130 H   0  0  0  0  0  0  0  0  0  0  0  0
  1  2  1  0
  2  3  1  0
  3  4  2  0
  4  5  1  0
  5  6  2  0
  6  7  1  0
  7  8  1  0
  8  9  1  0
  9 10  1  0
 10 11  1  0
 11 12  2  0
 12 13  1  0
 13 14  2  0
 14 15  1  0
 15 16  2  0
 10 17  2  0
 17 18  1  0
 18 19  1  0
 19 20  2  0
 19 21  2  0
 19 22  1  0
 22 23  2  0
 23 24  1  0
 24 25  2  0
 25 26  1  0
 25 27  1  0
 27 28  2  0
  7 29  2  0
 29 30  1  0
 30 31  1  0
 29  3  1  0
 18  8  1  0
 28 22  1  0
 16 11  1  0
  1 32  1  0
  1 33  1  0
  1 34  1  0
  4 35  1  0
  5 36  1  0
  6 37  1  0
  8 38  1  0
  9 39  1  0
  9 40  1  0
 12 41  1  0
 13 42  1  0
 14 43  1  0
 15 44  1  0
 16 45  1  0
 23 46  1  0
 24 47  1  0
 26 48  1  0
 26 49  1  0
 26 50  1  0
 27 51  1  0
 28 52  1  0
 31 53  1  0
 31 54  1  0
 31 55  1  0
M  END
$$$$
