
     RDKit          3D

 41 42  0  0  0  0  0  0  0  0999 V2000
    3.9133   -1.8853   -2.6710 C   0  0  0  0  0  0  0  0  0  0  0  0
    2.7316   -1.9746   -1.7299 C   0  0  0  0  0  0  0  0  0  0  0  0
    1.8725   -2.9300   -1.9478 N   0  0  0  0  0  0  0  0  0  0  0  0
    0.7094   -2.9621   -1.2207 N   0  0  0  0  0  0  0  0  0  0  0  0
   -0.2468   -1.9537   -1.3773 C   0  0  0  0  0  0  0  0  0  0  0  0
   -0.0524   -0.8685   -1.9265 O   0  0  0  0  0  0  0  0  0  0  0  0
   -1.5973   -2.3175   -0.7856 C   0  0  0  0  0  0  0  0  0  0  0  0
   -1.9243   -1.3925    0.7433 S   0  0  0  0  0  0  0  0  0  0  0  0
   -2.1327    0.2802    0.0326 C   0  0  0  0  0  0  0  0  0  0  0  0
   -3.0236    1.1345    0.9032 C   0  0  0  0  0  0  0  0  0  0  0  0
   -4.4155    1.0809    0.6893 C   0  0  0  0  0  0  0  0  0  0  0  0
   -5.2948    1.8412    1.4625 C   0  0  0  0  0  0  0  0  0  0  0  0
   -4.8010    2.6687    2.4664 C   0  0  0  0  0  0  0  0  0  0  0  0
   -3.4287    2.7275    2.7039 C   0  0  0  0  0  0  0  0  0  0  0  0
   -2.5440    1.9637    1.9316 C   0  0  0  0  0  0  0  0  0  0  0  0
   -0.6982    2.1064    2.3513 Br  0  0  0  0  0  0  0  0  0  0  0  0
    2.6993   -0.9900   -0.6194 C   0  0  0  0  0  0  0  0  0  0  0  0
    2.6385   -1.4453    0.7031 C   0  0  0  0  0  0  0  0  0  0  0  0
    2.6454   -0.5312    1.7570 C   0  0  0  0  0  0  0  0  0  0  0  0
    2.7196    0.8380    1.4917 C   0  0  0  0  0  0  0  0  0  0  0  0
    2.7701    1.2875    0.1634 C   0  0  0  0  0  0  0  0  0  0  0  0
    2.8310    2.7264   -0.1144 N   0  0  0  0  0  4  0  0  0  0  0  0
    2.8988    3.4992    0.8526 O   0  0  0  0  0  0  0  0  0  0  0  0
    2.8281    3.0856   -1.3000 O   0  0  0  0  0  1  0  0  0  0  0  0
    2.7684    0.3767   -0.9008 C   0  0  0  0  0  0  0  0  0  0  0  0
    3.5778   -1.4723   -3.6269 H   0  0  0  0  0  0  0  0  0  0  0  0
    4.3177   -2.8873   -2.8449 H   0  0  0  0  0  0  0  0  0  0  0  0
    4.7098   -1.2568   -2.2636 H   0  0  0  0  0  0  0  0  0  0  0  0
    0.3375   -3.9054   -1.1431 H   0  0  0  0  0  0  0  0  0  0  0  0
   -1.6456   -3.3866   -0.5565 H   0  0  0  0  0  0  0  0  0  0  0  0
   -2.3754   -2.1184   -1.5296 H   0  0  0  0  0  0  0  0  0  0  0  0
   -2.5911    0.1987   -0.9601 H   0  0  0  0  0  0  0  0  0  0  0  0
   -1.1563    0.7483   -0.1214 H   0  0  0  0  0  0  0  0  0  0  0  0
   -4.8245    0.4346   -0.0862 H   0  0  0  0  0  0  0  0  0  0  0  0
   -6.3662    1.7856    1.2802 H   0  0  0  0  0  0  0  0  0  0  0  0
   -5.4820    3.2622    3.0699 H   0  0  0  0  0  0  0  0  0  0  0  0
   -3.0559    3.3729    3.4970 H   0  0  0  0  0  0  0  0  0  0  0  0
    2.5853   -2.5106    0.9134 H   0  0  0  0  0  0  0  0  0  0  0  0
    2.5897   -0.8852    2.7841 H   0  0  0  0  0  0  0  0  0  0  0  0
    2.7205    1.5388    2.3242 H   0  0  0  0  0  0  0  0  0  0  0  0
    2.7919    0.7160   -1.9339 H   0  0  0  0  0  0  0  0  0  0  0  0
  1  2  1  0
  2  3  2  3
  3  4  1  0
  4  5  1  0
  5  6  2  0
  5  7  1  0
  7  8  1  0
  8  9  1  0
  9 10  1  0
 10 11  2  0
 11 12  1  0
 12 13  2  0
 13 14  1  0
 14 15  2  0
 15 16  1  0
  2 17  1  0
 17 18  2  0
 18 19  1  0
 19 20  2  0
 20 21  1  0
 21 22  1  0
 22 23  2  0
 22 24  1  0
 21 25  2  0
 15 10  1  0
 25 17  1  0
  1 26  1  0
  1 27  1  0
  1 28  1  0
  4 29  1  0
  7 30  1  0
  7 31  1  0
  9 32  1  0
  9 33  1  0
 11 34  1  0
 12 35  1  0
 13 36  1  0
 14 37  1  0
 18 38  1  0
 19 39  1  0
 20 40  1  0
 25 41  1  0
M  CHG  2  22   1  24  -1
M  END
$$$$
