
     RDKit          3D

 50 54  0  0  0  0  0  0  0  0999 V2000
    7.4809    2.5496   -0.4146 F   0  0  0  0  0  0  0  0  0  0  0  0
    6.3561    2.0244    0.0889 C   0  0  0  0  0  0  0  0  0  0  0  0
    5.2307    2.8258    0.2322 C   0  0  0  0  0  0  0  0  0  0  0  0
    4.0599    2.2778    0.7573 C   0  0  0  0  0  0  0  0  0  0  0  0
    4.0106    0.9243    1.1330 C   0  0  0  0  0  0  0  0  0  0  0  0
    2.7458    0.3329    1.7250 C   0  0  0  0  0  0  0  0  0  0  0  0
    1.5456    0.6003    0.9187 N   0  0  0  0  0  0  0  0  0  0  0  0
    0.3271    0.3087    1.7116 C   0  0  0  0  0  0  0  0  0  0  0  0
   -0.9339    0.0821    0.8470 C   0  0  0  0  0  0  0  0  0  0  0  0
   -0.7590   -1.0594   -0.0801 N   0  0  0  0  0  0  0  0  0  0  0  0
   -1.5998   -2.1435    0.1981 C   0  0  0  0  0  0  0  0  0  0  0  0
   -1.0489   -3.2957    0.6598 N   0  0  0  0  0  0  0  0  0  0  0  0
   -1.8396   -4.3306    0.9708 C   0  0  0  0  0  0  0  0  0  0  0  0
   -3.1652   -4.3903    0.8816 N   0  0  0  0  0  0  0  0  0  0  0  0
   -3.6927   -3.2590    0.3878 C   0  0  0  0  0  0  0  0  0  0  0  0
   -5.3784   -3.1478    0.1751 S   0  0  0  0  0  0  0  0  0  0  0  0
   -5.2487   -1.5796   -0.4767 C   0  0  0  0  0  0  0  0  0  0  0  0
   -3.9411   -1.1298   -0.5203 C   0  0  0  0  0  0  0  0  0  0  0  0
   -3.6589    0.1760   -1.1056 C   0  0  0  0  0  0  0  0  0  0  0  0
   -2.8335    0.2792   -2.2313 C   0  0  0  0  0  0  0  0  0  0  0  0
   -2.5670    1.5279   -2.7964 C   0  0  0  0  0  0  0  0  0  0  0  0
   -3.1272    2.6787   -2.2435 C   0  0  0  0  0  0  0  0  0  0  0  0
   -3.9541    2.5841   -1.1250 C   0  0  0  0  0  0  0  0  0  0  0  0
   -4.2212    1.3367   -0.5569 C   0  0  0  0  0  0  0  0  0  0  0  0
   -3.0087   -2.1100    0.0102 C   0  0  0  0  0  0  0  0  0  0  0  0
    0.6476   -1.4183   -0.3498 C   0  0  0  0  0  0  0  0  0  0  0  0
    1.5348   -0.1531   -0.3604 C   0  0  0  0  0  0  0  0  0  0  0  0
    5.1633    0.1354    0.9874 C   0  0  0  0  0  0  0  0  0  0  0  0
    6.3339    0.6859    0.4623 C   0  0  0  0  0  0  0  0  0  0  0  0
    5.2698    3.8685   -0.0647 H   0  0  0  0  0  0  0  0  0  0  0  0
    3.1764    2.9040    0.8676 H   0  0  0  0  0  0  0  0  0  0  0  0
    2.6347    0.7857    2.7197 H   0  0  0  0  0  0  0  0  0  0  0  0
    2.8658   -0.7469    1.8841 H   0  0  0  0  0  0  0  0  0  0  0  0
    0.4765   -0.5849    2.3334 H   0  0  0  0  0  0  0  0  0  0  0  0
    0.1452    1.1493    2.3914 H   0  0  0  0  0  0  0  0  0  0  0  0
   -1.1181    0.9854    0.2538 H   0  0  0  0  0  0  0  0  0  0  0  0
   -1.7972   -0.0459    1.5121 H   0  0  0  0  0  0  0  0  0  0  0  0
   -1.3405   -5.2199    1.3421 H   0  0  0  0  0  0  0  0  0  0  0  0
   -6.1399   -1.0668   -0.8144 H   0  0  0  0  0  0  0  0  0  0  0  0
   -2.3834   -0.6095   -2.6680 H   0  0  0  0  0  0  0  0  0  0  0  0
   -1.9187    1.6011   -3.6657 H   0  0  0  0  0  0  0  0  0  0  0  0
   -2.9172    3.6499   -2.6844 H   0  0  0  0  0  0  0  0  0  0  0  0
   -4.3899    3.4820   -0.6946 H   0  0  0  0  0  0  0  0  0  0  0  0
   -4.8633    1.2800    0.3189 H   0  0  0  0  0  0  0  0  0  0  0  0
    0.7106   -1.9093   -1.3283 H   0  0  0  0  0  0  0  0  0  0  0  0
    1.0516   -2.1093    0.4016 H   0  0  0  0  0  0  0  0  0  0  0  0
    2.5455   -0.4256   -0.6850 H   0  0  0  0  0  0  0  0  0  0  0  0
    1.1509    0.5300   -1.1296 H   0  0  0  0  0  0  0  0  0  0  0  0
    5.1557   -0.9120    1.2801 H   0  0  0  0  0  0  0  0  0  0  0  0
    7.2272    0.0813    0.3435 H   0  0  0  0  0  0  0  0  0  0  0  0
  1  2  1  0
  2  3  2  0
  3  4  1  0
  4  5  2  0
  5  6  1  0
  6  7  1  0
  7  8  1  0
  8  9  1  0
  9 10  1  0
 10 11  1  0
 11 12  2  0
 12 13  1  0
 13 14  2  0
 14 15  1  0
 15 16  1  0
 16 17  1  0
 17 18  2  0
 18 19  1  0
 19 20  2  0
 20 21  1  0
 21 22  2  0
 22 23  1  0
 23 24  2  0
 18 25  1  0
 10 26  1  0
 26 27  1  0
  5 28  1  0
 28 29  2  0
 29  2  1  0
 27  7  1  0
 25 11  1  0
 25 15  2  0
 24 19  1  0
  3 30  1  0
  4 31  1  0
  6 32  1  0
  6 33  1  0
  8 34  1  0
  8 35  1  0
  9 36  1  0
  9 37  1  0
 13 38  1  0
 17 39  1  0
 20 40  1  0
 21 41  1  0
 22 42  1  0
 23 43  1  0
 24 44  1  0
 26 45  1  0
 26 46  1  0
 27 47  1  0
 27 48  1  0
 28 49  1  0
 29 50  1  0
M  END
$$$$
