
     RDKit          3D

 47 49  0  0  0  0  0  0  0  0999 V2000
   -8.1663    1.3498   -0.6318 C   0  0  0  0  0  0  0  0  0  0  0  0
   -7.6162    0.0633   -0.8858 O   0  0  0  0  0  0  0  0  0  0  0  0
   -6.2523   -0.0633   -0.8211 C   0  0  0  0  0  0  0  0  0  0  0  0
   -5.3628    1.0104   -0.7136 C   0  0  0  0  0  0  0  0  0  0  0  0
   -3.9850    0.7856   -0.6660 C   0  0  0  0  0  0  0  0  0  0  0  0
   -3.4764   -0.5158   -0.7045 C   0  0  0  0  0  0  0  0  0  0  0  0
   -2.0334   -0.7880   -0.6768 C   0  0  0  0  0  0  0  0  0  0  0  0
   -1.1456   -0.3732    0.2375 C   0  0  0  0  0  0  0  0  0  0  0  0
   -1.4200    0.5832    1.6362 S   0  0  0  0  0  0  0  0  0  0  0  0
    0.2797    0.5831    2.0891 C   0  0  0  0  0  0  0  0  0  0  0  0
    0.8438    1.4408    3.4034 S   0  0  0  0  0  0  0  0  0  0  0  0
    0.9996   -0.1942    1.2065 N   0  0  0  0  0  0  0  0  0  0  0  0
    2.4488   -0.4199    1.2784 C   0  0  0  0  0  0  0  0  0  0  0  0
    3.2233    0.5871    0.4386 C   0  0  0  0  0  0  0  0  0  0  0  0
    4.7147    0.3718    0.5683 C   0  0  0  0  0  0  0  0  0  0  0  0
    5.1977   -0.3825    1.4101 O   0  0  0  0  0  0  0  0  0  0  0  0
    5.4306    1.1027   -0.3435 N   0  0  0  0  0  0  0  0  0  0  0  0
    6.6817    1.2863   -0.1308 C   0  0  0  0  0  0  0  0  0  0  0  0
    7.4938    0.8947    0.8925 N   0  0  0  0  0  0  0  0  0  0  0  0
    8.9071    0.8746    0.5764 C   0  0  0  0  0  0  0  0  0  0  0  0
    9.1472    2.0474   -0.3669 C   0  0  0  0  0  0  0  0  0  0  0  0
    7.6122    2.1682   -1.3409 S   0  0  0  0  0  0  0  0  0  0  0  0
    0.2955   -0.7318    0.1412 C   0  0  0  0  0  0  0  0  0  0  0  0
    0.7722   -1.3889   -0.7766 O   0  0  0  0  0  0  0  0  0  0  0  0
   -4.3654   -1.5921   -0.8347 C   0  0  0  0  0  0  0  0  0  0  0  0
   -5.7480   -1.3764   -0.8972 C   0  0  0  0  0  0  0  0  0  0  0  0
   -6.6825   -2.3788   -1.0120 O   0  0  0  0  0  0  0  0  0  0  0  0
   -6.2135   -3.6841   -1.3163 C   0  0  0  0  0  0  0  0  0  0  0  0
   -7.8895    2.0626   -1.4180 H   0  0  0  0  0  0  0  0  0  0  0  0
   -9.2544    1.2539   -0.6430 H   0  0  0  0  0  0  0  0  0  0  0  0
   -7.8740    1.7184    0.3578 H   0  0  0  0  0  0  0  0  0  0  0  0
   -5.7070    2.0366   -0.6734 H   0  0  0  0  0  0  0  0  0  0  0  0
   -3.3180    1.6426   -0.6029 H   0  0  0  0  0  0  0  0  0  0  0  0
   -1.6850   -1.4209   -1.4928 H   0  0  0  0  0  0  0  0  0  0  0  0
    2.7746   -0.3869    2.3250 H   0  0  0  0  0  0  0  0  0  0  0  0
    2.6595   -1.4356    0.9164 H   0  0  0  0  0  0  0  0  0  0  0  0
    2.9944    1.6117    0.7477 H   0  0  0  0  0  0  0  0  0  0  0  0
    2.9458    0.4824   -0.6173 H   0  0  0  0  0  0  0  0  0  0  0  0
    7.1170    0.1310    1.4542 H   0  0  0  0  0  0  0  0  0  0  0  0
    9.1649   -0.0753    0.0891 H   0  0  0  0  0  0  0  0  0  0  0  0
    9.5128    0.9699    1.4844 H   0  0  0  0  0  0  0  0  0  0  0  0
   10.0157    1.8900   -1.0091 H   0  0  0  0  0  0  0  0  0  0  0  0
    9.2758    2.9772    0.1929 H   0  0  0  0  0  0  0  0  0  0  0  0
   -3.9590   -2.5985   -0.8734 H   0  0  0  0  0  0  0  0  0  0  0  0
   -5.6155   -3.6923   -2.2362 H   0  0  0  0  0  0  0  0  0  0  0  0
   -5.6507   -4.1025   -0.4756 H   0  0  0  0  0  0  0  0  0  0  0  0
   -7.0879   -4.3240   -1.4828 H   0  0  0  0  0  0  0  0  0  0  0  0
  1  2  1  0
  2  3  1  0
  3  4  2  0
  4  5  1  0
  5  6  2  0
  6  7  1  0
  7  8  2  3
  8  9  1  0
  9 10  1  0
 10 11  2  0
 10 12  1  0
 12 13  1  0
 13 14  1  0
 14 15  1  0
 15 16  2  0
 15 17  1  0
 17 18  2  3
 18 19  1  0
 19 20  1  0
 20 21  1  0
 21 22  1  0
 12 23  1  0
 23 24  2  0
  6 25  1  0
 25 26  2  0
 26 27  1  0
 27 28  1  0
 26  3  1  0
 23  8  1  0
 22 18  1  0
  1 29  1  0
  1 30  1  0
  1 31  1  0
  4 32  1  0
  5 33  1  0
  7 34  1  0
 13 35  1  0
 13 36  1  0
 14 37  1  0
 14 38  1  0
 19 39  1  0
 20 40  1  0
 20 41  1  0
 21 42  1  0
 21 43  1  0
 25 44  1  0
 28 45  1  0
 28 46  1  0
 28 47  1  0
M  END
$$$$
