
     RDKit          3D

 42 44  0  0  0  0  0  0  0  0999 V2000
   -5.4386   -0.9272   -0.8593 C   0  0  0  0  0  0  0  0  0  0  0  0
   -4.6256    0.3278   -1.2135 C   0  0  0  0  0  0  0  0  0  0  0  0
   -5.3217    1.5809   -0.6600 C   0  0  0  0  0  0  0  0  0  0  0  0
   -4.5581    0.4467   -2.7468 C   0  0  0  0  0  0  0  0  0  0  0  0
   -3.2555    0.2234   -0.7056 N   0  0  0  0  0  0  0  0  0  0  0  0
   -2.8902    0.1011    0.6235 C   0  0  0  0  0  0  0  0  0  0  0  0
   -3.6886    0.0681    1.5542 O   0  0  0  0  0  0  0  0  0  0  0  0
   -1.4229    0.0137    0.7969 C   0  0  0  0  0  0  0  0  0  0  0  0
   -0.5630    0.0563   -0.2819 N   0  0  0  0  0  0  0  0  0  0  0  0
    0.6281   -0.0489    0.2596 C   0  0  0  0  0  0  0  0  0  0  0  0
    1.8442   -0.0651   -0.3550 N   0  0  0  0  0  0  0  0  0  0  0  0
    2.8927   -0.1918    0.4068 C   0  0  0  0  0  0  0  0  0  0  0  0
    4.2453   -0.2217   -0.2217 C   0  0  0  0  0  0  0  0  0  0  0  0
    5.2890   -0.9976    0.2988 C   0  0  0  0  0  0  0  0  0  0  0  0
    6.5393   -0.9964   -0.3253 C   0  0  0  0  0  0  0  0  0  0  0  0
    6.7496   -0.2309   -1.4717 C   0  0  0  0  0  0  0  0  0  0  0  0
    5.7096    0.5292   -2.0038 C   0  0  0  0  0  0  0  0  0  0  0  0
    4.4586    0.5309   -1.3844 C   0  0  0  0  0  0  0  0  0  0  0  0
    2.8416   -0.2857    1.9022 C   0  0  0  0  0  0  0  0  0  0  0  0
    1.6167   -0.2642    2.4628 C   0  0  0  0  0  0  0  0  0  0  0  0
    1.3715   -0.3402    3.9206 C   0  0  0  0  0  0  0  0  0  0  0  0
    0.6392   -1.4244    4.2719 F   0  0  0  0  0  0  0  0  0  0  0  0
    2.5432   -0.4435    4.6100 F   0  0  0  0  0  0  0  0  0  0  0  0
    0.7517    0.7620    4.4059 F   0  0  0  0  0  0  0  0  0  0  0  0
    0.4988   -0.1516    1.6496 N   0  0  0  0  0  0  0  0  0  0  0  0
   -0.8081   -0.1114    1.9829 N   0  0  0  0  0  0  0  0  0  0  0  0
   -4.9389   -1.8338   -1.2196 H   0  0  0  0  0  0  0  0  0  0  0  0
   -5.5722   -1.0366    0.2217 H   0  0  0  0  0  0  0  0  0  0  0  0
   -6.4372   -0.8916   -1.3093 H   0  0  0  0  0  0  0  0  0  0  0  0
   -6.3157    1.7097   -1.1033 H   0  0  0  0  0  0  0  0  0  0  0  0
   -4.7373    2.4828   -0.8756 H   0  0  0  0  0  0  0  0  0  0  0  0
   -5.4537    1.5300    0.4256 H   0  0  0  0  0  0  0  0  0  0  0  0
   -5.5581    0.5285   -3.1874 H   0  0  0  0  0  0  0  0  0  0  0  0
   -3.9838    1.3303   -3.0493 H   0  0  0  0  0  0  0  0  0  0  0  0
   -4.0660   -0.4274   -3.1893 H   0  0  0  0  0  0  0  0  0  0  0  0
   -2.4790    0.2321   -1.3634 H   0  0  0  0  0  0  0  0  0  0  0  0
    5.1481   -1.6306    1.1698 H   0  0  0  0  0  0  0  0  0  0  0  0
    7.3490   -1.6014    0.0764 H   0  0  0  0  0  0  0  0  0  0  0  0
    7.7225   -0.2347   -1.9576 H   0  0  0  0  0  0  0  0  0  0  0  0
    5.8699    1.1175   -2.9042 H   0  0  0  0  0  0  0  0  0  0  0  0
    3.6532    1.1237   -1.8139 H   0  0  0  0  0  0  0  0  0  0  0  0
    3.7523   -0.3379    2.4861 H   0  0  0  0  0  0  0  0  0  0  0  0
  1  2  1  0
  2  3  1  0
  2  4  1  0
  2  5  1  0
  5  6  1  0
  6  7  2  0
  6  8  1  0
  8  9  1  0
  9 10  2  0
 10 11  1  0
 11 12  2  0
 12 13  1  0
 13 14  2  0
 14 15  1  0
 15 16  2  0
 16 17  1  0
 17 18  2  0
 12 19  1  0
 19 20  2  0
 20 21  1  0
 21 22  1  0
 21 23  1  0
 21 24  1  0
 20 25  1  0
 25 26  1  0
 26  8  2  0
 25 10  1  0
 18 13  1  0
  1 27  1  0
  1 28  1  0
  1 29  1  0
  3 30  1  0
  3 31  1  0
  3 32  1  0
  4 33  1  0
  4 34  1  0
  4 35  1  0
  5 36  1  0
 14 37  1  0
 15 38  1  0
 16 39  1  0
 17 40  1  0
 18 41  1  0
 19 42  1  0
M  END
$$$$
