
     RDKit          3D

 64 67  0  0  0  0  0  0  0  0999 V2000
   -1.2983    2.8465    3.0871 C   0  0  0  0  0  0  0  0  0  0  0  0
   -1.8133    1.8059    2.2562 O   0  0  0  0  0  0  0  0  0  0  0  0
   -1.7416    2.1102    0.9175 C   0  0  0  0  0  0  0  0  0  0  0  0
   -2.3576    3.2734    0.4293 C   0  0  0  0  0  0  0  0  0  0  0  0
   -2.3151    3.5879   -0.9317 C   0  0  0  0  0  0  0  0  0  0  0  0
   -2.8885    4.7041   -1.4879 O   0  0  0  0  0  0  0  0  0  0  0  0
   -3.5815    5.5940   -0.6214 C   0  0  0  0  0  0  0  0  0  0  0  0
   -1.6482    2.7206   -1.8120 C   0  0  0  0  0  0  0  0  0  0  0  0
   -1.5501    2.9882   -3.2468 C   0  0  0  0  0  0  0  0  0  0  0  0
   -0.8845    2.1568   -4.0512 C   0  0  0  0  0  0  0  0  0  0  0  0
   -0.2302    0.9436   -3.5479 C   0  0  0  0  0  0  0  0  0  0  0  0
    0.4031    0.2112   -4.2971 O   0  0  0  0  0  0  0  0  0  0  0  0
   -0.3782    0.6830   -2.1958 O   0  0  0  0  0  0  0  0  0  0  0  0
   -1.0603    1.5503   -1.3084 C   0  0  0  0  0  0  0  0  0  0  0  0
   -1.1084    1.1989    0.0535 C   0  0  0  0  0  0  0  0  0  0  0  0
   -0.4966   -0.0975    0.5983 C   0  0  0  0  0  0  0  0  0  0  0  0
   -1.1178   -1.3545   -0.0668 C   0  0  0  0  0  0  0  0  0  0  0  0
   -0.8195   -2.6392    0.7234 C   0  0  0  0  0  0  0  0  0  0  0  0
   -1.3961   -3.8250    0.0800 N   0  0  0  0  0  0  0  0  0  0  0  0
   -2.8599   -3.8673    0.1158 C   0  0  0  0  0  0  0  0  0  0  0  0
   -3.1935   -5.3327   -0.1420 C   0  0  0  0  0  0  0  0  0  0  0  0
   -1.8988   -6.0932    0.1193 C   0  0  0  0  0  0  0  0  0  0  0  0
   -0.9636   -5.0645    0.7289 C   0  0  0  0  0  0  0  0  0  0  0  0
    1.0282   -0.0432    0.6445 C   0  0  0  0  0  0  0  0  0  0  0  0
    1.6612    0.5409    1.7469 C   0  0  0  0  0  0  0  0  0  0  0  0
    3.0607    0.6121    1.8302 C   0  0  0  0  0  0  0  0  0  0  0  0
    3.9002    0.1215    0.8174 C   0  0  0  0  0  0  0  0  0  0  0  0
    5.2964    0.1716    0.9134 N   0  0  0  0  0  0  0  0  0  0  0  0
    6.0947   -0.0669   -0.2879 C   0  0  0  0  0  0  0  0  0  0  0  0
    5.9107    1.0320    1.9223 C   0  0  0  0  0  0  0  0  0  0  0  0
    3.2452   -0.4664   -0.2773 C   0  0  0  0  0  0  0  0  0  0  0  0
    1.8456   -0.5451   -0.3692 C   0  0  0  0  0  0  0  0  0  0  0  0
   -1.0502    2.4052    4.0571 H   0  0  0  0  0  0  0  0  0  0  0  0
   -2.0555    3.6188    3.2532 H   0  0  0  0  0  0  0  0  0  0  0  0
   -0.3828    3.2853    2.6732 H   0  0  0  0  0  0  0  0  0  0  0  0
   -2.8836    3.9104    1.1312 H   0  0  0  0  0  0  0  0  0  0  0  0
   -4.4335    5.0980   -0.1451 H   0  0  0  0  0  0  0  0  0  0  0  0
   -3.9729    6.4152   -1.2297 H   0  0  0  0  0  0  0  0  0  0  0  0
   -2.9050    6.0260    0.1234 H   0  0  0  0  0  0  0  0  0  0  0  0
   -2.0250    3.8779   -3.6466 H   0  0  0  0  0  0  0  0  0  0  0  0
   -0.7954    2.3380   -5.1157 H   0  0  0  0  0  0  0  0  0  0  0  0
   -0.8092   -0.1926    1.6475 H   0  0  0  0  0  0  0  0  0  0  0  0
   -0.7765   -1.4826   -1.0995 H   0  0  0  0  0  0  0  0  0  0  0  0
   -2.2053   -1.2114   -0.1186 H   0  0  0  0  0  0  0  0  0  0  0  0
    0.2670   -2.7722    0.7812 H   0  0  0  0  0  0  0  0  0  0  0  0
   -1.1846   -2.5397    1.7537 H   0  0  0  0  0  0  0  0  0  0  0  0
   -3.2511   -3.5698    1.0976 H   0  0  0  0  0  0  0  0  0  0  0  0
   -3.3111   -3.2241   -0.6469 H   0  0  0  0  0  0  0  0  0  0  0  0
   -3.5210   -5.4902   -1.1763 H   0  0  0  0  0  0  0  0  0  0  0  0
   -3.9962   -5.6734    0.5214 H   0  0  0  0  0  0  0  0  0  0  0  0
   -2.0505   -6.9579    0.7710 H   0  0  0  0  0  0  0  0  0  0  0  0
   -1.4915   -6.4608   -0.8306 H   0  0  0  0  0  0  0  0  0  0  0  0
    0.0840   -5.2994    0.5141 H   0  0  0  0  0  0  0  0  0  0  0  0
   -1.1005   -5.0232    1.8173 H   0  0  0  0  0  0  0  0  0  0  0  0
    1.0707    0.9404    2.5679 H   0  0  0  0  0  0  0  0  0  0  0  0
    3.4726    1.0639    2.7270 H   0  0  0  0  0  0  0  0  0  0  0  0
    7.1668    0.0139   -0.0752 H   0  0  0  0  0  0  0  0  0  0  0  0
    5.8585    0.6630   -1.0701 H   0  0  0  0  0  0  0  0  0  0  0  0
    5.9425   -1.0813   -0.6719 H   0  0  0  0  0  0  0  0  0  0  0  0
    5.6228    0.7272    2.9346 H   0  0  0  0  0  0  0  0  0  0  0  0
    5.6398    2.0814    1.7622 H   0  0  0  0  0  0  0  0  0  0  0  0
    7.0040    0.9639    1.8897 H   0  0  0  0  0  0  0  0  0  0  0  0
    3.8071   -0.8921   -1.1034 H   0  0  0  0  0  0  0  0  0  0  0  0
    1.4213   -1.0149   -1.2526 H   0  0  0  0  0  0  0  0  0  0  0  0
  1  2  1  0
  2  3  1  0
  3  4  2  0
  4  5  1  0
  5  6  1  0
  6  7  1  0
  5  8  2  0
  8  9  1  0
  9 10  2  0
 10 11  1  0
 11 12  2  0
 11 13  1  0
 13 14  1  0
 14 15  2  0
 15 16  1  0
 16 17  1  0
 17 18  1  0
 18 19  1  0
 19 20  1  0
 20 21  1  0
 21 22  1  0
 22 23  1  0
 16 24  1  0
 24 25  2  0
 25 26  1  0
 26 27  2  0
 27 28  1  0
 28 29  1  0
 28 30  1  0
 27 31  1  0
 31 32  2  0
 15  3  1  0
 23 19  1  0
 32 24  1  0
 14  8  1  0
  1 33  1  0
  1 34  1  0
  1 35  1  0
  4 36  1  0
  7 37  1  0
  7 38  1  0
  7 39  1  0
  9 40  1  0
 10 41  1  0
 16 42  1  0
 17 43  1  0
 17 44  1  0
 18 45  1  0
 18 46  1  0
 20 47  1  0
 20 48  1  0
 21 49  1  0
 21 50  1  0
 22 51  1  0
 22 52  1  0
 23 53  1  0
 23 54  1  0
 25 55  1  0
 26 56  1  0
 29 57  1  0
 29 58  1  0
 29 59  1  0
 30 60  1  0
 30 61  1  0
 30 62  1  0
 31 63  1  0
 32 64  1  0
M  END
$$$$
