
     RDKit          3D

 39 40  0  0  0  0  0  0  0  0999 V2000
   -5.1869    1.5157    1.6041 C   0  0  0  0  0  0  0  0  0  0  0  0
   -5.1921    0.4597    0.5105 C   0  0  0  0  0  0  0  0  0  0  0  0
   -3.8472    0.2043   -0.0062 N   0  0  0  0  0  0  0  0  0  0  0  0
   -3.4048    1.0226   -1.1375 C   0  0  0  0  0  0  0  0  0  0  0  0
   -3.8165    0.4172   -2.4697 C   0  0  0  0  0  0  0  0  0  0  0  0
   -3.0695   -0.7564    0.6400 C   0  0  0  0  0  0  0  0  0  0  0  0
   -3.4856   -1.3650    1.6313 O   0  0  0  0  0  0  0  0  0  0  0  0
   -1.6760   -1.0510    0.1066 C   0  0  0  0  0  0  0  0  0  0  0  0
   -0.4638   -0.0169    0.9816 S   0  0  0  0  0  0  0  0  0  0  0  0
    0.9779   -0.4634    0.1376 C   0  0  0  0  0  0  0  0  0  0  0  0
    1.0469   -1.0675   -1.0251 N   0  0  0  0  0  0  0  0  0  0  0  0
    2.3788   -1.2063   -1.3399 N   0  0  0  0  0  0  0  0  0  0  0  0
    3.1022   -0.6544   -0.3784 C   0  0  0  0  0  0  0  0  0  0  0  0
    4.5612   -0.5871   -0.3554 C   0  0  0  0  0  0  0  0  0  0  0  0
    5.2431    0.5917   -0.0431 C   0  0  0  0  0  0  0  0  0  0  0  0
    6.6281    0.5748   -0.0513 C   0  0  0  0  0  0  0  0  0  0  0  0
    7.3625   -0.5166   -0.3463 N   0  0  0  0  0  0  0  0  0  0  0  0
    6.6854   -1.6381   -0.6710 C   0  0  0  0  0  0  0  0  0  0  0  0
    5.3043   -1.7201   -0.6928 C   0  0  0  0  0  0  0  0  0  0  0  0
    2.2422   -0.1970    0.6049 N   0  0  0  0  0  0  0  0  0  0  0  0
    2.5879    0.3938    1.8698 N   0  0  0  0  0  0  0  0  0  0  0  0
   -4.7932    2.4670    1.2325 H   0  0  0  0  0  0  0  0  0  0  0  0
   -6.2030    1.6868    1.9727 H   0  0  0  0  0  0  0  0  0  0  0  0
   -4.5637    1.2064    2.4500 H   0  0  0  0  0  0  0  0  0  0  0  0
   -5.6124   -0.4704    0.9086 H   0  0  0  0  0  0  0  0  0  0  0  0
   -5.8383    0.7713   -0.3172 H   0  0  0  0  0  0  0  0  0  0  0  0
   -2.3199    1.1486   -1.1140 H   0  0  0  0  0  0  0  0  0  0  0  0
   -3.8348    2.0246   -1.0317 H   0  0  0  0  0  0  0  0  0  0  0  0
   -3.4059   -0.5893   -2.5955 H   0  0  0  0  0  0  0  0  0  0  0  0
   -4.9058    0.3431   -2.5496 H   0  0  0  0  0  0  0  0  0  0  0  0
   -3.4573    1.0405   -3.2940 H   0  0  0  0  0  0  0  0  0  0  0  0
   -1.6272   -0.9117   -0.9760 H   0  0  0  0  0  0  0  0  0  0  0  0
   -1.4597   -2.1079    0.2989 H   0  0  0  0  0  0  0  0  0  0  0  0
    4.7213    1.5152    0.1789 H   0  0  0  0  0  0  0  0  0  0  0  0
    7.2024    1.4675    0.1808 H   0  0  0  0  0  0  0  0  0  0  0  0
    7.3019   -2.4960   -0.9239 H   0  0  0  0  0  0  0  0  0  0  0  0
    4.8186   -2.6514   -0.9682 H   0  0  0  0  0  0  0  0  0  0  0  0
    2.4466    1.4004    1.8613 H   0  0  0  0  0  0  0  0  0  0  0  0
    3.5522    0.2155    2.1374 H   0  0  0  0  0  0  0  0  0  0  0  0
  1  2  1  0
  2  3  1  0
  3  4  1  0
  4  5  1  0
  3  6  1  0
  6  7  2  0
  6  8  1  0
  8  9  1  0
  9 10  1  0
 10 11  2  0
 11 12  1  0
 12 13  2  0
 13 14  1  0
 14 15  2  0
 15 16  1  0
 16 17  2  0
 17 18  1  0
 18 19  2  0
 13 20  1  0
 20 21  1  0
 20 10  1  0
 19 14  1  0
  1 22  1  0
  1 23  1  0
  1 24  1  0
  2 25  1  0
  2 26  1  0
  4 27  1  0
  4 28  1  0
  5 29  1  0
  5 30  1  0
  5 31  1  0
  8 32  1  0
  8 33  1  0
 15 34  1  0
 16 35  1  0
 18 36  1  0
 19 37  1  0
 21 38  1  0
 21 39  1  0
M  END
$$$$
