
     RDKit          3D

 57 60  0  0  0  0  0  0  0  0999 V2000
    4.3887    2.1361   -0.1436 C   0  0  0  0  0  0  0  0  0  0  0  0
    4.8454    1.3807   -1.3851 C   0  0  0  0  0  0  0  0  0  0  0  0
    5.4963    0.0546   -1.0456 C   0  0  0  0  0  0  0  0  0  0  0  0
    6.9004   -0.0049   -1.1455 C   0  0  0  0  0  0  0  0  0  0  0  0
    7.6102   -1.1206   -0.7130 C   0  0  0  0  0  0  0  0  0  0  0  0
    6.9315   -2.1963   -0.1541 C   0  0  0  0  0  0  0  0  0  0  0  0
    5.5321   -2.1819   -0.0469 C   0  0  0  0  0  0  0  0  0  0  0  0
    4.8539   -3.3868    0.5504 C   0  0  0  0  0  0  0  0  0  0  0  0
    4.8054   -1.0646   -0.5264 C   0  0  0  0  0  0  0  0  0  0  0  0
    3.3961   -1.0882   -0.3897 N   0  0  0  0  0  0  0  0  0  0  0  0
    2.5149   -0.8465   -1.4318 C   0  0  0  0  0  0  0  0  0  0  0  0
    2.8173   -0.6436   -2.6018 O   0  0  0  0  0  0  0  0  0  0  0  0
    1.0716   -0.9469   -1.0656 C   0  0  0  0  0  0  0  0  0  0  0  0
    0.1515   -1.3128   -2.0549 C   0  0  0  0  0  0  0  0  0  0  0  0
   -1.2081   -1.4165   -1.7498 C   0  0  0  0  0  0  0  0  0  0  0  0
   -1.6685   -1.1423   -0.4544 C   0  0  0  0  0  0  0  0  0  0  0  0
   -3.1418   -1.2671   -0.1189 C   0  0  0  0  0  0  0  0  0  0  0  0
   -3.6930   -0.0689    0.5331 N   0  0  0  0  0  0  0  0  0  0  0  0
   -3.7982    1.0637   -0.4026 C   0  0  0  0  0  0  0  0  0  0  0  0
   -4.1974    2.3434    0.3451 C   0  0  0  0  0  0  0  0  0  0  0  0
   -5.3803    2.1378    1.2562 C   0  0  0  0  0  0  0  0  0  0  0  0
   -6.0796    3.2406    1.7638 C   0  0  0  0  0  0  0  0  0  0  0  0
   -7.1527    3.0537    2.6343 C   0  0  0  0  0  0  0  0  0  0  0  0
   -7.5303    1.7662    3.0084 C   0  0  0  0  0  0  0  0  0  0  0  0
   -6.8325    0.6630    2.5157 C   0  0  0  0  0  0  0  0  0  0  0  0
   -5.7449    0.8377    1.6470 C   0  0  0  0  0  0  0  0  0  0  0  0
   -5.0267   -0.3720    1.0871 C   0  0  0  0  0  0  0  0  0  0  0  0
   -0.7411   -0.7689    0.5311 C   0  0  0  0  0  0  0  0  0  0  0  0
    0.6189   -0.6630    0.2286 C   0  0  0  0  0  0  0  0  0  0  0  0
    3.9747    3.1092   -0.4268 H   0  0  0  0  0  0  0  0  0  0  0  0
    5.2248    2.3106    0.5420 H   0  0  0  0  0  0  0  0  0  0  0  0
    3.6140    1.5906    0.4037 H   0  0  0  0  0  0  0  0  0  0  0  0
    5.5607    2.0144   -1.9256 H   0  0  0  0  0  0  0  0  0  0  0  0
    4.0143    1.2594   -2.0794 H   0  0  0  0  0  0  0  0  0  0  0  0
    7.4566    0.8417   -1.5437 H   0  0  0  0  0  0  0  0  0  0  0  0
    8.6935   -1.1419   -0.7963 H   0  0  0  0  0  0  0  0  0  0  0  0
    7.5034   -3.0545    0.1919 H   0  0  0  0  0  0  0  0  0  0  0  0
    5.5696   -4.1862    0.7709 H   0  0  0  0  0  0  0  0  0  0  0  0
    4.1168   -3.7963   -0.1481 H   0  0  0  0  0  0  0  0  0  0  0  0
    4.3615   -3.1170    1.4900 H   0  0  0  0  0  0  0  0  0  0  0  0
    3.0310   -1.7228    0.3074 H   0  0  0  0  0  0  0  0  0  0  0  0
    0.4930   -1.5194   -3.0677 H   0  0  0  0  0  0  0  0  0  0  0  0
   -1.9040   -1.7056   -2.5343 H   0  0  0  0  0  0  0  0  0  0  0  0
   -3.2278   -2.1311    0.5541 H   0  0  0  0  0  0  0  0  0  0  0  0
   -3.7197   -1.5160   -1.0189 H   0  0  0  0  0  0  0  0  0  0  0  0
   -2.8405    1.2598   -0.8985 H   0  0  0  0  0  0  0  0  0  0  0  0
   -4.5295    0.8456   -1.1932 H   0  0  0  0  0  0  0  0  0  0  0  0
   -3.3528    2.6899    0.9540 H   0  0  0  0  0  0  0  0  0  0  0  0
   -4.4253    3.1249   -0.3895 H   0  0  0  0  0  0  0  0  0  0  0  0
   -5.7882    4.2503    1.4842 H   0  0  0  0  0  0  0  0  0  0  0  0
   -7.6925    3.9132    3.0227 H   0  0  0  0  0  0  0  0  0  0  0  0
   -8.3678    1.6213    3.6856 H   0  0  0  0  0  0  0  0  0  0  0  0
   -7.1402   -0.3363    2.8146 H   0  0  0  0  0  0  0  0  0  0  0  0
   -5.6736   -0.8174    0.3191 H   0  0  0  0  0  0  0  0  0  0  0  0
   -4.9067   -1.1040    1.8957 H   0  0  0  0  0  0  0  0  0  0  0  0
   -1.0874   -0.5373    1.5375 H   0  0  0  0  0  0  0  0  0  0  0  0
    1.3030   -0.3309    1.0049 H   0  0  0  0  0  0  0  0  0  0  0  0
  1  2  1  0
  2  3  1  0
  3  4  2  0
  4  5  1  0
  5  6  2  0
  6  7  1  0
  7  8  1  0
  7  9  2  0
  9 10  1  0
 10 11  1  0
 11 12  2  0
 11 13  1  0
 13 14  2  0
 14 15  1  0
 15 16  2  0
 16 17  1  0
 17 18  1  0
 18 19  1  0
 19 20  1  0
 20 21  1  0
 21 22  2  0
 22 23  1  0
 23 24  2  0
 24 25  1  0
 25 26  2  0
 26 27  1  0
 16 28  1  0
 28 29  2  0
  9  3  1  0
 29 13  1  0
 27 18  1  0
 26 21  1  0
  1 30  1  0
  1 31  1  0
  1 32  1  0
  2 33  1  0
  2 34  1  0
  4 35  1  0
  5 36  1  0
  6 37  1  0
  8 38  1  0
  8 39  1  0
  8 40  1  0
 10 41  1  0
 14 42  1  0
 15 43  1  0
 17 44  1  0
 17 45  1  0
 19 46  1  0
 19 47  1  0
 20 48  1  0
 20 49  1  0
 22 50  1  0
 23 51  1  0
 24 52  1  0
 25 53  1  0
 27 54  1  0
 27 55  1  0
 28 56  1  0
 29 57  1  0
M  END
$$$$
