
     RDKit          3D

 40 44  0  0  0  0  0  0  0  0999 V2000
    6.2021    0.9351    0.5082 C   0  0  0  0  0  0  0  0  0  0  0  0
    5.3678    1.4456   -0.4831 C   0  0  0  0  0  0  0  0  0  0  0  0
    4.0394    1.0199   -0.5670 C   0  0  0  0  0  0  0  0  0  0  0  0
    3.5226    0.0766    0.3367 C   0  0  0  0  0  0  0  0  0  0  0  0
    2.1227   -0.3716    0.2470 C   0  0  0  0  0  0  0  0  0  0  0  0
    1.8114   -1.7349    0.1311 C   0  0  0  0  0  0  0  0  0  0  0  0
    0.4911   -2.1944    0.0405 C   0  0  0  0  0  0  0  0  0  0  0  0
   -0.5346   -1.2433    0.0754 C   0  0  0  0  0  0  0  0  0  0  0  0
   -0.2727    0.1342    0.1894 C   0  0  0  0  0  0  0  0  0  0  0  0
    1.0685    0.5621    0.2728 C   0  0  0  0  0  0  0  0  0  0  0  0
   -1.5282    0.8112    0.1783 C   0  0  0  0  0  0  0  0  0  0  0  0
   -2.4896   -0.1609    0.0795 C   0  0  0  0  0  0  0  0  0  0  0  0
   -1.8957   -1.3752    0.0001 N   0  0  0  0  0  0  0  0  0  0  0  0
   -2.7262   -2.5382   -0.2257 C   0  0  0  0  0  0  0  0  0  0  0  0
   -4.1381   -2.2997    0.3373 C   0  0  0  0  0  0  0  0  0  0  0  0
   -4.7266   -0.9597    0.0566 N   0  0  0  0  0  0  0  0  0  0  0  0
   -3.9010    0.0328    0.0201 C   0  0  0  0  0  0  0  0  0  0  0  0
   -4.3401    1.4776   -0.1316 C   0  0  0  0  0  0  0  0  0  0  0  0
   -3.3819    2.4292    0.6217 C   0  0  0  0  0  0  0  0  0  0  0  0
   -1.8939    2.2555    0.2245 C   0  0  0  0  0  0  0  0  0  0  0  0
    4.3812   -0.4259    1.3286 C   0  0  0  0  0  0  0  0  0  0  0  0
    5.7096   -0.0004    1.4146 C   0  0  0  0  0  0  0  0  0  0  0  0
    7.2351    1.2662    0.5744 H   0  0  0  0  0  0  0  0  0  0  0  0
    5.7493    2.1737   -1.1940 H   0  0  0  0  0  0  0  0  0  0  0  0
    3.4065    1.4227   -1.3553 H   0  0  0  0  0  0  0  0  0  0  0  0
    2.6156   -2.4687    0.0954 H   0  0  0  0  0  0  0  0  0  0  0  0
    0.2822   -3.2546   -0.0559 H   0  0  0  0  0  0  0  0  0  0  0  0
    1.2820    1.6234    0.3689 H   0  0  0  0  0  0  0  0  0  0  0  0
   -2.7628   -2.6902   -1.3102 H   0  0  0  0  0  0  0  0  0  0  0  0
   -2.2604   -3.4080    0.2465 H   0  0  0  0  0  0  0  0  0  0  0  0
   -4.1280   -2.4344    1.4264 H   0  0  0  0  0  0  0  0  0  0  0  0
   -4.8136   -3.0613   -0.0678 H   0  0  0  0  0  0  0  0  0  0  0  0
   -5.3599    1.5886    0.2515 H   0  0  0  0  0  0  0  0  0  0  0  0
   -4.3500    1.7208   -1.2003 H   0  0  0  0  0  0  0  0  0  0  0  0
   -3.4796    2.2368    1.6987 H   0  0  0  0  0  0  0  0  0  0  0  0
   -3.6851    3.4688    0.4544 H   0  0  0  0  0  0  0  0  0  0  0  0
   -1.2588    2.7922    0.9375 H   0  0  0  0  0  0  0  0  0  0  0  0
   -1.7295    2.6956   -0.7662 H   0  0  0  0  0  0  0  0  0  0  0  0
    4.0123   -1.1490    2.0533 H   0  0  0  0  0  0  0  0  0  0  0  0
    6.3568   -0.3985    2.1917 H   0  0  0  0  0  0  0  0  0  0  0  0
  1  2  2  0
  2  3  1  0
  3  4  2  0
  4  5  1  0
  5  6  2  0
  6  7  1  0
  7  8  2  0
  8  9  1  0
  9 10  2  0
  9 11  1  0
 11 12  2  0
 12 13  1  0
 13 14  1  0
 14 15  1  0
 15 16  1  0
 16 17  2  0
 17 18  1  0
 18 19  1  0
 19 20  1  0
  4 21  1  0
 21 22  2  0
 22  1  1  0
 10  5  1  0
 20 11  1  0
 13  8  1  0
 17 12  1  0
  1 23  1  0
  2 24  1  0
  3 25  1  0
  6 26  1  0
  7 27  1  0
 10 28  1  0
 14 29  1  0
 14 30  1  0
 15 31  1  0
 15 32  1  0
 18 33  1  0
 18 34  1  0
 19 35  1  0
 19 36  1  0
 20 37  1  0
 20 38  1  0
 21 39  1  0
 22 40  1  0
M  END
$$$$
