
     RDKit          3D

 51 53  0  0  0  0  0  0  0  0999 V2000
   -6.5297    3.6766    0.5669 C   0  0  0  0  0  0  0  0  0  0  0  0
   -5.8951    3.0281   -0.6360 C   0  0  0  0  0  0  0  0  0  0  0  0
   -6.6114    3.0323   -1.8417 C   0  0  0  0  0  0  0  0  0  0  0  0
   -6.0792    2.4493   -2.9839 C   0  0  0  0  0  0  0  0  0  0  0  0
   -4.8233    1.8484   -2.9402 C   0  0  0  0  0  0  0  0  0  0  0  0
   -4.0767    1.8264   -1.7580 C   0  0  0  0  0  0  0  0  0  0  0  0
   -2.8107    1.1971   -1.6881 N   0  0  0  0  0  0  0  0  0  0  0  0
   -2.0631    0.6427   -2.7174 C   0  0  0  0  0  0  0  0  0  0  0  0
   -2.3542    0.6337   -3.9107 O   0  0  0  0  0  0  0  0  0  0  0  0
   -0.8023   -0.0532   -2.2233 C   0  0  0  0  0  0  0  0  0  0  0  0
    0.2380    1.0951   -1.2658 S   0  0  0  0  0  0  0  0  0  0  0  0
    1.5828    0.0453   -0.8894 C   0  0  0  0  0  0  0  0  0  0  0  0
    1.5165   -1.2154   -1.1352 N   0  0  0  0  0  0  0  0  0  0  0  0
    2.6142   -1.9932   -0.8337 C   0  0  0  0  0  0  0  0  0  0  0  0
    2.6793   -3.1664   -1.1863 O   0  0  0  0  0  0  0  0  0  0  0  0
    3.7589   -1.3784   -0.0566 C   0  0  0  0  0  0  0  0  0  0  0  0
    4.8508   -2.3321    0.3565 C   0  0  0  0  0  0  0  0  0  0  0  0
    4.5722   -3.0182    1.6776 C   0  0  0  0  0  0  0  0  0  0  0  0
    3.8384   -4.2135    1.7159 C   0  0  0  0  0  0  0  0  0  0  0  0
    3.5653   -4.8424    2.9317 C   0  0  0  0  0  0  0  0  0  0  0  0
    4.0204   -4.2837    4.1241 C   0  0  0  0  0  0  0  0  0  0  0  0
    4.7483   -3.0960    4.1014 C   0  0  0  0  0  0  0  0  0  0  0  0
    5.0221   -2.4647    2.8854 C   0  0  0  0  0  0  0  0  0  0  0  0
    3.7308   -0.0419    0.1372 C   0  0  0  0  0  0  0  0  0  0  0  0
    4.7920    0.7608    0.8375 C   0  0  0  0  0  0  0  0  0  0  0  0
    2.6461    0.6674   -0.3201 N   0  0  0  0  0  0  0  0  0  0  0  0
   -4.6100    2.4303   -0.5877 C   0  0  0  0  0  0  0  0  0  0  0  0
   -3.8150    2.4299    0.6977 C   0  0  0  0  0  0  0  0  0  0  0  0
   -7.5466    4.0218    0.3507 H   0  0  0  0  0  0  0  0  0  0  0  0
   -6.6027    2.9616    1.3936 H   0  0  0  0  0  0  0  0  0  0  0  0
   -5.9462    4.5493    0.8790 H   0  0  0  0  0  0  0  0  0  0  0  0
   -7.5961    3.4917   -1.8988 H   0  0  0  0  0  0  0  0  0  0  0  0
   -6.6423    2.4556   -3.9136 H   0  0  0  0  0  0  0  0  0  0  0  0
   -4.4593    1.3961   -3.8560 H   0  0  0  0  0  0  0  0  0  0  0  0
   -2.3490    1.2021   -0.7882 H   0  0  0  0  0  0  0  0  0  0  0  0
   -0.2459   -0.4223   -3.0910 H   0  0  0  0  0  0  0  0  0  0  0  0
   -1.1046   -0.9037   -1.6036 H   0  0  0  0  0  0  0  0  0  0  0  0
    5.8189   -1.8204    0.4179 H   0  0  0  0  0  0  0  0  0  0  0  0
    5.0187   -3.0915   -0.4193 H   0  0  0  0  0  0  0  0  0  0  0  0
    3.4723   -4.6649    0.7945 H   0  0  0  0  0  0  0  0  0  0  0  0
    2.9960   -5.7683    2.9449 H   0  0  0  0  0  0  0  0  0  0  0  0
    3.8080   -4.7757    5.0702 H   0  0  0  0  0  0  0  0  0  0  0  0
    5.1046   -2.6618    5.0321 H   0  0  0  0  0  0  0  0  0  0  0  0
    5.5956   -1.5420    2.8916 H   0  0  0  0  0  0  0  0  0  0  0  0
    5.6563    0.1712    1.1480 H   0  0  0  0  0  0  0  0  0  0  0  0
    4.3754    1.2320    1.7351 H   0  0  0  0  0  0  0  0  0  0  0  0
    5.1619    1.5523    0.1755 H   0  0  0  0  0  0  0  0  0  0  0  0
    2.5859    1.6603   -0.1315 H   0  0  0  0  0  0  0  0  0  0  0  0
   -4.2858    3.0028    1.5011 H   0  0  0  0  0  0  0  0  0  0  0  0
   -2.8318    2.8857    0.5327 H   0  0  0  0  0  0  0  0  0  0  0  0
   -3.6887    1.4038    1.0608 H   0  0  0  0  0  0  0  0  0  0  0  0
  1  2  1  0
  2  3  2  0
  3  4  1  0
  4  5  2  0
  5  6  1  0
  6  7  1  0
  7  8  1  0
  8  9  2  0
  8 10  1  0
 10 11  1  0
 11 12  1  0
 12 13  2  0
 13 14  1  0
 14 15  2  0
 14 16  1  0
 16 17  1  0
 17 18  1  0
 18 19  2  0
 19 20  1  0
 20 21  2  0
 21 22  1  0
 22 23  2  0
 16 24  2  0
 24 25  1  0
 24 26  1  0
  6 27  2  0
 27 28  1  0
 27  2  1  0
 26 12  1  0
 23 18  1  0
  1 29  1  0
  1 30  1  0
  1 31  1  0
  3 32  1  0
  4 33  1  0
  5 34  1  0
  7 35  1  0
 10 36  1  0
 10 37  1  0
 17 38  1  0
 17 39  1  0
 19 40  1  0
 20 41  1  0
 21 42  1  0
 22 43  1  0
 23 44  1  0
 25 45  1  0
 25 46  1  0
 25 47  1  0
 26 48  1  0
 28 49  1  0
 28 50  1  0
 28 51  1  0
M  END
$$$$
