
     RDKit          3D

 42 44  0  0  0  0  0  0  0  0999 V2000
   -1.8906   -5.3695   -1.3255 C   0  0  0  0  0  0  0  0  0  0  0  0
   -1.2970   -4.0302   -0.9238 C   0  0  0  0  0  0  0  0  0  0  0  0
   -2.6345   -2.8438   -0.5770 S   0  0  0  0  0  0  0  0  0  0  0  0
   -1.6861   -1.3822   -0.1709 C   0  0  0  0  0  0  0  0  0  0  0  0
   -2.3656   -0.2383    0.1863 C   0  0  0  0  0  0  0  0  0  0  0  0
   -1.6180    0.8806    0.4867 C   0  0  0  0  0  0  0  0  0  0  0  0
   -2.2096    2.0647    0.8646 N   0  0  0  0  0  0  0  0  0  0  0  0
   -3.5650    2.4453    0.4829 C   0  0  0  0  0  0  0  0  0  0  0  0
   -3.5344    3.9741    0.4573 C   0  0  0  0  0  0  0  0  0  0  0  0
   -2.4030    4.3271    1.4093 C   0  0  0  0  0  0  0  0  0  0  0  0
   -1.3780    3.2346    1.1247 C   0  0  0  0  0  0  0  0  0  0  0  0
   -0.2759    0.8257    0.4494 N   0  0  0  0  0  0  0  0  0  0  0  0
    0.3135   -0.3297    0.0900 C   0  0  0  0  0  0  0  0  0  0  0  0
    1.7910   -0.3659    0.0497 C   0  0  0  0  0  0  0  0  0  0  0  0
    2.5621    0.7831    0.3077 C   0  0  0  0  0  0  0  0  0  0  0  0
    3.9614    0.7512    0.2763 C   0  0  0  0  0  0  0  0  0  0  0  0
    4.6367   -0.4351   -0.0220 C   0  0  0  0  0  0  0  0  0  0  0  0
    6.1354   -0.4781   -0.0065 C   0  0  0  0  0  0  0  0  0  0  0  0
    3.8919   -1.5901   -0.2710 C   0  0  0  0  0  0  0  0  0  0  0  0
    2.4923   -1.5520   -0.2401 C   0  0  0  0  0  0  0  0  0  0  0  0
   -0.3504   -1.4501   -0.2313 N   0  0  0  0  0  0  0  0  0  0  0  0
   -1.0872   -6.0788   -1.5495 H   0  0  0  0  0  0  0  0  0  0  0  0
   -2.4941   -5.8005   -0.5193 H   0  0  0  0  0  0  0  0  0  0  0  0
   -2.5147   -5.2829   -2.2217 H   0  0  0  0  0  0  0  0  0  0  0  0
   -0.6652   -3.6556   -1.7353 H   0  0  0  0  0  0  0  0  0  0  0  0
   -0.6809   -4.1583   -0.0279 H   0  0  0  0  0  0  0  0  0  0  0  0
   -3.4451   -0.2311    0.2411 H   0  0  0  0  0  0  0  0  0  0  0  0
   -4.2750    2.0853    1.2351 H   0  0  0  0  0  0  0  0  0  0  0  0
   -3.8609    2.0627   -0.5006 H   0  0  0  0  0  0  0  0  0  0  0  0
   -3.2921    4.3247   -0.5538 H   0  0  0  0  0  0  0  0  0  0  0  0
   -4.4913    4.4163    0.7483 H   0  0  0  0  0  0  0  0  0  0  0  0
   -2.0035    5.3309    1.2430 H   0  0  0  0  0  0  0  0  0  0  0  0
   -2.7512    4.2603    2.4465 H   0  0  0  0  0  0  0  0  0  0  0  0
   -0.7861    3.4978    0.2393 H   0  0  0  0  0  0  0  0  0  0  0  0
   -0.7104    3.0902    1.9803 H   0  0  0  0  0  0  0  0  0  0  0  0
    2.0695    1.7256    0.5428 H   0  0  0  0  0  0  0  0  0  0  0  0
    4.5164    1.6616    0.4919 H   0  0  0  0  0  0  0  0  0  0  0  0
    6.5543    0.4472   -0.4162 H   0  0  0  0  0  0  0  0  0  0  0  0
    6.5138   -1.3054   -0.6167 H   0  0  0  0  0  0  0  0  0  0  0  0
    6.4927   -0.6075    1.0201 H   0  0  0  0  0  0  0  0  0  0  0  0
    4.3900   -2.5322   -0.4865 H   0  0  0  0  0  0  0  0  0  0  0  0
    1.9449   -2.4718   -0.4403 H   0  0  0  0  0  0  0  0  0  0  0  0
  1  2  1  0
  2  3  1  0
  3  4  1  0
  4  5  2  0
  5  6  1  0
  6  7  1  0
  7  8  1  0
  8  9  1  0
  9 10  1  0
 10 11  1  0
  6 12  2  0
 12 13  1  0
 13 14  1  0
 14 15  2  0
 15 16  1  0
 16 17  2  0
 17 18  1  0
 17 19  1  0
 19 20  2  0
 13 21  2  0
 21  4  1  0
 11  7  1  0
 20 14  1  0
  1 22  1  0
  1 23  1  0
  1 24  1  0
  2 25  1  0
  2 26  1  0
  5 27  1  0
  8 28  1  0
  8 29  1  0
  9 30  1  0
  9 31  1  0
 10 32  1  0
 10 33  1  0
 11 34  1  0
 11 35  1  0
 15 36  1  0
 16 37  1  0
 18 38  1  0
 18 39  1  0
 18 40  1  0
 19 41  1  0
 20 42  1  0
M  END
$$$$
