
     RDKit          3D

 51 54  0  0  0  0  0  0  0  0999 V2000
   -0.3897   -2.5070   -0.7765 O   0  0  0  0  0  0  0  0  0  0  0  0
   -0.5351   -1.6583    0.1071 C   0  0  0  0  0  0  0  0  0  0  0  0
    0.6200   -1.2900    0.9461 C   0  0  0  0  0  0  0  0  0  0  0  0
    1.9762   -1.6255    0.6752 C   0  0  0  0  0  0  0  0  0  0  0  0
    2.6899   -1.1130    1.7298 C   0  0  0  0  0  0  0  0  0  0  0  0
    4.1191   -1.0797    2.1127 C   0  0  0  0  0  0  0  0  0  0  0  0
    4.9280   -1.2928    0.9521 O   0  0  0  0  0  0  0  0  0  0  0  0
    5.3251   -0.2046    0.2253 C   0  0  0  0  0  0  0  0  0  0  0  0
    4.8057    1.0862    0.3231 C   0  0  0  0  0  0  0  0  0  0  0  0
    5.2948    2.1037   -0.5011 C   0  0  0  0  0  0  0  0  0  0  0  0
    6.3025    1.8359   -1.4283 C   0  0  0  0  0  0  0  0  0  0  0  0
    6.8352    0.5443   -1.5407 C   0  0  0  0  0  0  0  0  0  0  0  0
    7.9045    0.2351   -2.5581 C   0  0  0  0  0  0  0  0  0  0  0  0
    7.3857   -0.1924   -3.7420 F   0  0  0  0  0  0  0  0  0  0  0  0
    8.6842    1.3120   -2.8593 F   0  0  0  0  0  0  0  0  0  0  0  0
    8.7641   -0.7408   -2.1510 F   0  0  0  0  0  0  0  0  0  0  0  0
    6.3276   -0.4704   -0.7131 C   0  0  0  0  0  0  0  0  0  0  0  0
    1.8266   -0.5228    2.5964 O   0  0  0  0  0  0  0  0  0  0  0  0
    0.5372   -0.6391    2.1197 N   0  0  0  0  0  0  0  0  0  0  0  0
   -1.7881   -1.0573    0.3161 N   0  0  0  0  0  0  0  0  0  0  0  0
   -1.9988    0.1663    1.0937 C   0  0  0  0  0  0  0  0  0  0  0  0
   -3.2679    0.9041    0.6789 C   0  0  0  0  0  0  0  0  0  0  0  0
   -4.5037    0.0003    0.8215 C   0  0  0  0  0  0  0  0  0  0  0  0
   -5.7097    0.6050    0.1248 C   0  0  0  0  0  0  0  0  0  0  0  0
   -5.7697    0.7483   -1.2660 C   0  0  0  0  0  0  0  0  0  0  0  0
   -6.9054    1.3083   -1.8340 C   0  0  0  0  0  0  0  0  0  0  0  0
   -7.9723    1.7303   -1.1235 N   0  0  0  0  0  0  0  0  0  0  0  0
   -7.8984    1.5874    0.2159 C   0  0  0  0  0  0  0  0  0  0  0  0
   -6.8065    1.0417    0.8756 C   0  0  0  0  0  0  0  0  0  0  0  0
   -4.2268   -1.4502    0.3756 C   0  0  0  0  0  0  0  0  0  0  0  0
   -2.9333   -1.5851   -0.4219 C   0  0  0  0  0  0  0  0  0  0  0  0
    2.3636   -2.1575   -0.1820 H   0  0  0  0  0  0  0  0  0  0  0  0
    4.3172   -1.9154    2.7939 H   0  0  0  0  0  0  0  0  0  0  0  0
    4.3980   -0.1670    2.6518 H   0  0  0  0  0  0  0  0  0  0  0  0
    4.0076    1.3366    1.0152 H   0  0  0  0  0  0  0  0  0  0  0  0
    4.8824    3.1081   -0.4243 H   0  0  0  0  0  0  0  0  0  0  0  0
    6.6692    2.6392   -2.0664 H   0  0  0  0  0  0  0  0  0  0  0  0
    6.7203   -1.4840   -0.7959 H   0  0  0  0  0  0  0  0  0  0  0  0
   -1.1443    0.8361    0.9556 H   0  0  0  0  0  0  0  0  0  0  0  0
   -2.0618   -0.1176    2.1501 H   0  0  0  0  0  0  0  0  0  0  0  0
   -3.3915    1.8085    1.2860 H   0  0  0  0  0  0  0  0  0  0  0  0
   -3.1500    1.2452   -0.3574 H   0  0  0  0  0  0  0  0  0  0  0  0
   -4.7381   -0.0525    1.8952 H   0  0  0  0  0  0  0  0  0  0  0  0
   -4.9541    0.4346   -1.9076 H   0  0  0  0  0  0  0  0  0  0  0  0
   -6.9874    1.4345   -2.9105 H   0  0  0  0  0  0  0  0  0  0  0  0
   -8.7688    1.9339    0.7675 H   0  0  0  0  0  0  0  0  0  0  0  0
   -6.8223    0.9604    1.9575 H   0  0  0  0  0  0  0  0  0  0  0  0
   -5.0636   -1.8737   -0.1928 H   0  0  0  0  0  0  0  0  0  0  0  0
   -4.1309   -2.0702    1.2780 H   0  0  0  0  0  0  0  0  0  0  0  0
   -2.7703   -2.6406   -0.6670 H   0  0  0  0  0  0  0  0  0  0  0  0
   -2.9961   -1.0385   -1.3699 H   0  0  0  0  0  0  0  0  0  0  0  0
  1  2  2  0
  2  3  1  0
  3  4  1  0
  4  5  2  0
  5  6  1  0
  6  7  1  0
  7  8  1  0
  8  9  2  0
  9 10  1  0
 10 11  2  0
 11 12  1  0
 12 13  1  0
 13 14  1  0
 13 15  1  0
 13 16  1  0
 12 17  2  0
  5 18  1  0
 18 19  1  0
  2 20  1  0
 20 21  1  0
 21 22  1  0
 22 23  1  0
 23 24  1  0
 24 25  2  0
 25 26  1  0
 26 27  2  0
 27 28  1  0
 28 29  2  0
 23 30  1  0
 30 31  1  0
 19  3  2  0
 31 20  1  0
 17  8  1  0
 29 24  1  0
  4 32  1  0
  6 33  1  0
  6 34  1  0
  9 35  1  0
 10 36  1  0
 11 37  1  0
 17 38  1  0
 21 39  1  0
 21 40  1  0
 22 41  1  0
 22 42  1  0
 23 43  1  0
 25 44  1  0
 26 45  1  0
 28 46  1  0
 29 47  1  0
 30 48  1  0
 30 49  1  0
 31 50  1  0
 31 51  1  0
M  END
$$$$
