
     RDKit          3D

 53 54  0  0  0  0  0  0  0  0999 V2000
    6.0166   -0.4721    2.4208 C   0  0  0  0  0  0  0  0  0  0  0  0
    5.2375    0.8329    2.2815 C   0  0  0  0  0  0  0  0  0  0  0  0
    3.8186    0.7164    1.9457 N   0  0  0  0  0  0  0  0  0  0  0  0
    3.0289   -0.0668    2.8959 C   0  0  0  0  0  0  0  0  0  0  0  0
    1.5024    0.0054    2.6153 C   0  0  0  0  0  0  0  0  0  0  0  0
    1.0856    0.3717    1.2403 N   0  0  0  0  0  0  0  0  0  0  0  0
    0.9354    1.8494    1.1159 C   0  0  0  0  0  0  0  0  0  0  0  0
    0.1385    2.2236   -0.1465 C   0  0  0  0  0  0  0  0  0  0  0  0
    0.3113    3.2945   -0.7208 O   0  0  0  0  0  0  0  0  0  0  0  0
   -0.7889    1.2577   -0.4799 N   0  0  0  0  0  0  0  0  0  0  0  0
   -1.7547    1.2547   -1.5023 C   0  0  0  0  0  0  0  0  0  0  0  0
   -1.9540    2.3292   -2.3724 C   0  0  0  0  0  0  0  0  0  0  0  0
   -2.9494    2.2742   -3.3611 C   0  0  0  0  0  0  0  0  0  0  0  0
   -3.1460    3.4329   -4.3075 C   0  0  0  0  0  0  0  0  0  0  0  0
   -2.3011    3.3794   -5.3742 F   0  0  0  0  0  0  0  0  0  0  0  0
   -2.9458    4.6470   -3.7244 F   0  0  0  0  0  0  0  0  0  0  0  0
   -4.4035    3.4799   -4.8344 F   0  0  0  0  0  0  0  0  0  0  0  0
   -3.7302    1.1158   -3.4771 C   0  0  0  0  0  0  0  0  0  0  0  0
   -3.5359    0.0354   -2.6136 C   0  0  0  0  0  0  0  0  0  0  0  0
   -2.5591    0.1026   -1.6187 C   0  0  0  0  0  0  0  0  0  0  0  0
   -2.2876   -0.9038   -0.7218 O   0  0  0  0  0  0  0  0  0  0  0  0
   -3.2742   -1.9235   -0.5723 C   0  0  0  0  0  0  0  0  0  0  0  0
   -2.9108   -2.7678    0.6504 C   0  0  0  0  0  0  0  0  0  0  0  0
   -3.8931   -3.7665    0.9216 O   0  0  0  0  0  0  0  0  0  0  0  0
   -3.7191   -4.9454    0.1488 C   0  0  0  0  0  0  0  0  0  0  0  0
    2.1005   -0.1355    0.2857 C   0  0  0  0  0  0  0  0  0  0  0  0
    3.5682    0.2948    0.5589 C   0  0  0  0  0  0  0  0  0  0  0  0
    5.6258   -1.0923    3.2333 H   0  0  0  0  0  0  0  0  0  0  0  0
    6.0033   -1.0595    1.4982 H   0  0  0  0  0  0  0  0  0  0  0  0
    7.0640   -0.2517    2.6556 H   0  0  0  0  0  0  0  0  0  0  0  0
    5.3256    1.3870    3.2247 H   0  0  0  0  0  0  0  0  0  0  0  0
    5.7325    1.4621    1.5316 H   0  0  0  0  0  0  0  0  0  0  0  0
    3.2069    0.2906    3.9172 H   0  0  0  0  0  0  0  0  0  0  0  0
    3.3352   -1.1209    2.8620 H   0  0  0  0  0  0  0  0  0  0  0  0
    1.0257    0.6680    3.3490 H   0  0  0  0  0  0  0  0  0  0  0  0
    1.0871   -0.9914    2.8202 H   0  0  0  0  0  0  0  0  0  0  0  0
    1.8925    2.3804    1.1031 H   0  0  0  0  0  0  0  0  0  0  0  0
    0.3399    2.2362    1.9535 H   0  0  0  0  0  0  0  0  0  0  0  0
   -0.7379    0.4114    0.0877 H   0  0  0  0  0  0  0  0  0  0  0  0
   -1.3469    3.2288   -2.2970 H   0  0  0  0  0  0  0  0  0  0  0  0
   -4.4977    1.0508   -4.2473 H   0  0  0  0  0  0  0  0  0  0  0  0
   -4.1561   -0.8444   -2.7492 H   0  0  0  0  0  0  0  0  0  0  0  0
   -4.2716   -1.4909   -0.4217 H   0  0  0  0  0  0  0  0  0  0  0  0
   -3.2957   -2.5546   -1.4674 H   0  0  0  0  0  0  0  0  0  0  0  0
   -1.9119   -3.2122    0.5472 H   0  0  0  0  0  0  0  0  0  0  0  0
   -2.8616   -2.1138    1.5299 H   0  0  0  0  0  0  0  0  0  0  0  0
   -3.8182   -4.7327   -0.9181 H   0  0  0  0  0  0  0  0  0  0  0  0
   -4.4998   -5.6557    0.4325 H   0  0  0  0  0  0  0  0  0  0  0  0
   -2.7441   -5.3974    0.3547 H   0  0  0  0  0  0  0  0  0  0  0  0
    2.0552   -1.2336    0.3249 H   0  0  0  0  0  0  0  0  0  0  0  0
    1.8320    0.1234   -0.7456 H   0  0  0  0  0  0  0  0  0  0  0  0
    4.2136   -0.5411    0.2665 H   0  0  0  0  0  0  0  0  0  0  0  0
    3.8125    1.1372   -0.0994 H   0  0  0  0  0  0  0  0  0  0  0  0
  1  2  1  0
  2  3  1  0
  3  4  1  0
  4  5  1  0
  5  6  1  0
  6  7  1  0
  7  8  1  0
  8  9  2  0
  8 10  1  0
 10 11  1  0
 11 12  2  0
 12 13  1  0
 13 14  1  0
 14 15  1  0
 14 16  1  0
 14 17  1  0
 13 18  2  0
 18 19  1  0
 19 20  2  0
 20 21  1  0
 21 22  1  0
 22 23  1  0
 23 24  1  0
 24 25  1  0
  6 26  1  0
 26 27  1  0
 27  3  1  0
 20 11  1  0
  1 28  1  0
  1 29  1  0
  1 30  1  0
  2 31  1  0
  2 32  1  0
  4 33  1  0
  4 34  1  0
  5 35  1  0
  5 36  1  0
  7 37  1  0
  7 38  1  0
 10 39  1  0
 12 40  1  0
 18 41  1  0
 19 42  1  0
 22 43  1  0
 22 44  1  0
 23 45  1  0
 23 46  1  0
 25 47  1  0
 25 48  1  0
 25 49  1  0
 26 50  1  0
 26 51  1  0
 27 52  1  0
 27 53  1  0
M  END
$$$$
