
     RDKit          3D

 49 52  0  0  0  0  0  0  0  0999 V2000
   -8.0147    2.0410    0.7002 C   0  0  0  0  0  0  0  0  0  0  0  0
   -7.7257    1.0004   -0.2251 O   0  0  0  0  0  0  0  0  0  0  0  0
   -6.7242    0.1335    0.1155 C   0  0  0  0  0  0  0  0  0  0  0  0
   -5.9555    0.1822    1.2777 C   0  0  0  0  0  0  0  0  0  0  0  0
   -4.9571   -0.7724    1.5007 C   0  0  0  0  0  0  0  0  0  0  0  0
   -4.7162   -1.7907    0.5681 C   0  0  0  0  0  0  0  0  0  0  0  0
   -3.6191   -2.7956    0.8061 C   0  0  0  0  0  0  0  0  0  0  0  0
   -2.3364   -2.2497    0.4260 N   0  0  0  0  0  0  0  0  0  0  0  0
   -1.4766   -1.7026    1.3607 C   0  0  0  0  0  0  0  0  0  0  0  0
   -1.7184   -1.7708    2.5642 O   0  0  0  0  0  0  0  0  0  0  0  0
   -0.3006   -1.0464    0.7981 C   0  0  0  0  0  0  0  0  0  0  0  0
    0.2340   -1.0985   -0.4897 C   0  0  0  0  0  0  0  0  0  0  0  0
    1.3908   -0.2963   -0.5936 C   0  0  0  0  0  0  0  0  0  0  0  0
    1.6936    0.3179    0.5781 C   0  0  0  0  0  0  0  0  0  0  0  0
    0.6536   -0.0238    1.8327 S   0  0  0  0  0  0  0  0  0  0  0  0
    2.9065    1.1475    0.4801 C   0  0  0  0  0  0  0  0  0  0  0  0
    3.4563    0.7928   -0.8790 N   0  0  0  0  0  0  0  0  0  0  0  0
    4.6455   -0.0689   -0.7486 C   0  0  0  0  0  0  0  0  0  0  0  0
    5.8506    0.6589   -0.1871 C   0  0  0  0  0  0  0  0  0  0  0  0
    6.3075    1.8479   -0.7758 C   0  0  0  0  0  0  0  0  0  0  0  0
    7.4277    2.5073   -0.2680 C   0  0  0  0  0  0  0  0  0  0  0  0
    8.1073    1.9830    0.8296 C   0  0  0  0  0  0  0  0  0  0  0  0
    7.6684    0.7989    1.4193 C   0  0  0  0  0  0  0  0  0  0  0  0
    6.5478    0.1378    0.9127 C   0  0  0  0  0  0  0  0  0  0  0  0
    2.3783    0.0601   -1.6354 C   0  0  0  0  0  0  0  0  0  0  0  0
   -5.4858   -1.8300   -0.6003 C   0  0  0  0  0  0  0  0  0  0  0  0
   -6.4826   -0.8757   -0.8194 C   0  0  0  0  0  0  0  0  0  0  0  0
   -7.1532    2.7044    0.8299 H   0  0  0  0  0  0  0  0  0  0  0  0
   -8.3499    1.6344    1.6601 H   0  0  0  0  0  0  0  0  0  0  0  0
   -8.8341    2.6372    0.2872 H   0  0  0  0  0  0  0  0  0  0  0  0
   -6.1015    0.9489    2.0312 H   0  0  0  0  0  0  0  0  0  0  0  0
   -4.3601   -0.7154    2.4106 H   0  0  0  0  0  0  0  0  0  0  0  0
   -3.6182   -3.1182    1.8531 H   0  0  0  0  0  0  0  0  0  0  0  0
   -3.7831   -3.6893    0.1937 H   0  0  0  0  0  0  0  0  0  0  0  0
   -2.2227   -1.9895   -0.5411 H   0  0  0  0  0  0  0  0  0  0  0  0
   -0.1767   -1.6880   -1.2987 H   0  0  0  0  0  0  0  0  0  0  0  0
    3.6036    0.9593    1.3024 H   0  0  0  0  0  0  0  0  0  0  0  0
    2.6444    2.2112    0.4810 H   0  0  0  0  0  0  0  0  0  0  0  0
    4.4196   -0.9592   -0.1464 H   0  0  0  0  0  0  0  0  0  0  0  0
    4.9475   -0.4318   -1.7404 H   0  0  0  0  0  0  0  0  0  0  0  0
    5.7819    2.2668   -1.6316 H   0  0  0  0  0  0  0  0  0  0  0  0
    7.7684    3.4305   -0.7292 H   0  0  0  0  0  0  0  0  0  0  0  0
    8.9791    2.4971    1.2253 H   0  0  0  0  0  0  0  0  0  0  0  0
    8.1994    0.3896    2.2747 H   0  0  0  0  0  0  0  0  0  0  0  0
    6.2208   -0.7854    1.3855 H   0  0  0  0  0  0  0  0  0  0  0  0
    2.7477   -0.8199   -2.1724 H   0  0  0  0  0  0  0  0  0  0  0  0
    1.9307    0.7487   -2.3602 H   0  0  0  0  0  0  0  0  0  0  0  0
   -5.3203   -2.6017   -1.3482 H   0  0  0  0  0  0  0  0  0  0  0  0
   -7.0781   -0.9175   -1.7283 H   0  0  0  0  0  0  0  0  0  0  0  0
  1  2  1  0
  2  3  1  0
  3  4  2  0
  4  5  1  0
  5  6  2  0
  6  7  1  0
  7  8  1  0
  8  9  1  0
  9 10  2  0
  9 11  1  0
 11 12  2  0
 12 13  1  0
 13 14  2  0
 14 15  1  0
 14 16  1  0
 16 17  1  0
 17 18  1  0
 18 19  1  0
 19 20  2  0
 20 21  1  0
 21 22  2  0
 22 23  1  0
 23 24  2  0
 17 25  1  0
  6 26  1  0
 26 27  2  0
 27  3  1  0
 15 11  1  0
 24 19  1  0
 25 13  1  0
  1 28  1  0
  1 29  1  0
  1 30  1  0
  4 31  1  0
  5 32  1  0
  7 33  1  0
  7 34  1  0
  8 35  1  0
 12 36  1  0
 16 37  1  0
 16 38  1  0
 18 39  1  0
 18 40  1  0
 20 41  1  0
 21 42  1  0
 22 43  1  0
 23 44  1  0
 24 45  1  0
 25 46  1  0
 25 47  1  0
 26 48  1  0
 27 49  1  0
M  END
$$$$
