
     RDKit          3D

 46 49  0  0  0  0  0  0  0  0999 V2000
    3.3429    0.9042   -1.5984 C   0  0  0  0  0  0  0  0  0  0  0  0
    4.2266    0.1126   -0.7387 N   0  0  0  0  0  0  0  0  0  0  0  0
    5.6211    0.5721   -0.8666 C   0  0  0  0  0  0  0  0  0  0  0  0
    5.8979    1.4026    0.3694 C   0  0  0  0  0  0  0  0  0  0  0  0
    5.1111    0.6637    1.4280 C   0  0  0  0  0  0  0  0  0  0  0  0
    3.8401    0.2339    0.6880 C   0  0  0  0  0  0  0  0  0  0  0  0
    3.2951   -1.0838    1.2586 C   0  0  0  0  0  0  0  0  0  0  0  0
    2.0068   -1.5887    0.6046 C   0  0  0  0  0  0  0  0  0  0  0  0
    0.8684   -0.7468    0.9743 N   0  0  0  0  0  0  0  0  0  0  0  0
   -0.3950   -1.0236    0.4409 C   0  0  0  0  0  0  0  0  0  0  0  0
   -0.7798   -2.2748   -0.0388 C   0  0  0  0  0  0  0  0  0  0  0  0
   -2.0853   -2.5043   -0.4905 C   0  0  0  0  0  0  0  0  0  0  0  0
   -3.0562   -1.4949   -0.4500 C   0  0  0  0  0  0  0  0  0  0  0  0
   -4.6666   -1.9058   -1.0593 S   0  0  0  0  0  0  0  0  0  0  0  0
   -5.6151   -0.4470   -0.7264 C   0  0  0  0  0  0  0  0  0  0  0  0
   -6.9854   -0.4990   -1.0352 C   0  0  0  0  0  0  0  0  0  0  0  0
   -7.8167    0.6016   -0.8181 C   0  0  0  0  0  0  0  0  0  0  0  0
   -7.2880    1.7726   -0.2897 C   0  0  0  0  0  0  0  0  0  0  0  0
   -5.9301    1.8374    0.0201 C   0  0  0  0  0  0  0  0  0  0  0  0
   -5.0876    0.7306   -0.1946 C   0  0  0  0  0  0  0  0  0  0  0  0
   -3.6566    0.8751    0.1606 C   0  0  0  0  0  0  0  0  0  0  0  0
   -3.2511    1.9683    0.5541 O   0  0  0  0  0  0  0  0  0  0  0  0
   -2.6994   -0.2510    0.0622 C   0  0  0  0  0  0  0  0  0  0  0  0
   -1.3825   -0.0321    0.5145 C   0  0  0  0  0  0  0  0  0  0  0  0
    3.3877    1.9750   -1.3682 H   0  0  0  0  0  0  0  0  0  0  0  0
    3.6148    0.7663   -2.6507 H   0  0  0  0  0  0  0  0  0  0  0  0
    2.3035    0.5749   -1.4984 H   0  0  0  0  0  0  0  0  0  0  0  0
    5.8285    1.1233   -1.7906 H   0  0  0  0  0  0  0  0  0  0  0  0
    6.2704   -0.3121   -0.8684 H   0  0  0  0  0  0  0  0  0  0  0  0
    5.5110    2.4211    0.2469 H   0  0  0  0  0  0  0  0  0  0  0  0
    6.9637    1.4605    0.6075 H   0  0  0  0  0  0  0  0  0  0  0  0
    4.8925    1.2983    2.2925 H   0  0  0  0  0  0  0  0  0  0  0  0
    5.6859   -0.2030    1.7775 H   0  0  0  0  0  0  0  0  0  0  0  0
    3.0982    1.0317    0.8252 H   0  0  0  0  0  0  0  0  0  0  0  0
    4.0588   -1.8654    1.1465 H   0  0  0  0  0  0  0  0  0  0  0  0
    3.1305   -0.9648    2.3376 H   0  0  0  0  0  0  0  0  0  0  0  0
    2.1160   -1.6430   -0.4841 H   0  0  0  0  0  0  0  0  0  0  0  0
    1.8362   -2.6070    0.9739 H   0  0  0  0  0  0  0  0  0  0  0  0
    1.0743    0.2475    0.9140 H   0  0  0  0  0  0  0  0  0  0  0  0
   -0.0779   -3.1026   -0.0735 H   0  0  0  0  0  0  0  0  0  0  0  0
   -2.3343   -3.4942   -0.8697 H   0  0  0  0  0  0  0  0  0  0  0  0
   -7.4214   -1.4055   -1.4523 H   0  0  0  0  0  0  0  0  0  0  0  0
   -8.8744    0.5418   -1.0632 H   0  0  0  0  0  0  0  0  0  0  0  0
   -7.9272    2.6351   -0.1179 H   0  0  0  0  0  0  0  0  0  0  0  0
   -5.5270    2.7607    0.4339 H   0  0  0  0  0  0  0  0  0  0  0  0
   -1.1244    0.9386    0.9361 H   0  0  0  0  0  0  0  0  0  0  0  0
  1  2  1  0
  2  3  1  0
  3  4  1  0
  4  5  1  0
  5  6  1  0
  6  7  1  0
  7  8  1  0
  8  9  1  0
  9 10  1  0
 10 11  2  0
 11 12  1  0
 12 13  2  0
 13 14  1  0
 14 15  1  0
 15 16  2  0
 16 17  1  0
 17 18  2  0
 18 19  1  0
 19 20  2  0
 20 21  1  0
 21 22  2  0
 21 23  1  0
 23 24  2  0
  6  2  1  0
 24 10  1  0
 23 13  1  0
 20 15  1  0
  1 25  1  0
  1 26  1  0
  1 27  1  0
  3 28  1  0
  3 29  1  0
  4 30  1  0
  4 31  1  0
  5 32  1  0
  5 33  1  0
  6 34  1  0
  7 35  1  0
  7 36  1  0
  8 37  1  0
  8 38  1  0
  9 39  1  0
 11 40  1  0
 12 41  1  0
 16 42  1  0
 17 43  1  0
 18 44  1  0
 19 45  1  0
 24 46  1  0
M  END
$$$$
