
     RDKit          3D

 53 54  0  0  0  0  0  0  0  0999 V2000
    0.2429   -0.6781   -0.4026 C   0  0  0  0  0  0  0  0  0  0  0  0
   -0.0575    0.7517   -0.8927 C   0  0  0  0  0  0  0  0  0  0  0  0
   -0.3472    1.6495    0.3256 C   0  0  0  0  0  0  0  0  0  0  0  0
    1.1494    1.2935   -1.7067 C   0  0  0  0  0  0  0  0  0  0  0  0
    2.3815    1.4074   -0.9479 N   0  0  0  0  0  0  0  0  0  0  0  0
    2.8062    2.5993   -0.4212 C   0  0  0  0  0  0  0  0  0  0  0  0
    2.1995    3.6583   -0.5258 O   0  0  0  0  0  0  0  0  0  0  0  0
    4.0532    2.5443    0.3805 C   0  0  0  0  0  0  0  0  0  0  0  0
    5.0634    1.6874    0.1650 C   0  0  0  0  0  0  0  0  0  0  0  0
    6.2934    1.6856    0.9682 C   0  0  0  0  0  0  0  0  0  0  0  0
    6.9557    2.8727    1.3168 C   0  0  0  0  0  0  0  0  0  0  0  0
    8.1361    2.8311    2.0633 C   0  0  0  0  0  0  0  0  0  0  0  0
    8.6575    1.6041    2.4539 C   0  0  0  0  0  0  0  0  0  0  0  0
    9.7888    1.5646    3.1698 F   0  0  0  0  0  0  0  0  0  0  0  0
    8.0271    0.4165    2.1041 C   0  0  0  0  0  0  0  0  0  0  0  0
    6.8484    0.4567    1.3552 C   0  0  0  0  0  0  0  0  0  0  0  0
   -1.2787    0.7576   -1.8525 C   0  0  0  0  0  0  0  0  0  0  0  0
   -2.5035    0.2545   -1.2580 N   0  0  0  0  0  0  0  0  0  0  0  0
   -2.9788   -1.0082   -1.5167 C   0  0  0  0  0  0  0  0  0  0  0  0
   -2.4249   -1.8206   -2.2460 O   0  0  0  0  0  0  0  0  0  0  0  0
   -4.2483   -1.3020   -0.8061 C   0  0  0  0  0  0  0  0  0  0  0  0
   -4.8710   -2.4717   -1.0142 C   0  0  0  0  0  0  0  0  0  0  0  0
   -6.1360   -2.8386   -0.3681 C   0  0  0  0  0  0  0  0  0  0  0  0
   -7.1374   -3.4513   -1.1366 C   0  0  0  0  0  0  0  0  0  0  0  0
   -8.3469   -3.8318   -0.5502 C   0  0  0  0  0  0  0  0  0  0  0  0
   -8.5484   -3.6113    0.8067 C   0  0  0  0  0  0  0  0  0  0  0  0
   -9.7073   -3.9777    1.3696 F   0  0  0  0  0  0  0  0  0  0  0  0
   -7.5628   -3.0209    1.5895 C   0  0  0  0  0  0  0  0  0  0  0  0
   -6.3537   -2.6378    1.0034 C   0  0  0  0  0  0  0  0  0  0  0  0
    0.4314   -1.3538   -1.2449 H   0  0  0  0  0  0  0  0  0  0  0  0
    1.1240   -0.7033    0.2485 H   0  0  0  0  0  0  0  0  0  0  0  0
   -0.5901   -1.0889    0.1775 H   0  0  0  0  0  0  0  0  0  0  0  0
   -1.2192    1.2963    0.8869 H   0  0  0  0  0  0  0  0  0  0  0  0
   -0.5454    2.6818    0.0171 H   0  0  0  0  0  0  0  0  0  0  0  0
    0.4937    1.6627    1.0272 H   0  0  0  0  0  0  0  0  0  0  0  0
    0.9060    2.2733   -2.1366 H   0  0  0  0  0  0  0  0  0  0  0  0
    1.3692    0.6201   -2.5444 H   0  0  0  0  0  0  0  0  0  0  0  0
    2.8778    0.5575   -0.7219 H   0  0  0  0  0  0  0  0  0  0  0  0
    4.1057    3.3129    1.1452 H   0  0  0  0  0  0  0  0  0  0  0  0
    5.0222    0.9445   -0.6262 H   0  0  0  0  0  0  0  0  0  0  0  0
    6.5681    3.8392    1.0022 H   0  0  0  0  0  0  0  0  0  0  0  0
    8.6525    3.7461    2.3362 H   0  0  0  0  0  0  0  0  0  0  0  0
    8.4559   -0.5310    2.4143 H   0  0  0  0  0  0  0  0  0  0  0  0
    6.3637   -0.4804    1.0860 H   0  0  0  0  0  0  0  0  0  0  0  0
   -1.4968    1.7826   -2.1744 H   0  0  0  0  0  0  0  0  0  0  0  0
   -1.0536    0.1772   -2.7552 H   0  0  0  0  0  0  0  0  0  0  0  0
   -3.0196    0.8732   -0.6463 H   0  0  0  0  0  0  0  0  0  0  0  0
   -4.6501   -0.5507   -0.1413 H   0  0  0  0  0  0  0  0  0  0  0  0
   -4.4620   -3.1988   -1.7143 H   0  0  0  0  0  0  0  0  0  0  0  0
   -6.9860   -3.6286   -2.1998 H   0  0  0  0  0  0  0  0  0  0  0  0
   -9.1283   -4.2989   -1.1421 H   0  0  0  0  0  0  0  0  0  0  0  0
   -7.7380   -2.8691    2.6499 H   0  0  0  0  0  0  0  0  0  0  0  0
   -5.5818   -2.1964    1.6302 H   0  0  0  0  0  0  0  0  0  0  0  0
  1  2  1  0
  2  3  1  0
  2  4  1  0
  4  5  1  0
  5  6  1  0
  6  7  2  0
  6  8  1  0
  8  9  2  3
  9 10  1  0
 10 11  2  0
 11 12  1  0
 12 13  2  0
 13 14  1  0
 13 15  1  0
 15 16  2  0
  2 17  1  0
 17 18  1  0
 18 19  1  0
 19 20  2  0
 19 21  1  0
 21 22  2  3
 22 23  1  0
 23 24  2  0
 24 25  1  0
 25 26  2  0
 26 27  1  0
 26 28  1  0
 28 29  2  0
 16 10  1  0
 29 23  1  0
  1 30  1  0
  1 31  1  0
  1 32  1  0
  3 33  1  0
  3 34  1  0
  3 35  1  0
  4 36  1  0
  4 37  1  0
  5 38  1  0
  8 39  1  0
  9 40  1  0
 11 41  1  0
 12 42  1  0
 15 43  1  0
 16 44  1  0
 17 45  1  0
 17 46  1  0
 18 47  1  0
 21 48  1  0
 22 49  1  0
 24 50  1  0
 25 51  1  0
 28 52  1  0
 29 53  1  0
M  END
$$$$
