
     RDKit          3D

 55 57  0  0  0  0  0  0  0  0999 V2000
    0.9806    2.6473    1.0268 O   0  0  0  0  0  0  0  0  0  0  0  0
    1.1582    1.4345    1.0496 C   0  0  0  0  0  0  0  0  0  0  0  0
    2.3355    0.7673    1.3308 N   0  0  0  0  0  0  0  0  0  0  0  0
    3.6016    1.3309    1.5896 C   0  0  0  0  0  0  0  0  0  0  0  0
    3.8696    2.7002    1.5546 C   0  0  0  0  0  0  0  0  0  0  0  0
    5.1574    3.1776    1.8201 C   0  0  0  0  0  0  0  0  0  0  0  0
    6.1878    2.2902    2.1211 C   0  0  0  0  0  0  0  0  0  0  0  0
    5.9321    0.9225    2.1566 C   0  0  0  0  0  0  0  0  0  0  0  0
    4.6455    0.4457    1.8915 C   0  0  0  0  0  0  0  0  0  0  0  0
   -0.0059    0.5096    0.8048 C   0  0  0  0  0  0  0  0  0  0  0  0
    0.1347   -0.5656    0.0091 C   0  0  0  0  0  0  0  0  0  0  0  0
   -1.0062   -1.5054   -0.2772 C   0  0  0  0  0  0  0  0  0  0  0  0
   -0.5871   -2.9632   -0.1543 C   0  0  0  0  0  0  0  0  0  0  0  0
   -0.6916   -3.8154   -1.2630 C   0  0  0  0  0  0  0  0  0  0  0  0
   -0.3095   -5.1565   -1.1713 C   0  0  0  0  0  0  0  0  0  0  0  0
    0.1801   -5.6787    0.0340 C   0  0  0  0  0  0  0  0  0  0  0  0
    0.6133   -7.1209    0.1269 C   0  0  0  0  0  0  0  0  0  0  0  0
    1.9288   -7.2862   -0.1833 F   0  0  0  0  0  0  0  0  0  0  0  0
   -0.0759   -7.9434   -0.7126 F   0  0  0  0  0  0  0  0  0  0  0  0
    0.4547   -7.6471    1.3739 F   0  0  0  0  0  0  0  0  0  0  0  0
    0.2944   -4.8266    1.1414 C   0  0  0  0  0  0  0  0  0  0  0  0
   -0.0872   -3.4856    1.0492 C   0  0  0  0  0  0  0  0  0  0  0  0
   -2.2228   -1.1936    0.6070 C   0  0  0  0  0  0  0  0  0  0  0  0
   -2.3732    0.3173    0.7511 C   0  0  0  0  0  0  0  0  0  0  0  0
   -2.6626    0.8811   -0.5320 O   0  0  0  0  0  0  0  0  0  0  0  0
   -2.9073    2.2853   -0.4600 C   0  0  0  0  0  0  0  0  0  0  0  0
   -3.2218    2.7840   -1.8658 C   0  0  0  0  0  0  0  0  0  0  0  0
   -3.4655    4.2929   -1.8841 C   0  0  0  0  0  0  0  0  0  0  0  0
   -3.8094    4.8048   -3.2780 C   0  0  0  0  0  0  0  0  0  0  0  0
   -2.7413    4.5717   -4.1844 O   0  0  0  0  0  0  0  0  0  0  0  0
   -1.2119    0.8831    1.3680 O   0  0  0  0  0  0  0  0  0  0  0  0
    2.2820   -0.2401    1.3967 H   0  0  0  0  0  0  0  0  0  0  0  0
    3.0980    3.4274    1.3222 H   0  0  0  0  0  0  0  0  0  0  0  0
    5.3508    4.2470    1.7901 H   0  0  0  0  0  0  0  0  0  0  0  0
    7.1868    2.6655    2.3268 H   0  0  0  0  0  0  0  0  0  0  0  0
    6.7332    0.2262    2.3902 H   0  0  0  0  0  0  0  0  0  0  0  0
    4.4745   -0.6269    1.9253 H   0  0  0  0  0  0  0  0  0  0  0  0
    1.0766   -0.7710   -0.4931 H   0  0  0  0  0  0  0  0  0  0  0  0
   -1.2936   -1.3199   -1.3219 H   0  0  0  0  0  0  0  0  0  0  0  0
   -1.0723   -3.4413   -2.2122 H   0  0  0  0  0  0  0  0  0  0  0  0
   -0.3986   -5.7957   -2.0491 H   0  0  0  0  0  0  0  0  0  0  0  0
    0.6797   -5.2072    2.0866 H   0  0  0  0  0  0  0  0  0  0  0  0
    0.0083   -2.8512    1.9285 H   0  0  0  0  0  0  0  0  0  0  0  0
   -3.1221   -1.6325    0.1578 H   0  0  0  0  0  0  0  0  0  0  0  0
   -2.1044   -1.6312    1.6062 H   0  0  0  0  0  0  0  0  0  0  0  0
   -3.2236    0.5168    1.4142 H   0  0  0  0  0  0  0  0  0  0  0  0
   -3.7543    2.4768    0.2087 H   0  0  0  0  0  0  0  0  0  0  0  0
   -2.0216    2.8009   -0.0732 H   0  0  0  0  0  0  0  0  0  0  0  0
   -2.3932    2.5194   -2.5343 H   0  0  0  0  0  0  0  0  0  0  0  0
   -4.1007    2.2523   -2.2515 H   0  0  0  0  0  0  0  0  0  0  0  0
   -4.2825    4.5450   -1.1984 H   0  0  0  0  0  0  0  0  0  0  0  0
   -2.5626    4.8015   -1.5246 H   0  0  0  0  0  0  0  0  0  0  0  0
   -4.0074    5.8810   -3.2513 H   0  0  0  0  0  0  0  0  0  0  0  0
   -4.7027    4.3065   -3.6673 H   0  0  0  0  0  0  0  0  0  0  0  0
   -1.9452    4.9929   -3.8166 H   0  0  0  0  0  0  0  0  0  0  0  0
  1  2  2  0
  2  3  1  0
  3  4  1  0
  4  5  2  0
  5  6  1  0
  6  7  2  0
  7  8  1  0
  8  9  2  0
  2 10  1  0
 10 11  2  0
 11 12  1  0
 12 13  1  0
 13 14  2  0
 14 15  1  0
 15 16  2  0
 16 17  1  0
 17 18  1  0
 17 19  1  0
 17 20  1  0
 16 21  1  0
 21 22  2  0
 12 23  1  0
 23 24  1  0
 24 25  1  0
 25 26  1  0
 26 27  1  0
 27 28  1  0
 28 29  1  0
 29 30  1  0
 24 31  1  0
  9  4  1  0
 31 10  1  0
 22 13  1  0
  3 32  1  0
  5 33  1  0
  6 34  1  0
  7 35  1  0
  8 36  1  0
  9 37  1  0
 11 38  1  0
 12 39  1  0
 14 40  1  0
 15 41  1  0
 21 42  1  0
 22 43  1  0
 23 44  1  0
 23 45  1  0
 24 46  1  0
 26 47  1  0
 26 48  1  0
 27 49  1  0
 27 50  1  0
 28 51  1  0
 28 52  1  0
 29 53  1  0
 29 54  1  0
 30 55  1  0
M  END
$$$$
