
     RDKit          3D

 34 34  0  0  0  0  0  0  0  0999 V2000
    3.6980    2.4588    1.0950 C   0  0  0  0  0  0  0  0  0  0  0  0
    3.6051    1.4836    0.0669 O   0  0  0  0  0  0  0  0  0  0  0  0
    2.5052    0.6613    0.0679 C   0  0  0  0  0  0  0  0  0  0  0  0
    1.4647    0.7345    0.9989 C   0  0  0  0  0  0  0  0  0  0  0  0
    0.3828   -0.1451    0.9197 C   0  0  0  0  0  0  0  0  0  0  0  0
    0.3220   -1.1123   -0.0899 C   0  0  0  0  0  0  0  0  0  0  0  0
   -0.8638   -2.0391   -0.1782 C   0  0  0  0  0  0  0  0  0  0  0  0
   -2.0273   -1.3314   -0.6628 N   0  0  0  0  0  0  0  0  0  0  0  0
   -3.0463   -0.9706    0.1802 C   0  0  0  0  0  0  0  0  0  0  0  0
   -3.1484   -1.3148    1.3489 O   0  0  0  0  0  0  0  0  0  0  0  0
   -4.0575   -0.1219   -0.4905 C   0  0  0  0  0  0  0  0  0  0  0  0
   -4.7013    0.8816    0.1211 C   0  0  0  0  0  0  0  0  0  0  0  0
   -4.4276    1.3604    1.4792 C   0  0  0  0  0  0  0  0  0  0  0  0
   -5.2802    1.6932    2.2814 O   0  0  0  0  0  0  0  0  0  0  0  0
   -3.1176    1.5290    1.7117 O   0  0  0  0  0  0  0  0  0  0  0  0
    1.3638   -1.1838   -1.0272 C   0  0  0  0  0  0  0  0  0  0  0  0
    2.4557   -0.3088   -0.9535 C   0  0  0  0  0  0  0  0  0  0  0  0
    3.5122   -0.3131   -1.8314 O   0  0  0  0  0  0  0  0  0  0  0  0
    3.5617   -1.3484   -2.8016 C   0  0  0  0  0  0  0  0  0  0  0  0
    3.7423    1.9892    2.0832 H   0  0  0  0  0  0  0  0  0  0  0  0
    4.6311    3.0113    0.9485 H   0  0  0  0  0  0  0  0  0  0  0  0
    2.8740    3.1773    1.0336 H   0  0  0  0  0  0  0  0  0  0  0  0
    1.4612    1.4670    1.7986 H   0  0  0  0  0  0  0  0  0  0  0  0
   -0.4232   -0.0683    1.6490 H   0  0  0  0  0  0  0  0  0  0  0  0
   -1.0550   -2.4971    0.7985 H   0  0  0  0  0  0  0  0  0  0  0  0
   -0.6665   -2.8513   -0.8863 H   0  0  0  0  0  0  0  0  0  0  0  0
   -1.9549   -0.8917   -1.5693 H   0  0  0  0  0  0  0  0  0  0  0  0
   -4.3177   -0.3960   -1.5057 H   0  0  0  0  0  0  0  0  0  0  0  0
   -5.5117    1.3993   -0.3778 H   0  0  0  0  0  0  0  0  0  0  0  0
   -3.0852    1.8106    2.6486 H   0  0  0  0  0  0  0  0  0  0  0  0
    1.3014   -1.9308   -1.8116 H   0  0  0  0  0  0  0  0  0  0  0  0
    4.4912   -1.2326   -3.3674 H   0  0  0  0  0  0  0  0  0  0  0  0
    3.5816   -2.3359   -2.3287 H   0  0  0  0  0  0  0  0  0  0  0  0
    2.7303   -1.2641   -3.5090 H   0  0  0  0  0  0  0  0  0  0  0  0
  1  2  1  0
  2  3  1  0
  3  4  2  0
  4  5  1  0
  5  6  2  0
  6  7  1  0
  7  8  1  0
  8  9  1  0
  9 10  2  0
  9 11  1  0
 11 12  2  3
 12 13  1  0
 13 14  2  0
 13 15  1  0
  6 16  1  0
 16 17  2  0
 17 18  1  0
 18 19  1  0
 17  3  1  0
  1 20  1  0
  1 21  1  0
  1 22  1  0
  4 23  1  0
  5 24  1  0
  7 25  1  0
  7 26  1  0
  8 27  1  0
 11 28  1  0
 12 29  1  0
 15 30  1  0
 16 31  1  0
 19 32  1  0
 19 33  1  0
 19 34  1  0
M  END
$$$$
