
     RDKit          3D

 40 42  0  0  0  0  0  0  0  0999 V2000
    2.8270    3.6730    1.8933 C   0  0  0  0  0  0  0  0  0  0  0  0
    1.4822    3.9558    1.2450 C   0  0  0  0  0  0  0  0  0  0  0  0
    0.1231    3.1320    2.1470 S   0  0  0  0  0  0  0  0  0  0  0  0
   -0.0217    1.6093    1.2236 C   0  0  0  0  0  0  0  0  0  0  0  0
   -1.2403    0.9706    1.1962 C   0  0  0  0  0  0  0  0  0  0  0  0
   -1.3262   -0.1942    0.4608 C   0  0  0  0  0  0  0  0  0  0  0  0
   -2.5711   -0.8584    0.3756 N   0  0  0  0  0  0  0  0  0  0  0  0
   -2.4508   -2.2541   -0.1066 C   0  0  0  0  0  0  0  0  0  0  0  0
   -3.8433   -2.9069   -0.1349 C   0  0  0  0  0  0  0  0  0  0  0  0
   -4.7481   -2.1673   -0.9748 O   0  0  0  0  0  0  0  0  0  0  0  0
   -4.8905   -0.8232   -0.4875 C   0  0  0  0  0  0  0  0  0  0  0  0
   -3.5388   -0.0891   -0.4488 C   0  0  0  0  0  0  0  0  0  0  0  0
   -0.2502   -0.6955   -0.1631 N   0  0  0  0  0  0  0  0  0  0  0  0
    0.9070   -0.0116   -0.0792 C   0  0  0  0  0  0  0  0  0  0  0  0
    2.0825   -0.5588   -0.7912 C   0  0  0  0  0  0  0  0  0  0  0  0
    3.3532    0.0440   -0.6893 C   0  0  0  0  0  0  0  0  0  0  0  0
    4.4673   -0.4721   -1.3628 C   0  0  0  0  0  0  0  0  0  0  0  0
    4.3296   -1.6064   -2.1562 C   0  0  0  0  0  0  0  0  0  0  0  0
    5.6965   -2.2436   -2.9833 Cl  0  0  0  0  0  0  0  0  0  0  0  0
    3.0908   -2.2272   -2.2809 C   0  0  0  0  0  0  0  0  0  0  0  0
    1.9814   -1.7073   -1.6034 C   0  0  0  0  0  0  0  0  0  0  0  0
    1.0623    1.1397    0.5925 N   0  0  0  0  0  0  0  0  0  0  0  0
    3.6214    4.1848    1.3367 H   0  0  0  0  0  0  0  0  0  0  0  0
    3.0642    2.6052    1.9084 H   0  0  0  0  0  0  0  0  0  0  0  0
    2.8536    4.0452    2.9229 H   0  0  0  0  0  0  0  0  0  0  0  0
    1.2897    5.0338    1.2781 H   0  0  0  0  0  0  0  0  0  0  0  0
    1.4868    3.6734    0.1872 H   0  0  0  0  0  0  0  0  0  0  0  0
   -2.0956    1.3567    1.7326 H   0  0  0  0  0  0  0  0  0  0  0  0
   -1.8001   -2.8351    0.5595 H   0  0  0  0  0  0  0  0  0  0  0  0
   -2.0331   -2.2732   -1.1237 H   0  0  0  0  0  0  0  0  0  0  0  0
   -4.2698   -2.9762    0.8753 H   0  0  0  0  0  0  0  0  0  0  0  0
   -3.7712   -3.9216   -0.5398 H   0  0  0  0  0  0  0  0  0  0  0  0
   -5.3523   -0.8526    0.5084 H   0  0  0  0  0  0  0  0  0  0  0  0
   -5.5785   -0.2970   -1.1596 H   0  0  0  0  0  0  0  0  0  0  0  0
   -3.1500    0.0093   -1.4736 H   0  0  0  0  0  0  0  0  0  0  0  0
   -3.7024    0.9153   -0.0416 H   0  0  0  0  0  0  0  0  0  0  0  0
    3.4867    0.9319   -0.0718 H   0  0  0  0  0  0  0  0  0  0  0  0
    5.4311    0.0161   -1.2572 H   0  0  0  0  0  0  0  0  0  0  0  0
    2.9767   -3.1138   -2.8997 H   0  0  0  0  0  0  0  0  0  0  0  0
    1.0208   -2.2111   -1.7158 H   0  0  0  0  0  0  0  0  0  0  0  0
  1  2  1  0
  2  3  1  0
  3  4  1  0
  4  5  2  0
  5  6  1  0
  6  7  1  0
  7  8  1  0
  8  9  1  0
  9 10  1  0
 10 11  1  0
 11 12  1  0
  6 13  2  0
 13 14  1  0
 14 15  1  0
 15 16  2  0
 16 17  1  0
 17 18  2  0
 18 19  1  0
 18 20  1  0
 20 21  2  0
 14 22  2  0
 22  4  1  0
 12  7  1  0
 21 15  1  0
  1 23  1  0
  1 24  1  0
  1 25  1  0
  2 26  1  0
  2 27  1  0
  5 28  1  0
  8 29  1  0
  8 30  1  0
  9 31  1  0
  9 32  1  0
 11 33  1  0
 11 34  1  0
 12 35  1  0
 12 36  1  0
 16 37  1  0
 17 38  1  0
 20 39  1  0
 21 40  1  0
M  END
$$$$
