
     RDKit          3D

 47 49  0  0  0  0  0  0  0  0999 V2000
   -6.5866   -0.2987   -0.3467 C   0  0  0  0  0  0  0  0  0  0  0  0
   -5.3320   -0.3109    0.3178 O   0  0  0  0  0  0  0  0  0  0  0  0
   -4.2035   -0.3742   -0.4595 C   0  0  0  0  0  0  0  0  0  0  0  0
   -4.2023   -0.4911   -1.8530 C   0  0  0  0  0  0  0  0  0  0  0  0
   -2.9954   -0.5462   -2.5605 C   0  0  0  0  0  0  0  0  0  0  0  0
   -1.7727   -0.4887   -1.8868 C   0  0  0  0  0  0  0  0  0  0  0  0
   -0.5232   -0.6089   -2.6492 C   0  0  0  0  0  0  0  0  0  0  0  0
    0.5618    0.1741   -2.5521 C   0  0  0  0  0  0  0  0  0  0  0  0
    2.0178   -0.1518   -3.4188 S   0  0  0  0  0  0  0  0  0  0  0  0
    2.9216    1.0831   -2.5514 C   0  0  0  0  0  0  0  0  0  0  0  0
    4.5436    1.3486   -2.8420 S   0  0  0  0  0  0  0  0  0  0  0  0
    2.0937    1.7367   -1.6624 N   0  0  0  0  0  0  0  0  0  0  0  0
    2.5084    2.8301   -0.7729 C   0  0  0  0  0  0  0  0  0  0  0  0
    3.3056    2.3653    0.4457 C   0  0  0  0  0  0  0  0  0  0  0  0
    2.4794    1.5618    1.4288 C   0  0  0  0  0  0  0  0  0  0  0  0
    1.2740    1.7219    1.5742 O   0  0  0  0  0  0  0  0  0  0  0  0
    3.2212    0.7132    2.2077 N   0  0  0  0  0  0  0  0  0  0  0  0
    3.1997   -0.5431    1.9200 C   0  0  0  0  0  0  0  0  0  0  0  0
    3.8566   -1.4834    2.6606 N   0  0  0  0  0  0  0  0  0  0  0  0
    3.3831   -2.8409    2.4782 C   0  0  0  0  0  0  0  0  0  0  0  0
    2.9961   -2.9589    1.0081 C   0  0  0  0  0  0  0  0  0  0  0  0
    2.3537   -1.3084    0.5795 S   0  0  0  0  0  0  0  0  0  0  0  0
    0.7508    1.3899   -1.7106 C   0  0  0  0  0  0  0  0  0  0  0  0
   -0.1627    2.0202   -1.1998 O   0  0  0  0  0  0  0  0  0  0  0  0
   -1.7735   -0.4010   -0.4900 C   0  0  0  0  0  0  0  0  0  0  0  0
   -2.9758   -0.3099    0.2216 C   0  0  0  0  0  0  0  0  0  0  0  0
   -3.0160   -0.2030    1.5919 O   0  0  0  0  0  0  0  0  0  0  0  0
   -1.9783    0.5991    2.1542 C   0  0  0  0  0  0  0  0  0  0  0  0
   -7.3678   -0.2140    0.4149 H   0  0  0  0  0  0  0  0  0  0  0  0
   -6.6753    0.5673   -1.0109 H   0  0  0  0  0  0  0  0  0  0  0  0
   -6.7538   -1.2342   -0.8906 H   0  0  0  0  0  0  0  0  0  0  0  0
   -5.1242   -0.5406   -2.4221 H   0  0  0  0  0  0  0  0  0  0  0  0
   -3.0244   -0.6328   -3.6444 H   0  0  0  0  0  0  0  0  0  0  0  0
   -0.5098   -1.4555   -3.3338 H   0  0  0  0  0  0  0  0  0  0  0  0
    1.6308    3.3990   -0.4462 H   0  0  0  0  0  0  0  0  0  0  0  0
    3.1267    3.5214   -1.3571 H   0  0  0  0  0  0  0  0  0  0  0  0
    3.6843    3.2403    0.9868 H   0  0  0  0  0  0  0  0  0  0  0  0
    4.1706    1.7678    0.1428 H   0  0  0  0  0  0  0  0  0  0  0  0
    4.0839   -1.1858    3.6030 H   0  0  0  0  0  0  0  0  0  0  0  0
    4.1577   -3.5666    2.7439 H   0  0  0  0  0  0  0  0  0  0  0  0
    2.5149   -3.0194    3.1239 H   0  0  0  0  0  0  0  0  0  0  0  0
    3.8766   -3.1574    0.3887 H   0  0  0  0  0  0  0  0  0  0  0  0
    2.2521   -3.7408    0.8359 H   0  0  0  0  0  0  0  0  0  0  0  0
   -0.8291   -0.4000    0.0452 H   0  0  0  0  0  0  0  0  0  0  0  0
   -1.8107    1.5164    1.5785 H   0  0  0  0  0  0  0  0  0  0  0  0
   -2.2929    0.8902    3.1610 H   0  0  0  0  0  0  0  0  0  0  0  0
   -1.0549    0.0196    2.2503 H   0  0  0  0  0  0  0  0  0  0  0  0
  1  2  1  0
  2  3  1  0
  3  4  2  0
  4  5  1  0
  5  6  2  0
  6  7  1  0
  7  8  2  3
  8  9  1  0
  9 10  1  0
 10 11  2  0
 10 12  1  0
 12 13  1  0
 13 14  1  0
 14 15  1  0
 15 16  2  0
 15 17  1  0
 17 18  2  3
 18 19  1  0
 19 20  1  0
 20 21  1  0
 21 22  1  0
 12 23  1  0
 23 24  2  0
  6 25  1  0
 25 26  2  0
 26 27  1  0
 27 28  1  0
 26  3  1  0
 23  8  1  0
 22 18  1  0
  1 29  1  0
  1 30  1  0
  1 31  1  0
  4 32  1  0
  5 33  1  0
  7 34  1  0
 13 35  1  0
 13 36  1  0
 14 37  1  0
 14 38  1  0
 19 39  1  0
 20 40  1  0
 20 41  1  0
 21 42  1  0
 21 43  1  0
 25 44  1  0
 28 45  1  0
 28 46  1  0
 28 47  1  0
M  END
$$$$
