
     RDKit          3D

 44 47  0  0  0  0  0  0  0  0999 V2000
    3.9285    0.8554    1.5410 C   0  0  0  0  0  0  0  0  0  0  0  0
    3.1301    0.1915    0.4056 C   0  0  0  0  0  0  0  0  0  0  0  0
    3.1742   -1.3309    0.6167 C   0  0  0  0  0  0  0  0  0  0  0  0
    1.6972    0.7530    0.4157 C   0  0  0  0  0  0  0  0  0  0  0  0
    0.9177    0.3634   -0.8555 C   0  0  0  0  0  0  0  0  0  0  0  0
   -0.3473    1.2123   -1.0452 C   0  0  0  0  0  0  0  0  0  0  0  0
   -1.3461    0.9826    0.0940 C   0  0  0  0  0  0  0  0  0  0  0  0
   -2.6717    1.6309   -0.2578 C   0  0  0  0  0  0  0  0  0  0  0  0
   -3.6050    1.2467   -1.2045 C   0  0  0  0  0  0  0  0  0  0  0  0
   -4.7319    2.1167   -1.2433 C   0  0  0  0  0  0  0  0  0  0  0  0
   -4.6239    3.1405   -0.3302 C   0  0  0  0  0  0  0  0  0  0  0  0
   -3.1723    3.0514    0.5664 S   0  0  0  0  0  0  0  0  0  0  0  0
   -1.4546   -0.4977    0.4055 C   0  0  0  0  0  0  0  0  0  0  0  0
   -2.4761   -0.9922    1.2390 C   0  0  0  0  0  0  0  0  0  0  0  0
   -2.5650   -2.3566    1.5163 C   0  0  0  0  0  0  0  0  0  0  0  0
   -3.8353   -2.9383    2.5254 Cl  0  0  0  0  0  0  0  0  0  0  0  0
   -1.6293   -3.2382    0.9779 C   0  0  0  0  0  0  0  0  0  0  0  0
   -1.6752   -4.5838    1.2172 O   0  0  0  0  0  0  0  0  0  0  0  0
   -0.5988   -2.7631    0.1765 C   0  0  0  0  0  0  0  0  0  0  0  0
   -0.5005   -1.3957   -0.0907 C   0  0  0  0  0  0  0  0  0  0  0  0
    0.5686   -1.0241   -0.8580 O   0  0  0  0  0  0  0  0  0  0  0  0
    1.7562    0.5541   -2.0300 N   0  0  0  0  0  0  0  0  0  0  0  0
    3.1058    0.5178   -2.0502 C   0  0  0  0  0  0  0  0  0  0  0  0
    3.9396    0.5137   -3.4852 S   0  0  0  0  0  0  0  0  0  0  0  0
    3.7595    0.5254   -0.8657 N   0  0  0  0  0  0  0  0  0  0  0  0
    3.4835    0.6392    2.5185 H   0  0  0  0  0  0  0  0  0  0  0  0
    4.9665    0.5028    1.5562 H   0  0  0  0  0  0  0  0  0  0  0  0
    3.9628    1.9443    1.4177 H   0  0  0  0  0  0  0  0  0  0  0  0
    2.6145   -1.6247    1.5112 H   0  0  0  0  0  0  0  0  0  0  0  0
    4.2078   -1.6756    0.7422 H   0  0  0  0  0  0  0  0  0  0  0  0
    2.7753   -1.8842   -0.2383 H   0  0  0  0  0  0  0  0  0  0  0  0
    1.1849    0.4182    1.3252 H   0  0  0  0  0  0  0  0  0  0  0  0
    1.7516    1.8501    0.4633 H   0  0  0  0  0  0  0  0  0  0  0  0
   -0.8138    0.9375   -2.0035 H   0  0  0  0  0  0  0  0  0  0  0  0
   -0.0975    2.2789   -1.1245 H   0  0  0  0  0  0  0  0  0  0  0  0
   -0.9465    1.4553    1.0022 H   0  0  0  0  0  0  0  0  0  0  0  0
   -3.4872    0.3764   -1.8404 H   0  0  0  0  0  0  0  0  0  0  0  0
   -5.5786    1.9981   -1.9085 H   0  0  0  0  0  0  0  0  0  0  0  0
   -5.3284    3.9403   -0.1462 H   0  0  0  0  0  0  0  0  0  0  0  0
   -3.2114   -0.3130    1.6666 H   0  0  0  0  0  0  0  0  0  0  0  0
   -2.4513   -4.7514    1.7842 H   0  0  0  0  0  0  0  0  0  0  0  0
    0.1354   -3.4538   -0.2297 H   0  0  0  0  0  0  0  0  0  0  0  0
    1.3223    0.4054   -2.9319 H   0  0  0  0  0  0  0  0  0  0  0  0
    4.7658    0.4211   -0.9449 H   0  0  0  0  0  0  0  0  0  0  0  0
  1  2  1  0
  2  3  1  0
  2  4  1  0
  4  5  1  0
  5  6  1  0
  6  7  1  0
  7  8  1  0
  8  9  2  0
  9 10  1  0
 10 11  2  0
 11 12  1  0
  7 13  1  0
 13 14  2  0
 14 15  1  0
 15 16  1  0
 15 17  2  0
 17 18  1  0
 17 19  1  0
 19 20  2  0
 20 21  1  0
  5 22  1  0
 22 23  1  0
 23 24  2  0
 23 25  1  0
 25  2  1  0
 21  5  1  0
 12  8  1  0
 20 13  1  0
  1 26  1  0
  1 27  1  0
  1 28  1  0
  3 29  1  0
  3 30  1  0
  3 31  1  0
  4 32  1  0
  4 33  1  0
  6 34  1  0
  6 35  1  0
  7 36  1  0
  9 37  1  0
 10 38  1  0
 11 39  1  0
 14 40  1  0
 18 41  1  0
 19 42  1  0
 22 43  1  0
 25 44  1  0
M  END
$$$$
