
     RDKit          3D

 36 38  0  0  0  0  0  0  0  0999 V2000
    6.2496    1.7553   -2.9627 Br  0  0  0  0  0  0  0  0  0  0  0  0
    4.9855    0.9449   -1.8151 C   0  0  0  0  0  0  0  0  0  0  0  0
    5.2257    0.8990   -0.4442 C   0  0  0  0  0  0  0  0  0  0  0  0
    4.2915    0.2982    0.4070 C   0  0  0  0  0  0  0  0  0  0  0  0
    3.1131   -0.2625   -0.1079 C   0  0  0  0  0  0  0  0  0  0  0  0
    2.1138   -0.8955    0.7483 C   0  0  0  0  0  0  0  0  0  0  0  0
    2.3747   -1.4425    1.9883 C   0  0  0  0  0  0  0  0  0  0  0  0
    0.9414   -2.1049    2.6517 S   0  0  0  0  0  0  0  0  0  0  0  0
    0.0607   -1.6004    1.2532 C   0  0  0  0  0  0  0  0  0  0  0  0
   -1.2594   -1.8877    1.1804 N   0  0  0  0  0  0  0  0  0  0  0  0
   -2.1055   -0.9080    1.0172 C   0  0  0  0  0  0  0  0  0  0  0  0
   -1.7580    0.5746    0.9572 C   0  0  0  0  0  0  0  0  0  0  0  0
   -1.7416    1.0550   -0.4899 C   0  0  0  0  0  0  0  0  0  0  0  0
   -3.1357    1.3031   -1.0681 C   0  0  0  0  0  0  0  0  0  0  0  0
   -4.0504    0.0752   -1.1053 C   0  0  0  0  0  0  0  0  0  0  0  0
   -4.4510   -0.4309    0.2784 C   0  0  0  0  0  0  0  0  0  0  0  0
   -3.4248   -1.2633    0.8651 N   0  0  0  0  0  0  0  0  0  0  0  0
    0.7946   -1.0026    0.3380 N   0  0  0  0  0  0  0  0  0  0  0  0
    2.8865   -0.1976   -1.4917 C   0  0  0  0  0  0  0  0  0  0  0  0
    3.8187    0.4006   -2.3447 C   0  0  0  0  0  0  0  0  0  0  0  0
    6.1320    1.3300   -0.0259 H   0  0  0  0  0  0  0  0  0  0  0  0
    4.4961    0.2930    1.4737 H   0  0  0  0  0  0  0  0  0  0  0  0
    3.3085   -1.5123    2.5259 H   0  0  0  0  0  0  0  0  0  0  0  0
   -2.4875    1.1395    1.5486 H   0  0  0  0  0  0  0  0  0  0  0  0
   -0.7889    0.7667    1.4249 H   0  0  0  0  0  0  0  0  0  0  0  0
   -1.2082    0.3414   -1.1291 H   0  0  0  0  0  0  0  0  0  0  0  0
   -1.1861    1.9992   -0.5369 H   0  0  0  0  0  0  0  0  0  0  0  0
   -3.0167    1.6723   -2.0944 H   0  0  0  0  0  0  0  0  0  0  0  0
   -3.6271    2.1080   -0.5067 H   0  0  0  0  0  0  0  0  0  0  0  0
   -3.5825   -0.7243   -1.6911 H   0  0  0  0  0  0  0  0  0  0  0  0
   -4.9648    0.3639   -1.6398 H   0  0  0  0  0  0  0  0  0  0  0  0
   -5.3592   -1.0368    0.1843 H   0  0  0  0  0  0  0  0  0  0  0  0
   -4.7009    0.4002    0.9466 H   0  0  0  0  0  0  0  0  0  0  0  0
   -3.5416   -2.2645    0.7313 H   0  0  0  0  0  0  0  0  0  0  0  0
    1.9761   -0.6202   -1.9155 H   0  0  0  0  0  0  0  0  0  0  0  0
    3.6215    0.4340   -3.4127 H   0  0  0  0  0  0  0  0  0  0  0  0
  1  2  1  0
  2  3  2  0
  3  4  1  0
  4  5  2  0
  5  6  1  0
  6  7  2  0
  7  8  1  0
  8  9  1  0
  9 10  1  0
 10 11  2  3
 11 12  1  0
 12 13  1  0
 13 14  1  0
 14 15  1  0
 15 16  1  0
 16 17  1  0
  9 18  2  0
  5 19  1  0
 19 20  2  0
 20  2  1  0
 18  6  1  0
 17 11  1  0
  3 21  1  0
  4 22  1  0
  7 23  1  0
 12 24  1  0
 12 25  1  0
 13 26  1  0
 13 27  1  0
 14 28  1  0
 14 29  1  0
 15 30  1  0
 15 31  1  0
 16 32  1  0
 16 33  1  0
 17 34  1  0
 19 35  1  0
 20 36  1  0
M  END
$$$$
