
     RDKit          3D

 28 29  0  0  0  0  0  0  0  0999 V2000
   -0.8325    0.3921    1.5499 O   0  0  0  0  0  0  0  0  0  0  0  0
   -1.5715    0.5318    0.5877 C   0  0  0  0  0  0  0  0  0  0  0  0
   -1.1836    1.0142   -0.6251 O   0  0  0  0  0  0  0  0  0  0  0  0
    0.2296    1.1913   -0.7505 C   0  0  0  0  0  0  0  0  0  0  0  0
    0.9134   -0.1425   -1.0166 C   0  0  0  0  0  0  0  0  0  0  0  0
    0.3519   -1.0855   -1.5677 O   0  0  0  0  0  0  0  0  0  0  0  0
    2.3295   -0.2589   -0.6121 C   0  0  0  0  0  0  0  0  0  0  0  0
    3.2510    0.6607   -1.1345 C   0  0  0  0  0  0  0  0  0  0  0  0
    4.5980    0.5745   -0.7794 C   0  0  0  0  0  0  0  0  0  0  0  0
    5.0263   -0.4251    0.0927 C   0  0  0  0  0  0  0  0  0  0  0  0
    4.1093   -1.3416    0.6118 C   0  0  0  0  0  0  0  0  0  0  0  0
    2.7577   -1.2642    0.2614 C   0  0  0  0  0  0  0  0  0  0  0  0
    1.6791   -2.4055    0.9773 Cl  0  0  0  0  0  0  0  0  0  0  0  0
   -3.0287    0.2276    0.5759 C   0  0  0  0  0  0  0  0  0  0  0  0
   -3.7259    0.0465   -0.6124 C   0  0  0  0  0  0  0  0  0  0  0  0
   -5.0560   -0.2338   -0.6470 N   0  0  0  0  0  0  0  0  0  0  0  0
   -5.6550   -0.3410    0.5607 C   0  0  0  0  0  0  0  0  0  0  0  0
   -4.9637   -0.1706    1.7488 C   0  0  0  0  0  0  0  0  0  0  0  0
   -3.6432    0.1188    1.7872 N   0  0  0  0  0  0  0  0  0  0  0  0
    0.3992    1.8382   -1.6173 H   0  0  0  0  0  0  0  0  0  0  0  0
    0.6462    1.6913    0.1312 H   0  0  0  0  0  0  0  0  0  0  0  0
    2.9378    1.4336   -1.8321 H   0  0  0  0  0  0  0  0  0  0  0  0
    5.3166    1.2824   -1.1873 H   0  0  0  0  0  0  0  0  0  0  0  0
    6.0763   -0.4937    0.3695 H   0  0  0  0  0  0  0  0  0  0  0  0
    4.4546   -2.1146    1.2950 H   0  0  0  0  0  0  0  0  0  0  0  0
   -3.2443    0.1089   -1.5824 H   0  0  0  0  0  0  0  0  0  0  0  0
   -6.7144   -0.5717    0.5485 H   0  0  0  0  0  0  0  0  0  0  0  0
   -5.4576   -0.2632    2.7098 H   0  0  0  0  0  0  0  0  0  0  0  0
  1  2  2  0
  2  3  1  0
  3  4  1  0
  4  5  1  0
  5  6  2  0
  5  7  1  0
  7  8  2  0
  8  9  1  0
  9 10  2  0
 10 11  1  0
 11 12  2  0
 12 13  1  0
  2 14  1  0
 14 15  2  0
 15 16  1  0
 16 17  2  0
 17 18  1  0
 18 19  2  0
 12  7  1  0
 19 14  1  0
  4 20  1  0
  4 21  1  0
  8 22  1  0
  9 23  1  0
 10 24  1  0
 11 25  1  0
 15 26  1  0
 17 27  1  0
 18 28  1  0
M  END
$$$$
