
     RDKit          3D

 67 69  0  0  0  0  0  0  0  0999 V2000
   -3.2284    3.0066   -0.6038 C   0  0  0  0  0  0  0  0  0  0  0  0
   -2.8641    2.2778   -1.9061 C   0  0  0  0  0  0  0  0  0  0  0  0
   -1.7928    3.1006   -2.6447 C   0  0  0  0  0  0  0  0  0  0  0  0
   -4.0978    2.1659   -2.8156 C   0  0  0  0  0  0  0  0  0  0  0  0
   -2.2981    0.9569   -1.6142 N   0  0  0  0  0  0  0  0  0  0  0  0
   -2.9468   -0.0854   -0.9886 C   0  0  0  0  0  0  0  0  0  0  0  0
   -4.1376   -0.0480   -0.6814 O   0  0  0  0  0  0  0  0  0  0  0  0
   -2.0802   -1.3505   -0.7074 C   0  0  0  0  0  0  0  0  0  0  0  0
   -1.5806   -2.0842   -1.9619 C   0  0  0  0  0  0  0  0  0  0  0  0
   -0.4839   -2.9673   -1.8983 C   0  0  0  0  0  0  0  0  0  0  0  0
   -0.0598   -3.6718   -3.0277 C   0  0  0  0  0  0  0  0  0  0  0  0
   -0.7404   -3.5180   -4.2270 C   0  0  0  0  0  0  0  0  0  0  0  0
   -0.3372   -4.1984   -5.3076 F   0  0  0  0  0  0  0  0  0  0  0  0
   -1.8427   -2.6797   -4.3161 C   0  0  0  0  0  0  0  0  0  0  0  0
   -2.2673   -1.9736   -3.1875 C   0  0  0  0  0  0  0  0  0  0  0  0
   -1.0377   -1.0681    0.3257 N   0  0  0  0  0  0  0  0  0  0  0  0
    0.0750   -0.3070   -0.0337 C   0  0  0  0  0  0  0  0  0  0  0  0
    0.1953    0.1810   -1.1604 O   0  0  0  0  0  0  0  0  0  0  0  0
    1.1524   -0.0790    1.0108 C   0  0  0  0  0  0  0  0  0  0  0  0
    2.3586    0.6460    0.4206 C   0  0  0  0  0  0  0  0  0  0  0  0
    3.4375    0.8854    1.4584 C   0  0  0  0  0  0  0  0  0  0  0  0
    3.2993    0.5490    2.6293 O   0  0  0  0  0  0  0  0  0  0  0  0
    4.5333    1.5115    0.9116 N   0  0  0  0  0  0  0  0  0  0  0  0
    5.7065    1.9229    1.5422 C   0  0  0  0  0  0  0  0  0  0  0  0
    5.9680    1.7610    2.8956 C   0  0  0  0  0  0  0  0  0  0  0  0
    7.1802    2.2260    3.4043 C   0  0  0  0  0  0  0  0  0  0  0  0
    8.0908    2.8353    2.5514 C   0  0  0  0  0  0  0  0  0  0  0  0
    7.7466    2.9564    1.2176 C   0  0  0  0  0  0  0  0  0  0  0  0
    6.5787    2.5162    0.6988 N   0  0  0  0  0  0  0  0  0  0  0  0
   -1.2922   -1.5265    1.7029 C   0  0  0  0  0  0  0  0  0  0  0  0
   -2.6030   -1.0410    2.3275 C   0  0  0  0  0  0  0  0  0  0  0  0
   -2.7545   -1.9664    3.5252 C   0  0  0  0  0  0  0  0  0  0  0  0
   -2.3321   -3.3297    2.9891 C   0  0  0  0  0  0  0  0  0  0  0  0
   -1.3255   -3.0538    1.8689 C   0  0  0  0  0  0  0  0  0  0  0  0
   -3.5861    4.0230   -0.8047 H   0  0  0  0  0  0  0  0  0  0  0  0
   -4.0160    2.4842   -0.0495 H   0  0  0  0  0  0  0  0  0  0  0  0
   -2.3586    3.0811    0.0602 H   0  0  0  0  0  0  0  0  0  0  0  0
   -1.4936    2.6111   -3.5793 H   0  0  0  0  0  0  0  0  0  0  0  0
   -0.8890    3.2124   -2.0330 H   0  0  0  0  0  0  0  0  0  0  0  0
   -2.1576    4.1043   -2.8912 H   0  0  0  0  0  0  0  0  0  0  0  0
   -4.9319    1.6621   -2.3163 H   0  0  0  0  0  0  0  0  0  0  0  0
   -3.8669    1.5962   -3.7239 H   0  0  0  0  0  0  0  0  0  0  0  0
   -4.4553    3.1565   -3.1203 H   0  0  0  0  0  0  0  0  0  0  0  0
   -1.2911    0.8317   -1.7465 H   0  0  0  0  0  0  0  0  0  0  0  0
   -2.7804   -2.0713   -0.2640 H   0  0  0  0  0  0  0  0  0  0  0  0
    0.0568   -3.1140   -0.9663 H   0  0  0  0  0  0  0  0  0  0  0  0
    0.7929   -4.3409   -2.9769 H   0  0  0  0  0  0  0  0  0  0  0  0
   -2.3704   -2.5839   -5.2599 H   0  0  0  0  0  0  0  0  0  0  0  0
   -3.1472   -1.3384   -3.2829 H   0  0  0  0  0  0  0  0  0  0  0  0
    0.7302    0.5255    1.8212 H   0  0  0  0  0  0  0  0  0  0  0  0
    1.4733   -1.0475    1.4096 H   0  0  0  0  0  0  0  0  0  0  0  0
    2.0527    1.6187    0.0155 H   0  0  0  0  0  0  0  0  0  0  0  0
    2.7873    0.0569   -0.3999 H   0  0  0  0  0  0  0  0  0  0  0  0
    4.5423    1.7283   -0.0774 H   0  0  0  0  0  0  0  0  0  0  0  0
    5.2626    1.2886    3.5688 H   0  0  0  0  0  0  0  0  0  0  0  0
    7.4057    2.1137    4.4615 H   0  0  0  0  0  0  0  0  0  0  0  0
    9.0403    3.2078    2.9177 H   0  0  0  0  0  0  0  0  0  0  0  0
    8.4208    3.4245    0.5060 H   0  0  0  0  0  0  0  0  0  0  0  0
   -0.4967   -1.1661    2.3606 H   0  0  0  0  0  0  0  0  0  0  0  0
   -2.5571    0.0135    2.6169 H   0  0  0  0  0  0  0  0  0  0  0  0
   -3.4613   -1.1699    1.6618 H   0  0  0  0  0  0  0  0  0  0  0  0
   -3.7743   -1.9750    3.9212 H   0  0  0  0  0  0  0  0  0  0  0  0
   -2.0793   -1.6551    4.3313 H   0  0  0  0  0  0  0  0  0  0  0  0
   -3.2018   -3.8562    2.5777 H   0  0  0  0  0  0  0  0  0  0  0  0
   -1.9070   -3.9603    3.7764 H   0  0  0  0  0  0  0  0  0  0  0  0
   -1.6334   -3.5808    0.9602 H   0  0  0  0  0  0  0  0  0  0  0  0
   -0.3291   -3.4308    2.1274 H   0  0  0  0  0  0  0  0  0  0  0  0
  1  2  1  0
  2  3  1  0
  2  4  1  0
  2  5  1  0
  5  6  1  0
  6  7  2  0
  6  8  1  0
  8  9  1  0
  9 10  2  0
 10 11  1  0
 11 12  2  0
 12 13  1  0
 12 14  1  0
 14 15  2  0
  8 16  1  0
 16 17  1  0
 17 18  2  0
 17 19  1  0
 19 20  1  0
 20 21  1  0
 21 22  2  0
 21 23  1  0
 23 24  1  0
 24 25  2  0
 25 26  1  0
 26 27  2  0
 27 28  1  0
 28 29  2  0
 16 30  1  0
 30 31  1  0
 31 32  1  0
 32 33  1  0
 33 34  1  0
 15  9  1  0
 29 24  1  0
 34 30  1  0
  1 35  1  0
  1 36  1  0
  1 37  1  0
  3 38  1  0
  3 39  1  0
  3 40  1  0
  4 41  1  0
  4 42  1  0
  4 43  1  0
  5 44  1  0
  8 45  1  0
 10 46  1  0
 11 47  1  0
 14 48  1  0
 15 49  1  0
 19 50  1  0
 19 51  1  0
 20 52  1  0
 20 53  1  0
 23 54  1  0
 25 55  1  0
 26 56  1  0
 27 57  1  0
 28 58  1  0
 30 59  1  0
 31 60  1  0
 31 61  1  0
 32 62  1  0
 32 63  1  0
 33 64  1  0
 33 65  1  0
 34 66  1  0
 34 67  1  0
M  END
$$$$
