
     RDKit          3D

 43 45  0  0  0  0  0  0  0  0999 V2000
    0.2473   -4.1628   -1.8213 C   0  0  0  0  0  0  0  0  0  0  0  0
    0.2297   -2.7592   -2.3660 C   0  0  0  0  0  0  0  0  0  0  0  0
   -0.3261   -2.4833   -3.4298 O   0  0  0  0  0  0  0  0  0  0  0  0
    0.9097   -1.7095   -1.5711 C   0  0  0  0  0  0  0  0  0  0  0  0
    0.1829   -1.0357   -0.6565 C   0  0  0  0  0  0  0  0  0  0  0  0
   -1.1769   -1.2750   -0.4324 N   0  0  0  0  0  0  0  0  0  0  0  0
   -2.1557   -0.6512   -1.3565 C   0  0  0  0  0  0  0  0  0  0  0  0
   -2.6623    0.7058   -0.8000 C   0  0  0  0  0  0  0  0  0  0  0  0
   -2.9102    0.7354    0.6652 N   0  0  0  0  0  0  0  0  0  0  0  0
   -4.0999    1.5149    0.9896 C   0  0  0  0  0  0  0  0  0  0  0  0
   -3.0030   -0.6327    1.2074 C   0  0  0  0  0  0  0  0  0  0  0  0
   -1.7027   -1.4298    0.9513 C   0  0  0  0  0  0  0  0  0  0  0  0
    0.8211   -0.0558    0.0601 N   0  0  0  0  0  0  0  0  0  0  0  0
    2.1262    0.2935   -0.1512 C   0  0  0  0  0  0  0  0  0  0  0  0
    2.7131    1.4466    0.5981 C   0  0  0  0  0  0  0  0  0  0  0  0
    1.9181    2.5295    1.0017 C   0  0  0  0  0  0  0  0  0  0  0  0
    2.4908    3.5948    1.7066 C   0  0  0  0  0  0  0  0  0  0  0  0
    3.8535    3.5830    2.0054 C   0  0  0  0  0  0  0  0  0  0  0  0
    4.6497    2.5100    1.5972 C   0  0  0  0  0  0  0  0  0  0  0  0
    4.0827    1.4446    0.8903 C   0  0  0  0  0  0  0  0  0  0  0  0
    2.8877   -0.3509   -0.9854 N   0  0  0  0  0  0  0  0  0  0  0  0
    2.3777   -1.4198   -1.7012 C   0  0  0  0  0  0  0  0  0  0  0  0
    3.4213   -2.3439   -2.6652 S   0  0  0  0  0  0  0  0  0  0  0  0
    0.7586   -4.8200   -2.5308 H   0  0  0  0  0  0  0  0  0  0  0  0
    0.7726   -4.2059   -0.8613 H   0  0  0  0  0  0  0  0  0  0  0  0
   -0.7813   -4.5033   -1.6660 H   0  0  0  0  0  0  0  0  0  0  0  0
   -2.9989   -1.3405   -1.4833 H   0  0  0  0  0  0  0  0  0  0  0  0
   -1.7263   -0.4946   -2.3524 H   0  0  0  0  0  0  0  0  0  0  0  0
   -3.5599    0.9779   -1.3716 H   0  0  0  0  0  0  0  0  0  0  0  0
   -1.9094    1.4810   -1.0052 H   0  0  0  0  0  0  0  0  0  0  0  0
   -3.9993    2.5473    0.6235 H   0  0  0  0  0  0  0  0  0  0  0  0
   -5.0092    1.0676    0.5658 H   0  0  0  0  0  0  0  0  0  0  0  0
   -4.2324    1.5778    2.0784 H   0  0  0  0  0  0  0  0  0  0  0  0
   -3.1761   -0.5997    2.2924 H   0  0  0  0  0  0  0  0  0  0  0  0
   -3.8573   -1.1678    0.7672 H   0  0  0  0  0  0  0  0  0  0  0  0
   -1.8883   -2.4921    1.1401 H   0  0  0  0  0  0  0  0  0  0  0  0
   -0.9532   -1.1078    1.6811 H   0  0  0  0  0  0  0  0  0  0  0  0
    0.2223    0.4775    0.6752 H   0  0  0  0  0  0  0  0  0  0  0  0
    0.8629    2.5786    0.7524 H   0  0  0  0  0  0  0  0  0  0  0  0
    1.8771    4.4418    2.0121 H   0  0  0  0  0  0  0  0  0  0  0  0
    4.2981    4.4163    2.5498 H   0  0  0  0  0  0  0  0  0  0  0  0
    5.7132    2.5042    1.8229 H   0  0  0  0  0  0  0  0  0  0  0  0
    4.7120    0.6132    0.5732 H   0  0  0  0  0  0  0  0  0  0  0  0
  1  2  1  0
  2  3  2  0
  2  4  1  0
  4  5  2  0
  5  6  1  0
  6  7  1  0
  7  8  1  0
  8  9  1  0
  9 10  1  0
  9 11  1  0
 11 12  1  0
  5 13  1  0
 13 14  1  0
 14 15  1  0
 15 16  2  0
 16 17  1  0
 17 18  2  0
 18 19  1  0
 19 20  2  0
 14 21  2  0
 21 22  1  0
 22 23  2  0
 22  4  1  0
 12  6  1  0
 20 15  1  0
  1 24  1  0
  1 25  1  0
  1 26  1  0
  7 27  1  0
  7 28  1  0
  8 29  1  0
  8 30  1  0
 10 31  1  0
 10 32  1  0
 10 33  1  0
 11 34  1  0
 11 35  1  0
 12 36  1  0
 12 37  1  0
 13 38  1  0
 16 39  1  0
 17 40  1  0
 18 41  1  0
 19 42  1  0
 20 43  1  0
M  END
$$$$
