
     RDKit          3D

 38 40  0  0  0  0  0  0  0  0999 V2000
   -2.9753    2.1018    1.6733 C   0  0  0  0  0  0  0  0  0  0  0  0
   -3.5582    1.1079    0.7260 C   0  0  0  0  0  0  0  0  0  0  0  0
   -4.8995    0.8261    0.5504 C   0  0  0  0  0  0  0  0  0  0  0  0
   -5.0009   -0.2445   -0.3516 C   0  0  0  0  0  0  0  0  0  0  0  0
   -3.7221   -0.5949   -0.7406 C   0  0  0  0  0  0  0  0  0  0  0  0
   -3.3540   -1.6083   -1.7723 C   0  0  0  0  0  0  0  0  0  0  0  0
   -2.8187    0.2322   -0.0709 N   0  0  0  0  0  0  0  0  0  0  0  0
   -1.4024    0.1921   -0.1805 C   0  0  0  0  0  0  0  0  0  0  0  0
   -0.6461    1.3545   -0.2698 C   0  0  0  0  0  0  0  0  0  0  0  0
    0.7434    1.2569   -0.3803 C   0  0  0  0  0  0  0  0  0  0  0  0
    1.3670    0.0080   -0.3877 C   0  0  0  0  0  0  0  0  0  0  0  0
    2.7473   -0.0989   -0.5210 N   0  0  0  0  0  0  0  0  0  0  0  0
    3.2727   -1.4660   -0.6754 C   0  0  0  0  0  0  0  0  0  0  0  0
    4.7984   -1.4057   -0.8492 C   0  0  0  0  0  0  0  0  0  0  0  0
    5.4907   -0.8109    0.2615 O   0  0  0  0  0  0  0  0  0  0  0  0
    4.6534    0.0335    1.0630 C   0  0  0  0  0  0  0  0  0  0  0  0
    3.6071    0.8160    0.2505 C   0  0  0  0  0  0  0  0  0  0  0  0
    0.6271   -1.1199   -0.3159 N   0  0  0  0  0  0  0  0  0  0  0  0
   -0.7211   -1.0125   -0.2077 C   0  0  0  0  0  0  0  0  0  0  0  0
   -2.0898    1.7089    2.1819 H   0  0  0  0  0  0  0  0  0  0  0  0
   -3.7025    2.3575    2.4522 H   0  0  0  0  0  0  0  0  0  0  0  0
   -2.7164    3.0284    1.1529 H   0  0  0  0  0  0  0  0  0  0  0  0
   -5.7186    1.3330    1.0453 H   0  0  0  0  0  0  0  0  0  0  0  0
   -5.9146   -0.7037   -0.7084 H   0  0  0  0  0  0  0  0  0  0  0  0
   -4.2067   -1.8077   -2.4311 H   0  0  0  0  0  0  0  0  0  0  0  0
   -2.5344   -1.2622   -2.4090 H   0  0  0  0  0  0  0  0  0  0  0  0
   -3.0763   -2.5564   -1.3028 H   0  0  0  0  0  0  0  0  0  0  0  0
   -1.1071    2.3356   -0.3138 H   0  0  0  0  0  0  0  0  0  0  0  0
    1.3270    2.1639   -0.4978 H   0  0  0  0  0  0  0  0  0  0  0  0
    3.0340   -2.0683    0.2107 H   0  0  0  0  0  0  0  0  0  0  0  0
    2.8352   -1.9466   -1.5585 H   0  0  0  0  0  0  0  0  0  0  0  0
    5.0553   -0.8237   -1.7421 H   0  0  0  0  0  0  0  0  0  0  0  0
    5.2038   -2.4131   -0.9868 H   0  0  0  0  0  0  0  0  0  0  0  0
    5.3075    0.7296    1.5980 H   0  0  0  0  0  0  0  0  0  0  0  0
    4.1633   -0.5944    1.8166 H   0  0  0  0  0  0  0  0  0  0  0  0
    3.0391    1.4455    0.9449 H   0  0  0  0  0  0  0  0  0  0  0  0
    4.1185    1.4733   -0.4622 H   0  0  0  0  0  0  0  0  0  0  0  0
   -1.2260   -1.9669   -0.1009 H   0  0  0  0  0  0  0  0  0  0  0  0
  1  2  1  0
  2  3  2  0
  3  4  1  0
  4  5  2  0
  5  6  1  0
  5  7  1  0
  7  8  1  0
  8  9  2  0
  9 10  1  0
 10 11  2  0
 11 12  1  0
 12 13  1  0
 13 14  1  0
 14 15  1  0
 15 16  1  0
 16 17  1  0
 11 18  1  0
 18 19  2  0
  7  2  1  0
 19  8  1  0
 17 12  1  0
  1 20  1  0
  1 21  1  0
  1 22  1  0
  3 23  1  0
  4 24  1  0
  6 25  1  0
  6 26  1  0
  6 27  1  0
  9 28  1  0
 10 29  1  0
 13 30  1  0
 13 31  1  0
 14 32  1  0
 14 33  1  0
 16 34  1  0
 16 35  1  0
 17 36  1  0
 17 37  1  0
 19 38  1  0
M  END
$$$$
