
     RDKit          3D

 41 43  0  0  0  0  0  0  0  0999 V2000
   -2.0538    2.2321   -1.1801 O   0  0  0  0  0  0  0  0  0  0  0  0
   -2.5815    2.2773   -0.0705 C   0  0  0  0  0  0  0  0  0  0  0  0
   -4.0826    2.3681    0.1314 C   0  0  0  0  0  0  0  0  0  0  0  0
   -4.8112    1.1690   -0.4238 C   0  0  0  0  0  0  0  0  0  0  0  0
   -5.5149    1.2662   -1.6325 C   0  0  0  0  0  0  0  0  0  0  0  0
   -6.1827    0.1559   -2.1548 C   0  0  0  0  0  0  0  0  0  0  0  0
   -6.1493   -1.0624   -1.4776 C   0  0  0  0  0  0  0  0  0  0  0  0
   -5.4449   -1.1734   -0.2797 C   0  0  0  0  0  0  0  0  0  0  0  0
   -4.7767   -0.0640    0.2458 C   0  0  0  0  0  0  0  0  0  0  0  0
   -1.8571    2.2645    1.1158 N   0  0  0  0  0  0  0  0  0  0  0  0
   -0.5127    1.8541    1.0047 N   0  0  0  0  0  0  0  0  0  0  0  0
   -0.2209    0.5138    1.1726 C   0  0  0  0  0  0  0  0  0  0  0  0
   -1.0073   -0.3512    1.5317 O   0  0  0  0  0  0  0  0  0  0  0  0
    1.2263    0.2967    0.9079 C   0  0  0  0  0  0  0  0  0  0  0  0
    1.7815   -0.9191    0.9841 C   0  0  0  0  0  0  0  0  0  0  0  0
    3.1943   -1.2158    0.7407 C   0  0  0  0  0  0  0  0  0  0  0  0
    3.6731   -1.3556   -0.5667 C   0  0  0  0  0  0  0  0  0  0  0  0
    5.0234   -1.6363   -0.7937 C   0  0  0  0  0  0  0  0  0  0  0  0
    5.9044   -1.7798    0.2855 C   0  0  0  0  0  0  0  0  0  0  0  0
    7.3282   -2.0771   -0.0038 C   0  0  0  0  0  0  0  0  0  0  0  0
    7.8214   -2.1979   -1.1098 O   0  0  0  0  0  0  0  0  0  0  0  0
    8.0697   -2.2136    1.1093 O   0  0  0  0  0  0  0  0  0  0  0  0
    5.4248   -1.6409    1.5938 C   0  0  0  0  0  0  0  0  0  0  0  0
    4.0735   -1.3605    1.8194 C   0  0  0  0  0  0  0  0  0  0  0  0
    2.0022    1.7922    0.5363 S   0  0  0  0  0  0  0  0  0  0  0  0
    0.5154    2.7272    0.7046 C   0  0  0  0  0  0  0  0  0  0  0  0
    0.4543    4.3924    0.5657 S   0  0  0  0  0  0  0  0  0  0  0  0
   -4.4243    3.2926   -0.3525 H   0  0  0  0  0  0  0  0  0  0  0  0
   -4.3293    2.4785    1.1957 H   0  0  0  0  0  0  0  0  0  0  0  0
   -5.5396    2.2055   -2.1825 H   0  0  0  0  0  0  0  0  0  0  0  0
   -6.7230    0.2414   -3.0948 H   0  0  0  0  0  0  0  0  0  0  0  0
   -6.6654   -1.9273   -1.8876 H   0  0  0  0  0  0  0  0  0  0  0  0
   -5.4116   -2.1270    0.2423 H   0  0  0  0  0  0  0  0  0  0  0  0
   -4.2231   -0.1785    1.1760 H   0  0  0  0  0  0  0  0  0  0  0  0
   -2.3222    1.9255    1.9538 H   0  0  0  0  0  0  0  0  0  0  0  0
    1.1728   -1.7820    1.2460 H   0  0  0  0  0  0  0  0  0  0  0  0
    3.0032   -1.2467   -1.4175 H   0  0  0  0  0  0  0  0  0  0  0  0
    5.3847   -1.7416   -1.8151 H   0  0  0  0  0  0  0  0  0  0  0  0
    8.9691   -2.4022    0.7678 H   0  0  0  0  0  0  0  0  0  0  0  0
    6.0941   -1.7470    2.4446 H   0  0  0  0  0  0  0  0  0  0  0  0
    3.7178   -1.2531    2.8418 H   0  0  0  0  0  0  0  0  0  0  0  0
  1  2  2  0
  2  3  1  0
  3  4  1  0
  4  5  2  0
  5  6  1  0
  6  7  2  0
  7  8  1  0
  8  9  2  0
  2 10  1  0
 10 11  1  0
 11 12  1  0
 12 13  2  0
 12 14  1  0
 14 15  2  3
 15 16  1  0
 16 17  2  0
 17 18  1  0
 18 19  2  0
 19 20  1  0
 20 21  2  0
 20 22  1  0
 19 23  1  0
 23 24  2  0
 14 25  1  0
 25 26  1  0
 26 27  2  0
  9  4  1  0
 26 11  1  0
 24 16  1  0
  3 28  1  0
  3 29  1  0
  5 30  1  0
  6 31  1  0
  7 32  1  0
  8 33  1  0
  9 34  1  0
 10 35  1  0
 15 36  1  0
 17 37  1  0
 18 38  1  0
 22 39  1  0
 23 40  1  0
 24 41  1  0
M  END
$$$$
