
     RDKit          3D

 30 32  0  0  0  0  0  0  0  0999 V2000
    3.8828   -0.6319   -3.1833 O   0  0  0  0  0  0  0  0  0  0  0  0
    4.4325   -0.6482   -2.0731 N   0  0  0  0  0  4  0  0  0  0  0  0
    5.6521   -0.7731   -1.8939 O   0  0  0  0  0  1  0  0  0  0  0  0
    3.5778   -0.5105   -0.8867 C   0  0  0  0  0  0  0  0  0  0  0  0
    4.1481   -0.6096    0.3894 C   0  0  0  0  0  0  0  0  0  0  0  0
    3.3350   -0.4843    1.5145 C   0  0  0  0  0  0  0  0  0  0  0  0
    1.9649   -0.2572    1.3640 C   0  0  0  0  0  0  0  0  0  0  0  0
    1.3910   -0.1461    0.0872 C   0  0  0  0  0  0  0  0  0  0  0  0
   -0.0835    0.0831   -0.0262 C   0  0  0  0  0  0  0  0  0  0  0  0
   -0.8433   -0.1982    1.0002 N   0  0  0  0  0  0  0  0  0  0  0  0
   -2.2442   -0.1409    0.8650 C   0  0  0  0  0  0  0  0  0  0  0  0
   -3.0232    0.0035    2.0140 C   0  0  0  0  0  0  0  0  0  0  0  0
   -4.4177   -0.0079    1.9315 C   0  0  0  0  0  0  0  0  0  0  0  0
   -5.0442   -0.1766    0.6966 C   0  0  0  0  0  0  0  0  0  0  0  0
   -4.2790   -0.3305   -0.4598 C   0  0  0  0  0  0  0  0  0  0  0  0
   -2.8849   -0.3107   -0.3749 C   0  0  0  0  0  0  0  0  0  0  0  0
   -1.8744   -0.4605   -1.8365 S   0  0  0  0  0  0  0  0  0  0  0  0
   -0.6356    0.6325   -1.3207 C   0  0  0  0  0  0  0  0  0  0  0  0
   -0.3131    1.7136   -1.9529 N   0  0  0  0  0  0  0  0  0  0  0  0
    0.6641    2.4439   -1.2661 O   0  0  0  0  0  0  0  0  0  0  0  0
    2.2019   -0.2844   -1.0463 C   0  0  0  0  0  0  0  0  0  0  0  0
    5.2139   -0.7864    0.5222 H   0  0  0  0  0  0  0  0  0  0  0  0
    3.7647   -0.5640    2.5109 H   0  0  0  0  0  0  0  0  0  0  0  0
    1.3447   -0.1629    2.2547 H   0  0  0  0  0  0  0  0  0  0  0  0
   -2.5378    0.1159    2.9798 H   0  0  0  0  0  0  0  0  0  0  0  0
   -5.0140    0.1065    2.8334 H   0  0  0  0  0  0  0  0  0  0  0  0
   -6.1299   -0.1889    0.6352 H   0  0  0  0  0  0  0  0  0  0  0  0
   -4.7742   -0.4577   -1.4191 H   0  0  0  0  0  0  0  0  0  0  0  0
    0.7501    3.2483   -1.8144 H   0  0  0  0  0  0  0  0  0  0  0  0
    1.7754   -0.2168   -2.0445 H   0  0  0  0  0  0  0  0  0  0  0  0
  1  2  2  0
  2  3  1  0
  2  4  1  0
  4  5  2  0
  5  6  1  0
  6  7  2  0
  7  8  1  0
  8  9  1  0
  9 10  2  0
 10 11  1  0
 11 12  2  0
 12 13  1  0
 13 14  2  0
 14 15  1  0
 15 16  2  0
 16 17  1  0
 17 18  1  0
 18 19  2  3
 19 20  1  0
  8 21  2  0
 21  4  1  0
 18  9  1  0
 16 11  1  0
  5 22  1  0
  6 23  1  0
  7 24  1  0
 12 25  1  0
 13 26  1  0
 14 27  1  0
 15 28  1  0
 20 29  1  0
 21 30  1  0
M  CHG  2   2   1   3  -1
M  END
$$$$
