
     RDKit          3D

 47 49  0  0  0  0  0  0  0  0999 V2000
    2.1775   -1.9227    0.6716 O   0  0  0  0  0  0  0  0  0  0  0  0
    1.8296   -0.8178    0.2709 C   0  0  0  0  0  0  0  0  0  0  0  0
    0.3926   -0.4479   -0.0156 C   0  0  0  0  0  0  0  0  0  0  0  0
   -0.5434   -1.6095    0.3073 C   0  0  0  0  0  0  0  0  0  0  0  0
   -1.9411   -1.2796    0.0111 N   0  0  0  0  0  0  0  0  0  0  0  0
   -2.6803   -0.6098    0.9709 C   0  0  0  0  0  0  0  0  0  0  0  0
   -2.2703   -0.2349    2.0609 O   0  0  0  0  0  0  0  0  0  0  0  0
   -4.0633   -0.3682    0.4831 C   0  0  0  0  0  0  0  0  0  0  0  0
   -4.9860    0.2259    1.2519 C   0  0  0  0  0  0  0  0  0  0  0  0
   -6.3762    0.5007    0.8755 C   0  0  0  0  0  0  0  0  0  0  0  0
   -6.6876    1.4154   -0.1402 C   0  0  0  0  0  0  0  0  0  0  0  0
   -8.0201    1.6716   -0.4700 C   0  0  0  0  0  0  0  0  0  0  0  0
   -9.0350    1.0196    0.2202 C   0  0  0  0  0  0  0  0  0  0  0  0
  -10.3125    1.2671   -0.0962 F   0  0  0  0  0  0  0  0  0  0  0  0
   -8.7438    0.1176    1.2366 C   0  0  0  0  0  0  0  0  0  0  0  0
   -7.4122   -0.1405    1.5681 C   0  0  0  0  0  0  0  0  0  0  0  0
   -4.2384   -0.9681   -1.1153 S   0  0  0  0  0  0  0  0  0  0  0  0
   -2.5723   -1.5288   -1.1901 C   0  0  0  0  0  0  0  0  0  0  0  0
   -1.9354   -2.2312   -2.5623 S   0  0  0  0  0  0  0  0  0  0  0  0
    2.7138    0.2099    0.0234 N   0  0  0  0  0  0  0  0  0  0  0  0
    4.1395    0.0562    0.2321 C   0  0  0  0  0  0  0  0  0  0  0  0
    4.8040   -0.6729   -0.9348 C   0  0  0  0  0  0  0  0  0  0  0  0
    6.2828   -0.9587   -0.6811 C   0  0  0  0  0  0  0  0  0  0  0  0
    7.0919    0.2379   -0.5863 N   0  0  0  0  0  0  0  0  0  0  0  0
    7.4825    1.0335   -1.6263 C   0  0  0  0  0  0  0  0  0  0  0  0
    8.2198    2.0382   -1.0444 C   0  0  0  0  0  0  0  0  0  0  0  0
    8.2892    1.8655    0.3139 N   0  0  0  0  0  0  0  0  0  0  0  0
    7.6143    0.7653    0.5593 C   0  0  0  0  0  0  0  0  0  0  0  0
    0.1300    0.4308    0.5848 H   0  0  0  0  0  0  0  0  0  0  0  0
    0.3091   -0.1699   -1.0723 H   0  0  0  0  0  0  0  0  0  0  0  0
   -0.4644   -1.8619    1.3723 H   0  0  0  0  0  0  0  0  0  0  0  0
   -0.2510   -2.5070   -0.2480 H   0  0  0  0  0  0  0  0  0  0  0  0
   -4.7261    0.5288    2.2658 H   0  0  0  0  0  0  0  0  0  0  0  0
   -5.8996    1.9354   -0.6799 H   0  0  0  0  0  0  0  0  0  0  0  0
   -8.2716    2.3748   -1.2575 H   0  0  0  0  0  0  0  0  0  0  0  0
   -9.5532   -0.3777    1.7635 H   0  0  0  0  0  0  0  0  0  0  0  0
   -7.1913   -0.8476    2.3647 H   0  0  0  0  0  0  0  0  0  0  0  0
    2.3699    1.0933   -0.3333 H   0  0  0  0  0  0  0  0  0  0  0  0
    4.5512    1.0631    0.3526 H   0  0  0  0  0  0  0  0  0  0  0  0
    4.2975   -0.4934    1.1669 H   0  0  0  0  0  0  0  0  0  0  0  0
    4.2953   -1.6284   -1.1116 H   0  0  0  0  0  0  0  0  0  0  0  0
    4.6791   -0.0834   -1.8519 H   0  0  0  0  0  0  0  0  0  0  0  0
    6.6954   -1.5554   -1.5031 H   0  0  0  0  0  0  0  0  0  0  0  0
    6.4164   -1.5356    0.2412 H   0  0  0  0  0  0  0  0  0  0  0  0
    7.2160    0.8319   -2.6543 H   0  0  0  0  0  0  0  0  0  0  0  0
    8.7055    2.8746   -1.5302 H   0  0  0  0  0  0  0  0  0  0  0  0
    7.4722    0.3201    1.5359 H   0  0  0  0  0  0  0  0  0  0  0  0
  1  2  2  0
  2  3  1  0
  3  4  1  0
  4  5  1  0
  5  6  1  0
  6  7  2  0
  6  8  1  0
  8  9  2  3
  9 10  1  0
 10 11  2  0
 11 12  1  0
 12 13  2  0
 13 14  1  0
 13 15  1  0
 15 16  2  0
  8 17  1  0
 17 18  1  0
 18 19  2  0
  2 20  1  0
 20 21  1  0
 21 22  1  0
 22 23  1  0
 23 24  1  0
 24 25  1  0
 25 26  2  0
 26 27  1  0
 27 28  2  0
 18  5  1  0
 28 24  1  0
 16 10  1  0
  3 29  1  0
  3 30  1  0
  4 31  1  0
  4 32  1  0
  9 33  1  0
 11 34  1  0
 12 35  1  0
 15 36  1  0
 16 37  1  0
 20 38  1  0
 21 39  1  0
 21 40  1  0
 22 41  1  0
 22 42  1  0
 23 43  1  0
 23 44  1  0
 25 45  1  0
 26 46  1  0
 28 47  1  0
M  END
$$$$
