
     RDKit          3D

 62 66  0  0  0  0  0  0  0  0999 V2000
   -5.2384   -5.5170   -1.5217 C   0  0  0  0  0  0  0  0  0  0  0  0
   -5.1548   -4.3317   -0.7410 O   0  0  0  0  0  0  0  0  0  0  0  0
   -4.3442   -3.3357   -1.2133 C   0  0  0  0  0  0  0  0  0  0  0  0
   -3.5856   -3.3816   -2.3831 C   0  0  0  0  0  0  0  0  0  0  0  0
   -2.7925   -2.2907   -2.7474 C   0  0  0  0  0  0  0  0  0  0  0  0
   -2.7550   -1.1500   -1.9450 C   0  0  0  0  0  0  0  0  0  0  0  0
   -3.5115   -1.0876   -0.7691 C   0  0  0  0  0  0  0  0  0  0  0  0
   -3.4570    0.1056    0.0848 C   0  0  0  0  0  0  0  0  0  0  0  0
   -4.8854    1.0277    0.2822 S   0  0  0  0  0  0  0  0  0  0  0  0
   -4.1125    2.1800    1.2922 C   0  0  0  0  0  0  0  0  0  0  0  0
   -4.7014    3.3140    1.8841 C   0  0  0  0  0  0  0  0  0  0  0  0
   -3.9200    4.1502    2.6898 C   0  0  0  0  0  0  0  0  0  0  0  0
   -2.5790    3.8684    2.9095 C   0  0  0  0  0  0  0  0  0  0  0  0
   -1.7163    4.6045    3.6749 O   0  0  0  0  0  0  0  0  0  0  0  0
   -2.2475    5.7555    4.3192 C   0  0  0  0  0  0  0  0  0  0  0  0
   -2.0065    2.7378    2.3145 C   0  0  0  0  0  0  0  0  0  0  0  0
   -2.7663    1.8706    1.4853 C   0  0  0  0  0  0  0  0  0  0  0  0
   -2.3917    0.6658    0.7746 C   0  0  0  0  0  0  0  0  0  0  0  0
   -1.0586    0.0695    0.7542 C   0  0  0  0  0  0  0  0  0  0  0  0
    0.0046    0.7561    0.1574 C   0  0  0  0  0  0  0  0  0  0  0  0
    1.2880    0.1973    0.1354 C   0  0  0  0  0  0  0  0  0  0  0  0
    1.5201   -1.0505    0.7137 C   0  0  0  0  0  0  0  0  0  0  0  0
    2.7140   -1.7139    0.7586 O   0  0  0  0  0  0  0  0  0  0  0  0
    3.8956   -1.0298    0.3281 C   0  0  0  0  0  0  0  0  0  0  0  0
    4.1291   -1.2399   -1.1792 C   0  0  0  0  0  0  0  0  0  0  0  0
    5.2846   -0.5865   -1.7959 N   0  0  0  0  0  0  0  0  0  0  0  0
    6.5799   -0.9440   -1.2291 C   0  0  0  0  0  0  0  0  0  0  0  0
    7.5177    0.0437   -1.9076 C   0  0  0  0  0  0  0  0  0  0  0  0
    6.6459    1.2470   -2.2565 C   0  0  0  0  0  0  0  0  0  0  0  0
    5.2416    0.8711   -1.8022 C   0  0  0  0  0  0  0  0  0  0  0  0
    0.4553   -1.7359    1.3055 C   0  0  0  0  0  0  0  0  0  0  0  0
   -0.8267   -1.1811    1.3323 C   0  0  0  0  0  0  0  0  0  0  0  0
   -4.3027   -2.1893   -0.4131 C   0  0  0  0  0  0  0  0  0  0  0  0
   -4.2636   -6.0101   -1.5972 H   0  0  0  0  0  0  0  0  0  0  0  0
   -5.6549   -5.3085   -2.5129 H   0  0  0  0  0  0  0  0  0  0  0  0
   -5.9204   -6.2049   -1.0126 H   0  0  0  0  0  0  0  0  0  0  0  0
   -3.5860   -4.2504   -3.0324 H   0  0  0  0  0  0  0  0  0  0  0  0
   -2.1997   -2.3303   -3.6578 H   0  0  0  0  0  0  0  0  0  0  0  0
   -2.1312   -0.3101   -2.2425 H   0  0  0  0  0  0  0  0  0  0  0  0
   -5.7518    3.5384    1.7193 H   0  0  0  0  0  0  0  0  0  0  0  0
   -4.4021    5.0161    3.1318 H   0  0  0  0  0  0  0  0  0  0  0  0
   -3.0413    5.4837    5.0229 H   0  0  0  0  0  0  0  0  0  0  0  0
   -1.4396    6.2203    4.8926 H   0  0  0  0  0  0  0  0  0  0  0  0
   -2.6011    6.4891    3.5871 H   0  0  0  0  0  0  0  0  0  0  0  0
   -0.9565    2.5204    2.4984 H   0  0  0  0  0  0  0  0  0  0  0  0
   -0.1597    1.7290   -0.3008 H   0  0  0  0  0  0  0  0  0  0  0  0
    2.0755    0.7624   -0.3508 H   0  0  0  0  0  0  0  0  0  0  0  0
    4.7201   -1.4877    0.8857 H   0  0  0  0  0  0  0  0  0  0  0  0
    3.8824    0.0235    0.6264 H   0  0  0  0  0  0  0  0  0  0  0  0
    4.2041   -2.3203   -1.3627 H   0  0  0  0  0  0  0  0  0  0  0  0
    3.2302   -0.9433   -1.7337 H   0  0  0  0  0  0  0  0  0  0  0  0
    6.6171   -0.7912   -0.1447 H   0  0  0  0  0  0  0  0  0  0  0  0
    6.8595   -1.9788   -1.4486 H   0  0  0  0  0  0  0  0  0  0  0  0
    7.9373   -0.3869   -2.8240 H   0  0  0  0  0  0  0  0  0  0  0  0
    8.3519    0.3215   -1.2554 H   0  0  0  0  0  0  0  0  0  0  0  0
    6.9963    2.1569   -1.7587 H   0  0  0  0  0  0  0  0  0  0  0  0
    6.6725    1.4238   -3.3378 H   0  0  0  0  0  0  0  0  0  0  0  0
    5.0590    1.2876   -0.8053 H   0  0  0  0  0  0  0  0  0  0  0  0
    4.4816    1.2605   -2.4867 H   0  0  0  0  0  0  0  0  0  0  0  0
    0.6253   -2.7120    1.7535 H   0  0  0  0  0  0  0  0  0  0  0  0
   -1.6361   -1.7330    1.8041 H   0  0  0  0  0  0  0  0  0  0  0  0
   -4.8914   -2.1653    0.5015 H   0  0  0  0  0  0  0  0  0  0  0  0
  1  2  1  0
  2  3  1  0
  3  4  2  0
  4  5  1  0
  5  6  2  0
  6  7  1  0
  7  8  1  0
  8  9  1  0
  9 10  1  0
 10 11  2  0
 11 12  1  0
 12 13  2  0
 13 14  1  0
 14 15  1  0
 13 16  1  0
 16 17  2  0
 17 18  1  0
 18 19  1  0
 19 20  2  0
 20 21  1  0
 21 22  2  0
 22 23  1  0
 23 24  1  0
 24 25  1  0
 25 26  1  0
 26 27  1  0
 27 28  1  0
 28 29  1  0
 29 30  1  0
 22 31  1  0
 31 32  2  0
  7 33  2  0
 33  3  1  0
 18  8  2  0
 32 19  1  0
 17 10  1  0
 30 26  1  0
  1 34  1  0
  1 35  1  0
  1 36  1  0
  4 37  1  0
  5 38  1  0
  6 39  1  0
 11 40  1  0
 12 41  1  0
 15 42  1  0
 15 43  1  0
 15 44  1  0
 16 45  1  0
 20 46  1  0
 21 47  1  0
 24 48  1  0
 24 49  1  0
 25 50  1  0
 25 51  1  0
 27 52  1  0
 27 53  1  0
 28 54  1  0
 28 55  1  0
 29 56  1  0
 29 57  1  0
 30 58  1  0
 30 59  1  0
 31 60  1  0
 32 61  1  0
 33 62  1  0
M  END
$$$$
