
     RDKit          3D

 54 57  0  0  0  0  0  0  0  0999 V2000
   -2.8531    6.0651   -1.0192 C   0  0  0  0  0  0  0  0  0  0  0  0
   -2.1190    5.0438   -1.6817 O   0  0  0  0  0  0  0  0  0  0  0  0
   -1.7666    3.9522   -0.9376 C   0  0  0  0  0  0  0  0  0  0  0  0
   -2.0263    3.7642    0.4190 C   0  0  0  0  0  0  0  0  0  0  0  0
   -1.6059    2.5932    1.0619 C   0  0  0  0  0  0  0  0  0  0  0  0
   -0.9240    1.5873    0.3582 C   0  0  0  0  0  0  0  0  0  0  0  0
   -0.4575    0.3402    1.0950 C   0  0  0  0  0  0  0  0  0  0  0  0
    1.0101    0.4659    1.5080 C   0  0  0  0  0  0  0  0  0  0  0  0
    1.6358   -0.5561    0.5995 C   0  0  0  0  0  0  0  0  0  0  0  0
    3.1050   -0.7115    0.4923 C   0  0  0  0  0  0  0  0  0  0  0  0
    3.6246   -1.6397   -0.4160 C   0  0  0  0  0  0  0  0  0  0  0  0
    5.0044   -1.8046   -0.5357 C   0  0  0  0  0  0  0  0  0  0  0  0
    5.8734   -1.0445    0.2507 C   0  0  0  0  0  0  0  0  0  0  0  0
    5.3641   -0.1167    1.1602 C   0  0  0  0  0  0  0  0  0  0  0  0
    6.1017    0.6865    1.9869 O   0  0  0  0  0  0  0  0  0  0  0  0
    7.5171    0.5796    1.8931 C   0  0  0  0  0  0  0  0  0  0  0  0
    3.9793    0.0456    1.2789 C   0  0  0  0  0  0  0  0  0  0  0  0
    0.7947   -1.3020   -0.0510 N   0  0  0  0  0  0  0  0  0  0  0  0
   -0.4610   -0.8672    0.2649 N   0  0  0  0  0  0  0  0  0  0  0  0
   -1.5870   -1.5644   -0.1686 C   0  0  0  0  0  0  0  0  0  0  0  0
   -1.4545   -2.7015   -0.9889 C   0  0  0  0  0  0  0  0  0  0  0  0
   -2.5628   -3.4250   -1.4405 C   0  0  0  0  0  0  0  0  0  0  0  0
   -3.8404   -3.0201   -1.0628 C   0  0  0  0  0  0  0  0  0  0  0  0
   -5.2433   -3.9437   -1.6224 S   0  0  0  0  0  6  0  0  0  0  0  0
   -5.2252   -5.2547   -0.5626 N   0  0  0  0  0  0  0  0  0  0  0  0
   -6.4438   -3.2080   -1.2963 O   0  0  0  0  0  0  0  0  0  0  0  0
   -4.9694   -4.4386   -2.9498 O   0  0  0  0  0  0  0  0  0  0  0  0
   -4.0150   -1.8927   -0.2637 C   0  0  0  0  0  0  0  0  0  0  0  0
   -2.8934   -1.1785    0.1772 C   0  0  0  0  0  0  0  0  0  0  0  0
   -0.6607    1.7920   -1.0036 C   0  0  0  0  0  0  0  0  0  0  0  0
   -1.0816    2.9613   -1.6419 C   0  0  0  0  0  0  0  0  0  0  0  0
   -3.0699    6.8494   -1.7510 H   0  0  0  0  0  0  0  0  0  0  0  0
   -2.2633    6.5152   -0.2140 H   0  0  0  0  0  0  0  0  0  0  0  0
   -3.8096    5.6855   -0.6447 H   0  0  0  0  0  0  0  0  0  0  0  0
   -2.5517    4.5088    1.0074 H   0  0  0  0  0  0  0  0  0  0  0  0
   -1.8188    2.4751    2.1225 H   0  0  0  0  0  0  0  0  0  0  0  0
   -1.0729    0.1856    1.9906 H   0  0  0  0  0  0  0  0  0  0  0  0
    1.1540    0.1471    2.5459 H   0  0  0  0  0  0  0  0  0  0  0  0
    1.4338    1.4630    1.3611 H   0  0  0  0  0  0  0  0  0  0  0  0
    2.9595   -2.2378   -1.0360 H   0  0  0  0  0  0  0  0  0  0  0  0
    5.4026   -2.5273   -1.2439 H   0  0  0  0  0  0  0  0  0  0  0  0
    6.9400   -1.2022    0.1286 H   0  0  0  0  0  0  0  0  0  0  0  0
    7.9535    1.2901    2.6020 H   0  0  0  0  0  0  0  0  0  0  0  0
    7.8560   -0.4229    2.1747 H   0  0  0  0  0  0  0  0  0  0  0  0
    7.8684    0.8500    0.8918 H   0  0  0  0  0  0  0  0  0  0  0  0
    3.6090    0.7711    1.9968 H   0  0  0  0  0  0  0  0  0  0  0  0
   -0.4617   -3.0284   -1.2933 H   0  0  0  0  0  0  0  0  0  0  0  0
   -2.4159   -4.2889   -2.0851 H   0  0  0  0  0  0  0  0  0  0  0  0
   -6.0682   -5.2208    0.0128 H   0  0  0  0  0  0  0  0  0  0  0  0
   -4.3787   -5.2981    0.0038 H   0  0  0  0  0  0  0  0  0  0  0  0
   -5.0096   -1.5541    0.0179 H   0  0  0  0  0  0  0  0  0  0  0  0
   -3.0684   -0.3012    0.7931 H   0  0  0  0  0  0  0  0  0  0  0  0
   -0.1327    1.0363   -1.5836 H   0  0  0  0  0  0  0  0  0  0  0  0
   -0.8749    3.0972   -2.7008 H   0  0  0  0  0  0  0  0  0  0  0  0
  1  2  1  0
  2  3  1  0
  3  4  2  0
  4  5  1  0
  5  6  2  0
  6  7  1  0
  7  8  1  0
  8  9  1  0
  9 10  1  0
 10 11  2  0
 11 12  1  0
 12 13  2  0
 13 14  1  0
 14 15  1  0
 15 16  1  0
 14 17  2  0
  9 18  2  0
 18 19  1  0
 19 20  1  0
 20 21  2  0
 21 22  1  0
 22 23  2  0
 23 24  1  0
 24 25  1  0
 24 26  2  0
 24 27  2  0
 23 28  1  0
 28 29  2  0
  6 30  1  0
 30 31  2  0
 31  3  1  0
 19  7  1  0
 29 20  1  0
 17 10  1  0
  1 32  1  0
  1 33  1  0
  1 34  1  0
  4 35  1  0
  5 36  1  0
  7 37  1  0
  8 38  1  0
  8 39  1  0
 11 40  1  0
 12 41  1  0
 13 42  1  0
 16 43  1  0
 16 44  1  0
 16 45  1  0
 17 46  1  0
 21 47  1  0
 22 48  1  0
 25 49  1  0
 25 50  1  0
 28 51  1  0
 29 52  1  0
 30 53  1  0
 31 54  1  0
M  END
$$$$
