
     RDKit          3D

 61 63  0  0  0  0  0  0  0  0999 V2000
   -6.3080   -2.3146   -1.3739 C   0  0  0  0  0  0  0  0  0  0  0  0
   -6.1125   -1.0877   -0.4931 C   0  0  0  0  0  0  0  0  0  0  0  0
   -4.6348   -0.7544   -0.2444 C   0  0  0  0  0  0  0  0  0  0  0  0
   -3.9181   -1.8357    0.4532 N   0  0  0  0  0  0  0  0  0  0  0  0
   -3.7270   -1.5629    1.8895 C   0  0  0  0  0  0  0  0  0  0  0  0
   -4.9997   -1.6281    2.7418 C   0  0  0  0  0  0  0  0  0  0  0  0
   -5.6609   -2.9987    2.7268 C   0  0  0  0  0  0  0  0  0  0  0  0
   -2.6377   -2.1793   -0.2034 C   0  0  0  0  0  0  0  0  0  0  0  0
   -1.4378   -1.2137   -0.0622 C   0  0  0  0  0  0  0  0  0  0  0  0
   -1.7003    0.0721   -0.7075 N   0  0  0  0  0  0  0  0  0  0  0  0
   -1.1367    1.4962   -0.0491 S   0  0  0  0  0  6  0  0  0  0  0  0
   -1.5393    1.5477    1.3384 O   0  0  0  0  0  0  0  0  0  0  0  0
   -1.4791    2.5438   -0.9848 O   0  0  0  0  0  0  0  0  0  0  0  0
    0.6247    1.2707   -0.1104 C   0  0  0  0  0  0  0  0  0  0  0  0
    1.3016    1.4903   -1.3205 C   0  0  0  0  0  0  0  0  0  0  0  0
    2.6931    1.3353   -1.3929 C   0  0  0  0  0  0  0  0  0  0  0  0
    3.3910    0.9784   -0.2512 C   0  0  0  0  0  0  0  0  0  0  0  0
    2.6973    0.7581    0.9477 C   0  0  0  0  0  0  0  0  0  0  0  0
    1.3206    0.9125    1.0443 C   0  0  0  0  0  0  0  0  0  0  0  0
    3.6291    0.4019    2.0629 C   0  0  0  0  0  0  0  0  0  0  0  0
    4.9395    0.1898    1.3071 C   0  0  0  0  0  0  0  0  0  0  0  0
    4.7620    0.7437   -0.0442 N   0  0  0  0  0  0  0  0  0  0  0  0
    5.8746    0.8727   -0.8698 C   0  0  0  0  0  0  0  0  0  0  0  0
    6.9646    0.4134   -0.4889 O   0  0  0  0  0  0  0  0  0  0  0  0
    5.7601    1.6178   -2.2176 C   0  0  0  0  0  0  0  0  0  0  0  0
    7.0983    1.9828   -2.9373 C   0  0  0  0  0  0  0  0  0  0  0  0
    6.4186    3.2782   -3.4110 C   0  0  0  0  0  0  0  0  0  0  0  0
    5.4977    3.1546   -2.1848 C   0  0  0  0  0  0  0  0  0  0  0  0
   -5.9231   -3.2194   -0.8941 H   0  0  0  0  0  0  0  0  0  0  0  0
   -5.7998   -2.1914   -2.3356 H   0  0  0  0  0  0  0  0  0  0  0  0
   -7.3736   -2.4690   -1.5721 H   0  0  0  0  0  0  0  0  0  0  0  0
   -6.6515   -1.2300    0.4476 H   0  0  0  0  0  0  0  0  0  0  0  0
   -6.5803   -0.2277   -0.9877 H   0  0  0  0  0  0  0  0  0  0  0  0
   -4.5577    0.1965    0.2978 H   0  0  0  0  0  0  0  0  0  0  0  0
   -4.1979   -0.5676   -1.2335 H   0  0  0  0  0  0  0  0  0  0  0  0
   -3.2572   -0.5832    2.0391 H   0  0  0  0  0  0  0  0  0  0  0  0
   -3.0318   -2.3047    2.3054 H   0  0  0  0  0  0  0  0  0  0  0  0
   -4.7302   -1.3888    3.7781 H   0  0  0  0  0  0  0  0  0  0  0  0
   -5.7158   -0.8604    2.4323 H   0  0  0  0  0  0  0  0  0  0  0  0
   -5.9957   -3.2773    1.7239 H   0  0  0  0  0  0  0  0  0  0  0  0
   -6.5358   -3.0008    3.3848 H   0  0  0  0  0  0  0  0  0  0  0  0
   -4.9699   -3.7693    3.0832 H   0  0  0  0  0  0  0  0  0  0  0  0
   -2.8253   -2.3662   -1.2695 H   0  0  0  0  0  0  0  0  0  0  0  0
   -2.3206   -3.1520    0.1959 H   0  0  0  0  0  0  0  0  0  0  0  0
   -0.5692   -1.6674   -0.5532 H   0  0  0  0  0  0  0  0  0  0  0  0
   -1.1802   -1.0871    0.9936 H   0  0  0  0  0  0  0  0  0  0  0  0
   -1.9540    0.1055   -1.6921 H   0  0  0  0  0  0  0  0  0  0  0  0
    0.7500    1.7850   -2.2117 H   0  0  0  0  0  0  0  0  0  0  0  0
    3.1653    1.4905   -2.3515 H   0  0  0  0  0  0  0  0  0  0  0  0
    0.8082    0.7632    1.9908 H   0  0  0  0  0  0  0  0  0  0  0  0
    3.7116    1.2377    2.7653 H   0  0  0  0  0  0  0  0  0  0  0  0
    3.3209   -0.5018    2.5960 H   0  0  0  0  0  0  0  0  0  0  0  0
    5.7850    0.6703    1.8121 H   0  0  0  0  0  0  0  0  0  0  0  0
    5.1690   -0.8782    1.2034 H   0  0  0  0  0  0  0  0  0  0  0  0
    5.1194    1.0715   -2.9226 H   0  0  0  0  0  0  0  0  0  0  0  0
    7.9481    2.1572   -2.2667 H   0  0  0  0  0  0  0  0  0  0  0  0
    7.4102    1.2992   -3.7316 H   0  0  0  0  0  0  0  0  0  0  0  0
    7.0537    4.1667   -3.4429 H   0  0  0  0  0  0  0  0  0  0  0  0
    5.8946    3.1773   -4.3683 H   0  0  0  0  0  0  0  0  0  0  0  0
    5.8837    3.6553   -1.2887 H   0  0  0  0  0  0  0  0  0  0  0  0
    4.4690    3.4819   -2.3522 H   0  0  0  0  0  0  0  0  0  0  0  0
  1  2  1  0
  2  3  1  0
  3  4  1  0
  4  5  1  0
  5  6  1  0
  6  7  1  0
  4  8  1  0
  8  9  1  0
  9 10  1  0
 10 11  1  0
 11 12  2  0
 11 13  2  0
 11 14  1  0
 14 15  2  0
 15 16  1  0
 16 17  2  0
 17 18  1  0
 18 19  2  0
 18 20  1  0
 20 21  1  0
 21 22  1  0
 22 23  1  0
 23 24  2  0
 23 25  1  0
 25 26  1  0
 26 27  1  0
 27 28  1  0
 19 14  1  0
 28 25  1  0
 22 17  1  0
  1 29  1  0
  1 30  1  0
  1 31  1  0
  2 32  1  0
  2 33  1  0
  3 34  1  0
  3 35  1  0
  5 36  1  0
  5 37  1  0
  6 38  1  0
  6 39  1  0
  7 40  1  0
  7 41  1  0
  7 42  1  0
  8 43  1  0
  8 44  1  0
  9 45  1  0
  9 46  1  0
 10 47  1  0
 15 48  1  0
 16 49  1  0
 19 50  1  0
 20 51  1  0
 20 52  1  0
 21 53  1  0
 21 54  1  0
 25 55  1  0
 26 56  1  0
 26 57  1  0
 27 58  1  0
 27 59  1  0
 28 60  1  0
 28 61  1  0
M  END
$$$$
