
     RDKit          3D

 39 41  0  0  0  0  0  0  0  0999 V2000
    0.2959   -1.1243   -1.7210 O   0  0  0  0  0  0  0  0  0  0  0  0
    0.0727   -0.5827   -0.6420 C   0  0  0  0  0  0  0  0  0  0  0  0
    1.0718   -0.2562    0.2470 N   0  0  0  0  0  0  0  0  0  0  0  0
    2.4819   -0.3781   -0.0813 C   0  0  0  0  0  0  0  0  0  0  0  0
    3.3181   -0.5442    1.1977 C   0  0  0  0  0  0  0  0  0  0  0  0
    4.7689   -0.0794    1.0475 C   0  0  0  0  0  0  0  0  0  0  0  0
    5.2589   -0.1903   -0.3891 C   0  0  0  0  0  0  0  0  0  0  0  0
    4.4206    0.6632   -1.3420 C   0  0  0  0  0  0  0  0  0  0  0  0
    2.9627    0.8205   -0.9033 C   0  0  0  0  0  0  0  0  0  0  0  0
   -1.3328   -0.2487   -0.2424 C   0  0  0  0  0  0  0  0  0  0  0  0
   -2.3577   -0.7076   -1.0876 C   0  0  0  0  0  0  0  0  0  0  0  0
   -3.7101   -0.4521   -0.8077 C   0  0  0  0  0  0  0  0  0  0  0  0
   -4.7310   -0.9141   -1.6537 C   0  0  0  0  0  0  0  0  0  0  0  0
   -6.0707   -0.6534   -1.3633 C   0  0  0  0  0  0  0  0  0  0  0  0
   -6.4066    0.0720   -0.2244 C   0  0  0  0  0  0  0  0  0  0  0  0
   -5.4032    0.5384    0.6265 C   0  0  0  0  0  0  0  0  0  0  0  0
   -4.0498    0.2843    0.3482 C   0  0  0  0  0  0  0  0  0  0  0  0
   -3.0281    0.7471    1.1928 C   0  0  0  0  0  0  0  0  0  0  0  0
   -1.6846    0.4846    0.8997 C   0  0  0  0  0  0  0  0  0  0  0  0
   -0.7239    0.9685    1.7524 O   0  0  0  0  0  0  0  0  0  0  0  0
    0.7990    0.3142    1.0435 H   0  0  0  0  0  0  0  0  0  0  0  0
    2.5992   -1.2814   -0.6946 H   0  0  0  0  0  0  0  0  0  0  0  0
    2.8675    0.0003    2.0376 H   0  0  0  0  0  0  0  0  0  0  0  0
    3.2994   -1.6024    1.4891 H   0  0  0  0  0  0  0  0  0  0  0  0
    4.8491    0.9656    1.3731 H   0  0  0  0  0  0  0  0  0  0  0  0
    5.4127   -0.6634    1.7150 H   0  0  0  0  0  0  0  0  0  0  0  0
    5.2129   -1.2403   -0.7047 H   0  0  0  0  0  0  0  0  0  0  0  0
    6.3109    0.1092   -0.4567 H   0  0  0  0  0  0  0  0  0  0  0  0
    4.4605    0.2139   -2.3418 H   0  0  0  0  0  0  0  0  0  0  0  0
    4.8673    1.6603   -1.4381 H   0  0  0  0  0  0  0  0  0  0  0  0
    2.3329    0.9714   -1.7884 H   0  0  0  0  0  0  0  0  0  0  0  0
    2.8608    1.7352   -0.3037 H   0  0  0  0  0  0  0  0  0  0  0  0
   -2.0944   -1.2764   -1.9792 H   0  0  0  0  0  0  0  0  0  0  0  0
   -4.4878   -1.4829   -2.5491 H   0  0  0  0  0  0  0  0  0  0  0  0
   -6.8504   -1.0175   -2.0276 H   0  0  0  0  0  0  0  0  0  0  0  0
   -7.4501    0.2754    0.0022 H   0  0  0  0  0  0  0  0  0  0  0  0
   -5.6890    1.1035    1.5109 H   0  0  0  0  0  0  0  0  0  0  0  0
   -3.2939    1.3158    2.0801 H   0  0  0  0  0  0  0  0  0  0  0  0
   -1.1594    1.4520    2.4764 H   0  0  0  0  0  0  0  0  0  0  0  0
  1  2  2  0
  2  3  1  0
  3  4  1  0
  4  5  1  0
  5  6  1  0
  6  7  1  0
  7  8  1  0
  8  9  1  0
  2 10  1  0
 10 11  2  0
 11 12  1  0
 12 13  2  0
 13 14  1  0
 14 15  2  0
 15 16  1  0
 16 17  2  0
 17 18  1  0
 18 19  2  0
 19 20  1  0
  9  4  1  0
 19 10  1  0
 17 12  1  0
  3 21  1  0
  4 22  1  0
  5 23  1  0
  5 24  1  0
  6 25  1  0
  6 26  1  0
  7 27  1  0
  7 28  1  0
  8 29  1  0
  8 30  1  0
  9 31  1  0
  9 32  1  0
 11 33  1  0
 13 34  1  0
 14 35  1  0
 15 36  1  0
 16 37  1  0
 18 38  1  0
 20 39  1  0
M  END
$$$$
