
     RDKit          3D

 41 42  0  0  0  0  0  0  0  0999 V2000
    4.3934   -2.8308    0.2468 C   0  0  0  0  0  0  0  0  0  0  0  0
    3.2770   -1.9476    0.2194 O   0  0  0  0  0  0  0  0  0  0  0  0
    3.5323   -0.6152   -0.0160 C   0  0  0  0  0  0  0  0  0  0  0  0
    4.8048   -0.0674   -0.2019 C   0  0  0  0  0  0  0  0  0  0  0  0
    4.9359    1.3099   -0.4325 C   0  0  0  0  0  0  0  0  0  0  0  0
    6.2721    1.8880   -0.6275 N   0  0  0  0  0  4  0  0  0  0  0  0
    6.3523    3.1102   -0.8123 O   0  0  0  0  0  0  0  0  0  0  0  0
    7.2419    1.1168   -0.5943 O   0  0  0  0  0  1  0  0  0  0  0  0
    3.8107    2.1395   -0.4758 C   0  0  0  0  0  0  0  0  0  0  0  0
    2.5402    1.5888   -0.2889 C   0  0  0  0  0  0  0  0  0  0  0  0
    2.3903    0.2174   -0.0635 C   0  0  0  0  0  0  0  0  0  0  0  0
    1.1400   -0.4060    0.1386 N   0  0  0  0  0  0  0  0  0  0  0  0
   -0.1221    0.1443    0.0227 C   0  0  0  0  0  0  0  0  0  0  0  0
   -0.3719    1.2872   -0.3428 O   0  0  0  0  0  0  0  0  0  0  0  0
   -1.0966   -0.7986    0.3698 N   0  0  0  0  0  0  0  0  0  0  0  0
   -2.4817   -0.5192    0.3737 N   0  0  0  0  0  0  0  0  0  0  0  0
   -3.0249   -0.1985   -0.9521 C   0  0  0  0  0  0  0  0  0  0  0  0
   -4.5748   -0.1346   -0.9372 C   0  0  0  0  0  0  0  0  0  0  0  0
   -5.2048    0.3610    0.3087 N   0  0  0  0  0  0  0  0  0  0  0  0
   -5.7131   -0.7462    1.1189 C   0  0  0  0  0  0  0  0  0  0  0  0
   -4.2355    1.1728    1.0685 C   0  0  0  0  0  0  0  0  0  0  0  0
   -2.8855    0.4780    1.3829 C   0  0  0  0  0  0  0  0  0  0  0  0
    4.9132   -2.8396   -0.7168 H   0  0  0  0  0  0  0  0  0  0  0  0
    4.0144   -3.8409    0.4297 H   0  0  0  0  0  0  0  0  0  0  0  0
    5.0753   -2.5778    1.0652 H   0  0  0  0  0  0  0  0  0  0  0  0
    5.6936   -0.6895   -0.1699 H   0  0  0  0  0  0  0  0  0  0  0  0
    3.8990    3.2102   -0.6516 H   0  0  0  0  0  0  0  0  0  0  0  0
    1.6848    2.2579   -0.3208 H   0  0  0  0  0  0  0  0  0  0  0  0
    1.1971   -1.4088    0.2643 H   0  0  0  0  0  0  0  0  0  0  0  0
   -0.8023   -1.5880    0.9321 H   0  0  0  0  0  0  0  0  0  0  0  0
   -2.6378    0.7641   -1.3086 H   0  0  0  0  0  0  0  0  0  0  0  0
   -2.7182   -0.9585   -1.6812 H   0  0  0  0  0  0  0  0  0  0  0  0
   -4.9767   -1.1220   -1.2006 H   0  0  0  0  0  0  0  0  0  0  0  0
   -4.8870    0.5321   -1.7509 H   0  0  0  0  0  0  0  0  0  0  0  0
   -6.5011   -1.2808    0.5765 H   0  0  0  0  0  0  0  0  0  0  0  0
   -6.1736   -0.3685    2.0387 H   0  0  0  0  0  0  0  0  0  0  0  0
   -4.9397   -1.4707    1.3949 H   0  0  0  0  0  0  0  0  0  0  0  0
   -4.6891    1.5336    2.0002 H   0  0  0  0  0  0  0  0  0  0  0  0
   -4.0303    2.0762    0.4779 H   0  0  0  0  0  0  0  0  0  0  0  0
   -2.9694   -0.0426    2.3446 H   0  0  0  0  0  0  0  0  0  0  0  0
   -2.1324    1.2636    1.5145 H   0  0  0  0  0  0  0  0  0  0  0  0
  1  2  1  0
  2  3  1  0
  3  4  2  0
  4  5  1  0
  5  6  1  0
  6  7  2  0
  6  8  1  0
  5  9  2  0
  9 10  1  0
 10 11  2  0
 11 12  1  0
 12 13  1  0
 13 14  2  0
 13 15  1  0
 15 16  1  0
 16 17  1  0
 17 18  1  0
 18 19  1  0
 19 20  1  0
 19 21  1  0
 21 22  1  0
 11  3  1  0
 22 16  1  0
  1 23  1  0
  1 24  1  0
  1 25  1  0
  4 26  1  0
  9 27  1  0
 10 28  1  0
 12 29  1  0
 15 30  1  0
 17 31  1  0
 17 32  1  0
 18 33  1  0
 18 34  1  0
 20 35  1  0
 20 36  1  0
 20 37  1  0
 21 38  1  0
 21 39  1  0
 22 40  1  0
 22 41  1  0
M  CHG  2   6   1   8  -1
M  END
$$$$
