
     RDKit          3D

 36 38  0  0  0  0  0  0  0  0999 V2000
   -0.1911   -0.2407    1.9266 O   0  0  0  0  0  0  0  0  0  0  0  0
   -0.3655    0.0814    0.7574 C   0  0  0  0  0  0  0  0  0  0  0  0
   -1.7166    0.2019    0.1412 C   0  0  0  0  0  0  0  0  0  0  0  0
   -2.8281   -0.0939    0.8296 C   0  0  0  0  0  0  0  0  0  0  0  0
   -4.2025   -0.0243    0.3237 C   0  0  0  0  0  0  0  0  0  0  0  0
   -4.7891    1.1993   -0.0254 C   0  0  0  0  0  0  0  0  0  0  0  0
   -6.1056    1.2448   -0.4921 C   0  0  0  0  0  0  0  0  0  0  0  0
   -6.8336    0.0645   -0.6000 C   0  0  0  0  0  0  0  0  0  0  0  0
   -8.1202    0.0617   -1.0504 O   0  0  0  0  0  0  0  0  0  0  0  0
   -6.2693   -1.1553   -0.2468 C   0  0  0  0  0  0  0  0  0  0  0  0
   -4.9539   -1.2007    0.2189 C   0  0  0  0  0  0  0  0  0  0  0  0
   -1.5942    0.7262   -1.4923 S   0  0  0  0  0  0  0  0  0  0  0  0
    0.1622    0.8610   -1.4215 C   0  0  0  0  0  0  0  0  0  0  0  0
    1.0481    1.4953   -2.6899 S   0  0  0  0  0  0  0  0  0  0  0  0
    0.6040    0.3840   -0.1944 N   0  0  0  0  0  0  0  0  0  0  0  0
    1.9162    0.4563    0.2293 N   0  0  0  0  0  0  0  0  0  0  0  0
    2.7582   -0.2843   -0.4211 C   0  0  0  0  0  0  0  0  0  0  0  0
    4.1974   -0.2957   -0.0945 C   0  0  0  0  0  0  0  0  0  0  0  0
    4.6996    0.4679    0.9652 C   0  0  0  0  0  0  0  0  0  0  0  0
    6.0652    0.4405    1.2569 C   0  0  0  0  0  0  0  0  0  0  0  0
    6.9130   -0.3495    0.4856 C   0  0  0  0  0  0  0  0  0  0  0  0
    8.2518   -0.4065    0.7348 O   0  0  0  0  0  0  0  0  0  0  0  0
    6.4200   -1.1108   -0.5698 C   0  0  0  0  0  0  0  0  0  0  0  0
    5.0558   -1.0865   -0.8642 C   0  0  0  0  0  0  0  0  0  0  0  0
   -2.7463   -0.4423    1.8590 H   0  0  0  0  0  0  0  0  0  0  0  0
   -4.2281    2.1267    0.0653 H   0  0  0  0  0  0  0  0  0  0  0  0
   -6.5404    2.2021   -0.7612 H   0  0  0  0  0  0  0  0  0  0  0  0
   -8.3762    0.9737   -1.2646 H   0  0  0  0  0  0  0  0  0  0  0  0
   -6.8515   -2.0684   -0.3329 H   0  0  0  0  0  0  0  0  0  0  0  0
   -4.5231   -2.1607    0.4935 H   0  0  0  0  0  0  0  0  0  0  0  0
    2.4334   -0.9536   -1.2391 H   0  0  0  0  0  0  0  0  0  0  0  0
    4.0343    1.0823    1.5679 H   0  0  0  0  0  0  0  0  0  0  0  0
    6.4432    1.0361    2.0821 H   0  0  0  0  0  0  0  0  0  0  0  0
    8.4535    0.1699    1.4904 H   0  0  0  0  0  0  0  0  0  0  0  0
    7.0984   -1.7202   -1.1609 H   0  0  0  0  0  0  0  0  0  0  0  0
    4.6810   -1.6824   -1.6918 H   0  0  0  0  0  0  0  0  0  0  0  0
  1  2  2  0
  2  3  1  0
  3  4  2  3
  4  5  1  0
  5  6  2  0
  6  7  1  0
  7  8  2  0
  8  9  1  0
  8 10  1  0
 10 11  2  0
  3 12  1  0
 12 13  1  0
 13 14  2  0
 13 15  1  0
 15 16  1  0
 16 17  2  3
 17 18  1  0
 18 19  2  0
 19 20  1  0
 20 21  2  0
 21 22  1  0
 21 23  1  0
 23 24  2  0
 15  2  1  0
 24 18  1  0
 11  5  1  0
  4 25  1  0
  6 26  1  0
  7 27  1  0
  9 28  1  0
 10 29  1  0
 11 30  1  0
 17 31  1  0
 19 32  1  0
 20 33  1  0
 22 34  1  0
 23 35  1  0
 24 36  1  0
M  END
$$$$
