
     RDKit          3D

 39 40  0  0  0  0  0  0  0  0999 V2000
    7.6089   -0.2987    0.7955 C   0  0  0  0  0  0  0  0  0  0  0  0
    6.7674   -0.5167   -0.3295 O   0  0  0  0  0  0  0  0  0  0  0  0
    5.4192   -0.5284   -0.0996 C   0  0  0  0  0  0  0  0  0  0  0  0
    4.7938   -0.3306    1.1312 C   0  0  0  0  0  0  0  0  0  0  0  0
    3.3978   -0.3673    1.2264 C   0  0  0  0  0  0  0  0  0  0  0  0
    2.6112   -0.6061    0.0931 C   0  0  0  0  0  0  0  0  0  0  0  0
    1.1085   -0.6249    0.1897 C   0  0  0  0  0  0  0  0  0  0  0  0
    0.4971    0.7338   -0.1487 C   0  0  0  0  0  0  0  0  0  0  0  0
   -0.9312    0.6994    0.0203 O   0  0  0  0  0  0  0  0  0  0  0  0
   -1.6320    0.2083   -1.0304 C   0  0  0  0  0  0  0  0  0  0  0  0
   -1.1620   -0.2080   -2.0764 O   0  0  0  0  0  0  0  0  0  0  0  0
   -3.0921    0.2376   -0.7424 C   0  0  0  0  0  0  0  0  0  0  0  0
   -3.9692   -0.2337   -1.7259 C   0  0  0  0  0  0  0  0  0  0  0  0
   -5.3523   -0.2319   -1.5076 C   0  0  0  0  0  0  0  0  0  0  0  0
   -5.9031    0.2758   -0.3229 C   0  0  0  0  0  0  0  0  0  0  0  0
   -7.2833    0.1135   -0.1191 N   0  0  0  0  0  0  0  0  0  0  0  0
   -5.0041    0.6984    0.6767 C   0  0  0  0  0  0  0  0  0  0  0  0
   -5.4966    1.1781    1.9690 N   0  0  0  0  0  4  0  0  0  0  0  0
   -4.7684    1.0057    2.9574 O   0  0  0  0  0  0  0  0  0  0  0  0
   -6.5987    1.7486    1.9946 O   0  0  0  0  0  1  0  0  0  0  0  0
   -3.6119    0.7002    0.4702 C   0  0  0  0  0  0  0  0  0  0  0  0
    3.2426   -0.7993   -1.1402 C   0  0  0  0  0  0  0  0  0  0  0  0
    4.6357   -0.7614   -1.2317 C   0  0  0  0  0  0  0  0  0  0  0  0
    7.4866   -1.0921    1.5403 H   0  0  0  0  0  0  0  0  0  0  0  0
    7.4318    0.6883    1.2355 H   0  0  0  0  0  0  0  0  0  0  0  0
    8.6460   -0.3263    0.4476 H   0  0  0  0  0  0  0  0  0  0  0  0
    5.3607   -0.1447    2.0371 H   0  0  0  0  0  0  0  0  0  0  0  0
    2.9304   -0.2087    2.1960 H   0  0  0  0  0  0  0  0  0  0  0  0
    0.7975   -0.9287    1.1976 H   0  0  0  0  0  0  0  0  0  0  0  0
    0.7071   -1.4034   -0.4709 H   0  0  0  0  0  0  0  0  0  0  0  0
    0.8757    1.5006    0.5369 H   0  0  0  0  0  0  0  0  0  0  0  0
    0.7594    1.0649   -1.1615 H   0  0  0  0  0  0  0  0  0  0  0  0
   -3.5809   -0.6214   -2.6674 H   0  0  0  0  0  0  0  0  0  0  0  0
   -6.0011   -0.6406   -2.2806 H   0  0  0  0  0  0  0  0  0  0  0  0
   -7.6730    0.7447    0.5874 H   0  0  0  0  0  0  0  0  0  0  0  0
   -7.8433    0.1175   -0.9672 H   0  0  0  0  0  0  0  0  0  0  0  0
   -2.9454    1.0540    1.2545 H   0  0  0  0  0  0  0  0  0  0  0  0
    2.6559   -0.9813   -2.0385 H   0  0  0  0  0  0  0  0  0  0  0  0
    5.1153   -0.9153   -2.1953 H   0  0  0  0  0  0  0  0  0  0  0  0
  1  2  1  0
  2  3  1  0
  3  4  2  0
  4  5  1  0
  5  6  2  0
  6  7  1  0
  7  8  1  0
  8  9  1  0
  9 10  1  0
 10 11  2  0
 10 12  1  0
 12 13  2  0
 13 14  1  0
 14 15  2  0
 15 16  1  0
 15 17  1  0
 17 18  1  0
 18 19  2  0
 18 20  1  0
 17 21  2  0
  6 22  1  0
 22 23  2  0
 23  3  1  0
 21 12  1  0
  1 24  1  0
  1 25  1  0
  1 26  1  0
  4 27  1  0
  5 28  1  0
  7 29  1  0
  7 30  1  0
  8 31  1  0
  8 32  1  0
 13 33  1  0
 14 34  1  0
 16 35  1  0
 16 36  1  0
 21 37  1  0
 22 38  1  0
 23 39  1  0
M  CHG  2  18   1  20  -1
M  END
$$$$
