
     RDKit          3D

 48 50  0  0  0  0  0  0  0  0999 V2000
    7.9190    0.1300    1.7060 C   0  0  0  0  0  0  0  0  0  0  0  0
    7.7319   -0.7006    0.4459 C   0  0  0  0  0  0  0  0  0  0  0  0
    6.5521   -0.2474   -0.4123 C   0  0  0  0  0  0  0  0  0  0  0  0
    5.1952   -0.4279    0.2657 C   0  0  0  0  0  0  0  0  0  0  0  0
    4.1868   -0.0601   -0.6768 O   0  0  0  0  0  0  0  0  0  0  0  0
    2.8860   -0.1712   -0.2732 C   0  0  0  0  0  0  0  0  0  0  0  0
    1.9416    0.1812   -1.2360 C   0  0  0  0  0  0  0  0  0  0  0  0
    0.5713    0.1139   -0.9561 C   0  0  0  0  0  0  0  0  0  0  0  0
    0.1104   -0.3234    0.2882 C   0  0  0  0  0  0  0  0  0  0  0  0
   -1.2530   -0.3703    0.6416 N   0  0  0  0  0  0  0  0  0  0  0  0
   -2.3374   -0.4443   -0.1925 C   0  0  0  0  0  0  0  0  0  0  0  0
   -2.3201   -0.5866   -1.4731 N   0  0  0  0  0  0  0  0  0  0  0  0
   -3.5034   -0.7146   -2.1245 C   0  0  0  0  0  0  0  0  0  0  0  0
   -3.4319   -1.1156   -3.4176 N   0  0  0  0  0  0  0  0  0  0  0  0
   -4.6652   -0.5164   -1.6079 N   0  0  0  0  0  0  0  0  0  0  0  0
   -4.6748   -0.0527   -0.2338 C   0  0  0  0  0  0  0  0  0  0  0  0
   -5.8991   -0.6698    0.4747 C   0  0  0  0  0  0  0  0  0  0  0  0
   -6.9655    0.4163    0.4475 C   0  0  0  0  0  0  0  0  0  0  0  0
   -6.1605    1.6859    0.6481 C   0  0  0  0  0  0  0  0  0  0  0  0
   -4.9347    1.4741   -0.2330 C   0  0  0  0  0  0  0  0  0  0  0  0
   -3.4905   -0.3672    0.5235 N   0  0  0  0  0  0  0  0  0  0  0  0
    1.0725   -0.6505    1.2575 C   0  0  0  0  0  0  0  0  0  0  0  0
    2.4455   -0.5846    0.9807 C   0  0  0  0  0  0  0  0  0  0  0  0
    8.8302   -0.1795    2.2279 H   0  0  0  0  0  0  0  0  0  0  0  0
    7.0818    0.0023    2.3985 H   0  0  0  0  0  0  0  0  0  0  0  0
    8.0111    1.1938    1.4655 H   0  0  0  0  0  0  0  0  0  0  0  0
    7.6109   -1.7553    0.7192 H   0  0  0  0  0  0  0  0  0  0  0  0
    8.6462   -0.6322   -0.1556 H   0  0  0  0  0  0  0  0  0  0  0  0
    6.5568   -0.8150   -1.3517 H   0  0  0  0  0  0  0  0  0  0  0  0
    6.6778    0.8029   -0.7042 H   0  0  0  0  0  0  0  0  0  0  0  0
    5.0708   -1.4772    0.5589 H   0  0  0  0  0  0  0  0  0  0  0  0
    5.1290    0.2207    1.1461 H   0  0  0  0  0  0  0  0  0  0  0  0
    2.2693    0.5188   -2.2162 H   0  0  0  0  0  0  0  0  0  0  0  0
   -0.1242    0.4224   -1.7317 H   0  0  0  0  0  0  0  0  0  0  0  0
   -1.4152   -0.7927    1.5445 H   0  0  0  0  0  0  0  0  0  0  0  0
   -2.5876   -1.6421   -3.5966 H   0  0  0  0  0  0  0  0  0  0  0  0
   -4.2821   -1.5734   -3.7148 H   0  0  0  0  0  0  0  0  0  0  0  0
   -6.2549   -1.5892   -0.0033 H   0  0  0  0  0  0  0  0  0  0  0  0
   -5.6705   -0.9155    1.5203 H   0  0  0  0  0  0  0  0  0  0  0  0
   -7.4698    0.4317   -0.5258 H   0  0  0  0  0  0  0  0  0  0  0  0
   -7.7216    0.2747    1.2249 H   0  0  0  0  0  0  0  0  0  0  0  0
   -5.8577    1.7822    1.6975 H   0  0  0  0  0  0  0  0  0  0  0  0
   -6.7201    2.5837    0.3704 H   0  0  0  0  0  0  0  0  0  0  0  0
   -4.0853    2.0606    0.1349 H   0  0  0  0  0  0  0  0  0  0  0  0
   -5.1581    1.8350   -1.2454 H   0  0  0  0  0  0  0  0  0  0  0  0
   -3.4142    0.1720    1.3759 H   0  0  0  0  0  0  0  0  0  0  0  0
    0.7635   -0.9699    2.2498 H   0  0  0  0  0  0  0  0  0  0  0  0
    3.1379   -0.8595    1.7688 H   0  0  0  0  0  0  0  0  0  0  0  0
  1  2  1  0
  2  3  1  0
  3  4  1  0
  4  5  1  0
  5  6  1  0
  6  7  2  0
  7  8  1  0
  8  9  2  0
  9 10  1  0
 10 11  1  0
 11 12  2  0
 12 13  1  0
 13 14  1  0
 13 15  2  0
 15 16  1  0
 16 17  1  0
 17 18  1  0
 18 19  1  0
 19 20  1  0
 16 21  1  0
  9 22  1  0
 22 23  2  0
 23  6  1  0
 21 11  1  0
 20 16  1  0
  1 24  1  0
  1 25  1  0
  1 26  1  0
  2 27  1  0
  2 28  1  0
  3 29  1  0
  3 30  1  0
  4 31  1  0
  4 32  1  0
  7 33  1  0
  8 34  1  0
 10 35  1  0
 14 36  1  0
 14 37  1  0
 17 38  1  0
 17 39  1  0
 18 40  1  0
 18 41  1  0
 19 42  1  0
 19 43  1  0
 20 44  1  0
 20 45  1  0
 21 46  1  0
 22 47  1  0
 23 48  1  0
M  END
$$$$
