
     RDKit          3D

 61 64  0  0  0  0  0  0  0  0999 V2000
    6.6057   -2.7299   -2.8918 C   0  0  0  0  0  0  0  0  0  0  0  0
    6.1040   -1.4698   -2.2504 C   0  0  0  0  0  0  0  0  0  0  0  0
    5.1931   -0.6431   -2.9212 C   0  0  0  0  0  0  0  0  0  0  0  0
    4.7584    0.5533   -2.3426 C   0  0  0  0  0  0  0  0  0  0  0  0
    5.2366    0.9473   -1.0861 C   0  0  0  0  0  0  0  0  0  0  0  0
    4.7850    2.2387   -0.4523 C   0  0  0  0  0  0  0  0  0  0  0  0
    3.9886    2.0176    0.7422 N   0  0  0  0  0  0  0  0  0  0  0  0
    2.7187    1.3419    0.7043 C   0  0  0  0  0  0  0  0  0  0  0  0
    2.2978    1.2810    2.1630 C   0  0  0  0  0  0  0  0  0  0  0  0
    0.7855    1.2290    2.2793 C   0  0  0  0  0  0  0  0  0  0  0  0
    0.1432    2.1732    2.7205 O   0  0  0  0  0  0  0  0  0  0  0  0
    0.2615    0.0266    1.8279 N   0  0  0  0  0  0  0  0  0  0  0  0
   -1.0984   -0.3508    1.7794 C   0  0  0  0  0  0  0  0  0  0  0  0
   -2.1473    0.4467    2.2433 C   0  0  0  0  0  0  0  0  0  0  0  0
   -3.4717    0.0027    2.1595 C   0  0  0  0  0  0  0  0  0  0  0  0
   -3.7541   -1.2367    1.5830 C   0  0  0  0  0  0  0  0  0  0  0  0
   -5.4415   -1.8052    1.4945 S   0  0  0  0  0  6  0  0  0  0  0  0
   -5.4030   -3.2484    1.3762 O   0  0  0  0  0  0  0  0  0  0  0  0
   -6.1703   -1.1601    2.5677 O   0  0  0  0  0  0  0  0  0  0  0  0
   -5.9833   -1.1674    0.0173 N   0  0  0  0  0  0  0  0  0  0  0  0
   -6.2772    0.2840   -0.0324 C   0  0  0  0  0  0  0  0  0  0  0  0
   -6.7789    0.6745   -1.4184 C   0  0  0  0  0  0  0  0  0  0  0  0
   -5.7336    0.3931   -2.4971 C   0  0  0  0  0  0  0  0  0  0  0  0
   -4.7902   -0.7462   -2.1159 C   0  0  0  0  0  0  0  0  0  0  0  0
   -5.4806   -1.7808   -1.2354 C   0  0  0  0  0  0  0  0  0  0  0  0
   -2.7165   -2.0568    1.1393 C   0  0  0  0  0  0  0  0  0  0  0  0
   -1.3946   -1.6099    1.2359 C   0  0  0  0  0  0  0  0  0  0  0  0
    2.9252    2.5389    2.7667 C   0  0  0  0  0  0  0  0  0  0  0  0
    4.0956    2.8266    1.8608 C   0  0  0  0  0  0  0  0  0  0  0  0
    4.9631    3.6563    2.0767 O   0  0  0  0  0  0  0  0  0  0  0  0
    6.1585    0.1243   -0.4219 C   0  0  0  0  0  0  0  0  0  0  0  0
    6.5918   -1.0710   -1.0014 C   0  0  0  0  0  0  0  0  0  0  0  0
    6.8683   -3.4774   -2.1332 H   0  0  0  0  0  0  0  0  0  0  0  0
    7.4920   -2.5107   -3.4973 H   0  0  0  0  0  0  0  0  0  0  0  0
    5.8354   -3.1754   -3.5347 H   0  0  0  0  0  0  0  0  0  0  0  0
    4.8211   -0.9236   -3.9052 H   0  0  0  0  0  0  0  0  0  0  0  0
    4.0531    1.1782   -2.8867 H   0  0  0  0  0  0  0  0  0  0  0  0
    5.6637    2.8503   -0.2097 H   0  0  0  0  0  0  0  0  0  0  0  0
    4.1761    2.8314   -1.1474 H   0  0  0  0  0  0  0  0  0  0  0  0
    2.8281    0.3434    0.2729 H   0  0  0  0  0  0  0  0  0  0  0  0
    2.0254    1.9270    0.0900 H   0  0  0  0  0  0  0  0  0  0  0  0
    2.7285    0.3985    2.6523 H   0  0  0  0  0  0  0  0  0  0  0  0
    0.9185   -0.6725    1.5074 H   0  0  0  0  0  0  0  0  0  0  0  0
   -1.9723    1.4194    2.6944 H   0  0  0  0  0  0  0  0  0  0  0  0
   -4.2700    0.6308    2.5485 H   0  0  0  0  0  0  0  0  0  0  0  0
   -5.3846    0.8685    0.2099 H   0  0  0  0  0  0  0  0  0  0  0  0
   -7.0542    0.5201    0.7030 H   0  0  0  0  0  0  0  0  0  0  0  0
   -7.0542    1.7358   -1.4366 H   0  0  0  0  0  0  0  0  0  0  0  0
   -7.6916    0.1077   -1.6460 H   0  0  0  0  0  0  0  0  0  0  0  0
   -5.1405    1.2948   -2.6924 H   0  0  0  0  0  0  0  0  0  0  0  0
   -6.2482    0.1552   -3.4354 H   0  0  0  0  0  0  0  0  0  0  0  0
   -3.9263   -0.3327   -1.5807 H   0  0  0  0  0  0  0  0  0  0  0  0
   -4.3994   -1.2195   -3.0238 H   0  0  0  0  0  0  0  0  0  0  0  0
   -4.7830   -2.6008   -1.0345 H   0  0  0  0  0  0  0  0  0  0  0  0
   -6.3352   -2.2205   -1.7649 H   0  0  0  0  0  0  0  0  0  0  0  0
   -2.9238   -3.0417    0.7258 H   0  0  0  0  0  0  0  0  0  0  0  0
   -0.6026   -2.2651    0.8822 H   0  0  0  0  0  0  0  0  0  0  0  0
    3.2733    2.3556    3.7867 H   0  0  0  0  0  0  0  0  0  0  0  0
    2.2612    3.4078    2.7552 H   0  0  0  0  0  0  0  0  0  0  0  0
    6.5515    0.4203    0.5504 H   0  0  0  0  0  0  0  0  0  0  0  0
    7.3188   -1.6845   -0.4721 H   0  0  0  0  0  0  0  0  0  0  0  0
  1  2  1  0
  2  3  2  0
  3  4  1  0
  4  5  2  0
  5  6  1  0
  6  7  1  0
  7  8  1  0
  8  9  1  0
  9 10  1  0
 10 11  2  0
 10 12  1  0
 12 13  1  0
 13 14  2  0
 14 15  1  0
 15 16  2  0
 16 17  1  0
 17 18  2  0
 17 19  2  0
 17 20  1  0
 20 21  1  0
 21 22  1  0
 22 23  1  0
 23 24  1  0
 24 25  1  0
 16 26  1  0
 26 27  2  0
  9 28  1  0
 28 29  1  0
 29 30  2  0
  5 31  1  0
 31 32  2  0
 32  2  1  0
 29  7  1  0
 27 13  1  0
 25 20  1  0
  1 33  1  0
  1 34  1  0
  1 35  1  0
  3 36  1  0
  4 37  1  0
  6 38  1  0
  6 39  1  0
  8 40  1  0
  8 41  1  0
  9 42  1  0
 12 43  1  0
 14 44  1  0
 15 45  1  0
 21 46  1  0
 21 47  1  0
 22 48  1  0
 22 49  1  0
 23 50  1  0
 23 51  1  0
 24 52  1  0
 24 53  1  0
 25 54  1  0
 25 55  1  0
 26 56  1  0
 27 57  1  0
 28 58  1  0
 28 59  1  0
 31 60  1  0
 32 61  1  0
M  END
$$$$
