
     RDKit          3D

 51 54  0  0  0  0  0  0  0  0999 V2000
    3.0226   -1.3502   -2.6290 C   0  0  0  0  0  0  0  0  0  0  0  0
    2.4647   -0.2430   -1.7241 C   0  0  0  0  0  0  0  0  0  0  0  0
    1.1252    0.2784   -2.2875 C   0  0  0  0  0  0  0  0  0  0  0  0
    0.1373   -0.4280   -1.4125 C   0  0  0  0  0  0  0  0  0  0  0  0
   -1.2377   -0.4960   -1.5820 C   0  0  0  0  0  0  0  0  0  0  0  0
   -1.9864   -1.1414   -0.5927 C   0  0  0  0  0  0  0  0  0  0  0  0
   -3.7527   -1.2958   -0.7864 S   0  0  0  0  0  6  0  0  0  0  0  0
   -4.0590   -1.0540   -2.1819 O   0  0  0  0  0  0  0  0  0  0  0  0
   -4.1498   -2.5269   -0.1364 O   0  0  0  0  0  0  0  0  0  0  0  0
   -4.3519    0.0086    0.1152 N   0  0  0  0  0  0  0  0  0  0  0  0
   -4.2195    1.3689   -0.4554 C   0  0  0  0  0  0  0  0  0  0  0  0
   -3.7547    2.3819    0.5838 C   0  0  0  0  0  0  0  0  0  0  0  0
   -4.6579    2.4042    1.8145 C   0  0  0  0  0  0  0  0  0  0  0  0
   -5.1823    1.0149    2.1864 C   0  0  0  0  0  0  0  0  0  0  0  0
   -4.3233   -0.0961    1.5895 C   0  0  0  0  0  0  0  0  0  0  0  0
   -1.3610   -1.7236    0.5235 C   0  0  0  0  0  0  0  0  0  0  0  0
    0.0263   -1.6308    0.6832 C   0  0  0  0  0  0  0  0  0  0  0  0
    0.7662   -0.9858   -0.2947 C   0  0  0  0  0  0  0  0  0  0  0  0
    2.1598   -0.7686   -0.3683 N   0  0  0  0  0  0  0  0  0  0  0  0
    3.0709   -1.0198    0.6558 C   0  0  0  0  0  0  0  0  0  0  0  0
    2.7500   -1.5688    1.7171 O   0  0  0  0  0  0  0  0  0  0  0  0
    4.5279   -0.5228    0.4177 C   0  0  0  0  0  0  0  0  0  0  0  0
    4.8315    0.9568    0.7926 C   0  0  0  0  0  0  0  0  0  0  0  0
    6.2278    0.4902    1.2432 C   0  0  0  0  0  0  0  0  0  0  0  0
    5.6054   -0.8985    1.4799 C   0  0  0  0  0  0  0  0  0  0  0  0
    3.9425   -1.7828   -2.2268 H   0  0  0  0  0  0  0  0  0  0  0  0
    3.2461   -0.9540   -3.6246 H   0  0  0  0  0  0  0  0  0  0  0  0
    2.3066   -2.1729   -2.7437 H   0  0  0  0  0  0  0  0  0  0  0  0
    3.1957    0.5694   -1.6568 H   0  0  0  0  0  0  0  0  0  0  0  0
    1.0376    1.3590   -2.1284 H   0  0  0  0  0  0  0  0  0  0  0  0
    0.9865    0.0526   -3.3484 H   0  0  0  0  0  0  0  0  0  0  0  0
   -1.7136   -0.0597   -2.4553 H   0  0  0  0  0  0  0  0  0  0  0  0
   -3.5133    1.3831   -1.2889 H   0  0  0  0  0  0  0  0  0  0  0  0
   -5.1980    1.6623   -0.8560 H   0  0  0  0  0  0  0  0  0  0  0  0
   -3.7102    3.3863    0.1417 H   0  0  0  0  0  0  0  0  0  0  0  0
   -2.7315    2.1346    0.8949 H   0  0  0  0  0  0  0  0  0  0  0  0
   -4.0953    2.8310    2.6541 H   0  0  0  0  0  0  0  0  0  0  0  0
   -5.5125    3.0743    1.6435 H   0  0  0  0  0  0  0  0  0  0  0  0
   -6.2123    0.9147    1.8164 H   0  0  0  0  0  0  0  0  0  0  0  0
   -5.2318    0.9137    3.2761 H   0  0  0  0  0  0  0  0  0  0  0  0
   -3.2947   -0.0247    1.9613 H   0  0  0  0  0  0  0  0  0  0  0  0
   -4.7374   -1.0606    1.9053 H   0  0  0  0  0  0  0  0  0  0  0  0
   -1.9475   -2.2551    1.2701 H   0  0  0  0  0  0  0  0  0  0  0  0
    0.4932   -2.0837    1.5510 H   0  0  0  0  0  0  0  0  0  0  0  0
    4.9000   -0.7710   -0.5829 H   0  0  0  0  0  0  0  0  0  0  0  0
    4.2134    1.3477    1.6081 H   0  0  0  0  0  0  0  0  0  0  0  0
    4.8196    1.6714   -0.0331 H   0  0  0  0  0  0  0  0  0  0  0  0
    6.9777    0.5079    0.4450 H   0  0  0  0  0  0  0  0  0  0  0  0
    6.6343    0.9876    2.1276 H   0  0  0  0  0  0  0  0  0  0  0  0
    6.2445   -1.7493    1.2263 H   0  0  0  0  0  0  0  0  0  0  0  0
    5.2211   -1.0354    2.4977 H   0  0  0  0  0  0  0  0  0  0  0  0
  1  2  1  0
  2  3  1  0
  3  4  1  0
  4  5  2  0
  5  6  1  0
  6  7  1  0
  7  8  2  0
  7  9  2  0
  7 10  1  0
 10 11  1  0
 11 12  1  0
 12 13  1  0
 13 14  1  0
 14 15  1  0
  6 16  2  0
 16 17  1  0
 17 18  2  0
 18 19  1  0
 19 20  1  0
 20 21  2  0
 20 22  1  0
 22 23  1  0
 23 24  1  0
 24 25  1  0
 19  2  1  0
 25 22  1  0
 18  4  1  0
 15 10  1  0
  1 26  1  0
  1 27  1  0
  1 28  1  0
  2 29  1  0
  3 30  1  0
  3 31  1  0
  5 32  1  0
 11 33  1  0
 11 34  1  0
 12 35  1  0
 12 36  1  0
 13 37  1  0
 13 38  1  0
 14 39  1  0
 14 40  1  0
 15 41  1  0
 15 42  1  0
 16 43  1  0
 17 44  1  0
 22 45  1  0
 23 46  1  0
 23 47  1  0
 24 48  1  0
 24 49  1  0
 25 50  1  0
 25 51  1  0
M  END
$$$$
