
     RDKit          3D

 62 65  0  0  0  0  0  0  0  0999 V2000
    9.5596    1.7013   -0.2798 C   0  0  0  0  0  0  0  0  0  0  0  0
    8.2071    1.3272    0.2499 C   0  0  0  0  0  0  0  0  0  0  0  0
    7.0478    1.8803   -0.3056 C   0  0  0  0  0  0  0  0  0  0  0  0
    5.7877    1.4999    0.1627 C   0  0  0  0  0  0  0  0  0  0  0  0
    5.6634    0.5588    1.1939 C   0  0  0  0  0  0  0  0  0  0  0  0
    4.2949    0.1365    1.6678 C   0  0  0  0  0  0  0  0  0  0  0  0
    3.7783   -0.9365    0.8461 N   0  0  0  0  0  0  0  0  0  0  0  0
    2.9647   -0.6848   -0.2417 C   0  0  0  0  0  0  0  0  0  0  0  0
    2.5367    0.4286   -0.5220 O   0  0  0  0  0  0  0  0  0  0  0  0
    2.7078   -1.9283   -1.0744 C   0  0  0  0  0  0  0  0  0  0  0  0
    1.6271   -1.7389   -2.1381 C   0  0  0  0  0  0  0  0  0  0  0  0
    0.2317   -1.8403   -1.5979 C   0  0  0  0  0  0  0  0  0  0  0  0
   -0.4527   -3.0217   -1.2115 C   0  0  0  0  0  0  0  0  0  0  0  0
    0.0370   -4.4232   -1.2434 C   0  0  0  0  0  0  0  0  0  0  0  0
   -1.6848   -2.7689   -0.7680 N   0  0  0  0  0  0  0  0  0  0  0  0
   -1.8425   -1.4192   -0.8868 N   0  0  0  0  0  0  0  0  0  0  0  0
   -3.0842   -0.8113   -0.5224 C   0  0  0  0  0  0  0  0  0  0  0  0
   -4.1234   -1.5933   -0.0459 C   0  0  0  0  0  0  0  0  0  0  0  0
   -5.3341   -0.9806    0.2867 C   0  0  0  0  0  0  0  0  0  0  0  0
   -5.4931    0.3936    0.1482 C   0  0  0  0  0  0  0  0  0  0  0  0
   -6.7035    1.0145    0.4409 N   0  0  0  0  0  0  0  0  0  0  0  0
   -6.7933    2.4476    0.1158 C   0  0  0  0  0  0  0  0  0  0  0  0
   -8.2318    2.9296    0.3699 C   0  0  0  0  0  0  0  0  0  0  0  0
   -8.6920    2.7470    1.7220 O   0  0  0  0  0  0  0  0  0  0  0  0
   -7.9115    1.7988    2.4639 C   0  0  0  0  0  0  0  0  0  0  0  0
   -7.4591    0.5868    1.6305 C   0  0  0  0  0  0  0  0  0  0  0  0
   -4.4562    1.1113   -0.3316 N   0  0  0  0  0  0  0  0  0  0  0  0
   -3.2476    0.5178   -0.6577 N   0  0  0  0  0  0  0  0  0  0  0  0
   -0.6888   -0.8226   -1.3892 C   0  0  0  0  0  0  0  0  0  0  0  0
   -0.5595    0.6431   -1.6275 C   0  0  0  0  0  0  0  0  0  0  0  0
    6.8249   -0.0089    1.7358 C   0  0  0  0  0  0  0  0  0  0  0  0
    8.0855    0.3717    1.2652 C   0  0  0  0  0  0  0  0  0  0  0  0
    9.8684    0.9902   -1.0567 H   0  0  0  0  0  0  0  0  0  0  0  0
    9.5486    2.7095   -0.7107 H   0  0  0  0  0  0  0  0  0  0  0  0
   10.3072    1.6961    0.5228 H   0  0  0  0  0  0  0  0  0  0  0  0
    7.1153    2.6090   -1.1108 H   0  0  0  0  0  0  0  0  0  0  0  0
    4.8948    1.9342   -0.2863 H   0  0  0  0  0  0  0  0  0  0  0  0
    4.3456   -0.2339    2.6977 H   0  0  0  0  0  0  0  0  0  0  0  0
    3.6095    0.9909    1.6630 H   0  0  0  0  0  0  0  0  0  0  0  0
    4.2570   -1.8257    0.8983 H   0  0  0  0  0  0  0  0  0  0  0  0
    2.4662   -2.7654   -0.4048 H   0  0  0  0  0  0  0  0  0  0  0  0
    3.6561   -2.1673   -1.5787 H   0  0  0  0  0  0  0  0  0  0  0  0
    1.7480   -2.5221   -2.8989 H   0  0  0  0  0  0  0  0  0  0  0  0
    1.7700   -0.7917   -2.6699 H   0  0  0  0  0  0  0  0  0  0  0  0
   -0.7934   -5.1363   -1.2124 H   0  0  0  0  0  0  0  0  0  0  0  0
    0.6840   -4.6199   -0.3827 H   0  0  0  0  0  0  0  0  0  0  0  0
    0.6059   -4.6166   -2.1580 H   0  0  0  0  0  0  0  0  0  0  0  0
   -4.0207   -2.6684    0.0596 H   0  0  0  0  0  0  0  0  0  0  0  0
   -6.1568   -1.5999    0.6244 H   0  0  0  0  0  0  0  0  0  0  0  0
   -6.0989    3.0196    0.7418 H   0  0  0  0  0  0  0  0  0  0  0  0
   -6.5460    2.6249   -0.9374 H   0  0  0  0  0  0  0  0  0  0  0  0
   -8.3197    3.9944    0.1336 H   0  0  0  0  0  0  0  0  0  0  0  0
   -8.9306    2.3909   -0.2841 H   0  0  0  0  0  0  0  0  0  0  0  0
   -7.0424    2.3265    2.8803 H   0  0  0  0  0  0  0  0  0  0  0  0
   -8.5212    1.4652    3.3082 H   0  0  0  0  0  0  0  0  0  0  0  0
   -6.8751   -0.0751    2.2824 H   0  0  0  0  0  0  0  0  0  0  0  0
   -8.3418    0.0384    1.2856 H   0  0  0  0  0  0  0  0  0  0  0  0
    0.4125    0.9012   -2.0579 H   0  0  0  0  0  0  0  0  0  0  0  0
   -1.3169    0.9909   -2.3373 H   0  0  0  0  0  0  0  0  0  0  0  0
   -0.6557    1.1986   -0.6885 H   0  0  0  0  0  0  0  0  0  0  0  0
    6.7590   -0.7512    2.5280 H   0  0  0  0  0  0  0  0  0  0  0  0
    8.9752   -0.0855    1.6939 H   0  0  0  0  0  0  0  0  0  0  0  0
  1  2  1  0
  2  3  2  0
  3  4  1  0
  4  5  2  0
  5  6  1  0
  6  7  1  0
  7  8  1  0
  8  9  2  0
  8 10  1  0
 10 11  1  0
 11 12  1  0
 12 13  1  0
 13 14  1  0
 13 15  2  0
 15 16  1  0
 16 17  1  0
 17 18  2  0
 18 19  1  0
 19 20  2  0
 20 21  1  0
 21 22  1  0
 22 23  1  0
 23 24  1  0
 24 25  1  0
 25 26  1  0
 20 27  1  0
 27 28  2  0
 16 29  1  0
 29 30  1  0
  5 31  1  0
 31 32  2  0
 32  2  1  0
 29 12  2  0
 28 17  1  0
 26 21  1  0
  1 33  1  0
  1 34  1  0
  1 35  1  0
  3 36  1  0
  4 37  1  0
  6 38  1  0
  6 39  1  0
  7 40  1  0
 10 41  1  0
 10 42  1  0
 11 43  1  0
 11 44  1  0
 14 45  1  0
 14 46  1  0
 14 47  1  0
 18 48  1  0
 19 49  1  0
 22 50  1  0
 22 51  1  0
 23 52  1  0
 23 53  1  0
 25 54  1  0
 25 55  1  0
 26 56  1  0
 26 57  1  0
 30 58  1  0
 30 59  1  0
 30 60  1  0
 31 61  1  0
 32 62  1  0
M  END
$$$$
