
     RDKit          3D

 49 52  0  0  0  0  0  0  0  0999 V2000
    2.0709    1.3380   -1.9301 O   0  0  0  0  0  0  0  0  0  0  0  0
    2.5931    1.6459   -0.8606 C   0  0  0  0  0  0  0  0  0  0  0  0
    2.4330    3.0474   -0.2835 C   0  0  0  0  0  0  0  0  0  0  0  0
    0.6699    3.4602   -0.1170 S   0  0  0  0  0  0  0  0  0  0  0  0
    0.2063    2.2747    1.0521 C   0  0  0  0  0  0  0  0  0  0  0  0
    0.8687    1.9858    2.1429 N   0  0  0  0  0  0  0  0  0  0  0  0
    0.1613    1.0098    2.8045 N   0  0  0  0  0  0  0  0  0  0  0  0
   -0.9175    0.7177    2.0977 C   0  0  0  0  0  0  0  0  0  0  0  0
   -1.9403   -0.2431    2.4832 C   0  0  0  0  0  0  0  0  0  0  0  0
   -2.8038    0.0471    3.5398 C   0  0  0  0  0  0  0  0  0  0  0  0
   -3.7611   -0.8963    3.8792 C   0  0  0  0  0  0  0  0  0  0  0  0
   -3.9081   -2.0819    3.2467 N   0  0  0  0  0  0  0  0  0  0  0  0
   -3.0437   -2.3451    2.2444 C   0  0  0  0  0  0  0  0  0  0  0  0
   -2.0493   -1.4743    1.8354 C   0  0  0  0  0  0  0  0  0  0  0  0
   -0.9242    1.5048    0.9640 N   0  0  0  0  0  0  0  0  0  0  0  0
   -1.9276    1.5455   -0.0900 C   0  0  0  0  0  0  0  0  0  0  0  0
   -1.4998    0.7228   -1.3128 C   0  0  0  0  0  0  0  0  0  0  0  0
   -2.0604    1.2609   -2.6239 C   0  0  0  0  0  0  0  0  0  0  0  0
   -3.3573    0.5044   -2.7663 C   0  0  0  0  0  0  0  0  0  0  0  0
   -2.9652   -0.8575   -2.2360 C   0  0  0  0  0  0  0  0  0  0  0  0
   -2.0256   -0.6183   -1.1800 O   0  0  0  0  0  0  0  0  0  0  0  0
    3.3742    0.8201   -0.0731 N   0  0  0  0  0  0  0  0  0  0  0  0
    3.7162   -0.5358   -0.2992 C   0  0  0  0  0  0  0  0  0  0  0  0
    3.1774   -1.3046   -1.3348 C   0  0  0  0  0  0  0  0  0  0  0  0
    3.5544   -2.6440   -1.4991 C   0  0  0  0  0  0  0  0  0  0  0  0
    4.4753   -3.2296   -0.6344 C   0  0  0  0  0  0  0  0  0  0  0  0
    5.0179   -2.4820    0.4052 C   0  0  0  0  0  0  0  0  0  0  0  0
    4.6376   -1.1466    0.5744 C   0  0  0  0  0  0  0  0  0  0  0  0
    5.3464   -0.2623    1.8836 Cl  0  0  0  0  0  0  0  0  0  0  0  0
    2.9348    3.1528    0.6815 H   0  0  0  0  0  0  0  0  0  0  0  0
    2.9022    3.7508   -0.9801 H   0  0  0  0  0  0  0  0  0  0  0  0
   -2.7262    0.9782    4.0944 H   0  0  0  0  0  0  0  0  0  0  0  0
   -4.4522   -0.7209    4.6978 H   0  0  0  0  0  0  0  0  0  0  0  0
   -3.1694   -3.3102    1.7674 H   0  0  0  0  0  0  0  0  0  0  0  0
   -1.3695   -1.7621    1.0371 H   0  0  0  0  0  0  0  0  0  0  0  0
   -2.0681    2.6018   -0.3416 H   0  0  0  0  0  0  0  0  0  0  0  0
   -2.8738    1.1855    0.3297 H   0  0  0  0  0  0  0  0  0  0  0  0
   -0.4128    0.6457   -1.3756 H   0  0  0  0  0  0  0  0  0  0  0  0
   -2.1784    2.3454   -2.6618 H   0  0  0  0  0  0  0  0  0  0  0  0
   -1.3879    0.9725   -3.4393 H   0  0  0  0  0  0  0  0  0  0  0  0
   -3.7344    0.4683   -3.7921 H   0  0  0  0  0  0  0  0  0  0  0  0
   -4.1288    0.9515   -2.1274 H   0  0  0  0  0  0  0  0  0  0  0  0
   -2.4632   -1.4480   -3.0096 H   0  0  0  0  0  0  0  0  0  0  0  0
   -3.8168   -1.4307   -1.8539 H   0  0  0  0  0  0  0  0  0  0  0  0
    3.7586    1.2029    0.7861 H   0  0  0  0  0  0  0  0  0  0  0  0
    2.4382   -0.9005   -2.0228 H   0  0  0  0  0  0  0  0  0  0  0  0
    3.1150   -3.2376   -2.2963 H   0  0  0  0  0  0  0  0  0  0  0  0
    4.7669   -4.2700   -0.7666 H   0  0  0  0  0  0  0  0  0  0  0  0
    5.7470   -2.9394    1.0762 H   0  0  0  0  0  0  0  0  0  0  0  0
  1  2  2  0
  2  3  1  0
  3  4  1  0
  4  5  1  0
  5  6  2  0
  6  7  1  0
  7  8  2  0
  8  9  1  0
  9 10  2  0
 10 11  1  0
 11 12  2  0
 12 13  1  0
 13 14  2  0
  8 15  1  0
 15 16  1  0
 16 17  1  0
 17 18  1  0
 18 19  1  0
 19 20  1  0
 20 21  1  0
  2 22  1  0
 22 23  1  0
 23 24  2  0
 24 25  1  0
 25 26  2  0
 26 27  1  0
 27 28  2  0
 28 29  1  0
 15  5  1  0
 21 17  1  0
 28 23  1  0
 14  9  1  0
  3 30  1  0
  3 31  1  0
 10 32  1  0
 11 33  1  0
 13 34  1  0
 14 35  1  0
 16 36  1  0
 16 37  1  0
 17 38  1  0
 18 39  1  0
 18 40  1  0
 19 41  1  0
 19 42  1  0
 20 43  1  0
 20 44  1  0
 22 45  1  0
 24 46  1  0
 25 47  1  0
 26 48  1  0
 27 49  1  0
M  END
$$$$
