
     RDKit          3D

 49 52  0  0  0  0  0  0  0  0999 V2000
   -3.1362    1.9278   -2.7998 C   0  0  0  0  0  0  0  0  0  0  0  0
   -4.0055    2.1037   -1.5683 C   0  0  0  0  0  0  0  0  0  0  0  0
   -3.4755    1.3334   -0.4797 O   0  0  0  0  0  0  0  0  0  0  0  0
   -2.5176    1.9404    0.2704 C   0  0  0  0  0  0  0  0  0  0  0  0
   -2.1131    3.0860    0.1085 O   0  0  0  0  0  0  0  0  0  0  0  0
   -1.9786    1.0064    1.3296 C   0  0  0  0  0  0  0  0  0  0  0  0
   -0.9091    0.0701    0.8080 C   0  0  0  0  0  0  0  0  0  0  0  0
    0.3535    0.6878    0.6449 C   0  0  0  0  0  0  0  0  0  0  0  0
    1.4519   -0.0509    0.2537 C   0  0  0  0  0  0  0  0  0  0  0  0
    2.8006    0.5211    0.0592 C   0  0  0  0  0  0  0  0  0  0  0  0
    3.6883   -0.0401   -0.8751 C   0  0  0  0  0  0  0  0  0  0  0  0
    4.9675    0.4897   -1.0787 C   0  0  0  0  0  0  0  0  0  0  0  0
    5.4030    1.5950   -0.3506 C   0  0  0  0  0  0  0  0  0  0  0  0
    6.6708    2.0133   -0.6442 O   0  0  0  0  0  0  0  0  0  0  0  0
    7.1562    3.1433    0.0696 C   0  0  0  0  0  0  0  0  0  0  0  0
    4.5458    2.1634    0.5880 C   0  0  0  0  0  0  0  0  0  0  0  0
    3.2630    1.6307    0.7896 C   0  0  0  0  0  0  0  0  0  0  0  0
    1.3332   -1.3710    0.0307 N   0  0  0  0  0  0  0  0  0  0  0  0
    0.1442   -1.9733    0.1640 C   0  0  0  0  0  0  0  0  0  0  0  0
    0.1898   -3.3304   -0.0645 C   0  0  0  0  0  0  0  0  0  0  0  0
   -0.9363   -4.1332    0.0251 C   0  0  0  0  0  0  0  0  0  0  0  0
   -2.1734   -3.5750    0.3118 C   0  0  0  0  0  0  0  0  0  0  0  0
   -3.2839   -4.4367    0.3547 C   0  0  0  0  0  0  0  0  0  0  0  0
   -4.5615   -3.9512    0.5918 C   0  0  0  0  0  0  0  0  0  0  0  0
   -4.7359   -2.5933    0.7710 C   0  0  0  0  0  0  0  0  0  0  0  0
   -3.6286   -1.7338    0.7353 C   0  0  0  0  0  0  0  0  0  0  0  0
   -2.2921   -2.1742    0.5354 C   0  0  0  0  0  0  0  0  0  0  0  0
   -1.0757   -1.3330    0.5144 C   0  0  0  0  0  0  0  0  0  0  0  0
   -3.5606    2.4631   -3.6540 H   0  0  0  0  0  0  0  0  0  0  0  0
   -2.1222    2.3007   -2.6217 H   0  0  0  0  0  0  0  0  0  0  0  0
   -3.0448    0.8671   -3.0571 H   0  0  0  0  0  0  0  0  0  0  0  0
   -4.1095    3.1606   -1.2966 H   0  0  0  0  0  0  0  0  0  0  0  0
   -5.0121    1.7221   -1.7700 H   0  0  0  0  0  0  0  0  0  0  0  0
   -1.5319    1.6439    2.1076 H   0  0  0  0  0  0  0  0  0  0  0  0
   -2.7772    0.5132    1.8812 H   0  0  0  0  0  0  0  0  0  0  0  0
    0.4575    1.7560    0.8218 H   0  0  0  0  0  0  0  0  0  0  0  0
    3.3820   -0.9055   -1.4612 H   0  0  0  0  0  0  0  0  0  0  0  0
    5.6263    0.0315   -1.8119 H   0  0  0  0  0  0  0  0  0  0  0  0
    8.1715    3.3500   -0.2823 H   0  0  0  0  0  0  0  0  0  0  0  0
    7.2119    2.9375    1.1437 H   0  0  0  0  0  0  0  0  0  0  0  0
    6.5466    4.0303   -0.1329 H   0  0  0  0  0  0  0  0  0  0  0  0
    4.8406    3.0184    1.1868 H   0  0  0  0  0  0  0  0  0  0  0  0
    2.6355    2.0933    1.5479 H   0  0  0  0  0  0  0  0  0  0  0  0
    1.1440   -3.7912   -0.3148 H   0  0  0  0  0  0  0  0  0  0  0  0
   -0.8272   -5.2005   -0.1556 H   0  0  0  0  0  0  0  0  0  0  0  0
   -3.1606   -5.5062    0.1916 H   0  0  0  0  0  0  0  0  0  0  0  0
   -5.4118   -4.6265    0.6166 H   0  0  0  0  0  0  0  0  0  0  0  0
   -5.7318   -2.1870    0.9290 H   0  0  0  0  0  0  0  0  0  0  0  0
   -3.8709   -0.6872    0.8336 H   0  0  0  0  0  0  0  0  0  0  0  0
  1  2  1  0
  2  3  1  0
  3  4  1  0
  4  5  2  0
  4  6  1  0
  6  7  1  0
  7  8  2  0
  8  9  1  0
  9 10  1  0
 10 11  2  0
 11 12  1  0
 12 13  2  0
 13 14  1  0
 14 15  1  0
 13 16  1  0
 16 17  2  0
  9 18  2  0
 18 19  1  0
 19 20  2  0
 20 21  1  0
 21 22  2  0
 22 23  1  0
 23 24  2  0
 24 25  1  0
 25 26  2  0
 26 27  1  0
 27 28  2  0
 28  7  1  0
 17 10  1  0
 28 19  1  0
 27 22  1  0
  1 29  1  0
  1 30  1  0
  1 31  1  0
  2 32  1  0
  2 33  1  0
  6 34  1  0
  6 35  1  0
  8 36  1  0
 11 37  1  0
 12 38  1  0
 15 39  1  0
 15 40  1  0
 15 41  1  0
 16 42  1  0
 17 43  1  0
 20 44  1  0
 21 45  1  0
 23 46  1  0
 24 47  1  0
 25 48  1  0
 26 49  1  0
M  END
$$$$
