
     RDKit          3D

 53 56  0  0  0  0  0  0  0  0999 V2000
    4.5456   -4.2515    0.1209 C   0  0  0  0  0  0  0  0  0  0  0  0
    3.5235   -3.3155    0.4589 O   0  0  0  0  0  0  0  0  0  0  0  0
    3.3753   -2.2275   -0.3621 C   0  0  0  0  0  0  0  0  0  0  0  0
    4.1747   -1.9076   -1.4587 C   0  0  0  0  0  0  0  0  0  0  0  0
    3.9097   -0.7622   -2.2206 C   0  0  0  0  0  0  0  0  0  0  0  0
    2.8500    0.0854   -1.8883 C   0  0  0  0  0  0  0  0  0  0  0  0
    2.5087    1.2159   -2.5774 O   0  0  0  0  0  0  0  0  0  0  0  0
    3.2972    1.5603   -3.7047 C   0  0  0  0  0  0  0  0  0  0  0  0
    2.0498   -0.2167   -0.7727 C   0  0  0  0  0  0  0  0  0  0  0  0
    0.8847    0.6594   -0.3720 C   0  0  0  0  0  0  0  0  0  0  0  0
   -0.3456    0.2215   -1.0455 N   0  0  0  0  0  0  0  0  0  0  0  0
   -1.4676    0.9949   -0.6053 N   0  0  0  0  0  0  0  0  0  0  0  0
   -2.2254    0.6036    0.5026 C   0  0  0  0  0  0  0  0  0  0  0  0
   -1.8822   -0.6562    1.2110 C   0  0  0  0  0  0  0  0  0  0  0  0
   -1.8720   -1.8817    0.5394 C   0  0  0  0  0  0  0  0  0  0  0  0
   -1.5668   -3.0474    1.2413 C   0  0  0  0  0  0  0  0  0  0  0  0
   -1.2729   -2.9878    2.6080 C   0  0  0  0  0  0  0  0  0  0  0  0
   -1.2933   -1.7651    3.2926 C   0  0  0  0  0  0  0  0  0  0  0  0
   -0.9156   -1.7089    4.7476 C   0  0  0  0  0  0  0  0  0  0  0  0
   -1.6122   -0.5987    2.5861 C   0  0  0  0  0  0  0  0  0  0  0  0
   -3.2156    1.3109    0.9587 N   0  0  0  0  0  0  0  0  0  0  0  0
   -3.5544    2.4992    0.2982 C   0  0  0  0  0  0  0  0  0  0  0  0
   -4.6168    3.2591    0.7956 C   0  0  0  0  0  0  0  0  0  0  0  0
   -4.9912    4.4536    0.1727 C   0  0  0  0  0  0  0  0  0  0  0  0
   -4.3015    4.9024   -0.9571 C   0  0  0  0  0  0  0  0  0  0  0  0
   -3.2439    4.1518   -1.4667 C   0  0  0  0  0  0  0  0  0  0  0  0
   -2.8793    2.9555   -0.8357 C   0  0  0  0  0  0  0  0  0  0  0  0
   -1.7663    2.1414   -1.3486 C   0  0  0  0  0  0  0  0  0  0  0  0
   -1.1669    2.4769   -2.3714 O   0  0  0  0  0  0  0  0  0  0  0  0
    2.3153   -1.3837   -0.0293 C   0  0  0  0  0  0  0  0  0  0  0  0
    5.5374   -3.7830    0.1878 H   0  0  0  0  0  0  0  0  0  0  0  0
    4.5153   -5.0768    0.8560 H   0  0  0  0  0  0  0  0  0  0  0  0
    4.3692   -4.6883   -0.8788 H   0  0  0  0  0  0  0  0  0  0  0  0
    5.0136   -2.5274   -1.7529 H   0  0  0  0  0  0  0  0  0  0  0  0
    4.5545   -0.5623   -3.0705 H   0  0  0  0  0  0  0  0  0  0  0  0
    4.3433    1.7264   -3.4145 H   0  0  0  0  0  0  0  0  0  0  0  0
    2.9035    2.5036   -4.1082 H   0  0  0  0  0  0  0  0  0  0  0  0
    3.2185    0.7976   -4.4911 H   0  0  0  0  0  0  0  0  0  0  0  0
    0.7691    0.6093    0.7187 H   0  0  0  0  0  0  0  0  0  0  0  0
    1.1004    1.7123   -0.5973 H   0  0  0  0  0  0  0  0  0  0  0  0
   -0.2197    0.4439   -2.0413 H   0  0  0  0  0  0  0  0  0  0  0  0
   -2.0853   -1.9354   -0.5291 H   0  0  0  0  0  0  0  0  0  0  0  0
   -1.5575   -4.0032    0.7249 H   0  0  0  0  0  0  0  0  0  0  0  0
   -1.0219   -3.9050    3.1380 H   0  0  0  0  0  0  0  0  0  0  0  0
    0.1763   -1.7506    4.8471 H   0  0  0  0  0  0  0  0  0  0  0  0
   -1.3563   -2.5473    5.2971 H   0  0  0  0  0  0  0  0  0  0  0  0
   -1.2759   -0.7864    5.2179 H   0  0  0  0  0  0  0  0  0  0  0  0
   -1.6392    0.3585    3.0977 H   0  0  0  0  0  0  0  0  0  0  0  0
   -5.1575    2.9113    1.6770 H   0  0  0  0  0  0  0  0  0  0  0  0
   -5.8200    5.0326    0.5724 H   0  0  0  0  0  0  0  0  0  0  0  0
   -4.5913    5.8329   -1.4406 H   0  0  0  0  0  0  0  0  0  0  0  0
   -2.7048    4.4976   -2.3486 H   0  0  0  0  0  0  0  0  0  0  0  0
    1.6833   -1.6416    0.8209 H   0  0  0  0  0  0  0  0  0  0  0  0
  1  2  1  0
  2  3  1  0
  3  4  2  0
  4  5  1  0
  5  6  2  0
  6  7  1  0
  7  8  1  0
  6  9  1  0
  9 10  1  0
 10 11  1  0
 11 12  1  0
 12 13  1  0
 13 14  1  0
 14 15  2  0
 15 16  1  0
 16 17  2  0
 17 18  1  0
 18 19  1  0
 18 20  2  0
 13 21  2  0
 21 22  1  0
 22 23  2  0
 23 24  1  0
 24 25  2  0
 25 26  1  0
 26 27  2  0
 27 28  1  0
 28 29  2  0
  9 30  2  0
 30  3  1  0
 28 12  1  0
 20 14  1  0
 27 22  1  0
  1 31  1  0
  1 32  1  0
  1 33  1  0
  4 34  1  0
  5 35  1  0
  8 36  1  0
  8 37  1  0
  8 38  1  0
 10 39  1  0
 10 40  1  0
 11 41  1  0
 15 42  1  0
 16 43  1  0
 17 44  1  0
 19 45  1  0
 19 46  1  0
 19 47  1  0
 20 48  1  0
 23 49  1  0
 24 50  1  0
 25 51  1  0
 26 52  1  0
 30 53  1  0
M  END
$$$$
