
     RDKit          3D

 44 47  0  0  0  0  0  0  0  0999 V2000
   -6.3374    1.5282    0.9008 C   0  0  0  0  0  0  0  0  0  0  0  0
   -6.3234    0.4430   -0.1649 C   0  0  0  0  0  0  0  0  0  0  0  0
   -4.9521   -0.1577   -0.3361 C   0  0  0  0  0  0  0  0  0  0  0  0
   -4.0315    0.4069   -1.2245 C   0  0  0  0  0  0  0  0  0  0  0  0
   -2.7549   -0.1462   -1.3665 C   0  0  0  0  0  0  0  0  0  0  0  0
   -2.3739   -1.2700   -0.6237 C   0  0  0  0  0  0  0  0  0  0  0  0
   -1.0689   -1.7588   -0.8274 N   0  0  0  0  0  0  0  0  0  0  0  0
   -0.4622   -2.8501   -0.2246 C   0  0  0  0  0  0  0  0  0  0  0  0
   -0.9929   -3.6282    0.5649 O   0  0  0  0  0  0  0  0  0  0  0  0
    0.9773   -3.0764   -0.6940 C   0  0  0  0  0  0  0  0  0  0  0  0
    1.8655   -1.9948   -0.2743 N   0  0  0  0  0  0  0  0  0  0  0  0
    2.6361   -2.2342    0.8630 N   0  0  0  0  0  0  0  0  0  0  0  0
    3.4595   -1.3120    1.2660 C   0  0  0  0  0  0  0  0  0  0  0  0
    3.5911   -0.1102    0.5844 N   0  0  0  0  0  0  0  0  0  0  0  0
    2.8543    0.1569   -0.5365 C   0  0  0  0  0  0  0  0  0  0  0  0
    3.1986    1.4117   -0.9883 C   0  0  0  0  0  0  0  0  0  0  0  0
    4.1865    1.9277   -0.1058 C   0  0  0  0  0  0  0  0  0  0  0  0
    4.9050    3.1379   -0.0539 C   0  0  0  0  0  0  0  0  0  0  0  0
    5.8335    3.3432    0.9717 C   0  0  0  0  0  0  0  0  0  0  0  0
    6.0516    2.3647    1.9369 C   0  0  0  0  0  0  0  0  0  0  0  0
    5.3511    1.1547    1.9088 C   0  0  0  0  0  0  0  0  0  0  0  0
    4.4203    0.9569    0.8754 C   0  0  0  0  0  0  0  0  0  0  0  0
    1.9158   -0.8113   -1.0265 C   0  0  0  0  0  0  0  0  0  0  0  0
    1.1910   -0.6203   -2.0026 O   0  0  0  0  0  0  0  0  0  0  0  0
   -3.2893   -1.8286    0.2674 C   0  0  0  0  0  0  0  0  0  0  0  0
   -4.5672   -1.2756    0.4122 C   0  0  0  0  0  0  0  0  0  0  0  0
   -7.3460    1.9392    1.0079 H   0  0  0  0  0  0  0  0  0  0  0  0
   -6.0264    1.1338    1.8740 H   0  0  0  0  0  0  0  0  0  0  0  0
   -5.6626    2.3510    0.6394 H   0  0  0  0  0  0  0  0  0  0  0  0
   -6.6663    0.8573   -1.1210 H   0  0  0  0  0  0  0  0  0  0  0  0
   -7.0410   -0.3432    0.0991 H   0  0  0  0  0  0  0  0  0  0  0  0
   -4.3007    1.2812   -1.8130 H   0  0  0  0  0  0  0  0  0  0  0  0
   -2.0630    0.3163   -2.0670 H   0  0  0  0  0  0  0  0  0  0  0  0
   -0.5030   -1.2406   -1.5003 H   0  0  0  0  0  0  0  0  0  0  0  0
    0.9844   -3.1584   -1.7870 H   0  0  0  0  0  0  0  0  0  0  0  0
    1.3448   -4.0228   -0.2822 H   0  0  0  0  0  0  0  0  0  0  0  0
    4.0724   -1.4813    2.1646 H   0  0  0  0  0  0  0  0  0  0  0  0
    2.7832    1.9039   -1.8588 H   0  0  0  0  0  0  0  0  0  0  0  0
    4.7419    3.9077   -0.8029 H   0  0  0  0  0  0  0  0  0  0  0  0
    6.3888    4.2772    1.0134 H   0  0  0  0  0  0  0  0  0  0  0  0
    6.7784    2.5443    2.7266 H   0  0  0  0  0  0  0  0  0  0  0  0
    5.5330    0.4025    2.6702 H   0  0  0  0  0  0  0  0  0  0  0  0
   -3.0424   -2.6958    0.8713 H   0  0  0  0  0  0  0  0  0  0  0  0
   -5.2590   -1.7295    1.1187 H   0  0  0  0  0  0  0  0  0  0  0  0
  1  2  1  0
  2  3  1  0
  3  4  2  0
  4  5  1  0
  5  6  2  0
  6  7  1  0
  7  8  1  0
  8  9  2  0
  8 10  1  0
 10 11  1  0
 11 12  1  0
 12 13  2  0
 13 14  1  0
 14 15  1  0
 15 16  2  0
 16 17  1  0
 17 18  2  0
 18 19  1  0
 19 20  2  0
 20 21  1  0
 21 22  2  0
 15 23  1  0
 23 24  2  0
  6 25  1  0
 25 26  2  0
 26  3  1  0
 23 11  1  0
 22 14  1  0
 22 17  1  0
  1 27  1  0
  1 28  1  0
  1 29  1  0
  2 30  1  0
  2 31  1  0
  4 32  1  0
  5 33  1  0
  7 34  1  0
 10 35  1  0
 10 36  1  0
 13 37  1  0
 16 38  1  0
 18 39  1  0
 19 40  1  0
 20 41  1  0
 21 42  1  0
 25 43  1  0
 26 44  1  0
M  END
$$$$
