
     RDKit          3D

 70 75  0  0  0  0  0  0  0  0999 V2000
   -1.5816   -6.6252   -1.4899 C   0  0  0  0  0  0  0  0  0  0  0  0
   -1.3182   -5.1559   -1.6298 C   0  0  0  0  0  0  0  0  0  0  0  0
   -2.3167   -4.3120   -2.1264 C   0  0  0  0  0  0  0  0  0  0  0  0
   -2.0904   -2.9390   -2.2459 C   0  0  0  0  0  0  0  0  0  0  0  0
   -0.8615   -2.3810   -1.8681 C   0  0  0  0  0  0  0  0  0  0  0  0
   -0.6291   -0.8868   -1.9717 C   0  0  0  0  0  0  0  0  0  0  0  0
   -1.2247   -0.1485   -0.8579 N   0  0  0  0  0  0  0  0  0  0  0  0
   -2.5508    0.2873   -1.0075 C   0  0  0  0  0  0  0  0  0  0  0  0
   -3.1372    0.2858   -2.0921 O   0  0  0  0  0  0  0  0  0  0  0  0
   -3.2007    0.8691    0.2687 C   0  0  0  0  0  0  0  0  0  0  0  0
   -4.7290    0.9424    0.0994 C   0  0  0  0  0  0  0  0  0  0  0  0
   -5.4210    1.6346    1.2537 C   0  0  0  0  0  0  0  0  0  0  0  0
   -5.4082    3.0320    1.3573 C   0  0  0  0  0  0  0  0  0  0  0  0
   -6.0239    3.6646    2.4380 C   0  0  0  0  0  0  0  0  0  0  0  0
   -6.6569    2.9082    3.4225 C   0  0  0  0  0  0  0  0  0  0  0  0
   -6.6773    1.5183    3.3274 C   0  0  0  0  0  0  0  0  0  0  0  0
   -6.0626    0.8834    2.2480 C   0  0  0  0  0  0  0  0  0  0  0  0
   -2.8549    0.0370    1.4246 N   0  0  0  0  0  0  0  0  0  0  0  0
   -1.4682   -0.0858    1.5750 C   0  0  0  0  0  0  0  0  0  0  0  0
   -1.0388   -0.1467    2.8421 N   0  0  0  0  0  0  0  0  0  0  0  0
    0.2743   -0.3147    2.9996 C   0  0  0  0  0  0  0  0  0  0  0  0
    1.1854   -0.3733    2.0218 N   0  0  0  0  0  0  0  0  0  0  0  0
    0.7405   -0.2778    0.7486 C   0  0  0  0  0  0  0  0  0  0  0  0
    1.7252   -0.1340   -0.2587 N   0  0  0  0  0  0  0  0  0  0  0  0
    1.8520    1.3070   -0.6200 C   0  0  0  0  0  0  0  0  0  0  0  0
    3.2272    1.6351   -1.2457 C   0  0  0  0  0  0  0  0  0  0  0  0
    4.3202    1.3213   -0.3097 N   0  0  0  0  0  0  0  0  0  0  0  0
    5.5686    1.9109   -0.4166 C   0  0  0  0  0  0  0  0  0  0  0  0
    6.4847    1.8944    0.6482 C   0  0  0  0  0  0  0  0  0  0  0  0
    7.7511    2.4857    0.5504 C   0  0  0  0  0  0  0  0  0  0  0  0
    8.1357    3.1177   -0.6251 C   0  0  0  0  0  0  0  0  0  0  0  0
    7.2510    3.1598   -1.6952 C   0  0  0  0  0  0  0  0  0  0  0  0
    5.9863    2.5671   -1.5864 C   0  0  0  0  0  0  0  0  0  0  0  0
    4.0716    0.2150    0.6389 C   0  0  0  0  0  0  0  0  0  0  0  0
    3.0236   -0.7738    0.0805 C   0  0  0  0  0  0  0  0  0  0  0  0
   -0.6298   -0.1809    0.4564 C   0  0  0  0  0  0  0  0  0  0  0  0
    0.1341   -3.2296   -1.3679 C   0  0  0  0  0  0  0  0  0  0  0  0
   -0.0920   -4.6035   -1.2486 C   0  0  0  0  0  0  0  0  0  0  0  0
   -1.9131   -7.0441   -2.4454 H   0  0  0  0  0  0  0  0  0  0  0  0
   -0.6808   -7.1677   -1.1832 H   0  0  0  0  0  0  0  0  0  0  0  0
   -2.3552   -6.7977   -0.7347 H   0  0  0  0  0  0  0  0  0  0  0  0
   -3.2817   -4.7181   -2.4199 H   0  0  0  0  0  0  0  0  0  0  0  0
   -2.8853   -2.3043   -2.6339 H   0  0  0  0  0  0  0  0  0  0  0  0
   -1.0756   -0.5416   -2.9135 H   0  0  0  0  0  0  0  0  0  0  0  0
    0.4305   -0.6674   -2.0973 H   0  0  0  0  0  0  0  0  0  0  0  0
   -2.8001    1.8838    0.4039 H   0  0  0  0  0  0  0  0  0  0  0  0
   -5.1429   -0.0677   -0.0263 H   0  0  0  0  0  0  0  0  0  0  0  0
   -4.9875    1.4819   -0.8215 H   0  0  0  0  0  0  0  0  0  0  0  0
   -4.9209    3.6376    0.5967 H   0  0  0  0  0  0  0  0  0  0  0  0
   -6.0099    4.7485    2.5131 H   0  0  0  0  0  0  0  0  0  0  0  0
   -7.1346    3.4019    4.2643 H   0  0  0  0  0  0  0  0  0  0  0  0
   -7.1711    0.9274    4.0945 H   0  0  0  0  0  0  0  0  0  0  0  0
   -6.0829   -0.2031    2.1891 H   0  0  0  0  0  0  0  0  0  0  0  0
   -3.2464    0.3226    2.3191 H   0  0  0  0  0  0  0  0  0  0  0  0
    0.6409   -0.3959    4.0175 H   0  0  0  0  0  0  0  0  0  0  0  0
    1.0667    1.5761   -1.3359 H   0  0  0  0  0  0  0  0  0  0  0  0
    1.7235    1.9437    0.2679 H   0  0  0  0  0  0  0  0  0  0  0  0
    3.3626    1.0634   -2.1718 H   0  0  0  0  0  0  0  0  0  0  0  0
    3.2272    2.7027   -1.4958 H   0  0  0  0  0  0  0  0  0  0  0  0
    6.2168    1.4360    1.5964 H   0  0  0  0  0  0  0  0  0  0  0  0
    8.4299    2.4531    1.3983 H   0  0  0  0  0  0  0  0  0  0  0  0
    9.1178    3.5755   -0.7069 H   0  0  0  0  0  0  0  0  0  0  0  0
    7.5401    3.6493   -2.6213 H   0  0  0  0  0  0  0  0  0  0  0  0
    5.3392    2.6109   -2.4575 H   0  0  0  0  0  0  0  0  0  0  0  0
    3.7363    0.6338    1.5942 H   0  0  0  0  0  0  0  0  0  0  0  0
    4.9888   -0.3574    0.8216 H   0  0  0  0  0  0  0  0  0  0  0  0
    3.4161   -1.1987   -0.8532 H   0  0  0  0  0  0  0  0  0  0  0  0
    2.9014   -1.6302    0.7561 H   0  0  0  0  0  0  0  0  0  0  0  0
    1.0952   -2.8255   -1.0609 H   0  0  0  0  0  0  0  0  0  0  0  0
    0.6971   -5.2368   -0.8504 H   0  0  0  0  0  0  0  0  0  0  0  0
  1  2  1  0
  2  3  2  0
  3  4  1  0
  4  5  2  0
  5  6  1  0
  6  7  1  0
  7  8  1  0
  8  9  2  0
  8 10  1  0
 10 11  1  0
 11 12  1  0
 12 13  2  0
 13 14  1  0
 14 15  2  0
 15 16  1  0
 16 17  2  0
 10 18  1  0
 18 19  1  0
 19 20  2  0
 20 21  1  0
 21 22  2  0
 22 23  1  0
 23 24  1  0
 24 25  1  0
 25 26  1  0
 26 27  1  0
 27 28  1  0
 28 29  2  0
 29 30  1  0
 30 31  2  0
 31 32  1  0
 32 33  2  0
 27 34  1  0
 34 35  1  0
 23 36  2  0
  5 37  1  0
 37 38  2  0
 38  2  1  0
 36  7  1  0
 17 12  1  0
 36 19  1  0
 35 24  1  0
 33 28  1  0
  1 39  1  0
  1 40  1  0
  1 41  1  0
  3 42  1  0
  4 43  1  0
  6 44  1  0
  6 45  1  0
 10 46  1  0
 11 47  1  0
 11 48  1  0
 13 49  1  0
 14 50  1  0
 15 51  1  0
 16 52  1  0
 17 53  1  0
 18 54  1  0
 21 55  1  0
 25 56  1  0
 25 57  1  0
 26 58  1  0
 26 59  1  0
 29 60  1  0
 30 61  1  0
 31 62  1  0
 32 63  1  0
 33 64  1  0
 34 65  1  0
 34 66  1  0
 35 67  1  0
 35 68  1  0
 37 69  1  0
 38 70  1  0
M  END
$$$$
