
     RDKit          3D

 47 49  0  0  0  0  0  0  0  0999 V2000
    4.4528    2.6715   -3.3112 C   0  0  0  0  0  0  0  0  0  0  0  0
    3.1205    2.2779   -2.7342 C   0  0  0  0  0  0  0  0  0  0  0  0
    2.5260    3.0934   -1.7613 C   0  0  0  0  0  0  0  0  0  0  0  0
    1.2906    2.7597   -1.2037 C   0  0  0  0  0  0  0  0  0  0  0  0
    0.6132    1.6031   -1.6101 C   0  0  0  0  0  0  0  0  0  0  0  0
   -0.7187    1.2006   -1.0012 C   0  0  0  0  0  0  0  0  0  0  0  0
   -1.7494    2.3326   -1.0596 C   0  0  0  0  0  0  0  0  0  0  0  0
   -0.5017    0.7442    0.3618 N   0  0  0  0  0  0  0  0  0  0  0  0
   -1.4235   -0.0359    1.0236 C   0  0  0  0  0  0  0  0  0  0  0  0
   -2.4959   -0.3565    0.5252 O   0  0  0  0  0  0  0  0  0  0  0  0
   -1.0111   -0.4769    2.3401 C   0  0  0  0  0  0  0  0  0  0  0  0
   -1.3170   -1.7015    3.0170 C   0  0  0  0  0  0  0  0  0  0  0  0
   -2.0711   -2.8676    2.5529 C   0  0  0  0  0  0  0  0  0  0  0  0
   -2.9314   -3.5407    3.4345 C   0  0  0  0  0  0  0  0  0  0  0  0
   -3.6486   -4.6634    3.0137 C   0  0  0  0  0  0  0  0  0  0  0  0
   -3.5098   -5.1291    1.7083 C   0  0  0  0  0  0  0  0  0  0  0  0
   -2.6519   -4.4762    0.8253 C   0  0  0  0  0  0  0  0  0  0  0  0
   -1.9326   -3.3536    1.2458 C   0  0  0  0  0  0  0  0  0  0  0  0
   -0.7740   -1.7018    4.2471 N   0  0  0  0  0  0  0  0  0  0  0  0
   -0.1256   -0.5001    4.3916 O   0  0  0  0  0  0  0  0  0  0  0  0
   -0.2745    0.2389    3.2653 C   0  0  0  0  0  0  0  0  0  0  0  0
    0.3260    1.5872    3.3073 C   0  0  0  0  0  0  0  0  0  0  0  0
    1.2167    0.7792   -2.5732 C   0  0  0  0  0  0  0  0  0  0  0  0
    2.4627    1.1008   -3.1386 C   0  0  0  0  0  0  0  0  0  0  0  0
    3.0570    0.1872   -4.1761 C   0  0  0  0  0  0  0  0  0  0  0  0
    4.3917    2.7414   -4.4018 H   0  0  0  0  0  0  0  0  0  0  0  0
    4.7785    3.6492   -2.9400 H   0  0  0  0  0  0  0  0  0  0  0  0
    5.2170    1.9387   -3.0336 H   0  0  0  0  0  0  0  0  0  0  0  0
    3.0239    4.0023   -1.4294 H   0  0  0  0  0  0  0  0  0  0  0  0
    0.8651    3.4148   -0.4472 H   0  0  0  0  0  0  0  0  0  0  0  0
   -1.1308    0.3553   -1.5678 H   0  0  0  0  0  0  0  0  0  0  0  0
   -1.4712    3.1741   -0.4156 H   0  0  0  0  0  0  0  0  0  0  0  0
   -2.7324    1.9867   -0.7229 H   0  0  0  0  0  0  0  0  0  0  0  0
   -1.8609    2.7096   -2.0822 H   0  0  0  0  0  0  0  0  0  0  0  0
    0.4426    0.7865    0.7191 H   0  0  0  0  0  0  0  0  0  0  0  0
   -3.0496   -3.1911    4.4584 H   0  0  0  0  0  0  0  0  0  0  0  0
   -4.3140   -5.1719    3.7064 H   0  0  0  0  0  0  0  0  0  0  0  0
   -4.0690   -6.0010    1.3794 H   0  0  0  0  0  0  0  0  0  0  0  0
   -2.5419   -4.8392   -0.1933 H   0  0  0  0  0  0  0  0  0  0  0  0
   -1.2644   -2.8710    0.5379 H   0  0  0  0  0  0  0  0  0  0  0  0
    1.3005    1.5863    2.8098 H   0  0  0  0  0  0  0  0  0  0  0  0
   -0.3182    2.3185    2.8097 H   0  0  0  0  0  0  0  0  0  0  0  0
    0.4723    1.9223    4.3392 H   0  0  0  0  0  0  0  0  0  0  0  0
    0.7088   -0.1313   -2.8899 H   0  0  0  0  0  0  0  0  0  0  0  0
    2.4590   -0.7219   -4.3011 H   0  0  0  0  0  0  0  0  0  0  0  0
    4.0636   -0.1249   -3.8802 H   0  0  0  0  0  0  0  0  0  0  0  0
    3.1009    0.6937   -5.1455 H   0  0  0  0  0  0  0  0  0  0  0  0
  1  2  1  0
  2  3  2  0
  3  4  1  0
  4  5  2  0
  5  6  1  0
  6  7  1  0
  6  8  1  0
  8  9  1  0
  9 10  2  0
  9 11  1  0
 11 12  1  0
 12 13  1  0
 13 14  2  0
 14 15  1  0
 15 16  2  0
 16 17  1  0
 17 18  2  0
 12 19  2  0
 19 20  1  0
 20 21  1  0
 21 22  1  0
  5 23  1  0
 23 24  2  0
 24 25  1  0
 24  2  1  0
 21 11  2  0
 18 13  1  0
  1 26  1  0
  1 27  1  0
  1 28  1  0
  3 29  1  0
  4 30  1  0
  6 31  1  0
  7 32  1  0
  7 33  1  0
  7 34  1  0
  8 35  1  0
 14 36  1  0
 15 37  1  0
 16 38  1  0
 17 39  1  0
 18 40  1  0
 22 41  1  0
 22 42  1  0
 22 43  1  0
 23 44  1  0
 25 45  1  0
 25 46  1  0
 25 47  1  0
M  END
$$$$
