
     RDKit          3D

 53 56  0  0  0  0  0  0  0  0999 V2000
    4.7484    5.0178    3.0907 C   0  0  0  0  0  0  0  0  0  0  0  0
    4.1305    3.7697    2.8059 O   0  0  0  0  0  0  0  0  0  0  0  0
    4.3381    3.2442    1.5625 C   0  0  0  0  0  0  0  0  0  0  0  0
    5.1315    3.7957    0.5597 C   0  0  0  0  0  0  0  0  0  0  0  0
    5.2704    3.1475   -0.6745 C   0  0  0  0  0  0  0  0  0  0  0  0
    4.6211    1.9348   -0.9216 C   0  0  0  0  0  0  0  0  0  0  0  0
    4.7278    1.2227   -2.0878 O   0  0  0  0  0  0  0  0  0  0  0  0
    5.3412    1.8692   -3.1954 C   0  0  0  0  0  0  0  0  0  0  0  0
    3.8207    1.3789    0.0907 C   0  0  0  0  0  0  0  0  0  0  0  0
    3.1129    0.1296   -0.1051 C   0  0  0  0  0  0  0  0  0  0  0  0
    3.6338   -1.0915    0.2731 C   0  0  0  0  0  0  0  0  0  0  0  0
    2.5062   -2.3271   -0.0973 S   0  0  0  0  0  0  0  0  0  0  0  0
    1.4325   -1.1538   -0.7068 C   0  0  0  0  0  0  0  0  0  0  0  0
    0.2129   -1.4661   -1.2492 N   0  0  0  0  0  0  0  0  0  0  0  0
   -0.4030   -2.6955   -1.2510 C   0  0  0  0  0  0  0  0  0  0  0  0
   -0.0232   -3.7312   -0.7059 O   0  0  0  0  0  0  0  0  0  0  0  0
   -1.7167   -2.6906   -1.9926 C   0  0  0  0  0  0  0  0  0  0  0  0
   -2.7948   -2.3628   -1.0868 N   0  0  0  0  0  0  0  0  0  0  0  0
   -3.4441   -1.1496   -1.0641 C   0  0  0  0  0  0  0  0  0  0  0  0
   -3.0331   -0.1440   -1.8294 O   0  0  0  0  0  0  0  0  0  0  0  0
   -4.4905   -1.2568   -0.1731 C   0  0  0  0  0  0  0  0  0  0  0  0
   -4.4238   -2.5612    0.4026 C   0  0  0  0  0  0  0  0  0  0  0  0
   -3.3314   -3.2051   -0.1388 C   0  0  0  0  0  0  0  0  0  0  0  0
   -2.8386   -4.4083    0.1408 O   0  0  0  0  0  0  0  0  0  0  0  0
   -5.3684   -3.0398    1.4553 C   0  0  0  0  0  0  0  0  0  0  0  0
   -6.6268   -2.1564    1.5186 C   0  0  0  0  0  0  0  0  0  0  0  0
   -6.2724   -0.6598    1.4884 C   0  0  0  0  0  0  0  0  0  0  0  0
   -5.5514   -0.2697    0.1865 C   0  0  0  0  0  0  0  0  0  0  0  0
    1.8470    0.0924   -0.6629 N   0  0  0  0  0  0  0  0  0  0  0  0
    3.6814    2.0388    1.3211 C   0  0  0  0  0  0  0  0  0  0  0  0
    4.3854    5.8018    2.4173 H   0  0  0  0  0  0  0  0  0  0  0  0
    4.4732    5.3004    4.1092 H   0  0  0  0  0  0  0  0  0  0  0  0
    5.8366    4.9350    3.0501 H   0  0  0  0  0  0  0  0  0  0  0  0
    5.6611    4.7309    0.7024 H   0  0  0  0  0  0  0  0  0  0  0  0
    5.9056    3.6152   -1.4194 H   0  0  0  0  0  0  0  0  0  0  0  0
    6.3982    2.0626   -3.0021 H   0  0  0  0  0  0  0  0  0  0  0  0
    4.8114    2.7895   -3.4599 H   0  0  0  0  0  0  0  0  0  0  0  0
    5.2812    1.1937   -4.0501 H   0  0  0  0  0  0  0  0  0  0  0  0
    4.5885   -1.3113    0.7312 H   0  0  0  0  0  0  0  0  0  0  0  0
   -0.3000   -0.6507   -1.5628 H   0  0  0  0  0  0  0  0  0  0  0  0
   -1.9083   -3.6827   -2.4104 H   0  0  0  0  0  0  0  0  0  0  0  0
   -1.7007   -1.9864   -2.8297 H   0  0  0  0  0  0  0  0  0  0  0  0
   -3.6321    0.6051   -1.6515 H   0  0  0  0  0  0  0  0  0  0  0  0
   -1.8834   -4.4451   -0.0715 H   0  0  0  0  0  0  0  0  0  0  0  0
   -5.6600   -4.0812    1.2709 H   0  0  0  0  0  0  0  0  0  0  0  0
   -4.8571   -3.0067    2.4252 H   0  0  0  0  0  0  0  0  0  0  0  0
   -7.2796   -2.3876    0.6663 H   0  0  0  0  0  0  0  0  0  0  0  0
   -7.1929   -2.3887    2.4279 H   0  0  0  0  0  0  0  0  0  0  0  0
   -5.6297   -0.4239    2.3477 H   0  0  0  0  0  0  0  0  0  0  0  0
   -7.1824   -0.0574    1.5953 H   0  0  0  0  0  0  0  0  0  0  0  0
   -6.2823   -0.2317   -0.6316 H   0  0  0  0  0  0  0  0  0  0  0  0
   -5.1230    0.7348    0.2924 H   0  0  0  0  0  0  0  0  0  0  0  0
    3.0522    1.6123    2.0993 H   0  0  0  0  0  0  0  0  0  0  0  0
  1  2  1  0
  2  3  1  0
  3  4  2  0
  4  5  1  0
  5  6  2  0
  6  7  1  0
  7  8  1  0
  6  9  1  0
  9 10  1  0
 10 11  2  0
 11 12  1  0
 12 13  1  0
 13 14  1  0
 14 15  1  0
 15 16  2  0
 15 17  1  0
 17 18  1  0
 18 19  1  0
 19 20  1  0
 19 21  2  0
 21 22  1  0
 22 23  2  0
 23 24  1  0
 22 25  1  0
 25 26  1  0
 26 27  1  0
 27 28  1  0
 13 29  2  0
  9 30  2  0
 30  3  1  0
 29 10  1  0
 23 18  1  0
 28 21  1  0
  1 31  1  0
  1 32  1  0
  1 33  1  0
  4 34  1  0
  5 35  1  0
  8 36  1  0
  8 37  1  0
  8 38  1  0
 11 39  1  0
 14 40  1  0
 17 41  1  0
 17 42  1  0
 20 43  1  0
 24 44  1  0
 25 45  1  0
 25 46  1  0
 26 47  1  0
 26 48  1  0
 27 49  1  0
 27 50  1  0
 28 51  1  0
 28 52  1  0
 30 53  1  0
M  END
$$$$
