
     RDKit          3D

 50 53  0  0  0  0  0  0  0  0999 V2000
   -5.4827    3.7695   -0.3899 C   0  0  0  0  0  0  0  0  0  0  0  0
   -5.4950    2.3991   -0.7664 O   0  0  0  0  0  0  0  0  0  0  0  0
   -4.2338    1.8630   -0.9272 C   0  0  0  0  0  0  0  0  0  0  0  0
   -3.1657    2.6167   -0.7076 N   0  0  0  0  0  0  0  0  0  0  0  0
   -2.0133    1.9927   -0.8965 C   0  0  0  0  0  0  0  0  0  0  0  0
   -0.8441    2.7676   -0.6871 N   0  0  0  0  0  0  0  0  0  0  0  0
    0.2781    2.1294   -0.2112 N   0  0  0  0  0  0  0  0  0  0  0  0
    0.9556    1.5002   -1.1221 C   0  0  0  0  0  0  0  0  0  0  0  0
    2.1414    0.7534   -0.8060 C   0  0  0  0  0  0  0  0  0  0  0  0
    2.9773   -0.0030   -1.6038 C   0  0  0  0  0  0  0  0  0  0  0  0
    3.9908   -0.5174   -0.7572 C   0  0  0  0  0  0  0  0  0  0  0  0
    3.7278   -0.0304    0.5059 C   0  0  0  0  0  0  0  0  0  0  0  0
    4.3557   -0.1850    1.8094 C   0  0  0  0  0  0  0  0  0  0  0  0
    4.7730   -1.4652    2.2117 C   0  0  0  0  0  0  0  0  0  0  0  0
    5.3388   -1.6779    3.4747 C   0  0  0  0  0  0  0  0  0  0  0  0
    5.5010   -0.6156    4.3625 C   0  0  0  0  0  0  0  0  0  0  0  0
    5.1081    0.6666    3.9862 C   0  0  0  0  0  0  0  0  0  0  0  0
    4.5468    0.8706    2.7148 C   0  0  0  0  0  0  0  0  0  0  0  0
    4.2330    2.2414    2.3461 N   0  0  0  0  0  4  0  0  0  0  0  0
    3.4793    2.8691    3.1037 O   0  0  0  0  0  0  0  0  0  0  0  0
    4.8073    2.7082    1.3518 O   0  0  0  0  0  1  0  0  0  0  0  0
    2.5950    0.7254    0.4828 O   0  0  0  0  0  0  0  0  0  0  0  0
   -1.9073    0.7207   -1.2806 N   0  0  0  0  0  0  0  0  0  0  0  0
   -3.0342    0.0388   -1.4525 C   0  0  0  0  0  0  0  0  0  0  0  0
   -2.9496   -1.2999   -1.8540 N   0  0  0  0  0  0  0  0  0  0  0  0
   -4.1754   -2.0775   -1.6007 C   0  0  0  0  0  0  0  0  0  0  0  0
   -4.0135   -3.5062   -2.1416 C   0  0  0  0  0  0  0  0  0  0  0  0
   -2.8500   -4.1487   -1.5967 O   0  0  0  0  0  0  0  0  0  0  0  0
   -1.6718   -3.4074   -1.9487 C   0  0  0  0  0  0  0  0  0  0  0  0
   -1.7198   -1.9730   -1.4009 C   0  0  0  0  0  0  0  0  0  0  0  0
   -4.2293    0.5902   -1.2950 N   0  0  0  0  0  0  0  0  0  0  0  0
   -5.0024    3.9100    0.5847 H   0  0  0  0  0  0  0  0  0  0  0  0
   -6.5220    4.0997   -0.2978 H   0  0  0  0  0  0  0  0  0  0  0  0
   -5.0048    4.3891   -1.1568 H   0  0  0  0  0  0  0  0  0  0  0  0
   -1.1619    3.5437   -0.1062 H   0  0  0  0  0  0  0  0  0  0  0  0
    0.6435    1.5119   -2.1824 H   0  0  0  0  0  0  0  0  0  0  0  0
    2.8680   -0.1634   -2.6675 H   0  0  0  0  0  0  0  0  0  0  0  0
    4.8209   -1.1507   -1.0375 H   0  0  0  0  0  0  0  0  0  0  0  0
    4.6404   -2.3200    1.5502 H   0  0  0  0  0  0  0  0  0  0  0  0
    5.6452   -2.6802    3.7677 H   0  0  0  0  0  0  0  0  0  0  0  0
    5.9368   -0.7872    5.3443 H   0  0  0  0  0  0  0  0  0  0  0  0
    5.2468    1.4983    4.6741 H   0  0  0  0  0  0  0  0  0  0  0  0
   -4.3640   -2.1240   -0.5200 H   0  0  0  0  0  0  0  0  0  0  0  0
   -5.0451   -1.6262   -2.0930 H   0  0  0  0  0  0  0  0  0  0  0  0
   -4.8851   -4.1086   -1.8660 H   0  0  0  0  0  0  0  0  0  0  0  0
   -3.9407   -3.5067   -3.2359 H   0  0  0  0  0  0  0  0  0  0  0  0
   -0.8095   -3.9356   -1.5296 H   0  0  0  0  0  0  0  0  0  0  0  0
   -1.5640   -3.4076   -3.0402 H   0  0  0  0  0  0  0  0  0  0  0  0
   -0.8213   -1.4499   -1.7494 H   0  0  0  0  0  0  0  0  0  0  0  0
   -1.7044   -2.0077   -0.3036 H   0  0  0  0  0  0  0  0  0  0  0  0
  1  2  1  0
  2  3  1  0
  3  4  2  0
  4  5  1  0
  5  6  1  0
  6  7  1  0
  7  8  2  3
  8  9  1  0
  9 10  2  0
 10 11  1  0
 11 12  2  0
 12 13  1  0
 13 14  2  0
 14 15  1  0
 15 16  2  0
 16 17  1  0
 17 18  2  0
 18 19  1  0
 19 20  2  0
 19 21  1  0
 12 22  1  0
  5 23  2  0
 23 24  1  0
 24 25  1  0
 25 26  1  0
 26 27  1  0
 27 28  1  0
 28 29  1  0
 29 30  1  0
 24 31  2  0
 31  3  1  0
 22  9  1  0
 30 25  1  0
 18 13  1  0
  1 32  1  0
  1 33  1  0
  1 34  1  0
  6 35  1  0
  8 36  1  0
 10 37  1  0
 11 38  1  0
 14 39  1  0
 15 40  1  0
 16 41  1  0
 17 42  1  0
 26 43  1  0
 26 44  1  0
 27 45  1  0
 27 46  1  0
 29 47  1  0
 29 48  1  0
 30 49  1  0
 30 50  1  0
M  CHG  2  19   1  21  -1
M  END
$$$$
