
     RDKit          3D

 61 65  0  0  0  0  0  0  0  0999 V2000
   -9.8705    1.5977   -2.1751 C   0  0  0  0  0  0  0  0  0  0  0  0
   -9.6347    0.3833   -1.4740 O   0  0  0  0  0  0  0  0  0  0  0  0
   -8.3757    0.1895   -0.9778 C   0  0  0  0  0  0  0  0  0  0  0  0
   -7.2954    1.0594   -1.1149 C   0  0  0  0  0  0  0  0  0  0  0  0
   -6.0521    0.7345   -0.5566 C   0  0  0  0  0  0  0  0  0  0  0  0
   -5.8750   -0.4687    0.1431 C   0  0  0  0  0  0  0  0  0  0  0  0
   -4.5988   -0.7925    0.7080 N   0  0  0  0  0  0  0  0  0  0  0  0
   -4.3719   -1.5014    1.8878 C   0  0  0  0  0  0  0  0  0  0  0  0
   -5.3564   -2.0183    2.6213 O   0  0  0  0  0  0  0  0  0  0  0  0
   -3.0210   -1.4656    2.1571 C   0  0  0  0  0  0  0  0  0  0  0  0
   -2.3748   -0.7811    1.1046 C   0  0  0  0  0  0  0  0  0  0  0  0
   -1.0254   -0.5533    1.0297 N   0  0  0  0  0  0  0  0  0  0  0  0
   -0.1056   -1.6775    1.3318 C   0  0  0  0  0  0  0  0  0  0  0  0
    1.3175   -1.1735    1.6571 C   0  0  0  0  0  0  0  0  0  0  0  0
    1.8482   -0.3364    0.5575 N   0  0  0  0  0  0  0  0  0  0  0  0
    3.2045    0.0207    0.5961 C   0  0  0  0  0  0  0  0  0  0  0  0
    4.0049   -0.0875    1.7422 C   0  0  0  0  0  0  0  0  0  0  0  0
    5.3595    0.2685    1.7234 C   0  0  0  0  0  0  0  0  0  0  0  0
    5.9509    0.7211    0.5432 C   0  0  0  0  0  0  0  0  0  0  0  0
    7.3869    1.0912    0.5648 C   0  0  0  0  0  0  0  0  0  0  0  0
    7.8525    1.6276    1.5665 O   0  0  0  0  0  0  0  0  0  0  0  0
    8.2741    0.8247   -0.5874 C   0  0  0  0  0  0  0  0  0  0  0  0
    8.1144   -0.2746   -1.4335 C   0  0  0  0  0  0  0  0  0  0  0  0
    9.0058   -0.4566   -2.4895 C   0  0  0  0  0  0  0  0  0  0  0  0
   10.0300    0.4629   -2.6554 C   0  0  0  0  0  0  0  0  0  0  0  0
   10.2207    1.5266   -1.8455 N   0  0  0  0  0  0  0  0  0  0  0  0
    9.3453    1.6776   -0.8200 C   0  0  0  0  0  0  0  0  0  0  0  0
    5.1745    0.8500   -0.6083 C   0  0  0  0  0  0  0  0  0  0  0  0
    3.8215    0.4932   -0.5761 C   0  0  0  0  0  0  0  0  0  0  0  0
    0.9428    0.8081    0.2661 C   0  0  0  0  0  0  0  0  0  0  0  0
   -0.4944    0.3271   -0.0406 C   0  0  0  0  0  0  0  0  0  0  0  0
   -3.3493   -0.4280    0.1851 C   0  0  0  0  0  0  0  0  0  0  0  0
   -3.1933    0.0998   -1.0362 O   0  0  0  0  0  0  0  0  0  0  0  0
   -6.9657   -1.3303    0.2932 C   0  0  0  0  0  0  0  0  0  0  0  0
   -8.2028   -1.0018   -0.2710 C   0  0  0  0  0  0  0  0  0  0  0  0
   -9.7192    2.4652   -1.5243 H   0  0  0  0  0  0  0  0  0  0  0  0
  -10.9167    1.6008   -2.4959 H   0  0  0  0  0  0  0  0  0  0  0  0
   -9.2468    1.6624   -3.0728 H   0  0  0  0  0  0  0  0  0  0  0  0
   -7.3869    2.0062   -1.6370 H   0  0  0  0  0  0  0  0  0  0  0  0
   -5.2494    1.4654   -0.6367 H   0  0  0  0  0  0  0  0  0  0  0  0
   -4.9576   -2.3842    3.4306 H   0  0  0  0  0  0  0  0  0  0  0  0
   -2.5536   -1.8789    3.0391 H   0  0  0  0  0  0  0  0  0  0  0  0
   -0.4543   -2.2615    2.1904 H   0  0  0  0  0  0  0  0  0  0  0  0
   -0.0701   -2.3517    0.4663 H   0  0  0  0  0  0  0  0  0  0  0  0
    1.2842   -0.5952    2.5899 H   0  0  0  0  0  0  0  0  0  0  0  0
    1.9602   -2.0487    1.8118 H   0  0  0  0  0  0  0  0  0  0  0  0
    3.5911   -0.4301    2.6857 H   0  0  0  0  0  0  0  0  0  0  0  0
    5.9481    0.1900    2.6354 H   0  0  0  0  0  0  0  0  0  0  0  0
    7.3221   -1.0008   -1.2753 H   0  0  0  0  0  0  0  0  0  0  0  0
    8.9095   -1.3011   -3.1633 H   0  0  0  0  0  0  0  0  0  0  0  0
   10.7491    0.3620   -3.4638 H   0  0  0  0  0  0  0  0  0  0  0  0
    9.5356    2.5335   -0.1765 H   0  0  0  0  0  0  0  0  0  0  0  0
    5.5939    1.2327   -1.5345 H   0  0  0  0  0  0  0  0  0  0  0  0
    3.2423    0.5698   -1.4939 H   0  0  0  0  0  0  0  0  0  0  0  0
    1.2895    1.3889   -0.5963 H   0  0  0  0  0  0  0  0  0  0  0  0
    0.9235    1.4824    1.1329 H   0  0  0  0  0  0  0  0  0  0  0  0
   -1.1154    1.2246   -0.1443 H   0  0  0  0  0  0  0  0  0  0  0  0
   -0.4988   -0.2146   -0.9949 H   0  0  0  0  0  0  0  0  0  0  0  0
   -3.9538   -0.1697   -1.5814 H   0  0  0  0  0  0  0  0  0  0  0  0
   -6.8769   -2.2787    0.8158 H   0  0  0  0  0  0  0  0  0  0  0  0
   -9.0411   -1.6853   -0.1562 H   0  0  0  0  0  0  0  0  0  0  0  0
  1  2  1  0
  2  3  1  0
  3  4  2  0
  4  5  1  0
  5  6  2  0
  6  7  1  0
  7  8  1  0
  8  9  1  0
  8 10  2  0
 10 11  1  0
 11 12  1  0
 12 13  1  0
 13 14  1  0
 14 15  1  0
 15 16  1  0
 16 17  2  0
 17 18  1  0
 18 19  2  0
 19 20  1  0
 20 21  2  0
 20 22  1  0
 22 23  2  0
 23 24  1  0
 24 25  2  0
 25 26  1  0
 26 27  2  0
 19 28  1  0
 28 29  2  0
 15 30  1  0
 30 31  1  0
 11 32  2  0
 32 33  1  0
  6 34  1  0
 34 35  2  0
 35  3  1  0
 32  7  1  0
 31 12  1  0
 29 16  1  0
 27 22  1  0
  1 36  1  0
  1 37  1  0
  1 38  1  0
  4 39  1  0
  5 40  1  0
  9 41  1  0
 10 42  1  0
 13 43  1  0
 13 44  1  0
 14 45  1  0
 14 46  1  0
 17 47  1  0
 18 48  1  0
 23 49  1  0
 24 50  1  0
 25 51  1  0
 27 52  1  0
 28 53  1  0
 29 54  1  0
 30 55  1  0
 30 56  1  0
 31 57  1  0
 31 58  1  0
 33 59  1  0
 34 60  1  0
 35 61  1  0
M  END
$$$$
