
     RDKit          3D

 49 52  0  0  0  0  0  0  0  0999 V2000
    8.1928   -1.1649    1.2199 C   0  0  0  0  0  0  0  0  0  0  0  0
    7.3838   -0.1869    0.4961 N   0  0  0  0  0  0  0  0  0  0  0  0
    8.0789    0.5717   -0.5410 C   0  0  0  0  0  0  0  0  0  0  0  0
    6.0051   -0.3985    0.3831 C   0  0  0  0  0  0  0  0  0  0  0  0
    5.2171    0.2694   -0.5703 C   0  0  0  0  0  0  0  0  0  0  0  0
    3.8314    0.0684   -0.6774 C   0  0  0  0  0  0  0  0  0  0  0  0
    3.1721   -0.7969    0.1907 C   0  0  0  0  0  0  0  0  0  0  0  0
    1.7374   -1.0758    0.0800 C   0  0  0  0  0  0  0  0  0  0  0  0
    0.7285   -0.1933    0.1247 C   0  0  0  0  0  0  0  0  0  0  0  0
   -0.6509   -0.5440    0.0094 C   0  0  0  0  0  0  0  0  0  0  0  0
   -1.3288    0.5972    0.1165 C   0  0  0  0  0  0  0  0  0  0  0  0
   -2.7854    0.7967    0.0551 C   0  0  0  0  0  0  0  0  0  0  0  0
   -3.3135    2.0765   -0.1792 C   0  0  0  0  0  0  0  0  0  0  0  0
   -4.6939    2.2931   -0.2316 C   0  0  0  0  0  0  0  0  0  0  0  0
   -5.5745    1.2261   -0.0595 C   0  0  0  0  0  0  0  0  0  0  0  0
   -5.0681   -0.0592    0.1829 C   0  0  0  0  0  0  0  0  0  0  0  0
   -3.6835   -0.2656    0.2478 C   0  0  0  0  0  0  0  0  0  0  0  0
   -6.0505   -1.1738    0.4276 C   0  0  0  0  0  0  0  0  0  0  0  0
   -7.2118   -1.1156   -0.5665 C   0  0  0  0  0  0  0  0  0  0  0  0
   -7.7632    0.2928   -0.8363 C   0  0  0  0  0  0  0  0  0  0  0  0
   -7.0674    1.4158   -0.0649 C   0  0  0  0  0  0  0  0  0  0  0  0
   -0.5271    1.7422    0.2967 O   0  0  0  0  0  0  0  0  0  0  0  0
    0.7760    1.2871    0.3135 C   0  0  0  0  0  0  0  0  0  0  0  0
    1.7541    1.9978    0.4529 O   0  0  0  0  0  0  0  0  0  0  0  0
    3.9257   -1.4707    1.1498 C   0  0  0  0  0  0  0  0  0  0  0  0
    5.3111   -1.2650    1.2454 C   0  0  0  0  0  0  0  0  0  0  0  0
    8.0893   -2.1637    0.7813 H   0  0  0  0  0  0  0  0  0  0  0  0
    9.2565   -0.9027    1.1919 H   0  0  0  0  0  0  0  0  0  0  0  0
    7.9195   -1.1983    2.2799 H   0  0  0  0  0  0  0  0  0  0  0  0
    7.6769    1.5869   -0.6278 H   0  0  0  0  0  0  0  0  0  0  0  0
    8.0133    0.0646   -1.5100 H   0  0  0  0  0  0  0  0  0  0  0  0
    9.1415    0.6904   -0.3007 H   0  0  0  0  0  0  0  0  0  0  0  0
    5.6587    0.9757   -1.2664 H   0  0  0  0  0  0  0  0  0  0  0  0
    3.2836    0.6119   -1.4432 H   0  0  0  0  0  0  0  0  0  0  0  0
    1.5103   -2.1345   -0.0349 H   0  0  0  0  0  0  0  0  0  0  0  0
   -1.0397   -1.5363   -0.1450 H   0  0  0  0  0  0  0  0  0  0  0  0
   -2.6524    2.9292   -0.3236 H   0  0  0  0  0  0  0  0  0  0  0  0
   -5.0696    3.2985   -0.4051 H   0  0  0  0  0  0  0  0  0  0  0  0
   -3.3167   -1.2658    0.4629 H   0  0  0  0  0  0  0  0  0  0  0  0
   -5.5601   -2.1510    0.3489 H   0  0  0  0  0  0  0  0  0  0  0  0
   -6.4289   -1.0844    1.4534 H   0  0  0  0  0  0  0  0  0  0  0  0
   -8.0196   -1.7717   -0.2205 H   0  0  0  0  0  0  0  0  0  0  0  0
   -6.8765   -1.5368   -1.5240 H   0  0  0  0  0  0  0  0  0  0  0  0
   -8.8389    0.3184   -0.6246 H   0  0  0  0  0  0  0  0  0  0  0  0
   -7.6672    0.4935   -1.9120 H   0  0  0  0  0  0  0  0  0  0  0  0
   -7.4198    1.4327    0.9739 H   0  0  0  0  0  0  0  0  0  0  0  0
   -7.3368    2.3793   -0.5130 H   0  0  0  0  0  0  0  0  0  0  0  0
    3.4497   -2.1570    1.8458 H   0  0  0  0  0  0  0  0  0  0  0  0
    5.8315   -1.8036    2.0311 H   0  0  0  0  0  0  0  0  0  0  0  0
  1  2  1  0
  2  3  1  0
  2  4  1  0
  4  5  2  0
  5  6  1  0
  6  7  2  0
  7  8  1  0
  8  9  2  3
  9 10  1  0
 10 11  2  0
 11 12  1  0
 12 13  2  0
 13 14  1  0
 14 15  2  0
 15 16  1  0
 16 17  2  0
 16 18  1  0
 18 19  1  0
 19 20  1  0
 20 21  1  0
 11 22  1  0
 22 23  1  0
 23 24  2  0
  7 25  1  0
 25 26  2  0
 26  4  1  0
 23  9  1  0
 17 12  1  0
 21 15  1  0
  1 27  1  0
  1 28  1  0
  1 29  1  0
  3 30  1  0
  3 31  1  0
  3 32  1  0
  5 33  1  0
  6 34  1  0
  8 35  1  0
 10 36  1  0
 13 37  1  0
 14 38  1  0
 17 39  1  0
 18 40  1  0
 18 41  1  0
 19 42  1  0
 19 43  1  0
 20 44  1  0
 20 45  1  0
 21 46  1  0
 21 47  1  0
 25 48  1  0
 26 49  1  0
M  END
$$$$
