
     RDKit          3D

 65 69  0  0  0  0  0  0  0  0999 V2000
    5.4098    0.4059   -1.9327 C   0  0  0  0  0  0  0  0  0  0  0  0
    4.6577   -0.7745   -2.2192 O   0  0  0  0  0  0  0  0  0  0  0  0
    3.3634   -0.6231   -1.7944 C   0  0  0  0  0  0  0  0  0  0  0  0
    2.4676    0.0815   -2.5988 C   0  0  0  0  0  0  0  0  0  0  0  0
    1.1331    0.2178   -2.2134 C   0  0  0  0  0  0  0  0  0  0  0  0
    0.6716   -0.3680   -1.0263 C   0  0  0  0  0  0  0  0  0  0  0  0
   -0.7805   -0.2642   -0.5609 C   0  0  0  0  0  0  0  0  0  0  0  0
   -1.6606   -1.2933   -1.2906 C   0  0  0  0  0  0  0  0  0  0  0  0
   -1.8091   -1.0310   -2.7329 C   0  0  0  0  0  0  0  0  0  0  0  0
   -1.9265   -0.7832   -3.8607 N   0  0  0  0  0  0  0  0  0  0  0  0
   -3.0563   -1.2766   -0.6787 C   0  0  0  0  0  0  0  0  0  0  0  0
   -3.7020   -2.4042   -0.5700 N   0  0  0  0  0  0  0  0  0  0  0  0
   -3.6006   -0.0385   -0.2850 N   0  0  0  0  0  0  0  0  0  0  0  0
   -4.9619   -0.0734    0.1784 C   0  0  0  0  0  0  0  0  0  0  0  0
   -5.9907    0.3373   -0.6898 C   0  0  0  0  0  0  0  0  0  0  0  0
   -7.3232    0.3128   -0.2746 C   0  0  0  0  0  0  0  0  0  0  0  0
   -7.6464   -0.1232    1.0086 C   0  0  0  0  0  0  0  0  0  0  0  0
   -6.6383   -0.5386    1.8805 C   0  0  0  0  0  0  0  0  0  0  0  0
   -5.2967   -0.5191    1.4732 C   0  0  0  0  0  0  0  0  0  0  0  0
   -4.2807   -0.9351    2.3969 C   0  0  0  0  0  0  0  0  0  0  0  0
   -3.4569   -1.2496    3.1528 N   0  0  0  0  0  0  0  0  0  0  0  0
   -2.8723    1.1765   -0.2160 C   0  0  0  0  0  0  0  0  0  0  0  0
   -3.3736    2.3482    0.2456 C   0  0  0  0  0  0  0  0  0  0  0  0
   -2.6122    3.6368    0.4248 C   0  0  0  0  0  0  0  0  0  0  0  0
   -1.1531    3.5871    0.0027 C   0  0  0  0  0  0  0  0  0  0  0  0
   -0.6584    2.1765    0.1826 C   0  0  0  0  0  0  0  0  0  0  0  0
    0.2505    1.9097    0.9642 O   0  0  0  0  0  0  0  0  0  0  0  0
   -1.4047    1.1419   -0.6630 C   0  0  0  0  0  0  0  0  0  0  0  0
    1.5839   -1.0988   -0.2423 C   0  0  0  0  0  0  0  0  0  0  0  0
    2.9336   -1.2393   -0.6146 C   0  0  0  0  0  0  0  0  0  0  0  0
    3.8818   -2.0201    0.2703 C   0  0  0  0  0  0  0  0  0  0  0  0
    4.6592   -1.1742    1.1828 N   0  0  0  0  0  0  0  0  0  0  0  0
    5.6610   -1.9467    1.9176 C   0  0  0  0  0  0  0  0  0  0  0  0
    6.0889   -0.9905    3.0189 C   0  0  0  0  0  0  0  0  0  0  0  0
    4.8882   -0.0777    3.2395 C   0  0  0  0  0  0  0  0  0  0  0  0
    3.8524   -0.5216    2.2159 C   0  0  0  0  0  0  0  0  0  0  0  0
    6.4602    0.1941   -2.1512 H   0  0  0  0  0  0  0  0  0  0  0  0
    5.0942    1.2366   -2.5718 H   0  0  0  0  0  0  0  0  0  0  0  0
    5.3344    0.6922   -0.8788 H   0  0  0  0  0  0  0  0  0  0  0  0
    2.8079    0.5197   -3.5330 H   0  0  0  0  0  0  0  0  0  0  0  0
    0.4730    0.7764   -2.8722 H   0  0  0  0  0  0  0  0  0  0  0  0
   -0.7897   -0.5306    0.5084 H   0  0  0  0  0  0  0  0  0  0  0  0
   -1.2317   -2.2951   -1.1559 H   0  0  0  0  0  0  0  0  0  0  0  0
   -3.1630   -3.2051   -0.9171 H   0  0  0  0  0  0  0  0  0  0  0  0
   -5.7511    0.6655   -1.6986 H   0  0  0  0  0  0  0  0  0  0  0  0
   -8.1102    0.6256   -0.9567 H   0  0  0  0  0  0  0  0  0  0  0  0
   -8.6859   -0.1473    1.3286 H   0  0  0  0  0  0  0  0  0  0  0  0
   -6.9055   -0.8797    2.8792 H   0  0  0  0  0  0  0  0  0  0  0  0
   -4.4076    2.4152    0.5779 H   0  0  0  0  0  0  0  0  0  0  0  0
   -3.1215    4.4395   -0.1214 H   0  0  0  0  0  0  0  0  0  0  0  0
   -2.6630    3.9025    1.4884 H   0  0  0  0  0  0  0  0  0  0  0  0
   -1.0354    3.8600   -1.0516 H   0  0  0  0  0  0  0  0  0  0  0  0
   -0.5476    4.2805    0.5947 H   0  0  0  0  0  0  0  0  0  0  0  0
   -1.3631    1.4928   -1.7024 H   0  0  0  0  0  0  0  0  0  0  0  0
    1.2494   -1.5554    0.6890 H   0  0  0  0  0  0  0  0  0  0  0  0
    3.3191   -2.7837    0.8250 H   0  0  0  0  0  0  0  0  0  0  0  0
    4.5648   -2.5822   -0.3806 H   0  0  0  0  0  0  0  0  0  0  0  0
    6.5067   -2.2345    1.2849 H   0  0  0  0  0  0  0  0  0  0  0  0
    5.2296   -2.8539    2.3595 H   0  0  0  0  0  0  0  0  0  0  0  0
    6.9533   -0.3948    2.7031 H   0  0  0  0  0  0  0  0  0  0  0  0
    6.3666   -1.5253    3.9326 H   0  0  0  0  0  0  0  0  0  0  0  0
    5.1790    0.9661    3.0740 H   0  0  0  0  0  0  0  0  0  0  0  0
    4.4997   -0.1601    4.2596 H   0  0  0  0  0  0  0  0  0  0  0  0
    3.2900    0.3356    1.8316 H   0  0  0  0  0  0  0  0  0  0  0  0
    3.1498   -1.2223    2.6841 H   0  0  0  0  0  0  0  0  0  0  0  0
  1  2  1  0
  2  3  1  0
  3  4  2  0
  4  5  1  0
  5  6  2  0
  6  7  1  0
  7  8  1  0
  8  9  1  0
  9 10  3  0
  8 11  1  0
 11 12  2  3
 11 13  1  0
 13 14  1  0
 14 15  2  0
 15 16  1  0
 16 17  2  0
 17 18  1  0
 18 19  2  0
 19 20  1  0
 20 21  3  0
 13 22  1  0
 22 23  2  0
 23 24  1  0
 24 25  1  0
 25 26  1  0
 26 27  2  0
 26 28  1  0
  6 29  1  0
 29 30  2  0
 30 31  1  0
 31 32  1  0
 32 33  1  0
 33 34  1  0
 34 35  1  0
 35 36  1  0
 30  3  1  0
 36 32  1  0
 28  7  1  0
 19 14  1  0
 28 22  1  0
  1 37  1  0
  1 38  1  0
  1 39  1  0
  4 40  1  0
  5 41  1  0
  7 42  1  0
  8 43  1  0
 12 44  1  0
 15 45  1  0
 16 46  1  0
 17 47  1  0
 18 48  1  0
 23 49  1  0
 24 50  1  0
 24 51  1  0
 25 52  1  0
 25 53  1  0
 28 54  1  0
 29 55  1  0
 31 56  1  0
 31 57  1  0
 33 58  1  0
 33 59  1  0
 34 60  1  0
 34 61  1  0
 35 62  1  0
 35 63  1  0
 36 64  1  0
 36 65  1  0
M  END
$$$$
