
     RDKit          3D

 55 57  0  0  0  0  0  0  0  0999 V2000
   -2.8860   -2.7805    3.5592 C   0  0  0  0  0  0  0  0  0  0  0  0
   -1.7513   -1.7534    3.6829 C   0  0  0  0  0  0  0  0  0  0  0  0
   -0.4295   -2.4952    3.9258 C   0  0  0  0  0  0  0  0  0  0  0  0
   -1.6735   -0.8607    2.4294 C   0  0  0  0  0  0  0  0  0  0  0  0
   -2.9354   -0.1059    2.2779 N   0  0  0  0  0  0  0  0  0  0  0  0
   -3.6992   -0.0354    0.7960 S   0  0  0  0  0  6  0  0  0  0  0  0
   -3.9542   -1.3996    0.3924 O   0  0  0  0  0  0  0  0  0  0  0  0
   -4.7498    0.9471    0.9093 O   0  0  0  0  0  0  0  0  0  0  0  0
   -2.4605    0.6278   -0.2866 C   0  0  0  0  0  0  0  0  0  0  0  0
   -2.0421   -0.1080   -1.4010 C   0  0  0  0  0  0  0  0  0  0  0  0
   -1.0518    0.4089   -2.2374 C   0  0  0  0  0  0  0  0  0  0  0  0
   -0.4789    1.6449   -1.9519 C   0  0  0  0  0  0  0  0  0  0  0  0
   -0.9248    2.3890   -0.8521 C   0  0  0  0  0  0  0  0  0  0  0  0
   -1.9155    1.8832   -0.0129 C   0  0  0  0  0  0  0  0  0  0  0  0
   -0.4206    3.6208   -0.5311 O   0  0  0  0  0  0  0  0  0  0  0  0
    0.2748    4.1998   -1.6423 C   0  0  0  0  0  0  0  0  0  0  0  0
    1.2274    3.1899   -2.2623 C   0  0  0  0  0  0  0  0  0  0  0  0
    0.5088    2.0732   -2.8006 O   0  0  0  0  0  0  0  0  0  0  0  0
   -0.5684    0.1907    2.5729 C   0  0  0  0  0  0  0  0  0  0  0  0
   -0.6793    1.2106    3.2411 O   0  0  0  0  0  0  0  0  0  0  0  0
    0.5280   -0.1555    1.8471 O   0  0  0  0  0  0  0  0  0  0  0  0
    1.6011    0.8004    1.8705 C   0  0  0  0  0  0  0  0  0  0  0  0
    2.4435    0.6969    0.5969 C   0  0  0  0  0  0  0  0  0  0  0  0
    3.3324    1.5048    0.3591 O   0  0  0  0  0  0  0  0  0  0  0  0
    2.0890   -0.3805   -0.1878 N   0  0  0  0  0  0  0  0  0  0  0  0
    2.5879   -0.7777   -1.4473 C   0  0  0  0  0  0  0  0  0  0  0  0
    3.5907   -0.0803   -2.1250 C   0  0  0  0  0  0  0  0  0  0  0  0
    4.0309   -0.5129   -3.3775 C   0  0  0  0  0  0  0  0  0  0  0  0
    3.4749   -1.6492   -3.9644 C   0  0  0  0  0  0  0  0  0  0  0  0
    2.4753   -2.3604   -3.3003 C   0  0  0  0  0  0  0  0  0  0  0  0
    1.8305   -3.7582   -4.0883 Cl  0  0  0  0  0  0  0  0  0  0  0  0
    2.0299   -1.9303   -2.0439 C   0  0  0  0  0  0  0  0  0  0  0  0
    0.7844   -2.8037   -1.1918 Cl  0  0  0  0  0  0  0  0  0  0  0  0
   -2.9253   -3.4256    4.4460 H   0  0  0  0  0  0  0  0  0  0  0  0
   -3.8610   -2.2904    3.4735 H   0  0  0  0  0  0  0  0  0  0  0  0
   -2.7466   -3.4190    2.6789 H   0  0  0  0  0  0  0  0  0  0  0  0
   -1.9513   -1.1308    4.5653 H   0  0  0  0  0  0  0  0  0  0  0  0
    0.3809   -1.7976    4.1588 H   0  0  0  0  0  0  0  0  0  0  0  0
   -0.1360   -3.0783    3.0475 H   0  0  0  0  0  0  0  0  0  0  0  0
   -0.5161   -3.1826    4.7730 H   0  0  0  0  0  0  0  0  0  0  0  0
   -1.4838   -1.4734    1.5418 H   0  0  0  0  0  0  0  0  0  0  0  0
   -3.0765    0.7067    2.8844 H   0  0  0  0  0  0  0  0  0  0  0  0
   -2.4818   -1.0765   -1.6296 H   0  0  0  0  0  0  0  0  0  0  0  0
   -0.7217   -0.1551   -3.1057 H   0  0  0  0  0  0  0  0  0  0  0  0
   -2.2577    2.4695    0.8345 H   0  0  0  0  0  0  0  0  0  0  0  0
    0.8295    5.0700   -1.2727 H   0  0  0  0  0  0  0  0  0  0  0  0
   -0.4668    4.5553   -2.3726 H   0  0  0  0  0  0  0  0  0  0  0  0
    1.9480    2.8151   -1.5274 H   0  0  0  0  0  0  0  0  0  0  0  0
    1.7883    3.6511   -3.0818 H   0  0  0  0  0  0  0  0  0  0  0  0
    1.2247    1.8306    1.9303 H   0  0  0  0  0  0  0  0  0  0  0  0
    2.2477    0.5690    2.7184 H   0  0  0  0  0  0  0  0  0  0  0  0
    1.3332   -0.9561    0.1790 H   0  0  0  0  0  0  0  0  0  0  0  0
    4.0480    0.8121   -1.7074 H   0  0  0  0  0  0  0  0  0  0  0  0
    4.8092    0.0397   -3.8979 H   0  0  0  0  0  0  0  0  0  0  0  0
    3.8264   -1.9743   -4.9430 H   0  0  0  0  0  0  0  0  0  0  0  0
  1  2  1  0
  2  3  1  0
  2  4  1  0
  4  5  1  0
  5  6  1  0
  6  7  2  0
  6  8  2  0
  6  9  1  0
  9 10  2  0
 10 11  1  0
 11 12  2  0
 12 13  1  0
 13 14  2  0
 13 15  1  0
 15 16  1  0
 16 17  1  0
 17 18  1  0
  4 19  1  0
 19 20  2  0
 19 21  1  0
 21 22  1  0
 22 23  1  0
 23 24  2  0
 23 25  1  0
 25 26  1  0
 26 27  2  0
 27 28  1  0
 28 29  2  0
 29 30  1  0
 30 31  1  0
 30 32  2  0
 32 33  1  0
 14  9  1  0
 32 26  1  0
 18 12  1  0
  1 34  1  0
  1 35  1  0
  1 36  1  0
  2 37  1  0
  3 38  1  0
  3 39  1  0
  3 40  1  0
  4 41  1  0
  5 42  1  0
 10 43  1  0
 11 44  1  0
 14 45  1  0
 16 46  1  0
 16 47  1  0
 17 48  1  0
 17 49  1  0
 22 50  1  0
 22 51  1  0
 25 52  1  0
 27 53  1  0
 28 54  1  0
 29 55  1  0
M  END
$$$$
