
     RDKit          3D

 61 65  0  0  0  0  0  0  0  0999 V2000
   -6.1186    1.3186   -2.2152 C   0  0  0  0  0  0  0  0  0  0  0  0
   -5.3360    0.8524   -1.1253 O   0  0  0  0  0  0  0  0  0  0  0  0
   -5.0151   -0.4818   -1.0985 C   0  0  0  0  0  0  0  0  0  0  0  0
   -5.3346   -1.3923   -2.1129 C   0  0  0  0  0  0  0  0  0  0  0  0
   -4.9535   -2.7335   -2.0099 C   0  0  0  0  0  0  0  0  0  0  0  0
   -4.2483   -3.1792   -0.8961 C   0  0  0  0  0  0  0  0  0  0  0  0
   -3.9230   -2.2833    0.1204 C   0  0  0  0  0  0  0  0  0  0  0  0
   -4.3035   -0.9340    0.0320 C   0  0  0  0  0  0  0  0  0  0  0  0
   -3.9274   -0.0253    1.1230 C   0  0  0  0  0  0  0  0  0  0  0  0
   -5.0562    0.2476    2.3768 S   0  0  0  0  0  0  0  0  0  0  0  0
   -3.9922    1.2984    3.2240 C   0  0  0  0  0  0  0  0  0  0  0  0
   -4.2522    1.9611    4.4405 C   0  0  0  0  0  0  0  0  0  0  0  0
   -3.2669    2.7839    4.9897 C   0  0  0  0  0  0  0  0  0  0  0  0
   -2.0494    2.9486    4.3466 C   0  0  0  0  0  0  0  0  0  0  0  0
   -1.7959    2.2890    3.1404 C   0  0  0  0  0  0  0  0  0  0  0  0
   -2.7740    1.4419    2.5561 C   0  0  0  0  0  0  0  0  0  0  0  0
   -2.7461    0.6651    1.3368 C   0  0  0  0  0  0  0  0  0  0  0  0
   -1.6265    0.5692    0.4081 C   0  0  0  0  0  0  0  0  0  0  0  0
   -1.6786    1.2069   -0.8331 C   0  0  0  0  0  0  0  0  0  0  0  0
   -0.5976    1.1098   -1.7122 C   0  0  0  0  0  0  0  0  0  0  0  0
    0.5438    0.3808   -1.3656 C   0  0  0  0  0  0  0  0  0  0  0  0
    1.5209    0.3753   -2.3211 O   0  0  0  0  0  0  0  0  0  0  0  0
    2.6951   -0.4129   -2.0990 C   0  0  0  0  0  0  0  0  0  0  0  0
    3.7510    0.3917   -1.3220 C   0  0  0  0  0  0  0  0  0  0  0  0
    5.0234   -0.3262   -1.1367 N   0  0  0  0  0  0  0  0  0  0  0  0
    4.9372   -1.4003   -0.1463 C   0  0  0  0  0  0  0  0  0  0  0  0
    6.1975   -2.2732   -0.2033 C   0  0  0  0  0  0  0  0  0  0  0  0
    7.4741   -1.4763   -0.4792 C   0  0  0  0  0  0  0  0  0  0  0  0
    7.2995   -0.0188   -0.0820 C   0  0  0  0  0  0  0  0  0  0  0  0
    6.1037    0.6211   -0.8016 C   0  0  0  0  0  0  0  0  0  0  0  0
    0.5977   -0.2481   -0.1213 C   0  0  0  0  0  0  0  0  0  0  0  0
   -0.4834   -0.1538    0.7630 C   0  0  0  0  0  0  0  0  0  0  0  0
   -6.3135    2.3835   -2.0548 H   0  0  0  0  0  0  0  0  0  0  0  0
   -5.5752    1.2195   -3.1606 H   0  0  0  0  0  0  0  0  0  0  0  0
   -7.0856    0.8068   -2.2568 H   0  0  0  0  0  0  0  0  0  0  0  0
   -5.8757   -1.0899   -3.0030 H   0  0  0  0  0  0  0  0  0  0  0  0
   -5.2057   -3.4303   -2.8055 H   0  0  0  0  0  0  0  0  0  0  0  0
   -3.9494   -4.2212   -0.8192 H   0  0  0  0  0  0  0  0  0  0  0  0
   -3.3685   -2.6373    0.9866 H   0  0  0  0  0  0  0  0  0  0  0  0
   -5.2068    1.8357    4.9437 H   0  0  0  0  0  0  0  0  0  0  0  0
   -3.4595    3.3007    5.9268 H   0  0  0  0  0  0  0  0  0  0  0  0
   -1.2887    3.5947    4.7777 H   0  0  0  0  0  0  0  0  0  0  0  0
   -0.8394    2.4325    2.6433 H   0  0  0  0  0  0  0  0  0  0  0  0
   -2.5579    1.7771   -1.1236 H   0  0  0  0  0  0  0  0  0  0  0  0
   -0.6478    1.6051   -2.6788 H   0  0  0  0  0  0  0  0  0  0  0  0
    2.4497   -1.3790   -1.6466 H   0  0  0  0  0  0  0  0  0  0  0  0
    3.0971   -0.6459   -3.0927 H   0  0  0  0  0  0  0  0  0  0  0  0
    3.9295    1.3095   -1.8998 H   0  0  0  0  0  0  0  0  0  0  0  0
    3.3517    0.7302   -0.3577 H   0  0  0  0  0  0  0  0  0  0  0  0
    4.0776   -2.0537   -0.3289 H   0  0  0  0  0  0  0  0  0  0  0  0
    4.8060   -0.9873    0.8626 H   0  0  0  0  0  0  0  0  0  0  0  0
    6.2960   -2.8062    0.7501 H   0  0  0  0  0  0  0  0  0  0  0  0
    6.0886   -3.0413   -0.9789 H   0  0  0  0  0  0  0  0  0  0  0  0
    7.7128   -1.5317   -1.5489 H   0  0  0  0  0  0  0  0  0  0  0  0
    8.3198   -1.9243    0.0541 H   0  0  0  0  0  0  0  0  0  0  0  0
    7.1460    0.0390    1.0033 H   0  0  0  0  0  0  0  0  0  0  0  0
    8.2116    0.5465   -0.3040 H   0  0  0  0  0  0  0  0  0  0  0  0
    5.7354    1.4394   -0.1687 H   0  0  0  0  0  0  0  0  0  0  0  0
    6.4535    1.0753   -1.7366 H   0  0  0  0  0  0  0  0  0  0  0  0
    1.4625   -0.8178    0.1994 H   0  0  0  0  0  0  0  0  0  0  0  0
   -0.4290   -0.6518    1.7284 H   0  0  0  0  0  0  0  0  0  0  0  0
  1  2  1  0
  2  3  1  0
  3  4  2  0
  4  5  1  0
  5  6  2  0
  6  7  1  0
  7  8  2  0
  8  9  1  0
  9 10  1  0
 10 11  1  0
 11 12  2  0
 12 13  1  0
 13 14  2  0
 14 15  1  0
 15 16  2  0
 16 17  1  0
 17 18  1  0
 18 19  2  0
 19 20  1  0
 20 21  2  0
 21 22  1  0
 22 23  1  0
 23 24  1  0
 24 25  1  0
 25 26  1  0
 26 27  1  0
 27 28  1  0
 28 29  1  0
 29 30  1  0
 21 31  1  0
 31 32  2  0
  8  3  1  0
 17  9  2  0
 32 18  1  0
 16 11  1  0
 30 25  1  0
  1 33  1  0
  1 34  1  0
  1 35  1  0
  4 36  1  0
  5 37  1  0
  6 38  1  0
  7 39  1  0
 12 40  1  0
 13 41  1  0
 14 42  1  0
 15 43  1  0
 19 44  1  0
 20 45  1  0
 23 46  1  0
 23 47  1  0
 24 48  1  0
 24 49  1  0
 26 50  1  0
 26 51  1  0
 27 52  1  0
 27 53  1  0
 28 54  1  0
 28 55  1  0
 29 56  1  0
 29 57  1  0
 30 58  1  0
 30 59  1  0
 31 60  1  0
 32 61  1  0
M  END
$$$$
