
     RDKit          3D

 45 47  0  0  0  0  0  0  0  0999 V2000
    6.0131    4.3145   -2.1553 C   0  0  0  0  0  0  0  0  0  0  0  0
    5.2277    3.0266   -2.1259 C   0  0  0  0  0  0  0  0  0  0  0  0
    5.4293    2.1517   -2.9603 O   0  0  0  0  0  0  0  0  0  0  0  0
    4.3312    2.9816   -1.0734 N   0  0  0  0  0  0  0  0  0  0  0  0
    3.4559    1.9289   -0.7359 C   0  0  0  0  0  0  0  0  0  0  0  0
    3.3881    0.7169   -1.4280 C   0  0  0  0  0  0  0  0  0  0  0  0
    2.4902   -0.2806   -1.0318 C   0  0  0  0  0  0  0  0  0  0  0  0
    1.6401   -0.0581    0.0531 C   0  0  0  0  0  0  0  0  0  0  0  0
    0.5099   -1.3360    0.5705 S   0  0  0  0  0  6  0  0  0  0  0  0
    1.0606   -2.5954    0.1094 O   0  0  0  0  0  0  0  0  0  0  0  0
    0.2444   -1.1326    1.9780 O   0  0  0  0  0  0  0  0  0  0  0  0
   -0.8427   -1.0049   -0.3400 N   0  0  0  0  0  0  0  0  0  0  0  0
   -0.8784   -1.4678   -1.7266 C   0  0  0  0  0  0  0  0  0  0  0  0
   -2.2509   -0.9430   -2.1569 C   0  0  0  0  0  0  0  0  0  0  0  0
   -2.6874    0.0543   -1.1415 N   0  0  0  0  0  0  0  0  0  0  0  0
   -1.8644   -0.0744   -0.1490 C   0  0  0  0  0  0  0  0  0  0  0  0
   -2.0148    0.8734    1.2760 S   0  0  0  0  0  0  0  0  0  0  0  0
   -3.6608    0.3256    1.7997 C   0  0  0  0  0  0  0  0  0  0  0  0
   -3.7708   -1.1690    1.9925 C   0  0  0  0  0  0  0  0  0  0  0  0
   -3.0513   -1.8192    3.0089 C   0  0  0  0  0  0  0  0  0  0  0  0
   -3.1437   -3.2027    3.1672 C   0  0  0  0  0  0  0  0  0  0  0  0
   -3.9584   -3.9374    2.3155 C   0  0  0  0  0  0  0  0  0  0  0  0
   -4.0477   -5.2651    2.4679 F   0  0  0  0  0  0  0  0  0  0  0  0
   -4.6814   -3.3154    1.3052 C   0  0  0  0  0  0  0  0  0  0  0  0
   -4.5880   -1.9326    1.1422 C   0  0  0  0  0  0  0  0  0  0  0  0
    1.7156    1.1356    0.7714 C   0  0  0  0  0  0  0  0  0  0  0  0
    2.6172    2.1260    0.3705 C   0  0  0  0  0  0  0  0  0  0  0  0
    5.4000    5.1577   -1.8243 H   0  0  0  0  0  0  0  0  0  0  0  0
    6.3397    4.5162   -3.1796 H   0  0  0  0  0  0  0  0  0  0  0  0
    6.8876    4.2191   -1.5064 H   0  0  0  0  0  0  0  0  0  0  0  0
    4.2937    3.7971   -0.4748 H   0  0  0  0  0  0  0  0  0  0  0  0
    4.0308    0.5090   -2.2785 H   0  0  0  0  0  0  0  0  0  0  0  0
    2.4713   -1.2236   -1.5740 H   0  0  0  0  0  0  0  0  0  0  0  0
   -0.0905   -0.9996   -2.3227 H   0  0  0  0  0  0  0  0  0  0  0  0
   -0.8281   -2.5559   -1.8143 H   0  0  0  0  0  0  0  0  0  0  0  0
   -2.2034   -0.4800   -3.1477 H   0  0  0  0  0  0  0  0  0  0  0  0
   -2.9863   -1.7547   -2.1929 H   0  0  0  0  0  0  0  0  0  0  0  0
   -3.9035    0.8203    2.7471 H   0  0  0  0  0  0  0  0  0  0  0  0
   -4.4004    0.6790    1.0722 H   0  0  0  0  0  0  0  0  0  0  0  0
   -2.3974   -1.2540    3.6715 H   0  0  0  0  0  0  0  0  0  0  0  0
   -2.5792   -3.7093    3.9436 H   0  0  0  0  0  0  0  0  0  0  0  0
   -5.3098   -3.9108    0.6509 H   0  0  0  0  0  0  0  0  0  0  0  0
   -5.1500   -1.4548    0.3416 H   0  0  0  0  0  0  0  0  0  0  0  0
    1.0878    1.3037    1.6437 H   0  0  0  0  0  0  0  0  0  0  0  0
    2.6550    3.0511    0.9410 H   0  0  0  0  0  0  0  0  0  0  0  0
  1  2  1  0
  2  3  2  0
  2  4  1  0
  4  5  1  0
  5  6  2  0
  6  7  1  0
  7  8  2  0
  8  9  1  0
  9 10  2  0
  9 11  2  0
  9 12  1  0
 12 13  1  0
 13 14  1  0
 14 15  1  0
 15 16  2  0
 16 17  1  0
 17 18  1  0
 18 19  1  0
 19 20  2  0
 20 21  1  0
 21 22  2  0
 22 23  1  0
 22 24  1  0
 24 25  2  0
  8 26  1  0
 26 27  2  0
 27  5  1  0
 16 12  1  0
 25 19  1  0
  1 28  1  0
  1 29  1  0
  1 30  1  0
  4 31  1  0
  6 32  1  0
  7 33  1  0
 13 34  1  0
 13 35  1  0
 14 36  1  0
 14 37  1  0
 18 38  1  0
 18 39  1  0
 20 40  1  0
 21 41  1  0
 24 42  1  0
 25 43  1  0
 26 44  1  0
 27 45  1  0
M  END
$$$$
