
     RDKit          3D

 42 45  0  0  0  0  0  0  0  0999 V2000
   -3.8793   -1.7465    0.7923 O   0  0  0  0  0  0  0  0  0  0  0  0
   -3.9915   -0.5904    0.3763 C   0  0  0  0  0  0  0  0  0  0  0  0
   -2.7893    0.1505   -0.0434 C   0  0  0  0  0  0  0  0  0  0  0  0
   -1.4750   -0.3923   -0.1098 C   0  0  0  0  0  0  0  0  0  0  0  0
   -0.6777    0.6450   -0.5240 C   0  0  0  0  0  0  0  0  0  0  0  0
    0.7663    0.7998   -0.8150 C   0  0  0  0  0  0  0  0  0  0  0  0
    1.4601   -0.1199    0.0276 O   0  0  0  0  0  0  0  0  0  0  0  0
    2.8190   -0.1839   -0.1014 C   0  0  0  0  0  0  0  0  0  0  0  0
    3.4388   -1.1057    0.7470 C   0  0  0  0  0  0  0  0  0  0  0  0
    4.8257   -1.2883    0.7247 C   0  0  0  0  0  0  0  0  0  0  0  0
    5.6093   -0.5390   -0.1594 C   0  0  0  0  0  0  0  0  0  0  0  0
    7.0174   -0.7045   -0.2151 N   0  0  0  0  0  0  0  0  0  0  0  0
    7.8202   -1.5467    0.5174 C   0  0  0  0  0  0  0  0  0  0  0  0
    9.0777   -1.4135    0.1605 N   0  0  0  0  0  0  0  0  0  0  0  0
    9.0115   -0.4602   -0.8092 C   0  0  0  0  0  0  0  0  0  0  0  0
    7.7916    0.0057   -1.0757 N   0  0  0  0  0  0  0  0  0  0  0  0
    4.9889    0.3897   -1.0091 C   0  0  0  0  0  0  0  0  0  0  0  0
    3.5997    0.5661   -0.9786 C   0  0  0  0  0  0  0  0  0  0  0  0
   -1.4521    1.7476   -0.7021 O   0  0  0  0  0  0  0  0  0  0  0  0
   -2.7644    1.4471   -0.3984 N   0  0  0  0  0  0  0  0  0  0  0  0
   -5.2453    0.0049    0.3075 N   0  0  0  0  0  0  0  0  0  0  0  0
   -6.4182   -0.7007    0.7914 C   0  0  0  0  0  0  0  0  0  0  0  0
   -7.5082    0.3583    0.8397 C   0  0  0  0  0  0  0  0  0  0  0  0
   -7.1294    1.2815   -0.3090 C   0  0  0  0  0  0  0  0  0  0  0  0
   -5.6063    1.3029   -0.2471 C   0  0  0  0  0  0  0  0  0  0  0  0
   -1.1683   -1.4019    0.1256 H   0  0  0  0  0  0  0  0  0  0  0  0
    0.9421    0.5636   -1.8712 H   0  0  0  0  0  0  0  0  0  0  0  0
    1.0847    1.8259   -0.5953 H   0  0  0  0  0  0  0  0  0  0  0  0
    2.8322   -1.6920    1.4344 H   0  0  0  0  0  0  0  0  0  0  0  0
    5.2487   -2.0210    1.4060 H   0  0  0  0  0  0  0  0  0  0  0  0
    7.4522   -2.2187    1.2775 H   0  0  0  0  0  0  0  0  0  0  0  0
    9.8814   -0.0945   -1.3418 H   0  0  0  0  0  0  0  0  0  0  0  0
    5.5750    0.9872   -1.7066 H   0  0  0  0  0  0  0  0  0  0  0  0
    3.1689    1.2967   -1.6559 H   0  0  0  0  0  0  0  0  0  0  0  0
   -6.6584   -1.4905    0.0701 H   0  0  0  0  0  0  0  0  0  0  0  0
   -6.2299   -1.1570    1.7680 H   0  0  0  0  0  0  0  0  0  0  0  0
   -8.5112   -0.0645    0.7397 H   0  0  0  0  0  0  0  0  0  0  0  0
   -7.4581    0.9079    1.7874 H   0  0  0  0  0  0  0  0  0  0  0  0
   -7.5677    2.2785   -0.2193 H   0  0  0  0  0  0  0  0  0  0  0  0
   -7.4597    0.8446   -1.2587 H   0  0  0  0  0  0  0  0  0  0  0  0
   -5.1683    1.4482   -1.2382 H   0  0  0  0  0  0  0  0  0  0  0  0
   -5.2533    2.0798    0.4400 H   0  0  0  0  0  0  0  0  0  0  0  0
  1  2  2  0
  2  3  1  0
  3  4  1  0
  4  5  2  0
  5  6  1  0
  6  7  1  0
  7  8  1  0
  8  9  2  0
  9 10  1  0
 10 11  2  0
 11 12  1  0
 12 13  1  0
 13 14  2  0
 14 15  1  0
 15 16  2  0
 11 17  1  0
 17 18  2  0
  5 19  1  0
 19 20  1  0
  2 21  1  0
 21 22  1  0
 22 23  1  0
 23 24  1  0
 24 25  1  0
 20  3  2  0
 25 21  1  0
 18  8  1  0
 16 12  1  0
  4 26  1  0
  6 27  1  0
  6 28  1  0
  9 29  1  0
 10 30  1  0
 13 31  1  0
 15 32  1  0
 17 33  1  0
 18 34  1  0
 22 35  1  0
 22 36  1  0
 23 37  1  0
 23 38  1  0
 24 39  1  0
 24 40  1  0
 25 41  1  0
 25 42  1  0
M  END
$$$$
