
     RDKit          3D

 49 51  0  0  0  0  0  0  0  0999 V2000
   -4.9955   -3.0135    0.5974 C   0  0  0  0  0  0  0  0  0  0  0  0
   -3.8031   -2.1327    0.8747 C   0  0  0  0  0  0  0  0  0  0  0  0
   -3.1599   -2.2610    2.2114 C   0  0  0  0  0  0  0  0  0  0  0  0
   -2.1213   -1.4400    2.4199 C   0  0  0  0  0  0  0  0  0  0  0  0
   -1.3161   -1.4697    3.6840 C   0  0  0  0  0  0  0  0  0  0  0  0
   -1.7469   -0.5443    1.4386 N   0  0  0  0  0  0  0  0  0  0  0  0
   -2.3229   -0.5344    0.1896 C   0  0  0  0  0  0  0  0  0  0  0  0
   -1.9614    0.1765   -0.8292 N   0  0  0  0  0  0  0  0  0  0  0  0
   -0.9994    1.1268   -0.6767 C   0  0  0  0  0  0  0  0  0  0  0  0
    0.2625    0.8706   -0.7737 N   0  0  0  0  0  0  0  0  0  0  0  0
    0.8369   -0.6137   -1.0424 S   0  0  0  0  0  6  0  0  0  0  0  0
    0.2648   -1.1791   -2.2472 O   0  0  0  0  0  0  0  0  0  0  0  0
    0.8052   -1.3190    0.2282 O   0  0  0  0  0  0  0  0  0  0  0  0
    2.5430   -0.1922   -1.3973 C   0  0  0  0  0  0  0  0  0  0  0  0
    3.3517   -1.4459   -1.6075 C   0  0  0  0  0  0  0  0  0  0  0  0
    4.0432   -2.0361   -0.5395 C   0  0  0  0  0  0  0  0  0  0  0  0
    4.7924   -3.1972   -0.7366 C   0  0  0  0  0  0  0  0  0  0  0  0
    4.8566   -3.7810   -2.0001 C   0  0  0  0  0  0  0  0  0  0  0  0
    4.1680   -3.2080   -3.0668 C   0  0  0  0  0  0  0  0  0  0  0  0
    3.4186   -2.0468   -2.8729 C   0  0  0  0  0  0  0  0  0  0  0  0
   -1.5034    2.3809   -0.4523 N   0  0  0  0  0  0  0  0  0  0  0  0
   -0.8924    3.6325   -0.2598 C   0  0  0  0  0  0  0  0  0  0  0  0
    0.4916    3.8061   -0.1284 C   0  0  0  0  0  0  0  0  0  0  0  0
    1.0531    5.0728    0.0768 C   0  0  0  0  0  0  0  0  0  0  0  0
    0.2393    6.1979    0.1604 C   0  0  0  0  0  0  0  0  0  0  0  0
   -1.1397    6.0584    0.0437 C   0  0  0  0  0  0  0  0  0  0  0  0
   -1.6957    4.7906   -0.1609 C   0  0  0  0  0  0  0  0  0  0  0  0
   -3.5931    4.6797   -0.3014 Br  0  0  0  0  0  0  0  0  0  0  0  0
   -3.4134   -1.3308   -0.0666 N   0  0  0  0  0  0  0  0  0  0  0  0
   -5.2650   -3.6137    1.4701 H   0  0  0  0  0  0  0  0  0  0  0  0
   -4.7617   -3.6833   -0.2355 H   0  0  0  0  0  0  0  0  0  0  0  0
   -5.8500   -2.3882    0.3223 H   0  0  0  0  0  0  0  0  0  0  0  0
   -3.5123   -2.9961    2.9200 H   0  0  0  0  0  0  0  0  0  0  0  0
   -1.3325   -0.4875    4.1682 H   0  0  0  0  0  0  0  0  0  0  0  0
   -0.2752   -1.7311    3.4664 H   0  0  0  0  0  0  0  0  0  0  0  0
   -1.7036   -2.2022    4.4000 H   0  0  0  0  0  0  0  0  0  0  0  0
   -0.7877   -0.2171    1.4943 H   0  0  0  0  0  0  0  0  0  0  0  0
    2.5600    0.4396   -2.2912 H   0  0  0  0  0  0  0  0  0  0  0  0
    2.9323    0.3871   -0.5536 H   0  0  0  0  0  0  0  0  0  0  0  0
    3.9967   -1.6025    0.4575 H   0  0  0  0  0  0  0  0  0  0  0  0
    5.3221   -3.6497    0.0977 H   0  0  0  0  0  0  0  0  0  0  0  0
    5.4357   -4.6882   -2.1518 H   0  0  0  0  0  0  0  0  0  0  0  0
    4.2068   -3.6700   -4.0500 H   0  0  0  0  0  0  0  0  0  0  0  0
    2.8757   -1.6228   -3.7161 H   0  0  0  0  0  0  0  0  0  0  0  0
   -2.5121    2.4212   -0.5551 H   0  0  0  0  0  0  0  0  0  0  0  0
    1.1726    2.9637   -0.1757 H   0  0  0  0  0  0  0  0  0  0  0  0
    2.1314    5.1754    0.1735 H   0  0  0  0  0  0  0  0  0  0  0  0
    0.6780    7.1796    0.3199 H   0  0  0  0  0  0  0  0  0  0  0  0
   -1.7739    6.9383    0.1138 H   0  0  0  0  0  0  0  0  0  0  0  0
  1  2  1  0
  2  3  1  0
  3  4  2  0
  4  5  1  0
  4  6  1  0
  6  7  1  0
  7  8  2  3
  8  9  1  0
  9 10  2  3
 10 11  1  0
 11 12  2  0
 11 13  2  0
 11 14  1  0
 14 15  1  0
 15 16  2  0
 16 17  1  0
 17 18  2  0
 18 19  1  0
 19 20  2  0
  9 21  1  0
 21 22  1  0
 22 23  2  0
 23 24  1  0
 24 25  2  0
 25 26  1  0
 26 27  2  0
 27 28  1  0
  7 29  1  0
 29  2  2  0
 20 15  1  0
 27 22  1  0
  1 30  1  0
  1 31  1  0
  1 32  1  0
  3 33  1  0
  5 34  1  0
  5 35  1  0
  5 36  1  0
  6 37  1  0
 14 38  1  0
 14 39  1  0
 16 40  1  0
 17 41  1  0
 18 42  1  0
 19 43  1  0
 20 44  1  0
 21 45  1  0
 23 46  1  0
 24 47  1  0
 25 48  1  0
 26 49  1  0
M  END
$$$$
