
     RDKit          3D

 39 41  0  0  0  0  0  0  0  0999 V2000
    2.2152    3.1785   -0.6772 C   0  0  0  0  0  0  0  0  0  0  0  0
    1.8342    2.3710    0.5363 C   0  0  0  0  0  0  0  0  0  0  0  0
    2.5746    2.2993    1.5169 O   0  0  0  0  0  0  0  0  0  0  0  0
    0.5350    1.6539    0.4971 C   0  0  0  0  0  0  0  0  0  0  0  0
    0.5243    0.3164    0.2966 C   0  0  0  0  0  0  0  0  0  0  0  0
    1.6394   -0.4983    0.1298 N   0  0  0  0  0  0  0  0  0  0  0  0
    2.5492   -0.8015    1.2636 C   0  0  0  0  0  0  0  0  0  0  0  0
    4.0186   -0.6364    0.8488 C   0  0  0  0  0  0  0  0  0  0  0  0
    4.4020   -1.4889   -0.2439 O   0  0  0  0  0  0  0  0  0  0  0  0
    3.3260   -1.7806   -1.1464 C   0  0  0  0  0  0  0  0  0  0  0  0
    2.2549   -0.6824   -1.2015 C   0  0  0  0  0  0  0  0  0  0  0  0
   -0.6937   -0.3059    0.2205 N   0  0  0  0  0  0  0  0  0  0  0  0
   -1.8848    0.3623    0.2670 C   0  0  0  0  0  0  0  0  0  0  0  0
   -3.1689   -0.3894    0.1021 C   0  0  0  0  0  0  0  0  0  0  0  0
   -4.3130    0.2931   -0.3319 C   0  0  0  0  0  0  0  0  0  0  0  0
   -5.5189   -0.3900   -0.5006 C   0  0  0  0  0  0  0  0  0  0  0  0
   -5.5899   -1.7555   -0.2307 C   0  0  0  0  0  0  0  0  0  0  0  0
   -4.4587   -2.4390    0.2141 C   0  0  0  0  0  0  0  0  0  0  0  0
   -3.2493   -1.7594    0.3834 C   0  0  0  0  0  0  0  0  0  0  0  0
   -1.9416    1.6492    0.4390 N   0  0  0  0  0  0  0  0  0  0  0  0
   -0.7794    2.3789    0.6227 C   0  0  0  0  0  0  0  0  0  0  0  0
   -0.8947    4.0370    0.9599 S   0  0  0  0  0  0  0  0  0  0  0  0
    3.1806    2.8260   -1.0505 H   0  0  0  0  0  0  0  0  0  0  0  0
    2.2845    4.2347   -0.4052 H   0  0  0  0  0  0  0  0  0  0  0  0
    1.4777    3.0643   -1.4766 H   0  0  0  0  0  0  0  0  0  0  0  0
    2.3695   -1.8426    1.5575 H   0  0  0  0  0  0  0  0  0  0  0  0
    2.3273   -0.1769    2.1351 H   0  0  0  0  0  0  0  0  0  0  0  0
    4.2264    0.3958    0.5475 H   0  0  0  0  0  0  0  0  0  0  0  0
    4.6767   -0.8701    1.6916 H   0  0  0  0  0  0  0  0  0  0  0  0
    2.8806   -2.7328   -0.8352 H   0  0  0  0  0  0  0  0  0  0  0  0
    3.7621   -1.9325   -2.1388 H   0  0  0  0  0  0  0  0  0  0  0  0
    2.7101    0.2611   -1.5233 H   0  0  0  0  0  0  0  0  0  0  0  0
    1.4846   -0.9592   -1.9301 H   0  0  0  0  0  0  0  0  0  0  0  0
   -0.6381   -1.2893   -0.0025 H   0  0  0  0  0  0  0  0  0  0  0  0
   -4.2715    1.3600   -0.5418 H   0  0  0  0  0  0  0  0  0  0  0  0
   -6.4024    0.1463   -0.8380 H   0  0  0  0  0  0  0  0  0  0  0  0
   -6.5311   -2.2852   -0.3577 H   0  0  0  0  0  0  0  0  0  0  0  0
   -4.5227   -3.5009    0.4394 H   0  0  0  0  0  0  0  0  0  0  0  0
   -2.3952   -2.3110    0.7629 H   0  0  0  0  0  0  0  0  0  0  0  0
  1  2  1  0
  2  3  2  0
  2  4  1  0
  4  5  2  0
  5  6  1  0
  6  7  1  0
  7  8  1  0
  8  9  1  0
  9 10  1  0
 10 11  1  0
  5 12  1  0
 12 13  1  0
 13 14  1  0
 14 15  2  0
 15 16  1  0
 16 17  2  0
 17 18  1  0
 18 19  2  0
 13 20  2  0
 20 21  1  0
 21 22  2  0
 21  4  1  0
 11  6  1  0
 19 14  1  0
  1 23  1  0
  1 24  1  0
  1 25  1  0
  7 26  1  0
  7 27  1  0
  8 28  1  0
  8 29  1  0
 10 30  1  0
 10 31  1  0
 11 32  1  0
 11 33  1  0
 12 34  1  0
 15 35  1  0
 16 36  1  0
 17 37  1  0
 18 38  1  0
 19 39  1  0
M  END
$$$$
