
     RDKit          3D

 65 69  0  0  0  0  0  0  0  0999 V2000
   -1.7947    5.5951    0.6849 C   0  0  0  0  0  0  0  0  0  0  0  0
   -1.4475    4.2661    0.0314 C   0  0  0  0  0  0  0  0  0  0  0  0
   -0.9914    3.3758    1.0470 O   0  0  0  0  0  0  0  0  0  0  0  0
   -0.7885    2.0724    0.6935 C   0  0  0  0  0  0  0  0  0  0  0  0
   -0.5124    1.2104    1.7557 C   0  0  0  0  0  0  0  0  0  0  0  0
   -0.2617   -0.1442    1.5279 C   0  0  0  0  0  0  0  0  0  0  0  0
   -0.2786   -0.6646    0.2230 C   0  0  0  0  0  0  0  0  0  0  0  0
    0.0798   -2.1086   -0.0620 C   0  0  0  0  0  0  0  0  0  0  0  0
    1.5893   -2.4268   -0.1516 C   0  0  0  0  0  0  0  0  0  0  0  0
    2.4634   -1.5439    0.7120 C   0  0  0  0  0  0  0  0  0  0  0  0
    2.6818   -1.8248    1.8897 O   0  0  0  0  0  0  0  0  0  0  0  0
    2.9945   -0.2560    0.1546 C   0  0  0  0  0  0  0  0  0  0  0  0
    3.0383    0.0141   -1.2305 C   0  0  0  0  0  0  0  0  0  0  0  0
    3.4589    1.2637   -1.7012 C   0  0  0  0  0  0  0  0  0  0  0  0
    3.8284    2.2173   -0.7761 C   0  0  0  0  0  0  0  0  0  0  0  0
    3.8181    1.9620    0.5836 C   0  0  0  0  0  0  0  0  0  0  0  0
    3.4128    0.7286    1.0693 C   0  0  0  0  0  0  0  0  0  0  0  0
    4.3163    3.1481    1.3182 C   0  0  0  0  0  0  0  0  0  0  0  0
    4.3097    4.1798    0.1739 C   0  0  0  0  0  0  0  0  0  0  0  0
    5.5519    5.0633    0.1705 C   0  0  0  0  0  0  0  0  0  0  0  0
    4.2434    3.4801   -1.1009 O   0  0  0  0  0  0  0  0  0  0  0  0
    1.6079   -3.8513    0.3101 C   0  0  0  0  0  0  0  0  0  0  0  0
    2.5341   -4.6370    0.1964 O   0  0  0  0  0  0  0  0  0  0  0  0
    0.2719   -4.1984    0.9550 C   0  0  0  0  0  0  0  0  0  0  0  0
   -0.0244   -5.2868    1.4020 O   0  0  0  0  0  0  0  0  0  0  0  0
   -0.5183   -3.0693    0.8576 N   0  0  0  0  0  0  0  0  0  0  0  0
   -1.9592   -3.1477    1.0982 C   0  0  0  0  0  0  0  0  0  0  0  0
   -2.7454   -3.5281   -0.1566 C   0  0  0  0  0  0  0  0  0  0  0  0
   -4.2366   -3.6793    0.1435 C   0  0  0  0  0  0  0  0  0  0  0  0
   -5.0212   -3.7823   -1.0720 N   0  0  0  0  0  0  0  0  0  0  0  0
   -5.3038   -4.9240   -1.7653 C   0  0  0  0  0  0  0  0  0  0  0  0
   -6.0815   -4.5096   -2.8233 C   0  0  0  0  0  0  0  0  0  0  0  0
   -6.2630   -3.1503   -2.7925 N   0  0  0  0  0  0  0  0  0  0  0  0
   -5.6179   -2.7417   -1.7231 C   0  0  0  0  0  0  0  0  0  0  0  0
   -0.5668    0.2067   -0.8383 C   0  0  0  0  0  0  0  0  0  0  0  0
   -0.8146    1.5644   -0.6043 C   0  0  0  0  0  0  0  0  0  0  0  0
   -0.9175    6.0381    1.1621 H   0  0  0  0  0  0  0  0  0  0  0  0
   -2.5534    5.4518    1.4649 H   0  0  0  0  0  0  0  0  0  0  0  0
   -2.1832    6.2892   -0.0601 H   0  0  0  0  0  0  0  0  0  0  0  0
   -2.3441    3.8659   -0.4514 H   0  0  0  0  0  0  0  0  0  0  0  0
   -0.6595    4.4252   -0.7134 H   0  0  0  0  0  0  0  0  0  0  0  0
   -0.4766    1.6050    2.7671 H   0  0  0  0  0  0  0  0  0  0  0  0
   -0.0239   -0.7813    2.3801 H   0  0  0  0  0  0  0  0  0  0  0  0
   -0.3437   -2.3705   -1.0415 H   0  0  0  0  0  0  0  0  0  0  0  0
    1.9196   -2.4265   -1.1925 H   0  0  0  0  0  0  0  0  0  0  0  0
    2.7552   -0.7213   -1.9752 H   0  0  0  0  0  0  0  0  0  0  0  0
    3.4855    1.4866   -2.7639 H   0  0  0  0  0  0  0  0  0  0  0  0
    3.4025    0.5385    2.1412 H   0  0  0  0  0  0  0  0  0  0  0  0
    5.3231    2.9629    1.7068 H   0  0  0  0  0  0  0  0  0  0  0  0
    3.6544    3.4534    2.1360 H   0  0  0  0  0  0  0  0  0  0  0  0
    3.4168    4.8179    0.2433 H   0  0  0  0  0  0  0  0  0  0  0  0
    5.5084    5.7776   -0.6597 H   0  0  0  0  0  0  0  0  0  0  0  0
    6.4562    4.4605    0.0231 H   0  0  0  0  0  0  0  0  0  0  0  0
    5.6385    5.6188    1.1095 H   0  0  0  0  0  0  0  0  0  0  0  0
   -2.1330   -3.8953    1.8799 H   0  0  0  0  0  0  0  0  0  0  0  0
   -2.2990   -2.1850    1.4895 H   0  0  0  0  0  0  0  0  0  0  0  0
   -2.3565   -4.4609   -0.5808 H   0  0  0  0  0  0  0  0  0  0  0  0
   -2.5998   -2.7603   -0.9271 H   0  0  0  0  0  0  0  0  0  0  0  0
   -4.4284   -4.5752    0.7484 H   0  0  0  0  0  0  0  0  0  0  0  0
   -4.6180   -2.8161    0.7036 H   0  0  0  0  0  0  0  0  0  0  0  0
   -4.9458   -5.8981   -1.4626 H   0  0  0  0  0  0  0  0  0  0  0  0
   -6.5146   -5.1139   -3.6109 H   0  0  0  0  0  0  0  0  0  0  0  0
   -5.5502   -1.7130   -1.3885 H   0  0  0  0  0  0  0  0  0  0  0  0
   -0.5813   -0.1537   -1.8664 H   0  0  0  0  0  0  0  0  0  0  0  0
   -1.0045    2.2060   -1.4618 H   0  0  0  0  0  0  0  0  0  0  0  0
  1  2  1  0
  2  3  1  0
  3  4  1  0
  4  5  2  0
  5  6  1  0
  6  7  2  0
  7  8  1  0
  8  9  1  0
  9 10  1  0
 10 11  2  0
 10 12  1  0
 12 13  2  0
 13 14  1  0
 14 15  2  0
 15 16  1  0
 16 17  2  0
 16 18  1  0
 18 19  1  0
 19 20  1  0
 19 21  1  0
  9 22  1  0
 22 23  2  0
 22 24  1  0
 24 25  2  0
 24 26  1  0
 26 27  1  0
 27 28  1  0
 28 29  1  0
 29 30  1  0
 30 31  1  0
 31 32  2  0
 32 33  1  0
 33 34  2  0
  7 35  1  0
 35 36  2  0
 36  4  1  0
 26  8  1  0
 34 30  1  0
 17 12  1  0
 21 15  1  0
  1 37  1  0
  1 38  1  0
  1 39  1  0
  2 40  1  0
  2 41  1  0
  5 42  1  0
  6 43  1  0
  8 44  1  0
  9 45  1  0
 13 46  1  0
 14 47  1  0
 17 48  1  0
 18 49  1  0
 18 50  1  0
 19 51  1  0
 20 52  1  0
 20 53  1  0
 20 54  1  0
 27 55  1  0
 27 56  1  0
 28 57  1  0
 28 58  1  0
 29 59  1  0
 29 60  1  0
 31 61  1  0
 32 62  1  0
 34 63  1  0
 35 64  1  0
 36 65  1  0
M  END
$$$$
