
     RDKit          3D

 49 52  0  0  0  0  0  0  0  0999 V2000
   -0.5584   -2.3847   -2.4311 N   0  0  0  0  0  0  0  0  0  0  0  0
   -0.6123   -1.8735   -1.3880 C   0  0  0  0  0  0  0  0  0  0  0  0
   -0.6186   -1.2683   -0.0482 C   0  0  0  0  0  0  0  0  0  0  0  0
    0.7576   -0.7706    0.4025 C   0  0  0  0  0  0  0  0  0  0  0  0
    0.8858   -0.0030    1.3610 O   0  0  0  0  0  0  0  0  0  0  0  0
    1.8667   -1.2694   -0.2566 N   0  0  0  0  0  0  0  0  0  0  0  0
    3.2153   -0.9531    0.1598 C   0  0  0  0  0  0  0  0  0  0  0  0
    3.8020   -2.0895    0.9555 C   0  0  0  0  0  0  0  0  0  0  0  0
    4.5610   -3.0882    0.3287 C   0  0  0  0  0  0  0  0  0  0  0  0
    5.0808   -4.1513    1.0701 C   0  0  0  0  0  0  0  0  0  0  0  0
    4.8416   -4.2300    2.4413 C   0  0  0  0  0  0  0  0  0  0  0  0
    4.0800   -3.2483    3.0730 C   0  0  0  0  0  0  0  0  0  0  0  0
    3.5588   -2.1852    2.3338 C   0  0  0  0  0  0  0  0  0  0  0  0
   -1.6794   -0.1969    0.0557 C   0  0  0  0  0  0  0  0  0  0  0  0
   -2.7569   -0.4761    0.8472 N   0  0  0  0  0  0  0  0  0  0  0  0
   -3.7159    0.4630    0.9231 C   0  0  0  0  0  0  0  0  0  0  0  0
   -4.8309    0.2443    1.7233 C   0  0  0  0  0  0  0  0  0  0  0  0
   -5.8494    1.1931    1.8253 C   0  0  0  0  0  0  0  0  0  0  0  0
   -5.7511    2.3816    1.1142 C   0  0  0  0  0  0  0  0  0  0  0  0
   -4.6349    2.6105    0.3081 C   0  0  0  0  0  0  0  0  0  0  0  0
   -3.6150    1.6727    0.1992 C   0  0  0  0  0  0  0  0  0  0  0  0
   -2.5586    1.9332   -0.5936 N   0  0  0  0  0  0  0  0  0  0  0  0
   -1.5802    1.0022   -0.6674 C   0  0  0  0  0  0  0  0  0  0  0  0
   -0.4705    1.2286   -1.5109 N   0  0  0  0  0  0  0  0  0  0  0  0
    0.3076    2.3969   -1.0318 C   0  0  0  0  0  0  0  0  0  0  0  0
    0.6642    3.1730   -2.2946 C   0  0  0  0  0  0  0  0  0  0  0  0
   -0.5678    2.9739   -3.1524 C   0  0  0  0  0  0  0  0  0  0  0  0
   -0.9068    1.5100   -2.8993 C   0  0  0  0  0  0  0  0  0  0  0  0
   -0.8715   -2.0641    0.6670 H   0  0  0  0  0  0  0  0  0  0  0  0
    1.7742   -1.9885   -0.9638 H   0  0  0  0  0  0  0  0  0  0  0  0
    3.2406   -0.0244    0.7411 H   0  0  0  0  0  0  0  0  0  0  0  0
    3.8039   -0.7795   -0.7482 H   0  0  0  0  0  0  0  0  0  0  0  0
    4.7534   -3.0446   -0.7409 H   0  0  0  0  0  0  0  0  0  0  0  0
    5.6711   -4.9201    0.5779 H   0  0  0  0  0  0  0  0  0  0  0  0
    5.2465   -5.0580    3.0180 H   0  0  0  0  0  0  0  0  0  0  0  0
    3.8884   -3.3111    4.1412 H   0  0  0  0  0  0  0  0  0  0  0  0
    2.9563   -1.4288    2.8355 H   0  0  0  0  0  0  0  0  0  0  0  0
   -4.9059   -0.6861    2.2807 H   0  0  0  0  0  0  0  0  0  0  0  0
   -6.7122    1.0004    2.4579 H   0  0  0  0  0  0  0  0  0  0  0  0
   -6.5362    3.1304    1.1832 H   0  0  0  0  0  0  0  0  0  0  0  0
   -4.5559    3.5407   -0.2494 H   0  0  0  0  0  0  0  0  0  0  0  0
    1.2128    2.0676   -0.5127 H   0  0  0  0  0  0  0  0  0  0  0  0
   -0.2573    3.0461   -0.3502 H   0  0  0  0  0  0  0  0  0  0  0  0
    1.5410    2.7266   -2.7794 H   0  0  0  0  0  0  0  0  0  0  0  0
    0.8792    4.2262   -2.0938 H   0  0  0  0  0  0  0  0  0  0  0  0
   -1.3812    3.6222   -2.8053 H   0  0  0  0  0  0  0  0  0  0  0  0
   -0.3877    3.1837   -4.2103 H   0  0  0  0  0  0  0  0  0  0  0  0
   -0.3119    0.8754   -3.5674 H   0  0  0  0  0  0  0  0  0  0  0  0
   -1.9621    1.2913   -3.1034 H   0  0  0  0  0  0  0  0  0  0  0  0
  1  2  3  0
  2  3  1  0
  3  4  1  0
  4  5  2  0
  4  6  1  0
  6  7  1  0
  7  8  1  0
  8  9  2  0
  9 10  1  0
 10 11  2  0
 11 12  1  0
 12 13  2  0
  3 14  1  0
 14 15  2  0
 15 16  1  0
 16 17  2  0
 17 18  1  0
 18 19  2  0
 19 20  1  0
 20 21  2  0
 21 22  1  0
 22 23  2  0
 23 24  1  0
 24 25  1  0
 25 26  1  0
 26 27  1  0
 27 28  1  0
 13  8  1  0
 23 14  1  0
 28 24  1  0
 21 16  1  0
  3 29  1  0
  6 30  1  0
  7 31  1  0
  7 32  1  0
  9 33  1  0
 10 34  1  0
 11 35  1  0
 12 36  1  0
 13 37  1  0
 17 38  1  0
 18 39  1  0
 19 40  1  0
 20 41  1  0
 25 42  1  0
 25 43  1  0
 26 44  1  0
 26 45  1  0
 27 46  1  0
 27 47  1  0
 28 48  1  0
 28 49  1  0
M  END
$$$$
