
     RDKit          3D

 34 37  0  0  0  0  0  0  0  0999 V2000
    4.8438    1.9382   -0.5785 N   0  0  0  0  0  0  0  0  0  0  0  0
    3.7269    1.2079   -0.1154 C   0  0  0  0  0  0  0  0  0  0  0  0
    2.9803    0.3975   -0.9930 C   0  0  0  0  0  0  0  0  0  0  0  0
    3.5277    0.1133   -2.6105 Cl  0  0  0  0  0  0  0  0  0  0  0  0
    1.7943   -0.2183   -0.5861 C   0  0  0  0  0  0  0  0  0  0  0  0
    1.3069    0.0097    0.7028 C   0  0  0  0  0  0  0  0  0  0  0  0
    0.0641   -0.6485    1.1717 C   0  0  0  0  0  0  0  0  0  0  0  0
    0.0889   -1.2387    2.3255 N   0  0  0  0  0  0  0  0  0  0  0  0
   -1.1509   -1.8951    2.7967 C   0  0  0  0  0  0  0  0  0  0  0  0
   -1.9235   -2.5867    1.6784 C   0  0  0  0  0  0  0  0  0  0  0  0
   -2.0607   -1.6477    0.5853 N   0  0  0  0  0  0  0  0  0  0  0  0
   -3.1032   -1.6772   -0.2563 N   0  0  0  0  0  0  0  0  0  0  0  0
   -2.9049   -0.6140   -1.0533 C   0  0  0  0  0  0  0  0  0  0  0  0
   -3.7025   -0.1215   -2.0995 C   0  0  0  0  0  0  0  0  0  0  0  0
   -3.1963    1.0468   -2.7065 C   0  0  0  0  0  0  0  0  0  0  0  0
   -1.9859    1.6849   -2.2984 C   0  0  0  0  0  0  0  0  0  0  0  0
   -1.1598    1.2160   -1.2553 C   0  0  0  0  0  0  0  0  0  0  0  0
   -1.6657    0.0497   -0.6798 C   0  0  0  0  0  0  0  0  0  0  0  0
   -1.1212   -0.6806    0.3511 C   0  0  0  0  0  0  0  0  0  0  0  0
    2.0166    0.8222    1.5898 C   0  0  0  0  0  0  0  0  0  0  0  0
    3.2010    1.4320    1.1720 C   0  0  0  0  0  0  0  0  0  0  0  0
    4.0281    2.4576    2.2949 Cl  0  0  0  0  0  0  0  0  0  0  0  0
    5.4725    2.2315    0.1663 H   0  0  0  0  0  0  0  0  0  0  0  0
    5.3194    1.4982   -1.3633 H   0  0  0  0  0  0  0  0  0  0  0  0
    1.2578   -0.8683   -1.2733 H   0  0  0  0  0  0  0  0  0  0  0  0
   -0.8827   -2.6354    3.5581 H   0  0  0  0  0  0  0  0  0  0  0  0
   -1.7761   -1.1405    3.2903 H   0  0  0  0  0  0  0  0  0  0  0  0
   -1.3801   -3.4532    1.2873 H   0  0  0  0  0  0  0  0  0  0  0  0
   -2.9189   -2.8937    2.0127 H   0  0  0  0  0  0  0  0  0  0  0  0
   -4.6259   -0.5954   -2.4016 H   0  0  0  0  0  0  0  0  0  0  0  0
   -3.7632    1.4915   -3.5249 H   0  0  0  0  0  0  0  0  0  0  0  0
   -1.6865    2.5931   -2.8241 H   0  0  0  0  0  0  0  0  0  0  0  0
   -0.2619    1.7401   -0.9611 H   0  0  0  0  0  0  0  0  0  0  0  0
    1.6416    0.9843    2.5982 H   0  0  0  0  0  0  0  0  0  0  0  0
  1  2  1  0
  2  3  2  0
  3  4  1  0
  3  5  1  0
  5  6  2  0
  6  7  1  0
  7  8  2  0
  8  9  1  0
  9 10  1  0
 10 11  1  0
 11 12  1  0
 12 13  2  0
 13 14  1  0
 14 15  2  0
 15 16  1  0
 16 17  2  0
 17 18  1  0
 18 19  2  0
  6 20  1  0
 20 21  2  0
 21 22  1  0
 21  2  1  0
 19  7  1  0
 19 11  1  0
 18 13  1  0
  1 23  1  0
  1 24  1  0
  5 25  1  0
  9 26  1  0
  9 27  1  0
 10 28  1  0
 10 29  1  0
 14 30  1  0
 15 31  1  0
 16 32  1  0
 17 33  1  0
 20 34  1  0
M  END
$$$$
