
     RDKit          3D

 60 63  0  0  0  0  0  0  0  0999 V2000
   -7.1267    1.4486   -1.6433 C   0  0  0  0  0  0  0  0  0  0  0  0
   -5.8044    1.7802   -0.9561 C   0  0  0  0  0  0  0  0  0  0  0  0
   -5.8206    3.2181   -0.4508 C   0  0  0  0  0  0  0  0  0  0  0  0
   -5.6760    0.8880    0.1567 O   0  0  0  0  0  0  0  0  0  0  0  0
   -4.4538    0.3169    0.3712 C   0  0  0  0  0  0  0  0  0  0  0  0
   -4.4796   -0.9201    1.0106 C   0  0  0  0  0  0  0  0  0  0  0  0
   -3.2900   -1.6011    1.2912 C   0  0  0  0  0  0  0  0  0  0  0  0
   -2.0377   -1.0606    0.9505 C   0  0  0  0  0  0  0  0  0  0  0  0
   -0.7918   -1.8010    1.2427 C   0  0  0  0  0  0  0  0  0  0  0  0
    0.3438   -1.7053    0.4569 C   0  0  0  0  0  0  0  0  0  0  0  0
    1.4680   -2.4557    0.8107 C   0  0  0  0  0  0  0  0  0  0  0  0
    2.6648   -2.3395   -0.0544 C   0  0  0  0  0  0  0  0  0  0  0  0
    3.1753   -3.3308   -0.5594 O   0  0  0  0  0  0  0  0  0  0  0  0
    3.1214   -1.0566   -0.2412 N   0  0  0  0  0  0  0  0  0  0  0  0
    4.1904   -0.7545   -1.1729 C   0  0  0  0  0  0  0  0  0  0  0  0
    4.6633    0.7014   -1.0212 C   0  0  0  0  0  0  0  0  0  0  0  0
    3.5493    1.6761   -1.0064 N   0  0  0  0  0  0  0  0  0  0  0  0
    2.8339    1.6993   -2.3054 C   0  0  0  0  0  0  0  0  0  0  0  0
    2.1214    3.0394   -2.5451 C   0  0  0  0  0  0  0  0  0  0  0  0
    3.0369    4.1389   -2.6441 O   0  0  0  0  0  0  0  0  0  0  0  0
    4.2324    3.9480   -1.8749 C   0  0  0  0  0  0  0  0  0  0  0  0
    4.0254    3.0352   -0.6564 C   0  0  0  0  0  0  0  0  0  0  0  0
    1.4523   -3.3071    1.9345 C   0  0  0  0  0  0  0  0  0  0  0  0
    2.5418   -4.1041    2.3697 C   0  0  0  0  0  0  0  0  0  0  0  0
    2.4390   -4.9070    3.5039 C   0  0  0  0  0  0  0  0  0  0  0  0
    1.2514   -4.9258    4.2199 C   0  0  0  0  0  0  0  0  0  0  0  0
    0.1762   -4.1422    3.7945 C   0  0  0  0  0  0  0  0  0  0  0  0
    0.2530   -3.3340    2.6678 C   0  0  0  0  0  0  0  0  0  0  0  0
   -0.8272   -2.6072    2.3317 N   0  0  0  0  0  0  0  0  0  0  0  0
   -2.0335    0.2058    0.3370 C   0  0  0  0  0  0  0  0  0  0  0  0
   -3.2254    0.8882    0.0517 C   0  0  0  0  0  0  0  0  0  0  0  0
   -7.1327    0.4033   -1.9729 H   0  0  0  0  0  0  0  0  0  0  0  0
   -7.2890    2.0877   -2.5156 H   0  0  0  0  0  0  0  0  0  0  0  0
   -7.9709    1.5674   -0.9564 H   0  0  0  0  0  0  0  0  0  0  0  0
   -5.0070    1.6380   -1.6957 H   0  0  0  0  0  0  0  0  0  0  0  0
   -5.9643    3.9237   -1.2751 H   0  0  0  0  0  0  0  0  0  0  0  0
   -4.8850    3.4678    0.0583 H   0  0  0  0  0  0  0  0  0  0  0  0
   -6.6217    3.3688    0.2802 H   0  0  0  0  0  0  0  0  0  0  0  0
   -5.4316   -1.3659    1.2886 H   0  0  0  0  0  0  0  0  0  0  0  0
   -3.3467   -2.5719    1.7827 H   0  0  0  0  0  0  0  0  0  0  0  0
    0.3559   -1.0928   -0.4378 H   0  0  0  0  0  0  0  0  0  0  0  0
    2.6281   -0.2613    0.1483 H   0  0  0  0  0  0  0  0  0  0  0  0
    3.8126   -0.9450   -2.1840 H   0  0  0  0  0  0  0  0  0  0  0  0
    5.0215   -1.4454   -0.9950 H   0  0  0  0  0  0  0  0  0  0  0  0
    5.1897    0.7661   -0.0603 H   0  0  0  0  0  0  0  0  0  0  0  0
    5.3928    0.9392   -1.8047 H   0  0  0  0  0  0  0  0  0  0  0  0
    2.0962    0.8899   -2.3249 H   0  0  0  0  0  0  0  0  0  0  0  0
    3.5376    1.5388   -3.1328 H   0  0  0  0  0  0  0  0  0  0  0  0
    1.4088    3.2535   -1.7395 H   0  0  0  0  0  0  0  0  0  0  0  0
    1.5522    3.0018   -3.4794 H   0  0  0  0  0  0  0  0  0  0  0  0
    4.5726    4.9368   -1.5507 H   0  0  0  0  0  0  0  0  0  0  0  0
    5.0038    3.5400   -2.5379 H   0  0  0  0  0  0  0  0  0  0  0  0
    4.9388    3.0020   -0.0498 H   0  0  0  0  0  0  0  0  0  0  0  0
    3.2530    3.4848   -0.0192 H   0  0  0  0  0  0  0  0  0  0  0  0
    3.4810   -4.1078    1.8189 H   0  0  0  0  0  0  0  0  0  0  0  0
    3.2825   -5.5145    3.8213 H   0  0  0  0  0  0  0  0  0  0  0  0
    1.1546   -5.5462    5.1068 H   0  0  0  0  0  0  0  0  0  0  0  0
   -0.7519   -4.1619    4.3620 H   0  0  0  0  0  0  0  0  0  0  0  0
   -1.0951    0.6983    0.0925 H   0  0  0  0  0  0  0  0  0  0  0  0
   -3.1591    1.8733   -0.3973 H   0  0  0  0  0  0  0  0  0  0  0  0
  1  2  1  0
  2  3  1  0
  2  4  1  0
  4  5  1  0
  5  6  2  0
  6  7  1  0
  7  8  2  0
  8  9  1  0
  9 10  2  0
 10 11  1  0
 11 12  1  0
 12 13  2  0
 12 14  1  0
 14 15  1  0
 15 16  1  0
 16 17  1  0
 17 18  1  0
 18 19  1  0
 19 20  1  0
 20 21  1  0
 21 22  1  0
 11 23  2  0
 23 24  1  0
 24 25  2  0
 25 26  1  0
 26 27  2  0
 27 28  1  0
 28 29  2  0
  8 30  1  0
 30 31  2  0
 31  5  1  0
 29  9  1  0
 22 17  1  0
 28 23  1  0
  1 32  1  0
  1 33  1  0
  1 34  1  0
  2 35  1  0
  3 36  1  0
  3 37  1  0
  3 38  1  0
  6 39  1  0
  7 40  1  0
 10 41  1  0
 14 42  1  0
 15 43  1  0
 15 44  1  0
 16 45  1  0
 16 46  1  0
 18 47  1  0
 18 48  1  0
 19 49  1  0
 19 50  1  0
 21 51  1  0
 21 52  1  0
 22 53  1  0
 22 54  1  0
 24 55  1  0
 25 56  1  0
 26 57  1  0
 27 58  1  0
 30 59  1  0
 31 60  1  0
M  END
$$$$
