
     RDKit          3D

 55 57  0  0  0  0  0  0  0  0999 V2000
    0.0856   -3.2435    2.1860 C   0  0  0  0  0  0  0  0  0  0  0  0
   -1.3537   -2.8276    1.9429 C   0  0  0  0  0  0  0  0  0  0  0  0
   -1.4800   -1.4304    1.6909 O   0  0  0  0  0  0  0  0  0  0  0  0
   -1.2025   -1.0427    0.3419 C   0  0  0  0  0  0  0  0  0  0  0  0
    0.1978   -1.0628    0.0353 O   0  0  0  0  0  0  0  0  0  0  0  0
    0.9289    0.0208    0.4973 C   0  0  0  0  0  0  0  0  0  0  0  0
    2.4365   -0.0851    0.4492 C   0  0  0  0  0  0  0  0  0  0  0  0
    3.1568    0.8196    0.8507 O   0  0  0  0  0  0  0  0  0  0  0  0
    2.8308   -1.2914   -0.0927 N   0  0  0  0  0  0  0  0  0  0  0  0
    4.1381   -1.7576   -0.3208 C   0  0  0  0  0  0  0  0  0  0  0  0
    4.2731   -3.0378   -0.8732 C   0  0  0  0  0  0  0  0  0  0  0  0
    5.5374   -3.5731   -1.1327 C   0  0  0  0  0  0  0  0  0  0  0  0
    6.6792   -2.8316   -0.8419 C   0  0  0  0  0  0  0  0  0  0  0  0
    6.5543   -1.5575   -0.2924 C   0  0  0  0  0  0  0  0  0  0  0  0
    5.2884   -1.0221   -0.0323 C   0  0  0  0  0  0  0  0  0  0  0  0
    0.3760    1.1489    0.9748 C   0  0  0  0  0  0  0  0  0  0  0  0
   -1.1119    1.3555    1.0161 C   0  0  0  0  0  0  0  0  0  0  0  0
   -1.5930    2.7886    0.8075 C   0  0  0  0  0  0  0  0  0  0  0  0
   -2.8444    3.1669    1.3292 C   0  0  0  0  0  0  0  0  0  0  0  0
   -3.3425    4.4574    1.1400 C   0  0  0  0  0  0  0  0  0  0  0  0
   -2.5991    5.3914    0.4239 C   0  0  0  0  0  0  0  0  0  0  0  0
   -1.3563    5.0370   -0.0956 C   0  0  0  0  0  0  0  0  0  0  0  0
   -0.8564    3.7463    0.0933 C   0  0  0  0  0  0  0  0  0  0  0  0
   -1.8288    0.3435    0.0814 C   0  0  0  0  0  0  0  0  0  0  0  0
   -1.7338    0.6893   -1.4316 C   0  0  0  0  0  0  0  0  0  0  0  0
   -3.1056    0.7923   -2.1100 C   0  0  0  0  0  0  0  0  0  0  0  0
   -3.8317   -0.5463   -2.2029 C   0  0  0  0  0  0  0  0  0  0  0  0
   -5.0428   -0.3939   -2.9304 O   0  0  0  0  0  0  0  0  0  0  0  0
    0.6675   -3.2224    1.2606 H   0  0  0  0  0  0  0  0  0  0  0  0
    0.1262   -4.2641    2.5796 H   0  0  0  0  0  0  0  0  0  0  0  0
    0.5735   -2.5673    2.8952 H   0  0  0  0  0  0  0  0  0  0  0  0
   -1.9311   -3.0306    2.8512 H   0  0  0  0  0  0  0  0  0  0  0  0
   -1.8085   -3.4162    1.1377 H   0  0  0  0  0  0  0  0  0  0  0  0
   -1.6853   -1.7642   -0.3285 H   0  0  0  0  0  0  0  0  0  0  0  0
    2.0714   -1.9116   -0.3499 H   0  0  0  0  0  0  0  0  0  0  0  0
    3.3973   -3.6365   -1.1082 H   0  0  0  0  0  0  0  0  0  0  0  0
    5.6301   -4.5684   -1.5575 H   0  0  0  0  0  0  0  0  0  0  0  0
    7.6647   -3.2439   -1.0409 H   0  0  0  0  0  0  0  0  0  0  0  0
    7.4419   -0.9735   -0.0633 H   0  0  0  0  0  0  0  0  0  0  0  0
    5.2355   -0.0257    0.3948 H   0  0  0  0  0  0  0  0  0  0  0  0
    1.0118    1.9410    1.3679 H   0  0  0  0  0  0  0  0  0  0  0  0
   -1.3889    1.1147    2.0545 H   0  0  0  0  0  0  0  0  0  0  0  0
   -3.4423    2.4525    1.8911 H   0  0  0  0  0  0  0  0  0  0  0  0
   -4.3114    4.7327    1.5484 H   0  0  0  0  0  0  0  0  0  0  0  0
   -2.9854    6.3959    0.2745 H   0  0  0  0  0  0  0  0  0  0  0  0
   -0.7738    5.7639   -0.6544 H   0  0  0  0  0  0  0  0  0  0  0  0
    0.1117    3.4991   -0.3367 H   0  0  0  0  0  0  0  0  0  0  0  0
   -2.8829    0.3125    0.3882 H   0  0  0  0  0  0  0  0  0  0  0  0
   -1.2130    1.6385   -1.5929 H   0  0  0  0  0  0  0  0  0  0  0  0
   -1.1395   -0.0607   -1.9705 H   0  0  0  0  0  0  0  0  0  0  0  0
   -3.7369    1.5237   -1.5885 H   0  0  0  0  0  0  0  0  0  0  0  0
   -2.9728    1.1909   -3.1240 H   0  0  0  0  0  0  0  0  0  0  0  0
   -3.2152   -1.2840   -2.7264 H   0  0  0  0  0  0  0  0  0  0  0  0
   -4.0770   -0.9470   -1.2148 H   0  0  0  0  0  0  0  0  0  0  0  0
   -5.5678    0.2969   -2.4912 H   0  0  0  0  0  0  0  0  0  0  0  0
  1  2  1  0
  2  3  1  0
  3  4  1  0
  4  5  1  0
  5  6  1  0
  6  7  1  0
  7  8  2  0
  7  9  1  0
  9 10  1  0
 10 11  2  0
 11 12  1  0
 12 13  2  0
 13 14  1  0
 14 15  2  0
  6 16  2  0
 16 17  1  0
 17 18  1  0
 18 19  2  0
 19 20  1  0
 20 21  2  0
 21 22  1  0
 22 23  2  0
 17 24  1  0
 24 25  1  0
 25 26  1  0
 26 27  1  0
 27 28  1  0
 24  4  1  0
 15 10  1  0
 23 18  1  0
  1 29  1  0
  1 30  1  0
  1 31  1  0
  2 32  1  0
  2 33  1  0
  4 34  1  0
  9 35  1  0
 11 36  1  0
 12 37  1  0
 13 38  1  0
 14 39  1  0
 15 40  1  0
 16 41  1  0
 17 42  1  0
 19 43  1  0
 20 44  1  0
 21 45  1  0
 22 46  1  0
 23 47  1  0
 24 48  1  0
 25 49  1  0
 25 50  1  0
 26 51  1  0
 26 52  1  0
 27 53  1  0
 27 54  1  0
 28 55  1  0
M  END
$$$$
