
     RDKit          3D

 46 49  0  0  0  0  0  0  0  0999 V2000
    0.2129   -1.4284    2.4779 O   0  0  0  0  0  0  0  0  0  0  0  0
    0.6754   -1.5953    1.3490 C   0  0  0  0  0  0  0  0  0  0  0  0
    2.0328   -2.2701    1.1802 C   0  0  0  0  0  0  0  0  0  0  0  0
    2.6948   -2.3048   -0.5141 S   0  0  0  0  0  0  0  0  0  0  0  0
    3.1863   -0.6000   -0.6556 C   0  0  0  0  0  0  0  0  0  0  0  0
    2.1959    0.1822   -1.1677 N   0  0  0  0  0  0  0  0  0  0  0  0
    2.4662    1.4897   -1.3749 C   0  0  0  0  0  0  0  0  0  0  0  0
    3.6895    2.0708   -1.1010 C   0  0  0  0  0  0  0  0  0  0  0  0
    4.6958    1.2633   -0.5809 C   0  0  0  0  0  0  0  0  0  0  0  0
    4.4508   -0.0982   -0.3505 C   0  0  0  0  0  0  0  0  0  0  0  0
    5.5144   -0.9371    0.2350 C   0  0  0  0  0  0  0  0  0  0  0  0
    5.3814   -1.8588    1.0148 O   0  0  0  0  0  0  0  0  0  0  0  0
    6.7333   -0.5551   -0.1917 O   0  0  0  0  0  0  0  0  0  0  0  0
    0.0079   -1.2310    0.2031 N   0  0  0  0  0  0  0  0  0  0  0  0
   -1.2618   -0.5013    0.1612 C   0  0  0  0  0  0  0  0  0  0  0  0
   -2.4044   -1.2808    0.8604 C   0  0  0  0  0  0  0  0  0  0  0  0
   -3.7325   -0.5107    0.7502 C   0  0  0  0  0  0  0  0  0  0  0  0
   -4.0947   -0.3303   -0.7320 C   0  0  0  0  0  0  0  0  0  0  0  0
   -2.9876    0.4569   -1.4494 C   0  0  0  0  0  0  0  0  0  0  0  0
   -2.8322    1.8356   -0.7885 C   0  0  0  0  0  0  0  0  0  0  0  0
   -2.4643    1.6689    0.6944 C   0  0  0  0  0  0  0  0  0  0  0  0
   -3.5712    0.8718    1.4053 C   0  0  0  0  0  0  0  0  0  0  0  0
   -1.1353    0.9011    0.8052 C   0  0  0  0  0  0  0  0  0  0  0  0
   -1.6629   -0.3124   -1.3274 C   0  0  0  0  0  0  0  0  0  0  0  0
    2.7470   -1.7769    1.8468 H   0  0  0  0  0  0  0  0  0  0  0  0
    1.9194   -3.3082    1.5088 H   0  0  0  0  0  0  0  0  0  0  0  0
    1.6455    2.0752   -1.7815 H   0  0  0  0  0  0  0  0  0  0  0  0
    3.8572    3.1267   -1.2855 H   0  0  0  0  0  0  0  0  0  0  0  0
    5.6659    1.6984   -0.3511 H   0  0  0  0  0  0  0  0  0  0  0  0
    7.3473   -1.1852    0.2430 H   0  0  0  0  0  0  0  0  0  0  0  0
    0.6135   -1.1164   -0.6093 H   0  0  0  0  0  0  0  0  0  0  0  0
   -2.1801   -1.4455    1.9203 H   0  0  0  0  0  0  0  0  0  0  0  0
   -2.5113   -2.2769    0.4111 H   0  0  0  0  0  0  0  0  0  0  0  0
   -4.5261   -1.0699    1.2582 H   0  0  0  0  0  0  0  0  0  0  0  0
   -5.0508    0.1996   -0.8228 H   0  0  0  0  0  0  0  0  0  0  0  0
   -4.2272   -1.3098   -1.2077 H   0  0  0  0  0  0  0  0  0  0  0  0
   -3.2477    0.5809   -2.5065 H   0  0  0  0  0  0  0  0  0  0  0  0
   -3.7663    2.4030   -0.8813 H   0  0  0  0  0  0  0  0  0  0  0  0
   -2.0558    2.4137   -1.3046 H   0  0  0  0  0  0  0  0  0  0  0  0
   -2.3604    2.6545    1.1618 H   0  0  0  0  0  0  0  0  0  0  0  0
   -3.3262    0.7566    2.4683 H   0  0  0  0  0  0  0  0  0  0  0  0
   -4.5189    1.4219    1.3549 H   0  0  0  0  0  0  0  0  0  0  0  0
   -0.3345    1.4710    0.3168 H   0  0  0  0  0  0  0  0  0  0  0  0
   -0.8536    0.8215    1.8620 H   0  0  0  0  0  0  0  0  0  0  0  0
   -0.8737    0.2293   -1.8661 H   0  0  0  0  0  0  0  0  0  0  0  0
   -1.7536   -1.2896   -1.8205 H   0  0  0  0  0  0  0  0  0  0  0  0
  1  2  2  0
  2  3  1  0
  3  4  1  0
  4  5  1  0
  5  6  2  0
  6  7  1  0
  7  8  2  0
  8  9  1  0
  9 10  2  0
 10 11  1  0
 11 12  2  0
 11 13  1  0
  2 14  1  0
 14 15  1  0
 15 16  1  0
 16 17  1  0
 17 18  1  0
 18 19  1  0
 19 20  1  0
 20 21  1  0
 21 22  1  0
 21 23  1  0
 19 24  1  0
 10  5  1  0
 23 15  1  0
 24 15  1  0
 22 17  1  0
  3 25  1  0
  3 26  1  0
  7 27  1  0
  8 28  1  0
  9 29  1  0
 13 30  1  0
 14 31  1  0
 16 32  1  0
 16 33  1  0
 17 34  1  0
 18 35  1  0
 18 36  1  0
 19 37  1  0
 20 38  1  0
 20 39  1  0
 21 40  1  0
 22 41  1  0
 22 42  1  0
 23 43  1  0
 23 44  1  0
 24 45  1  0
 24 46  1  0
M  END
$$$$
