
     RDKit          3D

 52 55  0  0  0  0  0  0  0  0999 V2000
   -4.7761    1.6070    3.1337 C   0  0  0  0  0  0  0  0  0  0  0  0
   -4.2158    0.2639    2.6896 C   0  0  0  0  0  0  0  0  0  0  0  0
   -4.9875   -0.3403    1.5132 C   0  0  0  0  0  0  0  0  0  0  0  0
   -4.6215    0.2351    0.1382 C   0  0  0  0  0  0  0  0  0  0  0  0
   -3.3284   -0.3066   -0.3721 C   0  0  0  0  0  0  0  0  0  0  0  0
   -3.2295   -1.5520   -0.8101 N   0  0  0  0  0  0  0  0  0  0  0  0
   -1.9554   -1.7750   -1.2351 N   0  0  0  0  0  0  0  0  0  0  0  0
   -1.2781   -0.6681   -1.0421 C   0  0  0  0  0  0  0  0  0  0  0  0
    0.1073   -0.4159   -1.3343 C   0  0  0  0  0  0  0  0  0  0  0  0
    0.8966   -1.4676   -1.8743 N   0  0  0  0  0  0  0  0  0  0  0  0
    0.6110   -2.9014   -1.6421 C   0  0  0  0  0  0  0  0  0  0  0  0
    2.3462   -1.1569   -2.7051 S   0  0  0  0  0  6  0  0  0  0  0  0
    2.6023   -2.2770   -3.5920 O   0  0  0  0  0  0  0  0  0  0  0  0
    2.3581    0.1900   -3.2345 O   0  0  0  0  0  0  0  0  0  0  0  0
    3.5534   -1.2343   -1.3956 C   0  0  0  0  0  0  0  0  0  0  0  0
    3.8213   -0.0911   -0.6398 C   0  0  0  0  0  0  0  0  0  0  0  0
    4.7795   -0.1434    0.3738 C   0  0  0  0  0  0  0  0  0  0  0  0
    5.4920   -1.3255    0.6188 C   0  0  0  0  0  0  0  0  0  0  0  0
    6.5013   -1.3865    1.7275 C   0  0  0  0  0  0  0  0  0  0  0  0
    5.2215   -2.4625   -0.1548 C   0  0  0  0  0  0  0  0  0  0  0  0
    4.2623   -2.4174   -1.1678 C   0  0  0  0  0  0  0  0  0  0  0  0
    0.6185    0.7468   -1.0873 N   0  0  0  0  0  0  0  0  0  0  0  0
   -0.1942    1.7618   -0.5458 C   0  0  0  0  0  0  0  0  0  0  0  0
    0.4090    3.0019   -0.3168 C   0  0  0  0  0  0  0  0  0  0  0  0
   -0.3175    4.0556    0.2314 C   0  0  0  0  0  0  0  0  0  0  0  0
   -1.6583    3.8731    0.5545 C   0  0  0  0  0  0  0  0  0  0  0  0
   -2.2820    2.6423    0.3262 C   0  0  0  0  0  0  0  0  0  0  0  0
   -1.5586    1.5864   -0.2255 C   0  0  0  0  0  0  0  0  0  0  0  0
   -2.0909    0.3062   -0.5032 N   0  0  0  0  0  0  0  0  0  0  0  0
   -4.7504    2.3468    2.3306 H   0  0  0  0  0  0  0  0  0  0  0  0
   -5.8152    1.5035    3.4640 H   0  0  0  0  0  0  0  0  0  0  0  0
   -4.1937    1.9982    3.9744 H   0  0  0  0  0  0  0  0  0  0  0  0
   -4.2875   -0.4253    3.5399 H   0  0  0  0  0  0  0  0  0  0  0  0
   -3.1504    0.3600    2.4541 H   0  0  0  0  0  0  0  0  0  0  0  0
   -6.0634   -0.2024    1.6807 H   0  0  0  0  0  0  0  0  0  0  0  0
   -4.8171   -1.4249    1.5083 H   0  0  0  0  0  0  0  0  0  0  0  0
   -5.3951   -0.1038   -0.5659 H   0  0  0  0  0  0  0  0  0  0  0  0
   -4.6993    1.3183    0.1147 H   0  0  0  0  0  0  0  0  0  0  0  0
    0.2210   -3.0542   -0.6309 H   0  0  0  0  0  0  0  0  0  0  0  0
   -0.1110   -3.2621   -2.3801 H   0  0  0  0  0  0  0  0  0  0  0  0
    1.5065   -3.5253   -1.7100 H   0  0  0  0  0  0  0  0  0  0  0  0
    3.2910    0.8392   -0.8334 H   0  0  0  0  0  0  0  0  0  0  0  0
    4.9724    0.7477    0.9668 H   0  0  0  0  0  0  0  0  0  0  0  0
    6.9580   -0.4053    1.8953 H   0  0  0  0  0  0  0  0  0  0  0  0
    6.0201   -1.7147    2.6541 H   0  0  0  0  0  0  0  0  0  0  0  0
    7.3102   -2.0829    1.4813 H   0  0  0  0  0  0  0  0  0  0  0  0
    5.7638   -3.3886    0.0239 H   0  0  0  0  0  0  0  0  0  0  0  0
    4.0802   -3.3025   -1.7721 H   0  0  0  0  0  0  0  0  0  0  0  0
    1.4558    3.1441   -0.5755 H   0  0  0  0  0  0  0  0  0  0  0  0
    0.1631    5.0157    0.4041 H   0  0  0  0  0  0  0  0  0  0  0  0
   -2.2243    4.6968    0.9844 H   0  0  0  0  0  0  0  0  0  0  0  0
   -3.3214    2.5731    0.6005 H   0  0  0  0  0  0  0  0  0  0  0  0
  1  2  1  0
  2  3  1  0
  3  4  1  0
  4  5  1  0
  5  6  2  0
  6  7  1  0
  7  8  2  0
  8  9  1  0
  9 10  1  0
 10 11  1  0
 10 12  1  0
 12 13  2  0
 12 14  2  0
 12 15  1  0
 15 16  2  0
 16 17  1  0
 17 18  2  0
 18 19  1  0
 18 20  1  0
 20 21  2  0
  9 22  2  0
 22 23  1  0
 23 24  2  0
 24 25  1  0
 25 26  2  0
 26 27  1  0
 27 28  2  0
 28 29  1  0
 29  5  1  0
 29  8  1  0
 21 15  1  0
 28 23  1  0
  1 30  1  0
  1 31  1  0
  1 32  1  0
  2 33  1  0
  2 34  1  0
  3 35  1  0
  3 36  1  0
  4 37  1  0
  4 38  1  0
 11 39  1  0
 11 40  1  0
 11 41  1  0
 16 42  1  0
 17 43  1  0
 19 44  1  0
 19 45  1  0
 19 46  1  0
 20 47  1  0
 21 48  1  0
 24 49  1  0
 25 50  1  0
 26 51  1  0
 27 52  1  0
M  END
$$$$
