
     RDKit          3D

 36 37  0  0  0  0  0  0  0  0999 V2000
   -7.0039    1.4254    0.3313 C   0  0  0  0  0  0  0  0  0  0  0  0
   -5.6352    0.8207    0.5302 C   0  0  0  0  0  0  0  0  0  0  0  0
   -5.4188    0.0584    1.4645 O   0  0  0  0  0  0  0  0  0  0  0  0
   -4.7406    1.2202   -0.4468 N   0  0  0  0  0  0  0  0  0  0  0  0
   -3.3857    0.8501   -0.5734 C   0  0  0  0  0  0  0  0  0  0  0  0
   -2.6584    1.4298   -1.6178 C   0  0  0  0  0  0  0  0  0  0  0  0
   -1.3054    1.1206   -1.8054 C   0  0  0  0  0  0  0  0  0  0  0  0
   -0.6537    0.2184   -0.9577 C   0  0  0  0  0  0  0  0  0  0  0  0
    0.7115   -0.0327   -1.2096 N   0  0  0  0  0  0  0  0  0  0  0  0
    1.5423   -0.9270   -0.5475 C   0  0  0  0  0  0  0  0  0  0  0  0
    1.2045   -1.7022    0.3420 O   0  0  0  0  0  0  0  0  0  0  0  0
    2.9752   -0.8900   -1.0685 C   0  0  0  0  0  0  0  0  0  0  0  0
    4.0073   -0.8437    0.0352 C   0  0  0  0  0  0  0  0  0  0  0  0
    4.5731   -2.0325    0.5270 C   0  0  0  0  0  0  0  0  0  0  0  0
    5.5176   -1.9924    1.5552 C   0  0  0  0  0  0  0  0  0  0  0  0
    5.8900   -0.7671    2.0964 C   0  0  0  0  0  0  0  0  0  0  0  0
    6.7964   -0.7291    3.0834 F   0  0  0  0  0  0  0  0  0  0  0  0
    5.3330    0.4207    1.6325 C   0  0  0  0  0  0  0  0  0  0  0  0
    4.3891    0.3839    0.6030 C   0  0  0  0  0  0  0  0  0  0  0  0
   -1.3806   -0.3625    0.0800 C   0  0  0  0  0  0  0  0  0  0  0  0
   -2.7354   -0.0482    0.2713 C   0  0  0  0  0  0  0  0  0  0  0  0
   -7.5462    1.4172    1.2813 H   0  0  0  0  0  0  0  0  0  0  0  0
   -6.9274    2.4639   -0.0046 H   0  0  0  0  0  0  0  0  0  0  0  0
   -7.5577    0.8375   -0.4068 H   0  0  0  0  0  0  0  0  0  0  0  0
   -5.0882    1.8725   -1.1383 H   0  0  0  0  0  0  0  0  0  0  0  0
   -3.1288    2.1343   -2.2993 H   0  0  0  0  0  0  0  0  0  0  0  0
   -0.7760    1.5966   -2.6266 H   0  0  0  0  0  0  0  0  0  0  0  0
    1.1155    0.4887   -1.9766 H   0  0  0  0  0  0  0  0  0  0  0  0
    3.1296   -0.0289   -1.7309 H   0  0  0  0  0  0  0  0  0  0  0  0
    3.1245   -1.7803   -1.6932 H   0  0  0  0  0  0  0  0  0  0  0  0
    4.2702   -2.9972    0.1221 H   0  0  0  0  0  0  0  0  0  0  0  0
    5.9555   -2.9084    1.9409 H   0  0  0  0  0  0  0  0  0  0  0  0
    5.6321    1.3649    2.0796 H   0  0  0  0  0  0  0  0  0  0  0  0
    3.9512    1.3183    0.2551 H   0  0  0  0  0  0  0  0  0  0  0  0
   -0.9277   -1.0644    0.7746 H   0  0  0  0  0  0  0  0  0  0  0  0
   -3.2489   -0.5319    1.0973 H   0  0  0  0  0  0  0  0  0  0  0  0
  1  2  1  0
  2  3  2  0
  2  4  1  0
  4  5  1  0
  5  6  2  0
  6  7  1  0
  7  8  2  0
  8  9  1  0
  9 10  1  0
 10 11  2  0
 10 12  1  0
 12 13  1  0
 13 14  2  0
 14 15  1  0
 15 16  2  0
 16 17  1  0
 16 18  1  0
 18 19  2  0
  8 20  1  0
 20 21  2  0
 21  5  1  0
 19 13  1  0
  1 22  1  0
  1 23  1  0
  1 24  1  0
  4 25  1  0
  6 26  1  0
  7 27  1  0
  9 28  1  0
 12 29  1  0
 12 30  1  0
 14 31  1  0
 15 32  1  0
 18 33  1  0
 19 34  1  0
 20 35  1  0
 21 36  1  0
M  END
$$$$
