
     RDKit          3D

 38 39  0  0  0  0  0  0  0  0999 V2000
   -3.1739   -1.6730    2.9026 C   0  0  0  0  0  0  0  0  0  0  0  0
   -3.2055   -0.4883    2.0561 N   0  0  0  0  0  0  0  0  0  0  0  0
   -3.4619   -0.8581    0.6617 C   0  0  0  0  0  0  0  0  0  0  0  0
   -3.4380    0.3629   -0.2329 C   0  0  0  0  0  0  0  0  0  0  0  0
   -4.6296    1.0772   -0.4472 C   0  0  0  0  0  0  0  0  0  0  0  0
   -4.6449    2.2090   -1.2596 C   0  0  0  0  0  0  0  0  0  0  0  0
   -3.4682    2.6430   -1.8619 C   0  0  0  0  0  0  0  0  0  0  0  0
   -2.2717    1.9542   -1.6447 C   0  0  0  0  0  0  0  0  0  0  0  0
   -2.2447    0.8213   -0.8234 C   0  0  0  0  0  0  0  0  0  0  0  0
   -1.1209    0.0927   -0.5375 O   0  0  0  0  0  0  0  0  0  0  0  0
    0.1311    0.6143   -0.9534 C   0  0  0  0  0  0  0  0  0  0  0  0
    1.2910   -0.2337   -0.4121 C   0  0  0  0  0  0  0  0  0  0  0  0
    1.1152   -1.1843    0.3432 O   0  0  0  0  0  0  0  0  0  0  0  0
    2.5189    0.2225   -0.8814 N   0  0  0  0  0  0  0  0  0  0  0  0
    3.7971   -0.3038   -0.5984 C   0  0  0  0  0  0  0  0  0  0  0  0
    4.0262   -1.4044    0.2286 C   0  0  0  0  0  0  0  0  0  0  0  0
    5.3287   -1.8617    0.4567 C   0  0  0  0  0  0  0  0  0  0  0  0
    6.4126   -1.2238   -0.1403 C   0  0  0  0  0  0  0  0  0  0  0  0
    6.1962   -0.1256   -0.9672 C   0  0  0  0  0  0  0  0  0  0  0  0
    4.8953    0.3318   -1.1947 C   0  0  0  0  0  0  0  0  0  0  0  0
   -4.1379   -2.1921    2.8911 H   0  0  0  0  0  0  0  0  0  0  0  0
   -2.9715   -1.3758    3.9363 H   0  0  0  0  0  0  0  0  0  0  0  0
   -2.3878   -2.3697    2.5936 H   0  0  0  0  0  0  0  0  0  0  0  0
   -2.2867   -0.0433    2.0848 H   0  0  0  0  0  0  0  0  0  0  0  0
   -4.4447   -1.3396    0.5766 H   0  0  0  0  0  0  0  0  0  0  0  0
   -2.7309   -1.5953    0.3058 H   0  0  0  0  0  0  0  0  0  0  0  0
   -5.5506    0.7502    0.0308 H   0  0  0  0  0  0  0  0  0  0  0  0
   -5.5735    2.7509   -1.4181 H   0  0  0  0  0  0  0  0  0  0  0  0
   -3.4799    3.5246   -2.4976 H   0  0  0  0  0  0  0  0  0  0  0  0
   -1.3804    2.3296   -2.1345 H   0  0  0  0  0  0  0  0  0  0  0  0
    0.1925    0.6019   -2.0483 H   0  0  0  0  0  0  0  0  0  0  0  0
    0.2690    1.6318   -0.5674 H   0  0  0  0  0  0  0  0  0  0  0  0
    2.5051    1.0247   -1.4976 H   0  0  0  0  0  0  0  0  0  0  0  0
    3.2136   -1.9350    0.7146 H   0  0  0  0  0  0  0  0  0  0  0  0
    5.4908   -2.7200    1.1041 H   0  0  0  0  0  0  0  0  0  0  0  0
    7.4227   -1.5825    0.0404 H   0  0  0  0  0  0  0  0  0  0  0  0
    7.0394    0.3760   -1.4349 H   0  0  0  0  0  0  0  0  0  0  0  0
    4.7577    1.1914   -1.8452 H   0  0  0  0  0  0  0  0  0  0  0  0
  1  2  1  0
  2  3  1  0
  3  4  1  0
  4  5  2  0
  5  6  1  0
  6  7  2  0
  7  8  1  0
  8  9  2  0
  9 10  1  0
 10 11  1  0
 11 12  1  0
 12 13  2  0
 12 14  1  0
 14 15  1  0
 15 16  2  0
 16 17  1  0
 17 18  2  0
 18 19  1  0
 19 20  2  0
  9  4  1  0
 20 15  1  0
  1 21  1  0
  1 22  1  0
  1 23  1  0
  2 24  1  0
  3 25  1  0
  3 26  1  0
  5 27  1  0
  6 28  1  0
  7 29  1  0
  8 30  1  0
 11 31  1  0
 11 32  1  0
 14 33  1  0
 16 34  1  0
 17 35  1  0
 18 36  1  0
 19 37  1  0
 20 38  1  0
M  END
$$$$
