
     RDKit          3D

 42 45  0  0  0  0  0  0  0  0999 V2000
    7.8182   -0.6889   -1.1379 O   0  0  0  0  0  0  0  0  0  0  0  0
    6.9924   -1.4030   -0.5967 C   0  0  0  0  0  0  0  0  0  0  0  0
    7.2907   -2.6731   -0.2668 O   0  0  0  0  0  0  0  0  0  0  0  0
    5.5671   -1.0519   -0.2777 C   0  0  0  0  0  0  0  0  0  0  0  0
    5.4012    0.4678   -0.1630 C   0  0  0  0  0  0  0  0  0  0  0  0
    5.8409    0.9312    1.2293 C   0  0  0  0  0  0  0  0  0  0  0  0
    6.8353    0.5493    1.8272 O   0  0  0  0  0  0  0  0  0  0  0  0
    5.0607    1.8866    1.7779 O   0  0  0  0  0  0  0  0  0  0  0  0
    4.0237    0.9406   -0.4542 N   0  0  0  0  0  0  0  0  0  0  0  0
    2.9504    0.3300    0.1726 C   0  0  0  0  0  0  0  0  0  0  0  0
    3.0195   -0.6205    0.9398 O   0  0  0  0  0  0  0  0  0  0  0  0
    1.6719    1.0058   -0.1806 C   0  0  0  0  0  0  0  0  0  0  0  0
    0.5080    0.5156    0.2641 C   0  0  0  0  0  0  0  0  0  0  0  0
   -0.7945    1.0292    0.0091 C   0  0  0  0  0  0  0  0  0  0  0  0
   -1.2670    2.2960   -0.3025 C   0  0  0  0  0  0  0  0  0  0  0  0
   -2.6760    2.2198   -0.4310 C   0  0  0  0  0  0  0  0  0  0  0  0
   -3.0392    0.9098   -0.1796 C   0  0  0  0  0  0  0  0  0  0  0  0
   -4.3404    0.2904   -0.1732 C   0  0  0  0  0  0  0  0  0  0  0  0
   -4.5010   -0.9874    0.0976 N   0  0  0  0  0  0  0  0  0  0  0  0
   -5.8418   -1.3236    0.0362 C   0  0  0  0  0  0  0  0  0  0  0  0
   -6.3846   -2.6035    0.2686 C   0  0  0  0  0  0  0  0  0  0  0  0
   -7.7658   -2.8019    0.1720 C   0  0  0  0  0  0  0  0  0  0  0  0
   -8.6084   -1.7433   -0.1523 C   0  0  0  0  0  0  0  0  0  0  0  0
   -8.0948   -0.4640   -0.3876 C   0  0  0  0  0  0  0  0  0  0  0  0
   -6.7060   -0.2768   -0.2876 C   0  0  0  0  0  0  0  0  0  0  0  0
   -5.7830    1.1571   -0.5157 S   0  0  0  0  0  0  0  0  0  0  0  0
   -1.8949    0.2064    0.0953 O   0  0  0  0  0  0  0  0  0  0  0  0
    1.9930    2.3541   -1.1859 S   0  0  0  0  0  0  0  0  0  0  0  0
    3.7316    2.0890   -1.1624 C   0  0  0  0  0  0  0  0  0  0  0  0
    4.7791    3.1315   -1.9362 S   0  0  0  0  0  0  0  0  0  0  0  0
    8.2343   -2.7783   -0.5122 H   0  0  0  0  0  0  0  0  0  0  0  0
    5.2956   -1.5516    0.6590 H   0  0  0  0  0  0  0  0  0  0  0  0
    4.9488   -1.4536   -1.0883 H   0  0  0  0  0  0  0  0  0  0  0  0
    6.0777    0.9683   -0.8606 H   0  0  0  0  0  0  0  0  0  0  0  0
    5.4898    2.0791    2.6400 H   0  0  0  0  0  0  0  0  0  0  0  0
    0.5226   -0.3967    0.8598 H   0  0  0  0  0  0  0  0  0  0  0  0
   -0.6737    3.1923   -0.4157 H   0  0  0  0  0  0  0  0  0  0  0  0
   -3.3436    3.0356   -0.6715 H   0  0  0  0  0  0  0  0  0  0  0  0
   -5.7226   -3.4260    0.5213 H   0  0  0  0  0  0  0  0  0  0  0  0
   -8.1800   -3.7913    0.3522 H   0  0  0  0  0  0  0  0  0  0  0  0
   -9.6811   -1.9115   -0.2242 H   0  0  0  0  0  0  0  0  0  0  0  0
   -8.7539    0.3609   -0.6406 H   0  0  0  0  0  0  0  0  0  0  0  0
  1  2  2  0
  2  3  1  0
  2  4  1  0
  4  5  1  0
  5  6  1  0
  6  7  2  0
  6  8  1  0
  5  9  1  0
  9 10  1  0
 10 11  2  0
 10 12  1  0
 12 13  2  3
 13 14  1  0
 14 15  2  0
 15 16  1  0
 16 17  2  0
 17 18  1  0
 18 19  2  0
 19 20  1  0
 20 21  2  0
 21 22  1  0
 22 23  2  0
 23 24  1  0
 24 25  2  0
 25 26  1  0
 17 27  1  0
 12 28  1  0
 28 29  1  0
 29 30  2  0
 29  9  1  0
 27 14  1  0
 26 18  1  0
 25 20  1  0
  3 31  1  0
  4 32  1  0
  4 33  1  0
  5 34  1  0
  8 35  1  0
 13 36  1  0
 15 37  1  0
 16 38  1  0
 21 39  1  0
 22 40  1  0
 23 41  1  0
 24 42  1  0
M  END
$$$$
