
     RDKit          3D

 50 52  0  0  0  0  0  0  0  0999 V2000
    0.9310   -1.1650   -1.5920 O   0  0  0  0  0  0  0  0  0  0  0  0
    1.7911   -0.1866   -0.9816 C   0  0  0  0  0  0  0  0  0  0  0  0
    2.9512   -0.9373   -0.3087 C   0  0  0  0  0  0  0  0  0  0  0  0
    3.6310   -1.7488   -1.2771 O   0  0  0  0  0  0  0  0  0  0  0  0
    4.6611   -1.0620   -1.9934 C   0  0  0  0  0  0  0  0  0  0  0  0
    5.9209   -1.1033   -1.1854 C   0  0  0  0  0  0  0  0  0  0  0  0
    6.5593   -0.0608   -0.5404 C   0  0  0  0  0  0  0  0  0  0  0  0
    7.7471   -0.4797    0.1260 C   0  0  0  0  0  0  0  0  0  0  0  0
    7.9810   -1.8262   -0.0369 C   0  0  0  0  0  0  0  0  0  0  0  0
    6.7771   -2.5767   -0.9904 S   0  0  0  0  0  0  0  0  0  0  0  0
    0.9994    0.6426    0.0542 C   0  0  0  0  0  0  0  0  0  0  0  0
    0.2135    1.7607   -0.5144 N   0  0  0  0  0  0  0  0  0  0  0  0
   -0.4946    2.5047    0.5570 C   0  0  0  0  0  0  0  0  0  0  0  0
   -1.7034    1.7769    1.2014 C   0  0  0  0  0  0  0  0  0  0  0  0
   -2.6470    1.2817    0.1707 N   0  0  0  0  0  0  0  0  0  0  0  0
   -3.8566    0.7896    0.6843 C   0  0  0  0  0  0  0  0  0  0  0  0
   -4.6774    1.6277    1.4576 C   0  0  0  0  0  0  0  0  0  0  0  0
   -5.8944    1.1891    1.9871 C   0  0  0  0  0  0  0  0  0  0  0  0
   -6.3296   -0.1087    1.7445 C   0  0  0  0  0  0  0  0  0  0  0  0
   -5.5558   -0.9692    0.9582 C   0  0  0  0  0  0  0  0  0  0  0  0
   -6.0029   -2.3844    0.6957 C   0  0  0  0  0  0  0  0  0  0  0  0
   -5.4586   -3.2709    1.5749 F   0  0  0  0  0  0  0  0  0  0  0  0
   -5.6616   -2.8323   -0.5452 F   0  0  0  0  0  0  0  0  0  0  0  0
   -7.3528   -2.5493    0.7889 F   0  0  0  0  0  0  0  0  0  0  0  0
   -4.3285   -0.5090    0.4401 C   0  0  0  0  0  0  0  0  0  0  0  0
   -1.9828    0.5191   -0.9113 C   0  0  0  0  0  0  0  0  0  0  0  0
   -0.8060    1.3295   -1.5009 C   0  0  0  0  0  0  0  0  0  0  0  0
    1.5298   -1.8293   -1.9880 H   0  0  0  0  0  0  0  0  0  0  0  0
    2.1736    0.4548   -1.7827 H   0  0  0  0  0  0  0  0  0  0  0  0
    3.6421   -0.2558    0.1984 H   0  0  0  0  0  0  0  0  0  0  0  0
    2.5507   -1.6312    0.4388 H   0  0  0  0  0  0  0  0  0  0  0  0
    4.8086   -1.5854   -2.9445 H   0  0  0  0  0  0  0  0  0  0  0  0
    4.3646   -0.0345   -2.2299 H   0  0  0  0  0  0  0  0  0  0  0  0
    6.1918    0.9585   -0.5434 H   0  0  0  0  0  0  0  0  0  0  0  0
    8.3981    0.1731    0.6945 H   0  0  0  0  0  0  0  0  0  0  0  0
    8.8032   -2.4088    0.3556 H   0  0  0  0  0  0  0  0  0  0  0  0
    0.3624   -0.0335    0.6362 H   0  0  0  0  0  0  0  0  0  0  0  0
    1.7222    1.0882    0.7495 H   0  0  0  0  0  0  0  0  0  0  0  0
    0.2148    2.7973    1.3410 H   0  0  0  0  0  0  0  0  0  0  0  0
   -0.8540    3.4474    0.1225 H   0  0  0  0  0  0  0  0  0  0  0  0
   -2.1852    2.4912    1.8781 H   0  0  0  0  0  0  0  0  0  0  0  0
   -1.3528    0.9360    1.8127 H   0  0  0  0  0  0  0  0  0  0  0  0
   -4.3847    2.6603    1.6325 H   0  0  0  0  0  0  0  0  0  0  0  0
   -6.5021    1.8682    2.5796 H   0  0  0  0  0  0  0  0  0  0  0  0
   -7.2778   -0.4436    2.1613 H   0  0  0  0  0  0  0  0  0  0  0  0
   -3.7392   -1.2051   -0.1527 H   0  0  0  0  0  0  0  0  0  0  0  0
   -1.6204   -0.4450   -0.5359 H   0  0  0  0  0  0  0  0  0  0  0  0
   -2.6956    0.3261   -1.7226 H   0  0  0  0  0  0  0  0  0  0  0  0
   -1.2154    2.2368   -1.9670 H   0  0  0  0  0  0  0  0  0  0  0  0
   -0.3463    0.7823   -2.3295 H   0  0  0  0  0  0  0  0  0  0  0  0
  1  2  1  0
  2  3  1  0
  3  4  1  0
  4  5  1  0
  5  6  1  0
  6  7  2  0
  7  8  1  0
  8  9  2  0
  9 10  1  0
  2 11  1  0
 11 12  1  0
 12 13  1  0
 13 14  1  0
 14 15  1  0
 15 16  1  0
 16 17  2  0
 17 18  1  0
 18 19  2  0
 19 20  1  0
 20 21  1  0
 21 22  1  0
 21 23  1  0
 21 24  1  0
 20 25  2  0
 15 26  1  0
 26 27  1  0
 10  6  1  0
 27 12  1  0
 25 16  1  0
  1 28  1  0
  2 29  1  0
  3 30  1  0
  3 31  1  0
  5 32  1  0
  5 33  1  0
  7 34  1  0
  8 35  1  0
  9 36  1  0
 11 37  1  0
 11 38  1  0
 13 39  1  0
 13 40  1  0
 14 41  1  0
 14 42  1  0
 17 43  1  0
 18 44  1  0
 19 45  1  0
 25 46  1  0
 26 47  1  0
 26 48  1  0
 27 49  1  0
 27 50  1  0
M  END
$$$$
