
     RDKit          3D

 40 43  0  0  0  0  0  0  0  0999 V2000
   -1.1714    3.5990   -2.4870 C   0  0  0  0  0  0  0  0  0  0  0  0
   -0.6447    2.9113   -1.4640 C   0  0  0  0  0  0  0  0  0  0  0  0
   -1.2179    2.8993   -0.0720 C   0  0  0  0  0  0  0  0  0  0  0  0
   -1.8640    1.6106    0.1755 N   0  0  0  0  0  0  0  0  0  0  0  0
   -1.2015    0.4919    0.6573 C   0  0  0  0  0  0  0  0  0  0  0  0
    0.5103    0.6186    1.0205 S   0  0  0  0  0  0  0  0  0  0  0  0
    1.0345   -1.0627    0.5734 C   0  0  0  0  0  0  0  0  0  0  0  0
    2.5456   -1.1450    0.5840 C   0  0  0  0  0  0  0  0  0  0  0  0
    3.1941   -1.6651    1.6408 C   0  0  0  0  0  0  0  0  0  0  0  0
    4.6696   -1.7497    1.6222 C   0  0  0  0  0  0  0  0  0  0  0  0
    5.2685   -2.2235    2.5837 O   0  0  0  0  0  0  0  0  0  0  0  0
    5.2488   -1.2725    0.4739 N   0  0  0  0  0  0  0  0  0  0  0  0
    6.6042   -1.2478    0.2250 C   0  0  0  0  0  0  0  0  0  0  0  0
    6.9265   -0.7419   -0.9715 C   0  0  0  0  0  0  0  0  0  0  0  0
    5.5091   -0.2605   -1.8651 S   0  0  0  0  0  0  0  0  0  0  0  0
    4.4697   -0.7753   -0.5456 C   0  0  0  0  0  0  0  0  0  0  0  0
    3.1834   -0.6948   -0.5561 N   0  0  0  0  0  0  0  0  0  0  0  0
   -1.7631   -0.6527    0.8769 N   0  0  0  0  0  0  0  0  0  0  0  0
   -3.1258   -0.7921    0.6052 C   0  0  0  0  0  0  0  0  0  0  0  0
   -3.7378   -2.0258    0.8396 C   0  0  0  0  0  0  0  0  0  0  0  0
   -5.0994   -2.2059    0.5809 C   0  0  0  0  0  0  0  0  0  0  0  0
   -5.8609   -1.1489    0.0820 C   0  0  0  0  0  0  0  0  0  0  0  0
   -5.2605    0.0868   -0.1533 C   0  0  0  0  0  0  0  0  0  0  0  0
   -3.8958    0.2558    0.1127 C   0  0  0  0  0  0  0  0  0  0  0  0
   -3.2286    1.5497   -0.1103 C   0  0  0  0  0  0  0  0  0  0  0  0
   -3.8995    2.4959   -0.5184 O   0  0  0  0  0  0  0  0  0  0  0  0
   -0.7077    3.5838   -3.4693 H   0  0  0  0  0  0  0  0  0  0  0  0
   -2.0836    4.1794   -2.3705 H   0  0  0  0  0  0  0  0  0  0  0  0
    0.2687    2.3431   -1.6295 H   0  0  0  0  0  0  0  0  0  0  0  0
   -0.4272    3.0959    0.6576 H   0  0  0  0  0  0  0  0  0  0  0  0
   -1.9438    3.7127    0.0519 H   0  0  0  0  0  0  0  0  0  0  0  0
    0.6607   -1.3200   -0.4242 H   0  0  0  0  0  0  0  0  0  0  0  0
    0.6054   -1.7795    1.2838 H   0  0  0  0  0  0  0  0  0  0  0  0
    2.6933   -2.0207    2.5333 H   0  0  0  0  0  0  0  0  0  0  0  0
    7.2949   -1.6197    0.9718 H   0  0  0  0  0  0  0  0  0  0  0  0
    7.9299   -0.6328   -1.3609 H   0  0  0  0  0  0  0  0  0  0  0  0
   -3.1477   -2.8523    1.2290 H   0  0  0  0  0  0  0  0  0  0  0  0
   -5.5638   -3.1708    0.7705 H   0  0  0  0  0  0  0  0  0  0  0  0
   -6.9203   -1.2876   -0.1203 H   0  0  0  0  0  0  0  0  0  0  0  0
   -5.8522    0.9138   -0.5397 H   0  0  0  0  0  0  0  0  0  0  0  0
  1  2  2  0
  2  3  1  0
  3  4  1  0
  4  5  1  0
  5  6  1  0
  6  7  1  0
  7  8  1  0
  8  9  2  0
  9 10  1  0
 10 11  2  0
 10 12  1  0
 12 13  1  0
 13 14  2  0
 14 15  1  0
 15 16  1  0
 16 17  2  0
  5 18  2  0
 18 19  1  0
 19 20  2  0
 20 21  1  0
 21 22  2  0
 22 23  1  0
 23 24  2  0
 24 25  1  0
 25 26  2  0
 25  4  1  0
 17  8  1  0
 24 19  1  0
 16 12  1  0
  1 27  1  0
  1 28  1  0
  2 29  1  0
  3 30  1  0
  3 31  1  0
  7 32  1  0
  7 33  1  0
  9 34  1  0
 13 35  1  0
 14 36  1  0
 20 37  1  0
 21 38  1  0
 22 39  1  0
 23 40  1  0
M  END
$$$$
