
     RDKit          3D

 47 48  0  0  0  0  0  0  0  0999 V2000
    4.6159    2.9135    2.5190 C   0  0  0  0  0  0  0  0  0  0  0  0
    3.5997    1.8044    2.3287 C   0  0  0  0  0  0  0  0  0  0  0  0
    3.7354    1.3019    0.9952 O   0  0  0  0  0  0  0  0  0  0  0  0
    2.8769    0.2895    0.6829 C   0  0  0  0  0  0  0  0  0  0  0  0
    2.0470   -0.1655    1.4610 O   0  0  0  0  0  0  0  0  0  0  0  0
    3.0315   -0.2064   -0.6869 C   0  0  0  0  0  0  0  0  0  0  0  0
    4.0089    0.1555   -1.6125 C   0  0  0  0  0  0  0  0  0  0  0  0
    5.1283    1.1348   -1.5351 C   0  0  0  0  0  0  0  0  0  0  0  0
    3.8293   -0.6055   -2.7413 N   0  0  0  0  0  0  0  0  0  0  0  0
    2.7580   -1.4428   -2.5826 C   0  0  0  0  0  0  0  0  0  0  0  0
    2.3517   -2.3990   -3.6468 C   0  0  0  0  0  0  0  0  0  0  0  0
    2.2169   -1.2060   -1.3274 C   0  0  0  0  0  0  0  0  0  0  0  0
    1.0420   -1.9084   -0.8020 C   0  0  0  0  0  0  0  0  0  0  0  0
    1.0496   -3.1340   -0.6851 O   0  0  0  0  0  0  0  0  0  0  0  0
   -0.2060   -1.0670   -0.5341 C   0  0  0  0  0  0  0  0  0  0  0  0
   -1.2611   -1.8722   -0.0045 O   0  0  0  0  0  0  0  0  0  0  0  0
   -2.4201   -1.1970    0.1853 C   0  0  0  0  0  0  0  0  0  0  0  0
   -2.6102   -0.0220   -0.0712 O   0  0  0  0  0  0  0  0  0  0  0  0
   -3.3991   -2.1546    0.7505 C   0  0  0  0  0  0  0  0  0  0  0  0
   -4.6537   -1.8792    1.1398 C   0  0  0  0  0  0  0  0  0  0  0  0
   -5.3191   -0.5752    1.1192 C   0  0  0  0  0  0  0  0  0  0  0  0
   -6.3978   -0.3660    0.2517 C   0  0  0  0  0  0  0  0  0  0  0  0
   -7.0611    0.8641    0.2364 C   0  0  0  0  0  0  0  0  0  0  0  0
   -6.6491    1.8834    1.0929 C   0  0  0  0  0  0  0  0  0  0  0  0
   -7.4672    3.3973    1.0747 Cl  0  0  0  0  0  0  0  0  0  0  0  0
   -5.5821    1.6831    1.9662 C   0  0  0  0  0  0  0  0  0  0  0  0
   -4.9198    0.4526    1.9818 C   0  0  0  0  0  0  0  0  0  0  0  0
    4.4545    3.7143    1.7895 H   0  0  0  0  0  0  0  0  0  0  0  0
    4.5502    3.3339    3.5262 H   0  0  0  0  0  0  0  0  0  0  0  0
    5.6316    2.5370    2.3581 H   0  0  0  0  0  0  0  0  0  0  0  0
    3.7898    1.0009    3.0492 H   0  0  0  0  0  0  0  0  0  0  0  0
    2.5887    2.2009    2.4741 H   0  0  0  0  0  0  0  0  0  0  0  0
    4.7421    2.1464   -1.3754 H   0  0  0  0  0  0  0  0  0  0  0  0
    5.7178    1.1461   -2.4580 H   0  0  0  0  0  0  0  0  0  0  0  0
    5.8044    0.8808   -0.7126 H   0  0  0  0  0  0  0  0  0  0  0  0
    4.4157   -0.5663   -3.5663 H   0  0  0  0  0  0  0  0  0  0  0  0
    2.7031   -3.4069   -3.4039 H   0  0  0  0  0  0  0  0  0  0  0  0
    2.7683   -2.1157   -4.6193 H   0  0  0  0  0  0  0  0  0  0  0  0
    1.2619   -2.4264   -3.7470 H   0  0  0  0  0  0  0  0  0  0  0  0
   -0.5221   -0.6400   -1.4936 H   0  0  0  0  0  0  0  0  0  0  0  0
    0.0223   -0.2654    0.1709 H   0  0  0  0  0  0  0  0  0  0  0  0
   -3.0408   -3.1773    0.8321 H   0  0  0  0  0  0  0  0  0  0  0  0
   -5.2745   -2.6924    1.5110 H   0  0  0  0  0  0  0  0  0  0  0  0
   -6.7241   -1.1540   -0.4227 H   0  0  0  0  0  0  0  0  0  0  0  0
   -7.8931    1.0196   -0.4449 H   0  0  0  0  0  0  0  0  0  0  0  0
   -5.2570    2.4774    2.6321 H   0  0  0  0  0  0  0  0  0  0  0  0
   -4.0835    0.3081    2.6619 H   0  0  0  0  0  0  0  0  0  0  0  0
  1  2  1  0
  2  3  1  0
  3  4  1  0
  4  5  2  0
  4  6  1  0
  6  7  2  0
  7  8  1  0
  7  9  1  0
  9 10  1  0
 10 11  1  0
 10 12  2  0
 12 13  1  0
 13 14  2  0
 13 15  1  0
 15 16  1  0
 16 17  1  0
 17 18  2  0
 17 19  1  0
 19 20  2  3
 20 21  1  0
 21 22  2  0
 22 23  1  0
 23 24  2  0
 24 25  1  0
 24 26  1  0
 26 27  2  0
 12  6  1  0
 27 21  1  0
  1 28  1  0
  1 29  1  0
  1 30  1  0
  2 31  1  0
  2 32  1  0
  8 33  1  0
  8 34  1  0
  8 35  1  0
  9 36  1  0
 11 37  1  0
 11 38  1  0
 11 39  1  0
 15 40  1  0
 15 41  1  0
 19 42  1  0
 20 43  1  0
 22 44  1  0
 23 45  1  0
 26 46  1  0
 27 47  1  0
M  END
$$$$
