
     RDKit          3D

 55 58  0  0  0  0  0  0  0  0999 V2000
   -4.2262   -3.9419    3.4056 C   0  0  0  0  0  0  0  0  0  0  0  0
   -3.1946   -2.9865    3.8202 N   0  0  0  0  0  0  0  0  0  0  0  0
   -2.2177   -3.5122    4.7726 C   0  0  0  0  0  0  0  0  0  0  0  0
   -2.7648   -2.0783    2.8428 C   0  0  0  0  0  0  0  0  0  0  0  0
   -1.4261   -1.6961    2.6903 C   0  0  0  0  0  0  0  0  0  0  0  0
   -1.0226   -0.7693    1.7149 C   0  0  0  0  0  0  0  0  0  0  0  0
   -1.9410   -0.1584    0.8550 C   0  0  0  0  0  0  0  0  0  0  0  0
   -1.5068    0.7865   -0.0876 N   0  0  0  0  0  0  0  0  0  0  0  0
   -0.5145    0.4960   -1.0355 C   0  0  0  0  0  0  0  0  0  0  0  0
    0.2749   -0.5265   -1.0456 N   0  0  0  0  0  0  0  0  0  0  0  0
    1.1448   -0.6840   -2.0907 C   0  0  0  0  0  0  0  0  0  0  0  0
    0.8022   -1.0593   -3.2069 O   0  0  0  0  0  0  0  0  0  0  0  0
    2.5902   -0.4346   -1.7125 C   0  0  0  0  0  0  0  0  0  0  0  0
    3.4810   -0.3361   -2.9461 C   0  0  0  0  0  0  0  0  0  0  0  0
    4.9086   -0.0237   -2.5699 C   0  0  0  0  0  0  0  0  0  0  0  0
    5.7858   -1.0518   -2.1997 C   0  0  0  0  0  0  0  0  0  0  0  0
    7.0996   -0.7608   -1.8301 C   0  0  0  0  0  0  0  0  0  0  0  0
    7.5473    0.5593   -1.8249 C   0  0  0  0  0  0  0  0  0  0  0  0
    6.6816    1.5895   -2.1880 C   0  0  0  0  0  0  0  0  0  0  0  0
    5.3669    1.3007   -2.5570 C   0  0  0  0  0  0  0  0  0  0  0  0
   -0.4752    1.8021   -2.2766 S   0  0  0  0  0  0  0  0  0  0  0  0
   -1.4884    2.8576   -1.2287 C   0  0  0  0  0  0  0  0  0  0  0  0
   -2.4073    3.9051   -1.8053 C   0  0  0  0  0  0  0  0  0  0  0  0
   -3.5392    4.1702   -0.4280 S   0  0  0  0  0  6  0  0  0  0  0  0
   -4.8932    4.0184   -0.9154 O   0  0  0  0  0  0  0  0  0  0  0  0
   -3.1044    5.3353    0.3107 O   0  0  0  0  0  0  0  0  0  0  0  0
   -3.1069    2.6997    0.5177 C   0  0  0  0  0  0  0  0  0  0  0  0
   -2.4087    1.8507   -0.5272 C   0  0  0  0  0  0  0  0  0  0  0  0
   -3.2801   -0.5295    1.0022 C   0  0  0  0  0  0  0  0  0  0  0  0
   -3.6788   -1.4618    1.9750 C   0  0  0  0  0  0  0  0  0  0  0  0
   -5.1829   -3.4453    3.2106 H   0  0  0  0  0  0  0  0  0  0  0  0
   -4.4225   -4.6736    4.1985 H   0  0  0  0  0  0  0  0  0  0  0  0
   -3.9138   -4.4967    2.5127 H   0  0  0  0  0  0  0  0  0  0  0  0
   -1.4945   -4.1714    4.2796 H   0  0  0  0  0  0  0  0  0  0  0  0
   -2.7193   -4.0899    5.5578 H   0  0  0  0  0  0  0  0  0  0  0  0
   -1.6872   -2.7007    5.2849 H   0  0  0  0  0  0  0  0  0  0  0  0
   -0.6460   -2.1211    3.3143 H   0  0  0  0  0  0  0  0  0  0  0  0
    0.0351   -0.5236    1.6479 H   0  0  0  0  0  0  0  0  0  0  0  0
    2.6438    0.4958   -1.1335 H   0  0  0  0  0  0  0  0  0  0  0  0
    2.9162   -1.2555   -1.0624 H   0  0  0  0  0  0  0  0  0  0  0  0
    3.4536   -1.2733   -3.5174 H   0  0  0  0  0  0  0  0  0  0  0  0
    3.1027    0.4364   -3.6287 H   0  0  0  0  0  0  0  0  0  0  0  0
    5.4501   -2.0866   -2.1990 H   0  0  0  0  0  0  0  0  0  0  0  0
    7.7744   -1.5643   -1.5461 H   0  0  0  0  0  0  0  0  0  0  0  0
    8.5711    0.7849   -1.5385 H   0  0  0  0  0  0  0  0  0  0  0  0
    7.0312    2.6188   -2.1843 H   0  0  0  0  0  0  0  0  0  0  0  0
    4.7032    2.1153   -2.8377 H   0  0  0  0  0  0  0  0  0  0  0  0
   -0.8065    3.3264   -0.5045 H   0  0  0  0  0  0  0  0  0  0  0  0
   -2.9879    3.5428   -2.6582 H   0  0  0  0  0  0  0  0  0  0  0  0
   -1.8998    4.8405   -2.0498 H   0  0  0  0  0  0  0  0  0  0  0  0
   -2.4439    2.9936    1.3366 H   0  0  0  0  0  0  0  0  0  0  0  0
   -4.0203    2.2529    0.9146 H   0  0  0  0  0  0  0  0  0  0  0  0
   -3.1496    1.4421   -1.2327 H   0  0  0  0  0  0  0  0  0  0  0  0
   -4.0532   -0.1275    0.3539 H   0  0  0  0  0  0  0  0  0  0  0  0
   -4.7405   -1.6801    2.0498 H   0  0  0  0  0  0  0  0  0  0  0  0
  1  2  1  0
  2  3  1  0
  2  4  1  0
  4  5  2  0
  5  6  1  0
  6  7  2  0
  7  8  1  0
  8  9  1  0
  9 10  2  3
 10 11  1  0
 11 12  2  0
 11 13  1  0
 13 14  1  0
 14 15  1  0
 15 16  2  0
 16 17  1  0
 17 18  2  0
 18 19  1  0
 19 20  2  0
  9 21  1  0
 21 22  1  0
 22 23  1  0
 23 24  1  0
 24 25  2  0
 24 26  2  0
 24 27  1  0
 27 28  1  0
  7 29  1  0
 29 30  2  0
 30  4  1  0
 28  8  1  0
 20 15  1  0
 28 22  1  0
  1 31  1  0
  1 32  1  0
  1 33  1  0
  3 34  1  0
  3 35  1  0
  3 36  1  0
  5 37  1  0
  6 38  1  0
 13 39  1  0
 13 40  1  0
 14 41  1  0
 14 42  1  0
 16 43  1  0
 17 44  1  0
 18 45  1  0
 19 46  1  0
 20 47  1  0
 22 48  1  0
 23 49  1  0
 23 50  1  0
 27 51  1  0
 27 52  1  0
 28 53  1  0
 29 54  1  0
 30 55  1  0
M  END
$$$$
