
     RDKit          3D

 35 37  0  0  0  0  0  0  0  0999 V2000
    0.1978    1.4083    1.1313 O   0  0  0  0  0  0  0  0  0  0  0  0
    0.2263    1.1572   -0.0704 C   0  0  0  0  0  0  0  0  0  0  0  0
    1.3401    1.3476   -0.8585 N   0  0  0  0  0  0  0  0  0  0  0  0
    2.6206    1.7186   -0.3164 C   0  0  0  0  0  0  0  0  0  0  0  0
    3.4752    0.5005   -0.0740 C   0  0  0  0  0  0  0  0  0  0  0  0
    3.3676   -0.2092    1.1334 C   0  0  0  0  0  0  0  0  0  0  0  0
    4.1390   -1.3509    1.3532 C   0  0  0  0  0  0  0  0  0  0  0  0
    5.0123   -1.7877    0.3649 C   0  0  0  0  0  0  0  0  0  0  0  0
    5.7523   -2.8842    0.5754 F   0  0  0  0  0  0  0  0  0  0  0  0
    5.1268   -1.1064   -0.8412 C   0  0  0  0  0  0  0  0  0  0  0  0
    4.3559    0.0359   -1.0639 C   0  0  0  0  0  0  0  0  0  0  0  0
   -0.9288    0.6177   -0.7949 C   0  0  0  0  0  0  0  0  0  0  0  0
   -0.8691    0.3498   -2.1188 N   0  0  0  0  0  0  0  0  0  0  0  0
   -2.1229   -0.1332   -2.4736 O   0  0  0  0  0  0  0  0  0  0  0  0
   -2.9049   -0.1468   -1.3756 C   0  0  0  0  0  0  0  0  0  0  0  0
   -2.2122    0.3043   -0.2839 C   0  0  0  0  0  0  0  0  0  0  0  0
   -2.8253    0.4060    1.0626 C   0  0  0  0  0  0  0  0  0  0  0  0
   -4.1426   -0.4033    1.1207 C   0  0  0  0  0  0  0  0  0  0  0  0
   -5.0205   -0.2111   -0.1376 C   0  0  0  0  0  0  0  0  0  0  0  0
   -4.2976   -0.6299   -1.4364 C   0  0  0  0  0  0  0  0  0  0  0  0
    1.2813    1.0012   -1.8104 H   0  0  0  0  0  0  0  0  0  0  0  0
    3.1039    2.3845   -1.0398 H   0  0  0  0  0  0  0  0  0  0  0  0
    2.4952    2.2863    0.6126 H   0  0  0  0  0  0  0  0  0  0  0  0
    2.6753    0.1255    1.9049 H   0  0  0  0  0  0  0  0  0  0  0  0
    4.0606   -1.9020    2.2847 H   0  0  0  0  0  0  0  0  0  0  0  0
    5.8120   -1.4708   -1.5998 H   0  0  0  0  0  0  0  0  0  0  0  0
    4.4454    0.5600   -2.0128 H   0  0  0  0  0  0  0  0  0  0  0  0
   -2.1395    0.0403    1.8343 H   0  0  0  0  0  0  0  0  0  0  0  0
   -3.0382    1.4598    1.2786 H   0  0  0  0  0  0  0  0  0  0  0  0
   -4.7061   -0.1153    2.0154 H   0  0  0  0  0  0  0  0  0  0  0  0
   -3.9059   -1.4705    1.2222 H   0  0  0  0  0  0  0  0  0  0  0  0
   -5.3045    0.8472   -0.2067 H   0  0  0  0  0  0  0  0  0  0  0  0
   -5.9492   -0.7841   -0.0365 H   0  0  0  0  0  0  0  0  0  0  0  0
   -4.8221   -0.2230   -2.3068 H   0  0  0  0  0  0  0  0  0  0  0  0
   -4.2982   -1.7224   -1.5214 H   0  0  0  0  0  0  0  0  0  0  0  0
  1  2  2  0
  2  3  1  0
  3  4  1  0
  4  5  1  0
  5  6  2  0
  6  7  1  0
  7  8  2  0
  8  9  1  0
  8 10  1  0
 10 11  2  0
  2 12  1  0
 12 13  2  0
 13 14  1  0
 14 15  1  0
 15 16  2  0
 16 17  1  0
 17 18  1  0
 18 19  1  0
 19 20  1  0
 11  5  1  0
 16 12  1  0
 20 15  1  0
  3 21  1  0
  4 22  1  0
  4 23  1  0
  6 24  1  0
  7 25  1  0
 10 26  1  0
 11 27  1  0
 17 28  1  0
 17 29  1  0
 18 30  1  0
 18 31  1  0
 19 32  1  0
 19 33  1  0
 20 34  1  0
 20 35  1  0
M  END
$$$$
