
     RDKit          3D

 39 42  0  0  0  0  0  0  0  0999 V2000
    0.5223   -2.5113    1.8484 N   0  0  0  0  0  0  0  0  0  0  0  0
    0.3859   -2.6218    0.7005 C   0  0  0  0  0  0  0  0  0  0  0  0
    0.1908   -2.7473   -0.7502 C   0  0  0  0  0  0  0  0  0  0  0  0
   -1.2831   -1.8556   -1.3449 S   0  0  0  0  0  0  0  0  0  0  0  0
   -0.8365   -0.2268   -0.8438 C   0  0  0  0  0  0  0  0  0  0  0  0
    0.3663    0.1329   -1.1677 N   0  0  0  0  0  0  0  0  0  0  0  0
    0.7908    1.3342   -0.7005 C   0  0  0  0  0  0  0  0  0  0  0  0
    0.0621    2.1531    0.0517 C   0  0  0  0  0  0  0  0  0  0  0  0
    0.8682    3.5994    0.4850 S   0  0  0  0  0  0  0  0  0  0  0  0
    2.3220    3.0693   -0.3961 C   0  0  0  0  0  0  0  0  0  0  0  0
    3.7069    3.9905   -0.4857 S   0  0  0  0  0  0  0  0  0  0  0  0
    2.0622    1.8169   -0.9609 N   0  0  0  0  0  0  0  0  0  0  0  0
    3.0483    1.0086   -1.6802 C   0  0  0  0  0  0  0  0  0  0  0  0
    3.8168    0.1716   -0.7166 C   0  0  0  0  0  0  0  0  0  0  0  0
    5.0397    0.3250   -0.0946 C   0  0  0  0  0  0  0  0  0  0  0  0
    5.2122   -0.8070    0.7367 C   0  0  0  0  0  0  0  0  0  0  0  0
    4.0906   -1.5826    0.5659 C   0  0  0  0  0  0  0  0  0  0  0  0
    3.2441   -1.0057   -0.3255 O   0  0  0  0  0  0  0  0  0  0  0  0
   -1.3109    1.7872    0.4182 C   0  0  0  0  0  0  0  0  0  0  0  0
   -1.9989    2.5576    1.0850 O   0  0  0  0  0  0  0  0  0  0  0  0
   -1.7313    0.5502   -0.0978 N   0  0  0  0  0  0  0  0  0  0  0  0
   -3.0916    0.1677    0.1508 C   0  0  0  0  0  0  0  0  0  0  0  0
   -3.9486   -0.1923   -0.9030 C   0  0  0  0  0  0  0  0  0  0  0  0
   -5.2767   -0.5471   -0.6502 C   0  0  0  0  0  0  0  0  0  0  0  0
   -5.7559   -0.5313    0.6532 C   0  0  0  0  0  0  0  0  0  0  0  0
   -7.0287   -0.8713    0.8925 F   0  0  0  0  0  0  0  0  0  0  0  0
   -4.9349   -0.1590    1.7088 C   0  0  0  0  0  0  0  0  0  0  0  0
   -3.6072    0.1970    1.4578 C   0  0  0  0  0  0  0  0  0  0  0  0
    1.0743   -2.4054   -1.2971 H   0  0  0  0  0  0  0  0  0  0  0  0
    0.0542   -3.8031   -1.0064 H   0  0  0  0  0  0  0  0  0  0  0  0
    2.5502    0.3832   -2.4297 H   0  0  0  0  0  0  0  0  0  0  0  0
    3.7317    1.6645   -2.2294 H   0  0  0  0  0  0  0  0  0  0  0  0
    5.7174    1.1597   -0.2142 H   0  0  0  0  0  0  0  0  0  0  0  0
    6.0462   -1.0270    1.3884 H   0  0  0  0  0  0  0  0  0  0  0  0
    3.7606   -2.5215    0.9888 H   0  0  0  0  0  0  0  0  0  0  0  0
   -3.6089   -0.1718   -1.9358 H   0  0  0  0  0  0  0  0  0  0  0  0
   -5.9414   -0.8249   -1.4622 H   0  0  0  0  0  0  0  0  0  0  0  0
   -5.3304   -0.1421    2.7196 H   0  0  0  0  0  0  0  0  0  0  0  0
   -2.9791    0.4862    2.2985 H   0  0  0  0  0  0  0  0  0  0  0  0
  1  2  3  0
  2  3  1  0
  3  4  1  0
  4  5  1  0
  5  6  2  0
  6  7  1  0
  7  8  2  0
  8  9  1  0
  9 10  1  0
 10 11  2  0
 10 12  1  0
 12 13  1  0
 13 14  1  0
 14 15  2  0
 15 16  1  0
 16 17  2  0
 17 18  1  0
  8 19  1  0
 19 20  2  0
 19 21  1  0
 21 22  1  0
 22 23  2  0
 23 24  1  0
 24 25  2  0
 25 26  1  0
 25 27  1  0
 27 28  2  0
 21  5  1  0
 28 22  1  0
 12  7  1  0
 18 14  1  0
  3 29  1  0
  3 30  1  0
 13 31  1  0
 13 32  1  0
 15 33  1  0
 16 34  1  0
 17 35  1  0
 23 36  1  0
 24 37  1  0
 27 38  1  0
 28 39  1  0
M  END
$$$$
