
     RDKit          3D

 41 43  0  0  0  0  0  0  0  0999 V2000
    4.6295   -2.0924    1.8458 C   0  0  0  0  0  0  0  0  0  0  0  0
    5.3531   -1.1997    1.0056 O   0  0  0  0  0  0  0  0  0  0  0  0
    4.7065   -0.7610   -0.1219 C   0  0  0  0  0  0  0  0  0  0  0  0
    3.4197   -1.1193   -0.5290 C   0  0  0  0  0  0  0  0  0  0  0  0
    2.8736   -0.5805   -1.7044 C   0  0  0  0  0  0  0  0  0  0  0  0
    1.5414   -0.9655   -2.1852 C   0  0  0  0  0  0  0  0  0  0  0  0
    0.3709   -0.8172   -1.5485 C   0  0  0  0  0  0  0  0  0  0  0  0
   -1.1363   -1.2893   -2.2726 S   0  0  0  0  0  0  0  0  0  0  0  0
   -2.0660   -0.7055   -0.9165 C   0  0  0  0  0  0  0  0  0  0  0  0
   -3.3525   -0.7609   -0.9043 N   0  0  0  0  0  0  0  0  0  0  0  0
   -4.0728   -0.2766    0.2047 C   0  0  0  0  0  0  0  0  0  0  0  0
   -4.8298   -1.1995    0.9354 C   0  0  0  0  0  0  0  0  0  0  0  0
   -5.5918   -0.7907    2.0292 C   0  0  0  0  0  0  0  0  0  0  0  0
   -5.6085    0.5517    2.3982 C   0  0  0  0  0  0  0  0  0  0  0  0
   -4.8706    1.4903    1.6713 C   0  0  0  0  0  0  0  0  0  0  0  0
   -4.1073    1.0888    0.5684 C   0  0  0  0  0  0  0  0  0  0  0  0
   -3.3382    1.9356   -0.1918 O   0  0  0  0  0  0  0  0  0  0  0  0
   -3.5068    3.3308    0.0144 C   0  0  0  0  0  0  0  0  0  0  0  0
   -1.2368   -0.2387    0.0508 N   0  0  0  0  0  0  0  0  0  0  0  0
    0.1043   -0.2261   -0.2038 C   0  0  0  0  0  0  0  0  0  0  0  0
    0.9335    0.2111    0.5778 O   0  0  0  0  0  0  0  0  0  0  0  0
    3.6374    0.3009   -2.4834 C   0  0  0  0  0  0  0  0  0  0  0  0
    4.9248    0.6582   -2.0858 C   0  0  0  0  0  0  0  0  0  0  0  0
    5.4436    0.1264   -0.9140 C   0  0  0  0  0  0  0  0  0  0  0  0
    6.7099    0.4917   -0.5447 O   0  0  0  0  0  0  0  0  0  0  0  0
    4.4037   -3.0278    1.3237 H   0  0  0  0  0  0  0  0  0  0  0  0
    3.7182   -1.6254    2.2359 H   0  0  0  0  0  0  0  0  0  0  0  0
    5.2674   -2.3357    2.7008 H   0  0  0  0  0  0  0  0  0  0  0  0
    2.8187   -1.8059    0.0586 H   0  0  0  0  0  0  0  0  0  0  0  0
    1.5490   -1.3890   -3.1882 H   0  0  0  0  0  0  0  0  0  0  0  0
   -4.8285   -2.2458    0.6397 H   0  0  0  0  0  0  0  0  0  0  0  0
   -6.1757   -1.5193    2.5869 H   0  0  0  0  0  0  0  0  0  0  0  0
   -6.2013    0.8700    3.2526 H   0  0  0  0  0  0  0  0  0  0  0  0
   -4.9121    2.5254    1.9947 H   0  0  0  0  0  0  0  0  0  0  0  0
   -4.5509    3.6310   -0.1198 H   0  0  0  0  0  0  0  0  0  0  0  0
   -2.9089    3.8531   -0.7377 H   0  0  0  0  0  0  0  0  0  0  0  0
   -3.1334    3.6266    0.9989 H   0  0  0  0  0  0  0  0  0  0  0  0
   -1.5888    0.1822    0.8953 H   0  0  0  0  0  0  0  0  0  0  0  0
    3.2325    0.7227   -3.4016 H   0  0  0  0  0  0  0  0  0  0  0  0
    5.5170    1.3441   -2.6808 H   0  0  0  0  0  0  0  0  0  0  0  0
    6.8624    0.0314    0.3028 H   0  0  0  0  0  0  0  0  0  0  0  0
  1  2  1  0
  2  3  1  0
  3  4  2  0
  4  5  1  0
  5  6  1  0
  6  7  2  3
  7  8  1  0
  8  9  1  0
  9 10  2  3
 10 11  1  0
 11 12  2  0
 12 13  1  0
 13 14  2  0
 14 15  1  0
 15 16  2  0
 16 17  1  0
 17 18  1  0
  9 19  1  0
 19 20  1  0
 20 21  2  0
  5 22  2  0
 22 23  1  0
 23 24  2  0
 24 25  1  0
 24  3  1  0
 20  7  1  0
 16 11  1  0
  1 26  1  0
  1 27  1  0
  1 28  1  0
  4 29  1  0
  6 30  1  0
 12 31  1  0
 13 32  1  0
 14 33  1  0
 15 34  1  0
 18 35  1  0
 18 36  1  0
 18 37  1  0
 19 38  1  0
 22 39  1  0
 23 40  1  0
 25 41  1  0
M  END
$$$$
