
     RDKit          3D

 47 49  0  0  0  0  0  0  0  0999 V2000
    1.0955    0.8413   -2.9202 O   0  0  0  0  0  0  0  0  0  0  0  0
    0.8850    0.7580   -1.7156 C   0  0  0  0  0  0  0  0  0  0  0  0
    1.6208    1.6196   -0.7048 C   0  0  0  0  0  0  0  0  0  0  0  0
    2.5988    2.5615   -1.3960 C   0  0  0  0  0  0  0  0  0  0  0  0
    3.4464    3.6509   -0.1939 S   0  0  0  0  0  0  0  0  0  0  0  0
    4.5027    2.4737    0.6312 C   0  0  0  0  0  0  0  0  0  0  0  0
    5.4564    1.7286   -0.0692 C   0  0  0  0  0  0  0  0  0  0  0  0
    6.2709    0.8152    0.6039 C   0  0  0  0  0  0  0  0  0  0  0  0
    6.1426    0.6488    1.9817 C   0  0  0  0  0  0  0  0  0  0  0  0
    5.2051    1.3996    2.6887 C   0  0  0  0  0  0  0  0  0  0  0  0
    4.3909    2.3133    2.0159 C   0  0  0  0  0  0  0  0  0  0  0  0
   -0.0231   -0.0815   -1.0978 N   0  0  0  0  0  0  0  0  0  0  0  0
   -0.8381   -1.0816   -1.6847 C   0  0  0  0  0  0  0  0  0  0  0  0
   -0.7468   -1.4354   -3.0348 C   0  0  0  0  0  0  0  0  0  0  0  0
   -1.5190   -2.4805   -3.5559 C   0  0  0  0  0  0  0  0  0  0  0  0
   -2.3853   -3.1960   -2.7340 C   0  0  0  0  0  0  0  0  0  0  0  0
   -2.5031   -2.8501   -1.3905 C   0  0  0  0  0  0  0  0  0  0  0  0
   -1.7630   -1.7759   -0.8746 C   0  0  0  0  0  0  0  0  0  0  0  0
   -1.9322   -1.4005    0.5515 C   0  0  0  0  0  0  0  0  0  0  0  0
   -0.9182   -1.2885    1.2400 O   0  0  0  0  0  0  0  0  0  0  0  0
   -3.2012   -1.1242    1.0328 N   0  0  0  0  0  0  0  0  0  0  0  0
   -4.3988   -0.8565    0.2436 C   0  0  0  0  0  0  0  0  0  0  0  0
   -5.4704   -0.5367    1.2764 C   0  0  0  0  0  0  0  0  0  0  0  0
   -4.6747    0.1105    2.4001 C   0  0  0  0  0  0  0  0  0  0  0  0
   -3.3831   -0.6946    2.4114 C   0  0  0  0  0  0  0  0  0  0  0  0
    0.8754    2.1913   -0.1385 H   0  0  0  0  0  0  0  0  0  0  0  0
    2.1455    0.9480   -0.0155 H   0  0  0  0  0  0  0  0  0  0  0  0
    3.3338    2.0094   -1.9907 H   0  0  0  0  0  0  0  0  0  0  0  0
    2.0581    3.2135   -2.0914 H   0  0  0  0  0  0  0  0  0  0  0  0
    5.5832    1.8573   -1.1410 H   0  0  0  0  0  0  0  0  0  0  0  0
    7.0088    0.2376    0.0529 H   0  0  0  0  0  0  0  0  0  0  0  0
    6.7775   -0.0614    2.5055 H   0  0  0  0  0  0  0  0  0  0  0  0
    5.1085    1.2765    3.7643 H   0  0  0  0  0  0  0  0  0  0  0  0
    3.6670    2.8955    2.5813 H   0  0  0  0  0  0  0  0  0  0  0  0
   -0.0708   -0.0381   -0.0783 H   0  0  0  0  0  0  0  0  0  0  0  0
   -0.0619   -0.9328   -3.7111 H   0  0  0  0  0  0  0  0  0  0  0  0
   -1.4217   -2.7458   -4.6065 H   0  0  0  0  0  0  0  0  0  0  0  0
   -2.9617   -4.0237   -3.1395 H   0  0  0  0  0  0  0  0  0  0  0  0
   -3.1631   -3.4242   -0.7452 H   0  0  0  0  0  0  0  0  0  0  0  0
   -4.6801   -1.7121   -0.3723 H   0  0  0  0  0  0  0  0  0  0  0  0
   -4.1948    0.0032   -0.4042 H   0  0  0  0  0  0  0  0  0  0  0  0
   -6.2577    0.1103    0.8803 H   0  0  0  0  0  0  0  0  0  0  0  0
   -5.9339   -1.4630    1.6370 H   0  0  0  0  0  0  0  0  0  0  0  0
   -5.1940    0.0885    3.3620 H   0  0  0  0  0  0  0  0  0  0  0  0
   -4.4622    1.1564    2.1475 H   0  0  0  0  0  0  0  0  0  0  0  0
   -2.5321   -0.1094    2.7727 H   0  0  0  0  0  0  0  0  0  0  0  0
   -3.4820   -1.5963    3.0254 H   0  0  0  0  0  0  0  0  0  0  0  0
  1  2  2  0
  2  3  1  0
  3  4  1  0
  4  5  1  0
  5  6  1  0
  6  7  2  0
  7  8  1  0
  8  9  2  0
  9 10  1  0
 10 11  2  0
  2 12  1  0
 12 13  1  0
 13 14  2  0
 14 15  1  0
 15 16  2  0
 16 17  1  0
 17 18  2  0
 18 19  1  0
 19 20  2  0
 19 21  1  0
 21 22  1  0
 22 23  1  0
 23 24  1  0
 24 25  1  0
 11  6  1  0
 18 13  1  0
 25 21  1  0
  3 26  1  0
  3 27  1  0
  4 28  1  0
  4 29  1  0
  7 30  1  0
  8 31  1  0
  9 32  1  0
 10 33  1  0
 11 34  1  0
 12 35  1  0
 14 36  1  0
 15 37  1  0
 16 38  1  0
 17 39  1  0
 22 40  1  0
 22 41  1  0
 23 42  1  0
 23 43  1  0
 24 44  1  0
 24 45  1  0
 25 46  1  0
 25 47  1  0
M  END
$$$$
