
     RDKit          3D

 38 39  0  0  0  0  0  0  0  0999 V2000
   -5.5691   -1.2617    1.9601 C   0  0  0  0  0  0  0  0  0  0  0  0
   -5.1532   -0.3986    0.9117 O   0  0  0  0  0  0  0  0  0  0  0  0
   -3.8434    0.0126    0.9034 C   0  0  0  0  0  0  0  0  0  0  0  0
   -2.8948   -0.3535    1.8657 C   0  0  0  0  0  0  0  0  0  0  0  0
   -1.5823    0.1147    1.7762 C   0  0  0  0  0  0  0  0  0  0  0  0
   -1.2150    0.9508    0.7207 C   0  0  0  0  0  0  0  0  0  0  0  0
    0.1906    1.4393    0.6149 C   0  0  0  0  0  0  0  0  0  0  0  0
    0.8074    1.8823    1.6694 N   0  0  0  0  0  0  0  0  0  0  0  0
    0.7885    1.3943   -0.6319 N   0  0  0  0  0  0  0  0  0  0  0  0
    2.1920    1.4969   -0.5471 O   0  0  0  0  0  0  0  0  0  0  0  0
    2.7998    0.2633   -0.5747 C   0  0  0  0  0  0  0  0  0  0  0  0
    2.2016   -0.7786   -0.8215 O   0  0  0  0  0  0  0  0  0  0  0  0
    4.2635    0.4309   -0.2370 C   0  0  0  0  0  0  0  0  0  0  0  0
    5.0342   -0.8274   -0.5030 C   0  0  0  0  0  0  0  0  0  0  0  0
    5.2627   -1.8887    0.3513 C   0  0  0  0  0  0  0  0  0  0  0  0
    6.0495   -2.9109   -0.2537 C   0  0  0  0  0  0  0  0  0  0  0  0
    6.3991   -2.5950   -1.5470 C   0  0  0  0  0  0  0  0  0  0  0  0
    5.7821   -1.0746   -2.0259 S   0  0  0  0  0  0  0  0  0  0  0  0
   -2.1511    1.3223   -0.2502 C   0  0  0  0  0  0  0  0  0  0  0  0
   -3.4683    0.8599   -0.1623 C   0  0  0  0  0  0  0  0  0  0  0  0
   -4.4596    1.1711   -1.0603 O   0  0  0  0  0  0  0  0  0  0  0  0
   -4.1409    2.0658   -2.1165 C   0  0  0  0  0  0  0  0  0  0  0  0
   -5.0201   -2.2087    1.9337 H   0  0  0  0  0  0  0  0  0  0  0  0
   -6.6287   -1.4880    1.8067 H   0  0  0  0  0  0  0  0  0  0  0  0
   -5.4717   -0.7737    2.9355 H   0  0  0  0  0  0  0  0  0  0  0  0
   -3.1446   -1.0072    2.6949 H   0  0  0  0  0  0  0  0  0  0  0  0
   -0.8502   -0.1966    2.5176 H   0  0  0  0  0  0  0  0  0  0  0  0
    0.1908    1.8810    2.4874 H   0  0  0  0  0  0  0  0  0  0  0  0
    0.5053    0.5933   -1.2015 H   0  0  0  0  0  0  0  0  0  0  0  0
    4.6719    1.2598   -0.8269 H   0  0  0  0  0  0  0  0  0  0  0  0
    4.3398    0.6943    0.8241 H   0  0  0  0  0  0  0  0  0  0  0  0
    4.8771   -1.9359    1.3630 H   0  0  0  0  0  0  0  0  0  0  0  0
    6.3416   -3.8325    0.2344 H   0  0  0  0  0  0  0  0  0  0  0  0
    6.9871   -3.1845   -2.2370 H   0  0  0  0  0  0  0  0  0  0  0  0
   -1.8366    1.9838   -1.0502 H   0  0  0  0  0  0  0  0  0  0  0  0
   -5.0465    2.2165   -2.7120 H   0  0  0  0  0  0  0  0  0  0  0  0
   -3.3767    1.6411   -2.7757 H   0  0  0  0  0  0  0  0  0  0  0  0
   -3.8319    3.0420   -1.7285 H   0  0  0  0  0  0  0  0  0  0  0  0
  1  2  1  0
  2  3  1  0
  3  4  2  0
  4  5  1  0
  5  6  2  0
  6  7  1  0
  7  8  2  3
  7  9  1  0
  9 10  1  0
 10 11  1  0
 11 12  2  0
 11 13  1  0
 13 14  1  0
 14 15  2  0
 15 16  1  0
 16 17  2  0
 17 18  1  0
  6 19  1  0
 19 20  2  0
 20 21  1  0
 21 22  1  0
 20  3  1  0
 18 14  1  0
  1 23  1  0
  1 24  1  0
  1 25  1  0
  4 26  1  0
  5 27  1  0
  8 28  1  0
  9 29  1  0
 13 30  1  0
 13 31  1  0
 15 32  1  0
 16 33  1  0
 17 34  1  0
 19 35  1  0
 22 36  1  0
 22 37  1  0
 22 38  1  0
M  END
$$$$
