
     RDKit          3D

 49 52  0  0  0  0  0  0  0  0999 V2000
    8.2689    0.4390   -0.3257 C   0  0  0  0  0  0  0  0  0  0  0  0
    7.4024   -0.3848    0.5161 N   0  0  0  0  0  0  0  0  0  0  0  0
    7.8118   -0.4920    1.9164 C   0  0  0  0  0  0  0  0  0  0  0  0
    6.0347   -0.4485    0.2133 C   0  0  0  0  0  0  0  0  0  0  0  0
    5.0898   -0.9587    1.1211 C   0  0  0  0  0  0  0  0  0  0  0  0
    3.7212   -1.0399    0.8185 C   0  0  0  0  0  0  0  0  0  0  0  0
    3.2426   -0.6088   -0.4153 C   0  0  0  0  0  0  0  0  0  0  0  0
    1.8298   -0.7234   -0.7866 C   0  0  0  0  0  0  0  0  0  0  0  0
    0.7799   -0.1768   -0.1563 C   0  0  0  0  0  0  0  0  0  0  0  0
   -0.5773   -0.3282   -0.5727 C   0  0  0  0  0  0  0  0  0  0  0  0
   -1.3064    0.3675    0.2979 C   0  0  0  0  0  0  0  0  0  0  0  0
   -2.7664    0.5475    0.3196 C   0  0  0  0  0  0  0  0  0  0  0  0
   -3.3386    1.5883    1.0622 C   0  0  0  0  0  0  0  0  0  0  0  0
   -4.7235    1.7744    1.0935 C   0  0  0  0  0  0  0  0  0  0  0  0
   -5.5756    0.9228    0.3809 C   0  0  0  0  0  0  0  0  0  0  0  0
   -5.0246   -0.1441   -0.3466 C   0  0  0  0  0  0  0  0  0  0  0  0
   -3.6278   -0.3130   -0.3787 C   0  0  0  0  0  0  0  0  0  0  0  0
   -5.8945   -1.0843   -1.1461 C   0  0  0  0  0  0  0  0  0  0  0  0
   -7.3657   -1.0408   -0.7374 C   0  0  0  0  0  0  0  0  0  0  0  0
   -7.8440    0.4008   -0.6238 C   0  0  0  0  0  0  0  0  0  0  0  0
   -7.0670    1.1358    0.4666 C   0  0  0  0  0  0  0  0  0  0  0  0
   -0.5612    1.0134    1.3050 O   0  0  0  0  0  0  0  0  0  0  0  0
    0.7588    0.6970    1.0542 C   0  0  0  0  0  0  0  0  0  0  0  0
    1.7007    1.0816    1.7221 O   0  0  0  0  0  0  0  0  0  0  0  0
    4.1585   -0.1282   -1.3486 C   0  0  0  0  0  0  0  0  0  0  0  0
    5.5251   -0.0531   -1.0360 C   0  0  0  0  0  0  0  0  0  0  0  0
    8.2961    0.0641   -1.3545 H   0  0  0  0  0  0  0  0  0  0  0  0
    7.9446    1.4855   -0.3220 H   0  0  0  0  0  0  0  0  0  0  0  0
    9.3058    0.4128    0.0282 H   0  0  0  0  0  0  0  0  0  0  0  0
    8.8997   -0.4065    2.0184 H   0  0  0  0  0  0  0  0  0  0  0  0
    7.5499   -1.4704    2.3329 H   0  0  0  0  0  0  0  0  0  0  0  0
    7.3599    0.3013    2.5222 H   0  0  0  0  0  0  0  0  0  0  0  0
    5.3897   -1.3124    2.1025 H   0  0  0  0  0  0  0  0  0  0  0  0
    3.0437   -1.4407    1.5684 H   0  0  0  0  0  0  0  0  0  0  0  0
    1.6630   -1.3137   -1.6859 H   0  0  0  0  0  0  0  0  0  0  0  0
   -0.9171   -0.8878   -1.4276 H   0  0  0  0  0  0  0  0  0  0  0  0
   -2.7121    2.2766    1.6265 H   0  0  0  0  0  0  0  0  0  0  0  0
   -5.1333    2.5929    1.6818 H   0  0  0  0  0  0  0  0  0  0  0  0
   -3.2235   -1.1421   -0.9552 H   0  0  0  0  0  0  0  0  0  0  0  0
   -5.8045   -0.8109   -2.2049 H   0  0  0  0  0  0  0  0  0  0  0  0
   -5.5300   -2.1128   -1.0374 H   0  0  0  0  0  0  0  0  0  0  0  0
   -7.5012   -1.5496    0.2255 H   0  0  0  0  0  0  0  0  0  0  0  0
   -7.9684   -1.5828   -1.4748 H   0  0  0  0  0  0  0  0  0  0  0  0
   -8.9150    0.4273   -0.3939 H   0  0  0  0  0  0  0  0  0  0  0  0
   -7.7088    0.9095   -1.5867 H   0  0  0  0  0  0  0  0  0  0  0  0
   -7.4039    0.7849    1.4502 H   0  0  0  0  0  0  0  0  0  0  0  0
   -7.2954    2.2063    0.4007 H   0  0  0  0  0  0  0  0  0  0  0  0
    3.8278    0.1979   -2.3316 H   0  0  0  0  0  0  0  0  0  0  0  0
    6.1815    0.3270   -1.8123 H   0  0  0  0  0  0  0  0  0  0  0  0
  1  2  1  0
  2  3  1  0
  2  4  1  0
  4  5  2  0
  5  6  1  0
  6  7  2  0
  7  8  1  0
  8  9  2  3
  9 10  1  0
 10 11  2  0
 11 12  1  0
 12 13  2  0
 13 14  1  0
 14 15  2  0
 15 16  1  0
 16 17  2  0
 16 18  1  0
 18 19  1  0
 19 20  1  0
 20 21  1  0
 11 22  1  0
 22 23  1  0
 23 24  2  0
  7 25  1  0
 25 26  2  0
 26  4  1  0
 23  9  1  0
 17 12  1  0
 21 15  1  0
  1 27  1  0
  1 28  1  0
  1 29  1  0
  3 30  1  0
  3 31  1  0
  3 32  1  0
  5 33  1  0
  6 34  1  0
  8 35  1  0
 10 36  1  0
 13 37  1  0
 14 38  1  0
 17 39  1  0
 18 40  1  0
 18 41  1  0
 19 42  1  0
 19 43  1  0
 20 44  1  0
 20 45  1  0
 21 46  1  0
 21 47  1  0
 25 48  1  0
 26 49  1  0
M  END
$$$$
