
     RDKit          3D

 60 64  0  0  0  0  0  0  0  0999 V2000
   -5.7771   -2.3299   -2.2196 C   0  0  0  0  0  0  0  0  0  0  0  0
   -5.1944   -2.0196   -0.8462 C   0  0  0  0  0  0  0  0  0  0  0  0
   -3.7531   -1.4918   -0.9087 C   0  0  0  0  0  0  0  0  0  0  0  0
   -3.7305   -0.1788   -1.5488 N   0  0  0  0  0  0  0  0  0  0  0  0
   -2.4392    0.3602   -1.5875 C   0  0  0  0  0  0  0  0  0  0  0  0
   -2.1714    1.1011   -2.6711 N   0  0  0  0  0  0  0  0  0  0  0  0
   -0.9628    1.6634   -2.7017 C   0  0  0  0  0  0  0  0  0  0  0  0
    0.0038    1.5061   -1.7907 N   0  0  0  0  0  0  0  0  0  0  0  0
   -0.2685    0.7250   -0.7212 C   0  0  0  0  0  0  0  0  0  0  0  0
    0.8230    0.3975    0.1191 N   0  0  0  0  0  0  0  0  0  0  0  0
    1.8885    1.4326    0.1476 C   0  0  0  0  0  0  0  0  0  0  0  0
    3.0667    1.1324   -0.8056 C   0  0  0  0  0  0  0  0  0  0  0  0
    3.6719   -0.1835   -0.5121 N   0  0  0  0  0  0  0  0  0  0  0  0
    5.0173   -0.4217   -0.7366 C   0  0  0  0  0  0  0  0  0  0  0  0
    5.7545    0.3295   -1.6682 C   0  0  0  0  0  0  0  0  0  0  0  0
    7.1165    0.0981   -1.9026 C   0  0  0  0  0  0  0  0  0  0  0  0
    7.7821   -0.9010   -1.2049 C   0  0  0  0  0  0  0  0  0  0  0  0
    7.0827   -1.6691   -0.2824 C   0  0  0  0  0  0  0  0  0  0  0  0
    5.7206   -1.4300   -0.0570 C   0  0  0  0  0  0  0  0  0  0  0  0
    2.8063   -1.1644    0.1622 C   0  0  0  0  0  0  0  0  0  0  0  0
    1.3256   -0.9609   -0.2351 C   0  0  0  0  0  0  0  0  0  0  0  0
   -1.5375    0.1523   -0.5352 C   0  0  0  0  0  0  0  0  0  0  0  0
   -1.9694   -0.6233    0.6020 N   0  0  0  0  0  0  0  0  0  0  0  0
   -1.4429   -0.3628    1.9408 C   0  0  0  0  0  0  0  0  0  0  0  0
   -2.0538    0.8677    2.5810 C   0  0  0  0  0  0  0  0  0  0  0  0
   -1.4249    2.1169    2.4808 C   0  0  0  0  0  0  0  0  0  0  0  0
   -1.9990    3.2501    3.0617 C   0  0  0  0  0  0  0  0  0  0  0  0
   -3.2070    3.1478    3.7480 C   0  0  0  0  0  0  0  0  0  0  0  0
   -3.8437    1.9131    3.8537 C   0  0  0  0  0  0  0  0  0  0  0  0
   -3.2727    0.7799    3.2724 C   0  0  0  0  0  0  0  0  0  0  0  0
   -3.1368   -1.3981    0.5096 C   0  0  0  0  0  0  0  0  0  0  0  0
   -3.5980   -2.0292    1.4637 O   0  0  0  0  0  0  0  0  0  0  0  0
   -5.8945   -1.4244   -2.8208 H   0  0  0  0  0  0  0  0  0  0  0  0
   -6.7664   -2.7864   -2.1141 H   0  0  0  0  0  0  0  0  0  0  0  0
   -5.1389   -3.0291   -2.7677 H   0  0  0  0  0  0  0  0  0  0  0  0
   -5.2238   -2.9415   -0.2531 H   0  0  0  0  0  0  0  0  0  0  0  0
   -5.8421   -1.2972   -0.3340 H   0  0  0  0  0  0  0  0  0  0  0  0
   -3.1403   -2.2040   -1.4786 H   0  0  0  0  0  0  0  0  0  0  0  0
   -4.1303   -0.0997   -2.4781 H   0  0  0  0  0  0  0  0  0  0  0  0
   -0.7359    2.2949   -3.5542 H   0  0  0  0  0  0  0  0  0  0  0  0
    1.4920    2.4403   -0.0331 H   0  0  0  0  0  0  0  0  0  0  0  0
    2.2760    1.4556    1.1754 H   0  0  0  0  0  0  0  0  0  0  0  0
    2.7320    1.1456   -1.8488 H   0  0  0  0  0  0  0  0  0  0  0  0
    3.8005    1.9366   -0.6728 H   0  0  0  0  0  0  0  0  0  0  0  0
    5.2712    1.1037   -2.2572 H   0  0  0  0  0  0  0  0  0  0  0  0
    7.6482    0.6999   -2.6360 H   0  0  0  0  0  0  0  0  0  0  0  0
    8.8383   -1.0820   -1.3806 H   0  0  0  0  0  0  0  0  0  0  0  0
    7.5912   -2.4547    0.2701 H   0  0  0  0  0  0  0  0  0  0  0  0
    5.2250   -2.0449    0.6875 H   0  0  0  0  0  0  0  0  0  0  0  0
    2.9211   -1.0665    1.2480 H   0  0  0  0  0  0  0  0  0  0  0  0
    3.0823   -2.1866   -0.1224 H   0  0  0  0  0  0  0  0  0  0  0  0
    0.7173   -1.7189    0.2718 H   0  0  0  0  0  0  0  0  0  0  0  0
    1.2400   -1.1373   -1.3174 H   0  0  0  0  0  0  0  0  0  0  0  0
   -0.3562   -0.3018    1.9623 H   0  0  0  0  0  0  0  0  0  0  0  0
   -1.6618   -1.2249    2.5846 H   0  0  0  0  0  0  0  0  0  0  0  0
   -0.4826    2.2155    1.9487 H   0  0  0  0  0  0  0  0  0  0  0  0
   -1.5047    4.2140    2.9736 H   0  0  0  0  0  0  0  0  0  0  0  0
   -3.6553    4.0301    4.1972 H   0  0  0  0  0  0  0  0  0  0  0  0
   -4.7912    1.8309    4.3834 H   0  0  0  0  0  0  0  0  0  0  0  0
   -3.7881   -0.1767    3.3591 H   0  0  0  0  0  0  0  0  0  0  0  0
  1  2  1  0
  2  3  1  0
  3  4  1  0
  4  5  1  0
  5  6  2  0
  6  7  1  0
  7  8  2  0
  8  9  1  0
  9 10  1  0
 10 11  1  0
 11 12  1  0
 12 13  1  0
 13 14  1  0
 14 15  2  0
 15 16  1  0
 16 17  2  0
 17 18  1  0
 18 19  2  0
 13 20  1  0
 20 21  1  0
  9 22  2  0
 22 23  1  0
 23 24  1  0
 24 25  1  0
 25 26  2  0
 26 27  1  0
 27 28  2  0
 28 29  1  0
 29 30  2  0
 23 31  1  0
 31 32  2  0
 31  3  1  0
 22  5  1  0
 30 25  1  0
 21 10  1  0
 19 14  1  0
  1 33  1  0
  1 34  1  0
  1 35  1  0
  2 36  1  0
  2 37  1  0
  3 38  1  0
  4 39  1  0
  7 40  1  0
 11 41  1  0
 11 42  1  0
 12 43  1  0
 12 44  1  0
 15 45  1  0
 16 46  1  0
 17 47  1  0
 18 48  1  0
 19 49  1  0
 20 50  1  0
 20 51  1  0
 21 52  1  0
 21 53  1  0
 24 54  1  0
 24 55  1  0
 26 56  1  0
 27 57  1  0
 28 58  1  0
 29 59  1  0
 30 60  1  0
M  END
$$$$
