
     RDKit          3D

 62 65  0  0  0  0  0  0  0  0999 V2000
   -0.9802    2.4167   -1.9798 C   0  0  0  0  0  0  0  0  0  0  0  0
   -1.5791    1.6304   -0.8395 C   0  0  0  0  0  0  0  0  0  0  0  0
   -2.5387    2.2851   -0.0443 C   0  0  0  0  0  0  0  0  0  0  0  0
   -3.1650    1.6334    1.0166 C   0  0  0  0  0  0  0  0  0  0  0  0
   -4.0835    2.3077    1.7689 O   0  0  0  0  0  0  0  0  0  0  0  0
   -2.8678    0.3059    1.3174 C   0  0  0  0  0  0  0  0  0  0  0  0
   -3.5150   -0.4645    2.4591 C   0  0  0  0  0  0  0  0  0  0  0  0
   -5.0271   -0.6213    2.2778 C   0  0  0  0  0  0  0  0  0  0  0  0
   -3.1738    0.1291    3.8284 C   0  0  0  0  0  0  0  0  0  0  0  0
   -1.9155   -0.3520    0.5132 C   0  0  0  0  0  0  0  0  0  0  0  0
   -1.2524    0.2744   -0.5714 C   0  0  0  0  0  0  0  0  0  0  0  0
   -0.1932   -0.5015   -1.4113 C   0  0  0  0  0  0  0  0  0  0  0  0
    1.2518    0.0307   -1.2184 C   0  0  0  0  0  0  0  0  0  0  0  0
    1.6390    0.4459    0.0845 C   0  0  0  0  0  0  0  0  0  0  0  0
    2.9234    0.9322    0.3918 C   0  0  0  0  0  0  0  0  0  0  0  0
    3.2175    1.3654    1.8197 C   0  0  0  0  0  0  0  0  0  0  0  0
    4.3057    0.5121    2.4762 C   0  0  0  0  0  0  0  0  0  0  0  0
    3.5398    2.8586    1.9213 C   0  0  0  0  0  0  0  0  0  0  0  0
    3.8531    0.9912   -0.6426 C   0  0  0  0  0  0  0  0  0  0  0  0
    5.1113    1.4597   -0.3943 O   0  0  0  0  0  0  0  0  0  0  0  0
    3.5195    0.5731   -1.9308 C   0  0  0  0  0  0  0  0  0  0  0  0
    2.2347    0.0797   -2.2355 C   0  0  0  0  0  0  0  0  0  0  0  0
    1.9941   -0.3582   -3.6560 C   0  0  0  0  0  0  0  0  0  0  0  0
   -0.6659   -0.3461   -2.7816 O   0  0  0  0  0  0  0  0  0  0  0  0
   -1.1936   -1.4890   -3.2996 C   0  0  0  0  0  0  0  0  0  0  0  0
   -1.7598   -1.6092   -4.3669 O   0  0  0  0  0  0  0  0  0  0  0  0
   -0.8680   -2.5503   -2.3654 C   0  0  0  0  0  0  0  0  0  0  0  0
   -1.0726   -3.9117   -2.5183 C   0  0  0  0  0  0  0  0  0  0  0  0
   -0.5936   -4.7535   -1.5155 C   0  0  0  0  0  0  0  0  0  0  0  0
    0.0816   -4.2204   -0.4061 C   0  0  0  0  0  0  0  0  0  0  0  0
    0.2745   -2.8398   -0.2819 C   0  0  0  0  0  0  0  0  0  0  0  0
   -0.2262   -2.0020   -1.2736 C   0  0  0  0  0  0  0  0  0  0  0  0
   -1.1965    3.4866   -1.8802 H   0  0  0  0  0  0  0  0  0  0  0  0
    0.1075    2.3302   -2.0042 H   0  0  0  0  0  0  0  0  0  0  0  0
   -1.4028    2.0867   -2.9333 H   0  0  0  0  0  0  0  0  0  0  0  0
   -2.7927    3.3189   -0.2659 H   0  0  0  0  0  0  0  0  0  0  0  0
   -4.1933    3.2017    1.4073 H   0  0  0  0  0  0  0  0  0  0  0  0
   -3.1025   -1.4829    2.4580 H   0  0  0  0  0  0  0  0  0  0  0  0
   -5.5587    0.3316    2.3586 H   0  0  0  0  0  0  0  0  0  0  0  0
   -5.4360   -1.2894    3.0438 H   0  0  0  0  0  0  0  0  0  0  0  0
   -5.2610   -1.0532    1.2984 H   0  0  0  0  0  0  0  0  0  0  0  0
   -2.0895    0.2223    3.9546 H   0  0  0  0  0  0  0  0  0  0  0  0
   -3.5490   -0.5173    4.6295 H   0  0  0  0  0  0  0  0  0  0  0  0
   -3.6135    1.1203    3.9749 H   0  0  0  0  0  0  0  0  0  0  0  0
   -1.6989   -1.3889    0.7575 H   0  0  0  0  0  0  0  0  0  0  0  0
    0.9126    0.3962    0.8958 H   0  0  0  0  0  0  0  0  0  0  0  0
    2.3076    1.2094    2.4156 H   0  0  0  0  0  0  0  0  0  0  0  0
    4.4020    0.7664    3.5375 H   0  0  0  0  0  0  0  0  0  0  0  0
    4.0612   -0.5537    2.4085 H   0  0  0  0  0  0  0  0  0  0  0  0
    5.2868    0.6597    2.0144 H   0  0  0  0  0  0  0  0  0  0  0  0
    4.4856    3.1154    1.4346 H   0  0  0  0  0  0  0  0  0  0  0  0
    2.7508    3.4615    1.4581 H   0  0  0  0  0  0  0  0  0  0  0  0
    3.6192    3.1620    2.9710 H   0  0  0  0  0  0  0  0  0  0  0  0
    5.6186    1.4616   -1.2219 H   0  0  0  0  0  0  0  0  0  0  0  0
    4.2674    0.6231   -2.7190 H   0  0  0  0  0  0  0  0  0  0  0  0
    1.2939    0.3186   -4.1539 H   0  0  0  0  0  0  0  0  0  0  0  0
    2.9196   -0.3458   -4.2428 H   0  0  0  0  0  0  0  0  0  0  0  0
    1.6274   -1.3872   -3.6874 H   0  0  0  0  0  0  0  0  0  0  0  0
   -1.5749   -4.3057   -3.3964 H   0  0  0  0  0  0  0  0  0  0  0  0
   -0.7312   -5.8295   -1.5984 H   0  0  0  0  0  0  0  0  0  0  0  0
    0.4620   -4.8896    0.3634 H   0  0  0  0  0  0  0  0  0  0  0  0
    0.8036   -2.4408    0.5795 H   0  0  0  0  0  0  0  0  0  0  0  0
  1  2  1  0
  2  3  2  0
  3  4  1  0
  4  5  1  0
  4  6  2  0
  6  7  1  0
  7  8  1  0
  7  9  1  0
  6 10  1  0
 10 11  2  0
 11 12  1  0
 12 13  1  0
 13 14  2  0
 14 15  1  0
 15 16  1  0
 16 17  1  0
 16 18  1  0
 15 19  2  0
 19 20  1  0
 19 21  1  0
 21 22  2  0
 22 23  1  0
 12 24  1  0
 24 25  1  0
 25 26  2  0
 25 27  1  0
 27 28  2  0
 28 29  1  0
 29 30  2  0
 30 31  1  0
 31 32  2  0
 11  2  1  0
 32 12  1  0
 22 13  1  0
 32 27  1  0
  1 33  1  0
  1 34  1  0
  1 35  1  0
  3 36  1  0
  5 37  1  0
  7 38  1  0
  8 39  1  0
  8 40  1  0
  8 41  1  0
  9 42  1  0
  9 43  1  0
  9 44  1  0
 10 45  1  0
 14 46  1  0
 16 47  1  0
 17 48  1  0
 17 49  1  0
 17 50  1  0
 18 51  1  0
 18 52  1  0
 18 53  1  0
 20 54  1  0
 21 55  1  0
 23 56  1  0
 23 57  1  0
 23 58  1  0
 28 59  1  0
 29 60  1  0
 30 61  1  0
 31 62  1  0
M  END
$$$$
