
     RDKit          3D

 34 35  0  0  0  0  0  0  0  0999 V2000
   -0.5726    1.9506   -2.0974 C   0  0  0  0  0  0  0  0  0  0  0  0
   -0.6460    0.6488   -1.4400 N   0  0  0  0  0  0  0  0  0  0  0  0
    0.3672   -0.3102   -1.5017 C   0  0  0  0  0  0  0  0  0  0  0  0
    0.2756   -1.3779   -0.8886 O   0  0  0  0  0  0  0  0  0  0  0  0
    1.6071   -0.0403   -2.3456 C   0  0  0  0  0  0  0  0  0  0  0  0
    2.7123    1.1523   -1.5355 S   0  0  0  0  0  0  0  0  0  0  0  0
    2.9918    0.2449   -0.0409 C   0  0  0  0  0  0  0  0  0  0  0  0
    2.4737    0.7540    1.0899 N   0  0  0  0  0  0  0  0  0  0  0  0
    2.6732    0.0285    2.2056 C   0  0  0  0  0  0  0  0  0  0  0  0
    3.3573   -1.1637    2.2258 C   0  0  0  0  0  0  0  0  0  0  0  0
    3.8475   -1.5862    1.0132 C   0  0  0  0  0  0  0  0  0  0  0  0
    3.6857   -0.9008   -0.1329 N   0  0  0  0  0  0  0  0  0  0  0  0
   -1.7435    0.4866   -0.4730 C   0  0  0  0  0  0  0  0  0  0  0  0
   -1.2848    0.4558    0.9943 C   0  0  0  0  0  0  0  0  0  0  0  0
   -2.5439    0.2221    1.8183 C   0  0  0  0  0  0  0  0  0  0  0  0
   -3.5861   -0.8324    0.8196 S   0  0  0  0  0  6  0  0  0  0  0  0
   -3.5406   -2.1791    1.3482 O   0  0  0  0  0  0  0  0  0  0  0  0
   -4.8384   -0.1391    0.5907 O   0  0  0  0  0  0  0  0  0  0  0  0
   -2.6197   -0.7508   -0.6781 C   0  0  0  0  0  0  0  0  0  0  0  0
   -0.2774    2.6984   -1.3555 H   0  0  0  0  0  0  0  0  0  0  0  0
   -1.5600    2.2028   -2.4967 H   0  0  0  0  0  0  0  0  0  0  0  0
    0.1326    1.9683   -2.9273 H   0  0  0  0  0  0  0  0  0  0  0  0
    2.1385   -0.9867   -2.4975 H   0  0  0  0  0  0  0  0  0  0  0  0
    1.3245    0.3088   -3.3420 H   0  0  0  0  0  0  0  0  0  0  0  0
    2.2500    0.4472    3.1139 H   0  0  0  0  0  0  0  0  0  0  0  0
    3.4995   -1.7324    3.1339 H   0  0  0  0  0  0  0  0  0  0  0  0
    4.4004   -2.5168    0.9235 H   0  0  0  0  0  0  0  0  0  0  0  0
   -2.3985    1.3630   -0.5859 H   0  0  0  0  0  0  0  0  0  0  0  0
   -0.7843    1.3849    1.2862 H   0  0  0  0  0  0  0  0  0  0  0  0
   -0.5798   -0.3620    1.1770 H   0  0  0  0  0  0  0  0  0  0  0  0
   -3.0815    1.1598    1.9868 H   0  0  0  0  0  0  0  0  0  0  0  0
   -2.3329   -0.2628    2.7737 H   0  0  0  0  0  0  0  0  0  0  0  0
   -3.2846   -0.6504   -1.5394 H   0  0  0  0  0  0  0  0  0  0  0  0
   -2.0622   -1.6852   -0.7582 H   0  0  0  0  0  0  0  0  0  0  0  0
  1  2  1  0
  2  3  1  0
  3  4  2  0
  3  5  1  0
  5  6  1  0
  6  7  1  0
  7  8  2  0
  8  9  1  0
  9 10  2  0
 10 11  1  0
 11 12  2  0
  2 13  1  0
 13 14  1  0
 14 15  1  0
 15 16  1  0
 16 17  2  0
 16 18  2  0
 16 19  1  0
 12  7  1  0
 19 13  1  0
  1 20  1  0
  1 21  1  0
  1 22  1  0
  5 23  1  0
  5 24  1  0
  9 25  1  0
 10 26  1  0
 11 27  1  0
 13 28  1  0
 14 29  1  0
 14 30  1  0
 15 31  1  0
 15 32  1  0
 19 33  1  0
 19 34  1  0
M  END
$$$$
