
     RDKit          3D

 55 59  0  0  0  0  0  0  0  0999 V2000
    3.4029    0.0662   -2.1821 C   0  0  0  0  0  0  0  0  0  0  0  0
    3.8023   -0.2047   -0.8235 N   0  0  0  0  0  0  0  0  0  0  0  0
    3.0043   -0.1158    0.2970 C   0  0  0  0  0  0  0  0  0  0  0  0
    1.6743    0.1722    0.2106 N   0  0  0  0  0  0  0  0  0  0  0  0
    0.8181   -0.9592   -0.2194 C   0  0  0  0  0  0  0  0  0  0  0  0
   -0.6329   -0.4772   -0.4546 C   0  0  0  0  0  0  0  0  0  0  0  0
   -1.2070    0.1513    0.7508 N   0  0  0  0  0  0  0  0  0  0  0  0
   -2.6405    0.5241    0.6551 C   0  0  0  0  0  0  0  0  0  0  0  0
   -2.9775    1.4242   -0.5433 C   0  0  0  0  0  0  0  0  0  0  0  0
   -3.0192    2.8201   -0.3800 C   0  0  0  0  0  0  0  0  0  0  0  0
   -3.3198    3.6584   -1.4556 C   0  0  0  0  0  0  0  0  0  0  0  0
   -3.5840    3.1159   -2.7110 C   0  0  0  0  0  0  0  0  0  0  0  0
   -3.5483    1.7356   -2.8933 C   0  0  0  0  0  0  0  0  0  0  0  0
   -3.2471    0.8961   -1.8191 C   0  0  0  0  0  0  0  0  0  0  0  0
   -3.5995   -0.6714    0.8506 C   0  0  0  0  0  0  0  0  0  0  0  0
   -4.9817   -0.5227    0.6203 C   0  0  0  0  0  0  0  0  0  0  0  0
   -5.8712   -1.5792    0.8340 C   0  0  0  0  0  0  0  0  0  0  0  0
   -5.4024   -2.8008    1.3067 C   0  0  0  0  0  0  0  0  0  0  0  0
   -4.0470   -2.9618    1.5781 C   0  0  0  0  0  0  0  0  0  0  0  0
   -3.1577   -1.9050    1.3633 C   0  0  0  0  0  0  0  0  0  0  0  0
   -0.3405    1.2668    1.1827 C   0  0  0  0  0  0  0  0  0  0  0  0
    1.1173    0.8119    1.4272 C   0  0  0  0  0  0  0  0  0  0  0  0
    3.7132   -0.2951    1.3890 N   0  0  0  0  0  0  0  0  0  0  0  0
    4.9874   -0.5745    0.9669 C   0  0  0  0  0  0  0  0  0  0  0  0
    6.1312   -0.8727    1.7228 C   0  0  0  0  0  0  0  0  0  0  0  0
    7.3347   -1.1269    1.0544 C   0  0  0  0  0  0  0  0  0  0  0  0
    7.3991   -1.0835   -0.3396 C   0  0  0  0  0  0  0  0  0  0  0  0
    6.2694   -0.7844   -1.1105 C   0  0  0  0  0  0  0  0  0  0  0  0
    5.0761   -0.5349   -0.4208 C   0  0  0  0  0  0  0  0  0  0  0  0
    3.1415   -0.8827   -2.6568 H   0  0  0  0  0  0  0  0  0  0  0  0
    4.2317    0.5397   -2.7149 H   0  0  0  0  0  0  0  0  0  0  0  0
    2.5483    0.7468   -2.1934 H   0  0  0  0  0  0  0  0  0  0  0  0
    1.1908   -1.3948   -1.1537 H   0  0  0  0  0  0  0  0  0  0  0  0
    0.8287   -1.7515    0.5414 H   0  0  0  0  0  0  0  0  0  0  0  0
   -1.2295   -1.3438   -0.7596 H   0  0  0  0  0  0  0  0  0  0  0  0
   -0.6162    0.2292   -1.2934 H   0  0  0  0  0  0  0  0  0  0  0  0
   -2.8601    1.1171    1.5570 H   0  0  0  0  0  0  0  0  0  0  0  0
   -2.8154    3.2646    0.5918 H   0  0  0  0  0  0  0  0  0  0  0  0
   -3.3474    4.7356   -1.3128 H   0  0  0  0  0  0  0  0  0  0  0  0
   -3.8186    3.7690   -3.5473 H   0  0  0  0  0  0  0  0  0  0  0  0
   -3.7572    1.3105   -3.8715 H   0  0  0  0  0  0  0  0  0  0  0  0
   -3.2300   -0.1800   -1.9806 H   0  0  0  0  0  0  0  0  0  0  0  0
   -5.3837    0.4268    0.2708 H   0  0  0  0  0  0  0  0  0  0  0  0
   -6.9315   -1.4424    0.6376 H   0  0  0  0  0  0  0  0  0  0  0  0
   -6.0937   -3.6215    1.4771 H   0  0  0  0  0  0  0  0  0  0  0  0
   -3.6787   -3.9072    1.9677 H   0  0  0  0  0  0  0  0  0  0  0  0
   -2.1095   -2.0552    1.6130 H   0  0  0  0  0  0  0  0  0  0  0  0
   -0.3352    2.0657    0.4311 H   0  0  0  0  0  0  0  0  0  0  0  0
   -0.7195    1.6933    2.1189 H   0  0  0  0  0  0  0  0  0  0  0  0
    1.1464    0.1140    2.2752 H   0  0  0  0  0  0  0  0  0  0  0  0
    1.7143    1.6934    1.6939 H   0  0  0  0  0  0  0  0  0  0  0  0
    6.0715   -0.9043    2.8048 H   0  0  0  0  0  0  0  0  0  0  0  0
    8.2269   -1.3602    1.6302 H   0  0  0  0  0  0  0  0  0  0  0  0
    8.3459   -1.2844   -0.8369 H   0  0  0  0  0  0  0  0  0  0  0  0
    6.3260   -0.7505   -2.1928 H   0  0  0  0  0  0  0  0  0  0  0  0
  1  2  1  0
  2  3  1  0
  3  4  1  0
  4  5  1  0
  5  6  1  0
  6  7  1  0
  7  8  1  0
  8  9  1  0
  9 10  2  0
 10 11  1  0
 11 12  2  0
 12 13  1  0
 13 14  2  0
  8 15  1  0
 15 16  2  0
 16 17  1  0
 17 18  2  0
 18 19  1  0
 19 20  2  0
  7 21  1  0
 21 22  1  0
  3 23  2  0
 23 24  1  0
 24 25  2  0
 25 26  1  0
 26 27  2  0
 27 28  1  0
 28 29  2  0
 29  2  1  0
 22  4  1  0
 29 24  1  0
 14  9  1  0
 20 15  1  0
  1 30  1  0
  1 31  1  0
  1 32  1  0
  5 33  1  0
  5 34  1  0
  6 35  1  0
  6 36  1  0
  8 37  1  0
 10 38  1  0
 11 39  1  0
 12 40  1  0
 13 41  1  0
 14 42  1  0
 16 43  1  0
 17 44  1  0
 18 45  1  0
 19 46  1  0
 20 47  1  0
 21 48  1  0
 21 49  1  0
 22 50  1  0
 22 51  1  0
 25 52  1  0
 26 53  1  0
 27 54  1  0
 28 55  1  0
M  END
$$$$
