
     RDKit          3D

 67 70  0  0  0  0  0  0  0  0999 V2000
   -1.9810    3.2675   -2.0791 C   0  0  0  0  0  0  0  0  0  0  0  0
   -0.8359    2.7316   -1.4139 O   0  0  0  0  0  0  0  0  0  0  0  0
   -1.1301    2.1597   -0.1999 C   0  0  0  0  0  0  0  0  0  0  0  0
   -1.8195    2.8898    0.7803 C   0  0  0  0  0  0  0  0  0  0  0  0
   -2.0883    2.3308    2.0333 C   0  0  0  0  0  0  0  0  0  0  0  0
   -2.7560    2.9769    3.0434 O   0  0  0  0  0  0  0  0  0  0  0  0
   -3.1722    4.3164    2.8116 C   0  0  0  0  0  0  0  0  0  0  0  0
   -1.6507    1.0254    2.3075 C   0  0  0  0  0  0  0  0  0  0  0  0
   -1.9037    0.3679    3.5894 C   0  0  0  0  0  0  0  0  0  0  0  0
   -1.4502   -0.8663    3.8255 C   0  0  0  0  0  0  0  0  0  0  0  0
   -0.6824   -1.6180    2.8257 C   0  0  0  0  0  0  0  0  0  0  0  0
   -0.2512   -2.7391    3.0701 O   0  0  0  0  0  0  0  0  0  0  0  0
   -0.4706   -0.9844    1.6116 O   0  0  0  0  0  0  0  0  0  0  0  0
   -0.9358    0.3230    1.3269 C   0  0  0  0  0  0  0  0  0  0  0  0
   -0.6466    0.8655    0.0612 C   0  0  0  0  0  0  0  0  0  0  0  0
    0.1427    0.0987   -1.0036 C   0  0  0  0  0  0  0  0  0  0  0  0
    1.5877   -0.2558   -0.5633 C   0  0  0  0  0  0  0  0  0  0  0  0
    2.4263    0.9958   -0.2468 C   0  0  0  0  0  0  0  0  0  0  0  0
    3.8439    0.6886    0.0175 N   0  0  0  0  0  0  0  0  0  0  0  0
    4.6585    1.9129    0.0885 C   0  0  0  0  0  0  0  0  0  0  0  0
    4.9569    2.3695    1.5144 C   0  0  0  0  0  0  0  0  0  0  0  0
    5.7168    1.2982    2.2950 C   0  0  0  0  0  0  0  0  0  0  0  0
    5.4155   -0.1103    1.7867 C   0  0  0  0  0  0  0  0  0  0  0  0
    4.0136   -0.1941    1.1850 C   0  0  0  0  0  0  0  0  0  0  0  0
   -0.6559   -1.0765   -1.5704 C   0  0  0  0  0  0  0  0  0  0  0  0
   -1.6559   -0.8316   -2.5169 C   0  0  0  0  0  0  0  0  0  0  0  0
   -2.4142   -1.8789   -3.0632 C   0  0  0  0  0  0  0  0  0  0  0  0
   -2.2293   -3.2178   -2.6834 C   0  0  0  0  0  0  0  0  0  0  0  0
   -2.9722   -4.2644   -3.2433 N   0  0  0  0  0  0  0  0  0  0  0  0
   -2.9800   -5.5632   -2.5745 C   0  0  0  0  0  0  0  0  0  0  0  0
   -4.1595   -3.9511   -4.0347 C   0  0  0  0  0  0  0  0  0  0  0  0
   -1.2177   -3.4428   -1.7354 C   0  0  0  0  0  0  0  0  0  0  0  0
   -0.4489   -2.4024   -1.1877 C   0  0  0  0  0  0  0  0  0  0  0  0
   -1.7237    3.3931   -3.1341 H   0  0  0  0  0  0  0  0  0  0  0  0
   -2.2386    4.2534   -1.6812 H   0  0  0  0  0  0  0  0  0  0  0  0
   -2.8391    2.5889   -2.0191 H   0  0  0  0  0  0  0  0  0  0  0  0
   -2.1180    3.9059    0.5513 H   0  0  0  0  0  0  0  0  0  0  0  0
   -3.6623    4.6741    3.7221 H   0  0  0  0  0  0  0  0  0  0  0  0
   -2.3155    4.9701    2.6171 H   0  0  0  0  0  0  0  0  0  0  0  0
   -3.9033    4.3667    1.9972 H   0  0  0  0  0  0  0  0  0  0  0  0
   -2.4683    0.9014    4.3469 H   0  0  0  0  0  0  0  0  0  0  0  0
   -1.6248   -1.3704    4.7681 H   0  0  0  0  0  0  0  0  0  0  0  0
    0.2945    0.7579   -1.8697 H   0  0  0  0  0  0  0  0  0  0  0  0
    2.0776   -0.8079   -1.3776 H   0  0  0  0  0  0  0  0  0  0  0  0
    1.5822   -0.9251    0.3023 H   0  0  0  0  0  0  0  0  0  0  0  0
    2.3652    1.6607   -1.1184 H   0  0  0  0  0  0  0  0  0  0  0  0
    1.9991    1.5402    0.6050 H   0  0  0  0  0  0  0  0  0  0  0  0
    4.2018    2.7366   -0.4740 H   0  0  0  0  0  0  0  0  0  0  0  0
    5.6100    1.7094   -0.4204 H   0  0  0  0  0  0  0  0  0  0  0  0
    5.5409    3.2967    1.5017 H   0  0  0  0  0  0  0  0  0  0  0  0
    4.0154    2.6018    2.0286 H   0  0  0  0  0  0  0  0  0  0  0  0
    5.4565    1.3801    3.3572 H   0  0  0  0  0  0  0  0  0  0  0  0
    6.7966    1.4777    2.2293 H   0  0  0  0  0  0  0  0  0  0  0  0
    5.5211   -0.8291    2.6074 H   0  0  0  0  0  0  0  0  0  0  0  0
    6.1563   -0.3938    1.0279 H   0  0  0  0  0  0  0  0  0  0  0  0
    3.8253   -1.2304    0.8824 H   0  0  0  0  0  0  0  0  0  0  0  0
    3.2886    0.0530    1.9719 H   0  0  0  0  0  0  0  0  0  0  0  0
   -1.8525    0.1833   -2.8518 H   0  0  0  0  0  0  0  0  0  0  0  0
   -3.1593   -1.6051   -3.8023 H   0  0  0  0  0  0  0  0  0  0  0  0
   -1.9755   -5.9998   -2.5318 H   0  0  0  0  0  0  0  0  0  0  0  0
   -3.3898   -5.4800   -1.5611 H   0  0  0  0  0  0  0  0  0  0  0  0
   -3.5962   -6.2873   -3.1212 H   0  0  0  0  0  0  0  0  0  0  0  0
   -3.8979   -3.3635   -4.9221 H   0  0  0  0  0  0  0  0  0  0  0  0
   -4.6405   -4.8627   -4.4077 H   0  0  0  0  0  0  0  0  0  0  0  0
   -4.9009   -3.4067   -3.4382 H   0  0  0  0  0  0  0  0  0  0  0  0
   -0.9880   -4.4462   -1.3897 H   0  0  0  0  0  0  0  0  0  0  0  0
    0.3091   -2.6640   -0.4534 H   0  0  0  0  0  0  0  0  0  0  0  0
  1  2  1  0
  2  3  1  0
  3  4  2  0
  4  5  1  0
  5  6  1  0
  6  7  1  0
  5  8  2  0
  8  9  1  0
  9 10  2  0
 10 11  1  0
 11 12  2  0
 11 13  1  0
 13 14  1  0
 14 15  2  0
 15 16  1  0
 16 17  1  0
 17 18  1  0
 18 19  1  0
 19 20  1  0
 20 21  1  0
 21 22  1  0
 22 23  1  0
 23 24  1  0
 16 25  1  0
 25 26  2  0
 26 27  1  0
 27 28  2  0
 28 29  1  0
 29 30  1  0
 29 31  1  0
 28 32  1  0
 32 33  2  0
 15  3  1  0
 24 19  1  0
 33 25  1  0
 14  8  1  0
  1 34  1  0
  1 35  1  0
  1 36  1  0
  4 37  1  0
  7 38  1  0
  7 39  1  0
  7 40  1  0
  9 41  1  0
 10 42  1  0
 16 43  1  0
 17 44  1  0
 17 45  1  0
 18 46  1  0
 18 47  1  0
 20 48  1  0
 20 49  1  0
 21 50  1  0
 21 51  1  0
 22 52  1  0
 22 53  1  0
 23 54  1  0
 23 55  1  0
 24 56  1  0
 24 57  1  0
 26 58  1  0
 27 59  1  0
 30 60  1  0
 30 61  1  0
 30 62  1  0
 31 63  1  0
 31 64  1  0
 31 65  1  0
 32 66  1  0
 33 67  1  0
M  END
$$$$
