
     RDKit          3D

 43 45  0  0  0  0  0  0  0  0999 V2000
   -4.5313    2.8360   -0.4743 C   0  0  0  0  0  0  0  0  0  0  0  0
   -4.6649    1.5654   -1.2994 C   0  0  0  0  0  0  0  0  0  0  0  0
   -3.7037    0.4564   -0.8688 C   0  0  0  0  0  0  0  0  0  0  0  0
   -2.2330    0.8127   -1.0926 C   0  0  0  0  0  0  0  0  0  0  0  0
   -1.3509   -0.3148   -0.7980 N   0  0  0  0  0  0  0  0  0  0  0  0
   -0.9724   -1.3280   -1.6802 C   0  0  0  0  0  0  0  0  0  0  0  0
   -1.2098   -1.4395   -3.3136 S   0  0  0  0  0  0  0  0  0  0  0  0
   -0.3417   -2.3211   -0.9510 N   0  0  0  0  0  0  0  0  0  0  0  0
   -0.4702   -2.0971    0.4635 C   0  0  0  0  0  0  0  0  0  0  0  0
   -0.9411   -0.6413    0.5718 C   0  0  0  0  0  0  0  0  0  0  0  0
    0.1078    0.3270    1.1642 C   0  0  0  0  0  0  0  0  0  0  0  0
    1.4940    0.3113    0.5397 C   0  0  0  0  0  0  0  0  0  0  0  0
    1.6457    0.9473   -0.7068 C   0  0  0  0  0  0  0  0  0  0  0  0
    2.8731    0.9731   -1.3571 C   0  0  0  0  0  0  0  0  0  0  0  0
    3.9778    0.3692   -0.7691 C   0  0  0  0  0  0  0  0  0  0  0  0
    3.8729   -0.2665    0.4752 C   0  0  0  0  0  0  0  0  0  0  0  0
    5.0105   -0.8646    1.0426 C   0  0  0  0  0  0  0  0  0  0  0  0
    4.9470   -1.5049    2.2774 C   0  0  0  0  0  0  0  0  0  0  0  0
    3.7418   -1.5548    2.9611 C   0  0  0  0  0  0  0  0  0  0  0  0
    2.6008   -0.9648    2.4089 C   0  0  0  0  0  0  0  0  0  0  0  0
    2.6261   -0.3055    1.1548 C   0  0  0  0  0  0  0  0  0  0  0  0
   -3.5600    3.3147   -0.6292 H   0  0  0  0  0  0  0  0  0  0  0  0
   -5.3045    3.5548   -0.7642 H   0  0  0  0  0  0  0  0  0  0  0  0
   -4.6478    2.6254    0.5934 H   0  0  0  0  0  0  0  0  0  0  0  0
   -5.6916    1.1928   -1.2020 H   0  0  0  0  0  0  0  0  0  0  0  0
   -4.5126    1.8007   -2.3592 H   0  0  0  0  0  0  0  0  0  0  0  0
   -3.9491   -0.4513   -1.4340 H   0  0  0  0  0  0  0  0  0  0  0  0
   -3.8726    0.2134    0.1872 H   0  0  0  0  0  0  0  0  0  0  0  0
   -1.9303    1.6529   -0.4613 H   0  0  0  0  0  0  0  0  0  0  0  0
   -2.0817    1.1166   -2.1334 H   0  0  0  0  0  0  0  0  0  0  0  0
   -0.0802   -3.1982   -1.3833 H   0  0  0  0  0  0  0  0  0  0  0  0
    0.4675   -2.3297    0.9692 H   0  0  0  0  0  0  0  0  0  0  0  0
   -1.2426   -2.7824    0.8293 H   0  0  0  0  0  0  0  0  0  0  0  0
   -1.8347   -0.6016    1.2067 H   0  0  0  0  0  0  0  0  0  0  0  0
   -0.2704    1.3561    1.0971 H   0  0  0  0  0  0  0  0  0  0  0  0
    0.1720    0.1446    2.2409 H   0  0  0  0  0  0  0  0  0  0  0  0
    0.7940    1.4229   -1.1887 H   0  0  0  0  0  0  0  0  0  0  0  0
    2.9662    1.4589   -2.3246 H   0  0  0  0  0  0  0  0  0  0  0  0
    4.9290    0.3985   -1.2961 H   0  0  0  0  0  0  0  0  0  0  0  0
    5.9647   -0.8348    0.5202 H   0  0  0  0  0  0  0  0  0  0  0  0
    5.8373   -1.9614    2.7010 H   0  0  0  0  0  0  0  0  0  0  0  0
    3.6838   -2.0518    3.9259 H   0  0  0  0  0  0  0  0  0  0  0  0
    1.6852   -1.0369    2.9872 H   0  0  0  0  0  0  0  0  0  0  0  0
  1  2  1  0
  2  3  1  0
  3  4  1  0
  4  5  1  0
  5  6  1  0
  6  7  2  0
  6  8  1  0
  8  9  1  0
  9 10  1  0
 10 11  1  0
 11 12  1  0
 12 13  2  0
 13 14  1  0
 14 15  2  0
 15 16  1  0
 16 17  2  0
 17 18  1  0
 18 19  2  0
 19 20  1  0
 20 21  2  0
 10  5  1  0
 21 12  1  0
 21 16  1  0
  1 22  1  0
  1 23  1  0
  1 24  1  0
  2 25  1  0
  2 26  1  0
  3 27  1  0
  3 28  1  0
  4 29  1  0
  4 30  1  0
  8 31  1  0
  9 32  1  0
  9 33  1  0
 10 34  1  0
 11 35  1  0
 11 36  1  0
 13 37  1  0
 14 38  1  0
 15 39  1  0
 17 40  1  0
 18 41  1  0
 19 42  1  0
 20 43  1  0
M  END
$$$$
