
     RDKit          3D

 61 64  0  0  0  0  0  0  0  0999 V2000
    7.8339   -4.9843    2.0840 C   0  0  0  0  0  0  0  0  0  0  0  0
    7.1201   -3.6570    2.0187 C   0  0  0  0  0  0  0  0  0  0  0  0
    7.2550   -2.8272    2.9102 O   0  0  0  0  0  0  0  0  0  0  0  0
    6.3233   -3.5487    0.8927 N   0  0  0  0  0  0  0  0  0  0  0  0
    5.5294   -2.4496    0.5057 C   0  0  0  0  0  0  0  0  0  0  0  0
    4.7708   -2.5919   -0.6663 C   0  0  0  0  0  0  0  0  0  0  0  0
    3.9561   -1.5519   -1.1232 C   0  0  0  0  0  0  0  0  0  0  0  0
    3.9007   -0.3598   -0.4016 C   0  0  0  0  0  0  0  0  0  0  0  0
    2.8735    0.9756   -0.9566 S   0  0  0  0  0  6  0  0  0  0  0  0
    3.6879    2.1713   -0.9713 O   0  0  0  0  0  0  0  0  0  0  0  0
    2.1594    0.5482   -2.1419 O   0  0  0  0  0  0  0  0  0  0  0  0
    1.7314    1.1217    0.3019 N   0  0  0  0  0  0  0  0  0  0  0  0
    0.9082   -0.1121    0.5656 C   0  0  0  0  0  0  0  0  0  0  0  0
   -0.4880    0.2237    1.1138 C   0  0  0  0  0  0  0  0  0  0  0  0
   -1.2539    1.0383    0.1413 N   0  0  0  0  0  0  0  0  0  0  0  0
   -2.4804    1.4307    0.5858 C   0  0  0  0  0  0  0  0  0  0  0  0
   -2.8406    1.6215    1.8344 N   0  0  0  0  0  0  0  0  0  0  0  0
   -4.1515    2.0181    1.7906 C   0  0  0  0  0  0  0  0  0  0  0  0
   -5.0093    2.3757    2.8415 C   0  0  0  0  0  0  0  0  0  0  0  0
   -6.3248    2.7491    2.5421 C   0  0  0  0  0  0  0  0  0  0  0  0
   -6.7785    2.7633    1.2222 C   0  0  0  0  0  0  0  0  0  0  0  0
   -5.9380    2.4067    0.1611 C   0  0  0  0  0  0  0  0  0  0  0  0
   -4.6247    2.0405    0.4830 C   0  0  0  0  0  0  0  0  0  0  0  0
   -3.5462    1.6253   -0.2690 N   0  0  0  0  0  0  0  0  0  0  0  0
   -3.5718    1.3949   -1.7015 C   0  0  0  0  0  0  0  0  0  0  0  0
   -4.2139    0.0559   -2.1069 C   0  0  0  0  0  0  0  0  0  0  0  0
   -4.4047    0.0145   -3.6245 C   0  0  0  0  0  0  0  0  0  0  0  0
   -3.3766   -1.1439   -1.6585 C   0  0  0  0  0  0  0  0  0  0  0  0
   -0.4439    2.0915   -0.5248 C   0  0  0  0  0  0  0  0  0  0  0  0
    0.8846    2.3598    0.2025 C   0  0  0  0  0  0  0  0  0  0  0  0
    4.6570   -0.1973    0.7599 C   0  0  0  0  0  0  0  0  0  0  0  0
    5.4665   -1.2447    1.2118 C   0  0  0  0  0  0  0  0  0  0  0  0
    8.2048   -5.2739    1.0966 H   0  0  0  0  0  0  0  0  0  0  0  0
    7.1477   -5.7477    2.4595 H   0  0  0  0  0  0  0  0  0  0  0  0
    8.6912   -4.9040    2.7586 H   0  0  0  0  0  0  0  0  0  0  0  0
    6.2954   -4.3540    0.2800 H   0  0  0  0  0  0  0  0  0  0  0  0
    4.8036   -3.5140   -1.2418 H   0  0  0  0  0  0  0  0  0  0  0  0
    3.3783   -1.6797   -2.0359 H   0  0  0  0  0  0  0  0  0  0  0  0
    0.7907   -0.6980   -0.3530 H   0  0  0  0  0  0  0  0  0  0  0  0
    1.4433   -0.7274    1.2969 H   0  0  0  0  0  0  0  0  0  0  0  0
   -0.3849    0.7513    2.0715 H   0  0  0  0  0  0  0  0  0  0  0  0
   -1.0273   -0.7123    1.3054 H   0  0  0  0  0  0  0  0  0  0  0  0
   -4.6490    2.3604    3.8640 H   0  0  0  0  0  0  0  0  0  0  0  0
   -6.9979    3.0291    3.3487 H   0  0  0  0  0  0  0  0  0  0  0  0
   -7.8059    3.0550    1.0138 H   0  0  0  0  0  0  0  0  0  0  0  0
   -6.2986    2.4151   -0.8615 H   0  0  0  0  0  0  0  0  0  0  0  0
   -4.1276    2.2329   -2.1406 H   0  0  0  0  0  0  0  0  0  0  0  0
   -2.5543    1.4670   -2.0951 H   0  0  0  0  0  0  0  0  0  0  0  0
   -5.2037   -0.0304   -1.6416 H   0  0  0  0  0  0  0  0  0  0  0  0
   -3.4453    0.0889   -4.1480 H   0  0  0  0  0  0  0  0  0  0  0  0
   -4.8870   -0.9197   -3.9313 H   0  0  0  0  0  0  0  0  0  0  0  0
   -5.0394    0.8420   -3.9593 H   0  0  0  0  0  0  0  0  0  0  0  0
   -3.8234   -2.0808   -2.0084 H   0  0  0  0  0  0  0  0  0  0  0  0
   -3.3172   -1.2009   -0.5674 H   0  0  0  0  0  0  0  0  0  0  0  0
   -2.3570   -1.0881   -2.0546 H   0  0  0  0  0  0  0  0  0  0  0  0
   -0.2397    1.7582   -1.5486 H   0  0  0  0  0  0  0  0  0  0  0  0
   -0.9996    3.0350   -0.6011 H   0  0  0  0  0  0  0  0  0  0  0  0
    1.4274    3.1638   -0.3054 H   0  0  0  0  0  0  0  0  0  0  0  0
    0.6989    2.7198    1.2221 H   0  0  0  0  0  0  0  0  0  0  0  0
    4.6228    0.7374    1.3164 H   0  0  0  0  0  0  0  0  0  0  0  0
    6.0426   -1.0826    2.1181 H   0  0  0  0  0  0  0  0  0  0  0  0
  1  2  1  0
  2  3  2  0
  2  4  1  0
  4  5  1  0
  5  6  2  0
  6  7  1  0
  7  8  2  0
  8  9  1  0
  9 10  2  0
  9 11  2  0
  9 12  1  0
 12 13  1  0
 13 14  1  0
 14 15  1  0
 15 16  1  0
 16 17  2  0
 17 18  1  0
 18 19  2  0
 19 20  1  0
 20 21  2  0
 21 22  1  0
 22 23  2  0
 23 24  1  0
 24 25  1  0
 25 26  1  0
 26 27  1  0
 26 28  1  0
 15 29  1  0
 29 30  1  0
  8 31  1  0
 31 32  2  0
 32  5  1  0
 30 12  1  0
 24 16  1  0
 23 18  1  0
  1 33  1  0
  1 34  1  0
  1 35  1  0
  4 36  1  0
  6 37  1  0
  7 38  1  0
 13 39  1  0
 13 40  1  0
 14 41  1  0
 14 42  1  0
 19 43  1  0
 20 44  1  0
 21 45  1  0
 22 46  1  0
 25 47  1  0
 25 48  1  0
 26 49  1  0
 27 50  1  0
 27 51  1  0
 27 52  1  0
 28 53  1  0
 28 54  1  0
 28 55  1  0
 29 56  1  0
 29 57  1  0
 30 58  1  0
 30 59  1  0
 31 60  1  0
 32 61  1  0
M  END
$$$$
