
     RDKit          3D

 31 34  0  0  0  0  0  0  0  0999 V2000
    2.0973    0.4895    2.3997 O   0  0  0  0  0  0  0  0  0  0  0  0
    2.7731   -0.2714    1.7255 C   0  0  0  0  0  0  0  0  0  0  0  0
    4.0094   -0.6277    2.1278 O   0  0  0  0  0  0  0  0  0  0  0  0
    2.3760   -0.8903    0.3919 C   0  0  0  0  0  0  0  0  0  0  0  0
    3.1602    0.0931   -0.9448 S   0  0  0  0  0  0  0  0  0  0  0  0
    1.8112    0.7465   -1.7508 C   0  0  0  0  0  0  0  0  0  0  0  0
    1.9981    1.2448   -3.0038 N   0  0  0  0  0  0  0  0  0  0  0  0
    0.8857    1.7120   -3.6459 C   0  0  0  0  0  0  0  0  0  0  0  0
    0.8228    2.1922   -4.7625 O   0  0  0  0  0  0  0  0  0  0  0  0
   -0.4805    1.4822   -2.5556 S   0  0  0  0  0  0  0  0  0  0  0  0
    0.5466    0.8078   -1.3030 C   0  0  0  0  0  0  0  0  0  0  0  0
    0.1025    0.2760    0.0509 C   0  0  0  0  0  0  0  0  0  0  0  0
   -1.3824    0.1156    0.3106 C   0  0  0  0  0  0  0  0  0  0  0  0
   -2.2970    1.1659    0.1127 C   0  0  0  0  0  0  0  0  0  0  0  0
   -3.6634    0.9910    0.3554 C   0  0  0  0  0  0  0  0  0  0  0  0
   -4.8622    2.4162    0.0304 Br  0  0  0  0  0  0  0  0  0  0  0  0
   -4.1460   -0.2171    0.8455 C   0  0  0  0  0  0  0  0  0  0  0  0
   -3.2463   -1.2382    1.1334 C   0  0  0  0  0  0  0  0  0  0  0  0
   -1.8819   -1.0501    0.8903 C   0  0  0  0  0  0  0  0  0  0  0  0
   -1.0489   -2.0625    1.3865 O   0  0  0  0  0  0  0  0  0  0  0  0
    0.3210   -1.9001    1.3758 C   0  0  0  0  0  0  0  0  0  0  0  0
    1.0428   -2.5354    2.1372 O   0  0  0  0  0  0  0  0  0  0  0  0
    0.8485   -1.0598    0.2427 C   0  0  0  0  0  0  0  0  0  0  0  0
    4.1303   -0.1863    2.9950 H   0  0  0  0  0  0  0  0  0  0  0  0
    2.8337   -1.8877    0.3577 H   0  0  0  0  0  0  0  0  0  0  0  0
    2.9011    1.2623   -3.4544 H   0  0  0  0  0  0  0  0  0  0  0  0
    0.4265    1.0066    0.8018 H   0  0  0  0  0  0  0  0  0  0  0  0
   -1.9510    2.1401   -0.2266 H   0  0  0  0  0  0  0  0  0  0  0  0
   -5.2054   -0.3578    1.0414 H   0  0  0  0  0  0  0  0  0  0  0  0
   -3.6006   -2.1640    1.5801 H   0  0  0  0  0  0  0  0  0  0  0  0
    0.6790   -1.6933   -0.6448 H   0  0  0  0  0  0  0  0  0  0  0  0
  1  2  2  0
  2  3  1  0
  2  4  1  0
  4  5  1  0
  5  6  1  0
  6  7  1  0
  7  8  1  0
  8  9  2  0
  8 10  1  0
 10 11  1  0
 11 12  1  0
 12 13  1  0
 13 14  2  0
 14 15  1  0
 15 16  1  0
 15 17  2  0
 17 18  1  0
 18 19  2  0
 19 20  1  0
 20 21  1  0
 21 22  2  0
 21 23  1  0
 23  4  1  0
 11  6  2  0
 23 12  1  0
 19 13  1  0
  3 24  1  0
  4 25  1  0
  7 26  1  0
 12 27  1  0
 14 28  1  0
 17 29  1  0
 18 30  1  0
 23 31  1  0
M  END
$$$$
