
     RDKit          3D

 40 43  0  0  0  0  0  0  0  0999 V2000
   -3.1834    3.2602    2.1663 C   0  0  0  0  0  0  0  0  0  0  0  0
   -2.4642    2.1853    2.8970 C   0  0  0  0  0  0  0  0  0  0  0  0
   -2.3776    2.2808    4.2829 N   0  0  0  0  0  0  0  0  0  0  0  0
   -1.6942    1.2787    4.8059 N   0  0  0  0  0  0  0  0  0  0  0  0
   -1.1271    0.2122    3.6550 S   0  0  0  0  0  0  0  0  0  0  0  0
   -1.8551    1.0607    2.3537 C   0  0  0  0  0  0  0  0  0  0  0  0
   -1.7442    0.6791    0.9845 C   0  0  0  0  0  0  0  0  0  0  0  0
   -1.5375    1.5434    0.0046 N   0  0  0  0  0  0  0  0  0  0  0  0
   -1.3914    0.8399   -1.1710 N   0  0  0  0  0  0  0  0  0  0  0  0
   -1.5540   -0.4328   -0.8897 C   0  0  0  0  0  0  0  0  0  0  0  0
   -1.3249   -1.7437   -1.9927 S   0  0  0  0  0  0  0  0  0  0  0  0
    0.3070   -1.2778   -2.6497 C   0  0  0  0  0  0  0  0  0  0  0  0
    1.3704   -1.2206   -1.5605 C   0  0  0  0  0  0  0  0  0  0  0  0
    1.2288   -1.7216   -0.4441 O   0  0  0  0  0  0  0  0  0  0  0  0
    2.6623   -0.5334   -1.8711 C   0  0  0  0  0  0  0  0  0  0  0  0
    3.5444   -0.2644   -0.8136 C   0  0  0  0  0  0  0  0  0  0  0  0
    4.7657    0.3748   -1.0499 C   0  0  0  0  0  0  0  0  0  0  0  0
    5.1198    0.7494   -2.3485 C   0  0  0  0  0  0  0  0  0  0  0  0
    6.3720    1.4033   -2.5957 C   0  0  0  0  0  0  0  0  0  0  0  0
    7.3852    1.9298   -2.8018 N   0  0  0  0  0  0  0  0  0  0  0  0
    4.2465    0.4791   -3.4076 C   0  0  0  0  0  0  0  0  0  0  0  0
    3.0229   -0.1610   -3.1723 C   0  0  0  0  0  0  0  0  0  0  0  0
   -1.8358   -0.5788    0.4392 N   0  0  0  0  0  0  0  0  0  0  0  0
   -2.1279   -1.8486    1.1446 C   0  0  0  0  0  0  0  0  0  0  0  0
   -3.3298   -2.0289    2.0468 C   0  0  0  0  0  0  0  0  0  0  0  0
   -3.2743   -2.7498    0.7378 C   0  0  0  0  0  0  0  0  0  0  0  0
   -3.7043    3.9250    2.8628 H   0  0  0  0  0  0  0  0  0  0  0  0
   -2.4796    3.8634    1.5846 H   0  0  0  0  0  0  0  0  0  0  0  0
   -3.9291    2.8365    1.4863 H   0  0  0  0  0  0  0  0  0  0  0  0
    0.2125   -0.3054   -3.1418 H   0  0  0  0  0  0  0  0  0  0  0  0
    0.6030   -2.0305   -3.3864 H   0  0  0  0  0  0  0  0  0  0  0  0
    3.2843   -0.5489    0.2054 H   0  0  0  0  0  0  0  0  0  0  0  0
    5.4332    0.5760   -0.2132 H   0  0  0  0  0  0  0  0  0  0  0  0
    4.5133    0.7641   -4.4248 H   0  0  0  0  0  0  0  0  0  0  0  0
    2.3802   -0.3592   -4.0256 H   0  0  0  0  0  0  0  0  0  0  0  0
   -1.2109   -2.3546    1.4400 H   0  0  0  0  0  0  0  0  0  0  0  0
   -3.2031   -2.6131    2.9522 H   0  0  0  0  0  0  0  0  0  0  0  0
   -4.0508   -1.2243    2.1420 H   0  0  0  0  0  0  0  0  0  0  0  0
   -3.1020   -3.8207    0.7498 H   0  0  0  0  0  0  0  0  0  0  0  0
   -3.9506   -2.4237   -0.0449 H   0  0  0  0  0  0  0  0  0  0  0  0
  1  2  1  0
  2  3  1  0
  3  4  2  0
  4  5  1  0
  5  6  1  0
  6  7  1  0
  7  8  2  0
  8  9  1  0
  9 10  2  0
 10 11  1  0
 11 12  1  0
 12 13  1  0
 13 14  2  0
 13 15  1  0
 15 16  2  0
 16 17  1  0
 17 18  2  0
 18 19  1  0
 19 20  3  0
 18 21  1  0
 21 22  2  0
 10 23  1  0
 23 24  1  0
 24 25  1  0
 25 26  1  0
  6  2  2  0
 23  7  1  0
 26 24  1  0
 22 15  1  0
  1 27  1  0
  1 28  1  0
  1 29  1  0
 12 30  1  0
 12 31  1  0
 16 32  1  0
 17 33  1  0
 21 34  1  0
 22 35  1  0
 24 36  1  0
 25 37  1  0
 25 38  1  0
 26 39  1  0
 26 40  1  0
M  END
$$$$
