
     RDKit          3D

 53 56  0  0  0  0  0  0  0  0999 V2000
    8.4086    0.4184    0.3602 C   0  0  0  0  0  0  0  0  0  0  0  0
    7.0497    0.8714    0.8634 C   0  0  0  0  0  0  0  0  0  0  0  0
    6.2747    1.6296   -0.2107 C   0  0  0  0  0  0  0  0  0  0  0  0
    5.0229    2.0840    0.3030 O   0  0  0  0  0  0  0  0  0  0  0  0
    3.9224    1.2909    0.1473 C   0  0  0  0  0  0  0  0  0  0  0  0
    2.7155    1.8990    0.4912 C   0  0  0  0  0  0  0  0  0  0  0  0
    1.5055    1.2034    0.3826 C   0  0  0  0  0  0  0  0  0  0  0  0
    1.4624   -0.1274   -0.0697 C   0  0  0  0  0  0  0  0  0  0  0  0
    0.1858   -0.8627   -0.1904 C   0  0  0  0  0  0  0  0  0  0  0  0
   -0.9317   -0.2410    0.2181 N   0  0  0  0  0  0  0  0  0  0  0  0
   -2.0984   -0.8972    0.0962 C   0  0  0  0  0  0  0  0  0  0  0  0
   -3.2857   -0.2325    0.4791 N   0  0  0  0  0  0  0  0  0  0  0  0
   -3.0834    0.7639    1.5545 C   0  0  0  0  0  0  0  0  0  0  0  0
   -4.3841    1.5718    1.7560 C   0  0  0  0  0  0  0  0  0  0  0  0
   -4.7530    2.3900    0.5762 N   0  0  0  0  0  0  0  0  0  0  0  0
   -6.2017    2.5502    0.4937 C   0  0  0  0  0  0  0  0  0  0  0  0
   -4.1849    1.8258   -0.6680 C   0  0  0  0  0  0  0  0  0  0  0  0
   -4.0349    0.2860   -0.6934 C   0  0  0  0  0  0  0  0  0  0  0  0
   -2.1601   -2.2065   -0.4185 C   0  0  0  0  0  0  0  0  0  0  0  0
   -3.3418   -2.9834   -0.5348 C   0  0  0  0  0  0  0  0  0  0  0  0
   -3.3052   -4.2731   -1.0591 C   0  0  0  0  0  0  0  0  0  0  0  0
   -2.0906   -4.8045   -1.4677 C   0  0  0  0  0  0  0  0  0  0  0  0
   -0.9241   -4.0448   -1.3397 C   0  0  0  0  0  0  0  0  0  0  0  0
   -0.9365   -2.7568   -0.8162 C   0  0  0  0  0  0  0  0  0  0  0  0
    0.2213   -2.0999   -0.7119 N   0  0  0  0  0  0  0  0  0  0  0  0
    2.6935   -0.7243   -0.4011 C   0  0  0  0  0  0  0  0  0  0  0  0
    3.9077   -0.0291   -0.2928 C   0  0  0  0  0  0  0  0  0  0  0  0
    8.9491   -0.1110    1.1510 H   0  0  0  0  0  0  0  0  0  0  0  0
    9.0168    1.2728    0.0476 H   0  0  0  0  0  0  0  0  0  0  0  0
    8.3036   -0.2597   -0.4924 H   0  0  0  0  0  0  0  0  0  0  0  0
    6.4771    0.0031    1.2070 H   0  0  0  0  0  0  0  0  0  0  0  0
    7.1751    1.5137    1.7435 H   0  0  0  0  0  0  0  0  0  0  0  0
    6.1639    1.0578   -1.1393 H   0  0  0  0  0  0  0  0  0  0  0  0
    6.8382    2.5302   -0.4825 H   0  0  0  0  0  0  0  0  0  0  0  0
    2.7113    2.9275    0.8443 H   0  0  0  0  0  0  0  0  0  0  0  0
    0.5852    1.7176    0.6557 H   0  0  0  0  0  0  0  0  0  0  0  0
   -2.2662    1.4633    1.3338 H   0  0  0  0  0  0  0  0  0  0  0  0
   -2.8379    0.2421    2.4873 H   0  0  0  0  0  0  0  0  0  0  0  0
   -4.2694    2.2382    2.6185 H   0  0  0  0  0  0  0  0  0  0  0  0
   -5.1855    0.8601    1.9993 H   0  0  0  0  0  0  0  0  0  0  0  0
   -6.5934    2.9893    1.4188 H   0  0  0  0  0  0  0  0  0  0  0  0
   -6.7160    1.5983    0.3165 H   0  0  0  0  0  0  0  0  0  0  0  0
   -6.4653    3.2394   -0.3163 H   0  0  0  0  0  0  0  0  0  0  0  0
   -3.1868    2.2663   -0.7951 H   0  0  0  0  0  0  0  0  0  0  0  0
   -4.7580    2.1546   -1.5442 H   0  0  0  0  0  0  0  0  0  0  0  0
   -5.0331   -0.1684   -0.6792 H   0  0  0  0  0  0  0  0  0  0  0  0
   -3.5707   -0.0016   -1.6462 H   0  0  0  0  0  0  0  0  0  0  0  0
   -4.2927   -2.5774   -0.1969 H   0  0  0  0  0  0  0  0  0  0  0  0
   -4.2177   -4.8578   -1.1405 H   0  0  0  0  0  0  0  0  0  0  0  0
   -2.0414   -5.8098   -1.8776 H   0  0  0  0  0  0  0  0  0  0  0  0
    0.0249   -4.4738   -1.6536 H   0  0  0  0  0  0  0  0  0  0  0  0
    2.7176   -1.7563   -0.7489 H   0  0  0  0  0  0  0  0  0  0  0  0
    4.8174   -0.5594   -0.5522 H   0  0  0  0  0  0  0  0  0  0  0  0
  1  2  1  0
  2  3  1  0
  3  4  1  0
  4  5  1  0
  5  6  2  0
  6  7  1  0
  7  8  2  0
  8  9  1  0
  9 10  2  0
 10 11  1  0
 11 12  1  0
 12 13  1  0
 13 14  1  0
 14 15  1  0
 15 16  1  0
 15 17  1  0
 17 18  1  0
 11 19  2  0
 19 20  1  0
 20 21  2  0
 21 22  1  0
 22 23  2  0
 23 24  1  0
 24 25  2  0
  8 26  1  0
 26 27  2  0
 27  5  1  0
 25  9  1  0
 18 12  1  0
 24 19  1  0
  1 28  1  0
  1 29  1  0
  1 30  1  0
  2 31  1  0
  2 32  1  0
  3 33  1  0
  3 34  1  0
  6 35  1  0
  7 36  1  0
 13 37  1  0
 13 38  1  0
 14 39  1  0
 14 40  1  0
 16 41  1  0
 16 42  1  0
 16 43  1  0
 17 44  1  0
 17 45  1  0
 18 46  1  0
 18 47  1  0
 20 48  1  0
 21 49  1  0
 22 50  1  0
 23 51  1  0
 26 52  1  0
 27 53  1  0
M  END
$$$$
