
     RDKit          3D

 42 44  0  0  0  0  0  0  0  0999 V2000
   -6.9953   -0.8962    0.9008 C   0  0  0  0  0  0  0  0  0  0  0  0
   -5.6153   -0.4625    0.5030 C   0  0  0  0  0  0  0  0  0  0  0  0
   -5.0205    0.6502    1.1065 C   0  0  0  0  0  0  0  0  0  0  0  0
   -3.7154    1.0472    0.7718 C   0  0  0  0  0  0  0  0  0  0  0  0
   -3.1245    2.2522    1.4556 C   0  0  0  0  0  0  0  0  0  0  0  0
   -2.9984    0.3124   -0.1983 C   0  0  0  0  0  0  0  0  0  0  0  0
   -1.6554    0.7211   -0.5807 C   0  0  0  0  0  0  0  0  0  0  0  0
   -1.4094    1.7318   -1.4880 C   0  0  0  0  0  0  0  0  0  0  0  0
    0.2824    1.9143   -1.6856 S   0  0  0  0  0  0  0  0  0  0  0  0
    0.5430    0.6513   -0.5730 C   0  0  0  0  0  0  0  0  0  0  0  0
    1.7889    0.2086   -0.2096 N   0  0  0  0  0  0  0  0  0  0  0  0
    2.9970    0.6797   -0.6570 C   0  0  0  0  0  0  0  0  0  0  0  0
    3.2011    1.5804   -1.4594 O   0  0  0  0  0  0  0  0  0  0  0  0
    4.1355   -0.0570   -0.0333 C   0  0  0  0  0  0  0  0  0  0  0  0
    5.3949    0.2728   -0.3609 C   0  0  0  0  0  0  0  0  0  0  0  0
    6.5621   -0.3597    0.1696 C   0  0  0  0  0  0  0  0  0  0  0  0
    7.8787   -0.0417   -0.1329 C   0  0  0  0  0  0  0  0  0  0  0  0
    8.8318   -0.8494    0.5519 C   0  0  0  0  0  0  0  0  0  0  0  0
    8.2242   -1.7732    1.3672 C   0  0  0  0  0  0  0  0  0  0  0  0
    6.5234   -1.6596    1.3032 S   0  0  0  0  0  0  0  0  0  0  0  0
   -0.5336    0.1009   -0.0626 N   0  0  0  0  0  0  0  0  0  0  0  0
   -3.5805   -0.8280   -0.7946 C   0  0  0  0  0  0  0  0  0  0  0  0
   -2.8357   -1.6623   -1.8038 C   0  0  0  0  0  0  0  0  0  0  0  0
   -4.8836   -1.2036   -0.4302 C   0  0  0  0  0  0  0  0  0  0  0  0
   -6.9397   -1.6048    1.7327 H   0  0  0  0  0  0  0  0  0  0  0  0
   -7.6024   -0.0374    1.2064 H   0  0  0  0  0  0  0  0  0  0  0  0
   -7.5107   -1.3742    0.0611 H   0  0  0  0  0  0  0  0  0  0  0  0
   -5.5797    1.2130    1.8522 H   0  0  0  0  0  0  0  0  0  0  0  0
   -3.7591    2.5946    2.2802 H   0  0  0  0  0  0  0  0  0  0  0  0
   -2.1456    2.0130    1.8839 H   0  0  0  0  0  0  0  0  0  0  0  0
   -3.0246    3.0803    0.7469 H   0  0  0  0  0  0  0  0  0  0  0  0
   -2.1155    2.3489   -2.0249 H   0  0  0  0  0  0  0  0  0  0  0  0
    1.7450   -0.5458    0.4598 H   0  0  0  0  0  0  0  0  0  0  0  0
    3.9014   -0.8422    0.6725 H   0  0  0  0  0  0  0  0  0  0  0  0
    5.5621    1.0758   -1.0784 H   0  0  0  0  0  0  0  0  0  0  0  0
    8.1495    0.7467   -0.8260 H   0  0  0  0  0  0  0  0  0  0  0  0
    9.9058   -0.7560    0.4490 H   0  0  0  0  0  0  0  0  0  0  0  0
    8.6978   -2.5112    1.9998 H   0  0  0  0  0  0  0  0  0  0  0  0
   -1.9501   -2.1137   -1.3456 H   0  0  0  0  0  0  0  0  0  0  0  0
   -2.5363   -1.0523   -2.6619 H   0  0  0  0  0  0  0  0  0  0  0  0
   -3.4584   -2.4780   -2.1871 H   0  0  0  0  0  0  0  0  0  0  0  0
   -5.3349   -2.0863   -0.8803 H   0  0  0  0  0  0  0  0  0  0  0  0
  1  2  1  0
  2  3  2  0
  3  4  1  0
  4  5  1  0
  4  6  2  0
  6  7  1  0
  7  8  2  0
  8  9  1  0
  9 10  1  0
 10 11  1  0
 11 12  1  0
 12 13  2  0
 12 14  1  0
 14 15  2  3
 15 16  1  0
 16 17  2  0
 17 18  1  0
 18 19  2  0
 19 20  1  0
 10 21  2  0
  6 22  1  0
 22 23  1  0
 22 24  2  0
 24  2  1  0
 21  7  1  0
 20 16  1  0
  1 25  1  0
  1 26  1  0
  1 27  1  0
  3 28  1  0
  5 29  1  0
  5 30  1  0
  5 31  1  0
  8 32  1  0
 11 33  1  0
 14 34  1  0
 15 35  1  0
 17 36  1  0
 18 37  1  0
 19 38  1  0
 23 39  1  0
 23 40  1  0
 23 41  1  0
 24 42  1  0
M  END
$$$$
