
     RDKit          3D

 48 50  0  0  0  0  0  0  0  0999 V2000
    4.6165   -1.4611    4.3659 C   0  0  0  0  0  0  0  0  0  0  0  0
    4.1558   -0.5220    3.2804 C   0  0  0  0  0  0  0  0  0  0  0  0
    5.0350    0.4697    2.8293 C   0  0  0  0  0  0  0  0  0  0  0  0
    4.6625    1.3802    1.8401 C   0  0  0  0  0  0  0  0  0  0  0  0
    3.3724    1.2779    1.3050 C   0  0  0  0  0  0  0  0  0  0  0  0
    2.6303    2.2457    0.0960 S   0  0  0  0  0  0  0  0  0  0  0  0
    1.2139    1.2939    0.1712 C   0  0  0  0  0  0  0  0  0  0  0  0
    0.0744    1.5644   -0.6019 N   0  0  0  0  0  0  0  0  0  0  0  0
   -1.1525    0.8072   -0.2730 C   0  0  0  0  0  0  0  0  0  0  0  0
   -1.2013   -0.5489   -0.9872 C   0  0  0  0  0  0  0  0  0  0  0  0
   -2.5596   -1.2265   -0.7674 C   0  0  0  0  0  0  0  0  0  0  0  0
   -2.6484   -2.5635   -1.3793 N   0  0  0  0  0  0  0  0  0  0  0  0
   -2.6278   -2.5040   -2.8435 C   0  0  0  0  0  0  0  0  0  0  0  0
   -3.8718   -3.2365   -0.9327 C   0  0  0  0  0  0  0  0  0  0  0  0
    0.1680    2.3269   -1.7869 C   0  0  0  0  0  0  0  0  0  0  0  0
    1.2196    2.6464   -2.3348 O   0  0  0  0  0  0  0  0  0  0  0  0
   -1.0938    2.7550   -2.3749 C   0  0  0  0  0  0  0  0  0  0  0  0
   -1.9856    3.7035   -1.9077 C   0  0  0  0  0  0  0  0  0  0  0  0
   -3.1112    3.8517   -2.7740 C   0  0  0  0  0  0  0  0  0  0  0  0
   -3.0160    3.0175   -3.8579 C   0  0  0  0  0  0  0  0  0  0  0  0
   -4.3405    2.9156   -5.2316 Br  0  0  0  0  0  0  0  0  0  0  0  0
   -1.5931    2.0984   -3.8765 S   0  0  0  0  0  0  0  0  0  0  0  0
    1.2320    0.3583    1.0950 N   0  0  0  0  0  0  0  0  0  0  0  0
    2.4664    0.3082    1.7288 C   0  0  0  0  0  0  0  0  0  0  0  0
    2.8459   -0.6163    2.7390 C   0  0  0  0  0  0  0  0  0  0  0  0
    1.8900   -1.6713    3.2278 C   0  0  0  0  0  0  0  0  0  0  0  0
    5.6750   -1.3133    4.6017 H   0  0  0  0  0  0  0  0  0  0  0  0
    4.4970   -2.5030    4.0533 H   0  0  0  0  0  0  0  0  0  0  0  0
    4.0445   -1.2853    5.2822 H   0  0  0  0  0  0  0  0  0  0  0  0
    6.0375    0.5440    3.2498 H   0  0  0  0  0  0  0  0  0  0  0  0
    5.3539    2.1441    1.4961 H   0  0  0  0  0  0  0  0  0  0  0  0
   -1.2123    0.6718    0.8149 H   0  0  0  0  0  0  0  0  0  0  0  0
   -2.0371    1.3918   -0.5349 H   0  0  0  0  0  0  0  0  0  0  0  0
   -1.0113   -0.4026   -2.0547 H   0  0  0  0  0  0  0  0  0  0  0  0
   -0.3989   -1.1948   -0.6117 H   0  0  0  0  0  0  0  0  0  0  0  0
   -2.7047   -1.3229    0.3169 H   0  0  0  0  0  0  0  0  0  0  0  0
   -3.3651   -0.5791   -1.1382 H   0  0  0  0  0  0  0  0  0  0  0  0
   -3.4204   -1.8609   -3.2425 H   0  0  0  0  0  0  0  0  0  0  0  0
   -1.6655   -2.1397   -3.2133 H   0  0  0  0  0  0  0  0  0  0  0  0
   -2.7521   -3.5058   -3.2741 H   0  0  0  0  0  0  0  0  0  0  0  0
   -4.7755   -2.6963   -1.2366 H   0  0  0  0  0  0  0  0  0  0  0  0
   -3.8810   -3.3354    0.1581 H   0  0  0  0  0  0  0  0  0  0  0  0
   -3.9241   -4.2537   -1.3351 H   0  0  0  0  0  0  0  0  0  0  0  0
   -1.8316    4.2685   -0.9965 H   0  0  0  0  0  0  0  0  0  0  0  0
   -3.9347    4.5330   -2.6024 H   0  0  0  0  0  0  0  0  0  0  0  0
    1.7086   -1.5524    4.3003 H   0  0  0  0  0  0  0  0  0  0  0  0
    0.9213   -1.6076    2.7206 H   0  0  0  0  0  0  0  0  0  0  0  0
    2.2955   -2.6711    3.0367 H   0  0  0  0  0  0  0  0  0  0  0  0
  1  2  1  0
  2  3  2  0
  3  4  1  0
  4  5  2  0
  5  6  1  0
  6  7  1  0
  7  8  1  0
  8  9  1  0
  9 10  1  0
 10 11  1  0
 11 12  1  0
 12 13  1  0
 12 14  1  0
  8 15  1  0
 15 16  2  0
 15 17  1  0
 17 18  2  0
 18 19  1  0
 19 20  2  0
 20 21  1  0
 20 22  1  0
  7 23  2  0
 23 24  1  0
 24 25  2  0
 25 26  1  0
 25  2  1  0
 24  5  1  0
 22 17  1  0
  1 27  1  0
  1 28  1  0
  1 29  1  0
  3 30  1  0
  4 31  1  0
  9 32  1  0
  9 33  1  0
 10 34  1  0
 10 35  1  0
 11 36  1  0
 11 37  1  0
 13 38  1  0
 13 39  1  0
 13 40  1  0
 14 41  1  0
 14 42  1  0
 14 43  1  0
 18 44  1  0
 19 45  1  0
 26 46  1  0
 26 47  1  0
 26 48  1  0
M  END
$$$$
