
     RDKit          3D

 56 59  0  0  0  0  0  0  0  0999 V2000
    3.9455   -4.0616    1.5071 C   0  0  0  0  0  0  0  0  0  0  0  0
    2.8163   -4.1658    0.6484 O   0  0  0  0  0  0  0  0  0  0  0  0
    2.5425   -3.0842   -0.1417 C   0  0  0  0  0  0  0  0  0  0  0  0
    3.2264   -1.8692   -0.1379 C   0  0  0  0  0  0  0  0  0  0  0  0
    2.8346   -0.8340   -0.9976 C   0  0  0  0  0  0  0  0  0  0  0  0
    1.7481   -0.9990   -1.8547 C   0  0  0  0  0  0  0  0  0  0  0  0
    1.3132    0.0141   -2.7591 N   0  0  0  0  0  0  0  0  0  0  0  0
    1.1564    1.6329   -2.2871 S   0  0  0  0  0  6  0  0  0  0  0  0
    2.4779    2.0894   -1.9098 O   0  0  0  0  0  0  0  0  0  0  0  0
    0.4192    2.2827   -3.3531 O   0  0  0  0  0  0  0  0  0  0  0  0
    0.0715    1.6066   -0.8656 C   0  0  0  0  0  0  0  0  0  0  0  0
   -0.9021    0.5835   -0.8488 C   0  0  0  0  0  0  0  0  0  0  0  0
   -1.6608    0.3310    0.2854 C   0  0  0  0  0  0  0  0  0  0  0  0
   -2.5926   -0.7215    0.3921 N   0  0  0  0  0  0  0  0  0  0  0  0
   -2.8837   -1.6757   -0.5661 C   0  0  0  0  0  0  0  0  0  0  0  0
   -2.4142   -1.7838   -1.6903 O   0  0  0  0  0  0  0  0  0  0  0  0
   -3.8473   -2.6903   -0.1182 C   0  0  0  0  0  0  0  0  0  0  0  0
   -3.5006   -3.5600    0.9204 C   0  0  0  0  0  0  0  0  0  0  0  0
   -4.4159   -4.5271    1.3267 C   0  0  0  0  0  0  0  0  0  0  0  0
   -5.6417   -4.5852    0.6808 C   0  0  0  0  0  0  0  0  0  0  0  0
   -6.0024   -3.7548   -0.3221 N   0  0  0  0  0  0  0  0  0  0  0  0
   -5.0911   -2.8304   -0.7125 C   0  0  0  0  0  0  0  0  0  0  0  0
   -5.6731   -1.7997   -1.9587 Cl  0  0  0  0  0  0  0  0  0  0  0  0
   -1.4726    1.1463    1.3956 C   0  0  0  0  0  0  0  0  0  0  0  0
   -0.5517    2.2033    1.3560 C   0  0  0  0  0  0  0  0  0  0  0  0
    0.2288    2.4902    0.2196 C   0  0  0  0  0  0  0  0  0  0  0  0
    1.0486    3.6041    0.2021 N   0  0  0  0  0  0  0  0  0  0  0  0
    0.8413    4.6244   -0.8431 C   0  0  0  0  0  0  0  0  0  0  0  0
    1.2375    5.9427   -0.1773 C   0  0  0  0  0  0  0  0  0  0  0  0
    2.2365    5.5081    0.8810 C   0  0  0  0  0  0  0  0  0  0  0  0
    1.6005    4.2264    1.4069 C   0  0  0  0  0  0  0  0  0  0  0  0
    1.0832   -2.2263   -1.8800 C   0  0  0  0  0  0  0  0  0  0  0  0
    1.4717   -3.2568   -1.0198 C   0  0  0  0  0  0  0  0  0  0  0  0
    4.8656   -3.9058    0.9341 H   0  0  0  0  0  0  0  0  0  0  0  0
    4.0448   -5.0095    2.0447 H   0  0  0  0  0  0  0  0  0  0  0  0
    3.8029   -3.2707    2.2508 H   0  0  0  0  0  0  0  0  0  0  0  0
    4.0736   -1.6885    0.5154 H   0  0  0  0  0  0  0  0  0  0  0  0
    3.4075    0.0889   -0.9858 H   0  0  0  0  0  0  0  0  0  0  0  0
    0.6519   -0.2402   -3.4913 H   0  0  0  0  0  0  0  0  0  0  0  0
   -1.0369   -0.0198   -1.7385 H   0  0  0  0  0  0  0  0  0  0  0  0
   -3.0863   -0.7837    1.2749 H   0  0  0  0  0  0  0  0  0  0  0  0
   -2.5224   -3.5022    1.3918 H   0  0  0  0  0  0  0  0  0  0  0  0
   -4.1773   -5.2268    2.1215 H   0  0  0  0  0  0  0  0  0  0  0  0
   -6.3885   -5.3244    0.9603 H   0  0  0  0  0  0  0  0  0  0  0  0
   -2.0412    0.9919    2.3088 H   0  0  0  0  0  0  0  0  0  0  0  0
   -0.4846    2.8252    2.2439 H   0  0  0  0  0  0  0  0  0  0  0  0
   -0.1953    4.6682   -1.1959 H   0  0  0  0  0  0  0  0  0  0  0  0
    1.5012    4.4417   -1.6954 H   0  0  0  0  0  0  0  0  0  0  0  0
    0.3617    6.4008    0.2980 H   0  0  0  0  0  0  0  0  0  0  0  0
    1.6548    6.6612   -0.8883 H   0  0  0  0  0  0  0  0  0  0  0  0
    3.2081    5.2930    0.4202 H   0  0  0  0  0  0  0  0  0  0  0  0
    2.3803    6.2579    1.6637 H   0  0  0  0  0  0  0  0  0  0  0  0
    0.8178    4.4939    2.1252 H   0  0  0  0  0  0  0  0  0  0  0  0
    2.3372    3.5813    1.8955 H   0  0  0  0  0  0  0  0  0  0  0  0
    0.2406   -2.3908   -2.5474 H   0  0  0  0  0  0  0  0  0  0  0  0
    0.9349   -4.2019   -1.0391 H   0  0  0  0  0  0  0  0  0  0  0  0
  1  2  1  0
  2  3  1  0
  3  4  2  0
  4  5  1  0
  5  6  2  0
  6  7  1  0
  7  8  1  0
  8  9  2  0
  8 10  2  0
  8 11  1  0
 11 12  2  0
 12 13  1  0
 13 14  1  0
 14 15  1  0
 15 16  2  0
 15 17  1  0
 17 18  2  0
 18 19  1  0
 19 20  2  0
 20 21  1  0
 21 22  2  0
 22 23  1  0
 13 24  2  0
 24 25  1  0
 25 26  2  0
 26 27  1  0
 27 28  1  0
 28 29  1  0
 29 30  1  0
 30 31  1  0
  6 32  1  0
 32 33  2  0
 33  3  1  0
 26 11  1  0
 31 27  1  0
 22 17  1  0
  1 34  1  0
  1 35  1  0
  1 36  1  0
  4 37  1  0
  5 38  1  0
  7 39  1  0
 12 40  1  0
 14 41  1  0
 18 42  1  0
 19 43  1  0
 20 44  1  0
 24 45  1  0
 25 46  1  0
 28 47  1  0
 28 48  1  0
 29 49  1  0
 29 50  1  0
 30 51  1  0
 30 52  1  0
 31 53  1  0
 31 54  1  0
 32 55  1  0
 33 56  1  0
M  END
$$$$
