
     RDKit          3D

 45 47  0  0  0  0  0  0  0  0999 V2000
    4.7628   -2.3274    0.3041 O   0  0  0  0  0  0  0  0  0  0  0  0
    3.7155   -1.7027    0.4301 C   0  0  0  0  0  0  0  0  0  0  0  0
    3.4334   -0.7715    1.6088 C   0  0  0  0  0  0  0  0  0  0  0  0
    2.1172   -0.1463    1.5846 N   0  0  0  0  0  0  0  0  0  0  0  0
    1.0321   -0.8099    2.1203 C   0  0  0  0  0  0  0  0  0  0  0  0
    1.1286   -1.8697    2.7278 O   0  0  0  0  0  0  0  0  0  0  0  0
   -0.3035   -0.1983    1.8752 C   0  0  0  0  0  0  0  0  0  0  0  0
   -1.4277   -1.0297    1.8783 C   0  0  0  0  0  0  0  0  0  0  0  0
   -2.6999   -0.4956    1.6489 C   0  0  0  0  0  0  0  0  0  0  0  0
   -2.8784    0.8786    1.4203 C   0  0  0  0  0  0  0  0  0  0  0  0
   -4.2182    1.4402    1.1817 C   0  0  0  0  0  0  0  0  0  0  0  0
   -5.2724    1.2050    2.0803 C   0  0  0  0  0  0  0  0  0  0  0  0
   -6.5444    1.7385    1.8552 C   0  0  0  0  0  0  0  0  0  0  0  0
   -6.7843    2.5164    0.7257 C   0  0  0  0  0  0  0  0  0  0  0  0
   -5.7540    2.7617   -0.1782 C   0  0  0  0  0  0  0  0  0  0  0  0
   -4.4822    2.2284    0.0488 C   0  0  0  0  0  0  0  0  0  0  0  0
   -1.7407    1.7034    1.4359 C   0  0  0  0  0  0  0  0  0  0  0  0
   -0.4646    1.1750    1.6647 C   0  0  0  0  0  0  0  0  0  0  0  0
    2.6928   -1.7034   -0.4696 O   0  0  0  0  0  0  0  0  0  0  0  0
    2.8750   -2.5273   -1.6252 C   0  0  0  0  0  0  0  0  0  0  0  0
    3.3115   -1.6592   -2.7774 C   0  0  0  0  0  0  0  0  0  0  0  0
    2.3657   -0.9491   -3.5315 C   0  0  0  0  0  0  0  0  0  0  0  0
    2.7741   -0.1248   -4.5825 C   0  0  0  0  0  0  0  0  0  0  0  0
    4.1300   -0.0002   -4.8782 C   0  0  0  0  0  0  0  0  0  0  0  0
    4.6322    1.0187   -6.1705 Cl  0  0  0  0  0  0  0  0  0  0  0  0
    5.0815   -0.6904   -4.1306 C   0  0  0  0  0  0  0  0  0  0  0  0
    4.6733   -1.5152   -3.0801 C   0  0  0  0  0  0  0  0  0  0  0  0
    4.1646    0.0415    1.5751 H   0  0  0  0  0  0  0  0  0  0  0  0
    3.5517   -1.3409    2.5356 H   0  0  0  0  0  0  0  0  0  0  0  0
    1.9423    0.5073    0.8329 H   0  0  0  0  0  0  0  0  0  0  0  0
   -1.3180   -2.0980    2.0555 H   0  0  0  0  0  0  0  0  0  0  0  0
   -3.5568   -1.1672    1.6425 H   0  0  0  0  0  0  0  0  0  0  0  0
   -5.1050    0.6093    2.9756 H   0  0  0  0  0  0  0  0  0  0  0  0
   -7.3455    1.5473    2.5646 H   0  0  0  0  0  0  0  0  0  0  0  0
   -7.7735    2.9310    0.5501 H   0  0  0  0  0  0  0  0  0  0  0  0
   -5.9389    3.3659   -1.0625 H   0  0  0  0  0  0  0  0  0  0  0  0
   -3.6954    2.4237   -0.6769 H   0  0  0  0  0  0  0  0  0  0  0  0
   -1.8470    2.7774    1.2904 H   0  0  0  0  0  0  0  0  0  0  0  0
    0.3820    1.8541    1.7051 H   0  0  0  0  0  0  0  0  0  0  0  0
    1.9086   -2.9906   -1.8558 H   0  0  0  0  0  0  0  0  0  0  0  0
    3.5738   -3.3556   -1.4564 H   0  0  0  0  0  0  0  0  0  0  0  0
    1.3052   -1.0341   -3.3023 H   0  0  0  0  0  0  0  0  0  0  0  0
    2.0323    0.4170   -5.1632 H   0  0  0  0  0  0  0  0  0  0  0  0
    6.1397   -0.5898   -4.3565 H   0  0  0  0  0  0  0  0  0  0  0  0
    5.4245   -2.0435   -2.4939 H   0  0  0  0  0  0  0  0  0  0  0  0
  1  2  2  0
  2  3  1  0
  3  4  1  0
  4  5  1  0
  5  6  2  0
  5  7  1  0
  7  8  2  0
  8  9  1  0
  9 10  2  0
 10 11  1  0
 11 12  2  0
 12 13  1  0
 13 14  2  0
 14 15  1  0
 15 16  2  0
 10 17  1  0
 17 18  2  0
  2 19  1  0
 19 20  1  0
 20 21  1  0
 21 22  2  0
 22 23  1  0
 23 24  2  0
 24 25  1  0
 24 26  1  0
 26 27  2  0
 18  7  1  0
 27 21  1  0
 16 11  1  0
  3 28  1  0
  3 29  1  0
  4 30  1  0
  8 31  1  0
  9 32  1  0
 12 33  1  0
 13 34  1  0
 14 35  1  0
 15 36  1  0
 16 37  1  0
 17 38  1  0
 18 39  1  0
 20 40  1  0
 20 41  1  0
 22 42  1  0
 23 43  1  0
 26 44  1  0
 27 45  1  0
M  END
$$$$
