
     RDKit          3D

 52 55  0  0  0  0  0  0  0  0999 V2000
    7.0927    1.1107   -2.0306 C   0  0  0  0  0  0  0  0  0  0  0  0
    5.8902    0.2122   -1.7726 C   0  0  0  0  0  0  0  0  0  0  0  0
    5.2940    0.3871   -0.3610 C   0  0  0  0  0  0  0  0  0  0  0  0
    6.2663    0.0581    0.7793 C   0  0  0  0  0  0  0  0  0  0  0  0
    3.9558   -0.2759   -0.2285 N   0  0  0  0  0  0  0  0  0  0  0  0
    2.8675    0.6124   -0.2872 C   0  0  0  0  0  0  0  0  0  0  0  0
    2.9948    1.8161   -0.5210 O   0  0  0  0  0  0  0  0  0  0  0  0
    1.5079    0.0432   -0.0674 C   0  0  0  0  0  0  0  0  0  0  0  0
    0.4865    0.9228   -0.0018 C   0  0  0  0  0  0  0  0  0  0  0  0
   -0.9346    0.6314    0.2028 C   0  0  0  0  0  0  0  0  0  0  0  0
   -1.4334    0.3644    1.4777 C   0  0  0  0  0  0  0  0  0  0  0  0
   -2.8050    0.1296    1.6739 C   0  0  0  0  0  0  0  0  0  0  0  0
   -3.6986    0.1361    0.5837 C   0  0  0  0  0  0  0  0  0  0  0  0
   -3.1796    0.3939   -0.7010 C   0  0  0  0  0  0  0  0  0  0  0  0
   -1.8110    0.6557   -0.8820 C   0  0  0  0  0  0  0  0  0  0  0  0
   -4.0944    0.4189   -1.8984 C   0  0  0  0  0  0  0  0  0  0  0  0
   -5.3401   -0.4186   -1.6483 C   0  0  0  0  0  0  0  0  0  0  0  0
   -5.9888    0.0088   -0.3413 C   0  0  0  0  0  0  0  0  0  0  0  0
   -5.0544   -0.0999    0.7715 N   0  0  0  0  0  0  0  0  0  0  0  0
   -5.5487   -0.5441    2.0678 C   0  0  0  0  0  0  0  0  0  0  0  0
   -4.7876    0.1321    3.1971 C   0  0  0  0  0  0  0  0  0  0  0  0
   -3.3019   -0.1700    3.0652 C   0  0  0  0  0  0  0  0  0  0  0  0
    1.3395   -1.4132    0.0499 C   0  0  0  0  0  0  0  0  0  0  0  0
    0.2809   -2.0010    0.2245 O   0  0  0  0  0  0  0  0  0  0  0  0
    2.5014   -2.1188   -0.0548 N   0  0  0  0  0  0  0  0  0  0  0  0
    3.7846   -1.6580   -0.1767 C   0  0  0  0  0  0  0  0  0  0  0  0
    4.9454   -2.8665   -0.2418 S   0  0  0  0  0  0  0  0  0  0  0  0
    7.4263    1.0022   -3.0677 H   0  0  0  0  0  0  0  0  0  0  0  0
    6.8409    2.1630   -1.8655 H   0  0  0  0  0  0  0  0  0  0  0  0
    7.9337    0.8484   -1.3820 H   0  0  0  0  0  0  0  0  0  0  0  0
    6.1907   -0.8236   -1.9527 H   0  0  0  0  0  0  0  0  0  0  0  0
    5.1192    0.4450   -2.5180 H   0  0  0  0  0  0  0  0  0  0  0  0
    5.1345    1.4659   -0.2442 H   0  0  0  0  0  0  0  0  0  0  0  0
    7.0291    0.8403    0.8649 H   0  0  0  0  0  0  0  0  0  0  0  0
    6.8034   -0.8798    0.6242 H   0  0  0  0  0  0  0  0  0  0  0  0
    5.7425    0.0072    1.7398 H   0  0  0  0  0  0  0  0  0  0  0  0
    0.6750    1.9908   -0.1129 H   0  0  0  0  0  0  0  0  0  0  0  0
   -0.7593    0.3392    2.3303 H   0  0  0  0  0  0  0  0  0  0  0  0
   -1.4341    0.8682   -1.8797 H   0  0  0  0  0  0  0  0  0  0  0  0
   -3.5757    0.0270   -2.7812 H   0  0  0  0  0  0  0  0  0  0  0  0
   -4.3721    1.4593   -2.1064 H   0  0  0  0  0  0  0  0  0  0  0  0
   -5.0710   -1.4817   -1.5972 H   0  0  0  0  0  0  0  0  0  0  0  0
   -6.0450   -0.3007   -2.4785 H   0  0  0  0  0  0  0  0  0  0  0  0
   -6.8697   -0.6194   -0.1630 H   0  0  0  0  0  0  0  0  0  0  0  0
   -6.3427    1.0446   -0.4124 H   0  0  0  0  0  0  0  0  0  0  0  0
   -5.4535   -1.6346    2.1390 H   0  0  0  0  0  0  0  0  0  0  0  0
   -6.6142   -0.3060    2.1698 H   0  0  0  0  0  0  0  0  0  0  0  0
   -4.9521    1.2168    3.1560 H   0  0  0  0  0  0  0  0  0  0  0  0
   -5.1569   -0.2166    4.1677 H   0  0  0  0  0  0  0  0  0  0  0  0
   -2.7520    0.4277    3.8016 H   0  0  0  0  0  0  0  0  0  0  0  0
   -3.1120   -1.2281    3.2830 H   0  0  0  0  0  0  0  0  0  0  0  0
    2.3859   -3.1228    0.0102 H   0  0  0  0  0  0  0  0  0  0  0  0
  1  2  1  0
  2  3  1  0
  3  4  1  0
  3  5  1  0
  5  6  1  0
  6  7  2  0
  6  8  1  0
  8  9  2  3
  9 10  1  0
 10 11  2  0
 11 12  1  0
 12 13  2  0
 13 14  1  0
 14 15  2  0
 14 16  1  0
 16 17  1  0
 17 18  1  0
 18 19  1  0
 19 20  1  0
 20 21  1  0
 21 22  1  0
  8 23  1  0
 23 24  2  0
 23 25  1  0
 25 26  1  0
 26 27  2  0
 26  5  1  0
 15 10  1  0
 22 12  1  0
 19 13  1  0
  1 28  1  0
  1 29  1  0
  1 30  1  0
  2 31  1  0
  2 32  1  0
  3 33  1  0
  4 34  1  0
  4 35  1  0
  4 36  1  0
  9 37  1  0
 11 38  1  0
 15 39  1  0
 16 40  1  0
 16 41  1  0
 17 42  1  0
 17 43  1  0
 18 44  1  0
 18 45  1  0
 20 46  1  0
 20 47  1  0
 21 48  1  0
 21 49  1  0
 22 50  1  0
 22 51  1  0
 25 52  1  0
M  END
$$$$
