
     RDKit          3D

 40 42  0  0  0  0  0  0  0  0999 V2000
   -5.3136    2.0904    0.2971 C   0  0  0  0  0  0  0  0  0  0  0  0
   -4.1496    1.1777   -0.0827 C   0  0  0  0  0  0  0  0  0  0  0  0
   -3.0076    1.2859    0.9485 C   0  0  0  0  0  0  0  0  0  0  0  0
   -1.7822    0.4663    0.5149 C   0  0  0  0  0  0  0  0  0  0  0  0
   -2.1583   -0.9179    0.0627 C   0  0  0  0  0  0  0  0  0  0  0  0
   -1.2922   -2.0718   -0.0567 C   0  0  0  0  0  0  0  0  0  0  0  0
    0.1533   -2.1676    0.1929 C   0  0  0  0  0  0  0  0  0  0  0  0
    0.6340   -3.1667    0.7137 O   0  0  0  0  0  0  0  0  0  0  0  0
    0.8586   -1.0735   -0.2694 N   0  0  0  0  0  0  0  0  0  0  0  0
    2.2394   -0.8243   -0.1500 C   0  0  0  0  0  0  0  0  0  0  0  0
    3.1195   -1.6279    0.5715 C   0  0  0  0  0  0  0  0  0  0  0  0
    4.4785   -1.2992    0.6441 C   0  0  0  0  0  0  0  0  0  0  0  0
    4.9810   -0.1650    0.0025 C   0  0  0  0  0  0  0  0  0  0  0  0
    6.3224    0.0279    0.1608 O   0  0  0  0  0  0  0  0  0  0  0  0
    6.9057    1.1591   -0.4613 C   0  0  0  0  0  0  0  0  0  0  0  0
    8.2291    1.1719   -0.1879 F   0  0  0  0  0  0  0  0  0  0  0  0
    6.3693    2.3055    0.0100 F   0  0  0  0  0  0  0  0  0  0  0  0
    6.7550    1.1106   -1.8024 F   0  0  0  0  0  0  0  0  0  0  0  0
    4.1030    0.6433   -0.7164 C   0  0  0  0  0  0  0  0  0  0  0  0
    2.7423    0.3149   -0.7893 C   0  0  0  0  0  0  0  0  0  0  0  0
   -2.0230   -3.1912   -0.4213 C   0  0  0  0  0  0  0  0  0  0  0  0
   -3.6732   -2.8586   -0.6960 S   0  0  0  0  0  0  0  0  0  0  0  0
   -3.4655   -1.2264   -0.2729 C   0  0  0  0  0  0  0  0  0  0  0  0
   -4.6303   -0.2828   -0.2199 C   0  0  0  0  0  0  0  0  0  0  0  0
   -6.1160    2.0248   -0.4451 H   0  0  0  0  0  0  0  0  0  0  0  0
   -5.7304    1.8197    1.2731 H   0  0  0  0  0  0  0  0  0  0  0  0
   -4.9873    3.1345    0.3470 H   0  0  0  0  0  0  0  0  0  0  0  0
   -3.7624    1.5101   -1.0559 H   0  0  0  0  0  0  0  0  0  0  0  0
   -3.3603    0.9289    1.9253 H   0  0  0  0  0  0  0  0  0  0  0  0
   -2.7091    2.3327    1.0803 H   0  0  0  0  0  0  0  0  0  0  0  0
   -1.0712    0.4157    1.3472 H   0  0  0  0  0  0  0  0  0  0  0  0
   -1.2880    0.9853   -0.3152 H   0  0  0  0  0  0  0  0  0  0  0  0
    0.3324   -0.4140   -0.8248 H   0  0  0  0  0  0  0  0  0  0  0  0
    2.7864   -2.5181    1.0962 H   0  0  0  0  0  0  0  0  0  0  0  0
    5.1471   -1.9430    1.2123 H   0  0  0  0  0  0  0  0  0  0  0  0
    4.4322    1.5383   -1.2364 H   0  0  0  0  0  0  0  0  0  0  0  0
    2.0851    0.9672   -1.3595 H   0  0  0  0  0  0  0  0  0  0  0  0
   -1.6487   -4.1982   -0.5557 H   0  0  0  0  0  0  0  0  0  0  0  0
   -5.2578   -0.5525    0.6396 H   0  0  0  0  0  0  0  0  0  0  0  0
   -5.2478   -0.3803   -1.1211 H   0  0  0  0  0  0  0  0  0  0  0  0
  1  2  1  0
  2  3  1  0
  3  4  1  0
  4  5  1  0
  5  6  1  0
  6  7  1  0
  7  8  2  0
  7  9  1  0
  9 10  1  0
 10 11  2  0
 11 12  1  0
 12 13  2  0
 13 14  1  0
 14 15  1  0
 15 16  1  0
 15 17  1  0
 15 18  1  0
 13 19  1  0
 19 20  2  0
  6 21  2  0
 21 22  1  0
 22 23  1  0
 23 24  1  0
 24  2  1  0
 23  5  2  0
 20 10  1  0
  1 25  1  0
  1 26  1  0
  1 27  1  0
  2 28  1  0
  3 29  1  0
  3 30  1  0
  4 31  1  0
  4 32  1  0
  9 33  1  0
 11 34  1  0
 12 35  1  0
 19 36  1  0
 20 37  1  0
 21 38  1  0
 24 39  1  0
 24 40  1  0
M  END
$$$$
