
     RDKit          3D

 54 57  0  0  0  0  0  0  0  0999 V2000
    8.4621    3.1523    1.3800 C   0  0  0  0  0  0  0  0  0  0  0  0
    7.2318    3.0657    2.0877 O   0  0  0  0  0  0  0  0  0  0  0  0
    6.2497    2.2992    1.5255 C   0  0  0  0  0  0  0  0  0  0  0  0
    6.3343    1.6089    0.3200 C   0  0  0  0  0  0  0  0  0  0  0  0
    5.2427    0.8578   -0.1387 C   0  0  0  0  0  0  0  0  0  0  0  0
    4.0384    0.7773    0.5851 C   0  0  0  0  0  0  0  0  0  0  0  0
    2.9012   -0.0179    0.0740 C   0  0  0  0  0  0  0  0  0  0  0  0
    1.5800    0.2898    0.3456 C   0  0  0  0  0  0  0  0  0  0  0  0
    0.5796   -0.5212   -0.1927 C   0  0  0  0  0  0  0  0  0  0  0  0
   -0.8106   -0.1024    0.0903 C   0  0  0  0  0  0  0  0  0  0  0  0
   -1.1676    0.0966    1.2440 O   0  0  0  0  0  0  0  0  0  0  0  0
   -1.6069    0.0977   -1.0146 N   0  0  0  0  0  0  0  0  0  0  0  0
   -2.9668    0.5922   -0.8912 C   0  0  0  0  0  0  0  0  0  0  0  0
   -3.9404   -0.4819   -0.3672 C   0  0  0  0  0  0  0  0  0  0  0  0
   -5.3539   -0.0628   -0.4005 N   0  0  0  0  0  0  0  0  0  0  0  0
   -5.5977    1.0993    0.4871 C   0  0  0  0  0  0  0  0  0  0  0  0
   -7.0658    1.1870    0.9325 C   0  0  0  0  0  0  0  0  0  0  0  0
   -7.4752    0.0616    1.7219 O   0  0  0  0  0  0  0  0  0  0  0  0
   -6.7462   -1.1341    1.4142 C   0  0  0  0  0  0  0  0  0  0  0  0
   -6.2575   -1.1805   -0.0420 C   0  0  0  0  0  0  0  0  0  0  0  0
    0.8962   -1.6610   -0.9620 C   0  0  0  0  0  0  0  0  0  0  0  0
   -0.0445   -2.5884   -1.4819 C   0  0  0  0  0  0  0  0  0  0  0  0
    0.3664   -3.6816   -2.2420 C   0  0  0  0  0  0  0  0  0  0  0  0
    1.7181   -3.8712   -2.4869 C   0  0  0  0  0  0  0  0  0  0  0  0
    2.6485   -2.9731   -1.9597 C   0  0  0  0  0  0  0  0  0  0  0  0
    2.2654   -1.8785   -1.1960 C   0  0  0  0  0  0  0  0  0  0  0  0
    3.2275   -1.0768   -0.7090 N   0  0  0  0  0  0  0  0  0  0  0  0
    3.9802    1.4749    1.8035 C   0  0  0  0  0  0  0  0  0  0  0  0
    5.0691    2.2260    2.2635 C   0  0  0  0  0  0  0  0  0  0  0  0
    8.3216    3.6208    0.4002 H   0  0  0  0  0  0  0  0  0  0  0  0
    9.1370    3.7896    1.9596 H   0  0  0  0  0  0  0  0  0  0  0  0
    8.9333    2.1684    1.2847 H   0  0  0  0  0  0  0  0  0  0  0  0
    7.2301    1.6271   -0.2912 H   0  0  0  0  0  0  0  0  0  0  0  0
    5.3388    0.3258   -1.0847 H   0  0  0  0  0  0  0  0  0  0  0  0
    1.3102    1.1554    0.9424 H   0  0  0  0  0  0  0  0  0  0  0  0
   -1.2061    0.0166   -1.9413 H   0  0  0  0  0  0  0  0  0  0  0  0
   -3.2729    0.9281   -1.8880 H   0  0  0  0  0  0  0  0  0  0  0  0
   -2.9494    1.4624   -0.2260 H   0  0  0  0  0  0  0  0  0  0  0  0
   -3.6523   -0.7946    0.6445 H   0  0  0  0  0  0  0  0  0  0  0  0
   -3.8210   -1.3650   -1.0091 H   0  0  0  0  0  0  0  0  0  0  0  0
   -5.3268    2.0188   -0.0428 H   0  0  0  0  0  0  0  0  0  0  0  0
   -4.9745    1.0295    1.3885 H   0  0  0  0  0  0  0  0  0  0  0  0
   -7.7336    1.2598    0.0660 H   0  0  0  0  0  0  0  0  0  0  0  0
   -7.2220    2.0853    1.5385 H   0  0  0  0  0  0  0  0  0  0  0  0
   -5.9033   -1.2111    2.1109 H   0  0  0  0  0  0  0  0  0  0  0  0
   -7.4107   -1.9810    1.6141 H   0  0  0  0  0  0  0  0  0  0  0  0
   -5.8025   -2.1548   -0.2554 H   0  0  0  0  0  0  0  0  0  0  0  0
   -7.1324   -1.1021   -0.6998 H   0  0  0  0  0  0  0  0  0  0  0  0
   -1.1079   -2.4765   -1.2811 H   0  0  0  0  0  0  0  0  0  0  0  0
   -0.3653   -4.3847   -2.6322 H   0  0  0  0  0  0  0  0  0  0  0  0
    2.0567   -4.7206   -3.0748 H   0  0  0  0  0  0  0  0  0  0  0  0
    3.7085   -3.1378   -2.1428 H   0  0  0  0  0  0  0  0  0  0  0  0
    3.0918    1.4324    2.4297 H   0  0  0  0  0  0  0  0  0  0  0  0
    4.9949    2.7532    3.2119 H   0  0  0  0  0  0  0  0  0  0  0  0
  1  2  1  0
  2  3  1  0
  3  4  2  0
  4  5  1  0
  5  6  2  0
  6  7  1  0
  7  8  2  0
  8  9  1  0
  9 10  1  0
 10 11  2  0
 10 12  1  0
 12 13  1  0
 13 14  1  0
 14 15  1  0
 15 16  1  0
 16 17  1  0
 17 18  1  0
 18 19  1  0
 19 20  1  0
  9 21  2  0
 21 22  1  0
 22 23  2  0
 23 24  1  0
 24 25  2  0
 25 26  1  0
 26 27  2  0
  6 28  1  0
 28 29  2  0
 29  3  1  0
 27  7  1  0
 20 15  1  0
 26 21  1  0
  1 30  1  0
  1 31  1  0
  1 32  1  0
  4 33  1  0
  5 34  1  0
  8 35  1  0
 12 36  1  0
 13 37  1  0
 13 38  1  0
 14 39  1  0
 14 40  1  0
 16 41  1  0
 16 42  1  0
 17 43  1  0
 17 44  1  0
 19 45  1  0
 19 46  1  0
 20 47  1  0
 20 48  1  0
 22 49  1  0
 23 50  1  0
 24 51  1  0
 25 52  1  0
 28 53  1  0
 29 54  1  0
M  END
$$$$
