
     RDKit          3D

 41 42  0  0  0  0  0  0  0  0999 V2000
    4.5532   -2.7011    0.6958 C   0  0  0  0  0  0  0  0  0  0  0  0
    3.3640   -1.9272    0.5759 O   0  0  0  0  0  0  0  0  0  0  0  0
    3.5012   -0.6184    0.1710 C   0  0  0  0  0  0  0  0  0  0  0  0
    4.7198    0.0064   -0.1093 C   0  0  0  0  0  0  0  0  0  0  0  0
    4.7294    1.3499   -0.5124 C   0  0  0  0  0  0  0  0  0  0  0  0
    6.0086    2.0088   -0.8075 N   0  0  0  0  0  4  0  0  0  0  0  0
    7.0416    1.3325   -0.6987 O   0  0  0  0  0  0  0  0  0  0  0  0
    5.9810    3.1999   -1.1466 O   0  0  0  0  0  1  0  0  0  0  0  0
    3.5366    2.0701   -0.6341 C   0  0  0  0  0  0  0  0  0  0  0  0
    2.3203    1.4425   -0.3528 C   0  0  0  0  0  0  0  0  0  0  0  0
    2.2913    0.1027    0.0446 C   0  0  0  0  0  0  0  0  0  0  0  0
    1.1015   -0.5931    0.3496 N   0  0  0  0  0  0  0  0  0  0  0  0
   -0.2048   -0.1707    0.1898 C   0  0  0  0  0  0  0  0  0  0  0  0
   -0.5536    0.8900   -0.3152 O   0  0  0  0  0  0  0  0  0  0  0  0
   -1.0900   -1.1419    0.6729 N   0  0  0  0  0  0  0  0  0  0  0  0
   -2.4970   -0.9860    0.6812 N   0  0  0  0  0  0  0  0  0  0  0  0
   -2.9605    0.1412    1.5089 C   0  0  0  0  0  0  0  0  0  0  0  0
   -4.5040    0.2311    1.5340 C   0  0  0  0  0  0  0  0  0  0  0  0
   -5.1539    0.2682    0.2074 N   0  0  0  0  0  0  0  0  0  0  0  0
   -4.9638    1.5654   -0.4423 C   0  0  0  0  0  0  0  0  0  0  0  0
   -4.6204   -0.8316   -0.6232 C   0  0  0  0  0  0  0  0  0  0  0  0
   -3.0784   -0.9322   -0.6714 C   0  0  0  0  0  0  0  0  0  0  0  0
    5.2153   -2.2880    1.4636 H   0  0  0  0  0  0  0  0  0  0  0  0
    5.0658   -2.7888   -0.2677 H   0  0  0  0  0  0  0  0  0  0  0  0
    4.2646   -3.7083    1.0119 H   0  0  0  0  0  0  0  0  0  0  0  0
    5.6591   -0.5300   -0.0200 H   0  0  0  0  0  0  0  0  0  0  0  0
    3.5307    3.1139   -0.9430 H   0  0  0  0  0  0  0  0  0  0  0  0
    1.4104    2.0281   -0.4489 H   0  0  0  0  0  0  0  0  0  0  0  0
    1.2463   -1.5634    0.5988 H   0  0  0  0  0  0  0  0  0  0  0  0
   -0.7195   -1.8234    1.3244 H   0  0  0  0  0  0  0  0  0  0  0  0
   -2.6079    0.0019    2.5381 H   0  0  0  0  0  0  0  0  0  0  0  0
   -2.5528    1.0953    1.1572 H   0  0  0  0  0  0  0  0  0  0  0  0
   -4.8114    1.1008    2.1282 H   0  0  0  0  0  0  0  0  0  0  0  0
   -4.8943   -0.6429    2.0729 H   0  0  0  0  0  0  0  0  0  0  0  0
   -3.9132    1.8146   -0.6214 H   0  0  0  0  0  0  0  0  0  0  0  0
   -5.4027    2.3629    0.1677 H   0  0  0  0  0  0  0  0  0  0  0  0
   -5.4871    1.5881   -1.4047 H   0  0  0  0  0  0  0  0  0  0  0  0
   -5.0156   -0.7583   -1.6441 H   0  0  0  0  0  0  0  0  0  0  0  0
   -5.0178   -1.7746   -0.2239 H   0  0  0  0  0  0  0  0  0  0  0  0
   -2.8113   -1.8459   -1.2164 H   0  0  0  0  0  0  0  0  0  0  0  0
   -2.6809   -0.0885   -1.2466 H   0  0  0  0  0  0  0  0  0  0  0  0
  1  2  1  0
  2  3  1  0
  3  4  2  0
  4  5  1  0
  5  6  1  0
  6  7  2  0
  6  8  1  0
  5  9  2  0
  9 10  1  0
 10 11  2  0
 11 12  1  0
 12 13  1  0
 13 14  2  0
 13 15  1  0
 15 16  1  0
 16 17  1  0
 17 18  1  0
 18 19  1  0
 19 20  1  0
 19 21  1  0
 21 22  1  0
 11  3  1  0
 22 16  1  0
  1 23  1  0
  1 24  1  0
  1 25  1  0
  4 26  1  0
  9 27  1  0
 10 28  1  0
 12 29  1  0
 15 30  1  0
 17 31  1  0
 17 32  1  0
 18 33  1  0
 18 34  1  0
 20 35  1  0
 20 36  1  0
 20 37  1  0
 21 38  1  0
 21 39  1  0
 22 40  1  0
 22 41  1  0
M  CHG  2   6   1   8  -1
M  END
$$$$
