
     RDKit          3D

 47 49  0  0  0  0  0  0  0  0999 V2000
    5.5375   -3.4704    1.3348 C   0  0  0  0  0  0  0  0  0  0  0  0
    4.9488   -2.4641    0.3515 C   0  0  0  0  0  0  0  0  0  0  0  0
    4.1577   -1.4288    1.0264 N   0  0  0  0  0  0  0  0  0  0  0  0
    2.8454   -1.9125    1.5076 C   0  0  0  0  0  0  0  0  0  0  0  0
    1.6266   -1.5449    0.6279 C   0  0  0  0  0  0  0  0  0  0  0  0
    1.5069   -0.0824    0.4176 N   0  0  0  0  0  0  0  0  0  0  0  0
    0.2831    0.5582    0.1521 C   0  0  0  0  0  0  0  0  0  0  0  0
   -0.8399   -0.0968   -0.2168 C   0  0  0  0  0  0  0  0  0  0  0  0
   -2.1086    0.5655   -0.4733 C   0  0  0  0  0  0  0  0  0  0  0  0
   -3.2717   -0.1063   -0.4070 C   0  0  0  0  0  0  0  0  0  0  0  0
   -4.5734    0.5603   -0.4755 C   0  0  0  0  0  0  0  0  0  0  0  0
   -5.7305   -0.0925   -0.7474 C   0  0  0  0  0  0  0  0  0  0  0  0
   -5.7611   -1.4892   -1.0357 C   0  0  0  0  0  0  0  0  0  0  0  0
   -5.7745   -2.6274   -1.2632 N   0  0  0  0  0  0  0  0  0  0  0  0
   -6.9833    0.5873   -0.7664 C   0  0  0  0  0  0  0  0  0  0  0  0
   -7.9973    1.1519   -0.7782 N   0  0  0  0  0  0  0  0  0  0  0  0
   -4.4928    2.0462   -0.1505 C   0  0  0  0  0  0  0  0  0  0  0  0
   -3.3835    2.7246   -0.9487 C   0  0  0  0  0  0  0  0  0  0  0  0
   -2.0171    2.0485   -0.7622 C   0  0  0  0  0  0  0  0  0  0  0  0
   -1.1748    2.6866    0.3426 C   0  0  0  0  0  0  0  0  0  0  0  0
    0.2360    2.0773    0.3331 C   0  0  0  0  0  0  0  0  0  0  0  0
    2.7919    0.6475    0.5304 C   0  0  0  0  0  0  0  0  0  0  0  0
    3.9846   -0.2543    0.1438 C   0  0  0  0  0  0  0  0  0  0  0  0
    6.1351   -2.9663    2.1018 H   0  0  0  0  0  0  0  0  0  0  0  0
    6.1947   -4.1676    0.8045 H   0  0  0  0  0  0  0  0  0  0  0  0
    4.7658   -4.0621    1.8352 H   0  0  0  0  0  0  0  0  0  0  0  0
    5.7969   -1.9958   -0.1648 H   0  0  0  0  0  0  0  0  0  0  0  0
    4.3565   -2.9824   -0.4126 H   0  0  0  0  0  0  0  0  0  0  0  0
    2.6904   -1.4649    2.4984 H   0  0  0  0  0  0  0  0  0  0  0  0
    2.8443   -2.9952    1.6736 H   0  0  0  0  0  0  0  0  0  0  0  0
    0.7338   -1.9284    1.1357 H   0  0  0  0  0  0  0  0  0  0  0  0
    1.7019   -2.0433   -0.3459 H   0  0  0  0  0  0  0  0  0  0  0  0
   -0.8349   -1.1780   -0.3126 H   0  0  0  0  0  0  0  0  0  0  0  0
   -3.2529   -1.1817   -0.2336 H   0  0  0  0  0  0  0  0  0  0  0  0
   -5.4308    2.5707   -0.3585 H   0  0  0  0  0  0  0  0  0  0  0  0
   -4.3022    2.1659    0.9243 H   0  0  0  0  0  0  0  0  0  0  0  0
   -3.3307    3.7887   -0.6898 H   0  0  0  0  0  0  0  0  0  0  0  0
   -3.6512    2.6836   -2.0139 H   0  0  0  0  0  0  0  0  0  0  0  0
   -1.4758    2.1825   -1.7109 H   0  0  0  0  0  0  0  0  0  0  0  0
   -1.6415    2.5283    1.3240 H   0  0  0  0  0  0  0  0  0  0  0  0
   -1.0974    3.7707    0.1978 H   0  0  0  0  0  0  0  0  0  0  0  0
    0.7294    2.3575    1.2717 H   0  0  0  0  0  0  0  0  0  0  0  0
    0.8027    2.5387   -0.4857 H   0  0  0  0  0  0  0  0  0  0  0  0
    2.8024    1.5102   -0.1448 H   0  0  0  0  0  0  0  0  0  0  0  0
    2.9108    1.0204    1.5547 H   0  0  0  0  0  0  0  0  0  0  0  0
    3.8379   -0.5773   -0.8965 H   0  0  0  0  0  0  0  0  0  0  0  0
    4.9044    0.3415    0.1720 H   0  0  0  0  0  0  0  0  0  0  0  0
  1  2  1  0
  2  3  1  0
  3  4  1  0
  4  5  1  0
  5  6  1  0
  6  7  1  0
  7  8  2  0
  8  9  1  0
  9 10  2  0
 10 11  1  0
 11 12  2  3
 12 13  1  0
 13 14  3  0
 12 15  1  0
 15 16  3  0
 11 17  1  0
 17 18  1  0
 18 19  1  0
 19 20  1  0
 20 21  1  0
  6 22  1  0
 22 23  1  0
 23  3  1  0
 21  7  1  0
 19  9  1  0
  1 24  1  0
  1 25  1  0
  1 26  1  0
  2 27  1  0
  2 28  1  0
  4 29  1  0
  4 30  1  0
  5 31  1  0
  5 32  1  0
  8 33  1  0
 10 34  1  0
 17 35  1  0
 17 36  1  0
 18 37  1  0
 18 38  1  0
 19 39  1  0
 20 40  1  0
 20 41  1  0
 21 42  1  0
 21 43  1  0
 22 44  1  0
 22 45  1  0
 23 46  1  0
 23 47  1  0
M  END
$$$$
