
     RDKit          3D

 48 50  0  0  0  0  0  0  0  0999 V2000
    5.7751    1.8432    2.2197 C   0  0  0  0  0  0  0  0  0  0  0  0
    6.4427    0.4870    2.0522 C   0  0  0  0  0  0  0  0  0  0  0  0
    5.5840   -0.5195    1.2878 C   0  0  0  0  0  0  0  0  0  0  0  0
    5.3692   -0.1470   -0.1788 C   0  0  0  0  0  0  0  0  0  0  0  0
    4.6520   -1.1809   -0.8560 O   0  0  0  0  0  0  0  0  0  0  0  0
    3.2877   -1.1226   -0.8819 C   0  0  0  0  0  0  0  0  0  0  0  0
    2.6802   -2.0894   -1.6821 C   0  0  0  0  0  0  0  0  0  0  0  0
    1.2870   -2.1491   -1.7989 C   0  0  0  0  0  0  0  0  0  0  0  0
    0.4636   -1.2333   -1.1286 C   0  0  0  0  0  0  0  0  0  0  0  0
   -0.9346   -1.3628   -1.2465 N   0  0  0  0  0  0  0  0  0  0  0  0
   -1.8928   -0.4174   -0.9914 C   0  0  0  0  0  0  0  0  0  0  0  0
   -1.6971    0.8201   -0.6884 N   0  0  0  0  0  0  0  0  0  0  0  0
   -2.7788    1.6266   -0.5435 C   0  0  0  0  0  0  0  0  0  0  0  0
   -2.5281    2.9579   -0.4891 N   0  0  0  0  0  0  0  0  0  0  0  0
   -4.0019    1.2309   -0.4844 N   0  0  0  0  0  0  0  0  0  0  0  0
   -4.2012   -0.2061   -0.5121 C   0  0  0  0  0  0  0  0  0  0  0  0
   -4.4921   -0.7033    0.9104 C   0  0  0  0  0  0  0  0  0  0  0  0
   -5.9438   -0.3108    1.1738 C   0  0  0  0  0  0  0  0  0  0  0  0
   -6.6106   -0.2066   -0.1967 C   0  0  0  0  0  0  0  0  0  0  0  0
   -5.5225   -0.5068   -1.2260 C   0  0  0  0  0  0  0  0  0  0  0  0
   -3.1347   -0.9550   -1.1197 N   0  0  0  0  0  0  0  0  0  0  0  0
    1.0853   -0.2894   -0.3050 C   0  0  0  0  0  0  0  0  0  0  0  0
    2.4819   -0.2270   -0.1858 C   0  0  0  0  0  0  0  0  0  0  0  0
    5.6444    2.3484    1.2585 H   0  0  0  0  0  0  0  0  0  0  0  0
    6.3920    2.4897    2.8522 H   0  0  0  0  0  0  0  0  0  0  0  0
    4.7937    1.7423    2.6940 H   0  0  0  0  0  0  0  0  0  0  0  0
    6.6546    0.0783    3.0474 H   0  0  0  0  0  0  0  0  0  0  0  0
    7.4084    0.6138    1.5495 H   0  0  0  0  0  0  0  0  0  0  0  0
    6.0672   -1.5041    1.3303 H   0  0  0  0  0  0  0  0  0  0  0  0
    4.6208   -0.6480    1.7950 H   0  0  0  0  0  0  0  0  0  0  0  0
    4.9009    0.8330   -0.3171 H   0  0  0  0  0  0  0  0  0  0  0  0
    6.3468   -0.0816   -0.6711 H   0  0  0  0  0  0  0  0  0  0  0  0
    3.2960   -2.8057   -2.2204 H   0  0  0  0  0  0  0  0  0  0  0  0
    0.8558   -2.9225   -2.4290 H   0  0  0  0  0  0  0  0  0  0  0  0
   -1.2121   -2.0341   -1.9485 H   0  0  0  0  0  0  0  0  0  0  0  0
   -1.6677    3.1921   -0.9653 H   0  0  0  0  0  0  0  0  0  0  0  0
   -3.3289    3.4995   -0.7833 H   0  0  0  0  0  0  0  0  0  0  0  0
   -4.3997   -1.7955    0.9724 H   0  0  0  0  0  0  0  0  0  0  0  0
   -3.8179   -0.2764    1.6611 H   0  0  0  0  0  0  0  0  0  0  0  0
   -6.4443   -1.0427    1.8159 H   0  0  0  0  0  0  0  0  0  0  0  0
   -5.9906    0.6580    1.6846 H   0  0  0  0  0  0  0  0  0  0  0  0
   -7.0081    0.8046   -0.3419 H   0  0  0  0  0  0  0  0  0  0  0  0
   -7.4493   -0.9035   -0.2937 H   0  0  0  0  0  0  0  0  0  0  0  0
   -5.6586    0.0835   -2.1390 H   0  0  0  0  0  0  0  0  0  0  0  0
   -5.5816   -1.5657   -1.5107 H   0  0  0  0  0  0  0  0  0  0  0  0
   -3.1802   -1.9454   -0.9200 H   0  0  0  0  0  0  0  0  0  0  0  0
    0.4930    0.4129    0.2758 H   0  0  0  0  0  0  0  0  0  0  0  0
    2.8946    0.5279    0.4742 H   0  0  0  0  0  0  0  0  0  0  0  0
  1  2  1  0
  2  3  1  0
  3  4  1  0
  4  5  1  0
  5  6  1  0
  6  7  2  0
  7  8  1  0
  8  9  2  0
  9 10  1  0
 10 11  1  0
 11 12  2  0
 12 13  1  0
 13 14  1  0
 13 15  2  0
 15 16  1  0
 16 17  1  0
 17 18  1  0
 18 19  1  0
 19 20  1  0
 16 21  1  0
  9 22  1  0
 22 23  2  0
 23  6  1  0
 21 11  1  0
 20 16  1  0
  1 24  1  0
  1 25  1  0
  1 26  1  0
  2 27  1  0
  2 28  1  0
  3 29  1  0
  3 30  1  0
  4 31  1  0
  4 32  1  0
  7 33  1  0
  8 34  1  0
 10 35  1  0
 14 36  1  0
 14 37  1  0
 17 38  1  0
 17 39  1  0
 18 40  1  0
 18 41  1  0
 19 42  1  0
 19 43  1  0
 20 44  1  0
 20 45  1  0
 21 46  1  0
 22 47  1  0
 23 48  1  0
M  END
$$$$
