
     RDKit          3D

 35 36  0  0  0  0  0  0  0  0999 V2000
   -6.5117   -0.3436   -1.4808 N   0  0  0  0  0  0  0  0  0  0  0  0
   -5.2492   -0.1997   -0.9727 C   0  0  0  0  0  0  0  0  0  0  0  0
   -4.4764   -1.3975   -0.5903 C   0  0  0  0  0  0  0  0  0  0  0  0
   -3.2629   -1.1680   -0.0934 C   0  0  0  0  0  0  0  0  0  0  0  0
   -2.7853    0.1147    0.0399 N   0  0  0  0  0  0  0  0  0  0  0  0
   -1.4283    0.3404    0.5257 C   0  0  0  0  0  0  0  0  0  0  0  0
   -0.3961    0.2519   -0.6040 C   0  0  0  0  0  0  0  0  0  0  0  0
   -0.5268   -0.4732   -1.5883 O   0  0  0  0  0  0  0  0  0  0  0  0
    0.7388    1.0036   -0.3766 N   0  0  0  0  0  0  0  0  0  0  0  0
    1.9198    0.8711   -1.2081 C   0  0  0  0  0  0  0  0  0  0  0  0
    2.7955   -0.3154   -0.7929 C   0  0  0  0  0  0  0  0  0  0  0  0
    3.4493   -0.1527    0.5645 C   0  0  0  0  0  0  0  0  0  0  0  0
    4.6654   -0.7852    0.8179 C   0  0  0  0  0  0  0  0  0  0  0  0
    5.2423   -0.6619    2.0790 C   0  0  0  0  0  0  0  0  0  0  0  0
    4.5907    0.0775    3.0571 C   0  0  0  0  0  0  0  0  0  0  0  0
    3.3789    0.6614    2.7336 C   0  0  0  0  0  0  0  0  0  0  0  0
    2.7916    0.5568    1.5198 N   0  0  0  0  0  0  0  0  0  0  0  0
   -3.5283    1.2221   -0.3758 C   0  0  0  0  0  0  0  0  0  0  0  0
   -3.0670    2.3594   -0.2991 O   0  0  0  0  0  0  0  0  0  0  0  0
   -4.7965    1.0095   -0.8635 N   0  0  0  0  0  0  0  0  0  0  0  0
   -6.8361    0.5212   -1.9049 H   0  0  0  0  0  0  0  0  0  0  0  0
   -6.6634   -1.1470   -2.0778 H   0  0  0  0  0  0  0  0  0  0  0  0
   -4.8963   -2.3841   -0.7146 H   0  0  0  0  0  0  0  0  0  0  0  0
   -2.6101   -1.9815    0.2070 H   0  0  0  0  0  0  0  0  0  0  0  0
   -1.3620    1.3224    1.0072 H   0  0  0  0  0  0  0  0  0  0  0  0
   -1.1784   -0.4150    1.2801 H   0  0  0  0  0  0  0  0  0  0  0  0
    0.9342    1.2973    0.5773 H   0  0  0  0  0  0  0  0  0  0  0  0
    2.4759    1.8118   -1.1317 H   0  0  0  0  0  0  0  0  0  0  0  0
    1.6030    0.7463   -2.2495 H   0  0  0  0  0  0  0  0  0  0  0  0
    3.5806   -0.4307   -1.5504 H   0  0  0  0  0  0  0  0  0  0  0  0
    2.2093   -1.2419   -0.7812 H   0  0  0  0  0  0  0  0  0  0  0  0
    5.1621   -1.3678    0.0482 H   0  0  0  0  0  0  0  0  0  0  0  0
    6.1925   -1.1419    2.2957 H   0  0  0  0  0  0  0  0  0  0  0  0
    5.0150    0.1932    4.0480 H   0  0  0  0  0  0  0  0  0  0  0  0
    2.8300    1.2465    3.4661 H   0  0  0  0  0  0  0  0  0  0  0  0
  1  2  1  0
  2  3  1  0
  3  4  2  0
  4  5  1  0
  5  6  1  0
  6  7  1  0
  7  8  2  0
  7  9  1  0
  9 10  1  0
 10 11  1  0
 11 12  1  0
 12 13  2  0
 13 14  1  0
 14 15  2  0
 15 16  1  0
 16 17  2  0
  5 18  1  0
 18 19  2  0
 18 20  1  0
 20  2  2  0
 17 12  1  0
  1 21  1  0
  1 22  1  0
  3 23  1  0
  4 24  1  0
  6 25  1  0
  6 26  1  0
  9 27  1  0
 10 28  1  0
 10 29  1  0
 11 30  1  0
 11 31  1  0
 13 32  1  0
 14 33  1  0
 15 34  1  0
 16 35  1  0
M  END
$$$$
