
     RDKit          3D

 40 41  0  0  0  0  0  0  0  0999 V2000
    0.2248    3.9185   -0.6725 C   0  0  0  0  0  0  0  0  0  0  0  0
    0.3872    2.5750   -1.3718 C   0  0  0  0  0  0  0  0  0  0  0  0
   -0.2042    1.4359   -0.5670 C   0  0  0  0  0  0  0  0  0  0  0  0
   -1.5260    1.0395   -0.7742 C   0  0  0  0  0  0  0  0  0  0  0  0
   -2.4093    1.6650   -1.8165 C   0  0  0  0  0  0  0  0  0  0  0  0
   -2.1149    0.0524   -0.0635 N   0  0  0  0  0  0  0  0  0  0  0  0
   -1.4560   -0.5810    0.9259 C   0  0  0  0  0  0  0  0  0  0  0  0
   -2.1125   -1.5841    1.6706 C   0  0  0  0  0  0  0  0  0  0  0  0
   -3.4134   -1.8498    1.2932 O   0  0  0  0  0  0  0  0  0  0  0  0
   -4.1438   -2.8094    2.0417 C   0  0  0  0  0  0  0  0  0  0  0  0
   -1.4662   -2.2519    2.7166 C   0  0  0  0  0  0  0  0  0  0  0  0
   -0.1594   -1.9249    3.0414 C   0  0  0  0  0  0  0  0  0  0  0  0
    0.5015   -0.9401    2.3140 C   0  0  0  0  0  0  0  0  0  0  0  0
   -0.1203   -0.2557    1.2354 C   0  0  0  0  0  0  0  0  0  0  0  0
    0.5117    0.7526    0.4425 C   0  0  0  0  0  0  0  0  0  0  0  0
    2.2533    1.1812    0.7376 S   0  0  0  0  0  0  0  0  0  0  0  0
    3.0690   -0.2588   -0.0474 C   0  0  0  0  0  0  0  0  0  0  0  0
    3.0212   -0.1856   -1.5670 C   0  0  0  0  0  0  0  0  0  0  0  0
    3.7683   -1.3421   -2.1662 C   0  0  0  0  0  0  0  0  0  0  0  0
    4.3361   -2.2435   -1.5743 O   0  0  0  0  0  0  0  0  0  0  0  0
    3.7611   -1.3023   -3.5130 O   0  0  0  0  0  0  0  0  0  0  0  0
   -0.8304    4.1547   -0.5007 H   0  0  0  0  0  0  0  0  0  0  0  0
    0.6533    4.7166   -1.2871 H   0  0  0  0  0  0  0  0  0  0  0  0
    0.7304    3.9331    0.2982 H   0  0  0  0  0  0  0  0  0  0  0  0
    1.4441    2.3958   -1.5925 H   0  0  0  0  0  0  0  0  0  0  0  0
   -0.0785    2.6278   -2.3623 H   0  0  0  0  0  0  0  0  0  0  0  0
   -2.4856    2.7455   -1.6653 H   0  0  0  0  0  0  0  0  0  0  0  0
   -2.0218    1.4581   -2.8187 H   0  0  0  0  0  0  0  0  0  0  0  0
   -3.4236    1.2545   -1.7631 H   0  0  0  0  0  0  0  0  0  0  0  0
   -4.2402   -2.5053    3.0892 H   0  0  0  0  0  0  0  0  0  0  0  0
   -5.1516   -2.8664    1.6193 H   0  0  0  0  0  0  0  0  0  0  0  0
   -3.6922   -3.8031    1.9563 H   0  0  0  0  0  0  0  0  0  0  0  0
   -1.9571   -3.0253    3.2967 H   0  0  0  0  0  0  0  0  0  0  0  0
    0.3465   -2.4313    3.8595 H   0  0  0  0  0  0  0  0  0  0  0  0
    1.5212   -0.7038    2.6102 H   0  0  0  0  0  0  0  0  0  0  0  0
    2.6231   -1.1909    0.3147 H   0  0  0  0  0  0  0  0  0  0  0  0
    4.1109   -0.2570    0.2925 H   0  0  0  0  0  0  0  0  0  0  0  0
    1.9887   -0.2350   -1.9278 H   0  0  0  0  0  0  0  0  0  0  0  0
    3.4894    0.7396   -1.9213 H   0  0  0  0  0  0  0  0  0  0  0  0
    4.2652   -2.0987   -3.7832 H   0  0  0  0  0  0  0  0  0  0  0  0
  1  2  1  0
  2  3  1  0
  3  4  2  0
  4  5  1  0
  4  6  1  0
  6  7  2  0
  7  8  1  0
  8  9  1  0
  9 10  1  0
  8 11  2  0
 11 12  1  0
 12 13  2  0
 13 14  1  0
 14 15  2  0
 15 16  1  0
 16 17  1  0
 17 18  1  0
 18 19  1  0
 19 20  2  0
 19 21  1  0
 15  3  1  0
 14  7  1  0
  1 22  1  0
  1 23  1  0
  1 24  1  0
  2 25  1  0
  2 26  1  0
  5 27  1  0
  5 28  1  0
  5 29  1  0
 10 30  1  0
 10 31  1  0
 10 32  1  0
 11 33  1  0
 12 34  1  0
 13 35  1  0
 17 36  1  0
 17 37  1  0
 18 38  1  0
 18 39  1  0
 21 40  1  0
M  END
$$$$
