
     RDKit          3D

 45 47  0  0  0  0  0  0  0  0999 V2000
    1.8011   -3.1251    1.6232 O   0  0  0  0  0  0  0  0  0  0  0  0
    1.5501   -2.3046    0.7367 C   0  0  0  0  0  0  0  0  0  0  0  0
    2.4309   -1.0737    0.5704 C   0  0  0  0  0  0  0  0  0  0  0  0
    1.7136    0.3198    1.5050 S   0  0  0  0  0  0  0  0  0  0  0  0
    2.6801    1.6592    0.8372 C   0  0  0  0  0  0  0  0  0  0  0  0
    4.0773    1.6625    0.9061 C   0  0  0  0  0  0  0  0  0  0  0  0
    4.8079    2.7264    0.3690 C   0  0  0  0  0  0  0  0  0  0  0  0
    4.1388    3.7914   -0.2307 C   0  0  0  0  0  0  0  0  0  0  0  0
    5.1259    5.2282   -0.9608 Br  0  0  0  0  0  0  0  0  0  0  0  0
    2.7472    3.8064   -0.2913 C   0  0  0  0  0  0  0  0  0  0  0  0
    2.0194    2.7423    0.2481 C   0  0  0  0  0  0  0  0  0  0  0  0
    0.4735   -2.4679   -0.1271 N   0  0  0  0  0  0  0  0  0  0  0  0
   -0.4590   -3.5785    0.0945 C   0  0  0  0  0  0  0  0  0  0  0  0
   -1.9117   -3.0865    0.0860 C   0  0  0  0  0  0  0  0  0  0  0  0
   -2.2551   -2.3851   -1.1850 N   0  0  0  0  0  0  0  0  0  0  0  0
   -3.6321   -1.3990   -1.1792 S   0  0  0  0  0  6  0  0  0  0  0  0
   -4.6296   -2.0250   -0.3379 O   0  0  0  0  0  0  0  0  0  0  0  0
   -3.9243   -1.0426   -2.5521 O   0  0  0  0  0  0  0  0  0  0  0  0
   -3.0813    0.0812   -0.3541 C   0  0  0  0  0  0  0  0  0  0  0  0
   -3.1716    0.1762    1.0376 C   0  0  0  0  0  0  0  0  0  0  0  0
   -2.7466    1.3411    1.6766 C   0  0  0  0  0  0  0  0  0  0  0  0
   -2.2588    2.4123    0.9266 C   0  0  0  0  0  0  0  0  0  0  0  0
   -2.2031    2.3281   -0.4656 C   0  0  0  0  0  0  0  0  0  0  0  0
   -2.6204    1.1640   -1.1114 C   0  0  0  0  0  0  0  0  0  0  0  0
   -1.0985   -1.9758   -2.0241 C   0  0  0  0  0  0  0  0  0  0  0  0
    0.0934   -1.5117   -1.1740 C   0  0  0  0  0  0  0  0  0  0  0  0
    3.4247   -1.3121    0.9653 H   0  0  0  0  0  0  0  0  0  0  0  0
    2.5562   -0.8213   -0.4850 H   0  0  0  0  0  0  0  0  0  0  0  0
    4.6124    0.8484    1.3891 H   0  0  0  0  0  0  0  0  0  0  0  0
    5.8929    2.7174    0.4303 H   0  0  0  0  0  0  0  0  0  0  0  0
    2.2202    4.6395   -0.7498 H   0  0  0  0  0  0  0  0  0  0  0  0
    0.9330    2.7663    0.2035 H   0  0  0  0  0  0  0  0  0  0  0  0
   -0.2933   -4.3032   -0.7117 H   0  0  0  0  0  0  0  0  0  0  0  0
   -0.2515   -4.0882    1.0406 H   0  0  0  0  0  0  0  0  0  0  0  0
   -2.5846   -3.9422    0.2038 H   0  0  0  0  0  0  0  0  0  0  0  0
   -2.0540   -2.4149    0.9375 H   0  0  0  0  0  0  0  0  0  0  0  0
   -3.5719   -0.6441    1.6288 H   0  0  0  0  0  0  0  0  0  0  0  0
   -2.8043    1.4187    2.7606 H   0  0  0  0  0  0  0  0  0  0  0  0
   -1.9351    3.3207    1.4301 H   0  0  0  0  0  0  0  0  0  0  0  0
   -1.8461    3.1753   -1.0466 H   0  0  0  0  0  0  0  0  0  0  0  0
   -2.5924    1.1133   -2.1980 H   0  0  0  0  0  0  0  0  0  0  0  0
   -1.3713   -1.1881   -2.7332 H   0  0  0  0  0  0  0  0  0  0  0  0
   -0.8094   -2.8437   -2.6302 H   0  0  0  0  0  0  0  0  0  0  0  0
    0.9572   -1.3393   -1.8236 H   0  0  0  0  0  0  0  0  0  0  0  0
   -0.1496   -0.5665   -0.6804 H   0  0  0  0  0  0  0  0  0  0  0  0
  1  2  2  0
  2  3  1  0
  3  4  1  0
  4  5  1  0
  5  6  2  0
  6  7  1  0
  7  8  2  0
  8  9  1  0
  8 10  1  0
 10 11  2  0
  2 12  1  0
 12 13  1  0
 13 14  1  0
 14 15  1  0
 15 16  1  0
 16 17  2  0
 16 18  2  0
 16 19  1  0
 19 20  2  0
 20 21  1  0
 21 22  2  0
 22 23  1  0
 23 24  2  0
 15 25  1  0
 25 26  1  0
 11  5  1  0
 26 12  1  0
 24 19  1  0
  3 27  1  0
  3 28  1  0
  6 29  1  0
  7 30  1  0
 10 31  1  0
 11 32  1  0
 13 33  1  0
 13 34  1  0
 14 35  1  0
 14 36  1  0
 20 37  1  0
 21 38  1  0
 22 39  1  0
 23 40  1  0
 24 41  1  0
 25 42  1  0
 25 43  1  0
 26 44  1  0
 26 45  1  0
M  END
$$$$
