
     RDKit          3D

 53 56  0  0  0  0  0  0  0  0999 V2000
    0.8451   -0.3392    3.6029 C   0  0  0  0  0  0  0  0  0  0  0  0
   -0.5199   -0.6933    3.0268 C   0  0  0  0  0  0  0  0  0  0  0  0
   -0.4936   -0.9083    1.5683 N   0  0  0  0  0  0  0  0  0  0  0  0
   -0.1047   -2.1172    0.9677 C   0  0  0  0  0  0  0  0  0  0  0  0
   -0.0432   -2.2250   -0.2634 O   0  0  0  0  0  0  0  0  0  0  0  0
    0.1346   -3.3295    1.8672 C   0  0  0  0  0  0  0  0  0  0  0  0
    1.3841   -4.4422    1.1471 S   0  0  0  0  0  0  0  0  0  0  0  0
    2.7872   -3.4654    1.4145 C   0  0  0  0  0  0  0  0  0  0  0  0
    3.2817   -3.1632    2.5945 N   0  0  0  0  0  0  0  0  0  0  0  0
    4.3893   -2.3681    2.3921 N   0  0  0  0  0  0  0  0  0  0  0  0
    4.5330   -2.2023    1.0928 C   0  0  0  0  0  0  0  0  0  0  0  0
    5.4865   -1.4912    0.3131 C   0  0  0  0  0  0  0  0  0  0  0  0
    5.3842   -1.4966   -1.0308 C   0  0  0  0  0  0  0  0  0  0  0  0
    4.3122   -2.2100   -1.7103 C   0  0  0  0  0  0  0  0  0  0  0  0
    3.4094   -2.8840   -0.9768 C   0  0  0  0  0  0  0  0  0  0  0  0
    3.5259   -2.8811    0.4145 N   0  0  0  0  0  0  0  0  0  0  0  0
   -0.4578    0.2408    0.7576 C   0  0  0  0  0  0  0  0  0  0  0  0
   -1.5156    1.0735    0.5876 C   0  0  0  0  0  0  0  0  0  0  0  0
   -2.7482    0.7725    1.1652 N   0  0  0  0  0  0  0  0  0  0  0  0
   -1.3675    2.2232   -0.1905 N   0  0  0  0  0  0  0  0  0  0  0  0
   -2.5024    3.1127   -0.4572 C   0  0  0  0  0  0  0  0  0  0  0  0
   -3.2281    2.7800   -1.7449 C   0  0  0  0  0  0  0  0  0  0  0  0
   -2.9156    3.4583   -2.9329 C   0  0  0  0  0  0  0  0  0  0  0  0
   -3.5750    3.1495   -4.1240 C   0  0  0  0  0  0  0  0  0  0  0  0
   -4.5515    2.1563   -4.1435 C   0  0  0  0  0  0  0  0  0  0  0  0
   -4.8664    1.4692   -2.9733 C   0  0  0  0  0  0  0  0  0  0  0  0
   -4.2078    1.7778   -1.7812 C   0  0  0  0  0  0  0  0  0  0  0  0
   -0.1829    2.5405   -0.8465 C   0  0  0  0  0  0  0  0  0  0  0  0
    0.0165    3.5894   -1.4583 O   0  0  0  0  0  0  0  0  0  0  0  0
    0.8164    1.6205   -0.7698 N   0  0  0  0  0  0  0  0  0  0  0  0
    0.8421    0.5781    0.0982 C   0  0  0  0  0  0  0  0  0  0  0  0
    1.8932    0.0073    0.3799 O   0  0  0  0  0  0  0  0  0  0  0  0
    0.7828   -0.2489    4.6918 H   0  0  0  0  0  0  0  0  0  0  0  0
    1.2025    0.6168    3.2070 H   0  0  0  0  0  0  0  0  0  0  0  0
    1.5959   -1.0962    3.3653 H   0  0  0  0  0  0  0  0  0  0  0  0
   -0.9145   -1.5911    3.5125 H   0  0  0  0  0  0  0  0  0  0  0  0
   -1.2212    0.1128    3.2680 H   0  0  0  0  0  0  0  0  0  0  0  0
   -0.8121   -3.8719    1.9523 H   0  0  0  0  0  0  0  0  0  0  0  0
    0.4651   -3.0618    2.8699 H   0  0  0  0  0  0  0  0  0  0  0  0
    6.2781   -0.9545    0.8226 H   0  0  0  0  0  0  0  0  0  0  0  0
    6.1002   -0.9568   -1.6432 H   0  0  0  0  0  0  0  0  0  0  0  0
    4.2568   -2.1731   -2.7929 H   0  0  0  0  0  0  0  0  0  0  0  0
    2.5778   -3.4227   -1.4139 H   0  0  0  0  0  0  0  0  0  0  0  0
   -2.7243   -0.1014    1.6847 H   0  0  0  0  0  0  0  0  0  0  0  0
   -3.0879    1.5324    1.7477 H   0  0  0  0  0  0  0  0  0  0  0  0
   -2.1391    4.1479   -0.5087 H   0  0  0  0  0  0  0  0  0  0  0  0
   -3.2088    3.1155    0.3803 H   0  0  0  0  0  0  0  0  0  0  0  0
   -2.1464    4.2290   -2.9390 H   0  0  0  0  0  0  0  0  0  0  0  0
   -3.3205    3.6811   -5.0372 H   0  0  0  0  0  0  0  0  0  0  0  0
   -5.0615    1.9131   -5.0717 H   0  0  0  0  0  0  0  0  0  0  0  0
   -5.6210    0.6871   -2.9888 H   0  0  0  0  0  0  0  0  0  0  0  0
   -4.4603    1.2226   -0.8811 H   0  0  0  0  0  0  0  0  0  0  0  0
    1.6969    1.8873   -1.1805 H   0  0  0  0  0  0  0  0  0  0  0  0
  1  2  1  0
  2  3  1  0
  3  4  1  0
  4  5  2  0
  4  6  1  0
  6  7  1  0
  7  8  1  0
  8  9  2  0
  9 10  1  0
 10 11  2  0
 11 12  1  0
 12 13  2  0
 13 14  1  0
 14 15  2  0
 15 16  1  0
  3 17  1  0
 17 18  2  0
 18 19  1  0
 18 20  1  0
 20 21  1  0
 21 22  1  0
 22 23  2  0
 23 24  1  0
 24 25  2  0
 25 26  1  0
 26 27  2  0
 20 28  1  0
 28 29  2  0
 28 30  1  0
 30 31  1  0
 31 32  2  0
 16  8  1  0
 31 17  1  0
 16 11  1  0
 27 22  1  0
  1 33  1  0
  1 34  1  0
  1 35  1  0
  2 36  1  0
  2 37  1  0
  6 38  1  0
  6 39  1  0
 12 40  1  0
 13 41  1  0
 14 42  1  0
 15 43  1  0
 19 44  1  0
 19 45  1  0
 21 46  1  0
 21 47  1  0
 23 48  1  0
 24 49  1  0
 25 50  1  0
 26 51  1  0
 27 52  1  0
 30 53  1  0
M  END
$$$$
