
     RDKit          3D

 47 49  0  0  0  0  0  0  0  0999 V2000
    1.2824   -0.0844   -1.5941 O   0  0  0  0  0  0  0  0  0  0  0  0
    1.3078   -0.8190   -0.6162 C   0  0  0  0  0  0  0  0  0  0  0  0
    0.6181   -2.1636   -0.5669 C   0  0  0  0  0  0  0  0  0  0  0  0
   -0.4177   -2.3373   -1.6824 C   0  0  0  0  0  0  0  0  0  0  0  0
   -1.5234   -1.3700   -1.6477 N   0  0  0  0  0  0  0  0  0  0  0  0
   -2.3383   -1.3242   -0.5269 C   0  0  0  0  0  0  0  0  0  0  0  0
   -2.2286   -2.0531    0.4497 O   0  0  0  0  0  0  0  0  0  0  0  0
   -3.3907   -0.2808   -0.6844 C   0  0  0  0  0  0  0  0  0  0  0  0
   -4.3171    0.0924    0.2124 C   0  0  0  0  0  0  0  0  0  0  0  0
   -4.4582   -0.4512    1.5623 C   0  0  0  0  0  0  0  0  0  0  0  0
   -3.8132    0.1745    2.6384 C   0  0  0  0  0  0  0  0  0  0  0  0
   -3.9429   -0.3428    3.9281 C   0  0  0  0  0  0  0  0  0  0  0  0
   -4.7133   -1.4806    4.1351 C   0  0  0  0  0  0  0  0  0  0  0  0
   -4.8266   -1.9858    5.3713 F   0  0  0  0  0  0  0  0  0  0  0  0
   -5.3579   -2.1120    3.0760 C   0  0  0  0  0  0  0  0  0  0  0  0
   -5.2345   -1.5945    1.7859 C   0  0  0  0  0  0  0  0  0  0  0  0
   -3.2710    0.4328   -2.2474 S   0  0  0  0  0  0  0  0  0  0  0  0
   -1.8964   -0.5669   -2.7091 C   0  0  0  0  0  0  0  0  0  0  0  0
   -1.2519   -0.4984   -4.2476 S   0  0  0  0  0  0  0  0  0  0  0  0
    2.0024   -0.5180    0.5330 N   0  0  0  0  0  0  0  0  0  0  0  0
    2.6814    0.7496    0.7303 C   0  0  0  0  0  0  0  0  0  0  0  0
    4.1635    0.6773    0.3643 C   0  0  0  0  0  0  0  0  0  0  0  0
    4.4449    0.8300   -1.1327 C   0  0  0  0  0  0  0  0  0  0  0  0
    4.2524    2.1827   -1.6138 N   0  0  0  0  0  0  0  0  0  0  0  0
    5.1246    3.2242   -1.4509 C   0  0  0  0  0  0  0  0  0  0  0  0
    4.5330    4.2853   -2.0969 C   0  0  0  0  0  0  0  0  0  0  0  0
    3.3383    3.9118   -2.6550 N   0  0  0  0  0  0  0  0  0  0  0  0
    3.1989    2.6373   -2.3549 C   0  0  0  0  0  0  0  0  0  0  0  0
    0.1675   -2.2978    0.4217 H   0  0  0  0  0  0  0  0  0  0  0  0
    1.3911   -2.9343   -0.6774 H   0  0  0  0  0  0  0  0  0  0  0  0
    0.0903   -2.3145   -2.6502 H   0  0  0  0  0  0  0  0  0  0  0  0
   -0.8674   -3.3336   -1.5844 H   0  0  0  0  0  0  0  0  0  0  0  0
   -5.0340    0.8748   -0.0289 H   0  0  0  0  0  0  0  0  0  0  0  0
   -3.2045    1.0588    2.4780 H   0  0  0  0  0  0  0  0  0  0  0  0
   -3.4462    0.1283    4.7693 H   0  0  0  0  0  0  0  0  0  0  0  0
   -5.9492   -3.0023    3.2617 H   0  0  0  0  0  0  0  0  0  0  0  0
   -5.7357   -2.0941    0.9618 H   0  0  0  0  0  0  0  0  0  0  0  0
    1.9417   -1.1516    1.3210 H   0  0  0  0  0  0  0  0  0  0  0  0
    2.5853    0.9776    1.7998 H   0  0  0  0  0  0  0  0  0  0  0  0
    2.1619    1.5391    0.1784 H   0  0  0  0  0  0  0  0  0  0  0  0
    4.6936    1.4686    0.9099 H   0  0  0  0  0  0  0  0  0  0  0  0
    4.5784   -0.2782    0.7074 H   0  0  0  0  0  0  0  0  0  0  0  0
    3.8383    0.1535   -1.7399 H   0  0  0  0  0  0  0  0  0  0  0  0
    5.4936    0.5811   -1.3333 H   0  0  0  0  0  0  0  0  0  0  0  0
    6.0595    3.1292   -0.9152 H   0  0  0  0  0  0  0  0  0  0  0  0
    4.9057    5.2969   -2.1961 H   0  0  0  0  0  0  0  0  0  0  0  0
    2.3641    2.0092   -2.6440 H   0  0  0  0  0  0  0  0  0  0  0  0
  1  2  2  0
  2  3  1  0
  3  4  1  0
  4  5  1  0
  5  6  1  0
  6  7  2  0
  6  8  1  0
  8  9  2  3
  9 10  1  0
 10 11  2  0
 11 12  1  0
 12 13  2  0
 13 14  1  0
 13 15  1  0
 15 16  2  0
  8 17  1  0
 17 18  1  0
 18 19  2  0
  2 20  1  0
 20 21  1  0
 21 22  1  0
 22 23  1  0
 23 24  1  0
 24 25  1  0
 25 26  2  0
 26 27  1  0
 27 28  2  0
 18  5  1  0
 28 24  1  0
 16 10  1  0
  3 29  1  0
  3 30  1  0
  4 31  1  0
  4 32  1  0
  9 33  1  0
 11 34  1  0
 12 35  1  0
 15 36  1  0
 16 37  1  0
 20 38  1  0
 21 39  1  0
 21 40  1  0
 22 41  1  0
 22 42  1  0
 23 43  1  0
 23 44  1  0
 25 45  1  0
 26 46  1  0
 28 47  1  0
M  END
$$$$
