
     RDKit          3D

 39 41  0  0  0  0  0  0  0  0999 V2000
   -3.9686   -2.4480   -0.6948 C   0  0  0  0  0  0  0  0  0  0  0  0
   -3.4768   -2.6362    0.7303 C   0  0  0  0  0  0  0  0  0  0  0  0
   -1.7610   -3.2547    0.7797 S   0  0  0  0  0  0  0  0  0  0  0  0
   -0.8315   -1.7788    0.3811 C   0  0  0  0  0  0  0  0  0  0  0  0
    0.5061   -1.9107    0.0746 C   0  0  0  0  0  0  0  0  0  0  0  0
    1.2109   -0.7618   -0.2164 C   0  0  0  0  0  0  0  0  0  0  0  0
    2.5446   -0.7950   -0.5497 N   0  0  0  0  0  0  0  0  0  0  0  0
    3.4527   -1.8745   -0.1790 C   0  0  0  0  0  0  0  0  0  0  0  0
    4.8278   -1.2072   -0.1267 C   0  0  0  0  0  0  0  0  0  0  0  0
    4.6871   -0.0225   -1.0692 C   0  0  0  0  0  0  0  0  0  0  0  0
    3.2619    0.4499   -0.7998 C   0  0  0  0  0  0  0  0  0  0  0  0
    0.5896    0.4299   -0.2128 N   0  0  0  0  0  0  0  0  0  0  0  0
   -0.7172    0.4748    0.1030 C   0  0  0  0  0  0  0  0  0  0  0  0
   -1.3794    1.7970    0.1071 C   0  0  0  0  0  0  0  0  0  0  0  0
   -0.6751    2.9730   -0.2279 C   0  0  0  0  0  0  0  0  0  0  0  0
   -1.2990    4.2249   -0.2256 C   0  0  0  0  0  0  0  0  0  0  0  0
   -2.6409    4.3194    0.1129 C   0  0  0  0  0  0  0  0  0  0  0  0
   -3.2401    5.5171    0.1157 F   0  0  0  0  0  0  0  0  0  0  0  0
   -3.3697    3.1876    0.4485 C   0  0  0  0  0  0  0  0  0  0  0  0
   -2.7424    1.9374    0.4450 C   0  0  0  0  0  0  0  0  0  0  0  0
   -1.4602   -0.5972    0.4122 N   0  0  0  0  0  0  0  0  0  0  0  0
   -3.3938   -1.6886   -1.2336 H   0  0  0  0  0  0  0  0  0  0  0  0
   -5.0141   -2.1222   -0.6852 H   0  0  0  0  0  0  0  0  0  0  0  0
   -3.9207   -3.3845   -1.2608 H   0  0  0  0  0  0  0  0  0  0  0  0
   -3.5772   -1.7138    1.3106 H   0  0  0  0  0  0  0  0  0  0  0  0
   -4.1029   -3.3877    1.2230 H   0  0  0  0  0  0  0  0  0  0  0  0
    0.9738   -2.8851    0.0507 H   0  0  0  0  0  0  0  0  0  0  0  0
    3.4305   -2.6559   -0.9464 H   0  0  0  0  0  0  0  0  0  0  0  0
    3.2178   -2.3205    0.7938 H   0  0  0  0  0  0  0  0  0  0  0  0
    5.6339   -1.8878   -0.4147 H   0  0  0  0  0  0  0  0  0  0  0  0
    5.0305   -0.8505    0.8905 H   0  0  0  0  0  0  0  0  0  0  0  0
    4.7855   -0.3574   -2.1088 H   0  0  0  0  0  0  0  0  0  0  0  0
    5.4301    0.7584   -0.8857 H   0  0  0  0  0  0  0  0  0  0  0  0
    2.8615    0.9974   -1.6597 H   0  0  0  0  0  0  0  0  0  0  0  0
    3.2398    1.0968    0.0858 H   0  0  0  0  0  0  0  0  0  0  0  0
    0.3790    2.9167   -0.4971 H   0  0  0  0  0  0  0  0  0  0  0  0
   -0.7439    5.1203   -0.4860 H   0  0  0  0  0  0  0  0  0  0  0  0
   -4.4186    3.2801    0.7108 H   0  0  0  0  0  0  0  0  0  0  0  0
   -3.3302    1.0602    0.7116 H   0  0  0  0  0  0  0  0  0  0  0  0
  1  2  1  0
  2  3  1  0
  3  4  1  0
  4  5  2  0
  5  6  1  0
  6  7  1  0
  7  8  1  0
  8  9  1  0
  9 10  1  0
 10 11  1  0
  6 12  2  0
 12 13  1  0
 13 14  1  0
 14 15  2  0
 15 16  1  0
 16 17  2  0
 17 18  1  0
 17 19  1  0
 19 20  2  0
 13 21  2  0
 21  4  1  0
 11  7  1  0
 20 14  1  0
  1 22  1  0
  1 23  1  0
  1 24  1  0
  2 25  1  0
  2 26  1  0
  5 27  1  0
  8 28  1  0
  8 29  1  0
  9 30  1  0
  9 31  1  0
 10 32  1  0
 10 33  1  0
 11 34  1  0
 11 35  1  0
 15 36  1  0
 16 37  1  0
 19 38  1  0
 20 39  1  0
M  END
$$$$
