
     RDKit          3D

 55 58  0  0  0  0  0  0  0  0999 V2000
   -3.6256    2.9234    0.4164 C   0  0  0  0  0  0  0  0  0  0  0  0
   -3.5181    1.8405   -0.6571 C   0  0  0  0  0  0  0  0  0  0  0  0
   -4.5857    2.0036   -1.7418 C   0  0  0  0  0  0  0  0  0  0  0  0
   -3.4932    0.4954   -0.0892 N   0  0  0  0  0  0  0  0  0  0  0  0
   -2.4319   -0.3930   -0.1679 C   0  0  0  0  0  0  0  0  0  0  0  0
   -1.2219   -0.0433   -0.6901 N   0  0  0  0  0  0  0  0  0  0  0  0
   -0.4630   -1.1660   -1.2899 C   0  0  0  0  0  0  0  0  0  0  0  0
    0.9403   -0.6881   -1.7182 C   0  0  0  0  0  0  0  0  0  0  0  0
    1.7954   -0.2623   -0.5814 N   0  0  0  0  0  0  0  0  0  0  0  0
    2.7607    0.7680   -1.0389 C   0  0  0  0  0  0  0  0  0  0  0  0
    3.9217    0.9409   -0.0491 C   0  0  0  0  0  0  0  0  0  0  0  0
    4.5755    1.9784    0.0164 O   0  0  0  0  0  0  0  0  0  0  0  0
    4.1855   -0.1773    0.7050 N   0  0  0  0  0  0  0  0  0  0  0  0
    5.3200   -0.2888    1.5846 C   0  0  0  0  0  0  0  0  0  0  0  0
    6.4140   -1.0026    0.8571 C   0  0  0  0  0  0  0  0  0  0  0  0
    7.3577   -0.4669    0.0013 C   0  0  0  0  0  0  0  0  0  0  0  0
    8.2499   -1.4528   -0.5092 C   0  0  0  0  0  0  0  0  0  0  0  0
    7.9580   -2.7092   -0.0278 C   0  0  0  0  0  0  0  0  0  0  0  0
    6.6144   -2.6958    1.0296 S   0  0  0  0  0  0  0  0  0  0  0  0
    0.9574    0.2236    0.5449 C   0  0  0  0  0  0  0  0  0  0  0  0
   -0.3923    0.8612    0.1426 C   0  0  0  0  0  0  0  0  0  0  0  0
   -2.7753   -1.5766    0.2841 N   0  0  0  0  0  0  0  0  0  0  0  0
   -4.0537   -1.4439    0.7515 C   0  0  0  0  0  0  0  0  0  0  0  0
   -4.8710   -2.4029    1.3698 C   0  0  0  0  0  0  0  0  0  0  0  0
   -6.1582   -2.0362    1.7753 C   0  0  0  0  0  0  0  0  0  0  0  0
   -6.6233   -0.7385    1.5668 C   0  0  0  0  0  0  0  0  0  0  0  0
   -5.8233    0.2297    0.9474 C   0  0  0  0  0  0  0  0  0  0  0  0
   -4.5345   -0.1528    0.5478 C   0  0  0  0  0  0  0  0  0  0  0  0
   -3.4848    3.9160   -0.0255 H   0  0  0  0  0  0  0  0  0  0  0  0
   -4.6010    2.9190    0.9119 H   0  0  0  0  0  0  0  0  0  0  0  0
   -2.8605    2.7890    1.1886 H   0  0  0  0  0  0  0  0  0  0  0  0
   -2.5585    1.9915   -1.1629 H   0  0  0  0  0  0  0  0  0  0  0  0
   -4.4673    2.9660   -2.2517 H   0  0  0  0  0  0  0  0  0  0  0  0
   -5.6003    1.9727   -1.3350 H   0  0  0  0  0  0  0  0  0  0  0  0
   -4.5027    1.2119   -2.4944 H   0  0  0  0  0  0  0  0  0  0  0  0
   -0.9998   -1.5309   -2.1741 H   0  0  0  0  0  0  0  0  0  0  0  0
   -0.3645   -2.0046   -0.5874 H   0  0  0  0  0  0  0  0  0  0  0  0
    1.4527   -1.4977   -2.2501 H   0  0  0  0  0  0  0  0  0  0  0  0
    0.8080    0.1377   -2.4314 H   0  0  0  0  0  0  0  0  0  0  0  0
    3.2218    0.4579   -1.9850 H   0  0  0  0  0  0  0  0  0  0  0  0
    2.2693    1.7362   -1.1892 H   0  0  0  0  0  0  0  0  0  0  0  0
    3.6219   -0.9973    0.5009 H   0  0  0  0  0  0  0  0  0  0  0  0
    5.6546    0.7053    1.9005 H   0  0  0  0  0  0  0  0  0  0  0  0
    4.9962   -0.8369    2.4753 H   0  0  0  0  0  0  0  0  0  0  0  0
    7.3981    0.5881   -0.2470 H   0  0  0  0  0  0  0  0  0  0  0  0
    9.0630   -1.2502   -1.1953 H   0  0  0  0  0  0  0  0  0  0  0  0
    8.4672   -3.6374   -0.2474 H   0  0  0  0  0  0  0  0  0  0  0  0
    0.7476   -0.6447    1.1833 H   0  0  0  0  0  0  0  0  0  0  0  0
    1.5114    0.9238    1.1814 H   0  0  0  0  0  0  0  0  0  0  0  0
   -0.9193    1.1630    1.0564 H   0  0  0  0  0  0  0  0  0  0  0  0
   -0.2030    1.7752   -0.4325 H   0  0  0  0  0  0  0  0  0  0  0  0
   -4.4985   -3.4091    1.5272 H   0  0  0  0  0  0  0  0  0  0  0  0
   -6.7983   -2.7712    2.2568 H   0  0  0  0  0  0  0  0  0  0  0  0
   -7.6283   -0.4728    1.8891 H   0  0  0  0  0  0  0  0  0  0  0  0
   -6.2046    1.2320    0.7921 H   0  0  0  0  0  0  0  0  0  0  0  0
  1  2  1  0
  2  3  1  0
  2  4  1  0
  4  5  1  0
  5  6  1  0
  6  7  1  0
  7  8  1  0
  8  9  1  0
  9 10  1  0
 10 11  1  0
 11 12  2  0
 11 13  1  0
 13 14  1  0
 14 15  1  0
 15 16  2  0
 16 17  1  0
 17 18  2  0
 18 19  1  0
  9 20  1  0
 20 21  1  0
  5 22  2  0
 22 23  1  0
 23 24  2  0
 24 25  1  0
 25 26  2  0
 26 27  1  0
 27 28  2  0
 28  4  1  0
 21  6  1  0
 28 23  1  0
 19 15  1  0
  1 29  1  0
  1 30  1  0
  1 31  1  0
  2 32  1  0
  3 33  1  0
  3 34  1  0
  3 35  1  0
  7 36  1  0
  7 37  1  0
  8 38  1  0
  8 39  1  0
 10 40  1  0
 10 41  1  0
 13 42  1  0
 14 43  1  0
 14 44  1  0
 16 45  1  0
 17 46  1  0
 18 47  1  0
 20 48  1  0
 20 49  1  0
 21 50  1  0
 21 51  1  0
 24 52  1  0
 25 53  1  0
 26 54  1  0
 27 55  1  0
M  END
$$$$
