
     RDKit          3D

 47 49  0  0  0  0  0  0  0  0999 V2000
    5.6894   -1.2981   -0.0909 C   0  0  0  0  0  0  0  0  0  0  0  0
    5.1804   -2.3483    0.8930 C   0  0  0  0  0  0  0  0  0  0  0  0
    3.7959   -2.2058    1.3439 N   0  0  0  0  0  0  0  0  0  0  0  0
    3.4973   -0.9396    2.0317 C   0  0  0  0  0  0  0  0  0  0  0  0
    2.6288    0.0647    1.2374 C   0  0  0  0  0  0  0  0  0  0  0  0
    1.3494   -0.5280    0.7799 N   0  0  0  0  0  0  0  0  0  0  0  0
    0.2390    0.2433    0.3866 C   0  0  0  0  0  0  0  0  0  0  0  0
   -1.0065   -0.2656    0.2677 C   0  0  0  0  0  0  0  0  0  0  0  0
   -2.1650    0.4728   -0.2125 C   0  0  0  0  0  0  0  0  0  0  0  0
   -3.3994   -0.0631   -0.1575 C   0  0  0  0  0  0  0  0  0  0  0  0
   -4.6064    0.6136   -0.6469 C   0  0  0  0  0  0  0  0  0  0  0  0
   -5.8580    0.1219   -0.4586 C   0  0  0  0  0  0  0  0  0  0  0  0
   -7.0064    0.7922   -0.9745 C   0  0  0  0  0  0  0  0  0  0  0  0
   -7.9321    1.3471   -1.4015 N   0  0  0  0  0  0  0  0  0  0  0  0
   -6.1025   -1.0913    0.2506 C   0  0  0  0  0  0  0  0  0  0  0  0
   -6.2904   -2.0819    0.8259 N   0  0  0  0  0  0  0  0  0  0  0  0
   -4.3380    1.9107   -1.4011 C   0  0  0  0  0  0  0  0  0  0  0  0
   -3.1810    2.7005   -0.7919 C   0  0  0  0  0  0  0  0  0  0  0  0
   -1.9030    1.8539   -0.7699 C   0  0  0  0  0  0  0  0  0  0  0  0
   -0.8094    2.5569    0.0339 C   0  0  0  0  0  0  0  0  0  0  0  0
    0.4702    1.7181    0.0743 C   0  0  0  0  0  0  0  0  0  0  0  0
    1.3825   -2.0069    0.6469 C   0  0  0  0  0  0  0  0  0  0  0  0
    2.8016   -2.5133    0.3034 C   0  0  0  0  0  0  0  0  0  0  0  0
    5.1215   -1.3014   -1.0253 H   0  0  0  0  0  0  0  0  0  0  0  0
    6.7348   -1.5066   -0.3428 H   0  0  0  0  0  0  0  0  0  0  0  0
    5.6508   -0.2905    0.3337 H   0  0  0  0  0  0  0  0  0  0  0  0
    5.8332   -2.3396    1.7750 H   0  0  0  0  0  0  0  0  0  0  0  0
    5.3115   -3.3429    0.4484 H   0  0  0  0  0  0  0  0  0  0  0  0
    2.9486   -1.2015    2.9464 H   0  0  0  0  0  0  0  0  0  0  0  0
    4.4117   -0.4426    2.3778 H   0  0  0  0  0  0  0  0  0  0  0  0
    3.1828    0.4384    0.3685 H   0  0  0  0  0  0  0  0  0  0  0  0
    2.4306    0.9101    1.9053 H   0  0  0  0  0  0  0  0  0  0  0  0
   -1.1841   -1.3011    0.5450 H   0  0  0  0  0  0  0  0  0  0  0  0
   -3.5101   -1.0562    0.2770 H   0  0  0  0  0  0  0  0  0  0  0  0
   -4.1043    1.6672   -2.4459 H   0  0  0  0  0  0  0  0  0  0  0  0
   -5.2153    2.5661   -1.4152 H   0  0  0  0  0  0  0  0  0  0  0  0
   -3.0110    3.6137   -1.3751 H   0  0  0  0  0  0  0  0  0  0  0  0
   -3.4509    3.0187    0.2242 H   0  0  0  0  0  0  0  0  0  0  0  0
   -1.5508    1.7340   -1.8048 H   0  0  0  0  0  0  0  0  0  0  0  0
   -1.1530    2.7386    1.0616 H   0  0  0  0  0  0  0  0  0  0  0  0
   -0.5864    3.5385   -0.4014 H   0  0  0  0  0  0  0  0  0  0  0  0
    0.9823    1.7861   -0.8940 H   0  0  0  0  0  0  0  0  0  0  0  0
    1.1256    2.1834    0.8166 H   0  0  0  0  0  0  0  0  0  0  0  0
    1.0273   -2.4613    1.5796 H   0  0  0  0  0  0  0  0  0  0  0  0
    0.7174   -2.3357   -0.1603 H   0  0  0  0  0  0  0  0  0  0  0  0
    3.0860   -2.0699   -0.6582 H   0  0  0  0  0  0  0  0  0  0  0  0
    2.7654   -3.5995    0.1606 H   0  0  0  0  0  0  0  0  0  0  0  0
  1  2  1  0
  2  3  1  0
  3  4  1  0
  4  5  1  0
  5  6  1  0
  6  7  1  0
  7  8  2  0
  8  9  1  0
  9 10  2  0
 10 11  1  0
 11 12  2  3
 12 13  1  0
 13 14  3  0
 12 15  1  0
 15 16  3  0
 11 17  1  0
 17 18  1  0
 18 19  1  0
 19 20  1  0
 20 21  1  0
  6 22  1  0
 22 23  1  0
 23  3  1  0
 21  7  1  0
 19  9  1  0
  1 24  1  0
  1 25  1  0
  1 26  1  0
  2 27  1  0
  2 28  1  0
  4 29  1  0
  4 30  1  0
  5 31  1  0
  5 32  1  0
  8 33  1  0
 10 34  1  0
 17 35  1  0
 17 36  1  0
 18 37  1  0
 18 38  1  0
 19 39  1  0
 20 40  1  0
 20 41  1  0
 21 42  1  0
 21 43  1  0
 22 44  1  0
 22 45  1  0
 23 46  1  0
 23 47  1  0
M  END
$$$$
