
     RDKit          3D

 37 38  0  0  0  0  0  0  0  0999 V2000
    5.6278    1.4129   -0.3774 C   0  0  0  0  0  0  0  0  0  0  0  0
    4.2093    1.3268   -0.3227 O   0  0  0  0  0  0  0  0  0  0  0  0
    3.6525    0.0806   -0.1939 C   0  0  0  0  0  0  0  0  0  0  0  0
    4.3859   -1.0601    0.1619 C   0  0  0  0  0  0  0  0  0  0  0  0
    3.7736   -2.3132    0.2228 C   0  0  0  0  0  0  0  0  0  0  0  0
    2.4186   -2.4386   -0.0649 C   0  0  0  0  0  0  0  0  0  0  0  0
    1.6625   -1.3043   -0.3906 C   0  0  0  0  0  0  0  0  0  0  0  0
    0.2262   -1.5229   -0.6737 C   0  0  0  0  0  0  0  0  0  0  0  0
   -0.1762   -2.4910   -1.3040 O   0  0  0  0  0  0  0  0  0  0  0  0
   -0.5034   -0.5714   -0.0206 O   0  0  0  0  0  0  0  0  0  0  0  0
   -1.8795   -0.7893   -0.2314 N   0  0  0  0  0  0  0  0  0  0  0  0
   -2.6009    0.0855    0.4042 C   0  0  0  0  0  0  0  0  0  0  0  0
   -2.0600    1.0742    1.1970 N   0  0  0  0  0  0  0  0  0  0  0  0
   -4.0891   -0.0094    0.2739 C   0  0  0  0  0  0  0  0  0  0  0  0
   -4.9043    1.0701    0.6137 C   0  0  0  0  0  0  0  0  0  0  0  0
   -6.2727    0.9179    0.4754 C   0  0  0  0  0  0  0  0  0  0  0  0
   -6.8624   -0.2132    0.0339 N   0  0  0  0  0  0  0  0  0  0  0  0
   -6.0473   -1.2364   -0.3030 C   0  0  0  0  0  0  0  0  0  0  0  0
   -4.6693   -1.1849   -0.2037 C   0  0  0  0  0  0  0  0  0  0  0  0
    2.2698   -0.0376   -0.4467 C   0  0  0  0  0  0  0  0  0  0  0  0
    1.4909    1.0148   -0.8633 O   0  0  0  0  0  0  0  0  0  0  0  0
    1.5777    2.1811   -0.0483 C   0  0  0  0  0  0  0  0  0  0  0  0
    6.0383    0.7682   -1.1618 H   0  0  0  0  0  0  0  0  0  0  0  0
    6.0702    1.1836    0.5972 H   0  0  0  0  0  0  0  0  0  0  0  0
    5.8896    2.4460   -0.6254 H   0  0  0  0  0  0  0  0  0  0  0  0
    5.4467   -1.0086    0.3874 H   0  0  0  0  0  0  0  0  0  0  0  0
    4.3573   -3.1933    0.4832 H   0  0  0  0  0  0  0  0  0  0  0  0
    1.9475   -3.4199   -0.0347 H   0  0  0  0  0  0  0  0  0  0  0  0
   -1.0720    0.9071    1.3607 H   0  0  0  0  0  0  0  0  0  0  0  0
   -2.5565    1.2459    2.0640 H   0  0  0  0  0  0  0  0  0  0  0  0
   -4.4974    2.0149    0.9522 H   0  0  0  0  0  0  0  0  0  0  0  0
   -6.9542    1.7283    0.7187 H   0  0  0  0  0  0  0  0  0  0  0  0
   -6.5480   -2.1287   -0.6682 H   0  0  0  0  0  0  0  0  0  0  0  0
   -4.0671   -2.0402   -0.4925 H   0  0  0  0  0  0  0  0  0  0  0  0
    1.8255    1.9529    0.9946 H   0  0  0  0  0  0  0  0  0  0  0  0
    0.5955    2.6640   -0.0570 H   0  0  0  0  0  0  0  0  0  0  0  0
    2.2947    2.8881   -0.4750 H   0  0  0  0  0  0  0  0  0  0  0  0
  1  2  1  0
  2  3  1  0
  3  4  2  0
  4  5  1  0
  5  6  2  0
  6  7  1  0
  7  8  1  0
  8  9  2  0
  8 10  1  0
 10 11  1  0
 11 12  2  3
 12 13  1  0
 12 14  1  0
 14 15  2  0
 15 16  1  0
 16 17  2  0
 17 18  1  0
 18 19  2  0
  7 20  2  0
 20 21  1  0
 21 22  1  0
 20  3  1  0
 19 14  1  0
  1 23  1  0
  1 24  1  0
  1 25  1  0
  4 26  1  0
  5 27  1  0
  6 28  1  0
 13 29  1  0
 13 30  1  0
 15 31  1  0
 16 32  1  0
 18 33  1  0
 19 34  1  0
 22 35  1  0
 22 36  1  0
 22 37  1  0
M  END
$$$$
