
     RDKit          3D

 43 45  0  0  0  0  0  0  0  0999 V2000
    7.5406    0.2869    1.0131 C   0  0  0  0  0  0  0  0  0  0  0  0
    6.1937    0.7400    1.0706 O   0  0  0  0  0  0  0  0  0  0  0  0
    5.3226    0.2037    0.1617 C   0  0  0  0  0  0  0  0  0  0  0  0
    5.6266   -0.7653   -0.7917 C   0  0  0  0  0  0  0  0  0  0  0  0
    4.6290   -1.2334   -1.6486 C   0  0  0  0  0  0  0  0  0  0  0  0
    3.3286   -0.7286   -1.5650 C   0  0  0  0  0  0  0  0  0  0  0  0
    3.0163    0.2627   -0.6360 C   0  0  0  0  0  0  0  0  0  0  0  0
    1.7208    0.7990   -0.4608 N   0  0  0  0  0  0  0  0  0  0  0  0
    0.6455    0.8930   -1.3380 C   0  0  0  0  0  0  0  0  0  0  0  0
    0.7888    0.9041   -3.0143 S   0  0  0  0  0  0  0  0  0  0  0  0
   -0.5824    1.0449   -0.6558 N   0  0  0  0  0  0  0  0  0  0  0  0
   -1.8699    1.2861   -1.3377 C   0  0  0  0  0  0  0  0  0  0  0  0
   -2.8648    0.1293   -1.1163 C   0  0  0  0  0  0  0  0  0  0  0  0
   -3.0086   -0.2152    0.3136 N   0  0  0  0  0  0  0  0  0  0  0  0
   -4.2951   -0.5272    0.7579 C   0  0  0  0  0  0  0  0  0  0  0  0
   -5.1120   -1.3869    0.0194 C   0  0  0  0  0  0  0  0  0  0  0  0
   -6.3904   -1.7057    0.4767 C   0  0  0  0  0  0  0  0  0  0  0  0
   -6.8333   -1.1666    1.6730 C   0  0  0  0  0  0  0  0  0  0  0  0
   -5.9695   -0.3367    2.3605 C   0  0  0  0  0  0  0  0  0  0  0  0
   -4.7270   -0.0165    1.9328 N   0  0  0  0  0  0  0  0  0  0  0  0
   -2.1912    0.5666    1.2536 C   0  0  0  0  0  0  0  0  0  0  0  0
   -0.7311    0.6415    0.7612 C   0  0  0  0  0  0  0  0  0  0  0  0
    4.0175    0.7037    0.2392 C   0  0  0  0  0  0  0  0  0  0  0  0
    7.6056   -0.7846    1.2292 H   0  0  0  0  0  0  0  0  0  0  0  0
    8.1046    0.8169    1.7867 H   0  0  0  0  0  0  0  0  0  0  0  0
    7.9969    0.5247    0.0465 H   0  0  0  0  0  0  0  0  0  0  0  0
    6.6221   -1.1843   -0.8895 H   0  0  0  0  0  0  0  0  0  0  0  0
    4.8599   -2.0030   -2.3813 H   0  0  0  0  0  0  0  0  0  0  0  0
    2.5735   -1.1545   -2.2173 H   0  0  0  0  0  0  0  0  0  0  0  0
    1.6214    1.3919    0.3513 H   0  0  0  0  0  0  0  0  0  0  0  0
   -1.7563    1.4694   -2.4073 H   0  0  0  0  0  0  0  0  0  0  0  0
   -2.2763    2.2124   -0.9119 H   0  0  0  0  0  0  0  0  0  0  0  0
   -3.8223    0.4271   -1.5619 H   0  0  0  0  0  0  0  0  0  0  0  0
   -2.5083   -0.7616   -1.6469 H   0  0  0  0  0  0  0  0  0  0  0  0
   -4.7526   -1.8321   -0.9021 H   0  0  0  0  0  0  0  0  0  0  0  0
   -7.0244   -2.3761   -0.0956 H   0  0  0  0  0  0  0  0  0  0  0  0
   -7.8184   -1.3925    2.0636 H   0  0  0  0  0  0  0  0  0  0  0  0
   -6.2581    0.1092    3.3078 H   0  0  0  0  0  0  0  0  0  0  0  0
   -2.5976    1.5816    1.3547 H   0  0  0  0  0  0  0  0  0  0  0  0
   -2.1846    0.1049    2.2490 H   0  0  0  0  0  0  0  0  0  0  0  0
   -0.2600   -0.3429    0.8732 H   0  0  0  0  0  0  0  0  0  0  0  0
   -0.1801    1.3543    1.3841 H   0  0  0  0  0  0  0  0  0  0  0  0
    3.8005    1.4597    0.9895 H   0  0  0  0  0  0  0  0  0  0  0  0
  1  2  1  0
  2  3  1  0
  3  4  2  0
  4  5  1  0
  5  6  2  0
  6  7  1  0
  7  8  1  0
  8  9  1  0
  9 10  2  0
  9 11  1  0
 11 12  1  0
 12 13  1  0
 13 14  1  0
 14 15  1  0
 15 16  2  0
 16 17  1  0
 17 18  2  0
 18 19  1  0
 19 20  2  0
 14 21  1  0
 21 22  1  0
  7 23  2  0
 23  3  1  0
 22 11  1  0
 20 15  1  0
  1 24  1  0
  1 25  1  0
  1 26  1  0
  4 27  1  0
  5 28  1  0
  6 29  1  0
  8 30  1  0
 12 31  1  0
 12 32  1  0
 13 33  1  0
 13 34  1  0
 16 35  1  0
 17 36  1  0
 18 37  1  0
 19 38  1  0
 21 39  1  0
 21 40  1  0
 22 41  1  0
 22 42  1  0
 23 43  1  0
M  END
$$$$
