
     RDKit          3D

 40 44  0  0  0  0  0  0  0  0999 V2000
    7.8331    1.0823    1.1792 O   0  0  0  0  0  0  0  0  0  0  0  0
    6.6525    1.1360    0.8875 C   0  0  0  0  0  0  0  0  0  0  0  0
    5.8983    2.1956    1.2276 O   0  0  0  0  0  0  0  0  0  0  0  0
    5.8941    0.0981    0.1485 C   0  0  0  0  0  0  0  0  0  0  0  0
    6.5769   -1.0522   -0.2602 C   0  0  0  0  0  0  0  0  0  0  0  0
    5.9017   -2.0519   -0.9568 C   0  0  0  0  0  0  0  0  0  0  0  0
    4.5425   -1.9048   -1.2472 C   0  0  0  0  0  0  0  0  0  0  0  0
    3.8362   -0.7591   -0.8476 C   0  0  0  0  0  0  0  0  0  0  0  0
    2.4148   -0.6188   -1.1585 C   0  0  0  0  0  0  0  0  0  0  0  0
    1.4888   -1.3923   -1.8208 C   0  0  0  0  0  0  0  0  0  0  0  0
    0.2662   -0.6780   -1.7804 C   0  0  0  0  0  0  0  0  0  0  0  0
    0.4765    0.4977   -1.0729 C   0  0  0  0  0  0  0  0  0  0  0  0
   -0.3770    1.5871   -0.7550 C   0  0  0  0  0  0  0  0  0  0  0  0
   -1.6670    1.5186   -0.3957 C   0  0  0  0  0  0  0  0  0  0  0  0
   -2.5636    2.9995   -0.0393 S   0  0  0  0  0  0  0  0  0  0  0  0
   -3.9647    2.0745    0.3187 C   0  0  0  0  0  0  0  0  0  0  0  0
   -5.1712    2.4024    0.6870 N   0  0  0  0  0  0  0  0  0  0  0  0
   -5.8082    1.1834    0.8111 C   0  0  0  0  0  0  0  0  0  0  0  0
   -7.1317    0.9068    1.1844 C   0  0  0  0  0  0  0  0  0  0  0  0
   -7.5524   -0.4282    1.2401 C   0  0  0  0  0  0  0  0  0  0  0  0
   -6.6754   -1.4707    0.9308 C   0  0  0  0  0  0  0  0  0  0  0  0
   -5.3508   -1.2211    0.5555 C   0  0  0  0  0  0  0  0  0  0  0  0
   -4.9512    0.1184    0.5059 C   0  0  0  0  0  0  0  0  0  0  0  0
   -3.7700    0.7414    0.1906 N   0  0  0  0  0  0  0  0  0  0  0  0
   -2.5221    0.3041   -0.2002 C   0  0  0  0  0  0  0  0  0  0  0  0
   -2.2730   -0.8786   -0.3257 O   0  0  0  0  0  0  0  0  0  0  0  0
    1.8093    0.5232   -0.7247 O   0  0  0  0  0  0  0  0  0  0  0  0
    4.5303    0.2402   -0.1456 C   0  0  0  0  0  0  0  0  0  0  0  0
    6.5210    2.7858    1.7012 H   0  0  0  0  0  0  0  0  0  0  0  0
    7.6353   -1.1722   -0.0365 H   0  0  0  0  0  0  0  0  0  0  0  0
    6.4321   -2.9466   -1.2739 H   0  0  0  0  0  0  0  0  0  0  0  0
    4.0422   -2.7027   -1.7913 H   0  0  0  0  0  0  0  0  0  0  0  0
    1.6628   -2.3515   -2.2864 H   0  0  0  0  0  0  0  0  0  0  0  0
   -0.6668   -0.9947   -2.2262 H   0  0  0  0  0  0  0  0  0  0  0  0
    0.1120    2.5593   -0.7790 H   0  0  0  0  0  0  0  0  0  0  0  0
   -7.8109    1.7178    1.4248 H   0  0  0  0  0  0  0  0  0  0  0  0
   -8.5767   -0.6538    1.5291 H   0  0  0  0  0  0  0  0  0  0  0  0
   -7.0285   -2.4993    0.9833 H   0  0  0  0  0  0  0  0  0  0  0  0
   -4.6693   -2.0325    0.3164 H   0  0  0  0  0  0  0  0  0  0  0  0
    4.0040    1.1368    0.1755 H   0  0  0  0  0  0  0  0  0  0  0  0
  1  2  2  0
  2  3  1  0
  2  4  1  0
  4  5  2  0
  5  6  1  0
  6  7  2  0
  7  8  1  0
  8  9  1  0
  9 10  2  0
 10 11  1  0
 11 12  2  0
 12 13  1  0
 13 14  2  3
 14 15  1  0
 15 16  1  0
 16 17  2  0
 17 18  1  0
 18 19  2  0
 19 20  1  0
 20 21  2  0
 21 22  1  0
 22 23  2  0
 23 24  1  0
 24 25  1  0
 25 26  2  0
 12 27  1  0
  8 28  2  0
 28  4  1  0
 27  9  1  0
 25 14  1  0
 24 16  1  0
 23 18  1  0
  3 29  1  0
  5 30  1  0
  6 31  1  0
  7 32  1  0
 10 33  1  0
 11 34  1  0
 13 35  1  0
 19 36  1  0
 20 37  1  0
 21 38  1  0
 22 39  1  0
 28 40  1  0
M  END
$$$$
