
     RDKit          3D

 43 45  0  0  0  0  0  0  0  0999 V2000
    3.6630    2.9254   -0.2199 C   0  0  0  0  0  0  0  0  0  0  0  0
    3.1227    1.5271   -0.0531 C   0  0  0  0  0  0  0  0  0  0  0  0
    2.9344    0.7146   -1.2930 C   0  0  0  0  0  0  0  0  0  0  0  0
    2.4180   -0.5204   -1.1452 C   0  0  0  0  0  0  0  0  0  0  0  0
    2.1928   -1.3908   -2.3432 C   0  0  0  0  0  0  0  0  0  0  0  0
    2.1000   -0.9512    0.1559 N   0  0  0  0  0  0  0  0  0  0  0  0
    1.4963   -2.0703    0.6965 C   0  0  0  0  0  0  0  0  0  0  0  0
    0.7546   -3.3614   -0.1919 S   0  0  0  0  0  0  0  0  0  0  0  0
   -0.9581   -3.1557    0.4236 C   0  0  0  0  0  0  0  0  0  0  0  0
   -1.4740   -1.7502    0.0974 C   0  0  0  0  0  0  0  0  0  0  0  0
   -1.2394   -1.2381   -1.0024 O   0  0  0  0  0  0  0  0  0  0  0  0
   -2.1989   -1.0436    1.0598 N   0  0  0  0  0  0  0  0  0  0  0  0
   -2.3869   -1.5397    2.4192 C   0  0  0  0  0  0  0  0  0  0  0  0
   -2.4497    0.4014    0.8470 C   0  0  0  0  0  0  0  0  0  0  0  0
   -3.3060    0.7099   -0.4062 C   0  0  0  0  0  0  0  0  0  0  0  0
   -2.4767    1.4892   -1.4164 C   0  0  0  0  0  0  0  0  0  0  0  0
   -1.3423    2.4361   -0.4397 S   0  0  0  0  0  6  0  0  0  0  0  0
   -0.0880    2.5779   -1.1514 O   0  0  0  0  0  0  0  0  0  0  0  0
   -2.0528    3.5789    0.0991 O   0  0  0  0  0  0  0  0  0  0  0  0
   -1.1632    1.2359    0.8465 C   0  0  0  0  0  0  0  0  0  0  0  0
    1.4022   -1.9659    2.0016 N   0  0  0  0  0  0  0  0  0  0  0  0
    1.9353   -0.7591    2.3609 N   0  0  0  0  0  0  0  0  0  0  0  0
    2.3409   -0.1376    1.2709 C   0  0  0  0  0  0  0  0  0  0  0  0
    2.8591    1.1170    1.1511 N   0  0  0  0  0  0  0  0  0  0  0  0
    4.5985    3.0192    0.3394 H   0  0  0  0  0  0  0  0  0  0  0  0
    2.9367    3.6410    0.1770 H   0  0  0  0  0  0  0  0  0  0  0  0
    3.8536    3.1620   -1.2698 H   0  0  0  0  0  0  0  0  0  0  0  0
    3.1969    1.1491   -2.2490 H   0  0  0  0  0  0  0  0  0  0  0  0
    2.5801   -0.9263   -3.2577 H   0  0  0  0  0  0  0  0  0  0  0  0
    2.7129   -2.3479   -2.2355 H   0  0  0  0  0  0  0  0  0  0  0  0
    1.1259   -1.5659   -2.5081 H   0  0  0  0  0  0  0  0  0  0  0  0
   -1.6083   -3.8818   -0.0727 H   0  0  0  0  0  0  0  0  0  0  0  0
   -0.9427   -3.3762    1.4900 H   0  0  0  0  0  0  0  0  0  0  0  0
   -1.4752   -1.3503    2.9924 H   0  0  0  0  0  0  0  0  0  0  0  0
   -2.6086   -2.6092    2.4129 H   0  0  0  0  0  0  0  0  0  0  0  0
   -3.2352   -1.0351    2.8905 H   0  0  0  0  0  0  0  0  0  0  0  0
   -3.0543    0.7353    1.7008 H   0  0  0  0  0  0  0  0  0  0  0  0
   -3.7537   -0.1827   -0.8557 H   0  0  0  0  0  0  0  0  0  0  0  0
   -4.1441    1.3474   -0.0935 H   0  0  0  0  0  0  0  0  0  0  0  0
   -3.0844    2.1630   -2.0247 H   0  0  0  0  0  0  0  0  0  0  0  0
   -1.8979    0.8369   -2.0729 H   0  0  0  0  0  0  0  0  0  0  0  0
   -0.2804    0.6423    0.6136 H   0  0  0  0  0  0  0  0  0  0  0  0
   -1.0031    1.7497    1.7980 H   0  0  0  0  0  0  0  0  0  0  0  0
  1  2  1  0
  2  3  1  0
  3  4  2  0
  4  5  1  0
  4  6  1  0
  6  7  1  0
  7  8  1  0
  8  9  1  0
  9 10  1  0
 10 11  2  0
 10 12  1  0
 12 13  1  0
 12 14  1  0
 14 15  1  0
 15 16  1  0
 16 17  1  0
 17 18  2  0
 17 19  2  0
 17 20  1  0
  7 21  2  0
 21 22  1  0
 22 23  2  0
 23 24  1  0
 24  2  2  0
 23  6  1  0
 20 14  1  0
  1 25  1  0
  1 26  1  0
  1 27  1  0
  3 28  1  0
  5 29  1  0
  5 30  1  0
  5 31  1  0
  9 32  1  0
  9 33  1  0
 13 34  1  0
 13 35  1  0
 13 36  1  0
 14 37  1  0
 15 38  1  0
 15 39  1  0
 16 40  1  0
 16 41  1  0
 20 42  1  0
 20 43  1  0
M  END
$$$$
