
     RDKit          3D

 53 56  0  0  0  0  0  0  0  0999 V2000
    8.8896    1.1883    0.0093 C   0  0  0  0  0  0  0  0  0  0  0  0
    7.5585    1.7980    0.4104 C   0  0  0  0  0  0  0  0  0  0  0  0
    6.3980    0.8388    0.1635 C   0  0  0  0  0  0  0  0  0  0  0  0
    5.1951    1.4967    0.5598 O   0  0  0  0  0  0  0  0  0  0  0  0
    4.0246    0.8160    0.3723 C   0  0  0  0  0  0  0  0  0  0  0  0
    2.8734    1.5262    0.7097 C   0  0  0  0  0  0  0  0  0  0  0  0
    1.6067    0.9480    0.5608 C   0  0  0  0  0  0  0  0  0  0  0  0
    1.4501   -0.3611    0.0709 C   0  0  0  0  0  0  0  0  0  0  0  0
    0.1144   -0.9727   -0.0945 C   0  0  0  0  0  0  0  0  0  0  0  0
   -0.9567   -0.2323    0.2341 N   0  0  0  0  0  0  0  0  0  0  0  0
   -2.1736   -0.7817    0.0694 C   0  0  0  0  0  0  0  0  0  0  0  0
   -3.3093    0.0132    0.3572 N   0  0  0  0  0  0  0  0  0  0  0  0
   -3.9027    0.5630   -0.8873 C   0  0  0  0  0  0  0  0  0  0  0  0
   -4.4095    2.0183   -0.7120 C   0  0  0  0  0  0  0  0  0  0  0  0
   -5.1248    2.3049    0.5482 N   0  0  0  0  0  0  0  0  0  0  0  0
   -6.4818    1.7590    0.5204 C   0  0  0  0  0  0  0  0  0  0  0  0
   -4.3717    1.7765    1.7155 C   0  0  0  0  0  0  0  0  0  0  0  0
   -3.0507    1.0404    1.3840 C   0  0  0  0  0  0  0  0  0  0  0  0
   -2.3358   -2.0991   -0.4001 C   0  0  0  0  0  0  0  0  0  0  0  0
   -3.5778   -2.7694   -0.5454 C   0  0  0  0  0  0  0  0  0  0  0  0
   -3.6380   -4.0760   -1.0234 C   0  0  0  0  0  0  0  0  0  0  0  0
   -2.4610   -4.7318   -1.3539 C   0  0  0  0  0  0  0  0  0  0  0  0
   -1.2361   -4.0782   -1.1941 C   0  0  0  0  0  0  0  0  0  0  0  0
   -1.1525   -2.7753   -0.7165 C   0  0  0  0  0  0  0  0  0  0  0  0
    0.0557   -2.2254   -0.5760 N   0  0  0  0  0  0  0  0  0  0  0  0
    2.6275   -1.0606   -0.2569 C   0  0  0  0  0  0  0  0  0  0  0  0
    3.8978   -0.4839   -0.1094 C   0  0  0  0  0  0  0  0  0  0  0  0
    9.0917    0.2761    0.5798 H   0  0  0  0  0  0  0  0  0  0  0  0
    8.9005    0.9363   -1.0559 H   0  0  0  0  0  0  0  0  0  0  0  0
    9.7034    1.8951    0.1991 H   0  0  0  0  0  0  0  0  0  0  0  0
    7.5826    2.0811    1.4696 H   0  0  0  0  0  0  0  0  0  0  0  0
    7.3921    2.7279   -0.1467 H   0  0  0  0  0  0  0  0  0  0  0  0
    6.3558    0.5854   -0.9027 H   0  0  0  0  0  0  0  0  0  0  0  0
    6.5419   -0.0700    0.7597 H   0  0  0  0  0  0  0  0  0  0  0  0
    2.9580    2.5414    1.0901 H   0  0  0  0  0  0  0  0  0  0  0  0
    0.7323    1.5374    0.8324 H   0  0  0  0  0  0  0  0  0  0  0  0
   -3.1886    0.5545   -1.7217 H   0  0  0  0  0  0  0  0  0  0  0  0
   -4.7487   -0.0717   -1.1747 H   0  0  0  0  0  0  0  0  0  0  0  0
   -5.0266    2.2979   -1.5757 H   0  0  0  0  0  0  0  0  0  0  0  0
   -3.5434    2.6935   -0.7575 H   0  0  0  0  0  0  0  0  0  0  0  0
   -7.0229    2.0385    1.4312 H   0  0  0  0  0  0  0  0  0  0  0  0
   -6.4948    0.6666    0.4344 H   0  0  0  0  0  0  0  0  0  0  0  0
   -7.0485    2.1779   -0.3192 H   0  0  0  0  0  0  0  0  0  0  0  0
   -4.1409    2.6209    2.3756 H   0  0  0  0  0  0  0  0  0  0  0  0
   -4.9981    1.0934    2.3056 H   0  0  0  0  0  0  0  0  0  0  0  0
   -2.3022    1.7701    1.0459 H   0  0  0  0  0  0  0  0  0  0  0  0
   -2.6745    0.5728    2.3028 H   0  0  0  0  0  0  0  0  0  0  0  0
   -4.5009   -2.2672   -0.2645 H   0  0  0  0  0  0  0  0  0  0  0  0
   -4.5963   -4.5775   -1.1287 H   0  0  0  0  0  0  0  0  0  0  0  0
   -2.4874   -5.7529   -1.7259 H   0  0  0  0  0  0  0  0  0  0  0  0
   -0.3176   -4.6051   -1.4446 H   0  0  0  0  0  0  0  0  0  0  0  0
    2.5635   -2.0792   -0.6381 H   0  0  0  0  0  0  0  0  0  0  0  0
    4.7605   -1.0831   -0.3804 H   0  0  0  0  0  0  0  0  0  0  0  0
  1  2  1  0
  2  3  1  0
  3  4  1  0
  4  5  1  0
  5  6  2  0
  6  7  1  0
  7  8  2  0
  8  9  1  0
  9 10  2  0
 10 11  1  0
 11 12  1  0
 12 13  1  0
 13 14  1  0
 14 15  1  0
 15 16  1  0
 15 17  1  0
 17 18  1  0
 11 19  2  0
 19 20  1  0
 20 21  2  0
 21 22  1  0
 22 23  2  0
 23 24  1  0
 24 25  2  0
  8 26  1  0
 26 27  2  0
 27  5  1  0
 25  9  1  0
 18 12  1  0
 24 19  1  0
  1 28  1  0
  1 29  1  0
  1 30  1  0
  2 31  1  0
  2 32  1  0
  3 33  1  0
  3 34  1  0
  6 35  1  0
  7 36  1  0
 13 37  1  0
 13 38  1  0
 14 39  1  0
 14 40  1  0
 16 41  1  0
 16 42  1  0
 16 43  1  0
 17 44  1  0
 17 45  1  0
 18 46  1  0
 18 47  1  0
 20 48  1  0
 21 49  1  0
 22 50  1  0
 23 51  1  0
 26 52  1  0
 27 53  1  0
M  END
$$$$
