
     RDKit          3D

 65 68  0  0  0  0  0  0  0  0999 V2000
    8.3097    0.8736   -0.4682 C   0  0  0  0  0  0  0  0  0  0  0  0
    6.8824    0.9828   -0.0173 C   0  0  0  0  0  0  0  0  0  0  0  0
    6.1187   -0.1741    0.1891 C   0  0  0  0  0  0  0  0  0  0  0  0
    4.8000   -0.0825    0.6359 C   0  0  0  0  0  0  0  0  0  0  0  0
    4.2415    1.1758    0.8709 C   0  0  0  0  0  0  0  0  0  0  0  0
    2.5687    1.3009    1.4501 S   0  0  0  0  0  6  0  0  0  0  0  0
    2.4643    2.5461    2.1914 O   0  0  0  0  0  0  0  0  0  0  0  0
    2.2311    0.0487    2.1035 O   0  0  0  0  0  0  0  0  0  0  0  0
    1.5852    1.4646   -0.0075 C   0  0  0  0  0  0  0  0  0  0  0  0
    1.6439    0.3421   -0.8993 N   0  0  0  0  0  0  0  0  0  0  0  0
    2.5041    0.3587   -1.9320 N   0  0  0  0  0  0  0  0  0  0  0  0
    2.2863   -0.7700   -2.5862 N   0  0  0  0  0  0  0  0  0  0  0  0
    1.2819   -1.4908   -1.9965 N   0  0  0  0  0  0  0  0  0  0  0  0
    0.8838   -0.7976   -0.9455 C   0  0  0  0  0  0  0  0  0  0  0  0
   -0.2275   -1.1351    0.0161 C   0  0  0  0  0  0  0  0  0  0  0  0
   -0.6402   -2.6279   -0.0895 C   0  0  0  0  0  0  0  0  0  0  0  0
    0.4334   -3.6364    0.3853 C   0  0  0  0  0  0  0  0  0  0  0  0
   -0.0066   -5.0601    0.0294 C   0  0  0  0  0  0  0  0  0  0  0  0
    0.6903   -3.5454    1.8909 C   0  0  0  0  0  0  0  0  0  0  0  0
   -1.3272   -0.1571   -0.1666 N   0  0  0  0  0  0  0  0  0  0  0  0
   -2.2297   -0.0968    1.0064 C   0  0  0  0  0  0  0  0  0  0  0  0
   -3.3241    0.9894    0.8626 C   0  0  0  0  0  0  0  0  0  0  0  0
   -4.0894    0.7974   -0.3912 N   0  0  0  0  0  0  0  0  0  0  0  0
   -5.2399    1.6000   -0.4779 C   0  0  0  0  0  0  0  0  0  0  0  0
   -5.4609    2.5328   -1.5024 C   0  0  0  0  0  0  0  0  0  0  0  0
   -6.6276    3.3064   -1.5501 C   0  0  0  0  0  0  0  0  0  0  0  0
   -7.6087    3.1552   -0.5764 C   0  0  0  0  0  0  0  0  0  0  0  0
   -7.4254    2.2259    0.4404 C   0  0  0  0  0  0  0  0  0  0  0  0
   -6.2569    1.4581    0.4826 C   0  0  0  0  0  0  0  0  0  0  0  0
   -3.2162    0.7098   -1.5795 C   0  0  0  0  0  0  0  0  0  0  0  0
   -2.1429   -0.3873   -1.3837 C   0  0  0  0  0  0  0  0  0  0  0  0
    4.9998    2.3366    0.7025 C   0  0  0  0  0  0  0  0  0  0  0  0
    6.3191    2.2359    0.2585 C   0  0  0  0  0  0  0  0  0  0  0  0
    8.9647    0.7281    0.3961 H   0  0  0  0  0  0  0  0  0  0  0  0
    8.4361    0.0317   -1.1567 H   0  0  0  0  0  0  0  0  0  0  0  0
    8.6232    1.7779   -1.0005 H   0  0  0  0  0  0  0  0  0  0  0  0
    6.5492   -1.1561    0.0007 H   0  0  0  0  0  0  0  0  0  0  0  0
    4.2262   -0.9939    0.7896 H   0  0  0  0  0  0  0  0  0  0  0  0
    1.9108    2.3631   -0.5417 H   0  0  0  0  0  0  0  0  0  0  0  0
    0.5528    1.6251    0.3090 H   0  0  0  0  0  0  0  0  0  0  0  0
    0.1736   -0.9709    1.0202 H   0  0  0  0  0  0  0  0  0  0  0  0
   -0.8968   -2.8634   -1.1311 H   0  0  0  0  0  0  0  0  0  0  0  0
   -1.5486   -2.8069    0.4983 H   0  0  0  0  0  0  0  0  0  0  0  0
    1.3785   -3.4451   -0.1353 H   0  0  0  0  0  0  0  0  0  0  0  0
   -0.1508   -5.1643   -1.0512 H   0  0  0  0  0  0  0  0  0  0  0  0
   -0.9478   -5.3216    0.5248 H   0  0  0  0  0  0  0  0  0  0  0  0
    0.7513   -5.7895    0.3345 H   0  0  0  0  0  0  0  0  0  0  0  0
    1.1314   -2.5838    2.1655 H   0  0  0  0  0  0  0  0  0  0  0  0
    1.3912   -4.3236    2.2124 H   0  0  0  0  0  0  0  0  0  0  0  0
   -0.2364   -3.6710    2.4608 H   0  0  0  0  0  0  0  0  0  0  0  0
   -1.6467    0.1329    1.9064 H   0  0  0  0  0  0  0  0  0  0  0  0
   -2.7204   -1.0638    1.1701 H   0  0  0  0  0  0  0  0  0  0  0  0
   -3.9671    0.9282    1.7477 H   0  0  0  0  0  0  0  0  0  0  0  0
   -2.8564    1.9831    0.8604 H   0  0  0  0  0  0  0  0  0  0  0  0
   -4.7242    2.6944   -2.2827 H   0  0  0  0  0  0  0  0  0  0  0  0
   -6.7655    4.0262   -2.3526 H   0  0  0  0  0  0  0  0  0  0  0  0
   -8.5153    3.7524   -0.6153 H   0  0  0  0  0  0  0  0  0  0  0  0
   -8.1920    2.0864    1.1975 H   0  0  0  0  0  0  0  0  0  0  0  0
   -6.1584    0.7140    1.2689 H   0  0  0  0  0  0  0  0  0  0  0  0
   -3.8064    0.4505   -2.4670 H   0  0  0  0  0  0  0  0  0  0  0  0
   -2.7167    1.6708   -1.7604 H   0  0  0  0  0  0  0  0  0  0  0  0
   -1.5034   -0.3913   -2.2736 H   0  0  0  0  0  0  0  0  0  0  0  0
   -2.6505   -1.3588   -1.3336 H   0  0  0  0  0  0  0  0  0  0  0  0
    4.5843    3.3180    0.9203 H   0  0  0  0  0  0  0  0  0  0  0  0
    6.9091    3.1415    0.1311 H   0  0  0  0  0  0  0  0  0  0  0  0
  1  2  1  0
  2  3  2  0
  3  4  1  0
  4  5  2  0
  5  6  1  0
  6  7  2  0
  6  8  2  0
  6  9  1  0
  9 10  1  0
 10 11  1  0
 11 12  2  0
 12 13  1  0
 13 14  2  0
 14 15  1  0
 15 16  1  0
 16 17  1  0
 17 18  1  0
 17 19  1  0
 15 20  1  0
 20 21  1  0
 21 22  1  0
 22 23  1  0
 23 24  1  0
 24 25  2  0
 25 26  1  0
 26 27  2  0
 27 28  1  0
 28 29  2  0
 23 30  1  0
 30 31  1  0
  5 32  1  0
 32 33  2  0
 33  2  1  0
 14 10  1  0
 31 20  1  0
 29 24  1  0
  1 34  1  0
  1 35  1  0
  1 36  1  0
  3 37  1  0
  4 38  1  0
  9 39  1  0
  9 40  1  0
 15 41  1  0
 16 42  1  0
 16 43  1  0
 17 44  1  0
 18 45  1  0
 18 46  1  0
 18 47  1  0
 19 48  1  0
 19 49  1  0
 19 50  1  0
 21 51  1  0
 21 52  1  0
 22 53  1  0
 22 54  1  0
 25 55  1  0
 26 56  1  0
 27 57  1  0
 28 58  1  0
 29 59  1  0
 30 60  1  0
 30 61  1  0
 31 62  1  0
 31 63  1  0
 32 64  1  0
 33 65  1  0
M  END
$$$$
