
     RDKit          3D

 39 40  0  0  0  0  0  0  0  0999 V2000
    7.2792    0.6348    0.6272 C   0  0  0  0  0  0  0  0  0  0  0  0
    5.9725    0.1578    0.3045 O   0  0  0  0  0  0  0  0  0  0  0  0
    4.9945    1.0796    0.4730 C   0  0  0  0  0  0  0  0  0  0  0  0
    5.1583    2.2291    0.8515 O   0  0  0  0  0  0  0  0  0  0  0  0
    3.7988    0.5260    0.1408 N   0  0  0  0  0  0  0  0  0  0  0  0
    2.5989    1.3146    0.0757 C   0  0  0  0  0  0  0  0  0  0  0  0
    1.3887    0.4384   -0.1119 C   0  0  0  0  0  0  0  0  0  0  0  0
    0.8243   -0.2294    0.9860 C   0  0  0  0  0  0  0  0  0  0  0  0
   -0.2799   -1.0662    0.8163 C   0  0  0  0  0  0  0  0  0  0  0  0
   -0.8329   -1.2288   -0.4567 C   0  0  0  0  0  0  0  0  0  0  0  0
   -2.2233   -2.3206   -0.6826 S   0  0  0  0  0  6  0  0  0  0  0  0
   -2.2000   -2.7722   -2.0579 O   0  0  0  0  0  0  0  0  0  0  0  0
   -2.2161   -3.2629    0.4163 O   0  0  0  0  0  0  0  0  0  0  0  0
   -3.5596   -1.3034   -0.4911 N   0  0  0  0  0  0  0  0  0  0  0  0
   -3.8677   -0.3554   -1.5955 C   0  0  0  0  0  0  0  0  0  0  0  0
   -5.0195    0.5666   -1.1825 C   0  0  0  0  0  0  0  0  0  0  0  0
   -4.6998    1.3859   -0.0483 O   0  0  0  0  0  0  0  0  0  0  0  0
   -3.7855    0.7664    0.8674 C   0  0  0  0  0  0  0  0  0  0  0  0
   -3.8560   -0.7643    0.8649 C   0  0  0  0  0  0  0  0  0  0  0  0
   -0.2584   -0.6006   -1.5651 C   0  0  0  0  0  0  0  0  0  0  0  0
    0.8463    0.2348   -1.3896 C   0  0  0  0  0  0  0  0  0  0  0  0
    7.3307    0.9325    1.6792 H   0  0  0  0  0  0  0  0  0  0  0  0
    7.9877   -0.1821    0.4642 H   0  0  0  0  0  0  0  0  0  0  0  0
    7.5557    1.4681   -0.0265 H   0  0  0  0  0  0  0  0  0  0  0  0
    3.8336   -0.3909   -0.2816 H   0  0  0  0  0  0  0  0  0  0  0  0
    2.5039    1.9103    0.9916 H   0  0  0  0  0  0  0  0  0  0  0  0
    2.7004    2.0245   -0.7537 H   0  0  0  0  0  0  0  0  0  0  0  0
    1.2562   -0.1088    1.9786 H   0  0  0  0  0  0  0  0  0  0  0  0
   -0.6904   -1.5934    1.6747 H   0  0  0  0  0  0  0  0  0  0  0  0
   -2.9870    0.2527   -1.8224 H   0  0  0  0  0  0  0  0  0  0  0  0
   -4.1571   -0.9202   -2.4872 H   0  0  0  0  0  0  0  0  0  0  0  0
   -5.9144   -0.0163   -0.9352 H   0  0  0  0  0  0  0  0  0  0  0  0
   -5.2820    1.2370   -2.0069 H   0  0  0  0  0  0  0  0  0  0  0  0
   -4.0114    1.1525    1.8664 H   0  0  0  0  0  0  0  0  0  0  0  0
   -2.7764    1.1059    0.6077 H   0  0  0  0  0  0  0  0  0  0  0  0
   -4.8673   -1.0940    1.1311 H   0  0  0  0  0  0  0  0  0  0  0  0
   -3.1759   -1.1669    1.6201 H   0  0  0  0  0  0  0  0  0  0  0  0
   -0.6577   -0.7611   -2.5644 H   0  0  0  0  0  0  0  0  0  0  0  0
    1.2887    0.7199   -2.2582 H   0  0  0  0  0  0  0  0  0  0  0  0
  1  2  1  0
  2  3  1  0
  3  4  2  0
  3  5  1  0
  5  6  1  0
  6  7  1  0
  7  8  2  0
  8  9  1  0
  9 10  2  0
 10 11  1  0
 11 12  2  0
 11 13  2  0
 11 14  1  0
 14 15  1  0
 15 16  1  0
 16 17  1  0
 17 18  1  0
 18 19  1  0
 10 20  1  0
 20 21  2  0
 21  7  1  0
 19 14  1  0
  1 22  1  0
  1 23  1  0
  1 24  1  0
  5 25  1  0
  6 26  1  0
  6 27  1  0
  8 28  1  0
  9 29  1  0
 15 30  1  0
 15 31  1  0
 16 32  1  0
 16 33  1  0
 18 34  1  0
 18 35  1  0
 19 36  1  0
 19 37  1  0
 20 38  1  0
 21 39  1  0
M  END
$$$$
