
     RDKit          3D

 39 41  0  0  0  0  0  0  0  0999 V2000
   -7.5311    0.5233   -0.8908 C   0  0  0  0  0  0  0  0  0  0  0  0
   -6.5029    1.5016   -0.8035 O   0  0  0  0  0  0  0  0  0  0  0  0
   -5.2267    1.0450   -0.6260 C   0  0  0  0  0  0  0  0  0  0  0  0
   -4.2523    2.0425   -0.5618 C   0  0  0  0  0  0  0  0  0  0  0  0
   -2.9030    1.7194   -0.3830 C   0  0  0  0  0  0  0  0  0  0  0  0
   -2.5125    0.3832   -0.2534 C   0  0  0  0  0  0  0  0  0  0  0  0
   -1.1365    0.0374   -0.0610 N   0  0  0  0  0  0  0  0  0  0  0  0
   -0.6551   -1.0694    0.6491 C   0  0  0  0  0  0  0  0  0  0  0  0
   -1.4068   -1.8674    1.4092 O   0  0  0  0  0  0  0  0  0  0  0  0
    0.7092   -1.1391    0.4732 C   0  0  0  0  0  0  0  0  0  0  0  0
    1.1057   -0.0008   -0.2507 C   0  0  0  0  0  0  0  0  0  0  0  0
    2.3670    0.3552   -0.5964 N   0  0  0  0  0  0  0  0  0  0  0  0
    3.4891   -0.3058   -0.0595 N   0  0  0  0  0  0  0  0  0  0  0  0
    4.6603    0.4394    0.0500 C   0  0  0  0  0  0  0  0  0  0  0  0
    4.6484    1.6563   -0.1494 O   0  0  0  0  0  0  0  0  0  0  0  0
    5.8439   -0.3297    0.3813 C   0  0  0  0  0  0  0  0  0  0  0  0
    6.0461   -1.6515    0.7458 C   0  0  0  0  0  0  0  0  0  0  0  0
    7.4396   -1.8170    0.9437 C   0  0  0  0  0  0  0  0  0  0  0  0
    8.0075   -0.5916    0.6954 C   0  0  0  0  0  0  0  0  0  0  0  0
    7.0555    0.3120    0.3561 O   0  0  0  0  0  0  0  0  0  0  0  0
   -0.0278    0.7184   -0.5743 C   0  0  0  0  0  0  0  0  0  0  0  0
   -0.1471    1.8207   -1.3170 O   0  0  0  0  0  0  0  0  0  0  0  0
   -3.4901   -0.6201   -0.3315 C   0  0  0  0  0  0  0  0  0  0  0  0
   -4.8393   -0.2892   -0.5144 C   0  0  0  0  0  0  0  0  0  0  0  0
   -7.6062   -0.0537    0.0369 H   0  0  0  0  0  0  0  0  0  0  0  0
   -7.3797   -0.1328   -1.7543 H   0  0  0  0  0  0  0  0  0  0  0  0
   -8.4807    1.0481   -1.0343 H   0  0  0  0  0  0  0  0  0  0  0  0
   -4.5446    3.0864   -0.6509 H   0  0  0  0  0  0  0  0  0  0  0  0
   -2.1861    2.5336   -0.3172 H   0  0  0  0  0  0  0  0  0  0  0  0
   -2.2033   -1.3759    1.6815 H   0  0  0  0  0  0  0  0  0  0  0  0
    1.3403   -1.9032    0.9037 H   0  0  0  0  0  0  0  0  0  0  0  0
    2.5798    1.3491   -0.7511 H   0  0  0  0  0  0  0  0  0  0  0  0
    3.5231   -1.3065   -0.2137 H   0  0  0  0  0  0  0  0  0  0  0  0
    5.2856   -2.4097    0.8683 H   0  0  0  0  0  0  0  0  0  0  0  0
    7.9648   -2.7151    1.2378 H   0  0  0  0  0  0  0  0  0  0  0  0
    9.0213   -0.2153    0.7169 H   0  0  0  0  0  0  0  0  0  0  0  0
    0.7259    1.9963   -1.7097 H   0  0  0  0  0  0  0  0  0  0  0  0
   -3.2232   -1.6750   -0.3079 H   0  0  0  0  0  0  0  0  0  0  0  0
   -5.5584   -1.0996   -0.5799 H   0  0  0  0  0  0  0  0  0  0  0  0
  1  2  1  0
  2  3  1  0
  3  4  2  0
  4  5  1  0
  5  6  2  0
  6  7  1  0
  7  8  1  0
  8  9  1  0
  8 10  2  0
 10 11  1  0
 11 12  1  0
 12 13  1  0
 13 14  1  0
 14 15  2  0
 14 16  1  0
 16 17  2  0
 17 18  1  0
 18 19  2  0
 19 20  1  0
 11 21  2  0
 21 22  1  0
  6 23  1  0
 23 24  2  0
 24  3  1  0
 21  7  1  0
 20 16  1  0
  1 25  1  0
  1 26  1  0
  1 27  1  0
  4 28  1  0
  5 29  1  0
  9 30  1  0
 10 31  1  0
 12 32  1  0
 13 33  1  0
 17 34  1  0
 18 35  1  0
 19 36  1  0
 22 37  1  0
 23 38  1  0
 24 39  1  0
M  END
$$$$
