
     RDKit          3D

 45 47  0  0  0  0  0  0  0  0999 V2000
    9.8173    1.1497   -1.5014 N   0  0  0  0  0  0  0  0  0  0  0  0
    8.7901    0.9181   -1.0134 C   0  0  0  0  0  0  0  0  0  0  0  0
    7.5176    0.6353   -0.4168 C   0  0  0  0  0  0  0  0  0  0  0  0
    7.4469   -0.0324    0.8075 C   0  0  0  0  0  0  0  0  0  0  0  0
    6.2022   -0.3038    1.3814 C   0  0  0  0  0  0  0  0  0  0  0  0
    5.0207    0.0857    0.7440 C   0  0  0  0  0  0  0  0  0  0  0  0
    3.8792   -0.2442    1.4174 O   0  0  0  0  0  0  0  0  0  0  0  0
    2.6392    0.1307    0.8304 C   0  0  0  0  0  0  0  0  0  0  0  0
    1.4566   -0.3014    1.7114 C   0  0  0  0  0  0  0  0  0  0  0  0
    1.6202   -0.8129    2.8200 O   0  0  0  0  0  0  0  0  0  0  0  0
    0.1845   -0.0862    1.1905 N   0  0  0  0  0  0  0  0  0  0  0  0
   -0.9898   -0.5064    1.9594 C   0  0  0  0  0  0  0  0  0  0  0  0
   -2.0887   -1.1332    1.0788 C   0  0  0  0  0  0  0  0  0  0  0  0
   -2.3962   -0.3203   -0.1153 N   0  0  0  0  0  0  0  0  0  0  0  0
   -3.7311   -0.2119   -0.4988 C   0  0  0  0  0  0  0  0  0  0  0  0
   -4.5786   -1.3203   -0.4714 C   0  0  0  0  0  0  0  0  0  0  0  0
   -5.9095   -1.1989   -0.8757 C   0  0  0  0  0  0  0  0  0  0  0  0
   -6.3864    0.0352   -1.3094 C   0  0  0  0  0  0  0  0  0  0  0  0
   -7.7905    0.2408   -1.7805 C   0  0  0  0  0  0  0  0  0  0  0  0
   -8.2972    1.4547   -1.4273 F   0  0  0  0  0  0  0  0  0  0  0  0
   -7.8993    0.1710   -3.1353 F   0  0  0  0  0  0  0  0  0  0  0  0
   -8.6627   -0.6821   -1.2876 F   0  0  0  0  0  0  0  0  0  0  0  0
   -5.4831    1.0823   -1.3316 C   0  0  0  0  0  0  0  0  0  0  0  0
   -4.1890    0.9793   -0.9440 N   0  0  0  0  0  0  0  0  0  0  0  0
   -1.5743    0.8800   -0.3261 C   0  0  0  0  0  0  0  0  0  0  0  0
   -0.0865    0.5505   -0.1045 C   0  0  0  0  0  0  0  0  0  0  0  0
    5.0921    0.7528   -0.4795 C   0  0  0  0  0  0  0  0  0  0  0  0
    6.3377    1.0267   -1.0582 C   0  0  0  0  0  0  0  0  0  0  0  0
    8.3522   -0.3458    1.3238 H   0  0  0  0  0  0  0  0  0  0  0  0
    6.1499   -0.8242    2.3361 H   0  0  0  0  0  0  0  0  0  0  0  0
    2.5319   -0.3617   -0.1426 H   0  0  0  0  0  0  0  0  0  0  0  0
    2.5956    1.2213    0.7324 H   0  0  0  0  0  0  0  0  0  0  0  0
   -1.3774    0.3933    2.4531 H   0  0  0  0  0  0  0  0  0  0  0  0
   -0.7104   -1.2120    2.7486 H   0  0  0  0  0  0  0  0  0  0  0  0
   -1.7525   -2.1190    0.7356 H   0  0  0  0  0  0  0  0  0  0  0  0
   -2.9726   -1.2827    1.7113 H   0  0  0  0  0  0  0  0  0  0  0  0
   -4.2083   -2.2917   -0.1602 H   0  0  0  0  0  0  0  0  0  0  0  0
   -6.5600   -2.0708   -0.8551 H   0  0  0  0  0  0  0  0  0  0  0  0
   -5.7729    2.0741   -1.6728 H   0  0  0  0  0  0  0  0  0  0  0  0
   -1.6839    1.2565   -1.3508 H   0  0  0  0  0  0  0  0  0  0  0  0
   -1.8825    1.6746    0.3660 H   0  0  0  0  0  0  0  0  0  0  0  0
    0.5116    1.4635   -0.1866 H   0  0  0  0  0  0  0  0  0  0  0  0
    0.2569   -0.1468   -0.8780 H   0  0  0  0  0  0  0  0  0  0  0  0
    4.2027    1.0738   -1.0114 H   0  0  0  0  0  0  0  0  0  0  0  0
    6.3787    1.5478   -2.0134 H   0  0  0  0  0  0  0  0  0  0  0  0
  1  2  3  0
  2  3  1  0
  3  4  2  0
  4  5  1  0
  5  6  2  0
  6  7  1  0
  7  8  1  0
  8  9  1  0
  9 10  2  0
  9 11  1  0
 11 12  1  0
 12 13  1  0
 13 14  1  0
 14 15  1  0
 15 16  2  0
 16 17  1  0
 17 18  2  0
 18 19  1  0
 19 20  1  0
 19 21  1  0
 19 22  1  0
 18 23  1  0
 23 24  2  0
 14 25  1  0
 25 26  1  0
  6 27  1  0
 27 28  2  0
 28  3  1  0
 26 11  1  0
 24 15  1  0
  4 29  1  0
  5 30  1  0
  8 31  1  0
  8 32  1  0
 12 33  1  0
 12 34  1  0
 13 35  1  0
 13 36  1  0
 16 37  1  0
 17 38  1  0
 23 39  1  0
 25 40  1  0
 25 41  1  0
 26 42  1  0
 26 43  1  0
 27 44  1  0
 28 45  1  0
M  END
$$$$
