
     RDKit          3D

 44 46  0  0  0  0  0  0  0  0999 V2000
    6.7430    0.4082    0.5225 C   0  0  0  0  0  0  0  0  0  0  0  0
    5.8951    0.1054   -0.5774 O   0  0  0  0  0  0  0  0  0  0  0  0
    4.7128    0.9012   -0.5672 C   0  0  0  0  0  0  0  0  0  0  0  0
    3.8382    0.5012   -1.7478 C   0  0  0  0  0  0  0  0  0  0  0  0
    3.2955   -0.9338   -1.6546 C   0  0  0  0  0  0  0  0  0  0  0  0
    2.2302   -1.0956   -0.6459 N   0  0  0  0  0  0  0  0  0  0  0  0
    2.4294   -1.7968    0.5437 C   0  0  0  0  0  0  0  0  0  0  0  0
    3.8277   -2.5642    1.0629 S   0  0  0  0  0  0  0  0  0  0  0  0
    1.3642   -1.8767    1.4006 N   0  0  0  0  0  0  0  0  0  0  0  0
    0.1128   -1.3274    1.1465 C   0  0  0  0  0  0  0  0  0  0  0  0
   -0.9100   -1.4532    2.0771 C   0  0  0  0  0  0  0  0  0  0  0  0
   -2.1667   -0.8964    1.8032 C   0  0  0  0  0  0  0  0  0  0  0  0
   -2.4379   -0.2071    0.6077 C   0  0  0  0  0  0  0  0  0  0  0  0
   -3.6825    0.3346    0.3471 N   0  0  0  0  0  0  0  0  0  0  0  0
   -4.6530    0.6263    1.4159 C   0  0  0  0  0  0  0  0  0  0  0  0
   -5.5675    1.7909    0.9993 C   0  0  0  0  0  0  0  0  0  0  0  0
   -6.3124    1.5478   -0.2012 O   0  0  0  0  0  0  0  0  0  0  0  0
   -5.6400    0.6740   -1.1188 C   0  0  0  0  0  0  0  0  0  0  0  0
   -4.1056    0.7100   -1.0140 C   0  0  0  0  0  0  0  0  0  0  0  0
   -1.3784   -0.1049   -0.3077 C   0  0  0  0  0  0  0  0  0  0  0  0
   -0.1170   -0.6588   -0.0397 C   0  0  0  0  0  0  0  0  0  0  0  0
    0.9875   -0.5436   -1.0081 C   0  0  0  0  0  0  0  0  0  0  0  0
    0.7718    0.0217   -2.0793 O   0  0  0  0  0  0  0  0  0  0  0  0
    7.6254   -0.2346    0.4642 H   0  0  0  0  0  0  0  0  0  0  0  0
    7.0671    1.4524    0.4788 H   0  0  0  0  0  0  0  0  0  0  0  0
    6.2299    0.2127    1.4690 H   0  0  0  0  0  0  0  0  0  0  0  0
    4.9948    1.9557   -0.6683 H   0  0  0  0  0  0  0  0  0  0  0  0
    4.1756    0.7758    0.3790 H   0  0  0  0  0  0  0  0  0  0  0  0
    3.0192    1.2215   -1.8429 H   0  0  0  0  0  0  0  0  0  0  0  0
    4.4383    0.5689   -2.6639 H   0  0  0  0  0  0  0  0  0  0  0  0
    4.1135   -1.6410   -1.4980 H   0  0  0  0  0  0  0  0  0  0  0  0
    2.8612   -1.1960   -2.6284 H   0  0  0  0  0  0  0  0  0  0  0  0
    1.5227   -2.3839    2.2643 H   0  0  0  0  0  0  0  0  0  0  0  0
   -0.7569   -1.9818    3.0136 H   0  0  0  0  0  0  0  0  0  0  0  0
   -2.9484   -1.0375    2.5455 H   0  0  0  0  0  0  0  0  0  0  0  0
   -4.1477    0.9141    2.3448 H   0  0  0  0  0  0  0  0  0  0  0  0
   -5.2534   -0.2715    1.6031 H   0  0  0  0  0  0  0  0  0  0  0  0
   -4.9752    2.7004    0.8427 H   0  0  0  0  0  0  0  0  0  0  0  0
   -6.2882    2.0055    1.7949 H   0  0  0  0  0  0  0  0  0  0  0  0
   -5.9546    0.9540   -2.1292 H   0  0  0  0  0  0  0  0  0  0  0  0
   -6.0072   -0.3425   -0.9333 H   0  0  0  0  0  0  0  0  0  0  0  0
   -3.7032    0.0151   -1.7598 H   0  0  0  0  0  0  0  0  0  0  0  0
   -3.7395    1.7193   -1.2351 H   0  0  0  0  0  0  0  0  0  0  0  0
   -1.5104    0.4305   -1.2447 H   0  0  0  0  0  0  0  0  0  0  0  0
  1  2  1  0
  2  3  1  0
  3  4  1  0
  4  5  1  0
  5  6  1  0
  6  7  1  0
  7  8  2  0
  7  9  1  0
  9 10  1  0
 10 11  2  0
 11 12  1  0
 12 13  2  0
 13 14  1  0
 14 15  1  0
 15 16  1  0
 16 17  1  0
 17 18  1  0
 18 19  1  0
 13 20  1  0
 20 21  2  0
 21 22  1  0
 22 23  2  0
 22  6  1  0
 21 10  1  0
 19 14  1  0
  1 24  1  0
  1 25  1  0
  1 26  1  0
  3 27  1  0
  3 28  1  0
  4 29  1  0
  4 30  1  0
  5 31  1  0
  5 32  1  0
  9 33  1  0
 11 34  1  0
 12 35  1  0
 15 36  1  0
 15 37  1  0
 16 38  1  0
 16 39  1  0
 18 40  1  0
 18 41  1  0
 19 42  1  0
 19 43  1  0
 20 44  1  0
M  END
$$$$
