
     RDKit          3D

 38 40  0  0  0  0  0  0  0  0999 V2000
    3.0619   -0.8141    2.9740 N   0  0  0  0  0  0  0  0  0  0  0  0
    2.2531   -0.8913    2.1446 C   0  0  0  0  0  0  0  0  0  0  0  0
    1.2774   -0.9093    1.1095 C   0  0  0  0  0  0  0  0  0  0  0  0
    1.5376   -0.6321   -0.1841 C   0  0  0  0  0  0  0  0  0  0  0  0
    2.8292   -0.2131   -0.7505 C   0  0  0  0  0  0  0  0  0  0  0  0
    3.5705    0.8561   -0.2191 C   0  0  0  0  0  0  0  0  0  0  0  0
    4.7845    1.2448   -0.7986 C   0  0  0  0  0  0  0  0  0  0  0  0
    5.2449    0.5726   -1.9223 C   0  0  0  0  0  0  0  0  0  0  0  0
    6.4216    0.9034   -2.5334 O   0  0  0  0  0  0  0  0  0  0  0  0
    4.5033   -0.4712   -2.4666 C   0  0  0  0  0  0  0  0  0  0  0  0
    4.9557   -1.1217   -3.5788 O   0  0  0  0  0  0  0  0  0  0  0  0
    3.3013   -0.8677   -1.8952 C   0  0  0  0  0  0  0  0  0  0  0  0
   -0.0987   -1.3578    1.4809 C   0  0  0  0  0  0  0  0  0  0  0  0
   -0.2394   -2.3649    2.1621 O   0  0  0  0  0  0  0  0  0  0  0  0
   -1.0951   -0.5151    1.0150 N   0  0  0  0  0  0  0  0  0  0  0  0
   -2.5028   -0.6581    1.1642 C   0  0  0  0  0  0  0  0  0  0  0  0
   -3.0586   -1.7774    1.7928 C   0  0  0  0  0  0  0  0  0  0  0  0
   -4.4369   -1.9052    1.9245 C   0  0  0  0  0  0  0  0  0  0  0  0
   -5.2748   -0.9141    1.4254 C   0  0  0  0  0  0  0  0  0  0  0  0
   -4.7747    0.2100    0.7932 C   0  0  0  0  0  0  0  0  0  0  0  0
   -5.6688    1.1080    0.3446 N   0  0  0  0  0  0  0  0  0  0  0  0
   -5.2149    2.2139   -0.2751 C   0  0  0  0  0  0  0  0  0  0  0  0
   -3.8789    2.4763   -0.4752 C   0  0  0  0  0  0  0  0  0  0  0  0
   -2.9550    1.5445   -0.0100 C   0  0  0  0  0  0  0  0  0  0  0  0
   -3.3728    0.3606    0.6497 C   0  0  0  0  0  0  0  0  0  0  0  0
    0.7578   -0.7662   -0.9339 H   0  0  0  0  0  0  0  0  0  0  0  0
    3.2183    1.4034    0.6531 H   0  0  0  0  0  0  0  0  0  0  0  0
    5.3440    2.0657   -0.3611 H   0  0  0  0  0  0  0  0  0  0  0  0
    6.8477    1.6068   -2.0134 H   0  0  0  0  0  0  0  0  0  0  0  0
    5.8082   -0.6896   -3.7879 H   0  0  0  0  0  0  0  0  0  0  0  0
    2.7514   -1.6906   -2.3444 H   0  0  0  0  0  0  0  0  0  0  0  0
   -0.7862    0.3205    0.5424 H   0  0  0  0  0  0  0  0  0  0  0  0
   -2.4490   -2.5805    2.1943 H   0  0  0  0  0  0  0  0  0  0  0  0
   -4.8585   -2.7786    2.4160 H   0  0  0  0  0  0  0  0  0  0  0  0
   -6.3519   -1.0229    1.5328 H   0  0  0  0  0  0  0  0  0  0  0  0
   -5.9825    2.9030   -0.6152 H   0  0  0  0  0  0  0  0  0  0  0  0
   -3.5612    3.3820   -0.9793 H   0  0  0  0  0  0  0  0  0  0  0  0
   -1.9077    1.7700   -0.1752 H   0  0  0  0  0  0  0  0  0  0  0  0
  1  2  3  0
  2  3  1  0
  3  4  2  3
  4  5  1  0
  5  6  2  0
  6  7  1  0
  7  8  2  0
  8  9  1  0
  8 10  1  0
 10 11  1  0
 10 12  2  0
  3 13  1  0
 13 14  2  0
 13 15  1  0
 15 16  1  0
 16 17  2  0
 17 18  1  0
 18 19  2  0
 19 20  1  0
 20 21  2  0
 21 22  1  0
 22 23  2  0
 23 24  1  0
 24 25  2  0
 12  5  1  0
 25 16  1  0
 25 20  1  0
  4 26  1  0
  6 27  1  0
  7 28  1  0
  9 29  1  0
 11 30  1  0
 12 31  1  0
 15 32  1  0
 17 33  1  0
 18 34  1  0
 19 35  1  0
 22 36  1  0
 23 37  1  0
 24 38  1  0
M  END
$$$$
