
     RDKit          3D

 63 67  0  0  0  0  0  0  0  0999 V2000
   -7.3074    5.0972    1.3456 C   0  0  0  0  0  0  0  0  0  0  0  0
   -5.9071    5.3311    1.2597 O   0  0  0  0  0  0  0  0  0  0  0  0
   -5.1071    4.2381    1.0589 C   0  0  0  0  0  0  0  0  0  0  0  0
   -3.7490    4.5243    0.9850 C   0  0  0  0  0  0  0  0  0  0  0  0
   -2.8100    3.5070    0.7863 C   0  0  0  0  0  0  0  0  0  0  0  0
   -3.2254    2.1577    0.6592 C   0  0  0  0  0  0  0  0  0  0  0  0
   -2.4606    0.9463    0.4578 C   0  0  0  0  0  0  0  0  0  0  0  0
   -1.0069    0.8555    0.3680 C   0  0  0  0  0  0  0  0  0  0  0  0
   -0.3883    0.4983   -0.8330 C   0  0  0  0  0  0  0  0  0  0  0  0
    1.0040    0.4119   -0.9024 C   0  0  0  0  0  0  0  0  0  0  0  0
    1.7923    0.6828    0.2192 C   0  0  0  0  0  0  0  0  0  0  0  0
    3.1375    0.5546    0.0143 O   0  0  0  0  0  0  0  0  0  0  0  0
    3.9915    0.7301    1.1473 C   0  0  0  0  0  0  0  0  0  0  0  0
    5.4490    0.4308    0.7424 C   0  0  0  0  0  0  0  0  0  0  0  0
    5.8077   -1.0023    0.7708 N   0  0  0  0  0  0  0  0  0  0  0  0
    4.9794   -1.8019   -0.1605 C   0  0  0  0  0  0  0  0  0  0  0  0
    5.6624   -3.1253   -0.5398 C   0  0  0  0  0  0  0  0  0  0  0  0
    6.8936   -2.9353   -1.2520 O   0  0  0  0  0  0  0  0  0  0  0  0
    7.5378   -1.6941   -0.9332 C   0  0  0  0  0  0  0  0  0  0  0  0
    7.2462   -1.2145    0.4976 C   0  0  0  0  0  0  0  0  0  0  0  0
    1.1760    1.0517    1.4150 C   0  0  0  0  0  0  0  0  0  0  0  0
   -0.2189    1.1368    1.4895 C   0  0  0  0  0  0  0  0  0  0  0  0
   -3.2660   -0.1780    0.3744 C   0  0  0  0  0  0  0  0  0  0  0  0
   -2.8980   -1.5909    0.2051 C   0  0  0  0  0  0  0  0  0  0  0  0
   -2.4441   -2.3041    1.3274 C   0  0  0  0  0  0  0  0  0  0  0  0
   -2.0698   -3.6418    1.2144 C   0  0  0  0  0  0  0  0  0  0  0  0
   -2.1438   -4.2772   -0.0212 C   0  0  0  0  0  0  0  0  0  0  0  0
   -2.5887   -3.5785   -1.1482 C   0  0  0  0  0  0  0  0  0  0  0  0
   -2.9662   -2.2336   -1.0489 C   0  0  0  0  0  0  0  0  0  0  0  0
   -3.3914   -1.4680   -2.1062 O   0  0  0  0  0  0  0  0  0  0  0  0
   -3.5110   -2.1004   -3.3723 C   0  0  0  0  0  0  0  0  0  0  0  0
   -4.9203    0.2145    0.5474 S   0  0  0  0  0  0  0  0  0  0  0  0
   -4.5942    1.8933    0.7292 C   0  0  0  0  0  0  0  0  0  0  0  0
   -5.5465    2.9187    0.9289 C   0  0  0  0  0  0  0  0  0  0  0  0
   -7.5486    4.4525    2.1976 H   0  0  0  0  0  0  0  0  0  0  0  0
   -7.6958    4.6810    0.4103 H   0  0  0  0  0  0  0  0  0  0  0  0
   -7.7979    6.0618    1.5089 H   0  0  0  0  0  0  0  0  0  0  0  0
   -3.4089    5.5531    1.0800 H   0  0  0  0  0  0  0  0  0  0  0  0
   -1.7541    3.7600    0.7257 H   0  0  0  0  0  0  0  0  0  0  0  0
   -0.9834    0.2820   -1.7173 H   0  0  0  0  0  0  0  0  0  0  0  0
    1.4768    0.1272   -1.8390 H   0  0  0  0  0  0  0  0  0  0  0  0
    3.6942    0.0740    1.9746 H   0  0  0  0  0  0  0  0  0  0  0  0
    3.9334    1.7753    1.4743 H   0  0  0  0  0  0  0  0  0  0  0  0
    6.0887    0.9456    1.4705 H   0  0  0  0  0  0  0  0  0  0  0  0
    5.6580    0.8570   -0.2472 H   0  0  0  0  0  0  0  0  0  0  0  0
    4.7946   -1.2417   -1.0866 H   0  0  0  0  0  0  0  0  0  0  0  0
    4.0147   -2.0204    0.3098 H   0  0  0  0  0  0  0  0  0  0  0  0
    5.0014   -3.7180   -1.1805 H   0  0  0  0  0  0  0  0  0  0  0  0
    5.8694   -3.7268    0.3540 H   0  0  0  0  0  0  0  0  0  0  0  0
    8.6145   -1.8435   -1.0661 H   0  0  0  0  0  0  0  0  0  0  0  0
    7.2207   -0.9433   -1.6674 H   0  0  0  0  0  0  0  0  0  0  0  0
    7.8388   -0.3194    0.7209 H   0  0  0  0  0  0  0  0  0  0  0  0
    7.5881   -1.9902    1.1943 H   0  0  0  0  0  0  0  0  0  0  0  0
    1.7475    1.2790    2.3085 H   0  0  0  0  0  0  0  0  0  0  0  0
   -0.6858    1.4184    2.4309 H   0  0  0  0  0  0  0  0  0  0  0  0
   -2.3790   -1.8124    2.2957 H   0  0  0  0  0  0  0  0  0  0  0  0
   -1.7183   -4.1844    2.0886 H   0  0  0  0  0  0  0  0  0  0  0  0
   -1.8506   -5.3205   -0.1117 H   0  0  0  0  0  0  0  0  0  0  0  0
   -2.6216   -4.1136   -2.0912 H   0  0  0  0  0  0  0  0  0  0  0  0
   -3.8857   -1.3572   -4.0829 H   0  0  0  0  0  0  0  0  0  0  0  0
   -2.5365   -2.4429   -3.7342 H   0  0  0  0  0  0  0  0  0  0  0  0
   -4.2347   -2.9217   -3.3387 H   0  0  0  0  0  0  0  0  0  0  0  0
   -6.5966    2.6545    0.9759 H   0  0  0  0  0  0  0  0  0  0  0  0
  1  2  1  0
  2  3  1  0
  3  4  2  0
  4  5  1  0
  5  6  2  0
  6  7  1  0
  7  8  1  0
  8  9  2  0
  9 10  1  0
 10 11  2  0
 11 12  1  0
 12 13  1  0
 13 14  1  0
 14 15  1  0
 15 16  1  0
 16 17  1  0
 17 18  1  0
 18 19  1  0
 19 20  1  0
 11 21  1  0
 21 22  2  0
  7 23  2  0
 23 24  1  0
 24 25  2  0
 25 26  1  0
 26 27  2  0
 27 28  1  0
 28 29  2  0
 29 30  1  0
 30 31  1  0
 23 32  1  0
 32 33  1  0
 33 34  2  0
 34  3  1  0
 33  6  1  0
 22  8  1  0
 29 24  1  0
 20 15  1  0
  1 35  1  0
  1 36  1  0
  1 37  1  0
  4 38  1  0
  5 39  1  0
  9 40  1  0
 10 41  1  0
 13 42  1  0
 13 43  1  0
 14 44  1  0
 14 45  1  0
 16 46  1  0
 16 47  1  0
 17 48  1  0
 17 49  1  0
 19 50  1  0
 19 51  1  0
 20 52  1  0
 20 53  1  0
 21 54  1  0
 22 55  1  0
 25 56  1  0
 26 57  1  0
 27 58  1  0
 28 59  1  0
 31 60  1  0
 31 61  1  0
 31 62  1  0
 34 63  1  0
M  END
$$$$
