
     RDKit          3D

 54 57  0  0  0  0  0  0  0  0999 V2000
    7.3031   -3.9401    0.4645 C   0  0  0  0  0  0  0  0  0  0  0  0
    5.9851   -3.5054    0.7641 O   0  0  0  0  0  0  0  0  0  0  0  0
    5.7561   -2.1592    0.6900 C   0  0  0  0  0  0  0  0  0  0  0  0
    6.7340   -1.1671    0.7143 C   0  0  0  0  0  0  0  0  0  0  0  0
    6.3627    0.1759    0.6416 C   0  0  0  0  0  0  0  0  0  0  0  0
    5.0146    0.5350    0.5441 C   0  0  0  0  0  0  0  0  0  0  0  0
    4.0255   -0.4472    0.5229 C   0  0  0  0  0  0  0  0  0  0  0  0
    2.6427   -0.1778    0.4337 N   0  0  0  0  0  0  0  0  0  0  0  0
    2.0357    1.0536    0.2897 C   0  0  0  0  0  0  0  0  0  0  0  0
    2.5976    2.1323    0.1328 O   0  0  0  0  0  0  0  0  0  0  0  0
    0.5452    0.9966    0.2579 C   0  0  0  0  0  0  0  0  0  0  0  0
   -0.1411    0.2147    1.1081 C   0  0  0  0  0  0  0  0  0  0  0  0
   -1.5930    0.1222    1.0941 C   0  0  0  0  0  0  0  0  0  0  0  0
   -2.2749   -0.7782    2.0656 C   0  0  0  0  0  0  0  0  0  0  0  0
   -1.6008   -1.4443    2.8523 O   0  0  0  0  0  0  0  0  0  0  0  0
   -3.6557   -0.8085    2.0062 N   0  0  0  0  0  0  0  0  0  0  0  0
   -4.3659   -1.6036    2.8972 C   0  0  0  0  0  0  0  0  0  0  0  0
   -5.7026   -1.6625    2.8727 C   0  0  0  0  0  0  0  0  0  0  0  0
   -6.4394   -0.8974    1.9022 C   0  0  0  0  0  0  0  0  0  0  0  0
   -5.7952   -0.1289    1.0235 C   0  0  0  0  0  0  0  0  0  0  0  0
   -4.3070   -0.0492    1.0522 C   0  0  0  0  0  0  0  0  0  0  0  0
   -3.7122    0.7156    0.1941 N   0  0  0  0  0  0  0  0  0  0  0  0
   -2.3384    0.8196    0.2082 C   0  0  0  0  0  0  0  0  0  0  0  0
   -1.6743    1.6738   -0.7061 N   0  0  0  0  0  0  0  0  0  0  0  0
   -2.4680    2.4339   -1.6957 C   0  0  0  0  0  0  0  0  0  0  0  0
   -2.8729    1.5592   -2.9025 C   0  0  0  0  0  0  0  0  0  0  0  0
   -1.6649    1.1076   -3.7293 C   0  0  0  0  0  0  0  0  0  0  0  0
   -3.8526    2.3287   -3.7946 C   0  0  0  0  0  0  0  0  0  0  0  0
   -0.2824    1.8504   -0.6683 C   0  0  0  0  0  0  0  0  0  0  0  0
    0.2927    2.7416   -1.4255 N   0  0  0  0  0  0  0  0  0  0  0  0
    4.4088   -1.7933    0.6051 C   0  0  0  0  0  0  0  0  0  0  0  0
    7.9948   -3.6632    1.2643 H   0  0  0  0  0  0  0  0  0  0  0  0
    7.6336   -3.5475   -0.5022 H   0  0  0  0  0  0  0  0  0  0  0  0
    7.2886   -5.0329    0.3932 H   0  0  0  0  0  0  0  0  0  0  0  0
    7.7885   -1.4038    0.8041 H   0  0  0  0  0  0  0  0  0  0  0  0
    7.1240    0.9529    0.6621 H   0  0  0  0  0  0  0  0  0  0  0  0
    4.7762    1.5922    0.4953 H   0  0  0  0  0  0  0  0  0  0  0  0
    2.0442   -0.9964    0.4466 H   0  0  0  0  0  0  0  0  0  0  0  0
    0.3719   -0.3815    1.8587 H   0  0  0  0  0  0  0  0  0  0  0  0
   -3.7875   -2.1763    3.6206 H   0  0  0  0  0  0  0  0  0  0  0  0
   -6.2498   -2.2795    3.5748 H   0  0  0  0  0  0  0  0  0  0  0  0
   -7.5231   -0.9644    1.8993 H   0  0  0  0  0  0  0  0  0  0  0  0
   -6.3117    0.4592    0.2774 H   0  0  0  0  0  0  0  0  0  0  0  0
   -3.3693    2.8291   -1.2053 H   0  0  0  0  0  0  0  0  0  0  0  0
   -1.9366    3.3282   -2.0470 H   0  0  0  0  0  0  0  0  0  0  0  0
   -3.3852    0.6566   -2.5429 H   0  0  0  0  0  0  0  0  0  0  0  0
   -1.9852    0.5141   -4.5903 H   0  0  0  0  0  0  0  0  0  0  0  0
   -0.9912    0.4788   -3.1387 H   0  0  0  0  0  0  0  0  0  0  0  0
   -1.0961    1.9636   -4.1041 H   0  0  0  0  0  0  0  0  0  0  0  0
   -4.1898    1.7040   -4.6314 H   0  0  0  0  0  0  0  0  0  0  0  0
   -4.7388    2.6360   -3.2251 H   0  0  0  0  0  0  0  0  0  0  0  0
   -3.3903    3.2333   -4.2117 H   0  0  0  0  0  0  0  0  0  0  0  0
    1.3078    2.7828   -1.2359 H   0  0  0  0  0  0  0  0  0  0  0  0
    3.6624   -2.5837    0.5924 H   0  0  0  0  0  0  0  0  0  0  0  0
  1  2  1  0
  2  3  1  0
  3  4  2  0
  4  5  1  0
  5  6  2  0
  6  7  1  0
  7  8  1  0
  8  9  1  0
  9 10  2  0
  9 11  1  0
 11 12  2  0
 12 13  1  0
 13 14  1  0
 14 15  2  0
 14 16  1  0
 16 17  1  0
 17 18  2  0
 18 19  1  0
 19 20  2  0
 20 21  1  0
 21 22  2  0
 22 23  1  0
 23 24  1  0
 24 25  1  0
 25 26  1  0
 26 27  1  0
 26 28  1  0
 24 29  1  0
 29 30  2  3
  7 31  2  0
 31  3  1  0
 29 11  1  0
 23 13  2  0
 21 16  1  0
  1 32  1  0
  1 33  1  0
  1 34  1  0
  4 35  1  0
  5 36  1  0
  6 37  1  0
  8 38  1  0
 12 39  1  0
 17 40  1  0
 18 41  1  0
 19 42  1  0
 20 43  1  0
 25 44  1  0
 25 45  1  0
 26 46  1  0
 27 47  1  0
 27 48  1  0
 27 49  1  0
 28 50  1  0
 28 51  1  0
 28 52  1  0
 30 53  1  0
 31 54  1  0
M  END
$$$$
