
     RDKit          3D

 36 38  0  0  0  0  0  0  0  0999 V2000
    6.8049    1.4289   -2.6595 Br  0  0  0  0  0  0  0  0  0  0  0  0
    5.3992    0.6168   -1.6921 C   0  0  0  0  0  0  0  0  0  0  0  0
    5.5697    0.3182   -0.3424 C   0  0  0  0  0  0  0  0  0  0  0  0
    4.5293   -0.2829    0.3756 C   0  0  0  0  0  0  0  0  0  0  0  0
    3.3123   -0.5927   -0.2508 C   0  0  0  0  0  0  0  0  0  0  0  0
    2.2014   -1.2174    0.4648 C   0  0  0  0  0  0  0  0  0  0  0  0
    2.3161   -1.8991    1.6591 C   0  0  0  0  0  0  0  0  0  0  0  0
    0.7843   -2.4847    2.1531 S   0  0  0  0  0  0  0  0  0  0  0  0
    0.0620   -1.7836    0.7496 C   0  0  0  0  0  0  0  0  0  0  0  0
   -1.2661   -1.9549    0.5529 N   0  0  0  0  0  0  0  0  0  0  0  0
   -2.0102   -0.9083    0.3154 C   0  0  0  0  0  0  0  0  0  0  0  0
   -1.5283    0.5426    0.3182 C   0  0  0  0  0  0  0  0  0  0  0  0
   -2.5120    1.5086    0.9770 C   0  0  0  0  0  0  0  0  0  0  0  0
   -3.6580    1.9381    0.0641 C   0  0  0  0  0  0  0  0  0  0  0  0
   -4.6899    0.8450   -0.1983 C   0  0  0  0  0  0  0  0  0  0  0  0
   -4.1184   -0.3799   -0.8968 C   0  0  0  0  0  0  0  0  0  0  0  0
   -3.3274   -1.1771    0.0164 N   0  0  0  0  0  0  0  0  0  0  0  0
    0.9141   -1.1759   -0.0504 N   0  0  0  0  0  0  0  0  0  0  0  0
    3.1606   -0.2765   -1.6107 C   0  0  0  0  0  0  0  0  0  0  0  0
    4.1982    0.3234   -2.3308 C   0  0  0  0  0  0  0  0  0  0  0  0
    6.5038    0.5512    0.1623 H   0  0  0  0  0  0  0  0  0  0  0  0
    4.6882   -0.4890    1.4306 H   0  0  0  0  0  0  0  0  0  0  0  0
    3.1927   -2.0985    2.2565 H   0  0  0  0  0  0  0  0  0  0  0  0
   -1.3070    0.8387   -0.7132 H   0  0  0  0  0  0  0  0  0  0  0  0
   -0.5974    0.6215    0.8872 H   0  0  0  0  0  0  0  0  0  0  0  0
   -1.9580    2.4139    1.2563 H   0  0  0  0  0  0  0  0  0  0  0  0
   -2.9084    1.0825    1.9066 H   0  0  0  0  0  0  0  0  0  0  0  0
   -4.1739    2.7851    0.5334 H   0  0  0  0  0  0  0  0  0  0  0  0
   -3.2583    2.3088   -0.8877 H   0  0  0  0  0  0  0  0  0  0  0  0
   -5.4788    1.2701   -0.8310 H   0  0  0  0  0  0  0  0  0  0  0  0
   -5.1663    0.5541    0.7464 H   0  0  0  0  0  0  0  0  0  0  0  0
   -3.5363   -0.1044   -1.7838 H   0  0  0  0  0  0  0  0  0  0  0  0
   -4.9536   -0.9977   -1.2466 H   0  0  0  0  0  0  0  0  0  0  0  0
   -3.4686   -2.1790   -0.0885 H   0  0  0  0  0  0  0  0  0  0  0  0
    2.2252   -0.5009   -2.1216 H   0  0  0  0  0  0  0  0  0  0  0  0
    4.0546    0.5548   -3.3828 H   0  0  0  0  0  0  0  0  0  0  0  0
  1  2  1  0
  2  3  2  0
  3  4  1  0
  4  5  2  0
  5  6  1  0
  6  7  2  0
  7  8  1  0
  8  9  1  0
  9 10  1  0
 10 11  2  3
 11 12  1  0
 12 13  1  0
 13 14  1  0
 14 15  1  0
 15 16  1  0
 16 17  1  0
  9 18  2  0
  5 19  1  0
 19 20  2  0
 20  2  1  0
 18  6  1  0
 17 11  1  0
  3 21  1  0
  4 22  1  0
  7 23  1  0
 12 24  1  0
 12 25  1  0
 13 26  1  0
 13 27  1  0
 14 28  1  0
 14 29  1  0
 15 30  1  0
 15 31  1  0
 16 32  1  0
 16 33  1  0
 17 34  1  0
 19 35  1  0
 20 36  1  0
M  END
$$$$
