
     RDKit          3D

 34 35  0  0  0  0  0  0  0  0999 V2000
    0.3360    0.6873   -2.3478 O   0  0  0  0  0  0  0  0  0  0  0  0
   -0.6218   -0.0529   -2.0832 N   0  0  0  0  0  4  0  0  0  0  0  0
   -0.8624   -1.1309   -2.6488 O   0  0  0  0  0  1  0  0  0  0  0  0
   -1.5657    0.3891   -1.0609 C   0  0  0  0  0  0  0  0  0  0  0  0
   -2.9351    0.1996   -1.3315 C   0  0  0  0  0  0  0  0  0  0  0  0
   -3.9015    0.6010   -0.3992 C   0  0  0  0  0  0  0  0  0  0  0  0
   -5.3708    0.3849   -0.6710 C   0  0  0  0  0  0  0  0  0  0  0  0
   -5.7903   -0.8487   -0.2801 F   0  0  0  0  0  0  0  0  0  0  0  0
   -5.6854    0.4894   -1.9915 F   0  0  0  0  0  0  0  0  0  0  0  0
   -6.1713    1.2772   -0.0253 F   0  0  0  0  0  0  0  0  0  0  0  0
   -3.4714    1.1782    0.8021 C   0  0  0  0  0  0  0  0  0  0  0  0
   -2.1066    1.3569    1.0645 C   0  0  0  0  0  0  0  0  0  0  0  0
   -1.1189    0.9582    0.1482 C   0  0  0  0  0  0  0  0  0  0  0  0
    0.2398    1.1584    0.4761 N   0  0  0  0  0  0  0  0  0  0  0  0
    0.6769    0.4630    1.7013 C   0  0  0  0  0  0  0  0  0  0  0  0
    2.2087    0.4526    1.8104 C   0  0  0  0  0  0  0  0  0  0  0  0
    2.9066   -0.4256    0.7959 C   0  0  0  0  0  0  0  0  0  0  0  0
    4.2914   -0.5690    0.8501 C   0  0  0  0  0  0  0  0  0  0  0  0
    4.9256   -1.3566   -0.1072 C   0  0  0  0  0  0  0  0  0  0  0  0
    4.1674   -1.9741   -1.0938 C   0  0  0  0  0  0  0  0  0  0  0  0
    2.7979   -1.7805   -1.0800 C   0  0  0  0  0  0  0  0  0  0  0  0
    2.1560   -1.0283   -0.1582 N   0  0  0  0  0  0  0  0  0  0  0  0
   -3.2503   -0.2567   -2.2705 H   0  0  0  0  0  0  0  0  0  0  0  0
   -4.1987    1.5028    1.5463 H   0  0  0  0  0  0  0  0  0  0  0  0
   -1.8165    1.8349    1.9983 H   0  0  0  0  0  0  0  0  0  0  0  0
    0.8502    0.8683   -0.3025 H   0  0  0  0  0  0  0  0  0  0  0  0
    0.2796    0.9906    2.5762 H   0  0  0  0  0  0  0  0  0  0  0  0
    0.2918   -0.5649    1.7242 H   0  0  0  0  0  0  0  0  0  0  0  0
    2.4785    0.0926    2.8109 H   0  0  0  0  0  0  0  0  0  0  0  0
    2.5912    1.4756    1.7077 H   0  0  0  0  0  0  0  0  0  0  0  0
    4.8733   -0.0711    1.6190 H   0  0  0  0  0  0  0  0  0  0  0  0
    6.0046   -1.4806   -0.0876 H   0  0  0  0  0  0  0  0  0  0  0  0
    4.6315   -2.5867   -1.8583 H   0  0  0  0  0  0  0  0  0  0  0  0
    2.1598   -2.2341   -1.8339 H   0  0  0  0  0  0  0  0  0  0  0  0
  1  2  2  0
  2  3  1  0
  2  4  1  0
  4  5  2  0
  5  6  1  0
  6  7  1  0
  7  8  1  0
  7  9  1  0
  7 10  1  0
  6 11  2  0
 11 12  1  0
 12 13  2  0
 13 14  1  0
 14 15  1  0
 15 16  1  0
 16 17  1  0
 17 18  2  0
 18 19  1  0
 19 20  2  0
 20 21  1  0
 21 22  2  0
 13  4  1  0
 22 17  1  0
  5 23  1  0
 11 24  1  0
 12 25  1  0
 14 26  1  0
 15 27  1  0
 15 28  1  0
 16 29  1  0
 16 30  1  0
 18 31  1  0
 19 32  1  0
 20 33  1  0
 21 34  1  0
M  CHG  2   2   1   3  -1
M  END
$$$$
