
     RDKit          3D

 45 46  0  0  0  0  0  0  0  0999 V2000
    7.7616   -0.5807   -0.6865 C   0  0  0  0  0  0  0  0  0  0  0  0
    7.1260    0.5211    0.1425 C   0  0  0  0  0  0  0  0  0  0  0  0
    5.8037    0.1549    0.6190 N   0  0  0  0  0  0  0  0  0  0  0  0
    5.7042   -0.5262    1.7742 N   0  0  0  0  0  0  0  0  0  0  0  0
    4.3914   -0.6952    1.9344 C   0  0  0  0  0  0  0  0  0  0  0  0
    3.6379   -0.1260    0.8855 C   0  0  0  0  0  0  0  0  0  0  0  0
    2.2049   -0.1105    0.7259 C   0  0  0  0  0  0  0  0  0  0  0  0
    1.4701   -0.6797    1.6243 N   0  0  0  0  0  0  0  0  0  0  0  0
    0.1260   -0.6246    1.4067 N   0  0  0  0  0  0  0  0  0  0  0  0
   -0.7600   -1.2012    2.3031 C   0  0  0  0  0  0  0  0  0  0  0  0
   -0.4504   -1.7920    3.3358 O   0  0  0  0  0  0  0  0  0  0  0  0
   -2.2213   -1.0369    1.8891 C   0  0  0  0  0  0  0  0  0  0  0  0
   -2.3350   -0.3262    0.6565 O   0  0  0  0  0  0  0  0  0  0  0  0
   -3.6009   -0.1085    0.1840 C   0  0  0  0  0  0  0  0  0  0  0  0
   -4.7866   -0.5267    0.7905 C   0  0  0  0  0  0  0  0  0  0  0  0
   -6.0272   -0.2386    0.2016 C   0  0  0  0  0  0  0  0  0  0  0  0
   -7.2976   -0.7260    0.8359 C   0  0  0  0  0  0  0  0  0  0  0  0
   -6.0669    0.4557   -1.0139 C   0  0  0  0  0  0  0  0  0  0  0  0
   -4.8871    0.8936   -1.6250 C   0  0  0  0  0  0  0  0  0  0  0  0
   -4.9338    1.6143   -2.9396 C   0  0  0  0  0  0  0  0  0  0  0  0
   -3.6590    0.5966   -1.0216 C   0  0  0  0  0  0  0  0  0  0  0  0
    4.5870    0.4213    0.0334 C   0  0  0  0  0  0  0  0  0  0  0  0
    4.4534    1.1574   -1.2495 C   0  0  0  0  0  0  0  0  0  0  0  0
    7.1538   -0.8152   -1.5665 H   0  0  0  0  0  0  0  0  0  0  0  0
    8.7546   -0.2735   -1.0289 H   0  0  0  0  0  0  0  0  0  0  0  0
    7.8713   -1.5008   -0.1028 H   0  0  0  0  0  0  0  0  0  0  0  0
    7.7426    0.7471    1.0200 H   0  0  0  0  0  0  0  0  0  0  0  0
    7.0372    1.4430   -0.4406 H   0  0  0  0  0  0  0  0  0  0  0  0
    4.0272   -1.2245    2.8071 H   0  0  0  0  0  0  0  0  0  0  0  0
    1.7808    0.3895   -0.1610 H   0  0  0  0  0  0  0  0  0  0  0  0
   -0.2544   -0.1624    0.5842 H   0  0  0  0  0  0  0  0  0  0  0  0
   -2.6387   -2.0448    1.7827 H   0  0  0  0  0  0  0  0  0  0  0  0
   -2.7206   -0.4823    2.6920 H   0  0  0  0  0  0  0  0  0  0  0  0
   -4.7799   -1.0835    1.7224 H   0  0  0  0  0  0  0  0  0  0  0  0
   -8.1352   -0.0633    0.5938 H   0  0  0  0  0  0  0  0  0  0  0  0
   -7.2060   -0.7468    1.9269 H   0  0  0  0  0  0  0  0  0  0  0  0
   -7.5300   -1.7343    0.4800 H   0  0  0  0  0  0  0  0  0  0  0  0
   -7.0261    0.6584   -1.4874 H   0  0  0  0  0  0  0  0  0  0  0  0
   -5.8508    2.2063   -3.0282 H   0  0  0  0  0  0  0  0  0  0  0  0
   -4.8964    0.8940   -3.7626 H   0  0  0  0  0  0  0  0  0  0  0  0
   -4.0906    2.3064   -3.0359 H   0  0  0  0  0  0  0  0  0  0  0  0
   -2.7339    0.9147   -1.4966 H   0  0  0  0  0  0  0  0  0  0  0  0
    3.4284    1.1214   -1.6295 H   0  0  0  0  0  0  0  0  0  0  0  0
    4.7243    2.2096   -1.1158 H   0  0  0  0  0  0  0  0  0  0  0  0
    5.1015    0.7252   -2.0184 H   0  0  0  0  0  0  0  0  0  0  0  0
  1  2  1  0
  2  3  1  0
  3  4  1  0
  4  5  2  0
  5  6  1  0
  6  7  1  0
  7  8  2  3
  8  9  1  0
  9 10  1  0
 10 11  2  0
 10 12  1  0
 12 13  1  0
 13 14  1  0
 14 15  2  0
 15 16  1  0
 16 17  1  0
 16 18  2  0
 18 19  1  0
 19 20  1  0
 19 21  2  0
  6 22  2  0
 22 23  1  0
 22  3  1  0
 21 14  1  0
  1 24  1  0
  1 25  1  0
  1 26  1  0
  2 27  1  0
  2 28  1  0
  5 29  1  0
  7 30  1  0
  9 31  1  0
 12 32  1  0
 12 33  1  0
 15 34  1  0
 17 35  1  0
 17 36  1  0
 17 37  1  0
 18 38  1  0
 20 39  1  0
 20 40  1  0
 20 41  1  0
 21 42  1  0
 23 43  1  0
 23 44  1  0
 23 45  1  0
M  END
$$$$
