
     RDKit          3D

 53 56  0  0  0  0  0  0  0  0999 V2000
   -1.1469    1.0478    2.8915 C   0  0  0  0  0  0  0  0  0  0  0  0
   -1.5090    0.4148    1.5733 C   0  0  0  0  0  0  0  0  0  0  0  0
   -0.5206   -0.1817    0.7747 C   0  0  0  0  0  0  0  0  0  0  0  0
    0.7496   -0.1428    1.2760 O   0  0  0  0  0  0  0  0  0  0  0  0
    1.8664   -0.3429    0.4089 C   0  0  0  0  0  0  0  0  0  0  0  0
    2.3566   -1.7730    0.6068 C   0  0  0  0  0  0  0  0  0  0  0  0
    2.9343    0.7150    0.7770 C   0  0  0  0  0  0  0  0  0  0  0  0
    2.6793    1.7299    1.4240 O   0  0  0  0  0  0  0  0  0  0  0  0
    4.1942    0.5012    0.2471 N   0  0  0  0  0  0  0  0  0  0  0  0
    5.2928    1.3682    0.6264 C   0  0  0  0  0  0  0  0  0  0  0  0
    6.5388    1.0164   -0.1482 C   0  0  0  0  0  0  0  0  0  0  0  0
    6.8860    1.7090   -1.3065 C   0  0  0  0  0  0  0  0  0  0  0  0
    8.0235    1.3142   -2.0048 C   0  0  0  0  0  0  0  0  0  0  0  0
    8.7807    0.2481   -1.5340 C   0  0  0  0  0  0  0  0  0  0  0  0
    8.3551   -0.4021   -0.3878 C   0  0  0  0  0  0  0  0  0  0  0  0
    7.2486   -0.0539    0.3022 N   0  0  0  0  0  0  0  0  0  0  0  0
   -0.8870   -0.8076   -0.4165 C   0  0  0  0  0  0  0  0  0  0  0  0
   -2.2271   -0.8358   -0.8272 C   0  0  0  0  0  0  0  0  0  0  0  0
   -3.2330   -0.2540   -0.0495 C   0  0  0  0  0  0  0  0  0  0  0  0
   -4.6585   -0.2694   -0.4215 C   0  0  0  0  0  0  0  0  0  0  0  0
   -5.5666    0.2478    0.4304 C   0  0  0  0  0  0  0  0  0  0  0  0
   -5.1730    0.8635    1.7200 C   0  0  0  0  0  0  0  0  0  0  0  0
   -6.0038    1.3112    2.5040 O   0  0  0  0  0  0  0  0  0  0  0  0
   -3.8194    0.9121    1.9977 O   0  0  0  0  0  0  0  0  0  0  0  0
   -2.8486    0.3510    1.1474 C   0  0  0  0  0  0  0  0  0  0  0  0
   -7.0509    0.2298    0.1637 C   0  0  0  0  0  0  0  0  0  0  0  0
   -7.4548   -0.7027   -0.9764 C   0  0  0  0  0  0  0  0  0  0  0  0
   -6.5100   -0.5459   -2.1557 C   0  0  0  0  0  0  0  0  0  0  0  0
   -5.0691   -0.8629   -1.7491 C   0  0  0  0  0  0  0  0  0  0  0  0
   -0.1720    1.5454    2.8389 H   0  0  0  0  0  0  0  0  0  0  0  0
   -1.1164    0.2800    3.6763 H   0  0  0  0  0  0  0  0  0  0  0  0
   -1.8660    1.8208    3.1836 H   0  0  0  0  0  0  0  0  0  0  0  0
    1.6195   -0.1512   -0.6402 H   0  0  0  0  0  0  0  0  0  0  0  0
    2.7277   -1.9130    1.6248 H   0  0  0  0  0  0  0  0  0  0  0  0
    3.1556   -2.0361   -0.0921 H   0  0  0  0  0  0  0  0  0  0  0  0
    1.5402   -2.4885    0.4668 H   0  0  0  0  0  0  0  0  0  0  0  0
    4.4709   -0.4290   -0.0300 H   0  0  0  0  0  0  0  0  0  0  0  0
    5.4802    1.2250    1.6949 H   0  0  0  0  0  0  0  0  0  0  0  0
    5.0067    2.4163    0.4819 H   0  0  0  0  0  0  0  0  0  0  0  0
    6.2810    2.5355   -1.6709 H   0  0  0  0  0  0  0  0  0  0  0  0
    8.3194    1.8344   -2.9108 H   0  0  0  0  0  0  0  0  0  0  0  0
    9.6751   -0.0744   -2.0518 H   0  0  0  0  0  0  0  0  0  0  0  0
    8.9080   -1.2433    0.0193 H   0  0  0  0  0  0  0  0  0  0  0  0
   -0.1590   -1.3132   -1.0409 H   0  0  0  0  0  0  0  0  0  0  0  0
   -2.4582   -1.3448   -1.7589 H   0  0  0  0  0  0  0  0  0  0  0  0
   -7.3719    1.2494   -0.0754 H   0  0  0  0  0  0  0  0  0  0  0  0
   -7.5988   -0.0773    1.0606 H   0  0  0  0  0  0  0  0  0  0  0  0
   -8.4834   -0.4870   -1.2824 H   0  0  0  0  0  0  0  0  0  0  0  0
   -7.4380   -1.7435   -0.6279 H   0  0  0  0  0  0  0  0  0  0  0  0
   -6.5676    0.4807   -2.5364 H   0  0  0  0  0  0  0  0  0  0  0  0
   -6.8170   -1.2069   -2.9750 H   0  0  0  0  0  0  0  0  0  0  0  0
   -4.4160   -0.5003   -2.5540 H   0  0  0  0  0  0  0  0  0  0  0  0
   -4.9480   -1.9517   -1.6944 H   0  0  0  0  0  0  0  0  0  0  0  0
  1  2  1  0
  2  3  2  0
  3  4  1  0
  4  5  1  0
  5  6  1  0
  5  7  1  0
  7  8  2  0
  7  9  1  0
  9 10  1  0
 10 11  1  0
 11 12  2  0
 12 13  1  0
 13 14  2  0
 14 15  1  0
 15 16  2  0
  3 17  1  0
 17 18  2  0
 18 19  1  0
 19 20  1  0
 20 21  2  0
 21 22  1  0
 22 23  2  0
 22 24  1  0
 24 25  1  0
 21 26  1  0
 26 27  1  0
 27 28  1  0
 28 29  1  0
 25  2  1  0
 16 11  1  0
 25 19  2  0
 29 20  1  0
  1 30  1  0
  1 31  1  0
  1 32  1  0
  5 33  1  0
  6 34  1  0
  6 35  1  0
  6 36  1  0
  9 37  1  0
 10 38  1  0
 10 39  1  0
 12 40  1  0
 13 41  1  0
 14 42  1  0
 15 43  1  0
 17 44  1  0
 18 45  1  0
 26 46  1  0
 26 47  1  0
 27 48  1  0
 27 49  1  0
 28 50  1  0
 28 51  1  0
 29 52  1  0
 29 53  1  0
M  END
$$$$
