
     RDKit          3D

 47 49  0  0  0  0  0  0  0  0999 V2000
   -7.8543    2.2554   -0.0205 C   0  0  0  0  0  0  0  0  0  0  0  0
   -7.2824    0.9717    0.1834 O   0  0  0  0  0  0  0  0  0  0  0  0
   -6.0058    0.7624   -0.2766 C   0  0  0  0  0  0  0  0  0  0  0  0
   -5.2471    1.7156   -0.9631 C   0  0  0  0  0  0  0  0  0  0  0  0
   -3.9532    1.4121   -1.3952 C   0  0  0  0  0  0  0  0  0  0  0  0
   -3.4002    0.1555   -1.1399 C   0  0  0  0  0  0  0  0  0  0  0  0
   -2.0500   -0.1883   -1.5989 C   0  0  0  0  0  0  0  0  0  0  0  0
   -0.9068    0.3675   -1.1749 C   0  0  0  0  0  0  0  0  0  0  0  0
   -0.6965    1.5965    0.0043 S   0  0  0  0  0  0  0  0  0  0  0  0
    1.0562    1.5788   -0.1508 C   0  0  0  0  0  0  0  0  0  0  0  0
    2.0361    2.5564    0.7799 S   0  0  0  0  0  0  0  0  0  0  0  0
    1.4310    0.6635   -1.1130 N   0  0  0  0  0  0  0  0  0  0  0  0
    2.8167    0.3691   -1.4928 C   0  0  0  0  0  0  0  0  0  0  0  0
    3.3979   -0.7720   -0.6662 C   0  0  0  0  0  0  0  0  0  0  0  0
    4.8625   -0.9660   -0.9915 C   0  0  0  0  0  0  0  0  0  0  0  0
    5.3566   -0.5972   -2.0515 O   0  0  0  0  0  0  0  0  0  0  0  0
    5.5575   -1.6553   -0.0335 N   0  0  0  0  0  0  0  0  0  0  0  0
    6.2625   -0.9708    0.8012 C   0  0  0  0  0  0  0  0  0  0  0  0
    7.0307   -1.5495    1.7708 N   0  0  0  0  0  0  0  0  0  0  0  0
    8.0616   -0.6928    2.3217 C   0  0  0  0  0  0  0  0  0  0  0  0
    7.4709    0.7127    2.3533 C   0  0  0  0  0  0  0  0  0  0  0  0
    6.4036    0.7823    0.8786 S   0  0  0  0  0  0  0  0  0  0  0  0
    0.4138   -0.0723   -1.6963 C   0  0  0  0  0  0  0  0  0  0  0  0
    0.5541   -0.9762   -2.5087 O   0  0  0  0  0  0  0  0  0  0  0  0
   -4.1599   -0.8067   -0.4631 C   0  0  0  0  0  0  0  0  0  0  0  0
   -5.4579   -0.5123   -0.0261 C   0  0  0  0  0  0  0  0  0  0  0  0
   -6.2680   -1.3934    0.6479 O   0  0  0  0  0  0  0  0  0  0  0  0
   -5.7500   -2.6850    0.9303 C   0  0  0  0  0  0  0  0  0  0  0  0
   -7.2730    3.0329    0.4861 H   0  0  0  0  0  0  0  0  0  0  0  0
   -7.9635    2.4737   -1.0879 H   0  0  0  0  0  0  0  0  0  0  0  0
   -8.8556    2.2494    0.4208 H   0  0  0  0  0  0  0  0  0  0  0  0
   -5.6335    2.7053   -1.1813 H   0  0  0  0  0  0  0  0  0  0  0  0
   -3.3862    2.1681   -1.9340 H   0  0  0  0  0  0  0  0  0  0  0  0
   -2.0163   -0.9876   -2.3386 H   0  0  0  0  0  0  0  0  0  0  0  0
    3.4269    1.2725   -1.3875 H   0  0  0  0  0  0  0  0  0  0  0  0
    2.8352    0.1028   -2.5571 H   0  0  0  0  0  0  0  0  0  0  0  0
    3.2926   -0.5577    0.4032 H   0  0  0  0  0  0  0  0  0  0  0  0
    2.8715   -1.7107   -0.8709 H   0  0  0  0  0  0  0  0  0  0  0  0
    7.2674   -2.5186    1.5896 H   0  0  0  0  0  0  0  0  0  0  0  0
    8.9510   -0.7261    1.6812 H   0  0  0  0  0  0  0  0  0  0  0  0
    8.3531   -1.0229    3.3233 H   0  0  0  0  0  0  0  0  0  0  0  0
    6.8440    0.8513    3.2399 H   0  0  0  0  0  0  0  0  0  0  0  0
    8.2416    1.4874    2.3336 H   0  0  0  0  0  0  0  0  0  0  0  0
   -3.7171   -1.7808   -0.2827 H   0  0  0  0  0  0  0  0  0  0  0  0
   -4.8686   -2.6248    1.5771 H   0  0  0  0  0  0  0  0  0  0  0  0
   -5.5289   -3.2323    0.0080 H   0  0  0  0  0  0  0  0  0  0  0  0
   -6.5203   -3.2436    1.4707 H   0  0  0  0  0  0  0  0  0  0  0  0
  1  2  1  0
  2  3  1  0
  3  4  2  0
  4  5  1  0
  5  6  2  0
  6  7  1  0
  7  8  2  3
  8  9  1  0
  9 10  1  0
 10 11  2  0
 10 12  1  0
 12 13  1  0
 13 14  1  0
 14 15  1  0
 15 16  2  0
 15 17  1  0
 17 18  2  3
 18 19  1  0
 19 20  1  0
 20 21  1  0
 21 22  1  0
 12 23  1  0
 23 24  2  0
  6 25  1  0
 25 26  2  0
 26 27  1  0
 27 28  1  0
 26  3  1  0
 23  8  1  0
 22 18  1  0
  1 29  1  0
  1 30  1  0
  1 31  1  0
  4 32  1  0
  5 33  1  0
  7 34  1  0
 13 35  1  0
 13 36  1  0
 14 37  1  0
 14 38  1  0
 19 39  1  0
 20 40  1  0
 20 41  1  0
 21 42  1  0
 21 43  1  0
 25 44  1  0
 28 45  1  0
 28 46  1  0
 28 47  1  0
M  END
$$$$
