
     RDKit          3D

 43 45  0  0  0  0  0  0  0  0999 V2000
    5.8479   -0.1772   -1.1842 C   0  0  0  0  0  0  0  0  0  0  0  0
    4.4289   -0.1354   -1.7297 C   0  0  0  0  0  0  0  0  0  0  0  0
    3.7597    1.2333   -1.5784 C   0  0  0  0  0  0  0  0  0  0  0  0
    3.4698    1.6515   -0.1326 C   0  0  0  0  0  0  0  0  0  0  0  0
    2.5414    0.7539    0.5553 N   0  0  0  0  0  0  0  0  0  0  0  0
    1.1286    0.8730    0.2318 C   0  0  0  0  0  0  0  0  0  0  0  0
    0.2692   -0.1883    0.8303 C   0  0  0  0  0  0  0  0  0  0  0  0
   -1.0641   -0.3774    0.4492 C   0  0  0  0  0  0  0  0  0  0  0  0
   -1.8255   -1.3512    1.0977 C   0  0  0  0  0  0  0  0  0  0  0  0
   -3.2300   -1.6362    0.7480 C   0  0  0  0  0  0  0  0  0  0  0  0
   -3.6109   -2.8056    0.7272 O   0  0  0  0  0  0  0  0  0  0  0  0
   -4.1982   -0.5687    0.3931 C   0  0  0  0  0  0  0  0  0  0  0  0
   -4.0801    0.7248    0.9130 C   0  0  0  0  0  0  0  0  0  0  0  0
   -5.0055    1.6972    0.5440 C   0  0  0  0  0  0  0  0  0  0  0  0
   -4.8803    2.9366    1.0352 F   0  0  0  0  0  0  0  0  0  0  0  0
   -6.0542    1.4081   -0.3220 C   0  0  0  0  0  0  0  0  0  0  0  0
   -6.1939    0.1149   -0.8212 C   0  0  0  0  0  0  0  0  0  0  0  0
   -5.2775   -0.8698   -0.4538 C   0  0  0  0  0  0  0  0  0  0  0  0
   -5.4960   -2.1219   -0.9620 O   0  0  0  0  0  0  0  0  0  0  0  0
   -1.2124   -2.1129    2.0826 C   0  0  0  0  0  0  0  0  0  0  0  0
    0.0707   -1.9339    2.4797 N   0  0  0  0  0  0  0  0  0  0  0  0
    0.7796   -0.9819    1.8410 C   0  0  0  0  0  0  0  0  0  0  0  0
    2.0904   -0.8078    2.2301 N   0  0  0  0  0  0  0  0  0  0  0  0
    2.9918    0.0080    1.6257 C   0  0  0  0  0  0  0  0  0  0  0  0
    4.1519    0.0293    2.0316 O   0  0  0  0  0  0  0  0  0  0  0  0
    5.8707   -0.0229   -0.1025 H   0  0  0  0  0  0  0  0  0  0  0  0
    6.3003   -1.1527   -1.3899 H   0  0  0  0  0  0  0  0  0  0  0  0
    6.4714    0.5897   -1.6547 H   0  0  0  0  0  0  0  0  0  0  0  0
    3.8255   -0.9132   -1.2487 H   0  0  0  0  0  0  0  0  0  0  0  0
    4.4647   -0.3844   -2.7973 H   0  0  0  0  0  0  0  0  0  0  0  0
    2.8259    1.2239   -2.1521 H   0  0  0  0  0  0  0  0  0  0  0  0
    4.3955    1.9973   -2.0426 H   0  0  0  0  0  0  0  0  0  0  0  0
    4.4097    1.7335    0.4227 H   0  0  0  0  0  0  0  0  0  0  0  0
    3.0233    2.6532   -0.1250 H   0  0  0  0  0  0  0  0  0  0  0  0
    0.7916    1.8530    0.5896 H   0  0  0  0  0  0  0  0  0  0  0  0
    1.0243    0.8428   -0.8576 H   0  0  0  0  0  0  0  0  0  0  0  0
   -1.4863    0.2212   -0.3538 H   0  0  0  0  0  0  0  0  0  0  0  0
   -3.2983    1.0000    1.6132 H   0  0  0  0  0  0  0  0  0  0  0  0
   -6.7622    2.1857   -0.5925 H   0  0  0  0  0  0  0  0  0  0  0  0
   -7.0184   -0.1315   -1.4856 H   0  0  0  0  0  0  0  0  0  0  0  0
   -4.9235   -2.7541   -0.4710 H   0  0  0  0  0  0  0  0  0  0  0  0
   -1.7470   -2.9055    2.6012 H   0  0  0  0  0  0  0  0  0  0  0  0
    2.4315   -1.3985    2.9736 H   0  0  0  0  0  0  0  0  0  0  0  0
  1  2  1  0
  2  3  1  0
  3  4  1  0
  4  5  1  0
  5  6  1  0
  6  7  1  0
  7  8  2  0
  8  9  1  0
  9 10  1  0
 10 11  2  0
 10 12  1  0
 12 13  2  0
 13 14  1  0
 14 15  1  0
 14 16  2  0
 16 17  1  0
 17 18  2  0
 18 19  1  0
  9 20  2  0
 20 21  1  0
 21 22  2  0
 22 23  1  0
 23 24  1  0
 24 25  2  0
 24  5  1  0
 22  7  1  0
 18 12  1  0
  1 26  1  0
  1 27  1  0
  1 28  1  0
  2 29  1  0
  2 30  1  0
  3 31  1  0
  3 32  1  0
  4 33  1  0
  4 34  1  0
  6 35  1  0
  6 36  1  0
  8 37  1  0
 13 38  1  0
 16 39  1  0
 17 40  1  0
 19 41  1  0
 20 42  1  0
 23 43  1  0
M  END
$$$$
