
     RDKit          3D

 45 47  0  0  0  0  0  0  0  0999 V2000
    3.1040   -1.9223   -1.7279 C   0  0  0  0  0  0  0  0  0  0  0  0
    3.5435   -0.9116   -0.7112 C   0  0  0  0  0  0  0  0  0  0  0  0
    4.0615   -1.3310    0.5123 C   0  0  0  0  0  0  0  0  0  0  0  0
    4.4566   -0.3707    1.4402 C   0  0  0  0  0  0  0  0  0  0  0  0
    4.3178    0.9751    1.1252 C   0  0  0  0  0  0  0  0  0  0  0  0
    3.7890    1.2929   -0.1118 C   0  0  0  0  0  0  0  0  0  0  0  0
    3.5540    2.6142   -0.5329 N   0  0  0  0  0  0  0  0  0  0  0  0
    2.3290    3.4454    0.2699 S   0  0  0  0  0  6  0  0  0  0  0  0
    2.0606    4.6384   -0.5066 O   0  0  0  0  0  0  0  0  0  0  0  0
    2.6611    3.5369    1.6771 O   0  0  0  0  0  0  0  0  0  0  0  0
    0.9153    2.3782    0.1031 C   0  0  0  0  0  0  0  0  0  0  0  0
    0.1925    2.3807   -1.0914 C   0  0  0  0  0  0  0  0  0  0  0  0
   -0.9159    1.5421   -1.2255 C   0  0  0  0  0  0  0  0  0  0  0  0
   -1.3167    0.7058   -0.1704 C   0  0  0  0  0  0  0  0  0  0  0  0
   -2.5200   -0.2051   -0.3490 C   0  0  0  0  0  0  0  0  0  0  0  0
   -2.1284   -1.6902   -0.2516 C   0  0  0  0  0  0  0  0  0  0  0  0
   -3.3403   -2.6006   -0.4414 C   0  0  0  0  0  0  0  0  0  0  0  0
   -4.4618   -2.2563    0.5345 C   0  0  0  0  0  0  0  0  0  0  0  0
   -4.8547   -0.7845    0.4454 C   0  0  0  0  0  0  0  0  0  0  0  0
   -3.6491    0.1336    0.6397 C   0  0  0  0  0  0  0  0  0  0  0  0
   -0.5879    0.7352    1.0300 C   0  0  0  0  0  0  0  0  0  0  0  0
    0.5208    1.5715    1.1722 C   0  0  0  0  0  0  0  0  0  0  0  0
    3.4083    0.3957   -1.0371 N   0  0  0  0  0  0  0  0  0  0  0  0
    2.3119   -2.5548   -1.3150 H   0  0  0  0  0  0  0  0  0  0  0  0
    2.7131   -1.4288   -2.6236 H   0  0  0  0  0  0  0  0  0  0  0  0
    3.9490   -2.5507   -2.0258 H   0  0  0  0  0  0  0  0  0  0  0  0
    4.1585   -2.3877    0.7424 H   0  0  0  0  0  0  0  0  0  0  0  0
    4.8667   -0.6691    2.4010 H   0  0  0  0  0  0  0  0  0  0  0  0
    4.6154    1.7469    1.8260 H   0  0  0  0  0  0  0  0  0  0  0  0
    3.4130    2.6468   -1.5403 H   0  0  0  0  0  0  0  0  0  0  0  0
    0.4831    3.0250   -1.9177 H   0  0  0  0  0  0  0  0  0  0  0  0
   -1.4672    1.5469   -2.1639 H   0  0  0  0  0  0  0  0  0  0  0  0
   -2.9200   -0.0440   -1.3605 H   0  0  0  0  0  0  0  0  0  0  0  0
   -1.3720   -1.9305   -1.0092 H   0  0  0  0  0  0  0  0  0  0  0  0
   -1.6732   -1.9069    0.7232 H   0  0  0  0  0  0  0  0  0  0  0  0
   -3.7094   -2.5072   -1.4701 H   0  0  0  0  0  0  0  0  0  0  0  0
   -3.0404   -3.6457   -0.3039 H   0  0  0  0  0  0  0  0  0  0  0  0
   -5.3357   -2.8840    0.3274 H   0  0  0  0  0  0  0  0  0  0  0  0
   -4.1382   -2.4860    1.5573 H   0  0  0  0  0  0  0  0  0  0  0  0
   -5.3105   -0.5865   -0.5325 H   0  0  0  0  0  0  0  0  0  0  0  0
   -5.6141   -0.5596    1.2028 H   0  0  0  0  0  0  0  0  0  0  0  0
   -3.9626    1.1769    0.5096 H   0  0  0  0  0  0  0  0  0  0  0  0
   -3.2980    0.0401    1.6752 H   0  0  0  0  0  0  0  0  0  0  0  0
   -0.8784    0.1049    1.8679 H   0  0  0  0  0  0  0  0  0  0  0  0
    1.0698    1.5808    2.1109 H   0  0  0  0  0  0  0  0  0  0  0  0
  1  2  1  0
  2  3  2  0
  3  4  1  0
  4  5  2  0
  5  6  1  0
  6  7  1  0
  7  8  1  0
  8  9  2  0
  8 10  2  0
  8 11  1  0
 11 12  2  0
 12 13  1  0
 13 14  2  0
 14 15  1  0
 15 16  1  0
 16 17  1  0
 17 18  1  0
 18 19  1  0
 19 20  1  0
 14 21  1  0
 21 22  2  0
  6 23  2  0
 23  2  1  0
 22 11  1  0
 20 15  1  0
  1 24  1  0
  1 25  1  0
  1 26  1  0
  3 27  1  0
  4 28  1  0
  5 29  1  0
  7 30  1  0
 12 31  1  0
 13 32  1  0
 15 33  1  0
 16 34  1  0
 16 35  1  0
 17 36  1  0
 17 37  1  0
 18 38  1  0
 18 39  1  0
 19 40  1  0
 19 41  1  0
 20 42  1  0
 20 43  1  0
 21 44  1  0
 22 45  1  0
M  END
$$$$
