
     RDKit          3D

 43 45  0  0  0  0  0  0  0  0999 V2000
    6.0696   -0.8077   -1.9279 C   0  0  0  0  0  0  0  0  0  0  0  0
    6.4208   -0.4751   -0.5895 O   0  0  0  0  0  0  0  0  0  0  0  0
    5.4410    0.0940    0.1789 C   0  0  0  0  0  0  0  0  0  0  0  0
    5.8781    0.5797    1.4121 C   0  0  0  0  0  0  0  0  0  0  0  0
    4.9777    1.1653    2.2984 C   0  0  0  0  0  0  0  0  0  0  0  0
    3.6320    1.2739    1.9479 C   0  0  0  0  0  0  0  0  0  0  0  0
    3.1796    0.8113    0.7058 C   0  0  0  0  0  0  0  0  0  0  0  0
    1.7956    0.9249    0.4434 N   0  0  0  0  0  0  0  0  0  0  0  0
    1.0903    0.9478   -0.7537 C   0  0  0  0  0  0  0  0  0  0  0  0
    1.7399    1.3648   -2.2485 S   0  0  0  0  0  0  0  0  0  0  0  0
   -0.2726    0.6432   -0.5677 N   0  0  0  0  0  0  0  0  0  0  0  0
   -0.7710   -0.1054    0.6034 C   0  0  0  0  0  0  0  0  0  0  0  0
   -1.9119   -1.0881    0.2680 C   0  0  0  0  0  0  0  0  0  0  0  0
   -3.0170   -0.4384   -0.4538 N   0  0  0  0  0  0  0  0  0  0  0  0
   -4.3143   -0.6063    0.0228 C   0  0  0  0  0  0  0  0  0  0  0  0
   -4.7642   -1.8577    0.4496 C   0  0  0  0  0  0  0  0  0  0  0  0
   -6.0720   -2.0158    0.9086 C   0  0  0  0  0  0  0  0  0  0  0  0
   -6.9186   -0.9202    0.9262 C   0  0  0  0  0  0  0  0  0  0  0  0
   -6.4161    0.2840    0.4745 C   0  0  0  0  0  0  0  0  0  0  0  0
   -5.1515    0.4550    0.0268 N   0  0  0  0  0  0  0  0  0  0  0  0
   -2.7273    0.8678   -1.0659 C   0  0  0  0  0  0  0  0  0  0  0  0
   -1.2893    0.9005   -1.6118 C   0  0  0  0  0  0  0  0  0  0  0  0
    4.0884    0.1967   -0.1622 C   0  0  0  0  0  0  0  0  0  0  0  0
    6.9771   -1.1481   -2.4358 H   0  0  0  0  0  0  0  0  0  0  0  0
    5.6921    0.0655   -2.4705 H   0  0  0  0  0  0  0  0  0  0  0  0
    5.3483   -1.6311   -1.9498 H   0  0  0  0  0  0  0  0  0  0  0  0
    6.9278    0.4958    1.6826 H   0  0  0  0  0  0  0  0  0  0  0  0
    5.3252    1.5375    3.2583 H   0  0  0  0  0  0  0  0  0  0  0  0
    2.9477    1.7380    2.6532 H   0  0  0  0  0  0  0  0  0  0  0  0
    1.2427    1.2509    1.2251 H   0  0  0  0  0  0  0  0  0  0  0  0
    0.0447   -0.6649    1.0727 H   0  0  0  0  0  0  0  0  0  0  0  0
   -1.1247    0.6422    1.3238 H   0  0  0  0  0  0  0  0  0  0  0  0
   -1.5197   -1.8902   -0.3687 H   0  0  0  0  0  0  0  0  0  0  0  0
   -2.2390   -1.5465    1.2089 H   0  0  0  0  0  0  0  0  0  0  0  0
   -4.1134   -2.7240    0.4024 H   0  0  0  0  0  0  0  0  0  0  0  0
   -6.4226   -2.9898    1.2363 H   0  0  0  0  0  0  0  0  0  0  0  0
   -7.9424   -1.0028    1.2712 H   0  0  0  0  0  0  0  0  0  0  0  0
   -7.0346    1.1765    0.4554 H   0  0  0  0  0  0  0  0  0  0  0  0
   -2.8461    1.6706   -0.3261 H   0  0  0  0  0  0  0  0  0  0  0  0
   -3.4172    1.0584   -1.8972 H   0  0  0  0  0  0  0  0  0  0  0  0
   -1.1657    0.1287   -2.3816 H   0  0  0  0  0  0  0  0  0  0  0  0
   -1.1003    1.8776   -2.0685 H   0  0  0  0  0  0  0  0  0  0  0  0
    3.7332   -0.2388   -1.0866 H   0  0  0  0  0  0  0  0  0  0  0  0
  1  2  1  0
  2  3  1  0
  3  4  2  0
  4  5  1  0
  5  6  2  0
  6  7  1  0
  7  8  1  0
  8  9  1  0
  9 10  2  0
  9 11  1  0
 11 12  1  0
 12 13  1  0
 13 14  1  0
 14 15  1  0
 15 16  2  0
 16 17  1  0
 17 18  2  0
 18 19  1  0
 19 20  2  0
 14 21  1  0
 21 22  1  0
  7 23  2  0
 23  3  1  0
 22 11  1  0
 20 15  1  0
  1 24  1  0
  1 25  1  0
  1 26  1  0
  4 27  1  0
  5 28  1  0
  6 29  1  0
  8 30  1  0
 12 31  1  0
 12 32  1  0
 13 33  1  0
 13 34  1  0
 16 35  1  0
 17 36  1  0
 18 37  1  0
 19 38  1  0
 21 39  1  0
 21 40  1  0
 22 41  1  0
 22 42  1  0
 23 43  1  0
M  END
$$$$
