
     RDKit          3D

 45 47  0  0  0  0  0  0  0  0999 V2000
    7.0106    1.4136   -0.1469 C   0  0  0  0  0  0  0  0  0  0  0  0
    6.3107    0.2541    0.2809 O   0  0  0  0  0  0  0  0  0  0  0  0
    4.9486    0.2365    0.1115 C   0  0  0  0  0  0  0  0  0  0  0  0
    4.2027    1.2958   -0.4108 C   0  0  0  0  0  0  0  0  0  0  0  0
    2.8141    1.1891   -0.5463 C   0  0  0  0  0  0  0  0  0  0  0  0
    2.1529    0.0226   -0.1682 C   0  0  0  0  0  0  0  0  0  0  0  0
    0.7555   -0.1438   -0.2596 N   0  0  0  0  0  0  0  0  0  0  0  0
   -0.1382    0.6461   -0.9510 C   0  0  0  0  0  0  0  0  0  0  0  0
    0.1740    1.5287   -1.7449 O   0  0  0  0  0  0  0  0  0  0  0  0
   -1.4811    0.3130   -0.7010 N   0  0  0  0  0  0  0  0  0  0  0  0
   -1.9291   -0.0624    0.6443 C   0  0  0  0  0  0  0  0  0  0  0  0
   -3.2467   -0.8227    0.6088 C   0  0  0  0  0  0  0  0  0  0  0  0
   -4.3098   -0.0458   -0.1629 C   0  0  0  0  0  0  0  0  0  0  0  0
   -3.8034    0.3162   -1.5562 C   0  0  0  0  0  0  0  0  0  0  0  0
   -2.4719    1.0498   -1.4856 C   0  0  0  0  0  0  0  0  0  0  0  0
   -5.4823   -0.8715   -0.2822 O   0  0  0  0  0  0  0  0  0  0  0  0
   -6.5695   -0.0131    0.0601 C   0  0  0  0  0  0  0  0  0  0  0  0
   -5.9606    0.9240    1.0651 C   0  0  0  0  0  0  0  0  0  0  0  0
   -4.6502    1.1571    0.5490 O   0  0  0  0  0  0  0  0  0  0  0  0
    2.8967   -1.0381    0.3669 C   0  0  0  0  0  0  0  0  0  0  0  0
    4.2884   -0.9431    0.5056 C   0  0  0  0  0  0  0  0  0  0  0  0
    5.0874   -1.9370    1.0170 O   0  0  0  0  0  0  0  0  0  0  0  0
    4.4747   -3.1711    1.3584 C   0  0  0  0  0  0  0  0  0  0  0  0
    6.7051    2.2936    0.4285 H   0  0  0  0  0  0  0  0  0  0  0  0
    6.8841    1.5787   -1.2220 H   0  0  0  0  0  0  0  0  0  0  0  0
    8.0761    1.2489    0.0401 H   0  0  0  0  0  0  0  0  0  0  0  0
    4.6662    2.2258   -0.7221 H   0  0  0  0  0  0  0  0  0  0  0  0
    2.2741    2.0433   -0.9447 H   0  0  0  0  0  0  0  0  0  0  0  0
    0.3942   -1.0477    0.0015 H   0  0  0  0  0  0  0  0  0  0  0  0
   -2.0258    0.8636    1.2251 H   0  0  0  0  0  0  0  0  0  0  0  0
   -1.1819   -0.6710    1.1600 H   0  0  0  0  0  0  0  0  0  0  0  0
   -3.5838   -1.0115    1.6352 H   0  0  0  0  0  0  0  0  0  0  0  0
   -3.0976   -1.8058    0.1437 H   0  0  0  0  0  0  0  0  0  0  0  0
   -3.6941   -0.5970   -2.1554 H   0  0  0  0  0  0  0  0  0  0  0  0
   -4.5352    0.9449   -2.0778 H   0  0  0  0  0  0  0  0  0  0  0  0
   -2.0967    1.2019   -2.5043 H   0  0  0  0  0  0  0  0  0  0  0  0
   -2.5901    2.0419   -1.0323 H   0  0  0  0  0  0  0  0  0  0  0  0
   -7.4088   -0.5898    0.4563 H   0  0  0  0  0  0  0  0  0  0  0  0
   -6.8868    0.5151   -0.8454 H   0  0  0  0  0  0  0  0  0  0  0  0
   -6.5079    1.8638    1.1710 H   0  0  0  0  0  0  0  0  0  0  0  0
   -5.8588    0.4506    2.0476 H   0  0  0  0  0  0  0  0  0  0  0  0
    2.3749   -1.9375    0.6723 H   0  0  0  0  0  0  0  0  0  0  0  0
    5.2593   -3.8488    1.7086 H   0  0  0  0  0  0  0  0  0  0  0  0
    4.0015   -3.6338    0.4860 H   0  0  0  0  0  0  0  0  0  0  0  0
    3.7584   -3.0422    2.1763 H   0  0  0  0  0  0  0  0  0  0  0  0
  1  2  1  0
  2  3  1  0
  3  4  2  0
  4  5  1  0
  5  6  2  0
  6  7  1  0
  7  8  1  0
  8  9  2  0
  8 10  1  0
 10 11  1  0
 11 12  1  0
 12 13  1  0
 13 14  1  0
 14 15  1  0
 13 16  1  0
 16 17  1  0
 17 18  1  0
 18 19  1  0
  6 20  1  0
 20 21  2  0
 21 22  1  0
 22 23  1  0
 21  3  1  0
 15 10  1  0
 19 13  1  0
  1 24  1  0
  1 25  1  0
  1 26  1  0
  4 27  1  0
  5 28  1  0
  7 29  1  0
 11 30  1  0
 11 31  1  0
 12 32  1  0
 12 33  1  0
 14 34  1  0
 14 35  1  0
 15 36  1  0
 15 37  1  0
 17 38  1  0
 17 39  1  0
 18 40  1  0
 18 41  1  0
 20 42  1  0
 23 43  1  0
 23 44  1  0
 23 45  1  0
M  END
$$$$
