
     RDKit          3D

 55 58  0  0  0  0  0  0  0  0999 V2000
    3.9343    0.0494    3.1030 C   0  0  0  0  0  0  0  0  0  0  0  0
    3.7386    0.3490    1.7270 O   0  0  0  0  0  0  0  0  0  0  0  0
    4.8126    0.8295    1.0245 C   0  0  0  0  0  0  0  0  0  0  0  0
    6.0634    1.1123    1.5871 C   0  0  0  0  0  0  0  0  0  0  0  0
    7.1055    1.6024    0.7959 C   0  0  0  0  0  0  0  0  0  0  0  0
    6.9080    1.8186   -0.5631 C   0  0  0  0  0  0  0  0  0  0  0  0
    5.6653    1.5477   -1.1324 C   0  0  0  0  0  0  0  0  0  0  0  0
    4.6071    1.0468   -0.3512 C   0  0  0  0  0  0  0  0  0  0  0  0
    3.2661    0.8109   -1.0092 C   0  0  0  0  0  0  0  0  0  0  0  0
    3.3742   -0.0730   -2.1686 N   0  0  0  0  0  0  0  0  0  0  0  0
    2.2238    0.0246   -3.3796 S   0  0  0  0  0  6  0  0  0  0  0  0
    2.2301    1.3776   -3.8926 O   0  0  0  0  0  0  0  0  0  0  0  0
    2.4314   -1.1215   -4.2377 O   0  0  0  0  0  0  0  0  0  0  0  0
    0.7021   -0.2203   -2.4950 C   0  0  0  0  0  0  0  0  0  0  0  0
    0.2993   -1.5281   -2.1636 C   0  0  0  0  0  0  0  0  0  0  0  0
   -0.8735   -1.7372   -1.4268 C   0  0  0  0  0  0  0  0  0  0  0  0
   -1.6283   -0.6340   -1.0510 C   0  0  0  0  0  0  0  0  0  0  0  0
   -1.2281    0.6596   -1.4078 C   0  0  0  0  0  0  0  0  0  0  0  0
   -0.0690    0.8885   -2.1338 C   0  0  0  0  0  0  0  0  0  0  0  0
   -2.1379    1.6901   -0.8149 C   0  0  0  0  0  0  0  0  0  0  0  0
   -3.3209    0.8196   -0.3392 C   0  0  0  0  0  0  0  0  0  0  0  0
   -4.4810    0.9258   -1.3393 C   0  0  0  0  0  0  0  0  0  0  0  0
   -2.8075   -0.5734   -0.2753 N   0  0  0  0  0  0  0  0  0  0  0  0
   -3.3766   -1.6467    0.4093 C   0  0  0  0  0  0  0  0  0  0  0  0
   -3.0239   -2.8207    0.2247 O   0  0  0  0  0  0  0  0  0  0  0  0
   -4.4257   -1.2875    1.4997 C   0  0  0  0  0  0  0  0  0  0  0  0
   -5.9186   -1.1438    1.1097 C   0  0  0  0  0  0  0  0  0  0  0  0
   -6.2700   -1.7523    2.4806 C   0  0  0  0  0  0  0  0  0  0  0  0
   -4.9003   -2.4461    2.4339 C   0  0  0  0  0  0  0  0  0  0  0  0
    4.7265   -0.6962    3.2419 H   0  0  0  0  0  0  0  0  0  0  0  0
    4.1408    0.9603    3.6754 H   0  0  0  0  0  0  0  0  0  0  0  0
    3.0023   -0.3814    3.4844 H   0  0  0  0  0  0  0  0  0  0  0  0
    6.2625    0.9674    2.6437 H   0  0  0  0  0  0  0  0  0  0  0  0
    8.0717    1.8187    1.2443 H   0  0  0  0  0  0  0  0  0  0  0  0
    7.7172    2.2013   -1.1797 H   0  0  0  0  0  0  0  0  0  0  0  0
    5.5166    1.7298   -2.1970 H   0  0  0  0  0  0  0  0  0  0  0  0
    2.5603    0.3545   -0.3111 H   0  0  0  0  0  0  0  0  0  0  0  0
    2.8624    1.7883   -1.2938 H   0  0  0  0  0  0  0  0  0  0  0  0
    3.7540   -1.0063   -2.0131 H   0  0  0  0  0  0  0  0  0  0  0  0
    0.8968   -2.3875   -2.4688 H   0  0  0  0  0  0  0  0  0  0  0  0
   -1.1702   -2.7531   -1.1701 H   0  0  0  0  0  0  0  0  0  0  0  0
    0.2379    1.8972   -2.3889 H   0  0  0  0  0  0  0  0  0  0  0  0
   -2.4305    2.4593   -1.5372 H   0  0  0  0  0  0  0  0  0  0  0  0
   -1.6402    2.1615    0.0411 H   0  0  0  0  0  0  0  0  0  0  0  0
   -3.6642    1.1488    0.6468 H   0  0  0  0  0  0  0  0  0  0  0  0
   -4.1677    0.6485   -2.3554 H   0  0  0  0  0  0  0  0  0  0  0  0
   -5.3043    0.2592   -1.0765 H   0  0  0  0  0  0  0  0  0  0  0  0
   -4.8687    1.9510   -1.3701 H   0  0  0  0  0  0  0  0  0  0  0  0
   -4.0798   -0.4436    2.1133 H   0  0  0  0  0  0  0  0  0  0  0  0
   -6.2804   -0.1220    0.9611 H   0  0  0  0  0  0  0  0  0  0  0  0
   -6.2239   -1.7614    0.2564 H   0  0  0  0  0  0  0  0  0  0  0  0
   -6.3605   -1.0072    3.2795 H   0  0  0  0  0  0  0  0  0  0  0  0
   -7.1513   -2.4001    2.4926 H   0  0  0  0  0  0  0  0  0  0  0  0
   -4.9279   -3.4316    1.9587 H   0  0  0  0  0  0  0  0  0  0  0  0
   -4.3797   -2.5231    3.3887 H   0  0  0  0  0  0  0  0  0  0  0  0
  1  2  1  0
  2  3  1  0
  3  4  2  0
  4  5  1  0
  5  6  2  0
  6  7  1  0
  7  8  2  0
  8  9  1  0
  9 10  1  0
 10 11  1  0
 11 12  2  0
 11 13  2  0
 11 14  1  0
 14 15  2  0
 15 16  1  0
 16 17  2  0
 17 18  1  0
 18 19  2  0
 18 20  1  0
 20 21  1  0
 21 22  1  0
 21 23  1  0
 23 24  1  0
 24 25  2  0
 24 26  1  0
 26 27  1  0
 27 28  1  0
 28 29  1  0
  8  3  1  0
 19 14  1  0
 29 26  1  0
 23 17  1  0
  1 30  1  0
  1 31  1  0
  1 32  1  0
  4 33  1  0
  5 34  1  0
  6 35  1  0
  7 36  1  0
  9 37  1  0
  9 38  1  0
 10 39  1  0
 15 40  1  0
 16 41  1  0
 19 42  1  0
 20 43  1  0
 20 44  1  0
 21 45  1  0
 22 46  1  0
 22 47  1  0
 22 48  1  0
 26 49  1  0
 27 50  1  0
 27 51  1  0
 28 52  1  0
 28 53  1  0
 29 54  1  0
 29 55  1  0
M  END
$$$$
