
     RDKit          3D

 41 43  0  0  0  0  0  0  0  0999 V2000
   -4.3309   -2.0734    3.0439 C   0  0  0  0  0  0  0  0  0  0  0  0
   -3.5055   -2.0871    1.7666 C   0  0  0  0  0  0  0  0  0  0  0  0
   -2.6662   -0.8217    1.5656 C   0  0  0  0  0  0  0  0  0  0  0  0
   -1.5803   -0.6536    2.6290 C   0  0  0  0  0  0  0  0  0  0  0  0
   -0.5434    0.8031    2.2991 S   0  0  0  0  0  0  0  0  0  0  0  0
    0.3977    0.2610    0.9414 C   0  0  0  0  0  0  0  0  0  0  0  0
    0.6373   -1.0033    0.7734 N   0  0  0  0  0  0  0  0  0  0  0  0
    1.2937   -1.0786   -0.4337 C   0  0  0  0  0  0  0  0  0  0  0  0
    1.7165   -2.2471   -0.9382 C   0  0  0  0  0  0  0  0  0  0  0  0
    2.3909   -2.5297   -2.1666 C   0  0  0  0  0  0  0  0  0  0  0  0
    2.1067   -1.9820   -3.4528 C   0  0  0  0  0  0  0  0  0  0  0  0
    2.9295   -2.4920   -4.4343 C   0  0  0  0  0  0  0  0  0  0  0  0
    4.0235   -3.6508   -3.8173 S   0  0  0  0  0  0  0  0  0  0  0  0
    3.3988   -3.4710   -2.2333 C   0  0  0  0  0  0  0  0  0  0  0  0
    1.4422    0.3013   -0.9951 C   0  0  0  0  0  0  0  0  0  0  0  0
    1.9959    0.6046   -2.0360 O   0  0  0  0  0  0  0  0  0  0  0  0
    0.8596    1.1019   -0.0346 N   0  0  0  0  0  0  0  0  0  0  0  0
    0.8294    2.5220   -0.1213 C   0  0  0  0  0  0  0  0  0  0  0  0
    0.7389    3.1535   -1.3735 C   0  0  0  0  0  0  0  0  0  0  0  0
    0.7113    4.5477   -1.4875 C   0  0  0  0  0  0  0  0  0  0  0  0
    0.7873    5.3415   -0.3494 C   0  0  0  0  0  0  0  0  0  0  0  0
    0.9013    4.7403    0.8989 C   0  0  0  0  0  0  0  0  0  0  0  0
    0.9280    3.3447    1.0098 C   0  0  0  0  0  0  0  0  0  0  0  0
   -3.6944   -2.0936    3.9333 H   0  0  0  0  0  0  0  0  0  0  0  0
   -4.9792   -2.9548    3.0813 H   0  0  0  0  0  0  0  0  0  0  0  0
   -4.9663   -1.1834    3.0919 H   0  0  0  0  0  0  0  0  0  0  0  0
   -2.8556   -2.9700    1.7614 H   0  0  0  0  0  0  0  0  0  0  0  0
   -4.1867   -2.1904    0.9135 H   0  0  0  0  0  0  0  0  0  0  0  0
   -3.3282    0.0535    1.5624 H   0  0  0  0  0  0  0  0  0  0  0  0
   -2.2140   -0.8811    0.5682 H   0  0  0  0  0  0  0  0  0  0  0  0
   -2.0415   -0.4905    3.6081 H   0  0  0  0  0  0  0  0  0  0  0  0
   -0.9612   -1.5523    2.7153 H   0  0  0  0  0  0  0  0  0  0  0  0
    1.5351   -3.1173   -0.3070 H   0  0  0  0  0  0  0  0  0  0  0  0
    1.3429   -1.2437   -3.6644 H   0  0  0  0  0  0  0  0  0  0  0  0
    2.9371   -2.2406   -5.4859 H   0  0  0  0  0  0  0  0  0  0  0  0
    3.8162   -4.0628   -1.4298 H   0  0  0  0  0  0  0  0  0  0  0  0
    0.6630    2.5744   -2.2915 H   0  0  0  0  0  0  0  0  0  0  0  0
    0.6319    5.0081   -2.4693 H   0  0  0  0  0  0  0  0  0  0  0  0
    0.7700    6.4248   -0.4359 H   0  0  0  0  0  0  0  0  0  0  0  0
    0.9848    5.3552    1.7919 H   0  0  0  0  0  0  0  0  0  0  0  0
    1.0838    2.9336    2.0024 H   0  0  0  0  0  0  0  0  0  0  0  0
  1  2  1  0
  2  3  1  0
  3  4  1  0
  4  5  1  0
  5  6  1  0
  6  7  2  0
  7  8  1  0
  8  9  2  3
  9 10  1  0
 10 11  1  0
 11 12  2  0
 12 13  1  0
 13 14  1  0
  8 15  1  0
 15 16  2  0
 15 17  1  0
 17 18  1  0
 18 19  2  0
 19 20  1  0
 20 21  2  0
 21 22  1  0
 22 23  2  0
 17  6  1  0
 23 18  1  0
 14 10  2  0
  1 24  1  0
  1 25  1  0
  1 26  1  0
  2 27  1  0
  2 28  1  0
  3 29  1  0
  3 30  1  0
  4 31  1  0
  4 32  1  0
  9 33  1  0
 11 34  1  0
 12 35  1  0
 14 36  1  0
 19 37  1  0
 20 38  1  0
 21 39  1  0
 22 40  1  0
 23 41  1  0
M  END
$$$$
