
     RDKit          3D

 38 39  0  0  0  0  0  0  0  0999 V2000
   -2.2986   -0.0176   -0.6974 O   0  0  0  0  0  0  0  0  0  0  0  0
   -2.7571    0.4803    0.3275 C   0  0  0  0  0  0  0  0  0  0  0  0
   -1.9737    1.5253    1.1333 C   0  0  0  0  0  0  0  0  0  0  0  0
   -0.5710    1.4950    0.8811 O   0  0  0  0  0  0  0  0  0  0  0  0
    0.0548    0.4270    1.4316 C   0  0  0  0  0  0  0  0  0  0  0  0
   -0.4634   -0.4031    2.1642 O   0  0  0  0  0  0  0  0  0  0  0  0
    1.4850    0.3693    1.0678 C   0  0  0  0  0  0  0  0  0  0  0  0
    2.0922    1.2383    0.2443 C   0  0  0  0  0  0  0  0  0  0  0  0
    3.5178    1.1698   -0.1036 C   0  0  0  0  0  0  0  0  0  0  0  0
    4.2350    2.3631   -0.2506 C   0  0  0  0  0  0  0  0  0  0  0  0
    5.5840    2.3440   -0.6093 C   0  0  0  0  0  0  0  0  0  0  0  0
    6.2295    1.1293   -0.8347 C   0  0  0  0  0  0  0  0  0  0  0  0
    5.5316   -0.0796   -0.7027 C   0  0  0  0  0  0  0  0  0  0  0  0
    6.2149   -1.3957   -0.9796 C   0  0  0  0  0  0  0  0  0  0  0  0
    6.0729   -1.7909   -2.2744 F   0  0  0  0  0  0  0  0  0  0  0  0
    7.5564   -1.3633   -0.7430 F   0  0  0  0  0  0  0  0  0  0  0  0
    5.7302   -2.4178   -0.2202 F   0  0  0  0  0  0  0  0  0  0  0  0
    4.1709   -0.0461   -0.3487 C   0  0  0  0  0  0  0  0  0  0  0  0
   -3.9951    0.2157    0.8703 N   0  0  0  0  0  0  0  0  0  0  0  0
   -4.9700   -0.6676    0.4100 C   0  0  0  0  0  0  0  0  0  0  0  0
   -4.8441   -1.4566   -0.7267 C   0  0  0  0  0  0  0  0  0  0  0  0
   -5.8962   -2.3041   -1.0832 C   0  0  0  0  0  0  0  0  0  0  0  0
   -7.0377   -2.3372   -0.2962 C   0  0  0  0  0  0  0  0  0  0  0  0
   -8.3528   -3.3621   -0.6963 Cl  0  0  0  0  0  0  0  0  0  0  0  0
   -7.0822   -1.5188    0.8190 C   0  0  0  0  0  0  0  0  0  0  0  0
   -6.0760   -0.6859    1.1870 N   0  0  0  0  0  0  0  0  0  0  0  0
   -2.1720    1.4251    2.2073 H   0  0  0  0  0  0  0  0  0  0  0  0
   -2.3375    2.5117    0.8253 H   0  0  0  0  0  0  0  0  0  0  0  0
    2.0186   -0.4513    1.5349 H   0  0  0  0  0  0  0  0  0  0  0  0
    1.5409    2.0643   -0.1998 H   0  0  0  0  0  0  0  0  0  0  0  0
    3.7501    3.3225   -0.0811 H   0  0  0  0  0  0  0  0  0  0  0  0
    6.1299    3.2785   -0.7160 H   0  0  0  0  0  0  0  0  0  0  0  0
    7.2811    1.1281   -1.1188 H   0  0  0  0  0  0  0  0  0  0  0  0
    3.6221   -0.9849   -0.2779 H   0  0  0  0  0  0  0  0  0  0  0  0
   -4.2740    0.6684    1.7306 H   0  0  0  0  0  0  0  0  0  0  0  0
   -3.9551   -1.4409   -1.3461 H   0  0  0  0  0  0  0  0  0  0  0  0
   -5.8108   -2.9281   -1.9683 H   0  0  0  0  0  0  0  0  0  0  0  0
   -7.9504   -1.5040    1.4717 H   0  0  0  0  0  0  0  0  0  0  0  0
  1  2  2  0
  2  3  1  0
  3  4  1  0
  4  5  1  0
  5  6  2  0
  5  7  1  0
  7  8  2  3
  8  9  1  0
  9 10  2  0
 10 11  1  0
 11 12  2  0
 12 13  1  0
 13 14  1  0
 14 15  1  0
 14 16  1  0
 14 17  1  0
 13 18  2  0
  2 19  1  0
 19 20  1  0
 20 21  2  0
 21 22  1  0
 22 23  2  0
 23 24  1  0
 23 25  1  0
 25 26  2  0
 18  9  1  0
 26 20  1  0
  3 27  1  0
  3 28  1  0
  7 29  1  0
  8 30  1  0
 10 31  1  0
 11 32  1  0
 12 33  1  0
 18 34  1  0
 19 35  1  0
 21 36  1  0
 22 37  1  0
 25 38  1  0
M  END
$$$$
