
     RDKit          3D

 70 72  0  0  0  0  0  0  0  0999 V2000
   -4.1389    2.2656   -0.0133 C   0  0  0  0  0  0  0  0  0  0  0  0
   -3.5436    1.2905   -1.0549 C   0  0  0  0  0  0  0  0  0  0  0  0
   -2.9592    2.1815   -2.1836 C   0  0  0  0  0  0  0  0  0  0  0  0
   -4.6737    0.4629   -1.7040 C   0  0  0  0  0  0  0  0  0  0  0  0
   -2.4978    0.3584   -0.3963 C   0  0  0  0  0  0  0  0  0  0  0  0
   -1.1799    0.3064   -0.8804 C   0  0  0  0  0  0  0  0  0  0  0  0
   -0.1928   -0.4974   -0.2878 C   0  0  0  0  0  0  0  0  0  0  0  0
    1.2394   -0.5520   -0.8466 C   0  0  0  0  0  0  0  0  0  0  0  0
    1.2527   -1.4584   -2.0764 C   0  0  0  0  0  0  0  0  0  0  0  0
    0.9008   -1.0134   -3.3576 C   0  0  0  0  0  0  0  0  0  0  0  0
    0.9125   -1.9001   -4.4304 C   0  0  0  0  0  0  0  0  0  0  0  0
    1.2731   -3.2147   -4.1898 C   0  0  0  0  0  0  0  0  0  0  0  0
    1.6121   -3.6896   -2.9727 N   0  0  0  0  0  0  0  0  0  0  0  0
    1.5860   -2.8057   -1.9485 C   0  0  0  0  0  0  0  0  0  0  0  0
    1.8304    0.7985   -1.0989 N   0  0  0  0  0  0  0  0  0  0  0  0
    3.2451    0.7189   -1.5478 C   0  0  0  0  0  0  0  0  0  0  0  0
    4.2607    0.3157   -0.4499 C   0  0  0  0  0  0  0  0  0  0  0  0
    4.2141    1.1433    0.7752 N   0  0  0  0  0  0  0  0  0  0  0  0
    4.8590    2.4508    0.5447 C   0  0  0  0  0  0  0  0  0  0  0  0
    5.1711    3.2199    1.8373 C   0  0  0  0  0  0  0  0  0  0  0  0
    5.8791    4.4161    1.5184 O   0  0  0  0  0  0  0  0  0  0  0  0
    2.8098    1.2707    1.2191 C   0  0  0  0  0  0  0  0  0  0  0  0
    1.8058    1.6653    0.1072 C   0  0  0  0  0  0  0  0  0  0  0  0
   -0.5361   -1.2774    0.8279 C   0  0  0  0  0  0  0  0  0  0  0  0
   -1.8337   -1.2809    1.3687 C   0  0  0  0  0  0  0  0  0  0  0  0
   -2.1679   -2.1315    2.6190 C   0  0  0  0  0  0  0  0  0  0  0  0
   -0.9382   -2.8630    3.2205 C   0  0  0  0  0  0  0  0  0  0  0  0
   -2.7244   -1.2399    3.7528 C   0  0  0  0  0  0  0  0  0  0  0  0
   -3.1916   -3.2325    2.2670 C   0  0  0  0  0  0  0  0  0  0  0  0
   -2.7915   -0.4685    0.7144 C   0  0  0  0  0  0  0  0  0  0  0  0
   -4.0807   -0.5018    1.1706 O   0  0  0  0  0  0  0  0  0  0  0  0
   -4.7327    1.7610    0.7539 H   0  0  0  0  0  0  0  0  0  0  0  0
   -4.8066    2.9933   -0.4901 H   0  0  0  0  0  0  0  0  0  0  0  0
   -3.3471    2.8261    0.4978 H   0  0  0  0  0  0  0  0  0  0  0  0
   -2.1518    2.8243   -1.8137 H   0  0  0  0  0  0  0  0  0  0  0  0
   -3.7270    2.8424   -2.6044 H   0  0  0  0  0  0  0  0  0  0  0  0
   -2.5709    1.5808   -3.0144 H   0  0  0  0  0  0  0  0  0  0  0  0
   -5.2849   -0.0699   -0.9710 H   0  0  0  0  0  0  0  0  0  0  0  0
   -4.2679   -0.2805   -2.4004 H   0  0  0  0  0  0  0  0  0  0  0  0
   -5.3598    1.1064   -2.2677 H   0  0  0  0  0  0  0  0  0  0  0  0
   -0.8746    0.9078   -1.7322 H   0  0  0  0  0  0  0  0  0  0  0  0
    1.8587   -1.0422   -0.0848 H   0  0  0  0  0  0  0  0  0  0  0  0
    0.6249    0.0254   -3.5210 H   0  0  0  0  0  0  0  0  0  0  0  0
    0.6462   -1.5728   -5.4288 H   0  0  0  0  0  0  0  0  0  0  0  0
    1.2981   -3.9435   -4.9946 H   0  0  0  0  0  0  0  0  0  0  0  0
    1.8523   -3.2327   -0.9850 H   0  0  0  0  0  0  0  0  0  0  0  0
    3.5236    1.7055   -1.9416 H   0  0  0  0  0  0  0  0  0  0  0  0
    3.3591    0.0437   -2.4023 H   0  0  0  0  0  0  0  0  0  0  0  0
    5.2730    0.3197   -0.8733 H   0  0  0  0  0  0  0  0  0  0  0  0
    4.0826   -0.7272   -0.1594 H   0  0  0  0  0  0  0  0  0  0  0  0
    4.2784    3.0905   -0.1307 H   0  0  0  0  0  0  0  0  0  0  0  0
    5.8215    2.2968    0.0378 H   0  0  0  0  0  0  0  0  0  0  0  0
    4.2594    3.5060    2.3687 H   0  0  0  0  0  0  0  0  0  0  0  0
    5.7977    2.6164    2.5026 H   0  0  0  0  0  0  0  0  0  0  0  0
    6.1034    4.8423    2.3636 H   0  0  0  0  0  0  0  0  0  0  0  0
    2.7243    1.9798    2.0493 H   0  0  0  0  0  0  0  0  0  0  0  0
    2.5068    0.3067    1.6472 H   0  0  0  0  0  0  0  0  0  0  0  0
    0.8021    1.7303    0.5398 H   0  0  0  0  0  0  0  0  0  0  0  0
    2.0221    2.6910   -0.2191 H   0  0  0  0  0  0  0  0  0  0  0  0
    0.2466   -1.8888    1.2677 H   0  0  0  0  0  0  0  0  0  0  0  0
   -1.2151   -3.4325    4.1164 H   0  0  0  0  0  0  0  0  0  0  0  0
   -0.5066   -3.5801    2.5125 H   0  0  0  0  0  0  0  0  0  0  0  0
   -0.1543   -2.1574    3.5199 H   0  0  0  0  0  0  0  0  0  0  0  0
   -2.8752   -1.8192    4.6717 H   0  0  0  0  0  0  0  0  0  0  0  0
   -3.6921   -0.7926    3.5096 H   0  0  0  0  0  0  0  0  0  0  0  0
   -2.0321   -0.4218    3.9856 H   0  0  0  0  0  0  0  0  0  0  0  0
   -4.1732   -2.8316    2.0027 H   0  0  0  0  0  0  0  0  0  0  0  0
   -3.3525   -3.9072    3.1164 H   0  0  0  0  0  0  0  0  0  0  0  0
   -2.8433   -3.8386    1.4227 H   0  0  0  0  0  0  0  0  0  0  0  0
   -4.5149   -1.1955    0.6448 H   0  0  0  0  0  0  0  0  0  0  0  0
  1  2  1  0
  2  3  1  0
  2  4  1  0
  2  5  1  0
  5  6  2  0
  6  7  1  0
  7  8  1  0
  8  9  1  0
  9 10  2  0
 10 11  1  0
 11 12  2  0
 12 13  1  0
 13 14  2  0
  8 15  1  0
 15 16  1  0
 16 17  1  0
 17 18  1  0
 18 19  1  0
 19 20  1  0
 20 21  1  0
 18 22  1  0
 22 23  1  0
  7 24  2  0
 24 25  1  0
 25 26  1  0
 26 27  1  0
 26 28  1  0
 26 29  1  0
 25 30  2  0
 30 31  1  0
 30  5  1  0
 14  9  1  0
 23 15  1  0
  1 32  1  0
  1 33  1  0
  1 34  1  0
  3 35  1  0
  3 36  1  0
  3 37  1  0
  4 38  1  0
  4 39  1  0
  4 40  1  0
  6 41  1  0
  8 42  1  0
 10 43  1  0
 11 44  1  0
 12 45  1  0
 14 46  1  0
 16 47  1  0
 16 48  1  0
 17 49  1  0
 17 50  1  0
 19 51  1  0
 19 52  1  0
 20 53  1  0
 20 54  1  0
 21 55  1  0
 22 56  1  0
 22 57  1  0
 23 58  1  0
 23 59  1  0
 24 60  1  0
 27 61  1  0
 27 62  1  0
 27 63  1  0
 28 64  1  0
 28 65  1  0
 28 66  1  0
 29 67  1  0
 29 68  1  0
 29 69  1  0
 31 70  1  0
M  END
$$$$
