
     RDKit          3D

 51 53  0  0  0  0  0  0  0  0999 V2000
   -7.2177   -0.2246   -1.7224 C   0  0  0  0  0  0  0  0  0  0  0  0
   -6.1277   -0.6014   -0.7572 C   0  0  0  0  0  0  0  0  0  0  0  0
   -5.1282   -1.4983   -1.1617 C   0  0  0  0  0  0  0  0  0  0  0  0
   -4.0992   -1.8759   -0.2921 C   0  0  0  0  0  0  0  0  0  0  0  0
   -4.0518   -1.3592    0.9991 C   0  0  0  0  0  0  0  0  0  0  0  0
   -3.1113   -1.6237    1.9541 O   0  0  0  0  0  0  0  0  0  0  0  0
   -2.0389   -2.5201    1.6643 C   0  0  0  0  0  0  0  0  0  0  0  0
   -0.9010   -1.7380    1.1315 C   0  0  0  0  0  0  0  0  0  0  0  0
   -0.4830   -1.3739   -0.1240 C   0  0  0  0  0  0  0  0  0  0  0  0
    0.6994   -0.6083    0.0849 C   0  0  0  0  0  0  0  0  0  0  0  0
    1.5267   -0.0187   -0.9830 C   0  0  0  0  0  0  0  0  0  0  0  0
    1.4034   -0.4457   -2.1347 O   0  0  0  0  0  0  0  0  0  0  0  0
    2.4371    1.0149   -0.7054 N   0  0  0  0  0  0  0  0  0  0  0  0
    2.6465    1.5992    0.6138 C   0  0  0  0  0  0  0  0  0  0  0  0
    3.3800    1.3926   -1.7624 C   0  0  0  0  0  0  0  0  0  0  0  0
    4.5791    0.4414   -1.8951 C   0  0  0  0  0  0  0  0  0  0  0  0
    5.5722    0.5497   -0.7623 C   0  0  0  0  0  0  0  0  0  0  0  0
    6.4197    1.6621   -0.6617 C   0  0  0  0  0  0  0  0  0  0  0  0
    7.3298    1.7653    0.3920 C   0  0  0  0  0  0  0  0  0  0  0  0
    7.4018    0.7593    1.3531 C   0  0  0  0  0  0  0  0  0  0  0  0
    6.5665   -0.3523    1.2609 C   0  0  0  0  0  0  0  0  0  0  0  0
    5.6566   -0.4581    0.2078 C   0  0  0  0  0  0  0  0  0  0  0  0
    0.9879   -0.5635    1.3971 N   0  0  0  0  0  0  0  0  0  0  0  0
   -0.0203   -1.2487    2.0446 O   0  0  0  0  0  0  0  0  0  0  0  0
   -5.0475   -0.4666    1.4087 C   0  0  0  0  0  0  0  0  0  0  0  0
   -6.0898   -0.0807    0.5493 C   0  0  0  0  0  0  0  0  0  0  0  0
   -7.1348    0.8804    1.0460 C   0  0  0  0  0  0  0  0  0  0  0  0
   -7.0636   -0.6869   -2.7036 H   0  0  0  0  0  0  0  0  0  0  0  0
   -7.2377    0.8602   -1.8713 H   0  0  0  0  0  0  0  0  0  0  0  0
   -8.1895   -0.5596   -1.3464 H   0  0  0  0  0  0  0  0  0  0  0  0
   -5.1419   -1.9132   -2.1677 H   0  0  0  0  0  0  0  0  0  0  0  0
   -3.3589   -2.5713   -0.6681 H   0  0  0  0  0  0  0  0  0  0  0  0
   -1.7475   -2.9800    2.6166 H   0  0  0  0  0  0  0  0  0  0  0  0
   -2.3308   -3.3490    1.0118 H   0  0  0  0  0  0  0  0  0  0  0  0
   -0.9501   -1.6026   -1.0708 H   0  0  0  0  0  0  0  0  0  0  0  0
    3.1879    2.5461    0.5288 H   0  0  0  0  0  0  0  0  0  0  0  0
    3.2234    0.9073    1.2314 H   0  0  0  0  0  0  0  0  0  0  0  0
    1.6850    1.8139    1.0854 H   0  0  0  0  0  0  0  0  0  0  0  0
    2.8377    1.3867   -2.7163 H   0  0  0  0  0  0  0  0  0  0  0  0
    3.7011    2.4288   -1.6040 H   0  0  0  0  0  0  0  0  0  0  0  0
    5.1090    0.6657   -2.8297 H   0  0  0  0  0  0  0  0  0  0  0  0
    4.2329   -0.5956   -1.9898 H   0  0  0  0  0  0  0  0  0  0  0  0
    6.3790    2.4543   -1.4056 H   0  0  0  0  0  0  0  0  0  0  0  0
    7.9837    2.6306    0.4621 H   0  0  0  0  0  0  0  0  0  0  0  0
    8.1093    0.8407    2.1737 H   0  0  0  0  0  0  0  0  0  0  0  0
    6.6212   -1.1375    2.0103 H   0  0  0  0  0  0  0  0  0  0  0  0
    5.0069   -1.3293    0.1543 H   0  0  0  0  0  0  0  0  0  0  0  0
   -5.0036   -0.0673    2.4209 H   0  0  0  0  0  0  0  0  0  0  0  0
   -7.1214    1.7990    0.4495 H   0  0  0  0  0  0  0  0  0  0  0  0
   -6.9592    1.1623    2.0900 H   0  0  0  0  0  0  0  0  0  0  0  0
   -8.1286    0.4233    0.9931 H   0  0  0  0  0  0  0  0  0  0  0  0
  1  2  1  0
  2  3  2  0
  3  4  1  0
  4  5  2  0
  5  6  1  0
  6  7  1  0
  7  8  1  0
  8  9  2  0
  9 10  1  0
 10 11  1  0
 11 12  2  0
 11 13  1  0
 13 14  1  0
 13 15  1  0
 15 16  1  0
 16 17  1  0
 17 18  2  0
 18 19  1  0
 19 20  2  0
 20 21  1  0
 21 22  2  0
 10 23  2  0
 23 24  1  0
  5 25  1  0
 25 26  2  0
 26 27  1  0
 26  2  1  0
 24  8  1  0
 22 17  1  0
  1 28  1  0
  1 29  1  0
  1 30  1  0
  3 31  1  0
  4 32  1  0
  7 33  1  0
  7 34  1  0
  9 35  1  0
 14 36  1  0
 14 37  1  0
 14 38  1  0
 15 39  1  0
 15 40  1  0
 16 41  1  0
 16 42  1  0
 18 43  1  0
 19 44  1  0
 20 45  1  0
 21 46  1  0
 22 47  1  0
 25 48  1  0
 27 49  1  0
 27 50  1  0
 27 51  1  0
M  END
$$$$
