
     RDKit          3D

 43 46  0  0  0  0  0  0  0  0999 V2000
   -4.4815   -3.0537   -1.2774 C   0  0  0  0  0  0  0  0  0  0  0  0
   -4.0412   -1.6688   -1.1999 N   0  0  0  0  0  0  0  0  0  0  0  0
   -5.0202   -0.6767   -1.2044 C   0  0  0  0  0  0  0  0  0  0  0  0
   -6.2247   -0.9123   -1.2611 O   0  0  0  0  0  0  0  0  0  0  0  0
   -4.5631    0.7849   -1.1317 C   0  0  0  0  0  0  0  0  0  0  0  0
   -5.4181    1.6670   -1.1336 O   0  0  0  0  0  0  0  0  0  0  0  0
   -3.1944    1.0383   -1.0639 N   0  0  0  0  0  0  0  0  0  0  0  0
   -2.7651    2.4283   -1.0056 C   0  0  0  0  0  0  0  0  0  0  0  0
   -2.2367   -0.0123   -1.0568 C   0  0  0  0  0  0  0  0  0  0  0  0
   -0.8622    0.2711   -0.9806 C   0  0  0  0  0  0  0  0  0  0  0  0
    0.0782   -0.7633   -0.9664 C   0  0  0  0  0  0  0  0  0  0  0  0
    1.8073   -0.3479   -0.8671 S   0  0  0  0  0  6  0  0  0  0  0  0
    2.5534   -1.5870   -0.7825 O   0  0  0  0  0  0  0  0  0  0  0  0
    2.0452    0.6101   -1.9261 O   0  0  0  0  0  0  0  0  0  0  0  0
    1.8837    0.4271    0.6538 N   0  0  0  0  0  0  0  0  0  0  0  0
    1.5882   -0.4454    1.8458 C   0  0  0  0  0  0  0  0  0  0  0  0
    2.8761   -0.5240    2.6809 C   0  0  0  0  0  0  0  0  0  0  0  0
    3.6887    0.5937    2.1218 C   0  0  0  0  0  0  0  0  0  0  0  0
    4.8845    1.1014    2.6047 C   0  0  0  0  0  0  0  0  0  0  0  0
    5.5066    2.1257    1.8875 C   0  0  0  0  0  0  0  0  0  0  0  0
    4.9330    2.6210    0.7063 C   0  0  0  0  0  0  0  0  0  0  0  0
    3.7305    2.0961    0.2260 C   0  0  0  0  0  0  0  0  0  0  0  0
    3.1305    1.0750    0.9413 C   0  0  0  0  0  0  0  0  0  0  0  0
   -0.3246   -2.0899   -1.0421 C   0  0  0  0  0  0  0  0  0  0  0  0
   -1.6871   -2.3796   -1.1194 C   0  0  0  0  0  0  0  0  0  0  0  0
   -2.6564   -1.3558   -1.1252 C   0  0  0  0  0  0  0  0  0  0  0  0
   -4.1509   -3.5915   -0.3830 H   0  0  0  0  0  0  0  0  0  0  0  0
   -4.0676   -3.5176   -2.1784 H   0  0  0  0  0  0  0  0  0  0  0  0
   -5.5705   -3.1391   -1.3316 H   0  0  0  0  0  0  0  0  0  0  0  0
   -2.1334    2.6511   -1.8715 H   0  0  0  0  0  0  0  0  0  0  0  0
   -3.6098    3.1226   -1.0245 H   0  0  0  0  0  0  0  0  0  0  0  0
   -2.2147    2.6005   -0.0751 H   0  0  0  0  0  0  0  0  0  0  0  0
   -0.4913    1.2920   -0.9334 H   0  0  0  0  0  0  0  0  0  0  0  0
    1.2314   -1.4450    1.5820 H   0  0  0  0  0  0  0  0  0  0  0  0
    0.7898    0.0420    2.4194 H   0  0  0  0  0  0  0  0  0  0  0  0
    2.6672   -0.3991    3.7472 H   0  0  0  0  0  0  0  0  0  0  0  0
    3.3872   -1.4781    2.5148 H   0  0  0  0  0  0  0  0  0  0  0  0
    5.3349    0.7127    3.5126 H   0  0  0  0  0  0  0  0  0  0  0  0
    6.4461    2.5423    2.2440 H   0  0  0  0  0  0  0  0  0  0  0  0
    5.4283    3.4202    0.1598 H   0  0  0  0  0  0  0  0  0  0  0  0
    3.2854    2.4917   -0.6807 H   0  0  0  0  0  0  0  0  0  0  0  0
    0.4028   -2.8992   -1.0473 H   0  0  0  0  0  0  0  0  0  0  0  0
   -1.9653   -3.4285   -1.1787 H   0  0  0  0  0  0  0  0  0  0  0  0
  1  2  1  0
  2  3  1  0
  3  4  2  0
  3  5  1  0
  5  6  2  0
  5  7  1  0
  7  8  1  0
  7  9  1  0
  9 10  2  0
 10 11  1  0
 11 12  1  0
 12 13  2  0
 12 14  2  0
 12 15  1  0
 15 16  1  0
 16 17  1  0
 17 18  1  0
 18 19  2  0
 19 20  1  0
 20 21  2  0
 21 22  1  0
 22 23  2  0
 11 24  2  0
 24 25  1  0
 25 26  2  0
 26  2  1  0
 26  9  1  0
 23 15  1  0
 23 18  1  0
  1 27  1  0
  1 28  1  0
  1 29  1  0
  8 30  1  0
  8 31  1  0
  8 32  1  0
 10 33  1  0
 16 34  1  0
 16 35  1  0
 17 36  1  0
 17 37  1  0
 19 38  1  0
 20 39  1  0
 21 40  1  0
 22 41  1  0
 24 42  1  0
 25 43  1  0
M  END
$$$$
