
     RDKit          3D

 50 52  0  0  0  0  0  0  0  0999 V2000
    3.0919   -0.5675   -0.5720 O   0  0  0  0  0  0  0  0  0  0  0  0
    3.6260   -0.8458    0.4931 C   0  0  0  0  0  0  0  0  0  0  0  0
    4.9764   -0.3644    0.9771 C   0  0  0  0  0  0  0  0  0  0  0  0
    5.6181    0.6699    0.0812 C   0  0  0  0  0  0  0  0  0  0  0  0
    6.6089    0.3000   -0.8417 C   0  0  0  0  0  0  0  0  0  0  0  0
    7.1899    1.2592   -1.6727 C   0  0  0  0  0  0  0  0  0  0  0  0
    6.7783    2.5836   -1.5852 C   0  0  0  0  0  0  0  0  0  0  0  0
    7.3376    3.5020   -2.3841 F   0  0  0  0  0  0  0  0  0  0  0  0
    5.7942    2.9687   -0.6834 C   0  0  0  0  0  0  0  0  0  0  0  0
    5.2115    2.0126    0.1493 C   0  0  0  0  0  0  0  0  0  0  0  0
    3.0810   -1.6761    1.4338 O   0  0  0  0  0  0  0  0  0  0  0  0
    1.7280   -2.0447    1.1572 C   0  0  0  0  0  0  0  0  0  0  0  0
    0.7440   -0.9016    1.4540 C   0  0  0  0  0  0  0  0  0  0  0  0
    1.1246    0.1388    1.9970 O   0  0  0  0  0  0  0  0  0  0  0  0
   -0.5888   -1.1046    1.1201 N   0  0  0  0  0  0  0  0  0  0  0  0
   -1.1105   -2.3098    0.4658 C   0  0  0  0  0  0  0  0  0  0  0  0
   -2.5134   -2.1054   -0.1255 C   0  0  0  0  0  0  0  0  0  0  0  0
   -3.4654   -1.6421    0.9155 N   0  0  0  0  0  0  0  0  0  0  0  0
   -5.0897   -1.4768    0.4713 S   0  0  0  0  0  6  0  0  0  0  0  0
   -5.8522   -1.1783    1.6644 O   0  0  0  0  0  0  0  0  0  0  0  0
   -5.4348   -2.5926   -0.3835 O   0  0  0  0  0  0  0  0  0  0  0  0
   -5.0893   -0.0108   -0.5452 C   0  0  0  0  0  0  0  0  0  0  0  0
   -5.3496    1.2363    0.0337 C   0  0  0  0  0  0  0  0  0  0  0  0
   -5.3746    2.3779   -0.7706 C   0  0  0  0  0  0  0  0  0  0  0  0
   -5.1583    2.2647   -2.1445 C   0  0  0  0  0  0  0  0  0  0  0  0
   -5.1899    3.6729   -3.1315 Cl  0  0  0  0  0  0  0  0  0  0  0  0
   -4.9263    1.0175   -2.7259 C   0  0  0  0  0  0  0  0  0  0  0  0
   -4.9003   -0.1278   -1.9270 C   0  0  0  0  0  0  0  0  0  0  0  0
   -2.9114   -0.6832    1.9145 C   0  0  0  0  0  0  0  0  0  0  0  0
   -1.5749   -0.0771    1.4672 C   0  0  0  0  0  0  0  0  0  0  0  0
    5.6367   -1.2348    1.0691 H   0  0  0  0  0  0  0  0  0  0  0  0
    4.8559    0.0666    1.9785 H   0  0  0  0  0  0  0  0  0  0  0  0
    6.9320   -0.7354   -0.9226 H   0  0  0  0  0  0  0  0  0  0  0  0
    7.9564    0.9822   -2.3891 H   0  0  0  0  0  0  0  0  0  0  0  0
    5.4831    4.0072   -0.6377 H   0  0  0  0  0  0  0  0  0  0  0  0
    4.4325    2.3183    0.8455 H   0  0  0  0  0  0  0  0  0  0  0  0
    1.4802   -2.8812    1.8187 H   0  0  0  0  0  0  0  0  0  0  0  0
    1.6406   -2.3913    0.1232 H   0  0  0  0  0  0  0  0  0  0  0  0
   -1.1298   -3.1001    1.2254 H   0  0  0  0  0  0  0  0  0  0  0  0
   -0.4265   -2.6217   -0.3280 H   0  0  0  0  0  0  0  0  0  0  0  0
   -2.8567   -3.0571   -0.5436 H   0  0  0  0  0  0  0  0  0  0  0  0
   -2.4598   -1.3679   -0.9332 H   0  0  0  0  0  0  0  0  0  0  0  0
   -5.5442    1.3274    1.1004 H   0  0  0  0  0  0  0  0  0  0  0  0
   -5.5732    3.3493   -0.3240 H   0  0  0  0  0  0  0  0  0  0  0  0
   -4.7753    0.9315   -3.7993 H   0  0  0  0  0  0  0  0  0  0  0  0
   -4.7409   -1.1006   -2.3876 H   0  0  0  0  0  0  0  0  0  0  0  0
   -2.7679   -1.2399    2.8484 H   0  0  0  0  0  0  0  0  0  0  0  0
   -3.6134    0.1272    2.1283 H   0  0  0  0  0  0  0  0  0  0  0  0
   -1.7205    0.5373    0.5704 H   0  0  0  0  0  0  0  0  0  0  0  0
   -1.1900    0.5790    2.2547 H   0  0  0  0  0  0  0  0  0  0  0  0
  1  2  2  0
  2  3  1  0
  3  4  1  0
  4  5  2  0
  5  6  1  0
  6  7  2  0
  7  8  1  0
  7  9  1  0
  9 10  2  0
  2 11  1  0
 11 12  1  0
 12 13  1  0
 13 14  2  0
 13 15  1  0
 15 16  1  0
 16 17  1  0
 17 18  1  0
 18 19  1  0
 19 20  2  0
 19 21  2  0
 19 22  1  0
 22 23  2  0
 23 24  1  0
 24 25  2  0
 25 26  1  0
 25 27  1  0
 27 28  2  0
 18 29  1  0
 29 30  1  0
 10  4  1  0
 30 15  1  0
 28 22  1  0
  3 31  1  0
  3 32  1  0
  5 33  1  0
  6 34  1  0
  9 35  1  0
 10 36  1  0
 12 37  1  0
 12 38  1  0
 16 39  1  0
 16 40  1  0
 17 41  1  0
 17 42  1  0
 23 43  1  0
 24 44  1  0
 27 45  1  0
 28 46  1  0
 29 47  1  0
 29 48  1  0
 30 49  1  0
 30 50  1  0
M  END
$$$$
