
     RDKit          3D

 46 48  0  0  0  0  0  0  0  0999 V2000
    7.8743   -1.5349    0.9022 C   0  0  0  0  0  0  0  0  0  0  0  0
    7.1219   -0.4285    1.3835 O   0  0  0  0  0  0  0  0  0  0  0  0
    5.8105   -0.3572    1.0060 C   0  0  0  0  0  0  0  0  0  0  0  0
    5.1197    0.7496    1.5018 C   0  0  0  0  0  0  0  0  0  0  0  0
    3.7709    0.9452    1.1929 C   0  0  0  0  0  0  0  0  0  0  0  0
    3.0918    0.0315    0.3781 C   0  0  0  0  0  0  0  0  0  0  0  0
    1.6491    0.2830    0.0761 C   0  0  0  0  0  0  0  0  0  0  0  0
    1.0816    1.2332    0.6167 O   0  0  0  0  0  0  0  0  0  0  0  0
    0.9374   -0.6646   -0.8853 C   0  0  0  0  0  0  0  0  0  0  0  0
   -0.3968   -0.1717   -1.1352 N   0  0  0  0  0  0  0  0  0  0  0  0
   -0.7170    0.7103   -2.1141 C   0  0  0  0  0  0  0  0  0  0  0  0
    0.0276    1.1878   -2.9534 O   0  0  0  0  0  0  0  0  0  0  0  0
   -2.0607    0.9847   -2.0279 N   0  0  0  0  0  0  0  0  0  0  0  0
   -2.6802    0.4115   -0.8357 C   0  0  0  0  0  0  0  0  0  0  0  0
   -2.9577    1.5522    0.1588 C   0  0  0  0  0  0  0  0  0  0  0  0
   -3.4911    1.1326    1.5264 C   0  0  0  0  0  0  0  0  0  0  0  0
   -4.9998    0.9270    1.5972 C   0  0  0  0  0  0  0  0  0  0  0  0
   -5.6463    0.1848    0.4338 C   0  0  0  0  0  0  0  0  0  0  0  0
   -4.8031   -0.9410   -0.1542 C   0  0  0  0  0  0  0  0  0  0  0  0
   -3.8674   -0.4568   -1.2620 C   0  0  0  0  0  0  0  0  0  0  0  0
   -1.4883   -0.4614   -0.3673 C   0  0  0  0  0  0  0  0  0  0  0  0
   -1.5125   -1.2741    0.5484 O   0  0  0  0  0  0  0  0  0  0  0  0
    3.7837   -1.0803   -0.1176 C   0  0  0  0  0  0  0  0  0  0  0  0
    5.1373   -1.2716    0.1958 C   0  0  0  0  0  0  0  0  0  0  0  0
    7.9320   -1.5272   -0.1913 H   0  0  0  0  0  0  0  0  0  0  0  0
    7.4639   -2.4810    1.2702 H   0  0  0  0  0  0  0  0  0  0  0  0
    8.8932   -1.4407    1.2901 H   0  0  0  0  0  0  0  0  0  0  0  0
    5.6350    1.4682    2.1353 H   0  0  0  0  0  0  0  0  0  0  0  0
    3.2570    1.8174    1.5935 H   0  0  0  0  0  0  0  0  0  0  0  0
    1.4824   -0.6994   -1.8335 H   0  0  0  0  0  0  0  0  0  0  0  0
    0.8743   -1.6575   -0.4300 H   0  0  0  0  0  0  0  0  0  0  0  0
   -2.4630    1.7139   -2.6025 H   0  0  0  0  0  0  0  0  0  0  0  0
   -3.6349    2.2881   -0.2944 H   0  0  0  0  0  0  0  0  0  0  0  0
   -2.0161    2.0919    0.3363 H   0  0  0  0  0  0  0  0  0  0  0  0
   -2.9812    0.2336    1.8856 H   0  0  0  0  0  0  0  0  0  0  0  0
   -3.2359    1.9167    2.2514 H   0  0  0  0  0  0  0  0  0  0  0  0
   -5.4922    1.9030    1.6949 H   0  0  0  0  0  0  0  0  0  0  0  0
   -5.2223    0.3904    2.5286 H   0  0  0  0  0  0  0  0  0  0  0  0
   -6.5957   -0.2330    0.7924 H   0  0  0  0  0  0  0  0  0  0  0  0
   -5.9168    0.9008   -0.3522 H   0  0  0  0  0  0  0  0  0  0  0  0
   -5.4896   -1.6675   -0.6081 H   0  0  0  0  0  0  0  0  0  0  0  0
   -4.2573   -1.4836    0.6249 H   0  0  0  0  0  0  0  0  0  0  0  0
   -4.4655    0.0876   -2.0060 H   0  0  0  0  0  0  0  0  0  0  0  0
   -3.4903   -1.3442   -1.7898 H   0  0  0  0  0  0  0  0  0  0  0  0
    3.3023   -1.8219   -0.7482 H   0  0  0  0  0  0  0  0  0  0  0  0
    5.6357   -2.1468   -0.2092 H   0  0  0  0  0  0  0  0  0  0  0  0
  1  2  1  0
  2  3  1  0
  3  4  2  0
  4  5  1  0
  5  6  2  0
  6  7  1  0
  7  8  2  0
  7  9  1  0
  9 10  1  0
 10 11  1  0
 11 12  2  0
 11 13  1  0
 13 14  1  0
 14 15  1  0
 15 16  1  0
 16 17  1  0
 17 18  1  0
 18 19  1  0
 19 20  1  0
 14 21  1  0
 21 22  2  0
  6 23  1  0
 23 24  2  0
 24  3  1  0
 21 10  1  0
 20 14  1  0
  1 25  1  0
  1 26  1  0
  1 27  1  0
  4 28  1  0
  5 29  1  0
  9 30  1  0
  9 31  1  0
 13 32  1  0
 15 33  1  0
 15 34  1  0
 16 35  1  0
 16 36  1  0
 17 37  1  0
 17 38  1  0
 18 39  1  0
 18 40  1  0
 19 41  1  0
 19 42  1  0
 20 43  1  0
 20 44  1  0
 23 45  1  0
 24 46  1  0
M  END
$$$$
