
     RDKit          3D

 57 60  0  0  0  0  0  0  0  0999 V2000
    6.9971    2.6889    0.0642 C   0  0  0  0  0  0  0  0  0  0  0  0
    7.0650    1.4167    0.8998 C   0  0  0  0  0  0  0  0  0  0  0  0
    5.8505    1.1853    1.8165 C   0  0  0  0  0  0  0  0  0  0  0  0
    5.6775    2.2917    2.8544 C   0  0  0  0  0  0  0  0  0  0  0  0
    4.6257    1.0238    1.0439 N   0  0  0  0  0  0  0  0  0  0  0  0
    4.2940   -0.1751    0.4461 C   0  0  0  0  0  0  0  0  0  0  0  0
    4.9366   -1.2078    0.5965 O   0  0  0  0  0  0  0  0  0  0  0  0
    3.0668   -0.1771   -0.3966 C   0  0  0  0  0  0  0  0  0  0  0  0
    2.6533    0.9524   -1.1126 C   0  0  0  0  0  0  0  0  0  0  0  0
    1.4953    0.8998   -1.8948 C   0  0  0  0  0  0  0  0  0  0  0  0
    0.7441   -0.2823   -1.9825 C   0  0  0  0  0  0  0  0  0  0  0  0
   -0.5128   -0.3347   -2.8189 C   0  0  0  0  0  0  0  0  0  0  0  0
   -1.9624    0.2934   -1.9217 S   0  0  0  0  0  0  0  0  0  0  0  0
   -2.4416   -1.1058   -1.0186 C   0  0  0  0  0  0  0  0  0  0  0  0
   -2.1366   -2.3427   -1.3366 N   0  0  0  0  0  0  0  0  0  0  0  0
   -2.6990   -3.1191   -0.3567 C   0  0  0  0  0  0  0  0  0  0  0  0
   -2.6718   -4.5047   -0.2031 C   0  0  0  0  0  0  0  0  0  0  0  0
   -3.3330   -4.9987    0.9085 C   0  0  0  0  0  0  0  0  0  0  0  0
   -3.9808   -4.2402    1.8237 N   0  0  0  0  0  0  0  0  0  0  0  0
   -4.0055   -2.8959    1.6738 C   0  0  0  0  0  0  0  0  0  0  0  0
   -3.3662   -2.3346    0.5777 C   0  0  0  0  0  0  0  0  0  0  0  0
   -3.2076   -1.0421    0.1205 N   0  0  0  0  0  0  0  0  0  0  0  0
   -3.7074    0.1526    0.7845 C   0  0  0  0  0  0  0  0  0  0  0  0
   -4.9589    0.6968    0.1353 C   0  0  0  0  0  0  0  0  0  0  0  0
   -6.1452   -0.0562    0.0944 C   0  0  0  0  0  0  0  0  0  0  0  0
   -7.2964    0.4659   -0.4988 C   0  0  0  0  0  0  0  0  0  0  0  0
   -7.2687    1.7414   -1.0469 C   0  0  0  0  0  0  0  0  0  0  0  0
   -8.3741    2.2405   -1.6152 F   0  0  0  0  0  0  0  0  0  0  0  0
   -6.1109    2.5071   -1.0124 C   0  0  0  0  0  0  0  0  0  0  0  0
   -4.9581    1.9879   -0.4206 C   0  0  0  0  0  0  0  0  0  0  0  0
    1.1725   -1.4119   -1.2713 C   0  0  0  0  0  0  0  0  0  0  0  0
    2.3286   -1.3619   -0.4893 C   0  0  0  0  0  0  0  0  0  0  0  0
    7.8738    2.7523   -0.5888 H   0  0  0  0  0  0  0  0  0  0  0  0
    6.9901    3.5831    0.6939 H   0  0  0  0  0  0  0  0  0  0  0  0
    6.1062    2.7039   -0.5710 H   0  0  0  0  0  0  0  0  0  0  0  0
    7.1737    0.5637    0.2186 H   0  0  0  0  0  0  0  0  0  0  0  0
    7.9759    1.4460    1.5103 H   0  0  0  0  0  0  0  0  0  0  0  0
    6.0239    0.2457    2.3569 H   0  0  0  0  0  0  0  0  0  0  0  0
    4.8739    2.0358    3.5539 H   0  0  0  0  0  0  0  0  0  0  0  0
    5.4076    3.2469    2.3922 H   0  0  0  0  0  0  0  0  0  0  0  0
    6.5959    2.4338    3.4330 H   0  0  0  0  0  0  0  0  0  0  0  0
    4.0383    1.8336    0.9052 H   0  0  0  0  0  0  0  0  0  0  0  0
    3.2329    1.8703   -1.0992 H   0  0  0  0  0  0  0  0  0  0  0  0
    1.1857    1.7858   -2.4458 H   0  0  0  0  0  0  0  0  0  0  0  0
   -0.3729    0.2965   -3.7046 H   0  0  0  0  0  0  0  0  0  0  0  0
   -0.6865   -1.3451   -3.2056 H   0  0  0  0  0  0  0  0  0  0  0  0
   -2.1653   -5.1482   -0.9087 H   0  0  0  0  0  0  0  0  0  0  0  0
   -3.3598   -6.0682    1.1020 H   0  0  0  0  0  0  0  0  0  0  0  0
   -4.5370   -2.3297    2.4285 H   0  0  0  0  0  0  0  0  0  0  0  0
   -3.9154   -0.0872    1.8332 H   0  0  0  0  0  0  0  0  0  0  0  0
   -2.8979    0.8914    0.7965 H   0  0  0  0  0  0  0  0  0  0  0  0
   -6.1875   -1.0575    0.5177 H   0  0  0  0  0  0  0  0  0  0  0  0
   -8.2127   -0.1151   -0.5380 H   0  0  0  0  0  0  0  0  0  0  0  0
   -6.1121    3.5012   -1.4482 H   0  0  0  0  0  0  0  0  0  0  0  0
   -4.0571    2.5984   -0.4042 H   0  0  0  0  0  0  0  0  0  0  0  0
    0.6060   -2.3407   -1.3223 H   0  0  0  0  0  0  0  0  0  0  0  0
    2.6507   -2.2500    0.0512 H   0  0  0  0  0  0  0  0  0  0  0  0
  1  2  1  0
  2  3  1  0
  3  4  1  0
  3  5  1  0
  5  6  1  0
  6  7  2  0
  6  8  1  0
  8  9  2  0
  9 10  1  0
 10 11  2  0
 11 12  1  0
 12 13  1  0
 13 14  1  0
 14 15  2  0
 15 16  1  0
 16 17  2  0
 17 18  1  0
 18 19  2  0
 19 20  1  0
 20 21  2  0
 21 22  1  0
 22 23  1  0
 23 24  1  0
 24 25  2  0
 25 26  1  0
 26 27  2  0
 27 28  1  0
 27 29  1  0
 29 30  2  0
 11 31  1  0
 31 32  2  0
 32  8  1  0
 22 14  1  0
 30 24  1  0
 21 16  1  0
  1 33  1  0
  1 34  1  0
  1 35  1  0
  2 36  1  0
  2 37  1  0
  3 38  1  0
  4 39  1  0
  4 40  1  0
  4 41  1  0
  5 42  1  0
  9 43  1  0
 10 44  1  0
 12 45  1  0
 12 46  1  0
 17 47  1  0
 18 48  1  0
 20 49  1  0
 23 50  1  0
 23 51  1  0
 25 52  1  0
 26 53  1  0
 29 54  1  0
 30 55  1  0
 31 56  1  0
 32 57  1  0
M  END
$$$$
