
     RDKit          3D

 41 42  0  0  0  0  0  0  0  0999 V2000
   -1.1950   -2.8661   -3.7484 C   0  0  0  0  0  0  0  0  0  0  0  0
   -1.3767   -2.5579   -2.3714 O   0  0  0  0  0  0  0  0  0  0  0  0
   -2.6361   -2.7241   -1.8546 C   0  0  0  0  0  0  0  0  0  0  0  0
   -3.7848   -2.9510   -2.6201 C   0  0  0  0  0  0  0  0  0  0  0  0
   -5.0322   -3.0779   -2.0038 C   0  0  0  0  0  0  0  0  0  0  0  0
   -5.1433   -2.9727   -0.6210 C   0  0  0  0  0  0  0  0  0  0  0  0
   -4.0056   -2.7437    0.1503 C   0  0  0  0  0  0  0  0  0  0  0  0
   -2.7426   -2.6246   -0.4538 C   0  0  0  0  0  0  0  0  0  0  0  0
   -1.5323   -2.3738    0.4112 C   0  0  0  0  0  0  0  0  0  0  0  0
   -1.0843   -1.0047    0.2927 N   0  0  0  0  0  0  0  0  0  0  0  0
   -0.1526   -0.4987    1.1817 C   0  0  0  0  0  0  0  0  0  0  0  0
    0.2108   -1.1150    2.1788 O   0  0  0  0  0  0  0  0  0  0  0  0
    0.3348    0.9058    0.8089 C   0  0  0  0  0  0  0  0  0  0  0  0
    1.5262    1.2475    1.4964 O   0  0  0  0  0  0  0  0  0  0  0  0
    2.1107    2.4540    1.1973 C   0  0  0  0  0  0  0  0  0  0  0  0
    1.5160    3.4480    0.4109 C   0  0  0  0  0  0  0  0  0  0  0  0
    2.1842    4.6497    0.1675 C   0  0  0  0  0  0  0  0  0  0  0  0
    3.4475    4.8673    0.7083 C   0  0  0  0  0  0  0  0  0  0  0  0
    4.0487    3.8856    1.4981 C   0  0  0  0  0  0  0  0  0  0  0  0
    3.3881    2.6779    1.7511 C   0  0  0  0  0  0  0  0  0  0  0  0
    3.9044    1.6559    2.5081 O   0  0  0  0  0  0  0  0  0  0  0  0
    5.1409    1.8827    3.1675 C   0  0  0  0  0  0  0  0  0  0  0  0
   -1.5069   -3.8917   -3.9723 H   0  0  0  0  0  0  0  0  0  0  0  0
   -1.7187   -2.1441   -4.3831 H   0  0  0  0  0  0  0  0  0  0  0  0
   -0.1260   -2.7880   -3.9690 H   0  0  0  0  0  0  0  0  0  0  0  0
   -3.7469   -3.0260   -3.7017 H   0  0  0  0  0  0  0  0  0  0  0  0
   -5.9197   -3.2537   -2.6067 H   0  0  0  0  0  0  0  0  0  0  0  0
   -6.1150   -3.0661   -0.1426 H   0  0  0  0  0  0  0  0  0  0  0  0
   -4.1060   -2.6573    1.2306 H   0  0  0  0  0  0  0  0  0  0  0  0
   -1.7506   -2.5900    1.4639 H   0  0  0  0  0  0  0  0  0  0  0  0
   -0.7076   -3.0359    0.1213 H   0  0  0  0  0  0  0  0  0  0  0  0
   -1.1132   -0.6171   -0.6413 H   0  0  0  0  0  0  0  0  0  0  0  0
   -0.4717    1.5972    1.0807 H   0  0  0  0  0  0  0  0  0  0  0  0
    0.5098    0.9272   -0.2738 H   0  0  0  0  0  0  0  0  0  0  0  0
    0.5292    3.3241   -0.0209 H   0  0  0  0  0  0  0  0  0  0  0  0
    1.7154    5.4179   -0.4424 H   0  0  0  0  0  0  0  0  0  0  0  0
    3.9669    5.8031    0.5180 H   0  0  0  0  0  0  0  0  0  0  0  0
    5.0349    4.0915    1.8996 H   0  0  0  0  0  0  0  0  0  0  0  0
    5.3709    0.9935    3.7625 H   0  0  0  0  0  0  0  0  0  0  0  0
    5.9528    2.0177    2.4454 H   0  0  0  0  0  0  0  0  0  0  0  0
    5.0753    2.7335    3.8537 H   0  0  0  0  0  0  0  0  0  0  0  0
  1  2  1  0
  2  3  1  0
  3  4  2  0
  4  5  1  0
  5  6  2  0
  6  7  1  0
  7  8  2  0
  8  9  1  0
  9 10  1  0
 10 11  1  0
 11 12  2  0
 11 13  1  0
 13 14  1  0
 14 15  1  0
 15 16  2  0
 16 17  1  0
 17 18  2  0
 18 19  1  0
 19 20  2  0
 20 21  1  0
 21 22  1  0
  8  3  1  0
 20 15  1  0
  1 23  1  0
  1 24  1  0
  1 25  1  0
  4 26  1  0
  5 27  1  0
  6 28  1  0
  7 29  1  0
  9 30  1  0
  9 31  1  0
 10 32  1  0
 13 33  1  0
 13 34  1  0
 16 35  1  0
 17 36  1  0
 18 37  1  0
 19 38  1  0
 22 39  1  0
 22 40  1  0
 22 41  1  0
M  END
$$$$
