
     RDKit          3D

 93 99  0  0  0  0  0  0  0  0999 V2000
   -4.7880    0.6719   -2.5647 C   0  0  0  0  0  0  0  0  0  0  0  0
   -3.3938    0.8471   -3.1540 C   0  0  0  0  0  0  0  0  0  0  0  0
   -2.2968    0.4675   -2.1646 C   0  0  0  0  0  0  0  0  0  0  0  0
   -1.7965    1.4106   -1.3367 C   0  0  0  0  0  0  0  0  0  0  0  0
   -2.2770    2.7309   -1.3769 O   0  0  0  0  0  0  0  0  0  0  0  0
   -1.5476    3.5648   -2.1927 C   0  0  0  0  0  0  0  0  0  0  0  0
   -0.5324    3.2251   -2.7974 O   0  0  0  0  0  0  0  0  0  0  0  0
   -2.1002    4.8406   -2.2806 N   0  0  0  0  0  0  0  0  0  0  0  0
   -1.3666    5.8622   -3.0181 C   0  0  0  0  0  0  0  0  0  0  0  0
   -0.2329    6.4792   -2.2146 C   0  0  0  0  0  0  0  0  0  0  0  0
   -3.2969    5.2282   -1.5339 C   0  0  0  0  0  0  0  0  0  0  0  0
   -3.0150    5.6126   -0.0919 C   0  0  0  0  0  0  0  0  0  0  0  0
   -0.8421    1.1216   -0.3896 N   0  0  0  0  0  0  0  0  0  0  0  0
   -0.1600    2.0506    0.3568 C   0  0  0  0  0  0  0  0  0  0  0  0
   -0.4322    3.2188    0.5766 O   0  0  0  0  0  0  0  0  0  0  0  0
    0.9669    1.4639    0.8106 O   0  0  0  0  0  0  0  0  0  0  0  0
    0.9925    0.2020    0.3227 C   0  0  0  0  0  0  0  0  0  0  0  0
    2.0633   -0.5124    0.2963 N   0  0  0  0  0  0  0  0  0  0  0  0
    3.3031    0.1332    0.7707 C   0  0  0  0  0  0  0  0  0  0  0  0
    3.4221    0.0222    2.2932 C   0  0  0  0  0  0  0  0  0  0  0  0
    4.7119    0.5802    2.8031 C   0  0  0  0  0  0  0  0  0  0  0  0
    4.9715    1.9063    3.0927 C   0  0  0  0  0  0  0  0  0  0  0  0
    6.2647    2.0068    3.5294 N   0  0  0  0  0  0  0  0  0  0  0  0
    6.8633    0.7680    3.5338 C   0  0  0  0  0  0  0  0  0  0  0  0
    8.1622    0.3937    3.9008 C   0  0  0  0  0  0  0  0  0  0  0  0
    8.4995   -0.9599    3.8024 C   0  0  0  0  0  0  0  0  0  0  0  0
    7.5749   -1.8982    3.3511 C   0  0  0  0  0  0  0  0  0  0  0  0
    6.2808   -1.5069    2.9892 C   0  0  0  0  0  0  0  0  0  0  0  0
    5.9129   -0.1483    3.0823 C   0  0  0  0  0  0  0  0  0  0  0  0
   -0.3990   -0.2459   -0.1090 C   0  0  0  0  0  0  0  0  0  0  0  0
   -1.0850   -0.8233    1.1674 C   0  0  0  0  0  0  0  0  0  0  0  0
   -2.5763   -1.0609    1.1041 C   0  0  0  0  0  0  0  0  0  0  0  0
   -3.0851   -2.3427    0.8565 C   0  0  0  0  0  0  0  0  0  0  0  0
   -4.4615   -2.5596    0.7830 C   0  0  0  0  0  0  0  0  0  0  0  0
   -5.3464   -1.5008    0.9722 C   0  0  0  0  0  0  0  0  0  0  0  0
   -4.8546   -0.2256    1.2419 C   0  0  0  0  0  0  0  0  0  0  0  0
   -3.4780   -0.0076    1.3113 C   0  0  0  0  0  0  0  0  0  0  0  0
   -0.4273   -1.1490   -1.3750 C   0  0  0  0  0  0  0  0  0  0  0  0
   -1.7672   -0.9140   -2.1577 C   0  0  0  0  0  0  0  0  0  0  0  0
   -2.4152   -1.9115   -2.8008 C   0  0  0  0  0  0  0  0  0  0  0  0
   -2.0079   -3.3512   -2.8420 C   0  0  0  0  0  0  0  0  0  0  0  0
   -0.9402   -3.6583   -1.8616 C   0  0  0  0  0  0  0  0  0  0  0  0
   -0.1746   -2.6573   -1.1635 C   0  0  0  0  0  0  0  0  0  0  0  0
    0.7268   -3.3686   -0.3800 C   0  0  0  0  0  0  0  0  0  0  0  0
    1.7116   -3.0110    0.4318 O   0  0  0  0  0  0  0  0  0  0  0  0
    0.4629   -4.7120   -0.5167 N   0  0  0  0  0  0  0  0  0  0  0  0
    1.1522   -5.7754    0.1994 C   0  0  0  0  0  0  0  0  0  0  0  0
    0.4807   -6.0922    1.5254 C   0  0  0  0  0  0  0  0  0  0  0  0
   -0.5322   -4.9036   -1.4353 C   0  0  0  0  0  0  0  0  0  0  0  0
   -0.9405   -6.1265   -1.7532 O   0  0  0  0  0  0  0  0  0  0  0  0
   -5.5446    0.9814   -3.2926 H   0  0  0  0  0  0  0  0  0  0  0  0
   -4.9169    1.2865   -1.6675 H   0  0  0  0  0  0  0  0  0  0  0  0
   -4.9897   -0.3688   -2.2924 H   0  0  0  0  0  0  0  0  0  0  0  0
   -3.2990    0.2892   -4.0924 H   0  0  0  0  0  0  0  0  0  0  0  0
   -3.2888    1.8922   -3.4664 H   0  0  0  0  0  0  0  0  0  0  0  0
   -0.9487    5.4032   -3.9211 H   0  0  0  0  0  0  0  0  0  0  0  0
   -2.0651    6.6364   -3.3503 H   0  0  0  0  0  0  0  0  0  0  0  0
    0.4687    5.7170   -1.8619 H   0  0  0  0  0  0  0  0  0  0  0  0
    0.3209    7.1915   -2.8342 H   0  0  0  0  0  0  0  0  0  0  0  0
   -0.6088    7.0173   -1.3410 H   0  0  0  0  0  0  0  0  0  0  0  0
   -4.0051    4.3917   -1.5466 H   0  0  0  0  0  0  0  0  0  0  0  0
   -3.7861    6.0573   -2.0573 H   0  0  0  0  0  0  0  0  0  0  0  0
   -2.5351    4.7978    0.4555 H   0  0  0  0  0  0  0  0  0  0  0  0
   -2.3656    6.4878   -0.0325 H   0  0  0  0  0  0  0  0  0  0  0  0
   -3.9511    5.8563    0.4202 H   0  0  0  0  0  0  0  0  0  0  0  0
    4.1444   -0.3854    0.2961 H   0  0  0  0  0  0  0  0  0  0  0  0
    3.3739    1.1755    0.4354 H   0  0  0  0  0  0  0  0  0  0  0  0
    2.5885    0.5473    2.7749 H   0  0  0  0  0  0  0  0  0  0  0  0
    3.3235   -1.0282    2.5947 H   0  0  0  0  0  0  0  0  0  0  0  0
    4.3420    2.7852    3.0262 H   0  0  0  0  0  0  0  0  0  0  0  0
    6.7208    2.8642    3.8097 H   0  0  0  0  0  0  0  0  0  0  0  0
    8.8863    1.1216    4.2523 H   0  0  0  0  0  0  0  0  0  0  0  0
    9.4979   -1.2846    4.0849 H   0  0  0  0  0  0  0  0  0  0  0  0
    7.8571   -2.9465    3.2784 H   0  0  0  0  0  0  0  0  0  0  0  0
    5.5679   -2.2478    2.6396 H   0  0  0  0  0  0  0  0  0  0  0  0
   -0.9078   -0.1549    2.0248 H   0  0  0  0  0  0  0  0  0  0  0  0
   -0.5925   -1.7544    1.4711 H   0  0  0  0  0  0  0  0  0  0  0  0
   -2.4137   -3.1885    0.7211 H   0  0  0  0  0  0  0  0  0  0  0  0
   -4.8422   -3.5579    0.5828 H   0  0  0  0  0  0  0  0  0  0  0  0
   -6.4184   -1.6705    0.9193 H   0  0  0  0  0  0  0  0  0  0  0  0
   -5.5425    0.6004    1.4006 H   0  0  0  0  0  0  0  0  0  0  0  0
   -3.1163    0.9954    1.5269 H   0  0  0  0  0  0  0  0  0  0  0  0
    0.3737   -0.8110   -2.0531 H   0  0  0  0  0  0  0  0  0  0  0  0
   -3.3413   -1.7313   -3.3350 H   0  0  0  0  0  0  0  0  0  0  0  0
   -1.6729   -3.6050   -3.8550 H   0  0  0  0  0  0  0  0  0  0  0  0
   -2.8889   -3.9672   -2.6214 H   0  0  0  0  0  0  0  0  0  0  0  0
    1.9609   -2.0819    0.2359 H   0  0  0  0  0  0  0  0  0  0  0  0
    1.1732   -6.6620   -0.4435 H   0  0  0  0  0  0  0  0  0  0  0  0
    2.1919   -5.4676    0.3545 H   0  0  0  0  0  0  0  0  0  0  0  0
    0.4547   -5.2118    2.1776 H   0  0  0  0  0  0  0  0  0  0  0  0
   -0.5529   -6.4253    1.3754 H   0  0  0  0  0  0  0  0  0  0  0  0
    1.0243   -6.8883    2.0448 H   0  0  0  0  0  0  0  0  0  0  0  0
   -1.6310   -6.0417   -2.4328 H   0  0  0  0  0  0  0  0  0  0  0  0
  1  2  1  0
  2  3  1  0
  3  4  2  0
  4  5  1  0
  5  6  1  0
  6  7  2  0
  6  8  1  0
  8  9  1  0
  9 10  1  0
  8 11  1  0
 11 12  1  0
  4 13  1  0
 13 14  1  0
 14 15  2  0
 14 16  1  0
 16 17  1  0
 17 18  2  3
 18 19  1  0
 19 20  1  0
 20 21  1  0
 21 22  2  0
 22 23  1  0
 23 24  1  0
 24 25  2  0
 25 26  1  0
 26 27  2  0
 27 28  1  0
 28 29  2  0
 17 30  1  0
 30 31  1  0
 31 32  1  0
 32 33  2  0
 33 34  1  0
 34 35  2  0
 35 36  1  0
 36 37  2  0
 30 38  1  0
 38 39  1  0
 39 40  2  0
 40 41  1  0
 41 42  1  0
 42 43  1  0
 43 44  2  0
 44 45  1  0
 44 46  1  0
 46 47  1  0
 47 48  1  0
 46 49  1  0
 49 50  1  0
 39  3  1  0
 49 42  2  0
 30 13  1  0
 37 32  1  0
 43 38  1  0
 29 21  1  0
 29 24  1  0
  1 51  1  0
  1 52  1  0
  1 53  1  0
  2 54  1  0
  2 55  1  0
  9 56  1  0
  9 57  1  0
 10 58  1  0
 10 59  1  0
 10 60  1  0
 11 61  1  0
 11 62  1  0
 12 63  1  0
 12 64  1  0
 12 65  1  0
 19 66  1  0
 19 67  1  0
 20 68  1  0
 20 69  1  0
 22 70  1  0
 23 71  1  0
 25 72  1  0
 26 73  1  0
 27 74  1  0
 28 75  1  0
 31 76  1  0
 31 77  1  0
 33 78  1  0
 34 79  1  0
 35 80  1  0
 36 81  1  0
 37 82  1  0
 38 83  1  0
 40 84  1  0
 41 85  1  0
 41 86  1  0
 45 87  1  0
 47 88  1  0
 47 89  1  0
 48 90  1  0
 48 91  1  0
 48 92  1  0
 50 93  1  0
M  END
$$$$
