
     RDKit          3D

 39 41  0  0  0  0  0  0  0  0999 V2000
    2.5763    2.5870   -1.7558 O   0  0  0  0  0  0  0  0  0  0  0  0
    3.2209    1.9326   -0.9430 C   0  0  0  0  0  0  0  0  0  0  0  0
    4.3957    2.4243   -0.5131 O   0  0  0  0  0  0  0  0  0  0  0  0
    2.7868    0.5703   -0.3798 C   0  0  0  0  0  0  0  0  0  0  0  0
    3.5580   -0.0669    0.7816 C   0  0  0  0  0  0  0  0  0  0  0  0
    4.9650   -0.1088    0.7688 C   0  0  0  0  0  0  0  0  0  0  0  0
    5.6874   -0.7370    1.7879 C   0  0  0  0  0  0  0  0  0  0  0  0
    5.0190   -1.3664    2.8311 C   0  0  0  0  0  0  0  0  0  0  0  0
    3.6292   -1.3828    2.8449 C   0  0  0  0  0  0  0  0  0  0  0  0
    2.9076   -0.7548    1.8244 C   0  0  0  0  0  0  0  0  0  0  0  0
    1.3210    0.6542   -0.1953 N   0  0  0  0  0  0  0  0  0  0  0  0
    0.5157   -0.0784   -1.0482 C   0  0  0  0  0  0  0  0  0  0  0  0
    0.8963   -0.8429   -1.9243 O   0  0  0  0  0  0  0  0  0  0  0  0
   -0.9192    0.1724   -0.7551 C   0  0  0  0  0  0  0  0  0  0  0  0
   -1.8943   -0.4359   -1.4440 C   0  0  0  0  0  0  0  0  0  0  0  0
   -3.3356   -0.2661   -1.2305 C   0  0  0  0  0  0  0  0  0  0  0  0
   -3.9668    0.9583   -1.5018 C   0  0  0  0  0  0  0  0  0  0  0  0
   -5.3427    1.1028   -1.3096 C   0  0  0  0  0  0  0  0  0  0  0  0
   -6.0791    0.0203   -0.8540 C   0  0  0  0  0  0  0  0  0  0  0  0
   -7.4241    0.1608   -0.6671 O   0  0  0  0  0  0  0  0  0  0  0  0
   -5.4639   -1.2008   -0.5904 C   0  0  0  0  0  0  0  0  0  0  0  0
   -6.2537   -2.2260   -0.1468 O   0  0  0  0  0  0  0  0  0  0  0  0
   -4.0942   -1.3554   -0.7786 C   0  0  0  0  0  0  0  0  0  0  0  0
   -1.0708    1.2787    0.5452 S   0  0  0  0  0  0  0  0  0  0  0  0
    0.6715    1.4859    0.6985 C   0  0  0  0  0  0  0  0  0  0  0  0
    1.3205    2.5633    1.7967 S   0  0  0  0  0  0  0  0  0  0  0  0
    4.4638    3.3056   -0.9386 H   0  0  0  0  0  0  0  0  0  0  0  0
    2.9847   -0.1177   -1.2140 H   0  0  0  0  0  0  0  0  0  0  0  0
    5.5306    0.3431   -0.0437 H   0  0  0  0  0  0  0  0  0  0  0  0
    6.7742   -0.7385    1.7599 H   0  0  0  0  0  0  0  0  0  0  0  0
    5.5795   -1.8548    3.6236 H   0  0  0  0  0  0  0  0  0  0  0  0
    3.1017   -1.8917    3.6480 H   0  0  0  0  0  0  0  0  0  0  0  0
    1.8242   -0.8276    1.8686 H   0  0  0  0  0  0  0  0  0  0  0  0
   -1.6363   -1.1382   -2.2359 H   0  0  0  0  0  0  0  0  0  0  0  0
   -3.3945    1.8086   -1.8666 H   0  0  0  0  0  0  0  0  0  0  0  0
   -5.8334    2.0493   -1.5149 H   0  0  0  0  0  0  0  0  0  0  0  0
   -7.7203   -0.7149   -0.3484 H   0  0  0  0  0  0  0  0  0  0  0  0
   -5.6900   -3.0057   -0.0041 H   0  0  0  0  0  0  0  0  0  0  0  0
   -3.6109   -2.3061   -0.5757 H   0  0  0  0  0  0  0  0  0  0  0  0
  1  2  2  0
  2  3  1  0
  2  4  1  0
  4  5  1  0
  5  6  2  0
  6  7  1  0
  7  8  2  0
  8  9  1  0
  9 10  2  0
  4 11  1  0
 11 12  1  0
 12 13  2  0
 12 14  1  0
 14 15  2  3
 15 16  1  0
 16 17  2  0
 17 18  1  0
 18 19  2  0
 19 20  1  0
 19 21  1  0
 21 22  1  0
 21 23  2  0
 14 24  1  0
 24 25  1  0
 25 26  2  0
 10  5  1  0
 25 11  1  0
 23 16  1  0
  3 27  1  0
  4 28  1  0
  6 29  1  0
  7 30  1  0
  8 31  1  0
  9 32  1  0
 10 33  1  0
 15 34  1  0
 17 35  1  0
 18 36  1  0
 20 37  1  0
 22 38  1  0
 23 39  1  0
M  END
$$$$
