
     RDKit          3D

 47 50  0  0  0  0  0  0  0  0999 V2000
    3.2149   -1.4880   -0.8688 C   0  0  0  0  0  0  0  0  0  0  0  0
    2.7854   -0.1206   -0.6884 N   0  0  0  0  0  0  0  0  0  0  0  0
    3.0034    0.6718    0.4235 C   0  0  0  0  0  0  0  0  0  0  0  0
    3.7858    0.3079    1.5968 C   0  0  0  0  0  0  0  0  0  0  0  0
    3.1728    0.2273    2.8524 C   0  0  0  0  0  0  0  0  0  0  0  0
    3.9191   -0.1171    3.9813 C   0  0  0  0  0  0  0  0  0  0  0  0
    5.2837   -0.3769    3.8632 C   0  0  0  0  0  0  0  0  0  0  0  0
    5.9041   -0.2901    2.6179 C   0  0  0  0  0  0  0  0  0  0  0  0
    5.1585    0.0532    1.4882 C   0  0  0  0  0  0  0  0  0  0  0  0
    2.2949    1.8298    0.1552 C   0  0  0  0  0  0  0  0  0  0  0  0
    1.6970    1.7842   -1.0758 N   0  0  0  0  0  0  0  0  0  0  0  0
    2.0271    0.6125   -1.5646 C   0  0  0  0  0  0  0  0  0  0  0  0
    1.5325    0.0310   -3.1205 S   0  0  0  0  0  0  0  0  0  0  0  0
   -0.2363    0.4545   -3.0247 C   0  0  0  0  0  0  0  0  0  0  0  0
   -0.9709   -0.3442   -1.9401 C   0  0  0  0  0  0  0  0  0  0  0  0
   -0.4769   -1.3774   -1.4789 O   0  0  0  0  0  0  0  0  0  0  0  0
   -2.2445    0.1555   -1.5677 N   0  0  0  0  0  0  0  0  0  0  0  0
   -2.9948    0.9942   -2.5129 C   0  0  0  0  0  0  0  0  0  0  0  0
   -4.2419    1.6454   -1.9435 C   0  0  0  0  0  0  0  0  0  0  0  0
   -5.1307    0.5791   -1.3422 C   0  0  0  0  0  0  0  0  0  0  0  0
   -4.3541   -0.1823   -0.3054 C   0  0  0  0  0  0  0  0  0  0  0  0
   -5.0563   -0.7284    0.7848 C   0  0  0  0  0  0  0  0  0  0  0  0
   -4.3855   -1.4288    1.7813 C   0  0  0  0  0  0  0  0  0  0  0  0
   -3.0091   -1.5847    1.6974 C   0  0  0  0  0  0  0  0  0  0  0  0
   -2.3074   -1.0595    0.6068 C   0  0  0  0  0  0  0  0  0  0  0  0
   -2.9619   -0.3773   -0.4311 C   0  0  0  0  0  0  0  0  0  0  0  0
    3.5069   -1.9233    0.0891 H   0  0  0  0  0  0  0  0  0  0  0  0
    4.0646   -1.4913   -1.5562 H   0  0  0  0  0  0  0  0  0  0  0  0
    2.3885   -2.0789   -1.2715 H   0  0  0  0  0  0  0  0  0  0  0  0
    2.1081    0.4244    2.9574 H   0  0  0  0  0  0  0  0  0  0  0  0
    3.4348   -0.1817    4.9522 H   0  0  0  0  0  0  0  0  0  0  0  0
    5.8644   -0.6429    4.7428 H   0  0  0  0  0  0  0  0  0  0  0  0
    6.9696   -0.4845    2.5267 H   0  0  0  0  0  0  0  0  0  0  0  0
    5.6577    0.1319    0.5253 H   0  0  0  0  0  0  0  0  0  0  0  0
    2.1992    2.7008    0.7910 H   0  0  0  0  0  0  0  0  0  0  0  0
   -0.6930    0.2281   -3.9927 H   0  0  0  0  0  0  0  0  0  0  0  0
   -0.3093    1.5274   -2.8314 H   0  0  0  0  0  0  0  0  0  0  0  0
   -2.3532    1.7943   -2.8905 H   0  0  0  0  0  0  0  0  0  0  0  0
   -3.2508    0.3598   -3.3713 H   0  0  0  0  0  0  0  0  0  0  0  0
   -3.9603    2.3808   -1.1786 H   0  0  0  0  0  0  0  0  0  0  0  0
   -4.7782    2.1852   -2.7317 H   0  0  0  0  0  0  0  0  0  0  0  0
   -5.4845   -0.1174   -2.1115 H   0  0  0  0  0  0  0  0  0  0  0  0
   -6.0083    1.0591   -0.8936 H   0  0  0  0  0  0  0  0  0  0  0  0
   -6.1337   -0.5997    0.8636 H   0  0  0  0  0  0  0  0  0  0  0  0
   -4.9325   -1.8420    2.6242 H   0  0  0  0  0  0  0  0  0  0  0  0
   -2.4702   -2.1147    2.4784 H   0  0  0  0  0  0  0  0  0  0  0  0
   -1.2288   -1.1863    0.6111 H   0  0  0  0  0  0  0  0  0  0  0  0
  1  2  1  0
  2  3  1  0
  3  4  1  0
  4  5  2  0
  5  6  1  0
  6  7  2  0
  7  8  1  0
  8  9  2  0
  3 10  2  0
 10 11  1  0
 11 12  2  0
 12 13  1  0
 13 14  1  0
 14 15  1  0
 15 16  2  0
 15 17  1  0
 17 18  1  0
 18 19  1  0
 19 20  1  0
 20 21  1  0
 21 22  2  0
 22 23  1  0
 23 24  2  0
 24 25  1  0
 25 26  2  0
 12  2  1  0
 26 17  1  0
  9  4  1  0
 26 21  1  0
  1 27  1  0
  1 28  1  0
  1 29  1  0
  5 30  1  0
  6 31  1  0
  7 32  1  0
  8 33  1  0
  9 34  1  0
 10 35  1  0
 14 36  1  0
 14 37  1  0
 18 38  1  0
 18 39  1  0
 19 40  1  0
 19 41  1  0
 20 42  1  0
 20 43  1  0
 22 44  1  0
 23 45  1  0
 24 46  1  0
 25 47  1  0
M  END
$$$$
