
     RDKit          3D

 45 47  0  0  0  0  0  0  0  0999 V2000
    6.8273    2.1370    0.7894 C   0  0  0  0  0  0  0  0  0  0  0  0
    5.5197    1.4008    0.7920 C   0  0  0  0  0  0  0  0  0  0  0  0
    5.4916    0.0167    0.9774 C   0  0  0  0  0  0  0  0  0  0  0  0
    4.2792   -0.6745    0.9410 C   0  0  0  0  0  0  0  0  0  0  0  0
    3.0683    0.0025    0.7154 C   0  0  0  0  0  0  0  0  0  0  0  0
    1.8278   -0.7638    0.6701 C   0  0  0  0  0  0  0  0  0  0  0  0
    1.4700   -1.6919    1.6272 C   0  0  0  0  0  0  0  0  0  0  0  0
   -0.0453   -2.3866    1.2339 S   0  0  0  0  0  0  0  0  0  0  0  0
   -0.1258   -1.3949   -0.1768 C   0  0  0  0  0  0  0  0  0  0  0  0
   -1.3183   -1.4782   -1.0850 C   0  0  0  0  0  0  0  0  0  0  0  0
   -1.0461   -2.4350   -2.1633 C   0  0  0  0  0  0  0  0  0  0  0  0
   -0.8688   -3.2011   -3.0186 N   0  0  0  0  0  0  0  0  0  0  0  0
   -1.5685   -0.1136   -1.6907 C   0  0  0  0  0  0  0  0  0  0  0  0
   -2.7076    0.4978   -1.8642 N   0  0  0  0  0  0  0  0  0  0  0  0
   -3.9228   -0.1090   -1.5007 C   0  0  0  0  0  0  0  0  0  0  0  0
   -4.4132   -1.1772   -2.2676 C   0  0  0  0  0  0  0  0  0  0  0  0
   -5.6280   -1.7887   -1.9536 C   0  0  0  0  0  0  0  0  0  0  0  0
   -6.3853   -1.3181   -0.8856 C   0  0  0  0  0  0  0  0  0  0  0  0
   -5.9345   -0.2299   -0.1373 C   0  0  0  0  0  0  0  0  0  0  0  0
   -4.7081    0.3828   -0.4377 C   0  0  0  0  0  0  0  0  0  0  0  0
   -4.2254    1.8154    0.5234 S   0  0  0  0  0  0  0  0  0  0  0  0
   -3.2528    0.9820    1.7678 C   0  0  0  0  0  0  0  0  0  0  0  0
   -2.6723    1.8673    2.6114 F   0  0  0  0  0  0  0  0  0  0  0  0
   -4.0101    0.1487    2.5220 F   0  0  0  0  0  0  0  0  0  0  0  0
   -2.2593    0.2360    1.2294 F   0  0  0  0  0  0  0  0  0  0  0  0
    0.9129   -0.6042   -0.3569 N   0  0  0  0  0  0  0  0  0  0  0  0
    3.0860    1.3995    0.5220 C   0  0  0  0  0  0  0  0  0  0  0  0
    1.8326    2.1922    0.2576 C   0  0  0  0  0  0  0  0  0  0  0  0
    4.3182    2.0789    0.5501 C   0  0  0  0  0  0  0  0  0  0  0  0
    7.3123    2.0348   -0.1866 H   0  0  0  0  0  0  0  0  0  0  0  0
    7.4930    1.7413    1.5628 H   0  0  0  0  0  0  0  0  0  0  0  0
    6.6821    3.2025    0.9960 H   0  0  0  0  0  0  0  0  0  0  0  0
    6.4151   -0.5351    1.1401 H   0  0  0  0  0  0  0  0  0  0  0  0
    4.2941   -1.7536    1.0714 H   0  0  0  0  0  0  0  0  0  0  0  0
    2.0048   -1.9863    2.5187 H   0  0  0  0  0  0  0  0  0  0  0  0
   -2.1964   -1.7991   -0.5148 H   0  0  0  0  0  0  0  0  0  0  0  0
   -0.6815    0.4260   -2.0709 H   0  0  0  0  0  0  0  0  0  0  0  0
   -3.8544   -1.5277   -3.1327 H   0  0  0  0  0  0  0  0  0  0  0  0
   -5.9905   -2.6198   -2.5538 H   0  0  0  0  0  0  0  0  0  0  0  0
   -7.3393   -1.7836   -0.6465 H   0  0  0  0  0  0  0  0  0  0  0  0
   -6.5571    0.1424    0.6732 H   0  0  0  0  0  0  0  0  0  0  0  0
    1.0451    1.9306    0.9721 H   0  0  0  0  0  0  0  0  0  0  0  0
    2.0114    3.2677    0.3653 H   0  0  0  0  0  0  0  0  0  0  0  0
    1.4803    2.0142   -0.7635 H   0  0  0  0  0  0  0  0  0  0  0  0
    4.3399    3.1538    0.3769 H   0  0  0  0  0  0  0  0  0  0  0  0
  1  2  1  0
  2  3  2  0
  3  4  1  0
  4  5  2  0
  5  6  1  0
  6  7  2  0
  7  8  1  0
  8  9  1  0
  9 10  1  0
 10 11  1  0
 11 12  3  0
 10 13  1  0
 13 14  2  3
 14 15  1  0
 15 16  2  0
 16 17  1  0
 17 18  2  0
 18 19  1  0
 19 20  2  0
 20 21  1  0
 21 22  1  0
 22 23  1  0
 22 24  1  0
 22 25  1  0
  9 26  2  0
  5 27  1  0
 27 28  1  0
 27 29  2  0
 29  2  1  0
 26  6  1  0
 20 15  1  0
  1 30  1  0
  1 31  1  0
  1 32  1  0
  3 33  1  0
  4 34  1  0
  7 35  1  0
 10 36  1  0
 13 37  1  0
 16 38  1  0
 17 39  1  0
 18 40  1  0
 19 41  1  0
 28 42  1  0
 28 43  1  0
 28 44  1  0
 29 45  1  0
M  END
$$$$
