
     RDKit          3D

 40 41  0  0  0  0  0  0  0  0999 V2000
   -4.6773   -0.6332    2.0629 C   0  0  0  0  0  0  0  0  0  0  0  0
   -4.8149   -0.3494    0.6363 N   0  0  0  0  0  0  0  0  0  0  0  0
   -4.3282    1.0012    0.2941 C   0  0  0  0  0  0  0  0  0  0  0  0
   -2.7983    1.1709    0.3317 C   0  0  0  0  0  0  0  0  0  0  0  0
   -2.0836    0.1238   -0.4057 N   0  0  0  0  0  0  0  0  0  0  0  0
   -0.7769    0.4141   -0.7958 C   0  0  0  0  0  0  0  0  0  0  0  0
   -0.2814    1.5315   -0.6174 O   0  0  0  0  0  0  0  0  0  0  0  0
    0.0469   -0.6731   -1.4706 C   0  0  0  0  0  0  0  0  0  0  0  0
    0.9328   -1.6721   -0.2233 S   0  0  0  0  0  0  0  0  0  0  0  0
    2.3639   -0.6311    0.0343 C   0  0  0  0  0  0  0  0  0  0  0  0
    2.2840    0.3598    1.0216 C   0  0  0  0  0  0  0  0  0  0  0  0
    3.3797    1.1858    1.3095 C   0  0  0  0  0  0  0  0  0  0  0  0
    4.5965    1.0330    0.6289 C   0  0  0  0  0  0  0  0  0  0  0  0
    5.7809    1.9215    0.9305 C   0  0  0  0  0  0  0  0  0  0  0  0
    6.9066    1.2061    1.2017 F   0  0  0  0  0  0  0  0  0  0  0  0
    5.5898    2.7402    2.0005 F   0  0  0  0  0  0  0  0  0  0  0  0
    6.0944    2.7327   -0.1157 F   0  0  0  0  0  0  0  0  0  0  0  0
    4.6938    0.0399   -0.3562 C   0  0  0  0  0  0  0  0  0  0  0  0
    3.5835   -0.7727   -0.6403 C   0  0  0  0  0  0  0  0  0  0  0  0
    3.7487   -1.7768   -1.6724 N   0  0  0  0  0  4  0  0  0  0  0  0
    3.0831   -1.6419   -2.7079 O   0  0  0  0  0  0  0  0  0  0  0  0
    4.5826   -2.6666   -1.4583 O   0  0  0  0  0  1  0  0  0  0  0  0
   -2.5722   -1.2426   -0.1740 C   0  0  0  0  0  0  0  0  0  0  0  0
   -4.1109   -1.3430   -0.1949 C   0  0  0  0  0  0  0  0  0  0  0  0
   -3.6404   -0.6105    2.4128 H   0  0  0  0  0  0  0  0  0  0  0  0
   -5.2504    0.0917    2.6512 H   0  0  0  0  0  0  0  0  0  0  0  0
   -5.0926   -1.6200    2.2957 H   0  0  0  0  0  0  0  0  0  0  0  0
   -4.7999    1.7502    0.9420 H   0  0  0  0  0  0  0  0  0  0  0  0
   -4.6753    1.2302   -0.7223 H   0  0  0  0  0  0  0  0  0  0  0  0
   -2.5409    2.1534   -0.0802 H   0  0  0  0  0  0  0  0  0  0  0  0
   -2.4324    1.1480    1.3653 H   0  0  0  0  0  0  0  0  0  0  0  0
   -0.5838   -1.3156   -2.0892 H   0  0  0  0  0  0  0  0  0  0  0  0
    0.7541   -0.1961   -2.1577 H   0  0  0  0  0  0  0  0  0  0  0  0
    1.3593    0.5122    1.5779 H   0  0  0  0  0  0  0  0  0  0  0  0
    3.2715    1.9535    2.0763 H   0  0  0  0  0  0  0  0  0  0  0  0
    5.6295   -0.0982   -0.8984 H   0  0  0  0  0  0  0  0  0  0  0  0
   -2.1724   -1.9276   -0.9244 H   0  0  0  0  0  0  0  0  0  0  0  0
   -2.1822   -1.5633    0.7991 H   0  0  0  0  0  0  0  0  0  0  0  0
   -4.4494   -1.2076   -1.2309 H   0  0  0  0  0  0  0  0  0  0  0  0
   -4.4184   -2.3581    0.0847 H   0  0  0  0  0  0  0  0  0  0  0  0
  1  2  1  0
  2  3  1  0
  3  4  1  0
  4  5  1  0
  5  6  1  0
  6  7  2  0
  6  8  1  0
  8  9  1  0
  9 10  1  0
 10 11  2  0
 11 12  1  0
 12 13  2  0
 13 14  1  0
 14 15  1  0
 14 16  1  0
 14 17  1  0
 13 18  1  0
 18 19  2  0
 19 20  1  0
 20 21  2  0
 20 22  1  0
  5 23  1  0
 23 24  1  0
 24  2  1  0
 19 10  1  0
  1 25  1  0
  1 26  1  0
  1 27  1  0
  3 28  1  0
  3 29  1  0
  4 30  1  0
  4 31  1  0
  8 32  1  0
  8 33  1  0
 11 34  1  0
 12 35  1  0
 18 36  1  0
 23 37  1  0
 23 38  1  0
 24 39  1  0
 24 40  1  0
M  CHG  2  20   1  22  -1
M  END
$$$$
