
     RDKit          3D

 50 53  0  0  0  0  0  0  0  0999 V2000
   -0.2798   -2.4283   -4.1957 C   0  0  0  0  0  0  0  0  0  0  0  0
   -0.1096   -1.3432   -3.2827 O   0  0  0  0  0  0  0  0  0  0  0  0
   -0.7420   -1.5231   -2.0951 C   0  0  0  0  0  0  0  0  0  0  0  0
   -1.4152   -2.4904   -1.7802 O   0  0  0  0  0  0  0  0  0  0  0  0
   -0.4994   -0.3383   -1.2375 C   0  0  0  0  0  0  0  0  0  0  0  0
   -1.4756    0.2509   -0.5041 C   0  0  0  0  0  0  0  0  0  0  0  0
   -2.8885   -0.1609   -0.5168 C   0  0  0  0  0  0  0  0  0  0  0  0
   -3.4765   -0.7085    0.6298 C   0  0  0  0  0  0  0  0  0  0  0  0
   -4.8175   -1.0973    0.6215 C   0  0  0  0  0  0  0  0  0  0  0  0
   -5.5824   -0.9407   -0.5344 C   0  0  0  0  0  0  0  0  0  0  0  0
   -5.0062   -0.3944   -1.6853 C   0  0  0  0  0  0  0  0  0  0  0  0
   -5.7890   -0.2331   -2.8749 C   0  0  0  0  0  0  0  0  0  0  0  0
   -6.4217   -0.0921   -3.8378 N   0  0  0  0  0  0  0  0  0  0  0  0
   -3.6625   -0.0020   -1.6743 C   0  0  0  0  0  0  0  0  0  0  0  0
   -1.1335    1.4230    0.4087 C   0  0  0  0  0  0  0  0  0  0  0  0
    0.3285    1.8955    0.2365 C   0  0  0  0  0  0  0  0  0  0  0  0
    0.5546    2.5692   -1.1338 C   0  0  0  0  0  0  0  0  0  0  0  0
    1.0514    1.4389   -2.0588 C   0  0  0  0  0  0  0  0  0  0  0  0
    0.9313    0.1715   -1.2014 C   0  0  0  0  0  0  0  0  0  0  0  0
    1.1678    0.7045    0.1370 N   0  0  0  0  0  0  0  0  0  0  0  0
    2.4210    0.5851    0.7045 C   0  0  0  0  0  0  0  0  0  0  0  0
    3.3397   -0.0259    0.1701 O   0  0  0  0  0  0  0  0  0  0  0  0
    2.5333    1.2060    1.9212 N   0  0  0  0  0  0  0  0  0  0  0  0
    3.7434    1.1091    2.7053 C   0  0  0  0  0  0  0  0  0  0  0  0
    3.6163   -0.0045    3.6982 C   0  0  0  0  0  0  0  0  0  0  0  0
    3.8676   -1.4342    3.2912 C   0  0  0  0  0  0  0  0  0  0  0  0
    4.8449   -0.7275    4.1893 C   0  0  0  0  0  0  0  0  0  0  0  0
    0.2677   -2.1891   -5.1115 H   0  0  0  0  0  0  0  0  0  0  0  0
   -1.3375   -2.5549   -4.4473 H   0  0  0  0  0  0  0  0  0  0  0  0
    0.1332   -3.3511   -3.7762 H   0  0  0  0  0  0  0  0  0  0  0  0
   -2.8883   -0.8578    1.5328 H   0  0  0  0  0  0  0  0  0  0  0  0
   -5.2613   -1.5328    1.5136 H   0  0  0  0  0  0  0  0  0  0  0  0
   -6.6250   -1.2533   -0.5325 H   0  0  0  0  0  0  0  0  0  0  0  0
   -3.2185    0.4249   -2.5719 H   0  0  0  0  0  0  0  0  0  0  0  0
   -1.2692    1.1022    1.4497 H   0  0  0  0  0  0  0  0  0  0  0  0
   -1.8167    2.2622    0.2303 H   0  0  0  0  0  0  0  0  0  0  0  0
    0.6128    2.5695    1.0496 H   0  0  0  0  0  0  0  0  0  0  0  0
   -0.3472    3.0549   -1.5204 H   0  0  0  0  0  0  0  0  0  0  0  0
    1.3344    3.3361   -1.0559 H   0  0  0  0  0  0  0  0  0  0  0  0
    2.1025    1.6216   -2.3138 H   0  0  0  0  0  0  0  0  0  0  0  0
    0.4864    1.3949   -2.9956 H   0  0  0  0  0  0  0  0  0  0  0  0
    1.6565   -0.6017   -1.4726 H   0  0  0  0  0  0  0  0  0  0  0  0
    1.6708    1.2724    2.4374 H   0  0  0  0  0  0  0  0  0  0  0  0
    3.8571    2.0586    3.2380 H   0  0  0  0  0  0  0  0  0  0  0  0
    4.6111    0.9790    2.0494 H   0  0  0  0  0  0  0  0  0  0  0  0
    2.8320    0.1830    4.4231 H   0  0  0  0  0  0  0  0  0  0  0  0
    3.2383   -2.2034    3.7234 H   0  0  0  0  0  0  0  0  0  0  0  0
    4.1704   -1.6361    2.2687 H   0  0  0  0  0  0  0  0  0  0  0  0
    4.8795   -1.0236    5.2315 H   0  0  0  0  0  0  0  0  0  0  0  0
    5.8103   -0.4647    3.7712 H   0  0  0  0  0  0  0  0  0  0  0  0
  1  2  1  0
  2  3  1  0
  3  4  2  0
  3  5  1  0
  5  6  2  0
  6  7  1  0
  7  8  2  0
  8  9  1  0
  9 10  2  0
 10 11  1  0
 11 12  1  0
 12 13  3  0
 11 14  2  0
  6 15  1  0
 15 16  1  0
 16 17  1  0
 17 18  1  0
 18 19  1  0
 19 20  1  0
 20 21  1  0
 21 22  2  0
 21 23  1  0
 23 24  1  0
 24 25  1  0
 25 26  1  0
 26 27  1  0
 19  5  1  0
 27 25  1  0
 14  7  1  0
 20 16  1  0
  1 28  1  0
  1 29  1  0
  1 30  1  0
  8 31  1  0
  9 32  1  0
 10 33  1  0
 14 34  1  0
 15 35  1  0
 15 36  1  0
 16 37  1  0
 17 38  1  0
 17 39  1  0
 18 40  1  0
 18 41  1  0
 19 42  1  0
 23 43  1  0
 24 44  1  0
 24 45  1  0
 25 46  1  0
 26 47  1  0
 26 48  1  0
 27 49  1  0
 27 50  1  0
M  END
$$$$
