
     RDKit          3D

 33 33  0  0  0  0  0  0  0  0999 V2000
    6.1493    2.0781    1.9374 C   0  0  0  0  0  0  0  0  0  0  0  0
    4.8404    2.1096    2.2295 C   0  0  0  0  0  0  0  0  0  0  0  0
    3.7838    1.3724    1.4716 C   0  0  0  0  0  0  0  0  0  0  0  0
    3.2479    0.3480    2.3432 N   0  0  0  0  0  0  0  0  0  0  0  0
    2.1893   -0.4711    2.1014 C   0  0  0  0  0  0  0  0  0  0  0  0
    1.9423   -1.7745    3.1220 S   0  0  0  0  0  0  0  0  0  0  0  0
    1.4184   -0.1803    1.0038 N   0  0  0  0  0  0  0  0  0  0  0  0
    0.2033   -0.8652    0.7869 N   0  0  0  0  0  0  0  0  0  0  0  0
   -0.8544   -0.1200    0.2854 C   0  0  0  0  0  0  0  0  0  0  0  0
   -0.7022    1.0240   -0.1409 O   0  0  0  0  0  0  0  0  0  0  0  0
   -2.1852   -0.8734    0.3093 C   0  0  0  0  0  0  0  0  0  0  0  0
   -3.2808   -0.1229   -0.2093 O   0  0  0  0  0  0  0  0  0  0  0  0
   -3.5263   -0.4363   -1.5208 C   0  0  0  0  0  0  0  0  0  0  0  0
   -2.9785    0.3874   -2.5045 C   0  0  0  0  0  0  0  0  0  0  0  0
   -3.2306    0.1219   -3.8518 C   0  0  0  0  0  0  0  0  0  0  0  0
   -4.0442   -0.9560   -4.2060 C   0  0  0  0  0  0  0  0  0  0  0  0
   -4.3454   -1.2837   -5.8681 Cl  0  0  0  0  0  0  0  0  0  0  0  0
   -4.6215   -1.7634   -3.2267 C   0  0  0  0  0  0  0  0  0  0  0  0
   -4.3713   -1.4955   -1.8799 C   0  0  0  0  0  0  0  0  0  0  0  0
   -5.1176   -2.4945   -0.6854 Cl  0  0  0  0  0  0  0  0  0  0  0  0
    6.5390    1.4897    1.1101 H   0  0  0  0  0  0  0  0  0  0  0  0
    6.8656    2.6424    2.5296 H   0  0  0  0  0  0  0  0  0  0  0  0
    4.5036    2.7189    3.0673 H   0  0  0  0  0  0  0  0  0  0  0  0
    2.9855    2.0608    1.1751 H   0  0  0  0  0  0  0  0  0  0  0  0
    4.1756    0.8841    0.5708 H   0  0  0  0  0  0  0  0  0  0  0  0
    3.8521    0.0205    3.0901 H   0  0  0  0  0  0  0  0  0  0  0  0
    1.4215    0.7647    0.6208 H   0  0  0  0  0  0  0  0  0  0  0  0
    0.0417   -1.6747    1.3858 H   0  0  0  0  0  0  0  0  0  0  0  0
   -2.4172   -1.0891    1.3581 H   0  0  0  0  0  0  0  0  0  0  0  0
   -2.0542   -1.8360   -0.2013 H   0  0  0  0  0  0  0  0  0  0  0  0
   -2.3608    1.2379   -2.2220 H   0  0  0  0  0  0  0  0  0  0  0  0
   -2.7978    0.7623   -4.6164 H   0  0  0  0  0  0  0  0  0  0  0  0
   -5.2713   -2.5864   -3.5114 H   0  0  0  0  0  0  0  0  0  0  0  0
  1  2  2  0
  2  3  1  0
  3  4  1  0
  4  5  1  0
  5  6  2  0
  5  7  1  0
  7  8  1  0
  8  9  1  0
  9 10  2  0
  9 11  1  0
 11 12  1  0
 12 13  1  0
 13 14  2  0
 14 15  1  0
 15 16  2  0
 16 17  1  0
 16 18  1  0
 18 19  2  0
 19 20  1  0
 19 13  1  0
  1 21  1  0
  1 22  1  0
  2 23  1  0
  3 24  1  0
  3 25  1  0
  4 26  1  0
  7 27  1  0
  8 28  1  0
 11 29  1  0
 11 30  1  0
 14 31  1  0
 15 32  1  0
 18 33  1  0
M  END
$$$$
