
     RDKit          3D

 53 56  0  0  0  0  0  0  0  0999 V2000
   -8.2287   -0.8325   -1.0120 C   0  0  0  0  0  0  0  0  0  0  0  0
   -6.7546   -0.5742   -0.9142 C   0  0  0  0  0  0  0  0  0  0  0  0
   -5.8439   -1.5977   -1.1947 C   0  0  0  0  0  0  0  0  0  0  0  0
   -4.4682   -1.3609   -1.1138 C   0  0  0  0  0  0  0  0  0  0  0  0
   -3.9761   -0.0956   -0.7733 C   0  0  0  0  0  0  0  0  0  0  0  0
   -2.5762    0.0447   -0.6750 N   0  0  0  0  0  0  0  0  0  0  0  0
   -1.7545    1.1636   -0.7478 C   0  0  0  0  0  0  0  0  0  0  0  0
   -2.1504    2.6274   -1.4738 S   0  0  0  0  0  0  0  0  0  0  0  0
   -0.4798    0.8847   -0.1983 N   0  0  0  0  0  0  0  0  0  0  0  0
   -0.3994    0.1788    1.0942 C   0  0  0  0  0  0  0  0  0  0  0  0
   -0.0330    1.1025    2.2229 C   0  0  0  0  0  0  0  0  0  0  0  0
    1.0833    1.0452    3.0354 C   0  0  0  0  0  0  0  0  0  0  0  0
    1.1001    2.0786    4.0158 C   0  0  0  0  0  0  0  0  0  0  0  0
   -0.0139    2.8811    3.9330 C   0  0  0  0  0  0  0  0  0  0  0  0
   -1.0769    2.3803    2.6922 S   0  0  0  0  0  0  0  0  0  0  0  0
    0.7164    1.5847   -0.6995 C   0  0  0  0  0  0  0  0  0  0  0  0
    1.9542    0.7367   -0.6526 C   0  0  0  0  0  0  0  0  0  0  0  0
    3.0293    1.0541    0.0913 C   0  0  0  0  0  0  0  0  0  0  0  0
    4.2260    0.2140    0.0925 C   0  0  0  0  0  0  0  0  0  0  0  0
    5.3274    0.5375    0.8888 C   0  0  0  0  0  0  0  0  0  0  0  0
    6.4587   -0.2769    0.8743 C   0  0  0  0  0  0  0  0  0  0  0  0
    6.4959   -1.4132    0.0634 C   0  0  0  0  0  0  0  0  0  0  0  0
    5.4021   -1.7536   -0.7486 C   0  0  0  0  0  0  0  0  0  0  0  0
    5.4795   -2.9827   -1.6097 C   0  0  0  0  0  0  0  0  0  0  0  0
    4.2641   -0.9285   -0.7214 C   0  0  0  0  0  0  0  0  0  0  0  0
    3.1366   -1.2251   -1.5031 N   0  0  0  0  0  0  0  0  0  0  0  0
    1.9913   -0.4753   -1.5239 C   0  0  0  0  0  0  0  0  0  0  0  0
    1.0401   -0.8081   -2.2242 O   0  0  0  0  0  0  0  0  0  0  0  0
   -4.8857    0.9191   -0.4753 C   0  0  0  0  0  0  0  0  0  0  0  0
   -6.2641    0.6850   -0.5557 C   0  0  0  0  0  0  0  0  0  0  0  0
   -8.8114    0.0271   -0.6641 H   0  0  0  0  0  0  0  0  0  0  0  0
   -8.5067   -1.0339   -2.0518 H   0  0  0  0  0  0  0  0  0  0  0  0
   -8.5036   -1.6929   -0.3937 H   0  0  0  0  0  0  0  0  0  0  0  0
   -6.1993   -2.5854   -1.4811 H   0  0  0  0  0  0  0  0  0  0  0  0
   -3.7883   -2.1778   -1.3402 H   0  0  0  0  0  0  0  0  0  0  0  0
   -2.0470   -0.8127   -0.7859 H   0  0  0  0  0  0  0  0  0  0  0  0
   -1.3509   -0.3019    1.3471 H   0  0  0  0  0  0  0  0  0  0  0  0
    0.3393   -0.6235    1.0014 H   0  0  0  0  0  0  0  0  0  0  0  0
    1.8586    0.2939    2.9300 H   0  0  0  0  0  0  0  0  0  0  0  0
    1.8870    2.2199    4.7482 H   0  0  0  0  0  0  0  0  0  0  0  0
   -0.2653    3.7336    4.5479 H   0  0  0  0  0  0  0  0  0  0  0  0
    0.8370    2.5039   -0.1133 H   0  0  0  0  0  0  0  0  0  0  0  0
    0.5597    1.8920   -1.7402 H   0  0  0  0  0  0  0  0  0  0  0  0
    3.0347    1.9447    0.7115 H   0  0  0  0  0  0  0  0  0  0  0  0
    5.3158    1.4206    1.5239 H   0  0  0  0  0  0  0  0  0  0  0  0
    7.3157   -0.0269    1.4949 H   0  0  0  0  0  0  0  0  0  0  0  0
    7.3909   -2.0341    0.0708 H   0  0  0  0  0  0  0  0  0  0  0  0
    6.4551   -3.4739   -1.5246 H   0  0  0  0  0  0  0  0  0  0  0  0
    5.3364   -2.7189   -2.6626 H   0  0  0  0  0  0  0  0  0  0  0  0
    4.7155   -3.7062   -1.3071 H   0  0  0  0  0  0  0  0  0  0  0  0
    3.1301   -2.0362   -2.1053 H   0  0  0  0  0  0  0  0  0  0  0  0
   -4.5554    1.8990   -0.1437 H   0  0  0  0  0  0  0  0  0  0  0  0
   -6.9473    1.4959   -0.3179 H   0  0  0  0  0  0  0  0  0  0  0  0
  1  2  1  0
  2  3  2  0
  3  4  1  0
  4  5  2  0
  5  6  1  0
  6  7  1  0
  7  8  2  0
  7  9  1  0
  9 10  1  0
 10 11  1  0
 11 12  2  0
 12 13  1  0
 13 14  2  0
 14 15  1  0
  9 16  1  0
 16 17  1  0
 17 18  2  0
 18 19  1  0
 19 20  2  0
 20 21  1  0
 21 22  2  0
 22 23  1  0
 23 24  1  0
 23 25  2  0
 25 26  1  0
 26 27  1  0
 27 28  2  0
  5 29  1  0
 29 30  2  0
 30  2  1  0
 15 11  1  0
 27 17  1  0
 25 19  1  0
  1 31  1  0
  1 32  1  0
  1 33  1  0
  3 34  1  0
  4 35  1  0
  6 36  1  0
 10 37  1  0
 10 38  1  0
 12 39  1  0
 13 40  1  0
 14 41  1  0
 16 42  1  0
 16 43  1  0
 18 44  1  0
 20 45  1  0
 21 46  1  0
 22 47  1  0
 24 48  1  0
 24 49  1  0
 24 50  1  0
 26 51  1  0
 29 52  1  0
 30 53  1  0
M  END
$$$$
