
     RDKit          3D

 39 41  0  0  0  0  0  0  0  0999 V2000
   -5.8452    2.6661   -0.5985 C   0  0  0  0  0  0  0  0  0  0  0  0
   -6.0345    1.3307    0.0998 C   0  0  0  0  0  0  0  0  0  0  0  0
   -5.4587    0.2725   -0.6650 O   0  0  0  0  0  0  0  0  0  0  0  0
   -4.1475   -0.0593   -0.4590 C   0  0  0  0  0  0  0  0  0  0  0  0
   -3.7283   -1.1861   -1.1675 C   0  0  0  0  0  0  0  0  0  0  0  0
   -2.4140   -1.6578   -1.0717 C   0  0  0  0  0  0  0  0  0  0  0  0
   -1.4947   -0.9823   -0.2487 C   0  0  0  0  0  0  0  0  0  0  0  0
   -0.1682   -1.3279   -0.0530 N   0  0  0  0  0  0  0  0  0  0  0  0
    0.3946   -0.4740    0.7668 C   0  0  0  0  0  0  0  0  0  0  0  0
    1.7140   -0.6081    1.1174 N   0  0  0  0  0  0  0  0  0  0  0  0
    2.4527    0.2329    1.9152 C   0  0  0  0  0  0  0  0  0  0  0  0
    2.0808    1.2743    2.4463 O   0  0  0  0  0  0  0  0  0  0  0  0
    3.8846   -0.2287    2.0963 C   0  0  0  0  0  0  0  0  0  0  0  0
    4.7793    0.3337    1.0017 C   0  0  0  0  0  0  0  0  0  0  0  0
    4.5807   -0.3338   -0.2747 N   0  0  0  0  0  0  0  0  0  0  0  0
    5.0562   -1.5783   -0.5944 C   0  0  0  0  0  0  0  0  0  0  0  0
    4.6177   -1.8842   -1.8642 C   0  0  0  0  0  0  0  0  0  0  0  0
    3.8614   -0.7815   -2.3267 C   0  0  0  0  0  0  0  0  0  0  0  0
    3.8625    0.1666   -1.3272 C   0  0  0  0  0  0  0  0  0  0  0  0
   -0.6050    0.7645    1.3630 S   0  0  0  0  0  0  0  0  0  0  0  0
   -1.9262    0.1454    0.4495 C   0  0  0  0  0  0  0  0  0  0  0  0
   -3.2466    0.6270    0.3601 C   0  0  0  0  0  0  0  0  0  0  0  0
   -4.7860    2.9232   -0.6921 H   0  0  0  0  0  0  0  0  0  0  0  0
   -6.2527    2.6280   -1.6142 H   0  0  0  0  0  0  0  0  0  0  0  0
   -6.3497    3.4650   -0.0475 H   0  0  0  0  0  0  0  0  0  0  0  0
   -7.1088    1.1209    0.1568 H   0  0  0  0  0  0  0  0  0  0  0  0
   -5.6773    1.3444    1.1353 H   0  0  0  0  0  0  0  0  0  0  0  0
   -4.4351   -1.7112   -1.8070 H   0  0  0  0  0  0  0  0  0  0  0  0
   -2.0993   -2.5361   -1.6261 H   0  0  0  0  0  0  0  0  0  0  0  0
    2.1629   -1.3849    0.6471 H   0  0  0  0  0  0  0  0  0  0  0  0
    3.9221   -1.3237    2.1362 H   0  0  0  0  0  0  0  0  0  0  0  0
    4.2242    0.1324    3.0745 H   0  0  0  0  0  0  0  0  0  0  0  0
    5.8344    0.1972    1.2656 H   0  0  0  0  0  0  0  0  0  0  0  0
    4.6081    1.4058    0.8504 H   0  0  0  0  0  0  0  0  0  0  0  0
    5.6646   -2.1465    0.0975 H   0  0  0  0  0  0  0  0  0  0  0  0
    4.8250   -2.8003   -2.4025 H   0  0  0  0  0  0  0  0  0  0  0  0
    3.3713   -0.6857   -3.2874 H   0  0  0  0  0  0  0  0  0  0  0  0
    3.4018    1.1459   -1.2848 H   0  0  0  0  0  0  0  0  0  0  0  0
   -3.5212    1.5139    0.9172 H   0  0  0  0  0  0  0  0  0  0  0  0
  1  2  1  0
  2  3  1  0
  3  4  1  0
  4  5  2  0
  5  6  1  0
  6  7  2  0
  7  8  1  0
  8  9  2  0
  9 10  1  0
 10 11  1  0
 11 12  2  0
 11 13  1  0
 13 14  1  0
 14 15  1  0
 15 16  1  0
 16 17  2  0
 17 18  1  0
 18 19  2  0
  9 20  1  0
 20 21  1  0
 21 22  2  0
 22  4  1  0
 21  7  1  0
 19 15  1  0
  1 23  1  0
  1 24  1  0
  1 25  1  0
  2 26  1  0
  2 27  1  0
  5 28  1  0
  6 29  1  0
 10 30  1  0
 13 31  1  0
 13 32  1  0
 14 33  1  0
 14 34  1  0
 16 35  1  0
 17 36  1  0
 18 37  1  0
 19 38  1  0
 22 39  1  0
M  END
$$$$
