
     RDKit          3D

 40 42  0  0  0  0  0  0  0  0999 V2000
   -1.9232   -1.9350    0.2282 O   0  0  0  0  0  0  0  0  0  0  0  0
   -1.5771   -0.8228   -0.1715 C   0  0  0  0  0  0  0  0  0  0  0  0
   -2.5836    0.2219   -0.6482 C   0  0  0  0  0  0  0  0  0  0  0  0
   -4.0191   -0.0852   -0.2845 C   0  0  0  0  0  0  0  0  0  0  0  0
   -4.8230   -0.8484   -1.1437 C   0  0  0  0  0  0  0  0  0  0  0  0
   -6.1460   -1.1392   -0.8038 C   0  0  0  0  0  0  0  0  0  0  0  0
   -6.6686   -0.6725    0.4001 C   0  0  0  0  0  0  0  0  0  0  0  0
   -8.4595   -1.0660    0.8611 Br  0  0  0  0  0  0  0  0  0  0  0  0
   -5.8801    0.0784    1.2692 C   0  0  0  0  0  0  0  0  0  0  0  0
   -4.5570    0.3685    0.9289 C   0  0  0  0  0  0  0  0  0  0  0  0
   -0.2366   -0.4591   -0.2280 N   0  0  0  0  0  0  0  0  0  0  0  0
    0.7841   -1.4008    0.2387 C   0  0  0  0  0  0  0  0  0  0  0  0
    1.9571   -0.7089    0.9604 C   0  0  0  0  0  0  0  0  0  0  0  0
    2.4913    0.4436    0.2084 N   0  0  0  0  0  0  0  0  0  0  0  0
    3.8771    0.6006    0.1703 C   0  0  0  0  0  0  0  0  0  0  0  0
    4.6490    0.4170    1.3201 C   0  0  0  0  0  0  0  0  0  0  0  0
    6.0320    0.5921    1.2733 C   0  0  0  0  0  0  0  0  0  0  0  0
    6.6263    0.9582    0.0773 C   0  0  0  0  0  0  0  0  0  0  0  0
    5.8038    1.1401   -1.0169 C   0  0  0  0  0  0  0  0  0  0  0  0
    4.4616    0.9757   -0.9897 N   0  0  0  0  0  0  0  0  0  0  0  0
    1.7807    0.8133   -1.0240 C   0  0  0  0  0  0  0  0  0  0  0  0
    0.2602    0.8070   -0.7830 C   0  0  0  0  0  0  0  0  0  0  0  0
   -2.4998    0.3075   -1.7383 H   0  0  0  0  0  0  0  0  0  0  0  0
   -2.3251    1.1995   -0.2253 H   0  0  0  0  0  0  0  0  0  0  0  0
   -4.4196   -1.2316   -2.0786 H   0  0  0  0  0  0  0  0  0  0  0  0
   -6.7540   -1.7347   -1.4791 H   0  0  0  0  0  0  0  0  0  0  0  0
   -6.2816    0.4360    2.2133 H   0  0  0  0  0  0  0  0  0  0  0  0
   -3.9472    0.9455    1.6206 H   0  0  0  0  0  0  0  0  0  0  0  0
    1.1530   -1.9271   -0.6504 H   0  0  0  0  0  0  0  0  0  0  0  0
    0.3446   -2.1544    0.9006 H   0  0  0  0  0  0  0  0  0  0  0  0
    1.6101   -0.3411    1.9335 H   0  0  0  0  0  0  0  0  0  0  0  0
    2.7245   -1.4706    1.1465 H   0  0  0  0  0  0  0  0  0  0  0  0
    4.1813    0.1596    2.2642 H   0  0  0  0  0  0  0  0  0  0  0  0
    6.6317    0.4510    2.1674 H   0  0  0  0  0  0  0  0  0  0  0  0
    7.6970    1.1062    0.0007 H   0  0  0  0  0  0  0  0  0  0  0  0
    6.2110    1.4347   -1.9796 H   0  0  0  0  0  0  0  0  0  0  0  0
    2.0269    0.1084   -1.8291 H   0  0  0  0  0  0  0  0  0  0  0  0
    2.0643    1.8213   -1.3515 H   0  0  0  0  0  0  0  0  0  0  0  0
   -0.0024    1.5914   -0.0632 H   0  0  0  0  0  0  0  0  0  0  0  0
   -0.2643    1.0197   -1.7199 H   0  0  0  0  0  0  0  0  0  0  0  0
  1  2  2  0
  2  3  1  0
  3  4  1  0
  4  5  2  0
  5  6  1  0
  6  7  2  0
  7  8  1  0
  7  9  1  0
  9 10  2  0
  2 11  1  0
 11 12  1  0
 12 13  1  0
 13 14  1  0
 14 15  1  0
 15 16  2  0
 16 17  1  0
 17 18  2  0
 18 19  1  0
 19 20  2  0
 14 21  1  0
 21 22  1  0
 10  4  1  0
 22 11  1  0
 20 15  1  0
  3 23  1  0
  3 24  1  0
  5 25  1  0
  6 26  1  0
  9 27  1  0
 10 28  1  0
 12 29  1  0
 12 30  1  0
 13 31  1  0
 13 32  1  0
 16 33  1  0
 17 34  1  0
 18 35  1  0
 19 36  1  0
 21 37  1  0
 21 38  1  0
 22 39  1  0
 22 40  1  0
M  END
$$$$
