
     RDKit          3D

 53 56  0  0  0  0  0  0  0  0999 V2000
   -9.1058    0.3765    0.7660 C   0  0  0  0  0  0  0  0  0  0  0  0
   -7.8483   -0.1490    1.1688 O   0  0  0  0  0  0  0  0  0  0  0  0
   -6.7370    0.5823    0.6494 C   0  0  0  0  0  0  0  0  0  0  0  0
   -6.4135    0.1742   -0.7936 C   0  0  0  0  0  0  0  0  0  0  0  0
   -6.0245   -1.3023   -0.9180 C   0  0  0  0  0  0  0  0  0  0  0  0
   -4.5397   -1.3190   -0.5699 C   0  0  0  0  0  0  0  0  0  0  0  0
   -4.0591    0.0053   -0.9434 N   0  0  0  0  0  0  0  0  0  0  0  0
   -2.7474    0.4596   -1.0196 C   0  0  0  0  0  0  0  0  0  0  0  0
   -2.5145    1.5975   -1.4369 O   0  0  0  0  0  0  0  0  0  0  0  0
   -1.6306   -0.4049   -0.6008 C   0  0  0  0  0  0  0  0  0  0  0  0
   -0.2506   -0.0758   -0.7159 C   0  0  0  0  0  0  0  0  0  0  0  0
    0.4214   -1.1518   -0.1921 C   0  0  0  0  0  0  0  0  0  0  0  0
    1.8462   -1.5067    0.0025 C   0  0  0  0  0  0  0  0  0  0  0  0
    2.5901   -0.2914   -0.0279 O   0  0  0  0  0  0  0  0  0  0  0  0
    3.9548   -0.3645    0.1218 C   0  0  0  0  0  0  0  0  0  0  0  0
    4.6589   -1.5596    0.2813 C   0  0  0  0  0  0  0  0  0  0  0  0
    6.0475   -1.5503    0.4224 C   0  0  0  0  0  0  0  0  0  0  0  0
    6.7554   -0.3469    0.4068 C   0  0  0  0  0  0  0  0  0  0  0  0
    8.1216   -0.2606    0.5387 O   0  0  0  0  0  0  0  0  0  0  0  0
    8.8517   -1.4697    0.6957 C   0  0  0  0  0  0  0  0  0  0  0  0
    6.0626    0.8792    0.2484 C   0  0  0  0  0  0  0  0  0  0  0  0
    6.7343    2.1231    0.2284 C   0  0  0  0  0  0  0  0  0  0  0  0
    6.0485    3.3280    0.0730 C   0  0  0  0  0  0  0  0  0  0  0  0
    4.6694    3.3198   -0.0669 C   0  0  0  0  0  0  0  0  0  0  0  0
    3.9808    2.1066   -0.0512 C   0  0  0  0  0  0  0  0  0  0  0  0
    4.6501    0.8706    0.1046 C   0  0  0  0  0  0  0  0  0  0  0  0
   -0.4865   -2.0778    0.2126 O   0  0  0  0  0  0  0  0  0  0  0  0
   -1.7627   -1.6160   -0.0332 N   0  0  0  0  0  0  0  0  0  0  0  0
   -5.1603    0.8822   -1.3024 C   0  0  0  0  0  0  0  0  0  0  0  0
   -9.2355    0.2985   -0.3165 H   0  0  0  0  0  0  0  0  0  0  0  0
   -9.8913   -0.2106    1.2491 H   0  0  0  0  0  0  0  0  0  0  0  0
   -9.2077    1.4182    1.0849 H   0  0  0  0  0  0  0  0  0  0  0  0
   -5.8877    0.3710    1.3087 H   0  0  0  0  0  0  0  0  0  0  0  0
   -6.9283    1.6600    0.7201 H   0  0  0  0  0  0  0  0  0  0  0  0
   -7.2730    0.3959   -1.4344 H   0  0  0  0  0  0  0  0  0  0  0  0
   -6.6089   -1.9778   -0.2872 H   0  0  0  0  0  0  0  0  0  0  0  0
   -6.1561   -1.6224   -1.9595 H   0  0  0  0  0  0  0  0  0  0  0  0
   -4.3868   -1.4522    0.5058 H   0  0  0  0  0  0  0  0  0  0  0  0
   -4.0114   -2.0998   -1.1235 H   0  0  0  0  0  0  0  0  0  0  0  0
    0.1776    0.8290   -1.1231 H   0  0  0  0  0  0  0  0  0  0  0  0
    1.9715   -2.0029    0.9719 H   0  0  0  0  0  0  0  0  0  0  0  0
    2.1601   -2.1699   -0.8116 H   0  0  0  0  0  0  0  0  0  0  0  0
    4.1628   -2.5241    0.3007 H   0  0  0  0  0  0  0  0  0  0  0  0
    6.5469   -2.5058    0.5430 H   0  0  0  0  0  0  0  0  0  0  0  0
    9.9115   -1.2106    0.7824 H   0  0  0  0  0  0  0  0  0  0  0  0
    8.5612   -1.9899    1.6140 H   0  0  0  0  0  0  0  0  0  0  0  0
    8.7389   -2.1161   -0.1807 H   0  0  0  0  0  0  0  0  0  0  0  0
    7.8171    2.1577    0.3367 H   0  0  0  0  0  0  0  0  0  0  0  0
    6.5952    4.2669    0.0626 H   0  0  0  0  0  0  0  0  0  0  0  0
    4.1250    4.2526   -0.1874 H   0  0  0  0  0  0  0  0  0  0  0  0
    2.8981    2.1306   -0.1616 H   0  0  0  0  0  0  0  0  0  0  0  0
   -5.0196    1.8849   -0.8864 H   0  0  0  0  0  0  0  0  0  0  0  0
   -5.1723    0.9581   -2.3961 H   0  0  0  0  0  0  0  0  0  0  0  0
  1  2  1  0
  2  3  1  0
  3  4  1  0
  4  5  1  0
  5  6  1  0
  6  7  1  0
  7  8  1  0
  8  9  2  0
  8 10  1  0
 10 11  1  0
 11 12  2  0
 12 13  1  0
 13 14  1  0
 14 15  1  0
 15 16  2  0
 16 17  1  0
 17 18  2  0
 18 19  1  0
 19 20  1  0
 18 21  1  0
 21 22  2  0
 22 23  1  0
 23 24  2  0
 24 25  1  0
 25 26  2  0
 12 27  1  0
 27 28  1  0
  7 29  1  0
 29  4  1  0
 28 10  2  0
 26 15  1  0
 26 21  1  0
  1 30  1  0
  1 31  1  0
  1 32  1  0
  3 33  1  0
  3 34  1  0
  4 35  1  0
  5 36  1  0
  5 37  1  0
  6 38  1  0
  6 39  1  0
 11 40  1  0
 13 41  1  0
 13 42  1  0
 16 43  1  0
 17 44  1  0
 20 45  1  0
 20 46  1  0
 20 47  1  0
 22 48  1  0
 23 49  1  0
 24 50  1  0
 25 51  1  0
 29 52  1  0
 29 53  1  0
M  END
$$$$
