
     RDKit          3D

 31 32  0  0  0  0  0  0  0  0999 V2000
    6.3968    2.0837   -5.1240 N   0  0  0  0  0  0  0  0  0  0  0  0
    5.4522    1.6738   -4.2558 C   0  0  0  0  0  0  0  0  0  0  0  0
    4.3238    1.0944   -4.6002 N   0  0  0  0  0  0  0  0  0  0  0  0
    3.5427    0.7702   -3.5080 N   0  0  0  0  0  0  0  0  0  0  0  0
    4.1148    1.1184   -2.3771 C   0  0  0  0  0  0  0  0  0  0  0  0
    3.3695    0.8491   -0.8203 S   0  0  0  0  0  0  0  0  0  0  0  0
    1.8860   -0.0621   -1.3300 C   0  0  0  0  0  0  0  0  0  0  0  0
    1.0813   -0.4270   -0.1010 C   0  0  0  0  0  0  0  0  0  0  0  0
    1.3281   -1.4068    0.6035 O   0  0  0  0  0  0  0  0  0  0  0  0
    0.0488    0.4477    0.1899 N   0  0  0  0  0  0  0  0  0  0  0  0
   -0.8689    0.0381    1.1778 N   0  0  0  0  0  0  0  0  0  0  0  0
   -2.2096    0.2105    0.8852 C   0  0  0  0  0  0  0  0  0  0  0  0
   -2.5908    0.8434   -0.0969 O   0  0  0  0  0  0  0  0  0  0  0  0
   -3.1852   -0.4428    1.8017 C   0  0  0  0  0  0  0  0  0  0  0  0
   -4.4818   -0.6856    1.3256 C   0  0  0  0  0  0  0  0  0  0  0  0
   -5.4339   -1.2939    2.1483 C   0  0  0  0  0  0  0  0  0  0  0  0
   -5.0935   -1.6530    3.4507 C   0  0  0  0  0  0  0  0  0  0  0  0
   -6.2639   -2.4004    4.4654 Cl  0  0  0  0  0  0  0  0  0  0  0  0
   -3.8114   -1.4041    3.9394 C   0  0  0  0  0  0  0  0  0  0  0  0
   -2.8559   -0.7957    3.1181 C   0  0  0  0  0  0  0  0  0  0  0  0
    5.6471    1.8597   -2.5589 S   0  0  0  0  0  0  0  0  0  0  0  0
    7.3464    2.1668   -4.7807 H   0  0  0  0  0  0  0  0  0  0  0  0
    6.3346    1.6863   -6.0559 H   0  0  0  0  0  0  0  0  0  0  0  0
    2.1563   -0.9881   -1.8482 H   0  0  0  0  0  0  0  0  0  0  0  0
    1.2788    0.5462   -2.0082 H   0  0  0  0  0  0  0  0  0  0  0  0
   -0.3457    1.0553   -0.5300 H   0  0  0  0  0  0  0  0  0  0  0  0
   -0.5511   -0.7404    1.7554 H   0  0  0  0  0  0  0  0  0  0  0  0
   -4.7548   -0.4029    0.3100 H   0  0  0  0  0  0  0  0  0  0  0  0
   -6.4348   -1.4805    1.7674 H   0  0  0  0  0  0  0  0  0  0  0  0
   -3.5519   -1.6741    4.9604 H   0  0  0  0  0  0  0  0  0  0  0  0
   -1.8739   -0.5864    3.5336 H   0  0  0  0  0  0  0  0  0  0  0  0
  1  2  1  0
  2  3  2  0
  3  4  1  0
  4  5  2  0
  5  6  1  0
  6  7  1  0
  7  8  1  0
  8  9  2  0
  8 10  1  0
 10 11  1  0
 11 12  1  0
 12 13  2  0
 12 14  1  0
 14 15  2  0
 15 16  1  0
 16 17  2  0
 17 18  1  0
 17 19  1  0
 19 20  2  0
  5 21  1  0
 21  2  1  0
 20 14  1  0
  1 22  1  0
  1 23  1  0
  7 24  1  0
  7 25  1  0
 10 26  1  0
 11 27  1  0
 15 28  1  0
 16 29  1  0
 19 30  1  0
 20 31  1  0
M  END
$$$$
