
     RDKit          3D

 46 49  0  0  0  0  0  0  0  0999 V2000
    0.0961   -2.8465   -0.0911 O   0  0  0  0  0  0  0  0  0  0  0  0
    0.6543   -2.0017    0.6091 C   0  0  0  0  0  0  0  0  0  0  0  0
    2.0543   -2.2735    1.1501 C   0  0  0  0  0  0  0  0  0  0  0  0
    2.8540   -0.8847    2.0112 S   0  0  0  0  0  0  0  0  0  0  0  0
    3.2552    0.1242    0.6009 C   0  0  0  0  0  0  0  0  0  0  0  0
    2.2708    1.0206    0.3129 N   0  0  0  0  0  0  0  0  0  0  0  0
    2.4792    1.8836   -0.7055 C   0  0  0  0  0  0  0  0  0  0  0  0
    3.6336    1.9071   -1.4638 C   0  0  0  0  0  0  0  0  0  0  0  0
    4.6343    0.9894   -1.1611 C   0  0  0  0  0  0  0  0  0  0  0  0
    4.4534    0.0770   -0.1110 C   0  0  0  0  0  0  0  0  0  0  0  0
    5.5090   -0.9136    0.1799 C   0  0  0  0  0  0  0  0  0  0  0  0
    5.3645   -2.0496    0.5849 O   0  0  0  0  0  0  0  0  0  0  0  0
    6.7352   -0.4164   -0.0722 O   0  0  0  0  0  0  0  0  0  0  0  0
    0.0608   -0.8149    0.9699 N   0  0  0  0  0  0  0  0  0  0  0  0
   -1.2370   -0.3384    0.4847 C   0  0  0  0  0  0  0  0  0  0  0  0
   -1.2301   -0.1302   -1.0497 C   0  0  0  0  0  0  0  0  0  0  0  0
   -2.5828    0.4277   -1.5260 C   0  0  0  0  0  0  0  0  0  0  0  0
   -3.7004   -0.5575   -1.1436 C   0  0  0  0  0  0  0  0  0  0  0  0
   -3.7423   -0.7447    0.3827 C   0  0  0  0  0  0  0  0  0  0  0  0
   -3.9979    0.6137    1.0533 C   0  0  0  0  0  0  0  0  0  0  0  0
   -2.8791    1.5992    0.6828 C   0  0  0  0  0  0  0  0  0  0  0  0
   -2.8432    1.7797   -0.8431 C   0  0  0  0  0  0  0  0  0  0  0  0
   -1.5313    1.0316    1.1547 C   0  0  0  0  0  0  0  0  0  0  0  0
   -2.3902   -1.3031    0.8614 C   0  0  0  0  0  0  0  0  0  0  0  0
    1.9688   -3.0975    1.8657 H   0  0  0  0  0  0  0  0  0  0  0  0
    2.6844   -2.6064    0.3195 H   0  0  0  0  0  0  0  0  0  0  0  0
    1.6660    2.5783   -0.8996 H   0  0  0  0  0  0  0  0  0  0  0  0
    3.7534    2.6209   -2.2719 H   0  0  0  0  0  0  0  0  0  0  0  0
    5.5501    0.9844   -1.7482 H   0  0  0  0  0  0  0  0  0  0  0  0
    7.3436   -1.1470    0.1706 H   0  0  0  0  0  0  0  0  0  0  0  0
    0.7214   -0.0920    1.2544 H   0  0  0  0  0  0  0  0  0  0  0  0
   -0.4234    0.5572   -1.3347 H   0  0  0  0  0  0  0  0  0  0  0  0
   -1.0269   -1.0733   -1.5708 H   0  0  0  0  0  0  0  0  0  0  0  0
   -2.5640    0.5611   -2.6135 H   0  0  0  0  0  0  0  0  0  0  0  0
   -3.5328   -1.5236   -1.6353 H   0  0  0  0  0  0  0  0  0  0  0  0
   -4.6674   -0.1824   -1.5007 H   0  0  0  0  0  0  0  0  0  0  0  0
   -4.5440   -1.4433    0.6472 H   0  0  0  0  0  0  0  0  0  0  0  0
   -4.9691    1.0122    0.7354 H   0  0  0  0  0  0  0  0  0  0  0  0
   -4.0448    0.4915    2.1424 H   0  0  0  0  0  0  0  0  0  0  0  0
   -3.0631    2.5655    1.1651 H   0  0  0  0  0  0  0  0  0  0  0  0
   -3.7943    2.1992   -1.1933 H   0  0  0  0  0  0  0  0  0  0  0  0
   -2.0588    2.4959   -1.1176 H   0  0  0  0  0  0  0  0  0  0  0  0
   -0.7309    1.7465    0.9216 H   0  0  0  0  0  0  0  0  0  0  0  0
   -1.5354    0.9237    2.2477 H   0  0  0  0  0  0  0  0  0  0  0  0
   -2.2405   -2.2924    0.4148 H   0  0  0  0  0  0  0  0  0  0  0  0
   -2.4128   -1.4576    1.9484 H   0  0  0  0  0  0  0  0  0  0  0  0
  1  2  2  0
  2  3  1  0
  3  4  1  0
  4  5  1  0
  5  6  2  0
  6  7  1  0
  7  8  2  0
  8  9  1  0
  9 10  2  0
 10 11  1  0
 11 12  2  0
 11 13  1  0
  2 14  1  0
 14 15  1  0
 15 16  1  0
 16 17  1  0
 17 18  1  0
 18 19  1  0
 19 20  1  0
 20 21  1  0
 21 22  1  0
 21 23  1  0
 19 24  1  0
 10  5  1  0
 23 15  1  0
 24 15  1  0
 22 17  1  0
  3 25  1  0
  3 26  1  0
  7 27  1  0
  8 28  1  0
  9 29  1  0
 13 30  1  0
 14 31  1  0
 16 32  1  0
 16 33  1  0
 17 34  1  0
 18 35  1  0
 18 36  1  0
 19 37  1  0
 20 38  1  0
 20 39  1  0
 21 40  1  0
 22 41  1  0
 22 42  1  0
 23 43  1  0
 23 44  1  0
 24 45  1  0
 24 46  1  0
M  END
$$$$
