
     RDKit          3D

 44 46  0  0  0  0  0  0  0  0999 V2000
    7.2851   -2.0101   -0.1030 C   0  0  0  0  0  0  0  0  0  0  0  0
    6.3386   -1.8017   -1.1446 O   0  0  0  0  0  0  0  0  0  0  0  0
    5.2574   -1.0195   -0.8484 C   0  0  0  0  0  0  0  0  0  0  0  0
    4.3689   -0.8229   -1.9061 C   0  0  0  0  0  0  0  0  0  0  0  0
    3.2213   -0.0417   -1.7352 C   0  0  0  0  0  0  0  0  0  0  0  0
    2.9452    0.5578   -0.5018 C   0  0  0  0  0  0  0  0  0  0  0  0
    1.7728    1.3304   -0.4109 N   0  0  0  0  0  0  0  0  0  0  0  0
    1.2911    2.0300    0.6782 C   0  0  0  0  0  0  0  0  0  0  0  0
    1.8315    2.1273    1.7772 O   0  0  0  0  0  0  0  0  0  0  0  0
   -0.0335    2.7499    0.3885 C   0  0  0  0  0  0  0  0  0  0  0  0
   -1.1594    1.8883    0.3240 O   0  0  0  0  0  0  0  0  0  0  0  0
   -1.4352    1.3260   -0.8854 C   0  0  0  0  0  0  0  0  0  0  0  0
   -0.6453    1.6045   -1.9276 N   0  0  0  0  0  0  0  0  0  0  0  0
   -1.2925    0.7141   -3.1833 S   0  0  0  0  0  0  0  0  0  0  0  0
   -2.5390   -0.0557   -2.4016 N   0  0  0  0  0  0  0  0  0  0  0  0
   -2.5273    0.3805   -1.1340 C   0  0  0  0  0  0  0  0  0  0  0  0
   -3.4292   -0.0492   -0.1895 N   0  0  0  0  0  0  0  0  0  0  0  0
   -3.7059    0.7213    1.0247 C   0  0  0  0  0  0  0  0  0  0  0  0
   -5.1172    0.4541    1.5435 C   0  0  0  0  0  0  0  0  0  0  0  0
   -5.3648   -1.0299    1.8075 C   0  0  0  0  0  0  0  0  0  0  0  0
   -4.6250   -1.9342    0.8245 C   0  0  0  0  0  0  0  0  0  0  0  0
   -4.2746   -1.2115   -0.4741 C   0  0  0  0  0  0  0  0  0  0  0  0
    3.8340    0.3578    0.5538 C   0  0  0  0  0  0  0  0  0  0  0  0
    4.9840   -0.4271    0.3831 C   0  0  0  0  0  0  0  0  0  0  0  0
    6.8317   -2.5381    0.7430 H   0  0  0  0  0  0  0  0  0  0  0  0
    7.7371   -1.0632    0.2161 H   0  0  0  0  0  0  0  0  0  0  0  0
    8.0854   -2.6429   -0.4996 H   0  0  0  0  0  0  0  0  0  0  0  0
    4.5714   -1.2795   -2.8725 H   0  0  0  0  0  0  0  0  0  0  0  0
    2.5528    0.0892   -2.5813 H   0  0  0  0  0  0  0  0  0  0  0  0
    1.1965    1.3748   -1.2486 H   0  0  0  0  0  0  0  0  0  0  0  0
    0.0674    3.4100   -0.4829 H   0  0  0  0  0  0  0  0  0  0  0  0
   -0.2112    3.4256    1.2346 H   0  0  0  0  0  0  0  0  0  0  0  0
   -2.9703    0.4666    1.7972 H   0  0  0  0  0  0  0  0  0  0  0  0
   -3.6342    1.7981    0.8270 H   0  0  0  0  0  0  0  0  0  0  0  0
   -5.8451    0.8105    0.8003 H   0  0  0  0  0  0  0  0  0  0  0  0
   -5.2996    1.0293    2.4582 H   0  0  0  0  0  0  0  0  0  0  0  0
   -6.4438   -1.2258    1.7571 H   0  0  0  0  0  0  0  0  0  0  0  0
   -5.0536   -1.2855    2.8298 H   0  0  0  0  0  0  0  0  0  0  0  0
   -5.2282   -2.8248    0.6130 H   0  0  0  0  0  0  0  0  0  0  0  0
   -3.6981   -2.2883    1.2978 H   0  0  0  0  0  0  0  0  0  0  0  0
   -5.1855   -0.8925   -0.9958 H   0  0  0  0  0  0  0  0  0  0  0  0
   -3.7574   -1.9284   -1.1228 H   0  0  0  0  0  0  0  0  0  0  0  0
    3.6631    0.7966    1.5316 H   0  0  0  0  0  0  0  0  0  0  0  0
    5.6403   -0.5512    1.2385 H   0  0  0  0  0  0  0  0  0  0  0  0
  1  2  1  0
  2  3  1  0
  3  4  2  0
  4  5  1  0
  5  6  2  0
  6  7  1  0
  7  8  1  0
  8  9  2  0
  8 10  1  0
 10 11  1  0
 11 12  1  0
 12 13  2  0
 13 14  1  0
 14 15  1  0
 15 16  2  0
 16 17  1  0
 17 18  1  0
 18 19  1  0
 19 20  1  0
 20 21  1  0
 21 22  1  0
  6 23  1  0
 23 24  2  0
 24  3  1  0
 16 12  1  0
 22 17  1  0
  1 25  1  0
  1 26  1  0
  1 27  1  0
  4 28  1  0
  5 29  1  0
  7 30  1  0
 10 31  1  0
 10 32  1  0
 18 33  1  0
 18 34  1  0
 19 35  1  0
 19 36  1  0
 20 37  1  0
 20 38  1  0
 21 39  1  0
 21 40  1  0
 22 41  1  0
 22 42  1  0
 23 43  1  0
 24 44  1  0
M  END
$$$$
