
     RDKit          3D

 51 54  0  0  0  0  0  0  0  0999 V2000
   -3.6221   -2.9563    0.1402 C   0  0  0  0  0  0  0  0  0  0  0  0
   -3.1833   -1.6064    0.0895 O   0  0  0  0  0  0  0  0  0  0  0  0
   -4.0516   -0.6644   -0.3926 C   0  0  0  0  0  0  0  0  0  0  0  0
   -5.3626   -0.9476   -0.7991 C   0  0  0  0  0  0  0  0  0  0  0  0
   -6.1959    0.0636   -1.2809 C   0  0  0  0  0  0  0  0  0  0  0  0
   -5.7285    1.3687   -1.3613 C   0  0  0  0  0  0  0  0  0  0  0  0
   -4.4269    1.6632   -0.9588 C   0  0  0  0  0  0  0  0  0  0  0  0
   -3.5679    0.6585   -0.4688 C   0  0  0  0  0  0  0  0  0  0  0  0
   -2.1601    1.0705   -0.0525 C   0  0  0  0  0  0  0  0  0  0  0  0
   -1.8754    0.8555    1.4398 C   0  0  0  0  0  0  0  0  0  0  0  0
   -0.4643    1.3296    1.7934 C   0  0  0  0  0  0  0  0  0  0  0  0
    0.5546    0.6631    0.9701 N   0  0  0  0  0  0  0  0  0  0  0  0
    1.9002    1.0977    1.3885 C   0  0  0  0  0  0  0  0  0  0  0  0
    2.9602    0.2129    0.7956 C   0  0  0  0  0  0  0  0  0  0  0  0
    3.1097   -1.1543    0.9902 C   0  0  0  0  0  0  0  0  0  0  0  0
    2.2931   -2.1102    1.7818 C   0  0  0  0  0  0  0  0  0  0  0  0
    4.1984   -1.5659    0.2656 N   0  0  0  0  0  0  0  0  0  0  0  0
    4.7788   -0.5032   -0.3838 C   0  0  0  0  0  0  0  0  0  0  0  0
    5.9022   -0.4632   -1.2188 C   0  0  0  0  0  0  0  0  0  0  0  0
    6.2700    0.7748   -1.7526 C   0  0  0  0  0  0  0  0  0  0  0  0
    5.5405    1.9244   -1.4624 C   0  0  0  0  0  0  0  0  0  0  0  0
    4.4192    1.8651   -0.6263 C   0  0  0  0  0  0  0  0  0  0  0  0
    4.0262    0.6283   -0.0720 C   0  0  0  0  0  0  0  0  0  0  0  0
    0.3248    0.9157   -0.4622 C   0  0  0  0  0  0  0  0  0  0  0  0
   -1.0577    0.4263   -0.9031 C   0  0  0  0  0  0  0  0  0  0  0  0
   -3.8670   -3.3312   -0.8590 H   0  0  0  0  0  0  0  0  0  0  0  0
   -2.7966   -3.5610    0.5280 H   0  0  0  0  0  0  0  0  0  0  0  0
   -4.4674   -3.0707    0.8263 H   0  0  0  0  0  0  0  0  0  0  0  0
   -5.7699   -1.9519   -0.7525 H   0  0  0  0  0  0  0  0  0  0  0  0
   -7.2101   -0.1714   -1.5929 H   0  0  0  0  0  0  0  0  0  0  0  0
   -6.3740    2.1582   -1.7365 H   0  0  0  0  0  0  0  0  0  0  0  0
   -4.0825    2.6930   -1.0313 H   0  0  0  0  0  0  0  0  0  0  0  0
   -2.0785    2.1548   -0.2224 H   0  0  0  0  0  0  0  0  0  0  0  0
   -1.9727   -0.1999    1.7183 H   0  0  0  0  0  0  0  0  0  0  0  0
   -2.6065    1.4058    2.0451 H   0  0  0  0  0  0  0  0  0  0  0  0
   -0.2914    1.1036    2.8529 H   0  0  0  0  0  0  0  0  0  0  0  0
   -0.4027    2.4202    1.6814 H   0  0  0  0  0  0  0  0  0  0  0  0
    2.0700    2.1505    1.1323 H   0  0  0  0  0  0  0  0  0  0  0  0
    1.9955    1.0204    2.4800 H   0  0  0  0  0  0  0  0  0  0  0  0
    1.9753   -1.6601    2.7277 H   0  0  0  0  0  0  0  0  0  0  0  0
    1.3998   -2.4010    1.2201 H   0  0  0  0  0  0  0  0  0  0  0  0
    2.8590   -3.0171    2.0185 H   0  0  0  0  0  0  0  0  0  0  0  0
    4.5323   -2.5173    0.2107 H   0  0  0  0  0  0  0  0  0  0  0  0
    6.4707   -1.3583   -1.4474 H   0  0  0  0  0  0  0  0  0  0  0  0
    7.1378    0.8392   -2.4049 H   0  0  0  0  0  0  0  0  0  0  0  0
    5.8417    2.8779   -1.8889 H   0  0  0  0  0  0  0  0  0  0  0  0
    3.8586    2.7693   -0.4113 H   0  0  0  0  0  0  0  0  0  0  0  0
    1.0651    0.3872   -1.0733 H   0  0  0  0  0  0  0  0  0  0  0  0
    0.4247    1.9856   -0.6879 H   0  0  0  0  0  0  0  0  0  0  0  0
   -1.2091    0.6713   -1.9618 H   0  0  0  0  0  0  0  0  0  0  0  0
   -1.0838   -0.6670   -0.8304 H   0  0  0  0  0  0  0  0  0  0  0  0
  1  2  1  0
  2  3  1  0
  3  4  2  0
  4  5  1  0
  5  6  2  0
  6  7  1  0
  7  8  2  0
  8  9  1  0
  9 10  1  0
 10 11  1  0
 11 12  1  0
 12 13  1  0
 13 14  1  0
 14 15  2  0
 15 16  1  0
 15 17  1  0
 17 18  1  0
 18 19  2  0
 19 20  1  0
 20 21  2  0
 21 22  1  0
 22 23  2  0
 12 24  1  0
 24 25  1  0
  8  3  1  0
 25  9  1  0
 23 14  1  0
 23 18  1  0
  1 26  1  0
  1 27  1  0
  1 28  1  0
  4 29  1  0
  5 30  1  0
  6 31  1  0
  7 32  1  0
  9 33  1  0
 10 34  1  0
 10 35  1  0
 11 36  1  0
 11 37  1  0
 13 38  1  0
 13 39  1  0
 16 40  1  0
 16 41  1  0
 16 42  1  0
 17 43  1  0
 19 44  1  0
 20 45  1  0
 21 46  1  0
 22 47  1  0
 24 48  1  0
 24 49  1  0
 25 50  1  0
 25 51  1  0
M  END
$$$$
