
     RDKit          3D

 62 66  0  0  0  0  0  0  0  0999 V2000
   -5.4662    1.1925    3.5056 C   0  0  0  0  0  0  0  0  0  0  0  0
   -5.8503    0.8330    2.0922 C   0  0  0  0  0  0  0  0  0  0  0  0
   -7.1395    0.5789    1.7938 C   0  0  0  0  0  0  0  0  0  0  0  0
   -7.5611    0.1967    0.4407 C   0  0  0  0  0  0  0  0  0  0  0  0
   -8.9073   -0.1008    0.1947 C   0  0  0  0  0  0  0  0  0  0  0  0
   -9.3160   -0.5010   -1.0759 C   0  0  0  0  0  0  0  0  0  0  0  0
   -8.3796   -0.6148   -2.1001 C   0  0  0  0  0  0  0  0  0  0  0  0
   -7.0340   -0.3120   -1.8692 C   0  0  0  0  0  0  0  0  0  0  0  0
   -6.6199    0.1091   -0.6030 C   0  0  0  0  0  0  0  0  0  0  0  0
   -5.2805    0.4492   -0.2661 N   0  0  0  0  0  0  0  0  0  0  0  0
   -4.1101    0.5855   -0.9932 C   0  0  0  0  0  0  0  0  0  0  0  0
   -3.9206    0.4922   -2.7119 S   0  0  0  0  0  0  0  0  0  0  0  0
   -2.4364    1.5059   -2.9625 C   0  0  0  0  0  0  0  0  0  0  0  0
   -1.1732    0.6619   -2.8954 C   0  0  0  0  0  0  0  0  0  0  0  0
   -0.6211    0.2878   -3.9270 O   0  0  0  0  0  0  0  0  0  0  0  0
   -0.7429    0.4209   -1.6033 N   0  0  0  0  0  0  0  0  0  0  0  0
    0.4264   -0.2453   -1.1888 C   0  0  0  0  0  0  0  0  0  0  0  0
    1.3969   -0.7400   -2.0648 C   0  0  0  0  0  0  0  0  0  0  0  0
    2.5468   -1.3670   -1.5712 C   0  0  0  0  0  0  0  0  0  0  0  0
    2.7313   -1.4860   -0.1926 C   0  0  0  0  0  0  0  0  0  0  0  0
    4.1840   -2.2770    0.4484 S   0  0  0  0  0  6  0  0  0  0  0  0
    4.9276   -2.8443   -0.6561 O   0  0  0  0  0  0  0  0  0  0  0  0
    3.7688   -3.0965    1.5668 O   0  0  0  0  0  0  0  0  0  0  0  0
    5.0977   -0.9682    1.0620 N   0  0  0  0  0  0  0  0  0  0  0  0
    5.4201    0.1113    0.0861 C   0  0  0  0  0  0  0  0  0  0  0  0
    6.3971    1.0987    0.7136 C   0  0  0  0  0  0  0  0  0  0  0  0
    7.7547    0.4290    0.9757 C   0  0  0  0  0  0  0  0  0  0  0  0
    8.5033    1.1444    2.0997 C   0  0  0  0  0  0  0  0  0  0  0  0
    7.5891   -1.0717    1.2630 C   0  0  0  0  0  0  0  0  0  0  0  0
    6.2488   -1.3846    1.9218 C   0  0  0  0  0  0  0  0  0  0  0  0
    1.7639   -1.0140    0.6957 C   0  0  0  0  0  0  0  0  0  0  0  0
    0.6154   -0.3941    0.1933 C   0  0  0  0  0  0  0  0  0  0  0  0
   -3.1087    0.8825   -0.1926 N   0  0  0  0  0  0  0  0  0  0  0  0
   -3.5922    0.9925    1.0750 N   0  0  0  0  0  0  0  0  0  0  0  0
   -4.8911    0.7706    1.0355 C   0  0  0  0  0  0  0  0  0  0  0  0
   -6.3346    1.2586    4.1717 H   0  0  0  0  0  0  0  0  0  0  0  0
   -4.7850    0.4383    3.9132 H   0  0  0  0  0  0  0  0  0  0  0  0
   -4.9599    2.1637    3.5250 H   0  0  0  0  0  0  0  0  0  0  0  0
   -7.9088    0.6269    2.5608 H   0  0  0  0  0  0  0  0  0  0  0  0
   -9.6470   -0.0282    0.9891 H   0  0  0  0  0  0  0  0  0  0  0  0
  -10.3613   -0.7360   -1.2638 H   0  0  0  0  0  0  0  0  0  0  0  0
   -8.6959   -0.9469   -3.0864 H   0  0  0  0  0  0  0  0  0  0  0  0
   -6.3588   -0.4449   -2.7036 H   0  0  0  0  0  0  0  0  0  0  0  0
   -2.4891    1.9519   -3.9600 H   0  0  0  0  0  0  0  0  0  0  0  0
   -2.3787    2.3357   -2.2520 H   0  0  0  0  0  0  0  0  0  0  0  0
   -1.3830    0.7010   -0.8569 H   0  0  0  0  0  0  0  0  0  0  0  0
    1.2872   -0.6598   -3.1412 H   0  0  0  0  0  0  0  0  0  0  0  0
    3.2828   -1.7591   -2.2681 H   0  0  0  0  0  0  0  0  0  0  0  0
    4.5037    0.6476   -0.1737 H   0  0  0  0  0  0  0  0  0  0  0  0
    5.8474   -0.3089   -0.8300 H   0  0  0  0  0  0  0  0  0  0  0  0
    5.9699    1.4843    1.6478 H   0  0  0  0  0  0  0  0  0  0  0  0
    6.5375    1.9607    0.0515 H   0  0  0  0  0  0  0  0  0  0  0  0
    8.3642    0.5213    0.0656 H   0  0  0  0  0  0  0  0  0  0  0  0
    7.9893    1.0258    3.0590 H   0  0  0  0  0  0  0  0  0  0  0  0
    8.5903    2.2152    1.8899 H   0  0  0  0  0  0  0  0  0  0  0  0
    9.5160    0.7429    2.2085 H   0  0  0  0  0  0  0  0  0  0  0  0
    8.4137   -1.4426    1.8830 H   0  0  0  0  0  0  0  0  0  0  0  0
    7.6466   -1.6172    0.3129 H   0  0  0  0  0  0  0  0  0  0  0  0
    6.2037   -2.4540    2.1523 H   0  0  0  0  0  0  0  0  0  0  0  0
    6.1597   -0.8581    2.8797 H   0  0  0  0  0  0  0  0  0  0  0  0
    1.8982   -1.1186    1.7692 H   0  0  0  0  0  0  0  0  0  0  0  0
   -0.1289   -0.0250    0.8966 H   0  0  0  0  0  0  0  0  0  0  0  0
  1  2  1  0
  2  3  2  0
  3  4  1  0
  4  5  2  0
  5  6  1  0
  6  7  2  0
  7  8  1  0
  8  9  2  0
  9 10  1  0
 10 11  1  0
 11 12  1  0
 12 13  1  0
 13 14  1  0
 14 15  2  0
 14 16  1  0
 16 17  1  0
 17 18  2  0
 18 19  1  0
 19 20  2  0
 20 21  1  0
 21 22  2  0
 21 23  2  0
 21 24  1  0
 24 25  1  0
 25 26  1  0
 26 27  1  0
 27 28  1  0
 27 29  1  0
 29 30  1  0
 20 31  1  0
 31 32  2  0
 11 33  2  0
 33 34  1  0
 34 35  2  0
 35  2  1  0
  9  4  1  0
 35 10  1  0
 32 17  1  0
 30 24  1  0
  1 36  1  0
  1 37  1  0
  1 38  1  0
  3 39  1  0
  5 40  1  0
  6 41  1  0
  7 42  1  0
  8 43  1  0
 13 44  1  0
 13 45  1  0
 16 46  1  0
 18 47  1  0
 19 48  1  0
 25 49  1  0
 25 50  1  0
 26 51  1  0
 26 52  1  0
 27 53  1  0
 28 54  1  0
 28 55  1  0
 28 56  1  0
 29 57  1  0
 29 58  1  0
 30 59  1  0
 30 60  1  0
 31 61  1  0
 32 62  1  0
M  END
$$$$
