
     RDKit          3D

 42 43  0  0  0  0  0  0  0  0999 V2000
   -4.7330   -2.1414    2.2962 C   0  0  0  0  0  0  0  0  0  0  0  0
   -4.0050   -1.1028    3.1530 C   0  0  0  0  0  0  0  0  0  0  0  0
   -4.7932    0.2084    3.2076 C   0  0  0  0  0  0  0  0  0  0  0  0
   -2.5831   -0.8814    2.6700 C   0  0  0  0  0  0  0  0  0  0  0  0
   -1.5047   -1.2145    3.4993 C   0  0  0  0  0  0  0  0  0  0  0  0
   -0.1896   -1.0229    3.0670 C   0  0  0  0  0  0  0  0  0  0  0  0
    0.0768   -0.4880    1.8060 C   0  0  0  0  0  0  0  0  0  0  0  0
    1.4044   -0.3524    1.5100 O   0  0  0  0  0  0  0  0  0  0  0  0
    1.7523    0.4974    0.4312 C   0  0  0  0  0  0  0  0  0  0  0  0
    1.7475   -0.1369   -0.9671 C   0  0  0  0  0  0  0  0  0  0  0  0
    1.5176   -1.3220   -1.1838 O   0  0  0  0  0  0  0  0  0  0  0  0
    2.0204    0.7727   -1.9773 N   0  0  0  0  0  0  0  0  0  0  0  0
    2.1570    0.3379   -3.3595 C   0  0  0  0  0  0  0  0  0  0  0  0
    3.5513   -0.2143   -3.6472 C   0  0  0  0  0  0  0  0  0  0  0  0
    4.4138    1.0253   -3.8651 C   0  0  0  0  0  0  0  0  0  0  0  0
    3.4649    2.1187   -4.3560 C   0  0  0  0  0  0  0  0  0  0  0  0
    2.0618    1.5146   -4.3258 C   0  0  0  0  0  0  0  0  0  0  0  0
   -0.9886   -0.1673    0.9674 C   0  0  0  0  0  0  0  0  0  0  0  0
   -2.3072   -0.3600    1.3977 C   0  0  0  0  0  0  0  0  0  0  0  0
   -4.8642   -1.8011    1.2633 H   0  0  0  0  0  0  0  0  0  0  0  0
   -5.7271   -2.3500    2.7063 H   0  0  0  0  0  0  0  0  0  0  0  0
   -4.1770   -3.0852    2.2685 H   0  0  0  0  0  0  0  0  0  0  0  0
   -3.9681   -1.4976    4.1771 H   0  0  0  0  0  0  0  0  0  0  0  0
   -4.9325    0.6452    2.2128 H   0  0  0  0  0  0  0  0  0  0  0  0
   -4.2775    0.9494    3.8285 H   0  0  0  0  0  0  0  0  0  0  0  0
   -5.7863    0.0424    3.6391 H   0  0  0  0  0  0  0  0  0  0  0  0
   -1.6756   -1.6317    4.4889 H   0  0  0  0  0  0  0  0  0  0  0  0
    0.6351   -1.2932    3.7217 H   0  0  0  0  0  0  0  0  0  0  0  0
    2.7860    0.8150    0.6161 H   0  0  0  0  0  0  0  0  0  0  0  0
    1.1476    1.4135    0.4302 H   0  0  0  0  0  0  0  0  0  0  0  0
    2.4070    1.6720   -1.7195 H   0  0  0  0  0  0  0  0  0  0  0  0
    1.3841   -0.4108   -3.5639 H   0  0  0  0  0  0  0  0  0  0  0  0
    3.5301   -0.8063   -4.5705 H   0  0  0  0  0  0  0  0  0  0  0  0
    3.9462   -0.8498   -2.8486 H   0  0  0  0  0  0  0  0  0  0  0  0
    4.8785    1.3350   -2.9216 H   0  0  0  0  0  0  0  0  0  0  0  0
    5.2204    0.8327   -4.5795 H   0  0  0  0  0  0  0  0  0  0  0  0
    3.5242    2.9898   -3.6935 H   0  0  0  0  0  0  0  0  0  0  0  0
    3.7251    2.4574   -5.3642 H   0  0  0  0  0  0  0  0  0  0  0  0
    1.3053    2.2518   -4.0386 H   0  0  0  0  0  0  0  0  0  0  0  0
    1.8091    1.1473   -5.3282 H   0  0  0  0  0  0  0  0  0  0  0  0
   -0.8347    0.2112   -0.0370 H   0  0  0  0  0  0  0  0  0  0  0  0
   -3.1189   -0.1078    0.7189 H   0  0  0  0  0  0  0  0  0  0  0  0
  1  2  1  0
  2  3  1  0
  2  4  1  0
  4  5  2  0
  5  6  1  0
  6  7  2  0
  7  8  1  0
  8  9  1  0
  9 10  1  0
 10 11  2  0
 10 12  1  0
 12 13  1  0
 13 14  1  0
 14 15  1  0
 15 16  1  0
 16 17  1  0
  7 18  1  0
 18 19  2  0
 19  4  1  0
 17 13  1  0
  1 20  1  0
  1 21  1  0
  1 22  1  0
  2 23  1  0
  3 24  1  0
  3 25  1  0
  3 26  1  0
  5 27  1  0
  6 28  1  0
  9 29  1  0
  9 30  1  0
 12 31  1  0
 13 32  1  0
 14 33  1  0
 14 34  1  0
 15 35  1  0
 15 36  1  0
 16 37  1  0
 16 38  1  0
 17 39  1  0
 17 40  1  0
 18 41  1  0
 19 42  1  0
M  END
$$$$
