
     RDKit          3D

 37 40  0  0  0  0  0  0  0  0999 V2000
   -1.5860    3.5076    0.9365 C   0  0  0  0  0  0  0  0  0  0  0  0
   -2.5182    2.8757    0.0661 O   0  0  0  0  0  0  0  0  0  0  0  0
   -2.4487    1.5144   -0.0266 C   0  0  0  0  0  0  0  0  0  0  0  0
   -3.2730    0.9473   -0.9893 C   0  0  0  0  0  0  0  0  0  0  0  0
   -3.2833   -0.4362   -1.1793 C   0  0  0  0  0  0  0  0  0  0  0  0
   -2.4836   -1.2843   -0.4288 C   0  0  0  0  0  0  0  0  0  0  0  0
   -2.5581   -2.6013   -0.6794 N   0  0  0  0  0  0  0  0  0  0  0  0
   -1.7984   -3.4523    0.0414 C   0  0  0  0  0  0  0  0  0  0  0  0
   -1.9225   -4.9142   -0.2667 C   0  0  0  0  0  0  0  0  0  0  0  0
   -0.9316   -3.0181    1.0281 C   0  0  0  0  0  0  0  0  0  0  0  0
   -0.8358   -1.6480    1.2844 C   0  0  0  0  0  0  0  0  0  0  0  0
    0.3197   -1.1606    2.5747 S   0  0  0  0  0  0  0  0  0  0  0  0
    1.5326   -0.4134    1.5485 C   0  0  0  0  0  0  0  0  0  0  0  0
    1.7005    0.8888    1.5596 N   0  0  0  0  0  0  0  0  0  0  0  0
    2.7004    1.2339    0.6663 C   0  0  0  0  0  0  0  0  0  0  0  0
    3.1493    2.5422    0.3946 C   0  0  0  0  0  0  0  0  0  0  0  0
    4.1716    2.7477   -0.5376 C   0  0  0  0  0  0  0  0  0  0  0  0
    4.7501    1.6686   -1.1985 C   0  0  0  0  0  0  0  0  0  0  0  0
    4.3246    0.3607   -0.9459 C   0  0  0  0  0  0  0  0  0  0  0  0
    3.2968    0.1659   -0.0085 C   0  0  0  0  0  0  0  0  0  0  0  0
    2.5658   -1.3029    0.5142 S   0  0  0  0  0  0  0  0  0  0  0  0
   -1.6381   -0.7327    0.5554 C   0  0  0  0  0  0  0  0  0  0  0  0
   -1.6469    0.6770    0.7475 C   0  0  0  0  0  0  0  0  0  0  0  0
   -0.5544    3.2768    0.6498 H   0  0  0  0  0  0  0  0  0  0  0  0
   -1.7229    4.5893    0.8429 H   0  0  0  0  0  0  0  0  0  0  0  0
   -1.7781    3.2374    1.9800 H   0  0  0  0  0  0  0  0  0  0  0  0
   -3.9117    1.5802   -1.6001 H   0  0  0  0  0  0  0  0  0  0  0  0
   -3.9355   -0.8628   -1.9380 H   0  0  0  0  0  0  0  0  0  0  0  0
   -0.9574   -5.3153   -0.5914 H   0  0  0  0  0  0  0  0  0  0  0  0
   -2.2597   -5.4603    0.6198 H   0  0  0  0  0  0  0  0  0  0  0  0
   -2.6490   -5.0836   -1.0680 H   0  0  0  0  0  0  0  0  0  0  0  0
   -0.3378   -3.7376    1.5836 H   0  0  0  0  0  0  0  0  0  0  0  0
    2.6966    3.3821    0.9122 H   0  0  0  0  0  0  0  0  0  0  0  0
    4.5144    3.7588   -0.7453 H   0  0  0  0  0  0  0  0  0  0  0  0
    5.5444    1.8429   -1.9218 H   0  0  0  0  0  0  0  0  0  0  0  0
    4.7774   -0.4801   -1.4628 H   0  0  0  0  0  0  0  0  0  0  0  0
   -1.0135    1.1062    1.5167 H   0  0  0  0  0  0  0  0  0  0  0  0
  1  2  1  0
  2  3  1  0
  3  4  2  0
  4  5  1  0
  5  6  2  0
  6  7  1  0
  7  8  2  0
  8  9  1  0
  8 10  1  0
 10 11  2  0
 11 12  1  0
 12 13  1  0
 13 14  2  0
 14 15  1  0
 15 16  2  0
 16 17  1  0
 17 18  2  0
 18 19  1  0
 19 20  2  0
 20 21  1  0
 11 22  1  0
 22 23  2  0
 23  3  1  0
 22  6  1  0
 21 13  1  0
 20 15  1  0
  1 24  1  0
  1 25  1  0
  1 26  1  0
  4 27  1  0
  5 28  1  0
  9 29  1  0
  9 30  1  0
  9 31  1  0
 10 32  1  0
 16 33  1  0
 17 34  1  0
 18 35  1  0
 19 36  1  0
 23 37  1  0
M  END
$$$$
