
     RDKit          3D

 59 62  0  0  0  0  0  0  0  0999 V2000
    2.7375    1.1403    2.7636 O   0  0  0  0  0  0  0  0  0  0  0  0
    1.7615    0.8292    2.0830 C   0  0  0  0  0  0  0  0  0  0  0  0
    0.5470    0.7560    2.6963 N   0  0  0  0  0  0  0  0  0  0  0  0
   -0.5362    0.0864    2.2155 C   0  0  0  0  0  0  0  0  0  0  0  0
   -1.4089   -0.3188    2.9779 O   0  0  0  0  0  0  0  0  0  0  0  0
   -0.6005   -0.0407    0.7120 C   0  0  0  0  0  0  0  0  0  0  0  0
   -1.1069    1.3156    0.1294 C   0  0  0  0  0  0  0  0  0  0  0  0
   -2.5597    1.6782    0.4702 C   0  0  0  0  0  0  0  0  0  0  0  0
   -2.8993    3.0667   -0.0110 C   0  0  0  0  0  0  0  0  0  0  0  0
   -2.8215    4.1620    0.8527 C   0  0  0  0  0  0  0  0  0  0  0  0
   -3.1231    5.4215    0.3571 C   0  0  0  0  0  0  0  0  0  0  0  0
   -3.4857    5.6596   -0.9210 N   0  0  0  0  0  0  0  0  0  0  0  0
   -3.5548    4.5885   -1.7393 C   0  0  0  0  0  0  0  0  0  0  0  0
   -3.2733    3.2913   -1.3385 C   0  0  0  0  0  0  0  0  0  0  0  0
   -1.5387   -1.2048    0.2976 C   0  0  0  0  0  0  0  0  0  0  0  0
   -1.0746   -2.5966    0.7642 C   0  0  0  0  0  0  0  0  0  0  0  0
   -2.0382   -3.6668    0.3181 C   0  0  0  0  0  0  0  0  0  0  0  0
   -1.8842   -4.2929   -0.9211 C   0  0  0  0  0  0  0  0  0  0  0  0
   -2.8073   -5.2567   -1.2967 C   0  0  0  0  0  0  0  0  0  0  0  0
   -3.8586   -5.6288   -0.5356 N   0  0  0  0  0  0  0  0  0  0  0  0
   -3.9915   -5.0073    0.6557 C   0  0  0  0  0  0  0  0  0  0  0  0
   -3.1220   -4.0322    1.1199 C   0  0  0  0  0  0  0  0  0  0  0  0
    0.7960   -0.2325    0.1267 C   0  0  0  0  0  0  0  0  0  0  0  0
    0.9653   -0.9303   -0.8739 O   0  0  0  0  0  0  0  0  0  0  0  0
    1.8222    0.4770    0.7439 N   0  0  0  0  0  0  0  0  0  0  0  0
    3.1587    0.5210    0.1133 C   0  0  0  0  0  0  0  0  0  0  0  0
    3.8861   -0.8334    0.1804 C   0  0  0  0  0  0  0  0  0  0  0  0
    5.2887   -0.7432   -0.4187 C   0  0  0  0  0  0  0  0  0  0  0  0
    5.2641   -0.1809   -1.8374 C   0  0  0  0  0  0  0  0  0  0  0  0
    4.5529    1.1683   -1.8984 C   0  0  0  0  0  0  0  0  0  0  0  0
    3.1409    1.0845   -1.3201 C   0  0  0  0  0  0  0  0  0  0  0  0
    0.5858    0.8622    3.7018 H   0  0  0  0  0  0  0  0  0  0  0  0
   -0.9968    1.2969   -0.9647 H   0  0  0  0  0  0  0  0  0  0  0  0
   -0.4529    2.1316    0.4691 H   0  0  0  0  0  0  0  0  0  0  0  0
   -3.2569    0.9707    0.0066 H   0  0  0  0  0  0  0  0  0  0  0  0
   -2.7334    1.6204    1.5507 H   0  0  0  0  0  0  0  0  0  0  0  0
   -2.5359    4.0457    1.8927 H   0  0  0  0  0  0  0  0  0  0  0  0
   -3.0787    6.2992    0.9957 H   0  0  0  0  0  0  0  0  0  0  0  0
   -3.8515    4.8059   -2.7614 H   0  0  0  0  0  0  0  0  0  0  0  0
   -3.3475    2.4770   -2.0518 H   0  0  0  0  0  0  0  0  0  0  0  0
   -1.6504   -1.2111   -0.7955 H   0  0  0  0  0  0  0  0  0  0  0  0
   -2.5445   -1.0356    0.7032 H   0  0  0  0  0  0  0  0  0  0  0  0
   -0.0785   -2.8374    0.3773 H   0  0  0  0  0  0  0  0  0  0  0  0
   -0.9845   -2.6338    1.8560 H   0  0  0  0  0  0  0  0  0  0  0  0
   -1.0641   -4.0377   -1.5846 H   0  0  0  0  0  0  0  0  0  0  0  0
   -2.7226   -5.7691   -2.2506 H   0  0  0  0  0  0  0  0  0  0  0  0
   -4.8453   -5.3220    1.2487 H   0  0  0  0  0  0  0  0  0  0  0  0
   -3.2912   -3.5692    2.0867 H   0  0  0  0  0  0  0  0  0  0  0  0
    3.7654    1.2300    0.6936 H   0  0  0  0  0  0  0  0  0  0  0  0
    3.9570   -1.1700    1.2217 H   0  0  0  0  0  0  0  0  0  0  0  0
    3.3216   -1.6045   -0.3559 H   0  0  0  0  0  0  0  0  0  0  0  0
    5.7508   -1.7369   -0.4240 H   0  0  0  0  0  0  0  0  0  0  0  0
    5.9150   -0.1040    0.2157 H   0  0  0  0  0  0  0  0  0  0  0  0
    4.7570   -0.8910   -2.5023 H   0  0  0  0  0  0  0  0  0  0  0  0
    6.2898   -0.0730   -2.2079 H   0  0  0  0  0  0  0  0  0  0  0  0
    5.1334    1.9138   -1.3412 H   0  0  0  0  0  0  0  0  0  0  0  0
    4.5050    1.5131   -2.9375 H   0  0  0  0  0  0  0  0  0  0  0  0
    2.6852    2.0822   -1.3197 H   0  0  0  0  0  0  0  0  0  0  0  0
    2.5332    0.4662   -1.9882 H   0  0  0  0  0  0  0  0  0  0  0  0
  1  2  2  0
  2  3  1  0
  3  4  1  0
  4  5  2  0
  4  6  1  0
  6  7  1  0
  7  8  1  0
  8  9  1  0
  9 10  2  0
 10 11  1  0
 11 12  2  0
 12 13  1  0
 13 14  2  0
  6 15  1  0
 15 16  1  0
 16 17  1  0
 17 18  2  0
 18 19  1  0
 19 20  2  0
 20 21  1  0
 21 22  2  0
  6 23  1  0
 23 24  2  0
 23 25  1  0
 25 26  1  0
 26 27  1  0
 27 28  1  0
 28 29  1  0
 29 30  1  0
 30 31  1  0
 25  2  1  0
 31 26  1  0
 14  9  1  0
 22 17  1  0
  3 32  1  0
  7 33  1  0
  7 34  1  0
  8 35  1  0
  8 36  1  0
 10 37  1  0
 11 38  1  0
 13 39  1  0
 14 40  1  0
 15 41  1  0
 15 42  1  0
 16 43  1  0
 16 44  1  0
 18 45  1  0
 19 46  1  0
 21 47  1  0
 22 48  1  0
 26 49  1  0
 27 50  1  0
 27 51  1  0
 28 52  1  0
 28 53  1  0
 29 54  1  0
 29 55  1  0
 30 56  1  0
 30 57  1  0
 31 58  1  0
 31 59  1  0
M  END
$$$$
