
     RDKit          3D

 39 40  0  0  0  0  0  0  0  0999 V2000
   -1.9911   -0.0880    3.0496 C   0  0  0  0  0  0  0  0  0  0  0  0
   -2.9850   -0.1257    1.8986 C   0  0  0  0  0  0  0  0  0  0  0  0
   -2.3747   -0.6089    0.5809 C   0  0  0  0  0  0  0  0  0  0  0  0
   -1.3201    0.3499    0.0191 C   0  0  0  0  0  0  0  0  0  0  0  0
   -0.8046   -0.1025   -1.2688 N   0  0  0  0  0  0  0  0  0  0  0  0
   -1.5550   -0.2082   -2.3966 C   0  0  0  0  0  0  0  0  0  0  0  0
   -2.4853    0.7368   -2.6230 N   0  0  0  0  0  0  0  0  0  0  0  0
   -1.3173   -1.1867   -3.2168 N   0  0  0  0  0  0  0  0  0  0  0  0
   -0.2736   -1.9905   -2.5217 C   0  0  0  0  0  0  0  0  0  0  0  0
    0.1886   -1.1782   -1.2904 C   0  0  0  0  0  0  0  0  0  0  0  0
    1.6079   -0.6240   -1.5018 C   0  0  0  0  0  0  0  0  0  0  0  0
    2.1771    0.0576   -0.2777 C   0  0  0  0  0  0  0  0  0  0  0  0
    2.2270    1.4574   -0.2040 C   0  0  0  0  0  0  0  0  0  0  0  0
    2.7327    2.0913    0.9330 C   0  0  0  0  0  0  0  0  0  0  0  0
    3.1885    1.3222    1.9981 C   0  0  0  0  0  0  0  0  0  0  0  0
    3.6883    1.8987    3.1281 O   0  0  0  0  0  0  0  0  0  0  0  0
    3.1477   -0.0654    1.9434 C   0  0  0  0  0  0  0  0  0  0  0  0
    2.6437   -0.6990    0.8068 C   0  0  0  0  0  0  0  0  0  0  0  0
   -1.5059   -1.0602    3.1823 H   0  0  0  0  0  0  0  0  0  0  0  0
   -1.2161    0.6667    2.8873 H   0  0  0  0  0  0  0  0  0  0  0  0
   -2.5065    0.1635    3.9821 H   0  0  0  0  0  0  0  0  0  0  0  0
   -3.8047   -0.8019    2.1695 H   0  0  0  0  0  0  0  0  0  0  0  0
   -3.4262    0.8686    1.7638 H   0  0  0  0  0  0  0  0  0  0  0  0
   -3.1870   -0.7289   -0.1463 H   0  0  0  0  0  0  0  0  0  0  0  0
   -1.9419   -1.6063    0.7239 H   0  0  0  0  0  0  0  0  0  0  0  0
   -1.7469    1.3541   -0.0880 H   0  0  0  0  0  0  0  0  0  0  0  0
   -0.4909    0.4464    0.7260 H   0  0  0  0  0  0  0  0  0  0  0  0
   -2.8311    0.6685   -3.5740 H   0  0  0  0  0  0  0  0  0  0  0  0
   -2.1491    1.6675   -2.4169 H   0  0  0  0  0  0  0  0  0  0  0  0
   -0.7216   -2.9397   -2.2056 H   0  0  0  0  0  0  0  0  0  0  0  0
    0.5448   -2.2162   -3.2130 H   0  0  0  0  0  0  0  0  0  0  0  0
    0.1444   -1.8082   -0.3942 H   0  0  0  0  0  0  0  0  0  0  0  0
    1.6256    0.0716   -2.3514 H   0  0  0  0  0  0  0  0  0  0  0  0
    2.2876   -1.4431   -1.7724 H   0  0  0  0  0  0  0  0  0  0  0  0
    1.8619    2.0608   -1.0328 H   0  0  0  0  0  0  0  0  0  0  0  0
    2.7598    3.1755    0.9679 H   0  0  0  0  0  0  0  0  0  0  0  0
    3.6801    2.8628    3.0122 H   0  0  0  0  0  0  0  0  0  0  0  0
    3.5093   -0.6524    2.7829 H   0  0  0  0  0  0  0  0  0  0  0  0
    2.6195   -1.7857    0.7751 H   0  0  0  0  0  0  0  0  0  0  0  0
  1  2  1  0
  2  3  1  0
  3  4  1  0
  4  5  1  0
  5  6  1  0
  6  7  1  0
  6  8  2  0
  8  9  1  0
  9 10  1  0
 10 11  1  0
 11 12  1  0
 12 13  2  0
 13 14  1  0
 14 15  2  0
 15 16  1  0
 15 17  1  0
 17 18  2  0
 10  5  1  0
 18 12  1  0
  1 19  1  0
  1 20  1  0
  1 21  1  0
  2 22  1  0
  2 23  1  0
  3 24  1  0
  3 25  1  0
  4 26  1  0
  4 27  1  0
  7 28  1  0
  7 29  1  0
  9 30  1  0
  9 31  1  0
 10 32  1  0
 11 33  1  0
 11 34  1  0
 13 35  1  0
 14 36  1  0
 16 37  1  0
 17 38  1  0
 18 39  1  0
M  END
$$$$
