
     RDKit          3D

 48 50  0  0  0  0  0  0  0  0999 V2000
    2.6203    0.3229    1.9852 C   0  0  0  0  0  0  0  0  0  0  0  0
    1.3587    0.4311    1.5413 C   0  0  0  0  0  0  0  0  0  0  0  0
    0.2815    1.1942    2.1742 C   0  0  0  0  0  0  0  0  0  0  0  0
    0.2278    1.9211    3.4507 C   0  0  0  0  0  0  0  0  0  0  0  0
   -0.6957    2.6794    3.7322 O   0  0  0  0  0  0  0  0  0  0  0  0
    1.2622    1.6214    4.2693 O   0  0  0  0  0  0  0  0  0  0  0  0
    1.2237    2.2862    5.5331 C   0  0  0  0  0  0  0  0  0  0  0  0
   -0.7961    1.1568    1.3653 C   0  0  0  0  0  0  0  0  0  0  0  0
   -2.0144    1.7474    1.5539 O   0  0  0  0  0  0  0  0  0  0  0  0
   -0.5151    0.3386    0.1858 C   0  0  0  0  0  0  0  0  0  0  0  0
   -1.3647    0.0266   -0.8123 C   0  0  0  0  0  0  0  0  0  0  0  0
   -2.7521    0.4687   -0.9655 C   0  0  0  0  0  0  0  0  0  0  0  0
   -3.0410    1.6616   -1.6377 C   0  0  0  0  0  0  0  0  0  0  0  0
   -4.3656    2.0720   -1.7978 C   0  0  0  0  0  0  0  0  0  0  0  0
   -5.3950    1.2905   -1.2858 C   0  0  0  0  0  0  0  0  0  0  0  0
   -6.6742    1.7289   -1.4634 O   0  0  0  0  0  0  0  0  0  0  0  0
   -5.1239    0.1016   -0.6146 C   0  0  0  0  0  0  0  0  0  0  0  0
   -3.7982   -0.3097   -0.4559 C   0  0  0  0  0  0  0  0  0  0  0  0
    0.8174   -0.0892    0.3498 N   0  0  0  0  0  0  0  0  0  0  0  0
    1.5396   -0.8700   -0.5917 C   0  0  0  0  0  0  0  0  0  0  0  0
    2.0817   -2.1116   -0.2253 C   0  0  0  0  0  0  0  0  0  0  0  0
    2.7953   -2.8921   -1.1446 C   0  0  0  0  0  0  0  0  0  0  0  0
    3.3974   -4.1993   -0.7224 C   0  0  0  0  0  0  0  0  0  0  0  0
    2.9860   -2.4097   -2.4450 C   0  0  0  0  0  0  0  0  0  0  0  0
    2.4434   -1.1813   -2.8406 C   0  0  0  0  0  0  0  0  0  0  0  0
    2.6754   -0.6587   -4.2273 C   0  0  0  0  0  0  0  0  0  0  0  0
    1.7329   -0.4167   -1.9058 C   0  0  0  0  0  0  0  0  0  0  0  0
    2.9726    0.7875    2.8969 H   0  0  0  0  0  0  0  0  0  0  0  0
    3.3687   -0.2268    1.4242 H   0  0  0  0  0  0  0  0  0  0  0  0
    1.2598    3.3716    5.3969 H   0  0  0  0  0  0  0  0  0  0  0  0
    2.1046    1.9795    6.1037 H   0  0  0  0  0  0  0  0  0  0  0  0
    0.3294    1.9940    6.0924 H   0  0  0  0  0  0  0  0  0  0  0  0
   -1.9664    2.2896    2.3688 H   0  0  0  0  0  0  0  0  0  0  0  0
   -1.0397   -0.6320   -1.6129 H   0  0  0  0  0  0  0  0  0  0  0  0
   -2.2386    2.2793   -2.0320 H   0  0  0  0  0  0  0  0  0  0  0  0
   -4.5919    2.9995   -2.3150 H   0  0  0  0  0  0  0  0  0  0  0  0
   -7.2755    1.1019   -1.0297 H   0  0  0  0  0  0  0  0  0  0  0  0
   -5.9211   -0.5123   -0.2091 H   0  0  0  0  0  0  0  0  0  0  0  0
   -3.5832   -1.2347    0.0732 H   0  0  0  0  0  0  0  0  0  0  0  0
    1.9319   -2.4764    0.7887 H   0  0  0  0  0  0  0  0  0  0  0  0
    3.4573   -4.8933   -1.5674 H   0  0  0  0  0  0  0  0  0  0  0  0
    4.4044   -4.0365   -0.3261 H   0  0  0  0  0  0  0  0  0  0  0  0
    2.7864   -4.6799    0.0490 H   0  0  0  0  0  0  0  0  0  0  0  0
    3.5608   -2.9981   -3.1581 H   0  0  0  0  0  0  0  0  0  0  0  0
    2.7504   -1.4808   -4.9468 H   0  0  0  0  0  0  0  0  0  0  0  0
    3.6011   -0.0758   -4.2573 H   0  0  0  0  0  0  0  0  0  0  0  0
    1.8448   -0.0214   -4.5488 H   0  0  0  0  0  0  0  0  0  0  0  0
    1.3367    0.5545   -2.1956 H   0  0  0  0  0  0  0  0  0  0  0  0
  1  2  2  0
  2  3  1  0
  3  4  1  0
  4  5  2  0
  4  6  1  0
  6  7  1  0
  3  8  2  0
  8  9  1  0
  8 10  1  0
 10 11  2  3
 11 12  1  0
 12 13  2  0
 13 14  1  0
 14 15  2  0
 15 16  1  0
 15 17  1  0
 17 18  2  0
 10 19  1  0
 19 20  1  0
 20 21  2  0
 21 22  1  0
 22 23  1  0
 22 24  2  0
 24 25  1  0
 25 26  1  0
 25 27  2  0
 19  2  1  0
 27 20  1  0
 18 12  1  0
  1 28  1  0
  1 29  1  0
  7 30  1  0
  7 31  1  0
  7 32  1  0
  9 33  1  0
 11 34  1  0
 13 35  1  0
 14 36  1  0
 16 37  1  0
 17 38  1  0
 18 39  1  0
 21 40  1  0
 23 41  1  0
 23 42  1  0
 23 43  1  0
 24 44  1  0
 26 45  1  0
 26 46  1  0
 26 47  1  0
 27 48  1  0
M  END
$$$$
