
     RDKit          3D

 38 40  0  0  0  0  0  0  0  0999 V2000
    3.9331    1.9126    0.1650 N   0  0  0  0  0  0  0  0  0  0  0  0
    3.5671    0.8134    0.0913 C   0  0  0  0  0  0  0  0  0  0  0  0
    3.0582   -0.5057   -0.0303 C   0  0  0  0  0  0  0  0  0  0  0  0
    3.8176   -1.6175    0.0369 C   0  0  0  0  0  0  0  0  0  0  0  0
    5.2345   -1.6409    0.2163 C   0  0  0  0  0  0  0  0  0  0  0  0
    6.2408   -0.8070   -0.2506 C   0  0  0  0  0  0  0  0  0  0  0  0
    7.5455   -1.2083    0.1719 C   0  0  0  0  0  0  0  0  0  0  0  0
    7.4904   -2.3456    0.9314 C   0  0  0  0  0  0  0  0  0  0  0  0
    9.0331   -3.1923    1.6758 Br  0  0  0  0  0  0  0  0  0  0  0  0
    5.9207   -2.9357    1.1379 S   0  0  0  0  0  0  0  0  0  0  0  0
    1.5812   -0.7126   -0.2154 C   0  0  0  0  0  0  0  0  0  0  0  0
    1.1044   -1.8371   -0.3452 O   0  0  0  0  0  0  0  0  0  0  0  0
    0.8013    0.4246   -0.2395 N   0  0  0  0  0  0  0  0  0  0  0  0
   -0.6217    0.3534   -0.5433 C   0  0  0  0  0  0  0  0  0  0  0  0
   -1.3840    1.5530    0.0205 C   0  0  0  0  0  0  0  0  0  0  0  0
   -2.8358    1.5262   -0.3327 C   0  0  0  0  0  0  0  0  0  0  0  0
   -3.4464    2.2392   -1.3462 C   0  0  0  0  0  0  0  0  0  0  0  0
   -4.7820    1.9386   -1.3397 N   0  0  0  0  0  0  0  0  0  0  0  0
   -5.0626    1.0383   -0.3392 C   0  0  0  0  0  0  0  0  0  0  0  0
   -6.2797    0.4552    0.0337 C   0  0  0  0  0  0  0  0  0  0  0  0
   -6.2670   -0.4412    1.1061 C   0  0  0  0  0  0  0  0  0  0  0  0
   -5.0837   -0.7402    1.7766 C   0  0  0  0  0  0  0  0  0  0  0  0
   -3.8758   -0.1473    1.3910 C   0  0  0  0  0  0  0  0  0  0  0  0
   -3.8607    0.7607    0.3120 C   0  0  0  0  0  0  0  0  0  0  0  0
    3.3287   -2.5913   -0.0176 H   0  0  0  0  0  0  0  0  0  0  0  0
    6.0702    0.0594   -0.8792 H   0  0  0  0  0  0  0  0  0  0  0  0
    8.4602   -0.6860   -0.0805 H   0  0  0  0  0  0  0  0  0  0  0  0
    1.2284    1.3429   -0.2780 H   0  0  0  0  0  0  0  0  0  0  0  0
   -0.7129    0.3143   -1.6352 H   0  0  0  0  0  0  0  0  0  0  0  0
   -1.0297   -0.5842   -0.1486 H   0  0  0  0  0  0  0  0  0  0  0  0
   -1.2712    1.5829    1.1117 H   0  0  0  0  0  0  0  0  0  0  0  0
   -0.9340    2.4821   -0.3532 H   0  0  0  0  0  0  0  0  0  0  0  0
   -3.0450    2.9360   -2.0701 H   0  0  0  0  0  0  0  0  0  0  0  0
   -5.4692    2.3194   -1.9750 H   0  0  0  0  0  0  0  0  0  0  0  0
   -7.2034    0.6854   -0.4869 H   0  0  0  0  0  0  0  0  0  0  0  0
   -7.1955   -0.9124    1.4202 H   0  0  0  0  0  0  0  0  0  0  0  0
   -5.0953   -1.4415    2.6073 H   0  0  0  0  0  0  0  0  0  0  0  0
   -2.9599   -0.3906    1.9213 H   0  0  0  0  0  0  0  0  0  0  0  0
  1  2  3  0
  2  3  1  0
  3  4  2  3
  4  5  1  0
  5  6  2  0
  6  7  1  0
  7  8  2  0
  8  9  1  0
  8 10  1  0
  3 11  1  0
 11 12  2  0
 11 13  1  0
 13 14  1  0
 14 15  1  0
 15 16  1  0
 16 17  2  0
 17 18  1  0
 18 19  1  0
 19 20  2  0
 20 21  1  0
 21 22  2  0
 22 23  1  0
 23 24  2  0
 10  5  1  0
 24 16  1  0
 24 19  1  0
  4 25  1  0
  6 26  1  0
  7 27  1  0
 13 28  1  0
 14 29  1  0
 14 30  1  0
 15 31  1  0
 15 32  1  0
 17 33  1  0
 18 34  1  0
 20 35  1  0
 21 36  1  0
 22 37  1  0
 23 38  1  0
M  END
$$$$
