
     RDKit          3D

 64 68  0  0  0  0  0  0  0  0999 V2000
   -5.1740    2.1533   -1.3195 C   0  0  0  0  0  0  0  0  0  0  0  0
   -3.6755    1.9004   -1.1019 C   0  0  0  0  0  0  0  0  0  0  0  0
   -2.9950    1.6368   -2.4530 C   0  0  0  0  0  0  0  0  0  0  0  0
   -3.0379    3.1584   -0.4829 C   0  0  0  0  0  0  0  0  0  0  0  0
   -3.5267    0.7451   -0.0867 C   0  0  0  0  0  0  0  0  0  0  0  0
   -3.7117    0.9126    1.1216 O   0  0  0  0  0  0  0  0  0  0  0  0
   -3.2208   -0.6378   -0.5546 C   0  0  0  0  0  0  0  0  0  0  0  0
   -4.2705   -1.2811   -1.2595 C   0  0  0  0  0  0  0  0  0  0  0  0
   -5.1226   -1.7732   -1.8762 N   0  0  0  0  0  0  0  0  0  0  0  0
   -1.9946   -1.1609   -0.3289 C   0  0  0  0  0  0  0  0  0  0  0  0
   -0.6720   -0.1541    0.2360 S   0  0  0  0  0  0  0  0  0  0  0  0
    0.4924   -1.3427   -0.1813 C   0  0  0  0  0  0  0  0  0  0  0  0
    1.8270   -1.2288   -0.1024 C   0  0  0  0  0  0  0  0  0  0  0  0
    2.5569   -0.0725    0.2991 C   0  0  0  0  0  0  0  0  0  0  0  0
    2.6686    1.0738   -0.4511 C   0  0  0  0  0  0  0  0  0  0  0  0
    3.4900    1.9278    0.2488 N   0  0  0  0  0  0  0  0  0  0  0  0
    3.9015    3.2413   -0.1156 C   0  0  0  0  0  0  0  0  0  0  0  0
    4.7015    3.9832    0.7681 C   0  0  0  0  0  0  0  0  0  0  0  0
    5.1114    5.2759    0.4334 C   0  0  0  0  0  0  0  0  0  0  0  0
    4.7294    5.8363   -0.7828 C   0  0  0  0  0  0  0  0  0  0  0  0
    3.9339    5.1080   -1.6664 C   0  0  0  0  0  0  0  0  0  0  0  0
    3.5194    3.8128   -1.3384 C   0  0  0  0  0  0  0  0  0  0  0  0
    3.9152    1.3639    1.4068 N   0  0  0  0  0  0  0  0  0  0  0  0
    3.3475    0.1486    1.4599 C   0  0  0  0  0  0  0  0  0  0  0  0
    3.5923   -0.7253    2.6065 C   0  0  0  0  0  0  0  0  0  0  0  0
    2.6305   -1.6134    3.0957 C   0  0  0  0  0  0  0  0  0  0  0  0
    2.9230   -2.4232    4.1932 C   0  0  0  0  0  0  0  0  0  0  0  0
    4.1722   -2.3146    4.7794 C   0  0  0  0  0  0  0  0  0  0  0  0
    5.1259   -1.4642    4.3499 N   0  0  0  0  0  0  0  0  0  0  0  0
    4.8108   -0.6866    3.2807 C   0  0  0  0  0  0  0  0  0  0  0  0
   -0.1455   -2.6172   -0.6000 C   0  0  0  0  0  0  0  0  0  0  0  0
    0.5040   -3.6274   -0.8363 O   0  0  0  0  0  0  0  0  0  0  0  0
   -1.5437   -2.4545   -0.6255 N   0  0  0  0  0  0  0  0  0  0  0  0
   -2.3527   -3.6276   -0.7627 C   0  0  0  0  0  0  0  0  0  0  0  0
   -2.0692   -4.5822   -1.7510 C   0  0  0  0  0  0  0  0  0  0  0  0
   -2.8524   -5.7335   -1.8748 C   0  0  0  0  0  0  0  0  0  0  0  0
   -3.9128   -5.9400   -1.0026 C   0  0  0  0  0  0  0  0  0  0  0  0
   -4.6610   -7.0438   -1.1195 F   0  0  0  0  0  0  0  0  0  0  0  0
   -4.1966   -5.0219   -0.0002 C   0  0  0  0  0  0  0  0  0  0  0  0
   -3.4143   -3.8711    0.1264 C   0  0  0  0  0  0  0  0  0  0  0  0
   -5.6620    1.2946   -1.7965 H   0  0  0  0  0  0  0  0  0  0  0  0
   -5.3407    3.0272   -1.9611 H   0  0  0  0  0  0  0  0  0  0  0  0
   -5.6908    2.3339   -0.3687 H   0  0  0  0  0  0  0  0  0  0  0  0
   -3.4552    0.8010   -2.9899 H   0  0  0  0  0  0  0  0  0  0  0  0
   -3.0695    2.5139   -3.1075 H   0  0  0  0  0  0  0  0  0  0  0  0
   -1.9308    1.4085   -2.3283 H   0  0  0  0  0  0  0  0  0  0  0  0
   -1.9609    3.0217   -0.3269 H   0  0  0  0  0  0  0  0  0  0  0  0
   -3.4808    3.3956    0.4918 H   0  0  0  0  0  0  0  0  0  0  0  0
   -3.1747    4.0359   -1.1271 H   0  0  0  0  0  0  0  0  0  0  0  0
    2.4344   -2.1031   -0.3364 H   0  0  0  0  0  0  0  0  0  0  0  0
    2.2440    1.3394   -1.4060 H   0  0  0  0  0  0  0  0  0  0  0  0
    5.0080    3.5719    1.7276 H   0  0  0  0  0  0  0  0  0  0  0  0
    5.7243    5.8471    1.1255 H   0  0  0  0  0  0  0  0  0  0  0  0
    5.0479    6.8426   -1.0387 H   0  0  0  0  0  0  0  0  0  0  0  0
    3.6387    5.5499   -2.6152 H   0  0  0  0  0  0  0  0  0  0  0  0
    2.9144    3.2799   -2.0632 H   0  0  0  0  0  0  0  0  0  0  0  0
    1.6416   -1.6757    2.6538 H   0  0  0  0  0  0  0  0  0  0  0  0
    2.1874   -3.1163    4.5872 H   0  0  0  0  0  0  0  0  0  0  0  0
    4.4442   -2.9225    5.6382 H   0  0  0  0  0  0  0  0  0  0  0  0
    5.6026   -0.0089    2.9697 H   0  0  0  0  0  0  0  0  0  0  0  0
   -1.2448   -4.4391   -2.4467 H   0  0  0  0  0  0  0  0  0  0  0  0
   -2.6347   -6.4712   -2.6433 H   0  0  0  0  0  0  0  0  0  0  0  0
   -5.0204   -5.2127    0.6800 H   0  0  0  0  0  0  0  0  0  0  0  0
   -3.6263   -3.1943    0.9496 H   0  0  0  0  0  0  0  0  0  0  0  0
  1  2  1  0
  2  3  1  0
  2  4  1  0
  2  5  1  0
  5  6  2  0
  5  7  1  0
  7  8  1  0
  8  9  3  0
  7 10  2  3
 10 11  1  0
 11 12  1  0
 12 13  2  3
 13 14  1  0
 14 15  2  0
 15 16  1  0
 16 17  1  0
 17 18  2  0
 18 19  1  0
 19 20  2  0
 20 21  1  0
 21 22  2  0
 16 23  1  0
 23 24  2  0
 24 25  1  0
 25 26  2  0
 26 27  1  0
 27 28  2  0
 28 29  1  0
 29 30  2  0
 12 31  1  0
 31 32  2  0
 31 33  1  0
 33 34  1  0
 34 35  2  0
 35 36  1  0
 36 37  2  0
 37 38  1  0
 37 39  1  0
 39 40  2  0
 33 10  1  0
 40 34  1  0
 24 14  1  0
 30 25  1  0
 22 17  1  0
  1 41  1  0
  1 42  1  0
  1 43  1  0
  3 44  1  0
  3 45  1  0
  3 46  1  0
  4 47  1  0
  4 48  1  0
  4 49  1  0
 13 50  1  0
 15 51  1  0
 18 52  1  0
 19 53  1  0
 20 54  1  0
 21 55  1  0
 22 56  1  0
 26 57  1  0
 27 58  1  0
 28 59  1  0
 30 60  1  0
 35 61  1  0
 36 62  1  0
 39 63  1  0
 40 64  1  0
M  END
$$$$
