
     RDKit          3D

 57 60  0  0  0  0  0  0  0  0999 V2000
   -1.0178    2.2866    1.9459 O   0  0  0  0  0  0  0  0  0  0  0  0
   -1.2631    1.3706    1.1708 C   0  0  0  0  0  0  0  0  0  0  0  0
   -2.3233    1.2954    0.2939 N   0  0  0  0  0  0  0  0  0  0  0  0
   -3.3587    2.2312    0.0777 C   0  0  0  0  0  0  0  0  0  0  0  0
   -3.4521    3.4405    0.7714 C   0  0  0  0  0  0  0  0  0  0  0  0
   -4.5043    4.3282    0.5192 C   0  0  0  0  0  0  0  0  0  0  0  0
   -5.4741    4.0205   -0.4320 C   0  0  0  0  0  0  0  0  0  0  0  0
   -5.3927    2.8226   -1.1379 C   0  0  0  0  0  0  0  0  0  0  0  0
   -4.3415    1.9366   -0.8871 C   0  0  0  0  0  0  0  0  0  0  0  0
   -4.2742    0.4757   -1.8174 Cl  0  0  0  0  0  0  0  0  0  0  0  0
   -0.3072    0.2222    1.0950 C   0  0  0  0  0  0  0  0  0  0  0  0
    1.0529    0.5662    1.2048 C   0  0  0  0  0  0  0  0  0  0  0  0
    2.0268   -0.4129    1.0373 C   0  0  0  0  0  0  0  0  0  0  0  0
    3.7498    0.0034    1.1244 S   0  0  0  0  0  6  0  0  0  0  0  0
    3.8749    1.4329    1.3149 O   0  0  0  0  0  0  0  0  0  0  0  0
    4.3626   -0.9391    2.0376 O   0  0  0  0  0  0  0  0  0  0  0  0
    4.2967   -0.3455   -0.4580 N   0  0  0  0  0  0  0  0  0  0  0  0
    3.7046    0.4816   -1.5405 C   0  0  0  0  0  0  0  0  0  0  0  0
    4.1882   -0.0372   -2.8903 C   0  0  0  0  0  0  0  0  0  0  0  0
    5.7083    0.0321   -3.0242 C   0  0  0  0  0  0  0  0  0  0  0  0
    6.4029    0.2665   -1.6867 C   0  0  0  0  0  0  0  0  0  0  0  0
    5.7730   -0.5455   -0.5606 C   0  0  0  0  0  0  0  0  0  0  0  0
    1.6635   -1.7313    0.7817 C   0  0  0  0  0  0  0  0  0  0  0  0
    0.3102   -2.0738    0.6903 C   0  0  0  0  0  0  0  0  0  0  0  0
   -0.7129   -1.1212    0.8579 C   0  0  0  0  0  0  0  0  0  0  0  0
   -2.0685   -1.4866    0.8064 N   0  0  0  0  0  0  0  0  0  0  0  0
   -2.8123   -1.2935    2.0891 C   0  0  0  0  0  0  0  0  0  0  0  0
   -3.4436   -2.6129    2.5668 C   0  0  0  0  0  0  0  0  0  0  0  0
   -4.3521   -3.1923    1.6161 O   0  0  0  0  0  0  0  0  0  0  0  0
   -3.9907   -2.9269    0.2519 C   0  0  0  0  0  0  0  0  0  0  0  0
   -2.4815   -2.7015    0.0661 C   0  0  0  0  0  0  0  0  0  0  0  0
   -2.4051    0.4219   -0.2257 H   0  0  0  0  0  0  0  0  0  0  0  0
   -2.7187    3.7252    1.5189 H   0  0  0  0  0  0  0  0  0  0  0  0
   -4.5604    5.2650    1.0708 H   0  0  0  0  0  0  0  0  0  0  0  0
   -6.2887    4.7139   -0.6247 H   0  0  0  0  0  0  0  0  0  0  0  0
   -6.1472    2.5872   -1.8829 H   0  0  0  0  0  0  0  0  0  0  0  0
    1.3373    1.6006    1.3955 H   0  0  0  0  0  0  0  0  0  0  0  0
    3.9709    1.5368   -1.4124 H   0  0  0  0  0  0  0  0  0  0  0  0
    2.6136    0.4016   -1.5173 H   0  0  0  0  0  0  0  0  0  0  0  0
    3.8673   -1.0808   -3.0121 H   0  0  0  0  0  0  0  0  0  0  0  0
    3.7184    0.5296   -3.7027 H   0  0  0  0  0  0  0  0  0  0  0  0
    6.0701   -0.8998   -3.4753 H   0  0  0  0  0  0  0  0  0  0  0  0
    5.9874    0.8351   -3.7170 H   0  0  0  0  0  0  0  0  0  0  0  0
    6.3523    1.3336   -1.4359 H   0  0  0  0  0  0  0  0  0  0  0  0
    7.4670    0.0211   -1.7749 H   0  0  0  0  0  0  0  0  0  0  0  0
    5.9477   -1.6156   -0.7274 H   0  0  0  0  0  0  0  0  0  0  0  0
    6.2765   -0.2796    0.3759 H   0  0  0  0  0  0  0  0  0  0  0  0
    2.4268   -2.4971    0.6572 H   0  0  0  0  0  0  0  0  0  0  0  0
    0.0826   -3.1213    0.5152 H   0  0  0  0  0  0  0  0  0  0  0  0
   -3.6137   -0.5675    1.9078 H   0  0  0  0  0  0  0  0  0  0  0  0
   -2.1704   -0.8983    2.8857 H   0  0  0  0  0  0  0  0  0  0  0  0
   -2.6623   -3.3536    2.7765 H   0  0  0  0  0  0  0  0  0  0  0  0
   -3.9993   -2.4548    3.4970 H   0  0  0  0  0  0  0  0  0  0  0  0
   -4.3260   -3.7774   -0.3516 H   0  0  0  0  0  0  0  0  0  0  0  0
   -4.5584   -2.0497   -0.0752 H   0  0  0  0  0  0  0  0  0  0  0  0
   -1.9621   -3.5881    0.4471 H   0  0  0  0  0  0  0  0  0  0  0  0
   -2.2494   -2.5810   -0.9971 H   0  0  0  0  0  0  0  0  0  0  0  0
  1  2  2  0
  2  3  1  0
  3  4  1  0
  4  5  2  0
  5  6  1  0
  6  7  2  0
  7  8  1  0
  8  9  2  0
  9 10  1  0
  2 11  1  0
 11 12  2  0
 12 13  1  0
 13 14  1  0
 14 15  2  0
 14 16  2  0
 14 17  1  0
 17 18  1  0
 18 19  1  0
 19 20  1  0
 20 21  1  0
 21 22  1  0
 13 23  2  0
 23 24  1  0
 24 25  2  0
 25 26  1  0
 26 27  1  0
 27 28  1  0
 28 29  1  0
 29 30  1  0
 30 31  1  0
  9  4  1  0
 25 11  1  0
 31 26  1  0
 22 17  1  0
  3 32  1  0
  5 33  1  0
  6 34  1  0
  7 35  1  0
  8 36  1  0
 12 37  1  0
 18 38  1  0
 18 39  1  0
 19 40  1  0
 19 41  1  0
 20 42  1  0
 20 43  1  0
 21 44  1  0
 21 45  1  0
 22 46  1  0
 22 47  1  0
 23 48  1  0
 24 49  1  0
 27 50  1  0
 27 51  1  0
 28 52  1  0
 28 53  1  0
 30 54  1  0
 30 55  1  0
 31 56  1  0
 31 57  1  0
M  END
$$$$
