
     RDKit          3D

 49 52  0  0  0  0  0  0  0  0999 V2000
   -6.0942   -2.9046    0.3478 C   0  0  0  0  0  0  0  0  0  0  0  0
   -5.2857   -1.6446    0.2522 C   0  0  0  0  0  0  0  0  0  0  0  0
   -5.8910   -0.3968    0.4249 C   0  0  0  0  0  0  0  0  0  0  0  0
   -5.1404    0.7797    0.3223 C   0  0  0  0  0  0  0  0  0  0  0  0
   -5.7980    2.1168    0.5093 C   0  0  0  0  0  0  0  0  0  0  0  0
   -3.7755    0.7045   -0.0023 C   0  0  0  0  0  0  0  0  0  0  0  0
   -3.1550   -0.5323   -0.2110 C   0  0  0  0  0  0  0  0  0  0  0  0
   -1.7688   -0.6569   -0.5420 N   0  0  0  0  0  0  0  0  0  0  0  0
   -1.1857   -1.8924   -0.4873 N   0  0  0  0  0  0  0  0  0  0  0  0
    0.1037   -1.6922   -0.7466 C   0  0  0  0  0  0  0  0  0  0  0  0
    0.3909   -0.3506   -1.0163 C   0  0  0  0  0  0  0  0  0  0  0  0
   -0.8326    0.2925   -0.9340 C   0  0  0  0  0  0  0  0  0  0  0  0
   -1.0371    1.7321   -1.2618 C   0  0  0  0  0  0  0  0  0  0  0  0
    0.1678    2.2744   -2.0564 C   0  0  0  0  0  0  0  0  0  0  0  0
    1.5064    1.8474   -1.4331 C   0  0  0  0  0  0  0  0  0  0  0  0
    1.6689    0.3097   -1.4101 C   0  0  0  0  0  0  0  0  0  0  0  0
    2.6948   -0.0844   -0.4790 N   0  0  0  0  0  0  0  0  0  0  0  0
    4.0350    0.0196   -0.7715 C   0  0  0  0  0  0  0  0  0  0  0  0
    4.4700    0.3145   -1.8801 O   0  0  0  0  0  0  0  0  0  0  0  0
    4.9002   -0.2412    0.3891 C   0  0  0  0  0  0  0  0  0  0  0  0
    6.3177   -0.2601    0.4132 C   0  0  0  0  0  0  0  0  0  0  0  0
    6.6624   -0.5439    1.7150 C   0  0  0  0  0  0  0  0  0  0  0  0
    7.9774   -0.6968    2.3749 C   0  0  0  0  0  0  0  0  0  0  0  0
    5.4796   -0.6706    2.3872 N   0  0  0  0  0  0  0  0  0  0  0  0
    4.3940   -0.4898    1.6160 N   0  0  0  0  0  0  0  0  0  0  0  0
   -3.9227   -1.7031   -0.0699 C   0  0  0  0  0  0  0  0  0  0  0  0
   -5.4862   -3.7293    0.7341 H   0  0  0  0  0  0  0  0  0  0  0  0
   -6.4779   -3.1780   -0.6398 H   0  0  0  0  0  0  0  0  0  0  0  0
   -6.9395   -2.7768    1.0322 H   0  0  0  0  0  0  0  0  0  0  0  0
   -6.9539   -0.3416    0.6520 H   0  0  0  0  0  0  0  0  0  0  0  0
   -5.1232    2.8115    1.0207 H   0  0  0  0  0  0  0  0  0  0  0  0
   -6.0744    2.5365   -0.4629 H   0  0  0  0  0  0  0  0  0  0  0  0
   -6.7003    2.0302    1.1240 H   0  0  0  0  0  0  0  0  0  0  0  0
   -3.2272    1.6353   -0.0499 H   0  0  0  0  0  0  0  0  0  0  0  0
    0.7786   -2.5388   -0.7403 H   0  0  0  0  0  0  0  0  0  0  0  0
   -1.9393    1.8800   -1.8637 H   0  0  0  0  0  0  0  0  0  0  0  0
   -1.1311    2.3069   -0.3332 H   0  0  0  0  0  0  0  0  0  0  0  0
    0.1093    3.3679   -2.1024 H   0  0  0  0  0  0  0  0  0  0  0  0
    0.1218    1.9077   -3.0902 H   0  0  0  0  0  0  0  0  0  0  0  0
    2.3372    2.2987   -1.9889 H   0  0  0  0  0  0  0  0  0  0  0  0
    1.5631    2.2495   -0.4121 H   0  0  0  0  0  0  0  0  0  0  0  0
    1.9507   -0.0325   -2.4140 H   0  0  0  0  0  0  0  0  0  0  0  0
    2.4787   -0.2078    0.5074 H   0  0  0  0  0  0  0  0  0  0  0  0
    6.9838   -0.0882   -0.4215 H   0  0  0  0  0  0  0  0  0  0  0  0
    7.9050   -1.3242    3.2699 H   0  0  0  0  0  0  0  0  0  0  0  0
    8.3690    0.2817    2.6721 H   0  0  0  0  0  0  0  0  0  0  0  0
    8.6985   -1.1638    1.6954 H   0  0  0  0  0  0  0  0  0  0  0  0
    5.3403   -0.8758    3.3719 H   0  0  0  0  0  0  0  0  0  0  0  0
   -3.4647   -2.6799   -0.2233 H   0  0  0  0  0  0  0  0  0  0  0  0
  1  2  1  0
  2  3  2  0
  3  4  1  0
  4  5  1  0
  4  6  2  0
  6  7  1  0
  7  8  1  0
  8  9  1  0
  9 10  2  0
 10 11  1  0
 11 12  2  0
 12 13  1  0
 13 14  1  0
 14 15  1  0
 15 16  1  0
 16 17  1  0
 17 18  1  0
 18 19  2  0
 18 20  1  0
 20 21  1  0
 21 22  2  0
 22 23  1  0
 22 24  1  0
 24 25  1  0
  7 26  2  0
 26  2  1  0
 12  8  1  0
 25 20  2  0
 16 11  1  0
  1 27  1  0
  1 28  1  0
  1 29  1  0
  3 30  1  0
  5 31  1  0
  5 32  1  0
  5 33  1  0
  6 34  1  0
 10 35  1  0
 13 36  1  0
 13 37  1  0
 14 38  1  0
 14 39  1  0
 15 40  1  0
 15 41  1  0
 16 42  1  0
 17 43  1  0
 21 44  1  0
 23 45  1  0
 23 46  1  0
 23 47  1  0
 24 48  1  0
 26 49  1  0
M  END
$$$$
