
     RDKit          3D

 44 46  0  0  0  0  0  0  0  0999 V2000
    3.6276    3.4274   -3.6555 C   0  0  0  0  0  0  0  0  0  0  0  0
    2.5772    3.1117   -2.6903 N   0  0  0  0  0  0  0  0  0  0  0  0
    3.1610    2.7495   -1.3831 C   0  0  0  0  0  0  0  0  0  0  0  0
    2.0897    2.3693   -0.3382 C   0  0  0  0  0  0  0  0  0  0  0  0
    1.2149    1.2654   -0.8187 N   0  0  0  0  0  0  0  0  0  0  0  0
    0.5582    0.4160    0.0963 C   0  0  0  0  0  0  0  0  0  0  0  0
   -0.6826   -0.0864   -0.0832 C   0  0  0  0  0  0  0  0  0  0  0  0
   -1.3690   -0.9620    0.8572 C   0  0  0  0  0  0  0  0  0  0  0  0
   -2.5512   -1.5247    0.5409 C   0  0  0  0  0  0  0  0  0  0  0  0
   -3.3028   -2.4095    1.4392 C   0  0  0  0  0  0  0  0  0  0  0  0
   -4.4260   -3.0700    1.0570 C   0  0  0  0  0  0  0  0  0  0  0  0
   -4.9582   -2.9698   -0.2627 C   0  0  0  0  0  0  0  0  0  0  0  0
   -5.3832   -2.8789   -1.3390 N   0  0  0  0  0  0  0  0  0  0  0  0
   -5.1473   -3.8995    1.9657 C   0  0  0  0  0  0  0  0  0  0  0  0
   -5.7255   -4.5704    2.7159 N   0  0  0  0  0  0  0  0  0  0  0  0
   -2.7256   -2.5182    2.8457 C   0  0  0  0  0  0  0  0  0  0  0  0
   -1.1978   -2.4931    2.8453 C   0  0  0  0  0  0  0  0  0  0  0  0
   -0.6828   -1.2109    2.1821 C   0  0  0  0  0  0  0  0  0  0  0  0
    0.8343   -1.2710    2.0000 C   0  0  0  0  0  0  0  0  0  0  0  0
    1.3457    0.0084    1.3364 C   0  0  0  0  0  0  0  0  0  0  0  0
    0.6546    1.5697   -2.1610 C   0  0  0  0  0  0  0  0  0  0  0  0
    1.7556    1.9801   -3.1651 C   0  0  0  0  0  0  0  0  0  0  0  0
    4.2206    4.2815   -3.3102 H   0  0  0  0  0  0  0  0  0  0  0  0
    4.3061    2.5837   -3.8257 H   0  0  0  0  0  0  0  0  0  0  0  0
    3.1895    3.7163   -4.6172 H   0  0  0  0  0  0  0  0  0  0  0  0
    3.8597    1.9093   -1.4960 H   0  0  0  0  0  0  0  0  0  0  0  0
    3.7322    3.6000   -0.9915 H   0  0  0  0  0  0  0  0  0  0  0  0
    2.6126    2.0979    0.5842 H   0  0  0  0  0  0  0  0  0  0  0  0
    1.4638    3.2413   -0.1094 H   0  0  0  0  0  0  0  0  0  0  0  0
   -1.2445    0.1775   -0.9738 H   0  0  0  0  0  0  0  0  0  0  0  0
   -2.9736   -1.3156   -0.4416 H   0  0  0  0  0  0  0  0  0  0  0  0
   -3.1044   -1.6805    3.4460 H   0  0  0  0  0  0  0  0  0  0  0  0
   -3.0411   -3.4389    3.3480 H   0  0  0  0  0  0  0  0  0  0  0  0
   -0.8286   -2.5522    3.8763 H   0  0  0  0  0  0  0  0  0  0  0  0
   -0.8169   -3.3794    2.3201 H   0  0  0  0  0  0  0  0  0  0  0  0
   -0.9185   -0.3633    2.8421 H   0  0  0  0  0  0  0  0  0  0  0  0
    1.3309   -1.4021    2.9689 H   0  0  0  0  0  0  0  0  0  0  0  0
    1.1102   -2.1368    1.3825 H   0  0  0  0  0  0  0  0  0  0  0  0
    2.3984   -0.1538    1.0733 H   0  0  0  0  0  0  0  0  0  0  0  0
    1.3092    0.8303    2.0626 H   0  0  0  0  0  0  0  0  0  0  0  0
   -0.0913    2.3689   -2.0698 H   0  0  0  0  0  0  0  0  0  0  0  0
    0.1569    0.6871   -2.5787 H   0  0  0  0  0  0  0  0  0  0  0  0
    1.2699    2.2530   -4.1098 H   0  0  0  0  0  0  0  0  0  0  0  0
    2.3919    1.1071   -3.3654 H   0  0  0  0  0  0  0  0  0  0  0  0
  1  2  1  0
  2  3  1  0
  3  4  1  0
  4  5  1  0
  5  6  1  0
  6  7  2  0
  7  8  1  0
  8  9  2  0
  9 10  1  0
 10 11  2  3
 11 12  1  0
 12 13  3  0
 11 14  1  0
 14 15  3  0
 10 16  1  0
 16 17  1  0
 17 18  1  0
 18 19  1  0
 19 20  1  0
  5 21  1  0
 21 22  1  0
 22  2  1  0
 20  6  1  0
 18  8  1  0
  1 23  1  0
  1 24  1  0
  1 25  1  0
  3 26  1  0
  3 27  1  0
  4 28  1  0
  4 29  1  0
  7 30  1  0
  9 31  1  0
 16 32  1  0
 16 33  1  0
 17 34  1  0
 17 35  1  0
 18 36  1  0
 19 37  1  0
 19 38  1  0
 20 39  1  0
 20 40  1  0
 21 41  1  0
 21 42  1  0
 22 43  1  0
 22 44  1  0
M  END
$$$$
