
     RDKit          3D

 49 52  0  0  0  0  0  0  0  0999 V2000
   -7.2609   -2.3677   -2.2917 C   0  0  0  0  0  0  0  0  0  0  0  0
   -6.9780   -0.9751   -2.2382 O   0  0  0  0  0  0  0  0  0  0  0  0
   -6.2905   -0.5274   -1.1438 C   0  0  0  0  0  0  0  0  0  0  0  0
   -6.0456    0.8477   -1.1307 C   0  0  0  0  0  0  0  0  0  0  0  0
   -5.3522    1.4404   -0.0724 C   0  0  0  0  0  0  0  0  0  0  0  0
   -4.8976    0.6612    0.9976 C   0  0  0  0  0  0  0  0  0  0  0  0
   -4.1259    1.2815    2.1328 C   0  0  0  0  0  0  0  0  0  0  0  0
   -2.7064    1.1525    1.9142 N   0  0  0  0  0  0  0  0  0  0  0  0
   -1.9547    0.1552    2.4967 C   0  0  0  0  0  0  0  0  0  0  0  0
   -2.4304   -0.6050    3.3378 O   0  0  0  0  0  0  0  0  0  0  0  0
   -0.5707    0.0600    2.0463 C   0  0  0  0  0  0  0  0  0  0  0  0
    0.3903   -0.8394    2.5043 C   0  0  0  0  0  0  0  0  0  0  0  0
    1.6212   -0.6483    1.8453 C   0  0  0  0  0  0  0  0  0  0  0  0
    1.5603    0.3581    0.9327 C   0  0  0  0  0  0  0  0  0  0  0  0
    0.0750    1.1043    0.8181 S   0  0  0  0  0  0  0  0  0  0  0  0
    2.8468    0.5621    0.2412 C   0  0  0  0  0  0  0  0  0  0  0  0
    3.7745   -0.2645    1.0735 N   0  0  0  0  0  0  0  0  0  0  0  0
    4.8226   -0.9158    0.2898 C   0  0  0  0  0  0  0  0  0  0  0  0
    5.7638    0.0676   -0.3727 C   0  0  0  0  0  0  0  0  0  0  0  0
    6.4962    0.9824    0.3990 C   0  0  0  0  0  0  0  0  0  0  0  0
    7.3698    1.8851   -0.2087 C   0  0  0  0  0  0  0  0  0  0  0  0
    7.5235    1.8813   -1.5936 C   0  0  0  0  0  0  0  0  0  0  0  0
    6.8042    0.9756   -2.3714 C   0  0  0  0  0  0  0  0  0  0  0  0
    5.9292    0.0721   -1.7652 C   0  0  0  0  0  0  0  0  0  0  0  0
    2.9742   -1.2487    1.8658 C   0  0  0  0  0  0  0  0  0  0  0  0
   -5.1372   -0.7197    0.9764 C   0  0  0  0  0  0  0  0  0  0  0  0
   -5.8314   -1.3103   -0.0853 C   0  0  0  0  0  0  0  0  0  0  0  0
   -6.3386   -2.9567   -2.3284 H   0  0  0  0  0  0  0  0  0  0  0  0
   -7.8942   -2.6748   -1.4528 H   0  0  0  0  0  0  0  0  0  0  0  0
   -7.8156   -2.5607   -3.2150 H   0  0  0  0  0  0  0  0  0  0  0  0
   -6.3980    1.4629   -1.9551 H   0  0  0  0  0  0  0  0  0  0  0  0
   -5.1729    2.5127   -0.0925 H   0  0  0  0  0  0  0  0  0  0  0  0
   -4.4187    0.8261    3.0855 H   0  0  0  0  0  0  0  0  0  0  0  0
   -4.3482    2.3519    2.2048 H   0  0  0  0  0  0  0  0  0  0  0  0
   -2.2909    1.6612    1.1456 H   0  0  0  0  0  0  0  0  0  0  0  0
    0.1890   -1.5786    3.2709 H   0  0  0  0  0  0  0  0  0  0  0  0
    2.7739    0.1955   -0.7894 H   0  0  0  0  0  0  0  0  0  0  0  0
    3.1626    1.6094    0.2458 H   0  0  0  0  0  0  0  0  0  0  0  0
    5.4340   -1.5493    0.9462 H   0  0  0  0  0  0  0  0  0  0  0  0
    4.3832   -1.5849   -0.4618 H   0  0  0  0  0  0  0  0  0  0  0  0
    6.3776    0.9969    1.4808 H   0  0  0  0  0  0  0  0  0  0  0  0
    7.9281    2.5918    0.3995 H   0  0  0  0  0  0  0  0  0  0  0  0
    8.2037    2.5846   -2.0665 H   0  0  0  0  0  0  0  0  0  0  0  0
    6.9253    0.9729   -3.4515 H   0  0  0  0  0  0  0  0  0  0  0  0
    5.3772   -0.6274   -2.3885 H   0  0  0  0  0  0  0  0  0  0  0  0
    3.3751   -1.3327    2.8798 H   0  0  0  0  0  0  0  0  0  0  0  0
    2.9456   -2.2369    1.3919 H   0  0  0  0  0  0  0  0  0  0  0  0
   -4.7767   -1.3463    1.7915 H   0  0  0  0  0  0  0  0  0  0  0  0
   -5.9914   -2.3826   -0.0529 H   0  0  0  0  0  0  0  0  0  0  0  0
  1  2  1  0
  2  3  1  0
  3  4  2  0
  4  5  1  0
  5  6  2  0
  6  7  1  0
  7  8  1  0
  8  9  1  0
  9 10  2  0
  9 11  1  0
 11 12  2  0
 12 13  1  0
 13 14  2  0
 14 15  1  0
 14 16  1  0
 16 17  1  0
 17 18  1  0
 18 19  1  0
 19 20  2  0
 20 21  1  0
 21 22  2  0
 22 23  1  0
 23 24  2  0
 17 25  1  0
  6 26  1  0
 26 27  2  0
 27  3  1  0
 15 11  1  0
 24 19  1  0
 25 13  1  0
  1 28  1  0
  1 29  1  0
  1 30  1  0
  4 31  1  0
  5 32  1  0
  7 33  1  0
  7 34  1  0
  8 35  1  0
 12 36  1  0
 16 37  1  0
 16 38  1  0
 18 39  1  0
 18 40  1  0
 20 41  1  0
 21 42  1  0
 22 43  1  0
 23 44  1  0
 24 45  1  0
 25 46  1  0
 25 47  1  0
 26 48  1  0
 27 49  1  0
M  END
$$$$
