
     RDKit          3D

 38 39  0  0  0  0  0  0  0  0999 V2000
   -3.1815    1.1978    2.0468 O   0  0  0  0  0  0  0  0  0  0  0  0
   -2.0398    1.2170    1.5970 C   0  0  0  0  0  0  0  0  0  0  0  0
   -1.0927    2.3782    1.9009 C   0  0  0  0  0  0  0  0  0  0  0  0
   -0.0574    2.5300    0.9280 O   0  0  0  0  0  0  0  0  0  0  0  0
   -0.4037    3.2366   -0.1699 C   0  0  0  0  0  0  0  0  0  0  0  0
   -1.4880    3.7616   -0.3700 O   0  0  0  0  0  0  0  0  0  0  0  0
    0.7095    3.3639   -1.1332 C   0  0  0  0  0  0  0  0  0  0  0  0
    1.7939    2.5905   -1.3039 C   0  0  0  0  0  0  0  0  0  0  0  0
    2.1548    1.3821   -0.5627 C   0  0  0  0  0  0  0  0  0  0  0  0
    2.7251    1.4659    0.7115 C   0  0  0  0  0  0  0  0  0  0  0  0
    3.0772    0.3065    1.4019 C   0  0  0  0  0  0  0  0  0  0  0  0
    2.8791   -0.9430    0.8141 C   0  0  0  0  0  0  0  0  0  0  0  0
    2.3238   -1.0470   -0.4705 C   0  0  0  0  0  0  0  0  0  0  0  0
    2.1789   -2.4000   -1.1230 C   0  0  0  0  0  0  0  0  0  0  0  0
    3.3770   -2.8794   -1.5648 F   0  0  0  0  0  0  0  0  0  0  0  0
    1.3595   -2.4047   -2.2114 F   0  0  0  0  0  0  0  0  0  0  0  0
    1.6898   -3.3551   -0.2830 F   0  0  0  0  0  0  0  0  0  0  0  0
    1.9618    0.1270   -1.1512 C   0  0  0  0  0  0  0  0  0  0  0  0
   -1.4431    0.2245    0.8537 N   0  0  0  0  0  0  0  0  0  0  0  0
   -2.0044   -0.9585    0.3779 C   0  0  0  0  0  0  0  0  0  0  0  0
   -3.3302   -1.3283    0.5787 C   0  0  0  0  0  0  0  0  0  0  0  0
   -3.7883   -2.5352    0.0464 C   0  0  0  0  0  0  0  0  0  0  0  0
   -2.9115   -3.3355   -0.6690 C   0  0  0  0  0  0  0  0  0  0  0  0
   -3.4306   -4.8254   -1.3416 Cl  0  0  0  0  0  0  0  0  0  0  0  0
   -1.6083   -2.8945   -0.8240 C   0  0  0  0  0  0  0  0  0  0  0  0
   -1.1358   -1.7257   -0.3178 N   0  0  0  0  0  0  0  0  0  0  0  0
   -1.6707    3.3026    2.0132 H   0  0  0  0  0  0  0  0  0  0  0  0
   -0.6113    2.1700    2.8618 H   0  0  0  0  0  0  0  0  0  0  0  0
    0.5608    4.1971   -1.8164 H   0  0  0  0  0  0  0  0  0  0  0  0
    2.4871    2.8400   -2.1053 H   0  0  0  0  0  0  0  0  0  0  0  0
    2.8944    2.4347    1.1762 H   0  0  0  0  0  0  0  0  0  0  0  0
    3.5199    0.3761    2.3930 H   0  0  0  0  0  0  0  0  0  0  0  0
    3.1716   -1.8415    1.3562 H   0  0  0  0  0  0  0  0  0  0  0  0
    1.5318    0.0557   -2.1512 H   0  0  0  0  0  0  0  0  0  0  0  0
   -0.4710    0.3414    0.5921 H   0  0  0  0  0  0  0  0  0  0  0  0
   -4.0254   -0.7084    1.1320 H   0  0  0  0  0  0  0  0  0  0  0  0
   -4.8215   -2.8341    0.1947 H   0  0  0  0  0  0  0  0  0  0  0  0
   -0.8811   -3.4828   -1.3762 H   0  0  0  0  0  0  0  0  0  0  0  0
  1  2  2  0
  2  3  1  0
  3  4  1  0
  4  5  1  0
  5  6  2  0
  5  7  1  0
  7  8  2  3
  8  9  1  0
  9 10  2  0
 10 11  1  0
 11 12  2  0
 12 13  1  0
 13 14  1  0
 14 15  1  0
 14 16  1  0
 14 17  1  0
 13 18  2  0
  2 19  1  0
 19 20  1  0
 20 21  2  0
 21 22  1  0
 22 23  2  0
 23 24  1  0
 23 25  1  0
 25 26  2  0
 18  9  1  0
 26 20  1  0
  3 27  1  0
  3 28  1  0
  7 29  1  0
  8 30  1  0
 10 31  1  0
 11 32  1  0
 12 33  1  0
 18 34  1  0
 19 35  1  0
 21 36  1  0
 22 37  1  0
 25 38  1  0
M  END
$$$$
