
     RDKit          3D

 55 57  0  0  0  0  0  0  0  0999 V2000
    2.8972    0.9549    1.7832 C   0  0  0  0  0  0  0  0  0  0  0  0
    1.3778    0.8312    1.6268 C   0  0  0  0  0  0  0  0  0  0  0  0
    0.6878    2.0255    2.2942 C   0  0  0  0  0  0  0  0  0  0  0  0
    0.9129    0.6731    0.1635 C   0  0  0  0  0  0  0  0  0  0  0  0
    1.4075    1.8034   -0.6663 N   0  0  0  0  0  0  0  0  0  0  0  0
    0.5181    2.1638   -2.0514 S   0  0  0  0  0  6  0  0  0  0  0  0
    1.4139    2.8492   -2.9536 O   0  0  0  0  0  0  0  0  0  0  0  0
   -0.2119    0.9774   -2.4400 O   0  0  0  0  0  0  0  0  0  0  0  0
   -0.6268    3.3632   -1.4240 C   0  0  0  0  0  0  0  0  0  0  0  0
   -1.9921    3.0661   -1.3612 C   0  0  0  0  0  0  0  0  0  0  0  0
   -2.8778    4.0188   -0.8546 C   0  0  0  0  0  0  0  0  0  0  0  0
   -2.3970    5.2533   -0.4177 C   0  0  0  0  0  0  0  0  0  0  0  0
   -1.0329    5.5538   -0.5153 C   0  0  0  0  0  0  0  0  0  0  0  0
   -0.1408    4.6060   -1.0076 C   0  0  0  0  0  0  0  0  0  0  0  0
   -0.5008    6.7596   -0.1367 O   0  0  0  0  0  0  0  0  0  0  0  0
   -1.5199    7.7554    0.0100 C   0  0  0  0  0  0  0  0  0  0  0  0
   -2.6965    7.2036    0.7981 C   0  0  0  0  0  0  0  0  0  0  0  0
   -3.3231    6.1289    0.0880 O   0  0  0  0  0  0  0  0  0  0  0  0
    1.4083   -0.6441   -0.4339 C   0  0  0  0  0  0  0  0  0  0  0  0
    2.3717   -0.7426   -1.1862 O   0  0  0  0  0  0  0  0  0  0  0  0
    0.6593   -1.6859    0.0103 O   0  0  0  0  0  0  0  0  0  0  0  0
    1.0560   -2.9515   -0.5147 C   0  0  0  0  0  0  0  0  0  0  0  0
    0.3673   -4.0967    0.2326 C   0  0  0  0  0  0  0  0  0  0  0  0
   -0.3094   -3.9054    1.2382 O   0  0  0  0  0  0  0  0  0  0  0  0
    0.6246   -5.3261   -0.3551 N   0  0  0  0  0  0  0  0  0  0  0  0
    0.1812   -6.6079    0.0609 C   0  0  0  0  0  0  0  0  0  0  0  0
   -0.6353   -6.8048    1.1801 C   0  0  0  0  0  0  0  0  0  0  0  0
   -1.0411   -8.0897    1.5500 C   0  0  0  0  0  0  0  0  0  0  0  0
   -0.6339   -9.1953    0.8087 C   0  0  0  0  0  0  0  0  0  0  0  0
    0.1770   -9.0209   -0.3140 C   0  0  0  0  0  0  0  0  0  0  0  0
    0.6361  -10.4383   -1.1927 Cl  0  0  0  0  0  0  0  0  0  0  0  0
    0.5847   -7.7333   -0.6925 C   0  0  0  0  0  0  0  0  0  0  0  0
    1.5950   -7.4939   -2.0918 Cl  0  0  0  0  0  0  0  0  0  0  0  0
    3.1696    0.9797    2.8446 H   0  0  0  0  0  0  0  0  0  0  0  0
    3.4156    0.1028    1.3333 H   0  0  0  0  0  0  0  0  0  0  0  0
    3.2822    1.8719    1.3244 H   0  0  0  0  0  0  0  0  0  0  0  0
    1.0699   -0.0686    2.1770 H   0  0  0  0  0  0  0  0  0  0  0  0
   -0.4018    1.9441    2.2083 H   0  0  0  0  0  0  0  0  0  0  0  0
    0.9955    2.9751    1.8419 H   0  0  0  0  0  0  0  0  0  0  0  0
    0.9346    2.0674    3.3609 H   0  0  0  0  0  0  0  0  0  0  0  0
   -0.1842    0.6655    0.1439 H   0  0  0  0  0  0  0  0  0  0  0  0
    2.4037    1.7687   -0.8964 H   0  0  0  0  0  0  0  0  0  0  0  0
   -2.3720    2.1052   -1.6999 H   0  0  0  0  0  0  0  0  0  0  0  0
   -3.9403    3.7985   -0.7937 H   0  0  0  0  0  0  0  0  0  0  0  0
    0.9187    4.8389   -1.0737 H   0  0  0  0  0  0  0  0  0  0  0  0
   -1.8265    8.0918   -0.9883 H   0  0  0  0  0  0  0  0  0  0  0  0
   -1.0775    8.6072    0.5361 H   0  0  0  0  0  0  0  0  0  0  0  0
   -2.3819    6.8338    1.7823 H   0  0  0  0  0  0  0  0  0  0  0  0
   -3.4488    7.9839    0.9508 H   0  0  0  0  0  0  0  0  0  0  0  0
    2.1381   -3.0927   -0.4010 H   0  0  0  0  0  0  0  0  0  0  0  0
    0.7733   -3.0026   -1.5728 H   0  0  0  0  0  0  0  0  0  0  0  0
    1.2087   -5.3327   -1.1869 H   0  0  0  0  0  0  0  0  0  0  0  0
   -0.9806   -5.9760    1.7915 H   0  0  0  0  0  0  0  0  0  0  0  0
   -1.6779   -8.2231    2.4230 H   0  0  0  0  0  0  0  0  0  0  0  0
   -0.9556  -10.1897    1.1089 H   0  0  0  0  0  0  0  0  0  0  0  0
  1  2  1  0
  2  3  1  0
  2  4  1  0
  4  5  1  0
  5  6  1  0
  6  7  2  0
  6  8  2  0
  6  9  1  0
  9 10  2  0
 10 11  1  0
 11 12  2  0
 12 13  1  0
 13 14  2  0
 13 15  1  0
 15 16  1  0
 16 17  1  0
 17 18  1  0
  4 19  1  0
 19 20  2  0
 19 21  1  0
 21 22  1  0
 22 23  1  0
 23 24  2  0
 23 25  1  0
 25 26  1  0
 26 27  2  0
 27 28  1  0
 28 29  2  0
 29 30  1  0
 30 31  1  0
 30 32  2  0
 32 33  1  0
 14  9  1  0
 32 26  1  0
 18 12  1  0
  1 34  1  0
  1 35  1  0
  1 36  1  0
  2 37  1  0
  3 38  1  0
  3 39  1  0
  3 40  1  0
  4 41  1  0
  5 42  1  0
 10 43  1  0
 11 44  1  0
 14 45  1  0
 16 46  1  0
 16 47  1  0
 17 48  1  0
 17 49  1  0
 22 50  1  0
 22 51  1  0
 25 52  1  0
 27 53  1  0
 28 54  1  0
 29 55  1  0
M  END
$$$$
