
     RDKit          3D

 49 51  0  0  0  0  0  0  0  0999 V2000
   -3.4047    3.8272    0.3859 C   0  0  0  0  0  0  0  0  0  0  0  0
   -3.4173    2.3372    0.2133 C   0  0  0  0  0  0  0  0  0  0  0  0
   -4.6244    1.6496    0.0544 C   0  0  0  0  0  0  0  0  0  0  0  0
   -4.6352    0.2618   -0.1254 C   0  0  0  0  0  0  0  0  0  0  0  0
   -5.9329   -0.4673   -0.3163 C   0  0  0  0  0  0  0  0  0  0  0  0
   -3.4187   -0.4361   -0.1833 C   0  0  0  0  0  0  0  0  0  0  0  0
   -2.2035    0.2348   -0.0425 C   0  0  0  0  0  0  0  0  0  0  0  0
   -0.9451   -0.3946   -0.0893 N   0  0  0  0  0  0  0  0  0  0  0  0
   -0.6633   -1.7437   -0.2688 C   0  0  0  0  0  0  0  0  0  0  0  0
   -1.4876   -2.6379   -0.4460 O   0  0  0  0  0  0  0  0  0  0  0  0
    0.8595   -2.0387   -0.2822 C   0  0  0  0  0  0  0  0  0  0  0  0
    1.6470   -0.9802    0.2878 O   0  0  0  0  0  0  0  0  0  0  0  0
    1.7483   -1.0059    1.6377 C   0  0  0  0  0  0  0  0  0  0  0  0
    1.1940   -1.7972    2.3805 O   0  0  0  0  0  0  0  0  0  0  0  0
    2.6054    0.1124    2.1125 C   0  0  0  0  0  0  0  0  0  0  0  0
    3.3818    0.8859    1.2378 C   0  0  0  0  0  0  0  0  0  0  0  0
    4.1675    1.9269    1.7380 C   0  0  0  0  0  0  0  0  0  0  0  0
    4.1779    2.1917    3.1034 C   0  0  0  0  0  0  0  0  0  0  0  0
    4.9603    3.2173    3.5427 O   0  0  0  0  0  0  0  0  0  0  0  0
    3.4144    1.4334    3.9842 C   0  0  0  0  0  0  0  0  0  0  0  0
    2.6286    0.3901    3.4873 C   0  0  0  0  0  0  0  0  0  0  0  0
    1.3894   -2.2496   -1.6917 C   0  0  0  0  0  0  0  0  0  0  0  0
    2.1593   -3.3879   -1.9844 C   0  0  0  0  0  0  0  0  0  0  0  0
    2.6808   -3.5843   -3.2644 C   0  0  0  0  0  0  0  0  0  0  0  0
    2.4455   -2.6447   -4.2669 C   0  0  0  0  0  0  0  0  0  0  0  0
    1.6891   -1.5076   -3.9909 C   0  0  0  0  0  0  0  0  0  0  0  0
    1.1669   -1.3078   -2.7115 C   0  0  0  0  0  0  0  0  0  0  0  0
   -2.2128    1.6224    0.1539 C   0  0  0  0  0  0  0  0  0  0  0  0
   -2.6100    4.1288    1.0777 H   0  0  0  0  0  0  0  0  0  0  0  0
   -3.2402    4.3149   -0.5809 H   0  0  0  0  0  0  0  0  0  0  0  0
   -4.3524    4.1850    0.8041 H   0  0  0  0  0  0  0  0  0  0  0  0
   -5.5655    2.1964    0.0743 H   0  0  0  0  0  0  0  0  0  0  0  0
   -6.7361    0.0120    0.2529 H   0  0  0  0  0  0  0  0  0  0  0  0
   -6.2051   -0.4753   -1.3759 H   0  0  0  0  0  0  0  0  0  0  0  0
   -5.8580   -1.5007    0.0380 H   0  0  0  0  0  0  0  0  0  0  0  0
   -3.4502   -1.5099   -0.3419 H   0  0  0  0  0  0  0  0  0  0  0  0
   -0.1375    0.2063    0.0240 H   0  0  0  0  0  0  0  0  0  0  0  0
    1.0041   -2.9635    0.2929 H   0  0  0  0  0  0  0  0  0  0  0  0
    3.3949    0.6875    0.1684 H   0  0  0  0  0  0  0  0  0  0  0  0
    4.7744    2.5271    1.0648 H   0  0  0  0  0  0  0  0  0  0  0  0
    4.8817    3.2823    4.5088 H   0  0  0  0  0  0  0  0  0  0  0  0
    3.4162    1.6353    5.0506 H   0  0  0  0  0  0  0  0  0  0  0  0
    2.0321   -0.2052    4.1768 H   0  0  0  0  0  0  0  0  0  0  0  0
    2.3563   -4.1349   -1.2169 H   0  0  0  0  0  0  0  0  0  0  0  0
    3.2689   -4.4725   -3.4795 H   0  0  0  0  0  0  0  0  0  0  0  0
    2.8492   -2.7998   -5.2638 H   0  0  0  0  0  0  0  0  0  0  0  0
    1.5037   -0.7754   -4.7735 H   0  0  0  0  0  0  0  0  0  0  0  0
    0.5802   -0.4109   -2.5253 H   0  0  0  0  0  0  0  0  0  0  0  0
   -1.2766    2.1654    0.2621 H   0  0  0  0  0  0  0  0  0  0  0  0
  1  2  1  0
  2  3  2  0
  3  4  1  0
  4  5  1  0
  4  6  2  0
  6  7  1  0
  7  8  1  0
  8  9  1  0
  9 10  2  0
  9 11  1  0
 11 12  1  0
 12 13  1  0
 13 14  2  0
 13 15  1  0
 15 16  2  0
 16 17  1  0
 17 18  2  0
 18 19  1  0
 18 20  1  0
 20 21  2  0
 11 22  1  0
 22 23  2  0
 23 24  1  0
 24 25  2  0
 25 26  1  0
 26 27  2  0
  7 28  2  0
 28  2  1  0
 21 15  1  0
 27 22  1  0
  1 29  1  0
  1 30  1  0
  1 31  1  0
  3 32  1  0
  5 33  1  0
  5 34  1  0
  5 35  1  0
  6 36  1  0
  8 37  1  0
 11 38  1  0
 16 39  1  0
 17 40  1  0
 19 41  1  0
 20 42  1  0
 21 43  1  0
 23 44  1  0
 24 45  1  0
 25 46  1  0
 26 47  1  0
 27 48  1  0
 28 49  1  0
M  END
$$$$
