
     RDKit          3D

 50 50  0  0  0  0  0  0  0  0999 V2000
    6.1192   -0.2174   -0.7350 C   0  0  0  0  0  0  0  0  0  0  0  0
    6.9427    0.3438    0.1681 C   0  0  0  0  0  0  0  0  0  0  0  0
    8.1395    1.1489   -0.2658 C   0  0  0  0  0  0  0  0  0  0  0  0
    6.7537    0.1474    1.6539 C   0  0  0  0  0  0  0  0  0  0  0  0
    6.2288    1.6713    2.4761 S   0  0  0  0  0  0  0  0  0  0  0  0
    4.5448    1.7297    2.0612 C   0  0  0  0  0  0  0  0  0  0  0  0
    3.7999    2.8099    2.1853 N   0  0  0  0  0  0  0  0  0  0  0  0
    2.5272    2.4696    1.7737 N   0  0  0  0  0  0  0  0  0  0  0  0
    2.5821    1.2020    1.4339 C   0  0  0  0  0  0  0  0  0  0  0  0
    1.5162    0.3184    0.9072 C   0  0  0  0  0  0  0  0  0  0  0  0
    1.5646    0.2516   -0.6210 C   0  0  0  0  0  0  0  0  0  0  0  0
    0.5423   -0.7192   -1.2189 C   0  0  0  0  0  0  0  0  0  0  0  0
   -0.9041   -0.2553   -1.0416 C   0  0  0  0  0  0  0  0  0  0  0  0
   -1.8802   -1.2039   -1.7367 C   0  0  0  0  0  0  0  0  0  0  0  0
   -3.2459   -0.7593   -1.5926 N   0  0  0  0  0  0  0  0  0  0  0  0
   -3.9777   -0.9737   -0.4644 C   0  0  0  0  0  0  0  0  0  0  0  0
   -3.6012   -1.6160    0.5017 O   0  0  0  0  0  0  0  0  0  0  0  0
   -5.1668   -0.3451   -0.5975 O   0  0  0  0  0  0  0  0  0  0  0  0
   -6.1470   -0.3806    0.4724 C   0  0  0  0  0  0  0  0  0  0  0  0
   -6.6208   -1.8117    0.7507 C   0  0  0  0  0  0  0  0  0  0  0  0
   -5.6138    0.3027    1.7370 C   0  0  0  0  0  0  0  0  0  0  0  0
   -7.3349    0.4348   -0.0614 C   0  0  0  0  0  0  0  0  0  0  0  0
    3.8253    0.6574    1.5977 O   0  0  0  0  0  0  0  0  0  0  0  0
    6.2740   -0.0866   -1.8035 H   0  0  0  0  0  0  0  0  0  0  0  0
    5.2648   -0.8178   -0.4339 H   0  0  0  0  0  0  0  0  0  0  0  0
    9.0571    0.7267    0.1578 H   0  0  0  0  0  0  0  0  0  0  0  0
    8.0512    2.1888    0.0637 H   0  0  0  0  0  0  0  0  0  0  0  0
    8.2549    1.1613   -1.3554 H   0  0  0  0  0  0  0  0  0  0  0  0
    6.0434   -0.6584    1.8702 H   0  0  0  0  0  0  0  0  0  0  0  0
    7.7064   -0.1662    2.0947 H   0  0  0  0  0  0  0  0  0  0  0  0
    1.6307   -0.6858    1.3313 H   0  0  0  0  0  0  0  0  0  0  0  0
    0.5480    0.7018    1.2437 H   0  0  0  0  0  0  0  0  0  0  0  0
    1.4148    1.2533   -1.0448 H   0  0  0  0  0  0  0  0  0  0  0  0
    2.5656   -0.0695   -0.9379 H   0  0  0  0  0  0  0  0  0  0  0  0
    0.7546   -0.8230   -2.2905 H   0  0  0  0  0  0  0  0  0  0  0  0
    0.6722   -1.7131   -0.7730 H   0  0  0  0  0  0  0  0  0  0  0  0
   -1.1534   -0.1940    0.0233 H   0  0  0  0  0  0  0  0  0  0  0  0
   -1.0229    0.7553   -1.4507 H   0  0  0  0  0  0  0  0  0  0  0  0
   -1.6692   -1.2556   -2.8098 H   0  0  0  0  0  0  0  0  0  0  0  0
   -1.7919   -2.2136   -1.3195 H   0  0  0  0  0  0  0  0  0  0  0  0
   -3.6578   -0.1337   -2.2700 H   0  0  0  0  0  0  0  0  0  0  0  0
   -5.8314   -2.4246    1.1967 H   0  0  0  0  0  0  0  0  0  0  0  0
   -6.9191   -2.3112   -0.1780 H   0  0  0  0  0  0  0  0  0  0  0  0
   -7.4717   -1.8222    1.4420 H   0  0  0  0  0  0  0  0  0  0  0  0
   -5.1958    1.2877    1.5016 H   0  0  0  0  0  0  0  0  0  0  0  0
   -6.4043    0.4296    2.4852 H   0  0  0  0  0  0  0  0  0  0  0  0
   -4.8112   -0.2749    2.2052 H   0  0  0  0  0  0  0  0  0  0  0  0
   -7.7229   -0.0031   -0.9888 H   0  0  0  0  0  0  0  0  0  0  0  0
   -7.0268    1.4577   -0.3081 H   0  0  0  0  0  0  0  0  0  0  0  0
   -8.1532    0.4856    0.6651 H   0  0  0  0  0  0  0  0  0  0  0  0
  1  2  2  0
  2  3  1  0
  2  4  1  0
  4  5  1  0
  5  6  1  0
  6  7  2  0
  7  8  1  0
  8  9  2  0
  9 10  1  0
 10 11  1  0
 11 12  1  0
 12 13  1  0
 13 14  1  0
 14 15  1  0
 15 16  1  0
 16 17  2  0
 16 18  1  0
 18 19  1  0
 19 20  1  0
 19 21  1  0
 19 22  1  0
  9 23  1  0
 23  6  1  0
  1 24  1  0
  1 25  1  0
  3 26  1  0
  3 27  1  0
  3 28  1  0
  4 29  1  0
  4 30  1  0
 10 31  1  0
 10 32  1  0
 11 33  1  0
 11 34  1  0
 12 35  1  0
 12 36  1  0
 13 37  1  0
 13 38  1  0
 14 39  1  0
 14 40  1  0
 15 41  1  0
 20 42  1  0
 20 43  1  0
 20 44  1  0
 21 45  1  0
 21 46  1  0
 21 47  1  0
 22 48  1  0
 22 49  1  0
 22 50  1  0
M  END
$$$$
