
     RDKit          3D

 43 45  0  0  0  0  0  0  0  0999 V2000
   -4.9145    2.5380    0.3463 C   0  0  0  0  0  0  0  0  0  0  0  0
   -4.2684    1.7429   -0.7768 C   0  0  0  0  0  0  0  0  0  0  0  0
   -3.3212    0.6741   -0.2341 C   0  0  0  0  0  0  0  0  0  0  0  0
   -2.6609   -0.1075   -1.3693 C   0  0  0  0  0  0  0  0  0  0  0  0
   -1.7651   -1.1446   -0.8622 N   0  0  0  0  0  0  0  0  0  0  0  0
   -2.1078   -2.4793   -0.6270 C   0  0  0  0  0  0  0  0  0  0  0  0
   -3.5982   -3.1968   -0.6094 S   0  0  0  0  0  0  0  0  0  0  0  0
   -0.9413   -3.1847   -0.3799 N   0  0  0  0  0  0  0  0  0  0  0  0
    0.1866   -2.3007   -0.2545 C   0  0  0  0  0  0  0  0  0  0  0  0
   -0.3050   -0.9910   -0.8843 C   0  0  0  0  0  0  0  0  0  0  0  0
    0.2096    0.2635   -0.1639 C   0  0  0  0  0  0  0  0  0  0  0  0
    1.7179    0.4153   -0.2464 C   0  0  0  0  0  0  0  0  0  0  0  0
    2.2495    0.8260   -1.4846 C   0  0  0  0  0  0  0  0  0  0  0  0
    3.6199    0.9664   -1.6640 C   0  0  0  0  0  0  0  0  0  0  0  0
    4.4846    0.6974   -0.6092 C   0  0  0  0  0  0  0  0  0  0  0  0
    3.9941    0.2909    0.6393 C   0  0  0  0  0  0  0  0  0  0  0  0
    4.8944    0.0295    1.6855 C   0  0  0  0  0  0  0  0  0  0  0  0
    4.4423   -0.3715    2.9402 C   0  0  0  0  0  0  0  0  0  0  0  0
    3.0813   -0.5144    3.1644 C   0  0  0  0  0  0  0  0  0  0  0  0
    2.1728   -0.2581    2.1333 C   0  0  0  0  0  0  0  0  0  0  0  0
    2.5962    0.1468    0.8443 C   0  0  0  0  0  0  0  0  0  0  0  0
   -4.1594    3.0705    0.9328 H   0  0  0  0  0  0  0  0  0  0  0  0
   -5.6081    3.2774   -0.0652 H   0  0  0  0  0  0  0  0  0  0  0  0
   -5.4764    1.8835    1.0198 H   0  0  0  0  0  0  0  0  0  0  0  0
   -5.0524    1.2725   -1.3816 H   0  0  0  0  0  0  0  0  0  0  0  0
   -3.7197    2.4290   -1.4324 H   0  0  0  0  0  0  0  0  0  0  0  0
   -2.5528    1.1452    0.3903 H   0  0  0  0  0  0  0  0  0  0  0  0
   -3.8739   -0.0103    0.4206 H   0  0  0  0  0  0  0  0  0  0  0  0
   -3.4282   -0.5763   -1.9944 H   0  0  0  0  0  0  0  0  0  0  0  0
   -2.0849    0.5612   -2.0192 H   0  0  0  0  0  0  0  0  0  0  0  0
   -0.9748   -4.1397   -0.0449 H   0  0  0  0  0  0  0  0  0  0  0  0
    0.3977   -2.2081    0.8144 H   0  0  0  0  0  0  0  0  0  0  0  0
    1.0544   -2.7243   -0.7669 H   0  0  0  0  0  0  0  0  0  0  0  0
   -0.0196   -0.9736   -1.9447 H   0  0  0  0  0  0  0  0  0  0  0  0
   -0.1506    0.2835    0.8690 H   0  0  0  0  0  0  0  0  0  0  0  0
   -0.2350    1.1598   -0.6177 H   0  0  0  0  0  0  0  0  0  0  0  0
    1.5889    1.0436   -2.3223 H   0  0  0  0  0  0  0  0  0  0  0  0
    4.0158    1.2865   -2.6240 H   0  0  0  0  0  0  0  0  0  0  0  0
    5.5548    0.8129   -0.7688 H   0  0  0  0  0  0  0  0  0  0  0  0
    5.9658    0.1390    1.5299 H   0  0  0  0  0  0  0  0  0  0  0  0
    5.1525   -0.5693    3.7387 H   0  0  0  0  0  0  0  0  0  0  0  0
    2.7197   -0.8232    4.1419 H   0  0  0  0  0  0  0  0  0  0  0  0
    1.1194   -0.3817    2.3672 H   0  0  0  0  0  0  0  0  0  0  0  0
  1  2  1  0
  2  3  1  0
  3  4  1  0
  4  5  1  0
  5  6  1  0
  6  7  2  0
  6  8  1  0
  8  9  1  0
  9 10  1  0
 10 11  1  0
 11 12  1  0
 12 13  2  0
 13 14  1  0
 14 15  2  0
 15 16  1  0
 16 17  2  0
 17 18  1  0
 18 19  2  0
 19 20  1  0
 20 21  2  0
 10  5  1  0
 21 12  1  0
 21 16  1  0
  1 22  1  0
  1 23  1  0
  1 24  1  0
  2 25  1  0
  2 26  1  0
  3 27  1  0
  3 28  1  0
  4 29  1  0
  4 30  1  0
  8 31  1  0
  9 32  1  0
  9 33  1  0
 10 34  1  0
 11 35  1  0
 11 36  1  0
 13 37  1  0
 14 38  1  0
 15 39  1  0
 17 40  1  0
 18 41  1  0
 19 42  1  0
 20 43  1  0
M  END
$$$$
