
     RDKit          3D

 57 61  0  0  0  0  0  0  0  0999 V2000
   -8.9530   -1.9539    1.9992 C   0  0  0  0  0  0  0  0  0  0  0  0
   -7.6869   -1.3938    1.4225 C   0  0  0  0  0  0  0  0  0  0  0  0
   -7.7003   -0.7425    0.1877 C   0  0  0  0  0  0  0  0  0  0  0  0
   -6.5141   -0.2466   -0.3647 C   0  0  0  0  0  0  0  0  0  0  0  0
   -5.2758   -0.3947    0.2869 C   0  0  0  0  0  0  0  0  0  0  0  0
   -4.0351    0.1325   -0.3220 C   0  0  0  0  0  0  0  0  0  0  0  0
   -2.7839   -0.4080   -0.0842 C   0  0  0  0  0  0  0  0  0  0  0  0
   -1.6765    0.1761   -0.7003 C   0  0  0  0  0  0  0  0  0  0  0  0
   -0.3584   -0.4001   -0.3514 C   0  0  0  0  0  0  0  0  0  0  0  0
   -0.1699   -1.5860   -0.5830 O   0  0  0  0  0  0  0  0  0  0  0  0
    0.4981    0.4958    0.2597 N   0  0  0  0  0  0  0  0  0  0  0  0
    1.8006    0.2450    0.7366 C   0  0  0  0  0  0  0  0  0  0  0  0
    2.4835    1.3216    1.3213 C   0  0  0  0  0  0  0  0  0  0  0  0
    3.7769    1.1583    1.8250 C   0  0  0  0  0  0  0  0  0  0  0  0
    4.3961   -0.0900    1.7388 C   0  0  0  0  0  0  0  0  0  0  0  0
    6.0145   -0.3092    2.4379 S   0  0  0  0  0  6  0  0  0  0  0  0
    6.3186   -1.7215    2.5164 O   0  0  0  0  0  0  0  0  0  0  0  0
    6.0513    0.5047    3.6371 O   0  0  0  0  0  0  0  0  0  0  0  0
    7.0239    0.4405    1.3528 N   0  0  0  0  0  0  0  0  0  0  0  0
    7.4187   -0.3008    0.2476 C   0  0  0  0  0  0  0  0  0  0  0  0
    8.6945   -0.1017   -0.0949 N   0  0  0  0  0  0  0  0  0  0  0  0
    9.0835   -0.6984   -1.2362 C   0  0  0  0  0  0  0  0  0  0  0  0
    8.2376   -1.4321   -2.0350 C   0  0  0  0  0  0  0  0  0  0  0  0
    6.9350   -1.5136   -1.6030 C   0  0  0  0  0  0  0  0  0  0  0  0
    6.4934   -0.9350   -0.4725 N   0  0  0  0  0  0  0  0  0  0  0  0
    3.7233   -1.1735    1.1727 C   0  0  0  0  0  0  0  0  0  0  0  0
    2.4309   -1.0004    0.6651 C   0  0  0  0  0  0  0  0  0  0  0  0
   -1.8176    1.2610   -1.5899 C   0  0  0  0  0  0  0  0  0  0  0  0
   -0.7588    1.8677   -2.3143 C   0  0  0  0  0  0  0  0  0  0  0  0
   -0.9966    2.9446   -3.1657 C   0  0  0  0  0  0  0  0  0  0  0  0
   -2.2896    3.4247   -3.3127 C   0  0  0  0  0  0  0  0  0  0  0  0
   -3.3363    2.8166   -2.6161 C   0  0  0  0  0  0  0  0  0  0  0  0
   -3.1271    1.7398   -1.7648 C   0  0  0  0  0  0  0  0  0  0  0  0
   -4.1906    1.2002   -1.1463 N   0  0  0  0  0  0  0  0  0  0  0  0
   -5.2833   -1.0574    1.5272 C   0  0  0  0  0  0  0  0  0  0  0  0
   -6.4677   -1.5565    2.0835 C   0  0  0  0  0  0  0  0  0  0  0  0
   -9.1625   -2.9346    1.5605 H   0  0  0  0  0  0  0  0  0  0  0  0
   -9.7979   -1.2863    1.8006 H   0  0  0  0  0  0  0  0  0  0  0  0
   -8.8757   -2.0659    3.0857 H   0  0  0  0  0  0  0  0  0  0  0  0
   -8.6326   -0.6133   -0.3571 H   0  0  0  0  0  0  0  0  0  0  0  0
   -6.5611    0.2599   -1.3276 H   0  0  0  0  0  0  0  0  0  0  0  0
   -2.6498   -1.2720    0.5585 H   0  0  0  0  0  0  0  0  0  0  0  0
    0.1485    1.4362    0.4019 H   0  0  0  0  0  0  0  0  0  0  0  0
    2.0176    2.3010    1.3988 H   0  0  0  0  0  0  0  0  0  0  0  0
    4.2891    1.9995    2.2867 H   0  0  0  0  0  0  0  0  0  0  0  0
    7.7968    0.9217    1.7979 H   0  0  0  0  0  0  0  0  0  0  0  0
   10.1287   -0.5636   -1.4991 H   0  0  0  0  0  0  0  0  0  0  0  0
    8.5716   -1.9050   -2.9483 H   0  0  0  0  0  0  0  0  0  0  0  0
    6.1857   -2.0566   -2.1714 H   0  0  0  0  0  0  0  0  0  0  0  0
    4.1951   -2.1523    1.1149 H   0  0  0  0  0  0  0  0  0  0  0  0
    1.9400   -1.8649    0.2273 H   0  0  0  0  0  0  0  0  0  0  0  0
    0.2596    1.4908   -2.2372 H   0  0  0  0  0  0  0  0  0  0  0  0
   -0.1774    3.3984   -3.7180 H   0  0  0  0  0  0  0  0  0  0  0  0
   -2.4934    4.2624   -3.9749 H   0  0  0  0  0  0  0  0  0  0  0  0
   -4.3498    3.1906   -2.7469 H   0  0  0  0  0  0  0  0  0  0  0  0
   -4.3648   -1.1886    2.0943 H   0  0  0  0  0  0  0  0  0  0  0  0
   -6.4265   -2.0712    3.0408 H   0  0  0  0  0  0  0  0  0  0  0  0
  1  2  1  0
  2  3  2  0
  3  4  1  0
  4  5  2  0
  5  6  1  0
  6  7  2  0
  7  8  1  0
  8  9  1  0
  9 10  2  0
  9 11  1  0
 11 12  1  0
 12 13  2  0
 13 14  1  0
 14 15  2  0
 15 16  1  0
 16 17  2  0
 16 18  2  0
 16 19  1  0
 19 20  1  0
 20 21  2  0
 21 22  1  0
 22 23  2  0
 23 24  1  0
 24 25  2  0
 15 26  1  0
 26 27  2  0
  8 28  2  0
 28 29  1  0
 29 30  2  0
 30 31  1  0
 31 32  2  0
 32 33  1  0
 33 34  2  0
  5 35  1  0
 35 36  2  0
 36  2  1  0
 34  6  1  0
 27 12  1  0
 33 28  1  0
 25 20  1  0
  1 37  1  0
  1 38  1  0
  1 39  1  0
  3 40  1  0
  4 41  1  0
  7 42  1  0
 11 43  1  0
 13 44  1  0
 14 45  1  0
 19 46  1  0
 22 47  1  0
 23 48  1  0
 24 49  1  0
 26 50  1  0
 27 51  1  0
 29 52  1  0
 30 53  1  0
 31 54  1  0
 32 55  1  0
 35 56  1  0
 36 57  1  0
M  END
$$$$
