
     RDKit          3D

 43 46  0  0  0  0  0  0  0  0999 V2000
    4.2267    3.0232    1.1149 C   0  0  0  0  0  0  0  0  0  0  0  0
    3.0351    2.2346    1.1116 O   0  0  0  0  0  0  0  0  0  0  0  0
    3.2622    0.8972    1.1386 C   0  0  0  0  0  0  0  0  0  0  0  0
    4.3567    0.3593    1.1833 O   0  0  0  0  0  0  0  0  0  0  0  0
    1.9700    0.1774    1.1125 C   0  0  0  0  0  0  0  0  0  0  0  0
    1.7713   -0.9461    1.8335 C   0  0  0  0  0  0  0  0  0  0  0  0
    2.7839   -1.5380    2.7818 C   0  0  0  0  0  0  0  0  0  0  0  0
    0.5807   -1.6442    1.7903 N   0  0  0  0  0  0  0  0  0  0  0  0
   -0.3945   -1.1178    1.1339 C   0  0  0  0  0  0  0  0  0  0  0  0
   -1.9863   -1.8143    1.0953 S   0  0  0  0  0  0  0  0  0  0  0  0
   -2.6302   -0.4756    0.2256 C   0  0  0  0  0  0  0  0  0  0  0  0
   -3.8832   -0.2511   -0.1963 C   0  0  0  0  0  0  0  0  0  0  0  0
   -5.0639   -1.0390   -0.0366 C   0  0  0  0  0  0  0  0  0  0  0  0
   -5.3629   -2.1140    0.8382 C   0  0  0  0  0  0  0  0  0  0  0  0
   -6.6597   -2.4881    0.5668 C   0  0  0  0  0  0  0  0  0  0  0  0
   -7.1834   -1.7091   -0.4120 O   0  0  0  0  0  0  0  0  0  0  0  0
   -6.2138   -0.8292   -0.7709 C   0  0  0  0  0  0  0  0  0  0  0  0
   -1.5408    0.5049   -0.0686 C   0  0  0  0  0  0  0  0  0  0  0  0
   -1.7175    1.5708   -0.6419 O   0  0  0  0  0  0  0  0  0  0  0  0
   -0.3473    0.0379    0.4226 N   0  0  0  0  0  0  0  0  0  0  0  0
    0.9130    0.7187    0.1877 C   0  0  0  0  0  0  0  0  0  0  0  0
    1.3231    0.5945   -1.2803 C   0  0  0  0  0  0  0  0  0  0  0  0
    1.3498    1.7365   -2.0974 C   0  0  0  0  0  0  0  0  0  0  0  0
    1.7179    1.6420   -3.4405 C   0  0  0  0  0  0  0  0  0  0  0  0
    2.0619    0.4072   -3.9853 C   0  0  0  0  0  0  0  0  0  0  0  0
    2.0350   -0.7361   -3.1901 C   0  0  0  0  0  0  0  0  0  0  0  0
    1.6657   -0.6462   -1.8471 C   0  0  0  0  0  0  0  0  0  0  0  0
    4.7984    2.8495    2.0320 H   0  0  0  0  0  0  0  0  0  0  0  0
    3.9351    4.0766    1.0825 H   0  0  0  0  0  0  0  0  0  0  0  0
    4.8334    2.8044    0.2306 H   0  0  0  0  0  0  0  0  0  0  0  0
    3.4283   -0.7799    3.2361 H   0  0  0  0  0  0  0  0  0  0  0  0
    2.2802   -2.0476    3.6113 H   0  0  0  0  0  0  0  0  0  0  0  0
    3.4049   -2.2733    2.2606 H   0  0  0  0  0  0  0  0  0  0  0  0
   -4.0346    0.6698   -0.7639 H   0  0  0  0  0  0  0  0  0  0  0  0
   -4.7373   -2.5742    1.5887 H   0  0  0  0  0  0  0  0  0  0  0  0
   -7.3198   -3.2455    0.9661 H   0  0  0  0  0  0  0  0  0  0  0  0
   -6.4912   -0.1324   -1.5503 H   0  0  0  0  0  0  0  0  0  0  0  0
    0.7255    1.7750    0.4208 H   0  0  0  0  0  0  0  0  0  0  0  0
    1.0718    2.7099   -1.6968 H   0  0  0  0  0  0  0  0  0  0  0  0
    1.7310    2.5327   -4.0636 H   0  0  0  0  0  0  0  0  0  0  0  0
    2.3482    0.3351   -5.0314 H   0  0  0  0  0  0  0  0  0  0  0  0
    2.3027   -1.6999   -3.6163 H   0  0  0  0  0  0  0  0  0  0  0  0
    1.6537   -1.5559   -1.2490 H   0  0  0  0  0  0  0  0  0  0  0  0
  1  2  1  0
  2  3  1  0
  3  4  2  0
  3  5  1  0
  5  6  2  0
  6  7  1  0
  6  8  1  0
  8  9  2  0
  9 10  1  0
 10 11  1  0
 11 12  2  3
 12 13  1  0
 13 14  1  0
 14 15  2  0
 15 16  1  0
 16 17  1  0
 11 18  1  0
 18 19  2  0
 18 20  1  0
 20 21  1  0
 21 22  1  0
 22 23  2  0
 23 24  1  0
 24 25  2  0
 25 26  1  0
 26 27  2  0
 21  5  1  0
 27 22  1  0
 20  9  1  0
 17 13  2  0
  1 28  1  0
  1 29  1  0
  1 30  1  0
  7 31  1  0
  7 32  1  0
  7 33  1  0
 12 34  1  0
 14 35  1  0
 15 36  1  0
 17 37  1  0
 21 38  1  0
 23 39  1  0
 24 40  1  0
 25 41  1  0
 26 42  1  0
 27 43  1  0
M  END
$$$$
