
     RDKit          3D

 55 57  0  0  0  0  0  0  0  0999 V2000
    0.5751   -3.2773    2.0762 C   0  0  0  0  0  0  0  0  0  0  0  0
   -0.8684   -2.8099    2.1271 C   0  0  0  0  0  0  0  0  0  0  0  0
   -0.9988   -1.3949    2.0222 O   0  0  0  0  0  0  0  0  0  0  0  0
   -0.7632   -0.8727    0.7112 C   0  0  0  0  0  0  0  0  0  0  0  0
    0.6478   -0.7182    0.5095 O   0  0  0  0  0  0  0  0  0  0  0  0
    0.9941   -0.0361   -0.6425 C   0  0  0  0  0  0  0  0  0  0  0  0
    2.4110   -0.1900   -1.1419 C   0  0  0  0  0  0  0  0  0  0  0  0
    2.7695    0.2914   -2.2088 O   0  0  0  0  0  0  0  0  0  0  0  0
    3.1708   -0.9222   -0.2521 N   0  0  0  0  0  0  0  0  0  0  0  0
    4.5235   -1.2912   -0.3626 C   0  0  0  0  0  0  0  0  0  0  0  0
    5.3341   -0.9634   -1.4502 C   0  0  0  0  0  0  0  0  0  0  0  0
    6.6717   -1.3711   -1.4842 C   0  0  0  0  0  0  0  0  0  0  0  0
    7.2083   -2.1091   -0.4318 C   0  0  0  0  0  0  0  0  0  0  0  0
    6.4077   -2.4411    0.6576 C   0  0  0  0  0  0  0  0  0  0  0  0
    5.0715   -2.0339    0.6915 C   0  0  0  0  0  0  0  0  0  0  0  0
    0.1402    0.7460   -1.3216 C   0  0  0  0  0  0  0  0  0  0  0  0
   -1.2683    1.0049   -0.8561 C   0  0  0  0  0  0  0  0  0  0  0  0
   -1.6460    2.4704   -1.0159 C   0  0  0  0  0  0  0  0  0  0  0  0
   -0.9762    3.4825   -0.3095 C   0  0  0  0  0  0  0  0  0  0  0  0
   -1.3398    4.8211   -0.4667 C   0  0  0  0  0  0  0  0  0  0  0  0
   -2.3737    5.1670   -1.3332 C   0  0  0  0  0  0  0  0  0  0  0  0
   -3.0433    4.1756   -2.0464 C   0  0  0  0  0  0  0  0  0  0  0  0
   -2.6814    2.8361   -1.8911 C   0  0  0  0  0  0  0  0  0  0  0  0
   -1.4760    0.4881    0.5902 C   0  0  0  0  0  0  0  0  0  0  0  0
   -2.9579    0.4584    1.0369 C   0  0  0  0  0  0  0  0  0  0  0  0
   -3.8683   -0.4858    0.2426 C   0  0  0  0  0  0  0  0  0  0  0  0
   -5.2832   -0.5322    0.8158 C   0  0  0  0  0  0  0  0  0  0  0  0
   -5.8930    0.7492    0.7808 O   0  0  0  0  0  0  0  0  0  0  0  0
    1.2015   -2.6853    2.7509 H   0  0  0  0  0  0  0  0  0  0  0  0
    0.9888   -3.1751    1.0687 H   0  0  0  0  0  0  0  0  0  0  0  0
    0.6464   -4.3320    2.3581 H   0  0  0  0  0  0  0  0  0  0  0  0
   -1.4748   -3.3079    1.3622 H   0  0  0  0  0  0  0  0  0  0  0  0
   -1.2900   -3.0879    3.0990 H   0  0  0  0  0  0  0  0  0  0  0  0
   -1.1526   -1.5757   -0.0381 H   0  0  0  0  0  0  0  0  0  0  0  0
    2.6818   -1.2161    0.5869 H   0  0  0  0  0  0  0  0  0  0  0  0
    4.9560   -0.3896   -2.2904 H   0  0  0  0  0  0  0  0  0  0  0  0
    7.2922   -1.1079   -2.3372 H   0  0  0  0  0  0  0  0  0  0  0  0
    8.2483   -2.4230   -0.4618 H   0  0  0  0  0  0  0  0  0  0  0  0
    6.8222   -3.0156    1.4818 H   0  0  0  0  0  0  0  0  0  0  0  0
    4.4672   -2.3040    1.5535 H   0  0  0  0  0  0  0  0  0  0  0  0
    0.4655    1.2419   -2.2354 H   0  0  0  0  0  0  0  0  0  0  0  0
   -1.9013    0.4161   -1.5331 H   0  0  0  0  0  0  0  0  0  0  0  0
   -0.1601    3.2376    0.3672 H   0  0  0  0  0  0  0  0  0  0  0  0
   -0.8128    5.5944    0.0865 H   0  0  0  0  0  0  0  0  0  0  0  0
   -2.6546    6.2097   -1.4552 H   0  0  0  0  0  0  0  0  0  0  0  0
   -3.8463    4.4467   -2.7268 H   0  0  0  0  0  0  0  0  0  0  0  0
   -3.2149    2.0804   -2.4628 H   0  0  0  0  0  0  0  0  0  0  0  0
   -0.9703    1.1713    1.2894 H   0  0  0  0  0  0  0  0  0  0  0  0
   -2.9996    0.1787    2.0974 H   0  0  0  0  0  0  0  0  0  0  0  0
   -3.3631    1.4765    0.9877 H   0  0  0  0  0  0  0  0  0  0  0  0
   -3.4607   -1.5016    0.2434 H   0  0  0  0  0  0  0  0  0  0  0  0
   -3.9241   -0.1481   -0.7976 H   0  0  0  0  0  0  0  0  0  0  0  0
   -5.2710   -0.8765    1.8547 H   0  0  0  0  0  0  0  0  0  0  0  0
   -5.9050   -1.2239    0.2385 H   0  0  0  0  0  0  0  0  0  0  0  0
   -5.8565    1.0753   -0.1342 H   0  0  0  0  0  0  0  0  0  0  0  0
  1  2  1  0
  2  3  1  0
  3  4  1  0
  4  5  1  0
  5  6  1  0
  6  7  1  0
  7  8  2  0
  7  9  1  0
  9 10  1  0
 10 11  2  0
 11 12  1  0
 12 13  2  0
 13 14  1  0
 14 15  2  0
  6 16  2  0
 16 17  1  0
 17 18  1  0
 18 19  2  0
 19 20  1  0
 20 21  2  0
 21 22  1  0
 22 23  2  0
 17 24  1  0
 24 25  1  0
 25 26  1  0
 26 27  1  0
 27 28  1  0
 24  4  1  0
 15 10  1  0
 23 18  1  0
  1 29  1  0
  1 30  1  0
  1 31  1  0
  2 32  1  0
  2 33  1  0
  4 34  1  0
  9 35  1  0
 11 36  1  0
 12 37  1  0
 13 38  1  0
 14 39  1  0
 15 40  1  0
 16 41  1  0
 17 42  1  0
 19 43  1  0
 20 44  1  0
 21 45  1  0
 22 46  1  0
 23 47  1  0
 24 48  1  0
 25 49  1  0
 25 50  1  0
 26 51  1  0
 26 52  1  0
 27 53  1  0
 27 54  1  0
 28 55  1  0
M  END
$$$$
