
     RDKit          3D

 41 44  0  0  0  0  0  0  0  0999 V2000
    4.8194    0.0319   -3.0615 C   0  0  0  0  0  0  0  0  0  0  0  0
    5.0664    0.2592   -1.5780 C   0  0  0  0  0  0  0  0  0  0  0  0
    3.7864    0.2063   -0.7828 C   0  0  0  0  0  0  0  0  0  0  0  0
    3.0333    1.3675   -0.5732 C   0  0  0  0  0  0  0  0  0  0  0  0
    1.8403    1.3163    0.1517 C   0  0  0  0  0  0  0  0  0  0  0  0
    1.3775    0.1000    0.6675 C   0  0  0  0  0  0  0  0  0  0  0  0
    0.0925    0.0824    1.4302 C   0  0  0  0  0  0  0  0  0  0  0  0
   -0.3126    1.1780    2.0069 N   0  0  0  0  0  0  0  0  0  0  0  0
   -1.4868    1.1455    2.6839 C   0  0  0  0  0  0  0  0  0  0  0  0
   -1.9896    1.9915    3.5565 N   0  0  0  0  0  0  0  0  0  0  0  0
   -3.2069    1.4525    3.8721 C   0  0  0  0  0  0  0  0  0  0  0  0
   -3.5108    0.3112    3.2467 N   0  0  0  0  0  0  0  0  0  0  0  0
   -2.4152    0.1565    2.4858 N   0  0  0  0  0  0  0  0  0  0  0  0
   -2.1837   -0.9819    1.6161 C   0  0  0  0  0  0  0  0  0  0  0  0
   -2.8184   -0.8130    0.2455 C   0  0  0  0  0  0  0  0  0  0  0  0
   -2.8599    0.4080   -0.4506 C   0  0  0  0  0  0  0  0  0  0  0  0
   -3.4367    0.4763   -1.7228 C   0  0  0  0  0  0  0  0  0  0  0  0
   -3.4831    2.1291   -2.6401 Br  0  0  0  0  0  0  0  0  0  0  0  0
   -3.9721   -0.6604   -2.3258 C   0  0  0  0  0  0  0  0  0  0  0  0
   -3.9253   -1.8790   -1.6528 C   0  0  0  0  0  0  0  0  0  0  0  0
   -3.3499   -1.9454   -0.3864 C   0  0  0  0  0  0  0  0  0  0  0  0
   -3.2894   -3.1356    0.2276 F   0  0  0  0  0  0  0  0  0  0  0  0
   -0.6764   -1.2338    1.5278 C   0  0  0  0  0  0  0  0  0  0  0  0
    2.1292   -1.0620    0.4656 C   0  0  0  0  0  0  0  0  0  0  0  0
    3.3235   -1.0078   -0.2600 C   0  0  0  0  0  0  0  0  0  0  0  0
    4.3652   -0.9480   -3.2431 H   0  0  0  0  0  0  0  0  0  0  0  0
    5.7637    0.0756   -3.6133 H   0  0  0  0  0  0  0  0  0  0  0  0
    4.1497    0.7941   -3.4741 H   0  0  0  0  0  0  0  0  0  0  0  0
    5.5545    1.2299   -1.4277 H   0  0  0  0  0  0  0  0  0  0  0  0
    5.7675   -0.4943   -1.1990 H   0  0  0  0  0  0  0  0  0  0  0  0
    3.3716    2.3225   -0.9703 H   0  0  0  0  0  0  0  0  0  0  0  0
    1.2763    2.2342    0.3073 H   0  0  0  0  0  0  0  0  0  0  0  0
   -3.8882    1.9065    4.5804 H   0  0  0  0  0  0  0  0  0  0  0  0
   -2.6515   -1.8365    2.1228 H   0  0  0  0  0  0  0  0  0  0  0  0
   -2.4500    1.3165   -0.0131 H   0  0  0  0  0  0  0  0  0  0  0  0
   -4.4213   -0.6070   -3.3142 H   0  0  0  0  0  0  0  0  0  0  0  0
   -4.3301   -2.7783   -2.1071 H   0  0  0  0  0  0  0  0  0  0  0  0
   -0.3317   -1.7237    2.4482 H   0  0  0  0  0  0  0  0  0  0  0  0
   -0.4453   -1.8967    0.6880 H   0  0  0  0  0  0  0  0  0  0  0  0
    1.8211   -2.0189    0.8759 H   0  0  0  0  0  0  0  0  0  0  0  0
    3.8967   -1.9207   -0.4105 H   0  0  0  0  0  0  0  0  0  0  0  0
  1  2  1  0
  2  3  1  0
  3  4  2  0
  4  5  1  0
  5  6  2  0
  6  7  1  0
  7  8  2  0
  8  9  1  0
  9 10  2  0
 10 11  1  0
 11 12  2  0
 12 13  1  0
 13 14  1  0
 14 15  1  0
 15 16  2  0
 16 17  1  0
 17 18  1  0
 17 19  2  0
 19 20  1  0
 20 21  2  0
 21 22  1  0
 14 23  1  0
  6 24  1  0
 24 25  2  0
 25  3  1  0
 23  7  1  0
 13  9  1  0
 21 15  1  0
  1 26  1  0
  1 27  1  0
  1 28  1  0
  2 29  1  0
  2 30  1  0
  4 31  1  0
  5 32  1  0
 11 33  1  0
 14 34  1  0
 16 35  1  0
 19 36  1  0
 20 37  1  0
 23 38  1  0
 23 39  1  0
 24 40  1  0
 25 41  1  0
M  END
$$$$
