
     RDKit          3D

 37 38  0  0  0  0  0  0  0  0999 V2000
   -3.5773   -1.5905    1.1441 C   0  0  0  0  0  0  0  0  0  0  0  0
   -4.2079   -0.5308    0.2281 C   0  0  0  0  0  0  0  0  0  0  0  0
   -5.3666   -1.2010   -0.5292 C   0  0  0  0  0  0  0  0  0  0  0  0
   -3.1682    0.0854   -0.7491 C   0  0  0  0  0  0  0  0  0  0  0  0
   -3.6741    1.3083   -1.5355 C   0  0  0  0  0  0  0  0  0  0  0  0
   -4.8014    1.4831   -1.9695 O   0  0  0  0  0  0  0  0  0  0  0  0
   -2.7147    2.2164   -1.8239 O   0  0  0  0  0  0  0  0  0  0  0  0
   -1.8411    0.3809   -0.1516 N   0  0  0  0  0  0  0  0  0  0  0  0
   -0.7247   -0.1919   -0.7399 C   0  0  0  0  0  0  0  0  0  0  0  0
   -0.7252   -0.9573   -1.6954 O   0  0  0  0  0  0  0  0  0  0  0  0
    0.5170    0.2419   -0.0476 C   0  0  0  0  0  0  0  0  0  0  0  0
    1.7254   -0.1955   -0.4296 C   0  0  0  0  0  0  0  0  0  0  0  0
    3.0003    0.1557    0.1669 C   0  0  0  0  0  0  0  0  0  0  0  0
    4.1684   -0.3308   -0.2809 C   0  0  0  0  0  0  0  0  0  0  0  0
    5.4003    0.0359    0.3296 C   0  0  0  0  0  0  0  0  0  0  0  0
    6.6871   -0.3705   -0.0071 C   0  0  0  0  0  0  0  0  0  0  0  0
    7.5918    0.2563    0.8824 C   0  0  0  0  0  0  0  0  0  0  0  0
    6.8213    1.0171    1.7226 C   0  0  0  0  0  0  0  0  0  0  0  0
    5.5109    0.8942    1.4031 O   0  0  0  0  0  0  0  0  0  0  0  0
    0.1327    1.3194    1.2273 S   0  0  0  0  0  0  0  0  0  0  0  0
   -1.5935    1.2693    0.8792 C   0  0  0  0  0  0  0  0  0  0  0  0
   -2.6666    2.2196    1.7356 S   0  0  0  0  0  0  0  0  0  0  0  0
   -2.8238   -1.1600    1.8092 H   0  0  0  0  0  0  0  0  0  0  0  0
   -3.1006   -2.3844    0.5586 H   0  0  0  0  0  0  0  0  0  0  0  0
   -4.3373   -2.0540    1.7828 H   0  0  0  0  0  0  0  0  0  0  0  0
   -4.6501    0.2511    0.8537 H   0  0  0  0  0  0  0  0  0  0  0  0
   -5.9450   -0.4806   -1.1122 H   0  0  0  0  0  0  0  0  0  0  0  0
   -6.0642   -1.6739    0.1713 H   0  0  0  0  0  0  0  0  0  0  0  0
   -5.0005   -1.9763   -1.2109 H   0  0  0  0  0  0  0  0  0  0  0  0
   -3.0049   -0.6650   -1.5341 H   0  0  0  0  0  0  0  0  0  0  0  0
   -3.1850    2.9017   -2.3462 H   0  0  0  0  0  0  0  0  0  0  0  0
    1.7736   -0.8856   -1.2730 H   0  0  0  0  0  0  0  0  0  0  0  0
    2.9944    0.8432    1.0114 H   0  0  0  0  0  0  0  0  0  0  0  0
    4.2040   -1.0174   -1.1213 H   0  0  0  0  0  0  0  0  0  0  0  0
    6.9380   -1.0484   -0.8116 H   0  0  0  0  0  0  0  0  0  0  0  0
    8.6682    0.1643    0.9067 H   0  0  0  0  0  0  0  0  0  0  0  0
    7.0395    1.6699    2.5561 H   0  0  0  0  0  0  0  0  0  0  0  0
  1  2  1  0
  2  3  1  0
  2  4  1  0
  4  5  1  0
  5  6  2  0
  5  7  1  0
  4  8  1  0
  8  9  1  0
  9 10  2  0
  9 11  1  0
 11 12  2  3
 12 13  1  0
 13 14  2  3
 14 15  1  0
 15 16  2  0
 16 17  1  0
 17 18  2  0
 18 19  1  0
 11 20  1  0
 20 21  1  0
 21 22  2  0
 21  8  1  0
 19 15  1  0
  1 23  1  0
  1 24  1  0
  1 25  1  0
  2 26  1  0
  3 27  1  0
  3 28  1  0
  3 29  1  0
  4 30  1  0
  7 31  1  0
 12 32  1  0
 13 33  1  0
 14 34  1  0
 16 35  1  0
 17 36  1  0
 18 37  1  0
M  END
$$$$
