
     RDKit          3D

 38 39  0  0  0  0  0  0  0  0999 V2000
   -2.9955   -0.4957    2.7583 C   0  0  0  0  0  0  0  0  0  0  0  0
   -4.2326   -0.6209    2.0043 N   0  0  0  0  0  0  0  0  0  0  0  0
   -4.0004   -1.0211    0.6110 C   0  0  0  0  0  0  0  0  0  0  0  0
   -3.4198    0.0770   -0.2518 C   0  0  0  0  0  0  0  0  0  0  0  0
   -4.2170    1.1861   -0.5881 C   0  0  0  0  0  0  0  0  0  0  0  0
   -3.7167    2.2088   -1.3953 C   0  0  0  0  0  0  0  0  0  0  0  0
   -2.4178    2.1315   -1.8900 C   0  0  0  0  0  0  0  0  0  0  0  0
   -1.6141    1.0382   -1.5686 C   0  0  0  0  0  0  0  0  0  0  0  0
   -2.1027    0.0274   -0.7343 C   0  0  0  0  0  0  0  0  0  0  0  0
   -1.3347   -1.0664   -0.4313 O   0  0  0  0  0  0  0  0  0  0  0  0
   -0.1231   -0.7338    0.2357 C   0  0  0  0  0  0  0  0  0  0  0  0
    1.1420   -0.7746   -0.6371 C   0  0  0  0  0  0  0  0  0  0  0  0
    1.1082   -1.0604   -1.8292 O   0  0  0  0  0  0  0  0  0  0  0  0
    2.2780   -0.4442    0.0940 N   0  0  0  0  0  0  0  0  0  0  0  0
    3.6081   -0.3691   -0.3708 C   0  0  0  0  0  0  0  0  0  0  0  0
    3.9943   -0.6285   -1.6867 C   0  0  0  0  0  0  0  0  0  0  0  0
    5.3379   -0.5300   -2.0642 C   0  0  0  0  0  0  0  0  0  0  0  0
    6.3062   -0.1714   -1.1299 C   0  0  0  0  0  0  0  0  0  0  0  0
    5.9326    0.0892    0.1851 C   0  0  0  0  0  0  0  0  0  0  0  0
    4.5905   -0.0094    0.5622 C   0  0  0  0  0  0  0  0  0  0  0  0
   -3.2314   -0.2720    3.8035 H   0  0  0  0  0  0  0  0  0  0  0  0
   -2.4243   -1.4296    2.7462 H   0  0  0  0  0  0  0  0  0  0  0  0
   -2.3649    0.3160    2.3830 H   0  0  0  0  0  0  0  0  0  0  0  0
   -4.7330    0.2654    2.0186 H   0  0  0  0  0  0  0  0  0  0  0  0
   -3.3967   -1.9354    0.5734 H   0  0  0  0  0  0  0  0  0  0  0  0
   -4.9672   -1.3079    0.1776 H   0  0  0  0  0  0  0  0  0  0  0  0
   -5.2426    1.2488   -0.2303 H   0  0  0  0  0  0  0  0  0  0  0  0
   -4.3475    3.0556   -1.6535 H   0  0  0  0  0  0  0  0  0  0  0  0
   -2.0350    2.9127   -2.5417 H   0  0  0  0  0  0  0  0  0  0  0  0
   -0.6195    0.9708   -2.0008 H   0  0  0  0  0  0  0  0  0  0  0  0
    0.0112   -1.4874    1.0213 H   0  0  0  0  0  0  0  0  0  0  0  0
   -0.1822    0.2410    0.7395 H   0  0  0  0  0  0  0  0  0  0  0  0
    2.1467   -0.2337    1.0752 H   0  0  0  0  0  0  0  0  0  0  0  0
    3.2765   -0.9127   -2.4496 H   0  0  0  0  0  0  0  0  0  0  0  0
    5.6233   -0.7360   -3.0929 H   0  0  0  0  0  0  0  0  0  0  0  0
    7.3488   -0.0966   -1.4278 H   0  0  0  0  0  0  0  0  0  0  0  0
    6.6851    0.3687    0.9178 H   0  0  0  0  0  0  0  0  0  0  0  0
    4.3291    0.1997    1.5960 H   0  0  0  0  0  0  0  0  0  0  0  0
  1  2  1  0
  2  3  1  0
  3  4  1  0
  4  5  2  0
  5  6  1  0
  6  7  2  0
  7  8  1  0
  8  9  2  0
  9 10  1  0
 10 11  1  0
 11 12  1  0
 12 13  2  0
 12 14  1  0
 14 15  1  0
 15 16  2  0
 16 17  1  0
 17 18  2  0
 18 19  1  0
 19 20  2  0
  9  4  1  0
 20 15  1  0
  1 21  1  0
  1 22  1  0
  1 23  1  0
  2 24  1  0
  3 25  1  0
  3 26  1  0
  5 27  1  0
  6 28  1  0
  7 29  1  0
  8 30  1  0
 11 31  1  0
 11 32  1  0
 14 33  1  0
 16 34  1  0
 17 35  1  0
 18 36  1  0
 19 37  1  0
 20 38  1  0
M  END
$$$$
