
     RDKit          3D

 53 56  0  0  0  0  0  0  0  0999 V2000
    8.3670    0.2186   -0.0286 C   0  0  0  0  0  0  0  0  0  0  0  0
    7.5891   -0.8229    0.5480 O   0  0  0  0  0  0  0  0  0  0  0  0
    6.2277   -0.4467    0.7782 C   0  0  0  0  0  0  0  0  0  0  0  0
    5.3873   -0.5775   -0.4892 C   0  0  0  0  0  0  0  0  0  0  0  0
    3.9880   -0.2403   -0.2653 N   0  0  0  0  0  0  0  0  0  0  0  0
    3.4500    1.0185   -0.4369 C   0  0  0  0  0  0  0  0  0  0  0  0
    4.2409    2.2137   -0.8429 C   0  0  0  0  0  0  0  0  0  0  0  0
    2.0981    0.9262   -0.1800 C   0  0  0  0  0  0  0  0  0  0  0  0
    1.7870   -0.4226    0.1508 C   0  0  0  0  0  0  0  0  0  0  0  0
    0.4611   -0.9928    0.4662 C   0  0  0  0  0  0  0  0  0  0  0  0
    0.3397   -2.1762    0.7855 O   0  0  0  0  0  0  0  0  0  0  0  0
   -0.7221   -0.0333    0.4056 C   0  0  0  0  0  0  0  0  0  0  0  0
   -2.3256   -0.8950    0.3934 S   0  0  0  0  0  0  0  0  0  0  0  0
   -3.4200    0.4890    0.2620 C   0  0  0  0  0  0  0  0  0  0  0  0
   -2.9172    1.7424    0.3110 N   0  0  0  0  0  0  0  0  0  0  0  0
   -3.7596    2.7851    0.1931 C   0  0  0  0  0  0  0  0  0  0  0  0
   -3.1588    4.1552    0.2498 C   0  0  0  0  0  0  0  0  0  0  0  0
   -5.0857    2.7152    0.0323 N   0  0  0  0  0  0  0  0  0  0  0  0
   -5.5496    1.4552   -0.0122 C   0  0  0  0  0  0  0  0  0  0  0  0
   -7.2310    1.1640   -0.2360 S   0  0  0  0  0  0  0  0  0  0  0  0
   -6.9710   -0.4841   -0.1761 C   0  0  0  0  0  0  0  0  0  0  0  0
   -5.6623   -0.8399    0.0046 C   0  0  0  0  0  0  0  0  0  0  0  0
   -4.7954    0.2868    0.0983 C   0  0  0  0  0  0  0  0  0  0  0  0
   -5.5202   -2.3190    0.0449 C   0  0  0  0  0  0  0  0  0  0  0  0
   -6.9998   -2.7960    0.1959 C   0  0  0  0  0  0  0  0  0  0  0  0
   -7.9062   -1.6265   -0.2905 C   0  0  0  0  0  0  0  0  0  0  0  0
    2.9945   -1.1199    0.1235 C   0  0  0  0  0  0  0  0  0  0  0  0
    3.2387   -2.5632    0.4314 C   0  0  0  0  0  0  0  0  0  0  0  0
    7.9964    0.4767   -1.0245 H   0  0  0  0  0  0  0  0  0  0  0  0
    8.3654    1.1031    0.6162 H   0  0  0  0  0  0  0  0  0  0  0  0
    9.3968   -0.1373   -0.1261 H   0  0  0  0  0  0  0  0  0  0  0  0
    6.1787    0.5641    1.2001 H   0  0  0  0  0  0  0  0  0  0  0  0
    5.8400   -1.1235    1.5474 H   0  0  0  0  0  0  0  0  0  0  0  0
    5.4445   -1.5917   -0.8991 H   0  0  0  0  0  0  0  0  0  0  0  0
    5.7686    0.0690   -1.2865 H   0  0  0  0  0  0  0  0  0  0  0  0
    5.1148    2.3495   -0.1979 H   0  0  0  0  0  0  0  0  0  0  0  0
    3.6340    3.1225   -0.7728 H   0  0  0  0  0  0  0  0  0  0  0  0
    4.5796    2.1161   -1.8800 H   0  0  0  0  0  0  0  0  0  0  0  0
    1.4078    1.7587   -0.2416 H   0  0  0  0  0  0  0  0  0  0  0  0
   -0.6513    0.5553   -0.5132 H   0  0  0  0  0  0  0  0  0  0  0  0
   -0.6670    0.6221    1.2791 H   0  0  0  0  0  0  0  0  0  0  0  0
   -3.5239    4.7599   -0.5854 H   0  0  0  0  0  0  0  0  0  0  0  0
   -3.4327    4.6436    1.1888 H   0  0  0  0  0  0  0  0  0  0  0  0
   -2.0670    4.1075    0.1883 H   0  0  0  0  0  0  0  0  0  0  0  0
   -5.0913   -2.6890   -0.8929 H   0  0  0  0  0  0  0  0  0  0  0  0
   -4.9165   -2.6685    0.8881 H   0  0  0  0  0  0  0  0  0  0  0  0
   -7.2041   -2.9869    1.2580 H   0  0  0  0  0  0  0  0  0  0  0  0
   -7.1965   -3.7253   -0.3454 H   0  0  0  0  0  0  0  0  0  0  0  0
   -8.7932   -1.5240    0.3409 H   0  0  0  0  0  0  0  0  0  0  0  0
   -8.2093   -1.7799   -1.3315 H   0  0  0  0  0  0  0  0  0  0  0  0
    2.7954   -3.1931   -0.3470 H   0  0  0  0  0  0  0  0  0  0  0  0
    2.7869   -2.8278    1.3934 H   0  0  0  0  0  0  0  0  0  0  0  0
    4.2995   -2.8150    0.5059 H   0  0  0  0  0  0  0  0  0  0  0  0
  1  2  1  0
  2  3  1  0
  3  4  1  0
  4  5  1  0
  5  6  1  0
  6  7  1  0
  6  8  2  0
  8  9  1  0
  9 10  1  0
 10 11  2  0
 10 12  1  0
 12 13  1  0
 13 14  1  0
 14 15  2  0
 15 16  1  0
 16 17  1  0
 16 18  2  0
 18 19  1  0
 19 20  1  0
 20 21  1  0
 21 22  2  0
 22 23  1  0
 22 24  1  0
 24 25  1  0
 25 26  1  0
  9 27  2  0
 27 28  1  0
 27  5  1  0
 23 14  1  0
 23 19  2  0
 26 21  1  0
  1 29  1  0
  1 30  1  0
  1 31  1  0
  3 32  1  0
  3 33  1  0
  4 34  1  0
  4 35  1  0
  7 36  1  0
  7 37  1  0
  7 38  1  0
  8 39  1  0
 12 40  1  0
 12 41  1  0
 17 42  1  0
 17 43  1  0
 17 44  1  0
 24 45  1  0
 24 46  1  0
 25 47  1  0
 25 48  1  0
 26 49  1  0
 26 50  1  0
 28 51  1  0
 28 52  1  0
 28 53  1  0
M  END
$$$$
