
     RDKit          3D

 68 72  0  0  0  0  0  0  0  0999 V2000
    9.9302    1.4954   -0.7265 C   0  0  0  0  0  0  0  0  0  0  0  0
    8.9679    2.1084    0.1220 O   0  0  0  0  0  0  0  0  0  0  0  0
    7.6543    1.8413   -0.1422 C   0  0  0  0  0  0  0  0  0  0  0  0
    7.1664    1.0409   -1.1680 C   0  0  0  0  0  0  0  0  0  0  0  0
    5.7834    0.8461   -1.3151 C   0  0  0  0  0  0  0  0  0  0  0  0
    4.8451    1.4348   -0.4520 C   0  0  0  0  0  0  0  0  0  0  0  0
    3.4846    1.2279   -0.6059 N   0  0  0  0  0  0  0  0  0  0  0  0
    2.9651    0.0100   -1.2533 C   0  0  0  0  0  0  0  0  0  0  0  0
    1.6463   -0.4458   -0.5854 C   0  0  0  0  0  0  0  0  0  0  0  0
    0.5496    0.5582   -0.6178 N   0  0  0  0  0  0  0  0  0  0  0  0
   -0.3718    0.3550    0.5151 C   0  0  0  0  0  0  0  0  0  0  0  0
   -1.0500   -0.9866    0.4725 C   0  0  0  0  0  0  0  0  0  0  0  0
   -0.7540   -2.0055    1.2673 N   0  0  0  0  0  0  0  0  0  0  0  0
   -1.5510   -3.0225    0.8533 C   0  0  0  0  0  0  0  0  0  0  0  0
   -2.3517   -2.6509   -0.1865 C   0  0  0  0  0  0  0  0  0  0  0  0
   -3.2566   -3.5547   -0.8095 C   0  0  0  0  0  0  0  0  0  0  0  0
   -3.9823   -3.2906   -1.7611 O   0  0  0  0  0  0  0  0  0  0  0  0
   -3.2363   -4.8040   -0.2303 N   0  0  0  0  0  0  0  0  0  0  0  0
   -2.4354   -5.2329    0.8122 C   0  0  0  0  0  0  0  0  0  0  0  0
   -2.5182   -6.4041    1.1824 O   0  0  0  0  0  0  0  0  0  0  0  0
   -1.5755   -4.2974    1.3760 N   0  0  0  0  0  0  0  0  0  0  0  0
   -0.6857   -4.6684    2.4587 C   0  0  0  0  0  0  0  0  0  0  0  0
   -2.0517   -1.3343   -0.4196 N   0  0  0  0  0  0  0  0  0  0  0  0
   -2.6459   -0.4989   -1.4470 C   0  0  0  0  0  0  0  0  0  0  0  0
   -4.0584   -0.0144   -1.1106 C   0  0  0  0  0  0  0  0  0  0  0  0
   -4.0843    0.9849    0.0486 C   0  0  0  0  0  0  0  0  0  0  0  0
   -5.4839    1.4675    0.3353 C   0  0  0  0  0  0  0  0  0  0  0  0
   -6.2876    0.7981    1.2677 C   0  0  0  0  0  0  0  0  0  0  0  0
   -7.5886    1.2350    1.5221 C   0  0  0  0  0  0  0  0  0  0  0  0
   -8.0995    2.3403    0.8444 C   0  0  0  0  0  0  0  0  0  0  0  0
   -7.3107    3.0088   -0.0900 C   0  0  0  0  0  0  0  0  0  0  0  0
   -6.0090    2.5738   -0.3457 C   0  0  0  0  0  0  0  0  0  0  0  0
    1.1031    1.9320   -0.6118 C   0  0  0  0  0  0  0  0  0  0  0  0
    2.4924    2.0918    0.0498 C   0  0  0  0  0  0  0  0  0  0  0  0
    5.3666    2.2501    0.5625 C   0  0  0  0  0  0  0  0  0  0  0  0
    6.7455    2.4479    0.7193 C   0  0  0  0  0  0  0  0  0  0  0  0
   10.9232    1.7765   -0.3641 H   0  0  0  0  0  0  0  0  0  0  0  0
    9.8600    0.4036   -0.6845 H   0  0  0  0  0  0  0  0  0  0  0  0
    9.8338    1.8589   -1.7544 H   0  0  0  0  0  0  0  0  0  0  0  0
    7.8259    0.5518   -1.8767 H   0  0  0  0  0  0  0  0  0  0  0  0
    5.4508    0.2337   -2.1488 H   0  0  0  0  0  0  0  0  0  0  0  0
    2.8022    0.2051   -2.3203 H   0  0  0  0  0  0  0  0  0  0  0  0
    3.6742   -0.8224   -1.1664 H   0  0  0  0  0  0  0  0  0  0  0  0
    1.8891   -0.7135    0.4529 H   0  0  0  0  0  0  0  0  0  0  0  0
    1.3014   -1.3588   -1.0847 H   0  0  0  0  0  0  0  0  0  0  0  0
   -1.1494    1.1274    0.5054 H   0  0  0  0  0  0  0  0  0  0  0  0
    0.1562    0.4621    1.4718 H   0  0  0  0  0  0  0  0  0  0  0  0
   -3.8463   -5.4984   -0.6318 H   0  0  0  0  0  0  0  0  0  0  0  0
    0.3434   -4.6656    2.0853 H   0  0  0  0  0  0  0  0  0  0  0  0
   -0.7821   -3.9453    3.2750 H   0  0  0  0  0  0  0  0  0  0  0  0
   -0.9166   -5.6648    2.8448 H   0  0  0  0  0  0  0  0  0  0  0  0
   -1.9882    0.3524   -1.6423 H   0  0  0  0  0  0  0  0  0  0  0  0
   -2.6619   -1.0917   -2.3685 H   0  0  0  0  0  0  0  0  0  0  0  0
   -4.4797    0.4597   -2.0067 H   0  0  0  0  0  0  0  0  0  0  0  0
   -4.7095   -0.8651   -0.8767 H   0  0  0  0  0  0  0  0  0  0  0  0
   -3.4462    1.8474   -0.1809 H   0  0  0  0  0  0  0  0  0  0  0  0
   -3.6705    0.5328    0.9582 H   0  0  0  0  0  0  0  0  0  0  0  0
   -5.9053   -0.0689    1.8015 H   0  0  0  0  0  0  0  0  0  0  0  0
   -8.2048    0.7115    2.2484 H   0  0  0  0  0  0  0  0  0  0  0  0
   -9.1131    2.6792    1.0429 H   0  0  0  0  0  0  0  0  0  0  0  0
   -7.7106    3.8683   -0.6216 H   0  0  0  0  0  0  0  0  0  0  0  0
   -5.4081    3.1033   -1.0812 H   0  0  0  0  0  0  0  0  0  0  0  0
    1.1929    2.2380   -1.6630 H   0  0  0  0  0  0  0  0  0  0  0  0
    0.3979    2.6427   -0.1633 H   0  0  0  0  0  0  0  0  0  0  0  0
    2.7843    3.1450   -0.0429 H   0  0  0  0  0  0  0  0  0  0  0  0
    2.4264    1.8459    1.1168 H   0  0  0  0  0  0  0  0  0  0  0  0
    4.7107    2.7352    1.2785 H   0  0  0  0  0  0  0  0  0  0  0  0
    7.1074    3.0771    1.5283 H   0  0  0  0  0  0  0  0  0  0  0  0
  1  2  1  0
  2  3  1  0
  3  4  2  0
  4  5  1  0
  5  6  2  0
  6  7  1  0
  7  8  1  0
  8  9  1  0
  9 10  1  0
 10 11  1  0
 11 12  1  0
 12 13  2  0
 13 14  1  0
 14 15  2  0
 15 16  1  0
 16 17  2  0
 16 18  1  0
 18 19  1  0
 19 20  2  0
 19 21  1  0
 21 22  1  0
 15 23  1  0
 23 24  1  0
 24 25  1  0
 25 26  1  0
 26 27  1  0
 27 28  2  0
 28 29  1  0
 29 30  2  0
 30 31  1  0
 31 32  2  0
 10 33  1  0
 33 34  1  0
  6 35  1  0
 35 36  2  0
 36  3  1  0
 34  7  1  0
 23 12  1  0
 32 27  1  0
 21 14  1  0
  1 37  1  0
  1 38  1  0
  1 39  1  0
  4 40  1  0
  5 41  1  0
  8 42  1  0
  8 43  1  0
  9 44  1  0
  9 45  1  0
 11 46  1  0
 11 47  1  0
 18 48  1  0
 22 49  1  0
 22 50  1  0
 22 51  1  0
 24 52  1  0
 24 53  1  0
 25 54  1  0
 25 55  1  0
 26 56  1  0
 26 57  1  0
 28 58  1  0
 29 59  1  0
 30 60  1  0
 31 61  1  0
 32 62  1  0
 33 63  1  0
 33 64  1  0
 34 65  1  0
 34 66  1  0
 35 67  1  0
 36 68  1  0
M  END
$$$$
