
     RDKit          3D

 60 64  0  0  0  0  0  0  0  0999 V2000
   -7.8429   -4.2919    2.8552 C   0  0  0  0  0  0  0  0  0  0  0  0
   -6.9586   -3.1845    2.3663 C   0  0  0  0  0  0  0  0  0  0  0  0
   -5.5694   -3.3245    2.3603 C   0  0  0  0  0  0  0  0  0  0  0  0
   -4.7493   -2.2928    1.8851 C   0  0  0  0  0  0  0  0  0  0  0  0
   -5.2914   -1.1059    1.3850 C   0  0  0  0  0  0  0  0  0  0  0  0
   -4.5276   -0.0267    0.9245 N   0  0  0  0  0  0  0  0  0  0  0  0
   -3.1598    0.2307    0.8514 C   0  0  0  0  0  0  0  0  0  0  0  0
   -2.2689   -0.5782    1.3964 N   0  0  0  0  0  0  0  0  0  0  0  0
   -1.0092   -0.2038    1.2379 C   0  0  0  0  0  0  0  0  0  0  0  0
   -0.0779   -1.0074    1.8763 O   0  0  0  0  0  0  0  0  0  0  0  0
    1.1761   -0.9826    1.3130 C   0  0  0  0  0  0  0  0  0  0  0  0
    2.2472   -0.5953    2.0981 C   0  0  0  0  0  0  0  0  0  0  0  0
    3.5114   -0.6019    1.5223 C   0  0  0  0  0  0  0  0  0  0  0  0
    3.6311   -1.0136    0.2082 C   0  0  0  0  0  0  0  0  0  0  0  0
    4.8940   -0.9800   -0.3427 O   0  0  0  0  0  0  0  0  0  0  0  0
    4.9280   -1.4431   -1.6949 C   0  0  0  0  0  0  0  0  0  0  0  0
    6.3393   -1.3049   -2.2218 C   0  0  0  0  0  0  0  0  0  0  0  0
    7.4323   -1.7850   -1.4823 C   0  0  0  0  0  0  0  0  0  0  0  0
    8.7322   -1.6681   -1.9779 C   0  0  0  0  0  0  0  0  0  0  0  0
    8.9538   -1.0785   -3.2219 C   0  0  0  0  0  0  0  0  0  0  0  0
    7.8762   -0.6120   -3.9733 C   0  0  0  0  0  0  0  0  0  0  0  0
    6.5753   -0.7275   -3.4784 C   0  0  0  0  0  0  0  0  0  0  0  0
    2.5693   -1.4229   -0.5209 N   0  0  0  0  0  0  0  0  0  0  0  0
    1.3239   -1.4157    0.0400 N   0  0  0  0  0  0  0  0  0  0  0  0
   -0.5980    0.9194    0.6601 N   0  0  0  0  0  0  0  0  0  0  0  0
   -1.5510    1.6810    0.1452 C   0  0  0  0  0  0  0  0  0  0  0  0
   -1.1866    2.8508   -0.5279 N   0  0  0  0  0  0  0  0  0  0  0  0
    0.1469    3.3642   -0.1733 C   0  0  0  0  0  0  0  0  0  0  0  0
    0.4916    4.5924   -1.0299 C   0  0  0  0  0  0  0  0  0  0  0  0
   -0.5223    5.6034   -0.9324 O   0  0  0  0  0  0  0  0  0  0  0  0
   -1.7737    5.0825   -1.4046 C   0  0  0  0  0  0  0  0  0  0  0  0
   -2.2372    3.8797   -0.5680 C   0  0  0  0  0  0  0  0  0  0  0  0
   -2.8404    1.3609    0.2248 N   0  0  0  0  0  0  0  0  0  0  0  0
   -6.6895   -0.9780    1.3966 C   0  0  0  0  0  0  0  0  0  0  0  0
   -7.5147   -2.0033    1.8716 C   0  0  0  0  0  0  0  0  0  0  0  0
   -8.6330   -3.8939    3.5001 H   0  0  0  0  0  0  0  0  0  0  0  0
   -8.2997   -4.8103    2.0056 H   0  0  0  0  0  0  0  0  0  0  0  0
   -7.2772   -5.0228    3.4446 H   0  0  0  0  0  0  0  0  0  0  0  0
   -5.1059   -4.2369    2.7261 H   0  0  0  0  0  0  0  0  0  0  0  0
   -3.6757   -2.4527    1.9073 H   0  0  0  0  0  0  0  0  0  0  0  0
   -5.0270    0.7009    0.4360 H   0  0  0  0  0  0  0  0  0  0  0  0
    2.0991   -0.2793    3.1235 H   0  0  0  0  0  0  0  0  0  0  0  0
    4.3844   -0.2885    2.0831 H   0  0  0  0  0  0  0  0  0  0  0  0
    4.6397   -2.5018   -1.7473 H   0  0  0  0  0  0  0  0  0  0  0  0
    4.2479   -0.8421   -2.3138 H   0  0  0  0  0  0  0  0  0  0  0  0
    7.2738   -2.2492   -0.5103 H   0  0  0  0  0  0  0  0  0  0  0  0
    9.5719   -2.0367   -1.3920 H   0  0  0  0  0  0  0  0  0  0  0  0
    9.9660   -0.9861   -3.6064 H   0  0  0  0  0  0  0  0  0  0  0  0
    8.0477   -0.1561   -4.9458 H   0  0  0  0  0  0  0  0  0  0  0  0
    5.7473   -0.3610   -4.0817 H   0  0  0  0  0  0  0  0  0  0  0  0
    0.1573    3.6527    0.8854 H   0  0  0  0  0  0  0  0  0  0  0  0
    0.9237    2.6090   -0.3401 H   0  0  0  0  0  0  0  0  0  0  0  0
    1.4325    5.0332   -0.6860 H   0  0  0  0  0  0  0  0  0  0  0  0
    0.6199    4.3146   -2.0830 H   0  0  0  0  0  0  0  0  0  0  0  0
   -1.6709    4.8109   -2.4621 H   0  0  0  0  0  0  0  0  0  0  0  0
   -2.5134    5.8863   -1.3385 H   0  0  0  0  0  0  0  0  0  0  0  0
   -2.4576    4.2180    0.4535 H   0  0  0  0  0  0  0  0  0  0  0  0
   -3.1601    3.4929   -1.0175 H   0  0  0  0  0  0  0  0  0  0  0  0
   -7.1572   -0.0669    1.0349 H   0  0  0  0  0  0  0  0  0  0  0  0
   -8.5939   -1.8691    1.8558 H   0  0  0  0  0  0  0  0  0  0  0  0
  1  2  1  0
  2  3  2  0
  3  4  1  0
  4  5  2  0
  5  6  1  0
  6  7  1  0
  7  8  2  0
  8  9  1  0
  9 10  1  0
 10 11  1  0
 11 12  2  0
 12 13  1  0
 13 14  2  0
 14 15  1  0
 15 16  1  0
 16 17  1  0
 17 18  2  0
 18 19  1  0
 19 20  2  0
 20 21  1  0
 21 22  2  0
 14 23  1  0
 23 24  2  0
  9 25  2  0
 25 26  1  0
 26 27  1  0
 27 28  1  0
 28 29  1  0
 29 30  1  0
 30 31  1  0
 31 32  1  0
 26 33  2  0
  5 34  1  0
 34 35  2  0
 35  2  1  0
 33  7  1  0
 24 11  1  0
 32 27  1  0
 22 17  1  0
  1 36  1  0
  1 37  1  0
  1 38  1  0
  3 39  1  0
  4 40  1  0
  6 41  1  0
 12 42  1  0
 13 43  1  0
 16 44  1  0
 16 45  1  0
 18 46  1  0
 19 47  1  0
 20 48  1  0
 21 49  1  0
 22 50  1  0
 28 51  1  0
 28 52  1  0
 29 53  1  0
 29 54  1  0
 31 55  1  0
 31 56  1  0
 32 57  1  0
 32 58  1  0
 34 59  1  0
 35 60  1  0
M  END
$$$$
