
     RDKit          3D

 46 47  0  0  0  0  0  0  0  0999 V2000
    7.2866   -1.0587    3.3384 O   0  0  0  0  0  0  0  0  0  0  0  0
    6.9612   -1.9542    2.5774 C   0  0  0  0  0  0  0  0  0  0  0  0
    7.6409   -3.1156    2.5492 O   0  0  0  0  0  0  0  0  0  0  0  0
    5.8223   -1.9405    1.6010 C   0  0  0  0  0  0  0  0  0  0  0  0
    5.1123   -0.5924    1.6220 C   0  0  0  0  0  0  0  0  0  0  0  0
    3.9540   -0.5452    0.6441 C   0  0  0  0  0  0  0  0  0  0  0  0
    3.6401   -1.5135   -0.0370 O   0  0  0  0  0  0  0  0  0  0  0  0
    3.3373    0.6959    0.6511 N   0  0  0  0  0  0  0  0  0  0  0  0
    2.2423    1.1164   -0.1314 C   0  0  0  0  0  0  0  0  0  0  0  0
    1.6137    0.3168   -1.0903 C   0  0  0  0  0  0  0  0  0  0  0  0
    0.5342    0.8095   -1.8320 C   0  0  0  0  0  0  0  0  0  0  0  0
    0.0710    2.1056   -1.6022 C   0  0  0  0  0  0  0  0  0  0  0  0
   -1.2863    2.7460   -2.5520 S   0  0  0  0  0  6  0  0  0  0  0  0
   -1.4504    1.9213   -3.7276 O   0  0  0  0  0  0  0  0  0  0  0  0
   -1.1249    4.1806   -2.6405 O   0  0  0  0  0  0  0  0  0  0  0  0
   -2.5950    2.4828   -1.5404 N   0  0  0  0  0  0  0  0  0  0  0  0
   -2.9346    1.1208   -1.1189 C   0  0  0  0  0  0  0  0  0  0  0  0
   -4.4456    1.0174   -0.9031 C   0  0  0  0  0  0  0  0  0  0  0  0
   -4.8496   -0.3613   -0.4458 C   0  0  0  0  0  0  0  0  0  0  0  0
   -5.0884   -1.3754   -1.3832 C   0  0  0  0  0  0  0  0  0  0  0  0
   -5.4387   -2.6587   -0.9620 C   0  0  0  0  0  0  0  0  0  0  0  0
   -5.5505   -2.9408    0.3980 C   0  0  0  0  0  0  0  0  0  0  0  0
   -5.3115   -1.9404    1.3382 C   0  0  0  0  0  0  0  0  0  0  0  0
   -4.9604   -0.6560    0.9195 C   0  0  0  0  0  0  0  0  0  0  0  0
    0.6965    2.9226   -0.6595 C   0  0  0  0  0  0  0  0  0  0  0  0
    1.7771    2.4238    0.0738 C   0  0  0  0  0  0  0  0  0  0  0  0
    8.3467   -3.0056    3.2201 H   0  0  0  0  0  0  0  0  0  0  0  0
    5.1246   -2.7410    1.8711 H   0  0  0  0  0  0  0  0  0  0  0  0
    6.2196   -2.1408    0.5997 H   0  0  0  0  0  0  0  0  0  0  0  0
    4.7234   -0.3875    2.6271 H   0  0  0  0  0  0  0  0  0  0  0  0
    5.8178    0.2072    1.3640 H   0  0  0  0  0  0  0  0  0  0  0  0
    3.7129    1.3829    1.2938 H   0  0  0  0  0  0  0  0  0  0  0  0
    1.9453   -0.6969   -1.2955 H   0  0  0  0  0  0  0  0  0  0  0  0
    0.0689    0.1748   -2.5837 H   0  0  0  0  0  0  0  0  0  0  0  0
   -2.8192    3.2656   -0.9293 H   0  0  0  0  0  0  0  0  0  0  0  0
   -2.6206    0.3909   -1.8728 H   0  0  0  0  0  0  0  0  0  0  0  0
   -2.4026    0.8965   -0.1875 H   0  0  0  0  0  0  0  0  0  0  0  0
   -4.7747    1.7618   -0.1664 H   0  0  0  0  0  0  0  0  0  0  0  0
   -4.9787    1.2668   -1.8299 H   0  0  0  0  0  0  0  0  0  0  0  0
   -5.0036   -1.1718   -2.4490 H   0  0  0  0  0  0  0  0  0  0  0  0
   -5.6242   -3.4389   -1.6959 H   0  0  0  0  0  0  0  0  0  0  0  0
   -5.8242   -3.9406    0.7249 H   0  0  0  0  0  0  0  0  0  0  0  0
   -5.3988   -2.1615    2.3987 H   0  0  0  0  0  0  0  0  0  0  0  0
   -4.7763    0.1120    1.6673 H   0  0  0  0  0  0  0  0  0  0  0  0
    0.3579    3.9434   -0.4961 H   0  0  0  0  0  0  0  0  0  0  0  0
    2.2522    3.0756    0.8033 H   0  0  0  0  0  0  0  0  0  0  0  0
  1  2  2  0
  2  3  1  0
  2  4  1  0
  4  5  1  0
  5  6  1  0
  6  7  2  0
  6  8  1  0
  8  9  1  0
  9 10  2  0
 10 11  1  0
 11 12  2  0
 12 13  1  0
 13 14  2  0
 13 15  2  0
 13 16  1  0
 16 17  1  0
 17 18  1  0
 18 19  1  0
 19 20  2  0
 20 21  1  0
 21 22  2  0
 22 23  1  0
 23 24  2  0
 12 25  1  0
 25 26  2  0
 26  9  1  0
 24 19  1  0
  3 27  1  0
  4 28  1  0
  4 29  1  0
  5 30  1  0
  5 31  1  0
  8 32  1  0
 10 33  1  0
 11 34  1  0
 16 35  1  0
 17 36  1  0
 17 37  1  0
 18 38  1  0
 18 39  1  0
 20 40  1  0
 21 41  1  0
 22 42  1  0
 23 43  1  0
 24 44  1  0
 25 45  1  0
 26 46  1  0
M  END
$$$$
