
     RDKit          3D

 57 60  0  0  0  0  0  0  0  0999 V2000
    6.0138    2.7136   -0.2280 C   0  0  0  0  0  0  0  0  0  0  0  0
    4.8237    1.9568   -0.4028 O   0  0  0  0  0  0  0  0  0  0  0  0
    4.7902    0.6916    0.1255 C   0  0  0  0  0  0  0  0  0  0  0  0
    5.8781    0.0662    0.7424 C   0  0  0  0  0  0  0  0  0  0  0  0
    5.7429   -1.2117    1.2838 C   0  0  0  0  0  0  0  0  0  0  0  0
    4.5157   -1.8702    1.2247 C   0  0  0  0  0  0  0  0  0  0  0  0
    3.4053   -1.2677    0.6127 C   0  0  0  0  0  0  0  0  0  0  0  0
    2.1280   -2.0501    0.6233 C   0  0  0  0  0  0  0  0  0  0  0  0
    2.1190   -3.2156    1.0086 O   0  0  0  0  0  0  0  0  0  0  0  0
    0.9891   -1.4069    0.2068 N   0  0  0  0  0  0  0  0  0  0  0  0
   -0.3165   -2.0268    0.2569 C   0  0  0  0  0  0  0  0  0  0  0  0
   -0.9279   -1.9926    1.6775 C   0  0  0  0  0  0  0  0  0  0  0  0
   -1.6306   -0.6531    2.0674 C   0  0  0  0  0  0  0  0  0  0  0  0
   -2.2945   -0.8398    3.4471 C   0  0  0  0  0  0  0  0  0  0  0  0
   -0.6154    0.5009    2.1941 C   0  0  0  0  0  0  0  0  0  0  0  0
   -2.7349   -0.2798    1.0292 C   0  0  0  0  0  0  0  0  0  0  0  0
   -2.2855   -0.5347   -0.3721 C   0  0  0  0  0  0  0  0  0  0  0  0
   -1.1942   -1.3152   -0.7111 C   0  0  0  0  0  0  0  0  0  0  0  0
   -1.1155   -1.2360   -2.1038 C   0  0  0  0  0  0  0  0  0  0  0  0
   -2.0623   -0.4572   -2.6195 N   0  0  0  0  0  0  0  0  0  0  0  0
   -2.8370   -0.0719   -1.5615 N   0  0  0  0  0  0  0  0  0  0  0  0
   -4.0210    0.6873   -1.8221 C   0  0  0  0  0  0  0  0  0  0  0  0
   -4.2286    1.1933   -3.1217 C   0  0  0  0  0  0  0  0  0  0  0  0
   -5.3708    1.9383   -3.4339 C   0  0  0  0  0  0  0  0  0  0  0  0
   -6.3256    2.1810   -2.4537 C   0  0  0  0  0  0  0  0  0  0  0  0
   -6.1304    1.6716   -1.1768 C   0  0  0  0  0  0  0  0  0  0  0  0
   -7.0565    1.8932   -0.2343 F   0  0  0  0  0  0  0  0  0  0  0  0
   -4.9964    0.9274   -0.8513 C   0  0  0  0  0  0  0  0  0  0  0  0
    3.5599    0.0056    0.0333 C   0  0  0  0  0  0  0  0  0  0  0  0
    2.4812    0.6172   -0.5695 O   0  0  0  0  0  0  0  0  0  0  0  0
    2.6310    0.6290   -1.9935 C   0  0  0  0  0  0  0  0  0  0  0  0
    6.2518    2.8405    0.8334 H   0  0  0  0  0  0  0  0  0  0  0  0
    5.8417    3.7084   -0.6506 H   0  0  0  0  0  0  0  0  0  0  0  0
    6.8497    2.2599   -0.7701 H   0  0  0  0  0  0  0  0  0  0  0  0
    6.8470    0.5482    0.8220 H   0  0  0  0  0  0  0  0  0  0  0  0
    6.5922   -1.6930    1.7635 H   0  0  0  0  0  0  0  0  0  0  0  0
    4.4264   -2.8616    1.6673 H   0  0  0  0  0  0  0  0  0  0  0  0
    1.0549   -0.4197   -0.0208 H   0  0  0  0  0  0  0  0  0  0  0  0
   -0.2033   -3.0746   -0.0476 H   0  0  0  0  0  0  0  0  0  0  0  0
   -1.6842   -2.7899    1.7267 H   0  0  0  0  0  0  0  0  0  0  0  0
   -0.1672   -2.2502    2.4258 H   0  0  0  0  0  0  0  0  0  0  0  0
   -2.8200    0.0694    3.7600 H   0  0  0  0  0  0  0  0  0  0  0  0
   -3.0260   -1.6554    3.4292 H   0  0  0  0  0  0  0  0  0  0  0  0
   -1.5494   -1.0779    4.2143 H   0  0  0  0  0  0  0  0  0  0  0  0
    0.2282    0.2160    2.8324 H   0  0  0  0  0  0  0  0  0  0  0  0
   -1.0833    1.3857    2.6417 H   0  0  0  0  0  0  0  0  0  0  0  0
   -0.2181    0.8161    1.2259 H   0  0  0  0  0  0  0  0  0  0  0  0
   -3.0108    0.7713    1.1661 H   0  0  0  0  0  0  0  0  0  0  0  0
   -3.6227   -0.8973    1.2150 H   0  0  0  0  0  0  0  0  0  0  0  0
   -0.3930   -1.6963   -2.7659 H   0  0  0  0  0  0  0  0  0  0  0  0
   -3.4975    1.0189   -3.9110 H   0  0  0  0  0  0  0  0  0  0  0  0
   -5.5093    2.3231   -4.4413 H   0  0  0  0  0  0  0  0  0  0  0  0
   -7.2192    2.7553   -2.6752 H   0  0  0  0  0  0  0  0  0  0  0  0
   -4.9486    0.5408    0.1554 H   0  0  0  0  0  0  0  0  0  0  0  0
    2.9980   -0.3315   -2.3735 H   0  0  0  0  0  0  0  0  0  0  0  0
    1.6424    0.8065   -2.4275 H   0  0  0  0  0  0  0  0  0  0  0  0
    3.2862    1.4437   -2.3142 H   0  0  0  0  0  0  0  0  0  0  0  0
  1  2  1  0
  2  3  1  0
  3  4  2  0
  4  5  1  0
  5  6  2  0
  6  7  1  0
  7  8  1  0
  8  9  2  0
  8 10  1  0
 10 11  1  0
 11 12  1  0
 12 13  1  0
 13 14  1  0
 13 15  1  0
 13 16  1  0
 16 17  1  0
 17 18  2  0
 18 19  1  0
 19 20  2  0
 20 21  1  0
 21 22  1  0
 22 23  2  0
 23 24  1  0
 24 25  2  0
 25 26  1  0
 26 27  1  0
 26 28  2  0
  7 29  2  0
 29 30  1  0
 30 31  1  0
 29  3  1  0
 18 11  1  0
 28 22  1  0
 21 17  1  0
  1 32  1  0
  1 33  1  0
  1 34  1  0
  4 35  1  0
  5 36  1  0
  6 37  1  0
 10 38  1  0
 11 39  1  0
 12 40  1  0
 12 41  1  0
 14 42  1  0
 14 43  1  0
 14 44  1  0
 15 45  1  0
 15 46  1  0
 15 47  1  0
 16 48  1  0
 16 49  1  0
 19 50  1  0
 23 51  1  0
 24 52  1  0
 25 53  1  0
 28 54  1  0
 31 55  1  0
 31 56  1  0
 31 57  1  0
M  END
$$$$
