
     RDKit          3D

 42 45  0  0  0  0  0  0  0  0999 V2000
   -3.6458    3.0346    1.1258 C   0  0  0  0  0  0  0  0  0  0  0  0
   -2.3423    2.3437    0.8508 C   0  0  0  0  0  0  0  0  0  0  0  0
   -1.2768    2.4552    1.7615 C   0  0  0  0  0  0  0  0  0  0  0  0
   -0.0417    1.8457    1.5088 C   0  0  0  0  0  0  0  0  0  0  0  0
    0.1158    1.1102    0.3453 C   0  0  0  0  0  0  0  0  0  0  0  0
   -0.9218    1.0416   -0.5853 C   0  0  0  0  0  0  0  0  0  0  0  0
   -2.1513    1.6460   -0.3472 C   0  0  0  0  0  0  0  0  0  0  0  0
   -0.5009    0.3039   -1.8286 C   0  0  0  0  0  0  0  0  0  0  0  0
   -1.2552   -1.0186   -2.0569 C   0  0  0  0  0  0  0  0  0  0  0  0
   -0.8103   -2.0597   -1.1281 N   0  0  0  0  0  0  0  0  0  0  0  0
   -1.6565   -3.2465   -1.1831 C   0  0  0  0  0  0  0  0  0  0  0  0
    0.6093   -2.3990   -1.2767 C   0  0  0  0  0  0  0  0  0  0  0  0
    1.4548   -1.3129   -1.9491 C   0  0  0  0  0  0  0  0  0  0  0  0
    1.0143    0.1027   -1.5704 C   0  0  0  0  0  0  0  0  0  0  0  0
    1.2522    0.4355   -0.1474 N   0  0  0  0  0  0  0  0  0  0  0  0
    2.5250    0.3858    0.4109 C   0  0  0  0  0  0  0  0  0  0  0  0
    3.5236    0.4333   -0.3112 O   0  0  0  0  0  0  0  0  0  0  0  0
    2.6260    0.1419    1.8394 C   0  0  0  0  0  0  0  0  0  0  0  0
    1.8204   -0.5490    2.7306 C   0  0  0  0  0  0  0  0  0  0  0  0
    2.4565   -0.4853    3.9941 C   0  0  0  0  0  0  0  0  0  0  0  0
    3.6198    0.2217    3.8004 C   0  0  0  0  0  0  0  0  0  0  0  0
    4.8987    0.6220    5.1502 Br  0  0  0  0  0  0  0  0  0  0  0  0
    3.7368    0.5964    2.5003 O   0  0  0  0  0  0  0  0  0  0  0  0
   -4.4782    2.4982    0.6584 H   0  0  0  0  0  0  0  0  0  0  0  0
   -3.6179    4.0559    0.7338 H   0  0  0  0  0  0  0  0  0  0  0  0
   -3.8475    3.0727    2.2015 H   0  0  0  0  0  0  0  0  0  0  0  0
   -1.4012    3.0330    2.6755 H   0  0  0  0  0  0  0  0  0  0  0  0
    0.7622    1.9939    2.2195 H   0  0  0  0  0  0  0  0  0  0  0  0
   -2.9460    1.5851   -1.0850 H   0  0  0  0  0  0  0  0  0  0  0  0
   -0.6409    0.9552   -2.7003 H   0  0  0  0  0  0  0  0  0  0  0  0
   -1.1055   -1.3523   -3.0925 H   0  0  0  0  0  0  0  0  0  0  0  0
   -2.3318   -0.8426   -1.9384 H   0  0  0  0  0  0  0  0  0  0  0  0
   -1.3389   -3.9814   -0.4350 H   0  0  0  0  0  0  0  0  0  0  0  0
   -1.6320   -3.7227   -2.1697 H   0  0  0  0  0  0  0  0  0  0  0  0
   -2.6960   -2.9906   -0.9502 H   0  0  0  0  0  0  0  0  0  0  0  0
    0.7406   -3.3205   -1.8591 H   0  0  0  0  0  0  0  0  0  0  0  0
    1.0119   -2.6026   -0.2772 H   0  0  0  0  0  0  0  0  0  0  0  0
    2.5110   -1.4823   -1.7135 H   0  0  0  0  0  0  0  0  0  0  0  0
    1.3651   -1.4202   -3.0385 H   0  0  0  0  0  0  0  0  0  0  0  0
    1.5933    0.8259   -2.1613 H   0  0  0  0  0  0  0  0  0  0  0  0
    0.8883   -1.0422    2.4863 H   0  0  0  0  0  0  0  0  0  0  0  0
    2.1129   -0.9117    4.9260 H   0  0  0  0  0  0  0  0  0  0  0  0
  1  2  1  0
  2  3  2  0
  3  4  1  0
  4  5  2  0
  5  6  1  0
  6  7  2  0
  6  8  1  0
  8  9  1  0
  9 10  1  0
 10 11  1  0
 10 12  1  0
 12 13  1  0
 13 14  1  0
 14 15  1  0
 15 16  1  0
 16 17  2  0
 16 18  1  0
 18 19  2  0
 19 20  1  0
 20 21  2  0
 21 22  1  0
 21 23  1  0
  7  2  1  0
 14  8  1  0
 23 18  1  0
 15  5  1  0
  1 24  1  0
  1 25  1  0
  1 26  1  0
  3 27  1  0
  4 28  1  0
  7 29  1  0
  8 30  1  0
  9 31  1  0
  9 32  1  0
 11 33  1  0
 11 34  1  0
 11 35  1  0
 12 36  1  0
 12 37  1  0
 13 38  1  0
 13 39  1  0
 14 40  1  0
 19 41  1  0
 20 42  1  0
M  END
$$$$
