
     RDKit          3D

 63 68  0  0  0  0  0  0  0  0999 V2000
   -1.6726    3.4110    4.7977 C   0  0  0  0  0  0  0  0  0  0  0  0
   -1.6079    2.0093    4.5689 O   0  0  0  0  0  0  0  0  0  0  0  0
   -1.7017    1.5916    3.2697 C   0  0  0  0  0  0  0  0  0  0  0  0
   -1.8567    2.4112    2.1528 C   0  0  0  0  0  0  0  0  0  0  0  0
   -1.9362    1.8502    0.8727 C   0  0  0  0  0  0  0  0  0  0  0  0
   -1.8636    0.4613    0.6858 C   0  0  0  0  0  0  0  0  0  0  0  0
   -1.9374   -0.1272   -0.7268 C   0  0  0  0  0  0  0  0  0  0  0  0
   -3.0659   -1.1357   -0.8526 C   0  0  0  0  0  0  0  0  0  0  0  0
   -4.4036   -0.7257   -0.8015 C   0  0  0  0  0  0  0  0  0  0  0  0
   -5.4320   -1.6645   -0.8853 C   0  0  0  0  0  0  0  0  0  0  0  0
   -5.1500   -3.0322   -1.0181 C   0  0  0  0  0  0  0  0  0  0  0  0
   -6.1887   -3.9749   -1.0966 C   0  0  0  0  0  0  0  0  0  0  0  0
   -5.9131   -5.3360   -1.2280 C   0  0  0  0  0  0  0  0  0  0  0  0
   -4.5951   -5.7732   -1.2829 C   0  0  0  0  0  0  0  0  0  0  0  0
   -3.5520   -4.8487   -1.2063 C   0  0  0  0  0  0  0  0  0  0  0  0
   -3.8043   -3.4661   -1.0723 C   0  0  0  0  0  0  0  0  0  0  0  0
   -2.7747   -2.4986   -0.9939 C   0  0  0  0  0  0  0  0  0  0  0  0
   -1.4720   -2.9511   -1.0494 O   0  0  0  0  0  0  0  0  0  0  0  0
   -0.4341   -2.0505   -1.2747 C   0  0  0  0  0  0  0  0  0  0  0  0
    0.7728   -2.6438   -1.5946 N   0  0  0  0  0  0  0  0  0  0  0  0
    1.7661   -1.8461   -1.8115 C   0  0  0  0  0  0  0  0  0  0  0  0
    1.7288   -0.4704   -1.7833 N   0  0  0  0  0  0  0  0  0  0  0  0
    2.9840    0.2697   -1.9378 C   0  0  0  0  0  0  0  0  0  0  0  0
    3.5425    0.6734   -0.5569 C   0  0  0  0  0  0  0  0  0  0  0  0
    4.8595    1.3370   -0.6249 N   0  0  0  0  0  0  0  0  0  0  0  0
    5.4455    1.4304    0.7354 C   0  0  0  0  0  0  0  0  0  0  0  0
    6.7892    2.1757    0.7243 C   0  0  0  0  0  0  0  0  0  0  0  0
    6.6415    3.4953    0.1856 O   0  0  0  0  0  0  0  0  0  0  0  0
    6.1259    3.4246   -1.1485 C   0  0  0  0  0  0  0  0  0  0  0  0
    4.7659    2.7063   -1.1823 C   0  0  0  0  0  0  0  0  0  0  0  0
    0.5295    0.1631   -1.4902 C   0  0  0  0  0  0  0  0  0  0  0  0
    0.3311    1.4457   -1.5038 N   0  0  0  0  0  0  0  0  0  0  0  0
   -0.6271   -0.7213   -1.1517 C   0  0  0  0  0  0  0  0  0  0  0  0
   -1.7034   -0.3542    1.8170 C   0  0  0  0  0  0  0  0  0  0  0  0
   -1.6265    0.2091    3.0934 C   0  0  0  0  0  0  0  0  0  0  0  0
   -0.8393    3.9291    4.3116 H   0  0  0  0  0  0  0  0  0  0  0  0
   -2.6358    3.8202    4.4755 H   0  0  0  0  0  0  0  0  0  0  0  0
   -1.5841    3.5780    5.8755 H   0  0  0  0  0  0  0  0  0  0  0  0
   -1.9130    3.4908    2.2375 H   0  0  0  0  0  0  0  0  0  0  0  0
   -2.0372    2.5105    0.0130 H   0  0  0  0  0  0  0  0  0  0  0  0
   -2.1840    0.6737   -1.4388 H   0  0  0  0  0  0  0  0  0  0  0  0
   -4.6515    0.3272   -0.6837 H   0  0  0  0  0  0  0  0  0  0  0  0
   -6.4623   -1.3176   -0.8388 H   0  0  0  0  0  0  0  0  0  0  0  0
   -7.2271   -3.6534   -1.0553 H   0  0  0  0  0  0  0  0  0  0  0  0
   -6.7279   -6.0525   -1.2871 H   0  0  0  0  0  0  0  0  0  0  0  0
   -4.3740   -6.8322   -1.3856 H   0  0  0  0  0  0  0  0  0  0  0  0
   -2.5275   -5.2145   -1.2528 H   0  0  0  0  0  0  0  0  0  0  0  0
    2.7561   -2.2707   -2.0487 H   0  0  0  0  0  0  0  0  0  0  0  0
    3.7272   -0.3442   -2.4633 H   0  0  0  0  0  0  0  0  0  0  0  0
    2.8261    1.1428   -2.5794 H   0  0  0  0  0  0  0  0  0  0  0  0
    2.8197    1.3012   -0.0198 H   0  0  0  0  0  0  0  0  0  0  0  0
    3.6438   -0.2490    0.0314 H   0  0  0  0  0  0  0  0  0  0  0  0
    4.7521    1.9588    1.4032 H   0  0  0  0  0  0  0  0  0  0  0  0
    5.6072    0.4248    1.1404 H   0  0  0  0  0  0  0  0  0  0  0  0
    7.1653    2.2764    1.7474 H   0  0  0  0  0  0  0  0  0  0  0  0
    7.5429    1.6292    0.1445 H   0  0  0  0  0  0  0  0  0  0  0  0
    6.8565    2.9220   -1.7938 H   0  0  0  0  0  0  0  0  0  0  0  0
    6.0110    4.4502   -1.5134 H   0  0  0  0  0  0  0  0  0  0  0  0
    4.4262    2.6724   -2.2224 H   0  0  0  0  0  0  0  0  0  0  0  0
    4.0398    3.2946   -0.6060 H   0  0  0  0  0  0  0  0  0  0  0  0
    1.1697    1.9613   -1.7604 H   0  0  0  0  0  0  0  0  0  0  0  0
   -1.6385   -1.4358    1.7171 H   0  0  0  0  0  0  0  0  0  0  0  0
   -1.5054   -0.4382    3.9586 H   0  0  0  0  0  0  0  0  0  0  0  0
  1  2  1  0
  2  3  1  0
  3  4  2  0
  4  5  1  0
  5  6  2  0
  6  7  1  0
  7  8  1  0
  8  9  2  0
  9 10  1  0
 10 11  2  0
 11 12  1  0
 12 13  2  0
 13 14  1  0
 14 15  2  0
 15 16  1  0
 16 17  2  0
 17 18  1  0
 18 19  1  0
 19 20  1  0
 20 21  2  0
 21 22  1  0
 22 23  1  0
 23 24  1  0
 24 25  1  0
 25 26  1  0
 26 27  1  0
 27 28  1  0
 28 29  1  0
 29 30  1  0
 22 31  1  0
 31 32  2  3
 31 33  1  0
  6 34  1  0
 34 35  2  0
 35  3  1  0
 33  7  1  0
 17  8  1  0
 33 19  2  0
 16 11  1  0
 30 25  1  0
  1 36  1  0
  1 37  1  0
  1 38  1  0
  4 39  1  0
  5 40  1  0
  7 41  1  0
  9 42  1  0
 10 43  1  0
 12 44  1  0
 13 45  1  0
 14 46  1  0
 15 47  1  0
 21 48  1  0
 23 49  1  0
 23 50  1  0
 24 51  1  0
 24 52  1  0
 26 53  1  0
 26 54  1  0
 27 55  1  0
 27 56  1  0
 29 57  1  0
 29 58  1  0
 30 59  1  0
 30 60  1  0
 32 61  1  0
 34 62  1  0
 35 63  1  0
M  END
$$$$
