
     RDKit          3D

 44 46  0  0  0  0  0  0  0  0999 V2000
    3.1187    3.3112   -3.8707 C   0  0  0  0  0  0  0  0  0  0  0  0
    2.8050    3.2530   -2.4457 N   0  0  0  0  0  0  0  0  0  0  0  0
    1.3487    3.2269   -2.2024 C   0  0  0  0  0  0  0  0  0  0  0  0
    0.7485    1.8340   -1.9025 C   0  0  0  0  0  0  0  0  0  0  0  0
    1.3938    1.1923   -0.7292 N   0  0  0  0  0  0  0  0  0  0  0  0
    0.6852    0.3720    0.1694 C   0  0  0  0  0  0  0  0  0  0  0  0
   -0.4644   -0.2568   -0.1582 C   0  0  0  0  0  0  0  0  0  0  0  0
   -1.2721   -1.0458    0.7598 C   0  0  0  0  0  0  0  0  0  0  0  0
   -2.3217   -1.7641    0.3169 C   0  0  0  0  0  0  0  0  0  0  0  0
   -3.1937   -2.5597    1.1893 C   0  0  0  0  0  0  0  0  0  0  0  0
   -4.1583   -3.3885    0.7135 C   0  0  0  0  0  0  0  0  0  0  0  0
   -4.3901   -3.5666   -0.6827 C   0  0  0  0  0  0  0  0  0  0  0  0
   -4.5720   -3.7007   -1.8213 N   0  0  0  0  0  0  0  0  0  0  0  0
   -5.0072   -4.1245    1.5920 C   0  0  0  0  0  0  0  0  0  0  0  0
   -5.6924   -4.7167    2.3179 N   0  0  0  0  0  0  0  0  0  0  0  0
   -2.9374   -2.3666    2.6793 C   0  0  0  0  0  0  0  0  0  0  0  0
   -1.4508   -2.1989    2.9892 C   0  0  0  0  0  0  0  0  0  0  0  0
   -0.8701   -1.0083    2.2172 C   0  0  0  0  0  0  0  0  0  0  0  0
    0.6520   -0.9748    2.3516 C   0  0  0  0  0  0  0  0  0  0  0  0
    1.2482    0.2029    1.5767 C   0  0  0  0  0  0  0  0  0  0  0  0
    2.7946    1.6241   -0.5047 C   0  0  0  0  0  0  0  0  0  0  0  0
    3.4655    2.0913   -1.8162 C   0  0  0  0  0  0  0  0  0  0  0  0
    2.7110    4.2256   -4.3157 H   0  0  0  0  0  0  0  0  0  0  0  0
    2.7162    2.4520   -4.4193 H   0  0  0  0  0  0  0  0  0  0  0  0
    4.2030    3.3439   -4.0252 H   0  0  0  0  0  0  0  0  0  0  0  0
    0.7993    3.6918   -3.0305 H   0  0  0  0  0  0  0  0  0  0  0  0
    1.1619    3.8679   -1.3305 H   0  0  0  0  0  0  0  0  0  0  0  0
   -0.3233    1.9761   -1.7210 H   0  0  0  0  0  0  0  0  0  0  0  0
    0.8569    1.1778   -2.7742 H   0  0  0  0  0  0  0  0  0  0  0  0
   -0.8366   -0.1834   -1.1764 H   0  0  0  0  0  0  0  0  0  0  0  0
   -2.5364   -1.7563   -0.7513 H   0  0  0  0  0  0  0  0  0  0  0  0
   -3.4838   -1.4761    3.0169 H   0  0  0  0  0  0  0  0  0  0  0  0
   -3.3061   -3.2105    3.2718 H   0  0  0  0  0  0  0  0  0  0  0  0
   -1.3143   -2.0447    4.0664 H   0  0  0  0  0  0  0  0  0  0  0  0
   -0.9174   -3.1238    2.7309 H   0  0  0  0  0  0  0  0  0  0  0  0
   -1.2777   -0.0838    2.6515 H   0  0  0  0  0  0  0  0  0  0  0  0
    0.9409   -0.8984    3.4069 H   0  0  0  0  0  0  0  0  0  0  0  0
    1.0858   -1.9107    1.9732 H   0  0  0  0  0  0  0  0  0  0  0  0
    2.3308    0.0464    1.5552 H   0  0  0  0  0  0  0  0  0  0  0  0
    1.0685    1.1331    2.1308 H   0  0  0  0  0  0  0  0  0  0  0  0
    2.8156    2.4270    0.2418 H   0  0  0  0  0  0  0  0  0  0  0  0
    3.3889    0.7864   -0.1238 H   0  0  0  0  0  0  0  0  0  0  0  0
    4.5100    2.3521   -1.6099 H   0  0  0  0  0  0  0  0  0  0  0  0
    3.4768    1.2361   -2.5065 H   0  0  0  0  0  0  0  0  0  0  0  0
  1  2  1  0
  2  3  1  0
  3  4  1  0
  4  5  1  0
  5  6  1  0
  6  7  2  0
  7  8  1  0
  8  9  2  0
  9 10  1  0
 10 11  2  3
 11 12  1  0
 12 13  3  0
 11 14  1  0
 14 15  3  0
 10 16  1  0
 16 17  1  0
 17 18  1  0
 18 19  1  0
 19 20  1  0
  5 21  1  0
 21 22  1  0
 22  2  1  0
 20  6  1  0
 18  8  1  0
  1 23  1  0
  1 24  1  0
  1 25  1  0
  3 26  1  0
  3 27  1  0
  4 28  1  0
  4 29  1  0
  7 30  1  0
  9 31  1  0
 16 32  1  0
 16 33  1  0
 17 34  1  0
 17 35  1  0
 18 36  1  0
 19 37  1  0
 19 38  1  0
 20 39  1  0
 20 40  1  0
 21 41  1  0
 21 42  1  0
 22 43  1  0
 22 44  1  0
M  END
$$$$
