
     RDKit          3D

 50 52  0  0  0  0  0  0  0  0999 V2000
   -3.8922   -2.9923    0.3811 C   0  0  0  0  0  0  0  0  0  0  0  0
   -2.6503   -2.2299   -0.0687 C   0  0  0  0  0  0  0  0  0  0  0  0
   -2.5748   -0.7799    0.4574 C   0  0  0  0  0  0  0  0  0  0  0  0
   -3.7208    0.1128   -0.0156 C   0  0  0  0  0  0  0  0  0  0  0  0
   -3.9210    0.3351   -1.3915 C   0  0  0  0  0  0  0  0  0  0  0  0
   -4.9643    1.1418   -1.8508 C   0  0  0  0  0  0  0  0  0  0  0  0
   -5.8325    1.7414   -0.9448 C   0  0  0  0  0  0  0  0  0  0  0  0
   -5.6571    1.5349    0.4197 C   0  0  0  0  0  0  0  0  0  0  0  0
   -4.6118    0.7296    0.8809 C   0  0  0  0  0  0  0  0  0  0  0  0
   -2.4058   -0.7717    1.8996 N   0  0  0  0  0  0  0  0  0  0  0  0
   -1.1644   -0.3409    2.2936 C   0  0  0  0  0  0  0  0  0  0  0  0
   -0.7867   -0.3246    3.4532 O   0  0  0  0  0  0  0  0  0  0  0  0
   -0.4717    0.0492    1.1965 N   0  0  0  0  0  0  0  0  0  0  0  0
    0.9117    0.4605    1.2055 C   0  0  0  0  0  0  0  0  0  0  0  0
    1.8141   -0.7713    1.0356 C   0  0  0  0  0  0  0  0  0  0  0  0
    1.3375   -1.9091    0.9854 O   0  0  0  0  0  0  0  0  0  0  0  0
    3.1877   -0.5491    0.9542 N   0  0  0  0  0  0  0  0  0  0  0  0
    4.0648   -1.6982    0.7740 C   0  0  0  0  0  0  0  0  0  0  0  0
    3.8094    0.7712    0.8372 C   0  0  0  0  0  0  0  0  0  0  0  0
    4.2661    1.1107   -0.5640 C   0  0  0  0  0  0  0  0  0  0  0  0
    5.5334    1.6811   -0.7622 C   0  0  0  0  0  0  0  0  0  0  0  0
    5.9655    2.0308   -2.0432 C   0  0  0  0  0  0  0  0  0  0  0  0
    5.1357    1.8207   -3.1416 C   0  0  0  0  0  0  0  0  0  0  0  0
    3.8719    1.2660   -2.9596 C   0  0  0  0  0  0  0  0  0  0  0  0
    3.4368    0.9170   -1.6793 C   0  0  0  0  0  0  0  0  0  0  0  0
   -1.1930   -0.1873    0.0600 C   0  0  0  0  0  0  0  0  0  0  0  0
   -0.7919    0.0113   -1.0818 O   0  0  0  0  0  0  0  0  0  0  0  0
   -3.9449   -3.0656    1.4711 H   0  0  0  0  0  0  0  0  0  0  0  0
   -4.8088   -2.5161    0.0214 H   0  0  0  0  0  0  0  0  0  0  0  0
   -3.8690   -4.0107   -0.0198 H   0  0  0  0  0  0  0  0  0  0  0  0
   -2.6138   -2.2405   -1.1654 H   0  0  0  0  0  0  0  0  0  0  0  0
   -1.7663   -2.7914    0.2637 H   0  0  0  0  0  0  0  0  0  0  0  0
   -3.2527   -0.1108   -2.1274 H   0  0  0  0  0  0  0  0  0  0  0  0
   -5.0914    1.3071   -2.9173 H   0  0  0  0  0  0  0  0  0  0  0  0
   -6.6425    2.3716   -1.3013 H   0  0  0  0  0  0  0  0  0  0  0  0
   -6.3318    2.0062    1.1302 H   0  0  0  0  0  0  0  0  0  0  0  0
   -4.5068    0.6023    1.9554 H   0  0  0  0  0  0  0  0  0  0  0  0
   -3.0441   -1.1809    2.5666 H   0  0  0  0  0  0  0  0  0  0  0  0
    1.1401    0.9388    2.1629 H   0  0  0  0  0  0  0  0  0  0  0  0
    1.0708    1.1536    0.3753 H   0  0  0  0  0  0  0  0  0  0  0  0
    4.9728   -1.5566    1.3679 H   0  0  0  0  0  0  0  0  0  0  0  0
    3.5851   -2.6276    1.0931 H   0  0  0  0  0  0  0  0  0  0  0  0
    4.3272   -1.7854   -0.2845 H   0  0  0  0  0  0  0  0  0  0  0  0
    3.1347    1.5608    1.1783 H   0  0  0  0  0  0  0  0  0  0  0  0
    4.6618    0.7779    1.5277 H   0  0  0  0  0  0  0  0  0  0  0  0
    6.1978    1.8576    0.0811 H   0  0  0  0  0  0  0  0  0  0  0  0
    6.9497    2.4692   -2.1838 H   0  0  0  0  0  0  0  0  0  0  0  0
    5.4715    2.0926   -4.1388 H   0  0  0  0  0  0  0  0  0  0  0  0
    3.2203    1.1037   -3.8147 H   0  0  0  0  0  0  0  0  0  0  0  0
    2.4441    0.4844   -1.5708 H   0  0  0  0  0  0  0  0  0  0  0  0
  1  2  1  0
  2  3  1  0
  3  4  1  0
  4  5  2  0
  5  6  1  0
  6  7  2  0
  7  8  1  0
  8  9  2  0
  3 10  1  0
 10 11  1  0
 11 12  2  0
 11 13  1  0
 13 14  1  0
 14 15  1  0
 15 16  2  0
 15 17  1  0
 17 18  1  0
 17 19  1  0
 19 20  1  0
 20 21  2  0
 21 22  1  0
 22 23  2  0
 23 24  1  0
 24 25  2  0
 13 26  1  0
 26 27  2  0
 26  3  1  0
  9  4  1  0
 25 20  1  0
  1 28  1  0
  1 29  1  0
  1 30  1  0
  2 31  1  0
  2 32  1  0
  5 33  1  0
  6 34  1  0
  7 35  1  0
  8 36  1  0
  9 37  1  0
 10 38  1  0
 14 39  1  0
 14 40  1  0
 18 41  1  0
 18 42  1  0
 18 43  1  0
 19 44  1  0
 19 45  1  0
 21 46  1  0
 22 47  1  0
 23 48  1  0
 24 49  1  0
 25 50  1  0
M  END
$$$$
