
     RDKit          3D

 48 51  0  0  0  0  0  0  0  0999 V2000
    1.2348    0.4872   -2.3844 C   0  0  0  0  0  0  0  0  0  0  0  0
    2.2256    1.1273   -1.4114 C   0  0  0  0  0  0  0  0  0  0  0  0
    2.9372    2.3044   -2.0749 C   0  0  0  0  0  0  0  0  0  0  0  0
    3.2489    0.1018   -0.9027 C   0  0  0  0  0  0  0  0  0  0  0  0
    2.5973   -0.9834   -0.2247 O   0  0  0  0  0  0  0  0  0  0  0  0
    2.3219   -0.7666    1.0787 C   0  0  0  0  0  0  0  0  0  0  0  0
    2.5788    0.2099    1.7627 O   0  0  0  0  0  0  0  0  0  0  0  0
    1.5964   -1.9170    1.6162 C   0  0  0  0  0  0  0  0  0  0  0  0
    2.3728   -2.9680    2.1275 C   0  0  0  0  0  0  0  0  0  0  0  0
    1.7554   -4.1296    2.5886 C   0  0  0  0  0  0  0  0  0  0  0  0
    0.3678   -4.2464    2.5316 C   0  0  0  0  0  0  0  0  0  0  0  0
   -0.4063   -3.1997    2.0235 C   0  0  0  0  0  0  0  0  0  0  0  0
    0.2003   -2.0132    1.5791 C   0  0  0  0  0  0  0  0  0  0  0  0
   -0.6333   -0.9763    1.0660 N   0  0  0  0  0  0  0  0  0  0  0  0
   -1.6837   -1.1983    0.1444 C   0  0  0  0  0  0  0  0  0  0  0  0
   -1.9266   -2.3900   -0.3936 O   0  0  0  0  0  0  0  0  0  0  0  0
   -2.2904    0.0026   -0.0663 C   0  0  0  0  0  0  0  0  0  0  0  0
   -1.6543    0.9695    0.7254 C   0  0  0  0  0  0  0  0  0  0  0  0
   -0.6465    0.3897    1.4383 C   0  0  0  0  0  0  0  0  0  0  0  0
    0.0960    0.9626    2.3820 O   0  0  0  0  0  0  0  0  0  0  0  0
   -2.3600    2.2693    0.5022 C   0  0  0  0  0  0  0  0  0  0  0  0
   -2.0482    2.7324   -0.9446 C   0  0  0  0  0  0  0  0  0  0  0  0
   -2.7540    1.6568   -1.8343 C   0  0  0  0  0  0  0  0  0  0  0  0
   -3.3946    0.6927   -0.8027 C   0  0  0  0  0  0  0  0  0  0  0  0
   -3.8146    1.7377    0.2836 C   0  0  0  0  0  0  0  0  0  0  0  0
    1.7529    0.0480   -3.2448 H   0  0  0  0  0  0  0  0  0  0  0  0
    0.6584   -0.3052   -1.8974 H   0  0  0  0  0  0  0  0  0  0  0  0
    0.5254    1.2303   -2.7636 H   0  0  0  0  0  0  0  0  0  0  0  0
    1.6505    1.5080   -0.5595 H   0  0  0  0  0  0  0  0  0  0  0  0
    2.2166    3.0669   -2.3862 H   0  0  0  0  0  0  0  0  0  0  0  0
    3.4940    1.9847   -2.9613 H   0  0  0  0  0  0  0  0  0  0  0  0
    3.6423    2.7748   -1.3815 H   0  0  0  0  0  0  0  0  0  0  0  0
    3.8029   -0.3346   -1.7422 H   0  0  0  0  0  0  0  0  0  0  0  0
    3.9935    0.5712   -0.2466 H   0  0  0  0  0  0  0  0  0  0  0  0
    3.4577   -2.8880    2.1534 H   0  0  0  0  0  0  0  0  0  0  0  0
    2.3546   -4.9472    2.9815 H   0  0  0  0  0  0  0  0  0  0  0  0
   -0.1171   -5.1547    2.8830 H   0  0  0  0  0  0  0  0  0  0  0  0
   -1.4889   -3.3148    1.9997 H   0  0  0  0  0  0  0  0  0  0  0  0
   -2.6586   -2.2713   -1.0244 H   0  0  0  0  0  0  0  0  0  0  0  0
    0.9808    0.5545    2.4451 H   0  0  0  0  0  0  0  0  0  0  0  0
   -2.2408    3.0213    1.2817 H   0  0  0  0  0  0  0  0  0  0  0  0
   -0.9731    2.7762   -1.1493 H   0  0  0  0  0  0  0  0  0  0  0  0
   -2.4810    3.7193   -1.1414 H   0  0  0  0  0  0  0  0  0  0  0  0
   -2.0397    1.1518   -2.4934 H   0  0  0  0  0  0  0  0  0  0  0  0
   -3.5220    2.1337   -2.4533 H   0  0  0  0  0  0  0  0  0  0  0  0
   -4.1927    0.0526   -1.1777 H   0  0  0  0  0  0  0  0  0  0  0  0
   -4.5066    2.5013   -0.0882 H   0  0  0  0  0  0  0  0  0  0  0  0
   -4.2300    1.2660    1.1828 H   0  0  0  0  0  0  0  0  0  0  0  0
  1  2  1  0
  2  3  1  0
  2  4  1  0
  4  5  1  0
  5  6  1  0
  6  7  2  0
  6  8  1  0
  8  9  2  0
  9 10  1  0
 10 11  2  0
 11 12  1  0
 12 13  2  0
 13 14  1  0
 14 15  1  0
 15 16  1  0
 15 17  2  0
 17 18  1  0
 18 19  2  0
 19 20  1  0
 18 21  1  0
 21 22  1  0
 22 23  1  0
 23 24  1  0
 24 25  1  0
 13  8  1  0
 19 14  1  0
 25 21  1  0
 24 17  1  0
  1 26  1  0
  1 27  1  0
  1 28  1  0
  2 29  1  0
  3 30  1  0
  3 31  1  0
  3 32  1  0
  4 33  1  0
  4 34  1  0
  9 35  1  0
 10 36  1  0
 11 37  1  0
 12 38  1  0
 16 39  1  0
 20 40  1  0
 21 41  1  0
 22 42  1  0
 22 43  1  0
 23 44  1  0
 23 45  1  0
 24 46  1  0
 25 47  1  0
 25 48  1  0
M  END
$$$$
