
     RDKit          3D

 59 62  0  0  0  0  0  0  0  0999 V2000
    0.1272   -0.6986    3.2090 O   0  0  0  0  0  0  0  0  0  0  0  0
    0.3094   -1.4967    2.2850 C   0  0  0  0  0  0  0  0  0  0  0  0
   -0.8525   -1.8413    1.3411 C   0  0  0  0  0  0  0  0  0  0  0  0
   -0.7143   -1.1549    0.0358 N   0  0  0  0  0  0  0  0  0  0  0  0
   -1.7650   -1.6103   -0.9080 C   0  0  0  0  0  0  0  0  0  0  0  0
   -3.1958   -1.0895   -0.6203 C   0  0  0  0  0  0  0  0  0  0  0  0
   -3.1867    0.3849   -0.5284 N   0  0  0  0  0  0  0  0  0  0  0  0
   -4.4913    0.8879   -0.3370 C   0  0  0  0  0  0  0  0  0  0  0  0
   -4.8804    1.2188    0.9199 N   0  0  0  0  0  0  0  0  0  0  0  0
   -6.1342    1.6932    1.1117 C   0  0  0  0  0  0  0  0  0  0  0  0
   -7.0629    1.8642    0.0995 C   0  0  0  0  0  0  0  0  0  0  0  0
   -8.4200    2.4075    0.4168 C   0  0  0  0  0  0  0  0  0  0  0  0
   -9.0181    1.7516    1.4490 F   0  0  0  0  0  0  0  0  0  0  0  0
   -8.3839    3.7193    0.7767 F   0  0  0  0  0  0  0  0  0  0  0  0
   -9.2900    2.3294   -0.6277 F   0  0  0  0  0  0  0  0  0  0  0  0
   -6.6621    1.5360   -1.1964 C   0  0  0  0  0  0  0  0  0  0  0  0
   -5.3732    1.0460   -1.4220 C   0  0  0  0  0  0  0  0  0  0  0  0
   -4.9193    0.7019   -3.0555 Cl  0  0  0  0  0  0  0  0  0  0  0  0
   -2.2266    0.8693    0.4871 C   0  0  0  0  0  0  0  0  0  0  0  0
   -0.8128    0.3247    0.1663 C   0  0  0  0  0  0  0  0  0  0  0  0
    1.5382   -2.1152    2.0758 N   0  0  0  0  0  0  0  0  0  0  0  0
    2.6813   -1.6513    2.8711 C   0  0  0  0  0  0  0  0  0  0  0  0
    3.4963   -0.6075    2.0783 C   0  0  0  0  0  0  0  0  0  0  0  0
    3.9265   -1.1938    0.7793 N   0  0  0  0  0  0  0  0  0  0  0  0
    4.7439   -0.3184    0.0307 C   0  0  0  0  0  0  0  0  0  0  0  0
    4.6347    1.0163    0.2496 N   0  0  0  0  0  0  0  0  0  0  0  0
    5.4111    1.8628   -0.4679 C   0  0  0  0  0  0  0  0  0  0  0  0
    6.3220    1.4558   -1.4269 C   0  0  0  0  0  0  0  0  0  0  0  0
    7.1620    2.4592   -2.1514 C   0  0  0  0  0  0  0  0  0  0  0  0
    7.4870    2.0665   -3.4144 F   0  0  0  0  0  0  0  0  0  0  0  0
    6.5551    3.6702   -2.2833 F   0  0  0  0  0  0  0  0  0  0  0  0
    8.3424    2.6977   -1.5184 F   0  0  0  0  0  0  0  0  0  0  0  0
    6.4512    0.0823   -1.6421 C   0  0  0  0  0  0  0  0  0  0  0  0
    5.6635   -0.8125   -0.9140 C   0  0  0  0  0  0  0  0  0  0  0  0
    5.9157   -2.5024   -1.1833 Cl  0  0  0  0  0  0  0  0  0  0  0  0
    2.7677   -1.6610   -0.0299 C   0  0  0  0  0  0  0  0  0  0  0  0
    1.9472   -2.6876    0.7846 C   0  0  0  0  0  0  0  0  0  0  0  0
   -1.7888   -1.5885    1.8516 H   0  0  0  0  0  0  0  0  0  0  0  0
   -0.8619   -2.9303    1.2102 H   0  0  0  0  0  0  0  0  0  0  0  0
   -1.4716   -1.2754   -1.9120 H   0  0  0  0  0  0  0  0  0  0  0  0
   -1.7756   -2.7061   -0.9554 H   0  0  0  0  0  0  0  0  0  0  0  0
   -3.8486   -1.4342   -1.4301 H   0  0  0  0  0  0  0  0  0  0  0  0
   -3.5735   -1.5305    0.3114 H   0  0  0  0  0  0  0  0  0  0  0  0
   -6.3707    1.9381    2.1462 H   0  0  0  0  0  0  0  0  0  0  0  0
   -7.3470    1.6676   -2.0317 H   0  0  0  0  0  0  0  0  0  0  0  0
   -2.1870    1.9656    0.4681 H   0  0  0  0  0  0  0  0  0  0  0  0
   -2.5161    0.5576    1.4982 H   0  0  0  0  0  0  0  0  0  0  0  0
   -0.0954    0.7007    0.9040 H   0  0  0  0  0  0  0  0  0  0  0  0
   -0.4890    0.7553   -0.7911 H   0  0  0  0  0  0  0  0  0  0  0  0
    2.3522   -1.2286    3.8258 H   0  0  0  0  0  0  0  0  0  0  0  0
    3.3029   -2.5276    3.0926 H   0  0  0  0  0  0  0  0  0  0  0  0
    4.3734   -0.3224    2.6714 H   0  0  0  0  0  0  0  0  0  0  0  0
    2.8736    0.2831    1.9183 H   0  0  0  0  0  0  0  0  0  0  0  0
    5.2658    2.9156   -0.2313 H   0  0  0  0  0  0  0  0  0  0  0  0
    7.1717   -0.2919   -2.3671 H   0  0  0  0  0  0  0  0  0  0  0  0
    2.1360   -0.8056   -0.2999 H   0  0  0  0  0  0  0  0  0  0  0  0
    3.0926   -2.1425   -0.9581 H   0  0  0  0  0  0  0  0  0  0  0  0
    2.5690   -3.5639    1.0071 H   0  0  0  0  0  0  0  0  0  0  0  0
    1.0949   -3.0408    0.2030 H   0  0  0  0  0  0  0  0  0  0  0  0
  1  2  2  0
  2  3  1  0
  3  4  1  0
  4  5  1  0
  5  6  1  0
  6  7  1  0
  7  8  1  0
  8  9  2  0
  9 10  1  0
 10 11  2  0
 11 12  1  0
 12 13  1  0
 12 14  1  0
 12 15  1  0
 11 16  1  0
 16 17  2  0
 17 18  1  0
  7 19  1  0
 19 20  1  0
  2 21  1  0
 21 22  1  0
 22 23  1  0
 23 24  1  0
 24 25  1  0
 25 26  2  0
 26 27  1  0
 27 28  2  0
 28 29  1  0
 29 30  1  0
 29 31  1  0
 29 32  1  0
 28 33  1  0
 33 34  2  0
 34 35  1  0
 24 36  1  0
 36 37  1  0
 20  4  1  0
 37 21  1  0
 17  8  1  0
 34 25  1  0
  3 38  1  0
  3 39  1  0
  5 40  1  0
  5 41  1  0
  6 42  1  0
  6 43  1  0
 10 44  1  0
 16 45  1  0
 19 46  1  0
 19 47  1  0
 20 48  1  0
 20 49  1  0
 22 50  1  0
 22 51  1  0
 23 52  1  0
 23 53  1  0
 27 54  1  0
 33 55  1  0
 36 56  1  0
 36 57  1  0
 37 58  1  0
 37 59  1  0
M  END
$$$$
