
     RDKit          3D

 51 54  0  0  0  0  0  0  0  0999 V2000
    2.3970    2.4059    1.8235 C   0  0  0  0  0  0  0  0  0  0  0  0
    2.5202    2.1774    0.3128 C   0  0  0  0  0  0  0  0  0  0  0  0
    1.2312    2.5941   -0.4167 C   0  0  0  0  0  0  0  0  0  0  0  0
    0.5985    1.2635   -0.6833 C   0  0  0  0  0  0  0  0  0  0  0  0
   -0.6905    1.0410   -1.1464 C   0  0  0  0  0  0  0  0  0  0  0  0
   -1.0797   -0.2798   -1.3734 C   0  0  0  0  0  0  0  0  0  0  0  0
   -2.7282   -0.5985   -1.9530 S   0  0  0  0  0  6  0  0  0  0  0  0
   -2.9324   -2.0313   -1.9976 O   0  0  0  0  0  0  0  0  0  0  0  0
   -2.9341    0.2309   -3.1208 O   0  0  0  0  0  0  0  0  0  0  0  0
   -3.6945    0.0125   -0.6839 N   0  0  0  0  0  0  0  0  0  0  0  0
   -3.5991   -0.7093    0.6053 C   0  0  0  0  0  0  0  0  0  0  0  0
   -4.1218    0.1994    1.7176 C   0  0  0  0  0  0  0  0  0  0  0  0
   -5.3776    0.9770    1.3169 C   0  0  0  0  0  0  0  0  0  0  0  0
   -6.0528    0.3624    0.0987 C   0  0  0  0  0  0  0  0  0  0  0  0
   -5.1015    0.2886   -1.0975 C   0  0  0  0  0  0  0  0  0  0  0  0
   -0.1917   -1.3433   -1.1536 C   0  0  0  0  0  0  0  0  0  0  0  0
    1.1092   -1.0934   -0.6945 C   0  0  0  0  0  0  0  0  0  0  0  0
    1.5044    0.2152   -0.4681 C   0  0  0  0  0  0  0  0  0  0  0  0
    2.7247    0.7416   -0.0000 N   0  0  0  0  0  0  0  0  0  0  0  0
    3.9751    0.1582    0.1973 C   0  0  0  0  0  0  0  0  0  0  0  0
    4.8830    0.8282    0.7173 O   0  0  0  0  0  0  0  0  0  0  0  0
    4.2374   -1.2920   -0.2859 C   0  0  0  0  0  0  0  0  0  0  0  0
    5.7209   -1.7609   -0.3726 C   0  0  0  0  0  0  0  0  0  0  0  0
    5.5542   -2.3826    1.0239 C   0  0  0  0  0  0  0  0  0  0  0  0
    4.0416   -2.4342    0.7515 C   0  0  0  0  0  0  0  0  0  0  0  0
    3.3089    2.1052    2.3485 H   0  0  0  0  0  0  0  0  0  0  0  0
    2.2211    3.4648    2.0396 H   0  0  0  0  0  0  0  0  0  0  0  0
    1.5692    1.8283    2.2500 H   0  0  0  0  0  0  0  0  0  0  0  0
    3.3732    2.7570   -0.0612 H   0  0  0  0  0  0  0  0  0  0  0  0
    0.5919    3.2517    0.1795 H   0  0  0  0  0  0  0  0  0  0  0  0
    1.4672    3.0782   -1.3709 H   0  0  0  0  0  0  0  0  0  0  0  0
   -1.3739    1.8654   -1.3304 H   0  0  0  0  0  0  0  0  0  0  0  0
   -2.5654   -0.9809    0.8380 H   0  0  0  0  0  0  0  0  0  0  0  0
   -4.1816   -1.6371    0.5587 H   0  0  0  0  0  0  0  0  0  0  0  0
   -4.3262   -0.4100    2.6059 H   0  0  0  0  0  0  0  0  0  0  0  0
   -3.3440    0.9163    2.0091 H   0  0  0  0  0  0  0  0  0  0  0  0
   -5.1027    2.0147    1.0893 H   0  0  0  0  0  0  0  0  0  0  0  0
   -6.0757    1.0180    2.1606 H   0  0  0  0  0  0  0  0  0  0  0  0
   -6.9449    0.9370   -0.1748 H   0  0  0  0  0  0  0  0  0  0  0  0
   -6.4013   -0.6470    0.3523 H   0  0  0  0  0  0  0  0  0  0  0  0
   -5.4636   -0.4767   -1.7932 H   0  0  0  0  0  0  0  0  0  0  0  0
   -5.1082    1.2532   -1.6185 H   0  0  0  0  0  0  0  0  0  0  0  0
   -0.5060   -2.3700   -1.3336 H   0  0  0  0  0  0  0  0  0  0  0  0
    1.7487   -1.9438   -0.5094 H   0  0  0  0  0  0  0  0  0  0  0  0
    3.7528   -1.4774   -1.2525 H   0  0  0  0  0  0  0  0  0  0  0  0
    5.8996   -2.4988   -1.1642 H   0  0  0  0  0  0  0  0  0  0  0  0
    6.4806   -0.9787   -0.4518 H   0  0  0  0  0  0  0  0  0  0  0  0
    6.0429   -3.3482    1.1755 H   0  0  0  0  0  0  0  0  0  0  0  0
    5.8325   -1.7105    1.8434 H   0  0  0  0  0  0  0  0  0  0  0  0
    3.4071   -2.2033    1.6117 H   0  0  0  0  0  0  0  0  0  0  0  0
    3.7043   -3.3778    0.3067 H   0  0  0  0  0  0  0  0  0  0  0  0
  1  2  1  0
  2  3  1  0
  3  4  1  0
  4  5  2  0
  5  6  1  0
  6  7  1  0
  7  8  2  0
  7  9  2  0
  7 10  1  0
 10 11  1  0
 11 12  1  0
 12 13  1  0
 13 14  1  0
 14 15  1  0
  6 16  2  0
 16 17  1  0
 17 18  2  0
 18 19  1  0
 19 20  1  0
 20 21  2  0
 20 22  1  0
 22 23  1  0
 23 24  1  0
 24 25  1  0
 19  2  1  0
 25 22  1  0
 18  4  1  0
 15 10  1  0
  1 26  1  0
  1 27  1  0
  1 28  1  0
  2 29  1  0
  3 30  1  0
  3 31  1  0
  5 32  1  0
 11 33  1  0
 11 34  1  0
 12 35  1  0
 12 36  1  0
 13 37  1  0
 13 38  1  0
 14 39  1  0
 14 40  1  0
 15 41  1  0
 15 42  1  0
 16 43  1  0
 17 44  1  0
 22 45  1  0
 23 46  1  0
 23 47  1  0
 24 48  1  0
 24 49  1  0
 25 50  1  0
 25 51  1  0
M  END
$$$$
