
     RDKit          3D

 34 35  0  0  0  0  0  0  0  0999 V2000
   -0.2407   -0.9263    0.7460 O   0  0  0  0  0  0  0  0  0  0  0  0
   -0.4840   -0.1799   -0.1978 C   0  0  0  0  0  0  0  0  0  0  0  0
    0.5573    0.7619   -0.8019 C   0  0  0  0  0  0  0  0  0  0  0  0
    1.8281    0.5649   -0.1850 O   0  0  0  0  0  0  0  0  0  0  0  0
    2.8004    1.3816   -0.6463 C   0  0  0  0  0  0  0  0  0  0  0  0
    2.6656    2.2363   -1.5059 O   0  0  0  0  0  0  0  0  0  0  0  0
    4.0777    1.0992    0.0434 C   0  0  0  0  0  0  0  0  0  0  0  0
    4.2271    0.1145    1.0256 C   0  0  0  0  0  0  0  0  0  0  0  0
    5.4752   -0.0765    1.6189 C   0  0  0  0  0  0  0  0  0  0  0  0
    6.5245    0.7272    1.2044 C   0  0  0  0  0  0  0  0  0  0  0  0
    8.0881    0.5551    1.8847 Cl  0  0  0  0  0  0  0  0  0  0  0  0
    6.4207    1.6865    0.2615 N   0  0  0  0  0  0  0  0  0  0  0  0
    5.1964    1.8505   -0.2990 C   0  0  0  0  0  0  0  0  0  0  0  0
   -1.7313   -0.0460   -0.8046 N   0  0  0  0  0  0  0  0  0  0  0  0
   -2.8459   -0.8622   -0.4681 C   0  0  0  0  0  0  0  0  0  0  0  0
   -2.7597   -2.2723   -0.4249 C   0  0  0  0  0  0  0  0  0  0  0  0
   -1.3717   -3.1504   -0.9827 Cl  0  0  0  0  0  0  0  0  0  0  0  0
   -3.8699   -3.0446   -0.0645 C   0  0  0  0  0  0  0  0  0  0  0  0
   -5.0844   -2.4355    0.2296 C   0  0  0  0  0  0  0  0  0  0  0  0
   -5.1987   -1.0513    0.1395 C   0  0  0  0  0  0  0  0  0  0  0  0
   -4.0956   -0.2511   -0.2252 C   0  0  0  0  0  0  0  0  0  0  0  0
   -4.2899    1.2431   -0.2529 C   0  0  0  0  0  0  0  0  0  0  0  0
   -4.1334    1.8124    0.9724 F   0  0  0  0  0  0  0  0  0  0  0  0
   -3.4057    1.8852   -1.0738 F   0  0  0  0  0  0  0  0  0  0  0  0
   -5.5255    1.6159   -0.6873 F   0  0  0  0  0  0  0  0  0  0  0  0
    0.2210    1.7922   -0.6370 H   0  0  0  0  0  0  0  0  0  0  0  0
    0.6309    0.5485   -1.8746 H   0  0  0  0  0  0  0  0  0  0  0  0
    3.3883   -0.5054    1.3352 H   0  0  0  0  0  0  0  0  0  0  0  0
    5.6175   -0.8333    2.3825 H   0  0  0  0  0  0  0  0  0  0  0  0
    5.1451    2.6307   -1.0557 H   0  0  0  0  0  0  0  0  0  0  0  0
   -1.9272    0.8861   -1.1633 H   0  0  0  0  0  0  0  0  0  0  0  0
   -3.7959   -4.1297   -0.0353 H   0  0  0  0  0  0  0  0  0  0  0  0
   -5.9441   -3.0402    0.5098 H   0  0  0  0  0  0  0  0  0  0  0  0
   -6.1604   -0.5873    0.3624 H   0  0  0  0  0  0  0  0  0  0  0  0
  1  2  2  0
  2  3  1  0
  3  4  1  0
  4  5  1  0
  5  6  2  0
  5  7  1  0
  7  8  2  0
  8  9  1  0
  9 10  2  0
 10 11  1  0
 10 12  1  0
 12 13  2  0
  2 14  1  0
 14 15  1  0
 15 16  2  0
 16 17  1  0
 16 18  1  0
 18 19  2  0
 19 20  1  0
 20 21  2  0
 21 22  1  0
 22 23  1  0
 22 24  1  0
 22 25  1  0
 13  7  1  0
 21 15  1  0
  3 26  1  0
  3 27  1  0
  8 28  1  0
  9 29  1  0
 13 30  1  0
 14 31  1  0
 18 32  1  0
 19 33  1  0
 20 34  1  0
M  END
$$$$
