
     RDKit          3D

 58 62  0  0  0  0  0  0  0  0999 V2000
   -2.8003    1.1298   -3.9076 C   0  0  0  0  0  0  0  0  0  0  0  0
   -3.1695   -0.2280   -3.6671 O   0  0  0  0  0  0  0  0  0  0  0  0
   -4.2778   -0.3463   -2.8696 C   0  0  0  0  0  0  0  0  0  0  0  0
   -5.4735    0.3068   -3.1889 C   0  0  0  0  0  0  0  0  0  0  0  0
   -6.6035    0.1319   -2.3907 C   0  0  0  0  0  0  0  0  0  0  0  0
   -6.5473   -0.7084   -1.2827 C   0  0  0  0  0  0  0  0  0  0  0  0
   -5.3616   -1.3768   -0.9742 C   0  0  0  0  0  0  0  0  0  0  0  0
   -4.2098   -1.2064   -1.7631 C   0  0  0  0  0  0  0  0  0  0  0  0
   -2.9343   -1.9372   -1.3984 C   0  0  0  0  0  0  0  0  0  0  0  0
   -2.3220   -1.4301   -0.1694 N   0  0  0  0  0  0  0  0  0  0  0  0
   -2.5785   -2.0648    1.0387 C   0  0  0  0  0  0  0  0  0  0  0  0
   -3.2881   -3.0644    1.1401 O   0  0  0  0  0  0  0  0  0  0  0  0
   -1.9628   -1.4990    2.2732 C   0  0  0  0  0  0  0  0  0  0  0  0
   -2.2215   -2.1356    3.4976 C   0  0  0  0  0  0  0  0  0  0  0  0
   -1.6637   -1.6466    4.6756 C   0  0  0  0  0  0  0  0  0  0  0  0
   -0.8437   -0.5239    4.6338 C   0  0  0  0  0  0  0  0  0  0  0  0
   -0.5803    0.1188    3.4190 C   0  0  0  0  0  0  0  0  0  0  0  0
   -1.1423   -0.3606    2.2318 C   0  0  0  0  0  0  0  0  0  0  0  0
   -0.9356    0.2246    0.9627 N   0  0  0  0  0  0  0  0  0  0  0  0
   -0.2356    1.3208    0.4955 C   0  0  0  0  0  0  0  0  0  0  0  0
    0.7068    2.4497    1.4099 S   0  0  0  0  0  0  0  0  0  0  0  0
    2.2838    2.3056    0.5105 C   0  0  0  0  0  0  0  0  0  0  0  0
    2.9478    0.9417    0.7095 C   0  0  0  0  0  0  0  0  0  0  0  0
    2.4042    0.0257    1.3317 O   0  0  0  0  0  0  0  0  0  0  0  0
    4.2210    0.7866    0.1587 N   0  0  0  0  0  0  0  0  0  0  0  0
    4.9047    1.8076   -0.6393 C   0  0  0  0  0  0  0  0  0  0  0  0
    5.9626    1.2090   -1.5594 C   0  0  0  0  0  0  0  0  0  0  0  0
    7.0023    0.3952   -0.7904 C   0  0  0  0  0  0  0  0  0  0  0  0
    6.4358   -0.2642    0.4669 C   0  0  0  0  0  0  0  0  0  0  0  0
    4.9292   -0.4757    0.3787 C   0  0  0  0  0  0  0  0  0  0  0  0
   -0.3554    1.4167   -0.8108 N   0  0  0  0  0  0  0  0  0  0  0  0
   -1.1483    0.3900   -1.2342 N   0  0  0  0  0  0  0  0  0  0  0  0
   -1.5052   -0.3114   -0.1810 C   0  0  0  0  0  0  0  0  0  0  0  0
   -3.3752    1.5376   -4.7444 H   0  0  0  0  0  0  0  0  0  0  0  0
   -2.9219    1.7569   -3.0170 H   0  0  0  0  0  0  0  0  0  0  0  0
   -1.7428    1.1436   -4.1886 H   0  0  0  0  0  0  0  0  0  0  0  0
   -5.5418    0.9389   -4.0689 H   0  0  0  0  0  0  0  0  0  0  0  0
   -7.5300    0.6413   -2.6413 H   0  0  0  0  0  0  0  0  0  0  0  0
   -7.4278   -0.8528   -0.6625 H   0  0  0  0  0  0  0  0  0  0  0  0
   -5.3419   -2.0425   -0.1133 H   0  0  0  0  0  0  0  0  0  0  0  0
   -2.1886   -1.8931   -2.2006 H   0  0  0  0  0  0  0  0  0  0  0  0
   -3.1705   -3.0026   -1.2824 H   0  0  0  0  0  0  0  0  0  0  0  0
   -2.8573   -3.0184    3.5362 H   0  0  0  0  0  0  0  0  0  0  0  0
   -1.8632   -2.1443    5.6214 H   0  0  0  0  0  0  0  0  0  0  0  0
   -0.3977   -0.1457    5.5515 H   0  0  0  0  0  0  0  0  0  0  0  0
    0.0799    0.9747    3.4614 H   0  0  0  0  0  0  0  0  0  0  0  0
    2.1077    2.4826   -0.5539 H   0  0  0  0  0  0  0  0  0  0  0  0
    2.9515    3.0813    0.8971 H   0  0  0  0  0  0  0  0  0  0  0  0
    5.3638    2.5128    0.0634 H   0  0  0  0  0  0  0  0  0  0  0  0
    4.1781    2.3626   -1.2385 H   0  0  0  0  0  0  0  0  0  0  0  0
    5.4691    0.5533   -2.2886 H   0  0  0  0  0  0  0  0  0  0  0  0
    6.4596    1.9985   -2.1341 H   0  0  0  0  0  0  0  0  0  0  0  0
    7.8428    1.0392   -0.5041 H   0  0  0  0  0  0  0  0  0  0  0  0
    7.4170   -0.3692   -1.4585 H   0  0  0  0  0  0  0  0  0  0  0  0
    6.9454   -1.2171    0.6482 H   0  0  0  0  0  0  0  0  0  0  0  0
    6.6536    0.3775    1.3305 H   0  0  0  0  0  0  0  0  0  0  0  0
    4.6807   -1.1394   -0.4579 H   0  0  0  0  0  0  0  0  0  0  0  0
    4.5723   -0.9568    1.2955 H   0  0  0  0  0  0  0  0  0  0  0  0
  1  2  1  0
  2  3  1  0
  3  4  2  0
  4  5  1  0
  5  6  2  0
  6  7  1  0
  7  8  2  0
  8  9  1  0
  9 10  1  0
 10 11  1  0
 11 12  2  0
 11 13  1  0
 13 14  2  0
 14 15  1  0
 15 16  2  0
 16 17  1  0
 17 18  2  0
 18 19  1  0
 19 20  1  0
 20 21  1  0
 21 22  1  0
 22 23  1  0
 23 24  2  0
 23 25  1  0
 25 26  1  0
 26 27  1  0
 27 28  1  0
 28 29  1  0
 29 30  1  0
 20 31  2  0
 31 32  1  0
 32 33  2  0
  8  3  1  0
 33 10  1  0
 18 13  1  0
 33 19  1  0
 30 25  1  0
  1 34  1  0
  1 35  1  0
  1 36  1  0
  4 37  1  0
  5 38  1  0
  6 39  1  0
  7 40  1  0
  9 41  1  0
  9 42  1  0
 14 43  1  0
 15 44  1  0
 16 45  1  0
 17 46  1  0
 22 47  1  0
 22 48  1  0
 26 49  1  0
 26 50  1  0
 27 51  1  0
 27 52  1  0
 28 53  1  0
 28 54  1  0
 29 55  1  0
 29 56  1  0
 30 57  1  0
 30 58  1  0
M  END
$$$$
