
     RDKit          3D

 54 57  0  0  0  0  0  0  0  0999 V2000
   -4.1641   -4.7047   -2.2120 C   0  0  0  0  0  0  0  0  0  0  0  0
   -3.7784   -4.2967   -0.9057 O   0  0  0  0  0  0  0  0  0  0  0  0
   -3.6053   -2.9556   -0.7026 C   0  0  0  0  0  0  0  0  0  0  0  0
   -3.7479   -1.9545   -1.6628 C   0  0  0  0  0  0  0  0  0  0  0  0
   -3.5385   -0.6133   -1.3177 C   0  0  0  0  0  0  0  0  0  0  0  0
   -3.1866   -0.2549   -0.0091 C   0  0  0  0  0  0  0  0  0  0  0  0
   -2.9518    1.1501    0.3505 C   0  0  0  0  0  0  0  0  0  0  0  0
   -4.2517    2.2544    0.2023 S   0  0  0  0  0  0  0  0  0  0  0  0
   -3.3187    3.5759    0.7763 C   0  0  0  0  0  0  0  0  0  0  0  0
   -3.7524    4.9074    0.9368 C   0  0  0  0  0  0  0  0  0  0  0  0
   -2.8523    5.8622    1.4133 C   0  0  0  0  0  0  0  0  0  0  0  0
   -1.5485    5.5060    1.7225 C   0  0  0  0  0  0  0  0  0  0  0  0
   -1.1239    4.1837    1.5623 C   0  0  0  0  0  0  0  0  0  0  0  0
   -2.0147    3.1855    1.0857 C   0  0  0  0  0  0  0  0  0  0  0  0
   -1.8127    1.7723    0.8415 C   0  0  0  0  0  0  0  0  0  0  0  0
   -0.5689    1.0407    1.0663 C   0  0  0  0  0  0  0  0  0  0  0  0
    0.1467    0.5029   -0.0086 C   0  0  0  0  0  0  0  0  0  0  0  0
    1.3375   -0.1996    0.2120 C   0  0  0  0  0  0  0  0  0  0  0  0
    1.8247   -0.3662    1.5082 C   0  0  0  0  0  0  0  0  0  0  0  0
    2.9693   -1.0200    1.8683 O   0  0  0  0  0  0  0  0  0  0  0  0
    3.7241   -1.6949    0.8559 C   0  0  0  0  0  0  0  0  0  0  0  0
    4.7310   -0.7355    0.1976 C   0  0  0  0  0  0  0  0  0  0  0  0
    5.6354   -1.3862   -0.7703 N   0  0  0  0  0  0  0  0  0  0  0  0
    4.9278   -1.7960   -1.9851 C   0  0  0  0  0  0  0  0  0  0  0  0
    6.7286   -0.4748   -1.1211 C   0  0  0  0  0  0  0  0  0  0  0  0
    1.1124    0.1807    2.5794 C   0  0  0  0  0  0  0  0  0  0  0  0
   -0.0776    0.8800    2.3646 C   0  0  0  0  0  0  0  0  0  0  0  0
   -3.0445   -1.2653    0.9485 C   0  0  0  0  0  0  0  0  0  0  0  0
   -3.2519   -2.6033    0.6014 C   0  0  0  0  0  0  0  0  0  0  0  0
   -5.1327   -4.2763   -2.4902 H   0  0  0  0  0  0  0  0  0  0  0  0
   -4.2719   -5.7936   -2.2039 H   0  0  0  0  0  0  0  0  0  0  0  0
   -3.3933   -4.4521   -2.9477 H   0  0  0  0  0  0  0  0  0  0  0  0
   -4.0190   -2.1792   -2.6887 H   0  0  0  0  0  0  0  0  0  0  0  0
   -3.6480    0.1511   -2.0841 H   0  0  0  0  0  0  0  0  0  0  0  0
   -4.7728    5.1891    0.6923 H   0  0  0  0  0  0  0  0  0  0  0  0
   -3.1779    6.8919    1.5398 H   0  0  0  0  0  0  0  0  0  0  0  0
   -0.8514    6.2551    2.0897 H   0  0  0  0  0  0  0  0  0  0  0  0
   -0.0962    3.9219    1.8043 H   0  0  0  0  0  0  0  0  0  0  0  0
   -0.2177    0.6245   -1.0262 H   0  0  0  0  0  0  0  0  0  0  0  0
    1.8549   -0.5967   -0.6541 H   0  0  0  0  0  0  0  0  0  0  0  0
    4.2816   -2.4871    1.3704 H   0  0  0  0  0  0  0  0  0  0  0  0
    3.0699   -2.2070    0.1429 H   0  0  0  0  0  0  0  0  0  0  0  0
    5.3252   -0.2989    1.0123 H   0  0  0  0  0  0  0  0  0  0  0  0
    4.2093    0.1118   -0.2650 H   0  0  0  0  0  0  0  0  0  0  0  0
    5.6225   -2.2559   -2.6973 H   0  0  0  0  0  0  0  0  0  0  0  0
    4.1723   -2.5567   -1.7667 H   0  0  0  0  0  0  0  0  0  0  0  0
    4.4368   -0.9517   -2.4825 H   0  0  0  0  0  0  0  0  0  0  0  0
    7.3052   -0.2028   -0.2298 H   0  0  0  0  0  0  0  0  0  0  0  0
    6.3646    0.4456   -1.5922 H   0  0  0  0  0  0  0  0  0  0  0  0
    7.4303   -0.9610   -1.8082 H   0  0  0  0  0  0  0  0  0  0  0  0
    1.4865    0.0565    3.5930 H   0  0  0  0  0  0  0  0  0  0  0  0
   -0.6169    1.2896    3.2153 H   0  0  0  0  0  0  0  0  0  0  0  0
   -2.7721   -1.0210    1.9725 H   0  0  0  0  0  0  0  0  0  0  0  0
   -3.1366   -3.3773    1.3563 H   0  0  0  0  0  0  0  0  0  0  0  0
  1  2  1  0
  2  3  1  0
  3  4  2  0
  4  5  1  0
  5  6  2  0
  6  7  1  0
  7  8  1  0
  8  9  1  0
  9 10  2  0
 10 11  1  0
 11 12  2  0
 12 13  1  0
 13 14  2  0
 14 15  1  0
 15 16  1  0
 16 17  2  0
 17 18  1  0
 18 19  2  0
 19 20  1  0
 20 21  1  0
 21 22  1  0
 22 23  1  0
 23 24  1  0
 23 25  1  0
 19 26  1  0
 26 27  2  0
  6 28  1  0
 28 29  2  0
 29  3  1  0
 15  7  2  0
 27 16  1  0
 14  9  1  0
  1 30  1  0
  1 31  1  0
  1 32  1  0
  4 33  1  0
  5 34  1  0
 10 35  1  0
 11 36  1  0
 12 37  1  0
 13 38  1  0
 17 39  1  0
 18 40  1  0
 21 41  1  0
 21 42  1  0
 22 43  1  0
 22 44  1  0
 24 45  1  0
 24 46  1  0
 24 47  1  0
 25 48  1  0
 25 49  1  0
 25 50  1  0
 26 51  1  0
 27 52  1  0
 28 53  1  0
 29 54  1  0
M  END
$$$$
