
     RDKit          3D

 42 44  0  0  0  0  0  0  0  0999 V2000
   -1.1263   -4.2624   -1.6572 C   0  0  0  0  0  0  0  0  0  0  0  0
   -1.4765   -4.2744   -0.1789 C   0  0  0  0  0  0  0  0  0  0  0  0
   -2.7417   -3.0244    0.2287 S   0  0  0  0  0  0  0  0  0  0  0  0
   -1.7795   -1.5160    0.2101 C   0  0  0  0  0  0  0  0  0  0  0  0
   -2.4499   -0.3117    0.2368 C   0  0  0  0  0  0  0  0  0  0  0  0
   -1.6927    0.8406    0.2358 C   0  0  0  0  0  0  0  0  0  0  0  0
   -2.2731    2.0881    0.2445 N   0  0  0  0  0  0  0  0  0  0  0  0
   -1.4292    3.2765    0.2976 C   0  0  0  0  0  0  0  0  0  0  0  0
   -2.4427    4.4141    0.3698 C   0  0  0  0  0  0  0  0  0  0  0  0
   -3.5544    3.8143    1.2159 C   0  0  0  0  0  0  0  0  0  0  0  0
   -3.6130    2.3573    0.7544 C   0  0  0  0  0  0  0  0  0  0  0  0
   -0.3517    0.7668    0.1902 N   0  0  0  0  0  0  0  0  0  0  0  0
    0.2281   -0.4476    0.1723 C   0  0  0  0  0  0  0  0  0  0  0  0
    1.7043   -0.5062    0.1292 C   0  0  0  0  0  0  0  0  0  0  0  0
    2.3937   -1.7335    0.1246 C   0  0  0  0  0  0  0  0  0  0  0  0
    3.7921   -1.7911    0.0834 C   0  0  0  0  0  0  0  0  0  0  0  0
    4.5487   -0.6174    0.0558 C   0  0  0  0  0  0  0  0  0  0  0  0
    6.0450   -0.6764   -0.0226 C   0  0  0  0  0  0  0  0  0  0  0  0
    3.8849    0.6115    0.0443 C   0  0  0  0  0  0  0  0  0  0  0  0
    2.4864    0.6632    0.0857 C   0  0  0  0  0  0  0  0  0  0  0  0
   -0.4443   -1.6077    0.1891 N   0  0  0  0  0  0  0  0  0  0  0  0
   -2.0094   -4.4471   -2.2784 H   0  0  0  0  0  0  0  0  0  0  0  0
   -0.6771   -3.3143   -1.9680 H   0  0  0  0  0  0  0  0  0  0  0  0
   -0.4013   -5.0547   -1.8719 H   0  0  0  0  0  0  0  0  0  0  0  0
   -1.8987   -5.2525    0.0753 H   0  0  0  0  0  0  0  0  0  0  0  0
   -0.5847   -4.1460    0.4422 H   0  0  0  0  0  0  0  0  0  0  0  0
   -3.5305   -0.2809    0.2426 H   0  0  0  0  0  0  0  0  0  0  0  0
   -0.7909    3.3752   -0.5868 H   0  0  0  0  0  0  0  0  0  0  0  0
   -0.8040    3.2713    1.1990 H   0  0  0  0  0  0  0  0  0  0  0  0
   -2.8205    4.6498   -0.6325 H   0  0  0  0  0  0  0  0  0  0  0  0
   -2.0215    5.3251    0.8036 H   0  0  0  0  0  0  0  0  0  0  0  0
   -3.2786    3.8582    2.2766 H   0  0  0  0  0  0  0  0  0  0  0  0
   -4.5104    4.3307    1.0922 H   0  0  0  0  0  0  0  0  0  0  0  0
   -4.3457    2.2356   -0.0509 H   0  0  0  0  0  0  0  0  0  0  0  0
   -3.8932    1.7117    1.5941 H   0  0  0  0  0  0  0  0  0  0  0  0
    1.8375   -2.6692    0.1514 H   0  0  0  0  0  0  0  0  0  0  0  0
    4.2818   -2.7622    0.0743 H   0  0  0  0  0  0  0  0  0  0  0  0
    6.4283   -1.5651    0.4896 H   0  0  0  0  0  0  0  0  0  0  0  0
    6.3641   -0.7057   -1.0690 H   0  0  0  0  0  0  0  0  0  0  0  0
    6.4962    0.1965    0.4609 H   0  0  0  0  0  0  0  0  0  0  0  0
    4.4477    1.5413    0.0037 H   0  0  0  0  0  0  0  0  0  0  0  0
    2.0026    1.6389    0.0801 H   0  0  0  0  0  0  0  0  0  0  0  0
  1  2  1  0
  2  3  1  0
  3  4  1  0
  4  5  2  0
  5  6  1  0
  6  7  1  0
  7  8  1  0
  8  9  1  0
  9 10  1  0
 10 11  1  0
  6 12  2  0
 12 13  1  0
 13 14  1  0
 14 15  2  0
 15 16  1  0
 16 17  2  0
 17 18  1  0
 17 19  1  0
 19 20  2  0
 13 21  2  0
 21  4  1  0
 11  7  1  0
 20 14  1  0
  1 22  1  0
  1 23  1  0
  1 24  1  0
  2 25  1  0
  2 26  1  0
  5 27  1  0
  8 28  1  0
  8 29  1  0
  9 30  1  0
  9 31  1  0
 10 32  1  0
 10 33  1  0
 11 34  1  0
 11 35  1  0
 15 36  1  0
 16 37  1  0
 18 38  1  0
 18 39  1  0
 18 40  1  0
 19 41  1  0
 20 42  1  0
M  END
$$$$
