
     RDKit          3D

 49 52  0  0  0  0  0  0  0  0999 V2000
   -0.5894   -0.5227    4.0824 N   0  0  0  0  0  0  0  0  0  0  0  0
   -0.3870   -0.5974    2.9398 C   0  0  0  0  0  0  0  0  0  0  0  0
   -0.0943   -0.5735    1.4993 C   0  0  0  0  0  0  0  0  0  0  0  0
    0.1613   -1.9750    0.9542 C   0  0  0  0  0  0  0  0  0  0  0  0
    0.1308   -2.9916    1.6456 O   0  0  0  0  0  0  0  0  0  0  0  0
    0.5240   -2.0162   -0.3837 N   0  0  0  0  0  0  0  0  0  0  0  0
    0.9157   -3.2442   -1.0374 C   0  0  0  0  0  0  0  0  0  0  0  0
    2.4130   -3.3021   -1.1883 C   0  0  0  0  0  0  0  0  0  0  0  0
    3.0334   -2.8782   -2.3721 C   0  0  0  0  0  0  0  0  0  0  0  0
    4.4239   -2.9134   -2.4928 C   0  0  0  0  0  0  0  0  0  0  0  0
    5.2063   -3.3655   -1.4311 C   0  0  0  0  0  0  0  0  0  0  0  0
    4.6008   -3.7798   -0.2464 C   0  0  0  0  0  0  0  0  0  0  0  0
    3.2113   -3.7454   -0.1237 C   0  0  0  0  0  0  0  0  0  0  0  0
   -1.1953    0.1451    0.7494 C   0  0  0  0  0  0  0  0  0  0  0  0
   -2.3018   -0.5802    0.4170 N   0  0  0  0  0  0  0  0  0  0  0  0
   -3.2648    0.0446   -0.2793 C   0  0  0  0  0  0  0  0  0  0  0  0
   -4.4153   -0.6464   -0.6400 C   0  0  0  0  0  0  0  0  0  0  0  0
   -5.4320   -0.0299   -1.3703 C   0  0  0  0  0  0  0  0  0  0  0  0
   -5.2937    1.2996   -1.7464 C   0  0  0  0  0  0  0  0  0  0  0  0
   -4.1408    1.9998   -1.3870 C   0  0  0  0  0  0  0  0  0  0  0  0
   -3.1235    1.3950   -0.6580 C   0  0  0  0  0  0  0  0  0  0  0  0
   -2.0280    2.1044   -0.3258 N   0  0  0  0  0  0  0  0  0  0  0  0
   -1.0619    1.4994    0.3992 C   0  0  0  0  0  0  0  0  0  0  0  0
    0.0625    2.2392    0.7920 N   0  0  0  0  0  0  0  0  0  0  0  0
    0.4065    3.3762   -0.0813 C   0  0  0  0  0  0  0  0  0  0  0  0
    1.1266    4.3383    0.8546 C   0  0  0  0  0  0  0  0  0  0  0  0
    0.2873    4.2264    2.1126 C   0  0  0  0  0  0  0  0  0  0  0  0
   -0.0393    2.7357    2.1847 C   0  0  0  0  0  0  0  0  0  0  0  0
    0.8624   -0.0533    1.3585 H   0  0  0  0  0  0  0  0  0  0  0  0
    0.6255   -1.1582   -0.9096 H   0  0  0  0  0  0  0  0  0  0  0  0
    0.5530   -4.1185   -0.4857 H   0  0  0  0  0  0  0  0  0  0  0  0
    0.4312   -3.2591   -2.0200 H   0  0  0  0  0  0  0  0  0  0  0  0
    2.4381   -2.5213   -3.2093 H   0  0  0  0  0  0  0  0  0  0  0  0
    4.8981   -2.5887   -3.4154 H   0  0  0  0  0  0  0  0  0  0  0  0
    6.2887   -3.3936   -1.5261 H   0  0  0  0  0  0  0  0  0  0  0  0
    5.2095   -4.1289    0.5837 H   0  0  0  0  0  0  0  0  0  0  0  0
    2.7480   -4.0653    0.8090 H   0  0  0  0  0  0  0  0  0  0  0  0
   -4.5208   -1.6871   -0.3424 H   0  0  0  0  0  0  0  0  0  0  0  0
   -6.3251   -0.5883   -1.6398 H   0  0  0  0  0  0  0  0  0  0  0  0
   -6.0776    1.7944   -2.3144 H   0  0  0  0  0  0  0  0  0  0  0  0
   -4.0325    3.0420   -1.6776 H   0  0  0  0  0  0  0  0  0  0  0  0
   -0.4688    3.8867   -0.5006 H   0  0  0  0  0  0  0  0  0  0  0  0
    1.0542    3.0552   -0.9031 H   0  0  0  0  0  0  0  0  0  0  0  0
    2.1500    3.9952    1.0469 H   0  0  0  0  0  0  0  0  0  0  0  0
    1.1680    5.3571    0.4604 H   0  0  0  0  0  0  0  0  0  0  0  0
    0.8069    4.5840    3.0056 H   0  0  0  0  0  0  0  0  0  0  0  0
   -0.6369    4.8057    2.0006 H   0  0  0  0  0  0  0  0  0  0  0  0
    0.7137    2.2214    2.7918 H   0  0  0  0  0  0  0  0  0  0  0  0
   -1.0219    2.5786    2.6455 H   0  0  0  0  0  0  0  0  0  0  0  0
  1  2  3  0
  2  3  1  0
  3  4  1  0
  4  5  2  0
  4  6  1  0
  6  7  1  0
  7  8  1  0
  8  9  2  0
  9 10  1  0
 10 11  2  0
 11 12  1  0
 12 13  2  0
  3 14  1  0
 14 15  2  0
 15 16  1  0
 16 17  2  0
 17 18  1  0
 18 19  2  0
 19 20  1  0
 20 21  2  0
 21 22  1  0
 22 23  2  0
 23 24  1  0
 24 25  1  0
 25 26  1  0
 26 27  1  0
 27 28  1  0
 13  8  1  0
 23 14  1  0
 28 24  1  0
 21 16  1  0
  3 29  1  0
  6 30  1  0
  7 31  1  0
  7 32  1  0
  9 33  1  0
 10 34  1  0
 11 35  1  0
 12 36  1  0
 13 37  1  0
 17 38  1  0
 18 39  1  0
 19 40  1  0
 20 41  1  0
 25 42  1  0
 25 43  1  0
 26 44  1  0
 26 45  1  0
 27 46  1  0
 27 47  1  0
 28 48  1  0
 28 49  1  0
M  END
$$$$
