
     RDKit          3D

 41 44  0  0  0  0  0  0  0  0999 V2000
    5.2277    2.2707   -0.5634 C   0  0  0  0  0  0  0  0  0  0  0  0
    4.9727    1.5638    0.7592 C   0  0  0  0  0  0  0  0  0  0  0  0
    4.4215    0.1743    0.5558 C   0  0  0  0  0  0  0  0  0  0  0  0
    5.2847   -0.9244    0.4774 C   0  0  0  0  0  0  0  0  0  0  0  0
    4.8021   -2.2215    0.2719 C   0  0  0  0  0  0  0  0  0  0  0  0
    3.4192   -2.3869    0.1430 C   0  0  0  0  0  0  0  0  0  0  0  0
    2.6786   -3.5294   -0.0738 N   0  0  0  0  0  0  0  0  0  0  0  0
    1.3464   -3.2299   -0.1529 C   0  0  0  0  0  0  0  0  0  0  0  0
    0.4580   -4.1902   -0.3772 O   0  0  0  0  0  0  0  0  0  0  0  0
    1.2236   -1.8741    0.0411 C   0  0  0  0  0  0  0  0  0  0  0  0
   -0.0035   -1.2013    0.0094 N   0  0  0  0  0  0  0  0  0  0  0  0
   -0.1522   -0.4262    0.9761 N   0  0  0  0  0  0  0  0  0  0  0  0
   -1.3410    0.2372    1.0003 C   0  0  0  0  0  0  0  0  0  0  0  0
   -2.3793    0.1000    0.1962 N   0  0  0  0  0  0  0  0  0  0  0  0
   -3.4126    0.9603    0.5434 C   0  0  0  0  0  0  0  0  0  0  0  0
   -4.6613    0.9767   -0.2216 C   0  0  0  0  0  0  0  0  0  0  0  0
   -5.7159    1.8560    0.0682 C   0  0  0  0  0  0  0  0  0  0  0  0
   -6.8924    1.8379   -0.6893 C   0  0  0  0  0  0  0  0  0  0  0  0
   -7.0318    0.9421   -1.7462 C   0  0  0  0  0  0  0  0  0  0  0  0
   -5.9960    0.0634   -2.0485 C   0  0  0  0  0  0  0  0  0  0  0  0
   -4.8210    0.0818   -1.2920 C   0  0  0  0  0  0  0  0  0  0  0  0
   -3.1413    1.7535    1.6391 C   0  0  0  0  0  0  0  0  0  0  0  0
   -1.5713    1.4238    2.2386 S   0  0  0  0  0  0  0  0  0  0  0  0
    2.5214   -1.3175    0.2145 C   0  0  0  0  0  0  0  0  0  0  0  0
    3.0359   -0.0191    0.4162 C   0  0  0  0  0  0  0  0  0  0  0  0
    5.9480    1.7187   -1.1767 H   0  0  0  0  0  0  0  0  0  0  0  0
    4.3042    2.3757   -1.1430 H   0  0  0  0  0  0  0  0  0  0  0  0
    5.6314    3.2726   -0.3849 H   0  0  0  0  0  0  0  0  0  0  0  0
    5.9040    1.5117    1.3366 H   0  0  0  0  0  0  0  0  0  0  0  0
    4.2730    2.1518    1.3657 H   0  0  0  0  0  0  0  0  0  0  0  0
    6.3590   -0.7775    0.5743 H   0  0  0  0  0  0  0  0  0  0  0  0
    5.4837   -3.0639    0.2110 H   0  0  0  0  0  0  0  0  0  0  0  0
    3.0565   -4.4595   -0.1760 H   0  0  0  0  0  0  0  0  0  0  0  0
   -0.4153   -3.7522   -0.3999 H   0  0  0  0  0  0  0  0  0  0  0  0
   -5.6497    2.5727    0.8807 H   0  0  0  0  0  0  0  0  0  0  0  0
   -7.7001    2.5261   -0.4530 H   0  0  0  0  0  0  0  0  0  0  0  0
   -7.9458    0.9294   -2.3340 H   0  0  0  0  0  0  0  0  0  0  0  0
   -6.0972   -0.6375   -2.8730 H   0  0  0  0  0  0  0  0  0  0  0  0
   -4.0232   -0.6136   -1.5476 H   0  0  0  0  0  0  0  0  0  0  0  0
   -3.7568    2.4968    2.1220 H   0  0  0  0  0  0  0  0  0  0  0  0
    2.3563    0.8276    0.4616 H   0  0  0  0  0  0  0  0  0  0  0  0
  1  2  1  0
  2  3  1  0
  3  4  2  0
  4  5  1  0
  5  6  2  0
  6  7  1  0
  7  8  1  0
  8  9  1  0
  8 10  2  0
 10 11  1  0
 11 12  2  3
 12 13  1  0
 13 14  2  0
 14 15  1  0
 15 16  1  0
 16 17  2  0
 17 18  1  0
 18 19  2  0
 19 20  1  0
 20 21  2  0
 15 22  2  0
 22 23  1  0
 10 24  1  0
 24 25  2  0
 25  3  1  0
 24  6  1  0
 23 13  1  0
 21 16  1  0
  1 26  1  0
  1 27  1  0
  1 28  1  0
  2 29  1  0
  2 30  1  0
  4 31  1  0
  5 32  1  0
  7 33  1  0
  9 34  1  0
 17 35  1  0
 18 36  1  0
 19 37  1  0
 20 38  1  0
 21 39  1  0
 22 40  1  0
 25 41  1  0
M  END
$$$$
