
     RDKit          3D

 59 62  0  0  0  0  0  0  0  0999 V2000
    7.0465    2.1646   -5.6766 C   0  0  0  0  0  0  0  0  0  0  0  0
    6.2841    1.6262   -4.5022 C   0  0  0  0  0  0  0  0  0  0  0  0
    5.9201    2.4719   -3.4479 C   0  0  0  0  0  0  0  0  0  0  0  0
    5.2383    1.9684   -2.3362 C   0  0  0  0  0  0  0  0  0  0  0  0
    4.9249    0.6061   -2.2523 C   0  0  0  0  0  0  0  0  0  0  0  0
    4.1764    0.0539   -1.0672 C   0  0  0  0  0  0  0  0  0  0  0  0
    2.7745   -0.1003   -1.3754 N   0  0  0  0  0  0  0  0  0  0  0  0
    2.2168   -1.3204   -1.6694 C   0  0  0  0  0  0  0  0  0  0  0  0
    2.8446   -2.3746   -1.6772 O   0  0  0  0  0  0  0  0  0  0  0  0
    0.7479   -1.2324   -2.0423 C   0  0  0  0  0  0  0  0  0  0  0  0
    0.0448   -2.5874   -1.9656 C   0  0  0  0  0  0  0  0  0  0  0  0
   -0.1017   -3.1215   -0.5366 C   0  0  0  0  0  0  0  0  0  0  0  0
   -1.1551   -2.4367    0.2111 N   0  0  0  0  0  0  0  0  0  0  0  0
   -2.4549   -2.9018   -0.0288 N   0  0  0  0  0  0  0  0  0  0  0  0
   -3.4825   -2.3761    0.5765 C   0  0  0  0  0  0  0  0  0  0  0  0
   -4.8478   -2.9223    0.2696 C   0  0  0  0  0  0  0  0  0  0  0  0
   -3.2777   -1.2981    1.5114 C   0  0  0  0  0  0  0  0  0  0  0  0
   -4.1096   -0.5823    2.3562 C   0  0  0  0  0  0  0  0  0  0  0  0
   -5.5398   -0.8026    2.6944 C   0  0  0  0  0  0  0  0  0  0  0  0
   -3.2989    0.4092    2.9218 N   0  0  0  0  0  0  0  0  0  0  0  0
   -3.6422    1.5596    3.6977 C   0  0  0  0  0  0  0  0  0  0  0  0
   -2.6357    2.1998    4.4414 C   0  0  0  0  0  0  0  0  0  0  0  0
   -2.9274    3.3287    5.2108 C   0  0  0  0  0  0  0  0  0  0  0  0
   -4.2207    3.8414    5.2330 C   0  0  0  0  0  0  0  0  0  0  0  0
   -5.2203    3.2329    4.4768 C   0  0  0  0  0  0  0  0  0  0  0  0
   -4.9338    2.1001    3.7069 C   0  0  0  0  0  0  0  0  0  0  0  0
   -1.9867    0.1840    2.6381 N   0  0  0  0  0  0  0  0  0  0  0  0
   -1.9894   -0.8061    1.7428 C   0  0  0  0  0  0  0  0  0  0  0  0
   -0.8239   -1.3685    1.0717 C   0  0  0  0  0  0  0  0  0  0  0  0
    0.3196   -0.9450    1.2283 O   0  0  0  0  0  0  0  0  0  0  0  0
    5.2954   -0.2396   -3.3069 C   0  0  0  0  0  0  0  0  0  0  0  0
    5.9753    0.2636   -4.4182 C   0  0  0  0  0  0  0  0  0  0  0  0
    6.8827    1.5492   -6.5667 H   0  0  0  0  0  0  0  0  0  0  0  0
    8.1174    2.1806   -5.4538 H   0  0  0  0  0  0  0  0  0  0  0  0
    6.7201    3.1800   -5.9201 H   0  0  0  0  0  0  0  0  0  0  0  0
    6.1663    3.5317   -3.4851 H   0  0  0  0  0  0  0  0  0  0  0  0
    4.9592    2.6471   -1.5344 H   0  0  0  0  0  0  0  0  0  0  0  0
    4.6158   -0.8996   -0.7545 H   0  0  0  0  0  0  0  0  0  0  0  0
    4.2480    0.7379   -0.2149 H   0  0  0  0  0  0  0  0  0  0  0  0
    2.2089    0.7347   -1.4365 H   0  0  0  0  0  0  0  0  0  0  0  0
    0.7047   -0.8687   -3.0762 H   0  0  0  0  0  0  0  0  0  0  0  0
    0.2421   -0.4920   -1.4155 H   0  0  0  0  0  0  0  0  0  0  0  0
   -0.9436   -2.5007   -2.4325 H   0  0  0  0  0  0  0  0  0  0  0  0
    0.6079   -3.3209   -2.5555 H   0  0  0  0  0  0  0  0  0  0  0  0
   -0.3721   -4.1838   -0.5755 H   0  0  0  0  0  0  0  0  0  0  0  0
    0.8419   -3.0557    0.0144 H   0  0  0  0  0  0  0  0  0  0  0  0
   -4.8143   -3.5434   -0.6301 H   0  0  0  0  0  0  0  0  0  0  0  0
   -5.1897   -3.5387    1.1046 H   0  0  0  0  0  0  0  0  0  0  0  0
   -5.5545   -2.1066    0.0997 H   0  0  0  0  0  0  0  0  0  0  0  0
   -5.7694   -0.5082    3.7228 H   0  0  0  0  0  0  0  0  0  0  0  0
   -5.7955   -1.8643    2.6314 H   0  0  0  0  0  0  0  0  0  0  0  0
   -6.1904   -0.2596    2.0023 H   0  0  0  0  0  0  0  0  0  0  0  0
   -1.6142    1.8216    4.4421 H   0  0  0  0  0  0  0  0  0  0  0  0
   -2.1407    3.8061    5.7888 H   0  0  0  0  0  0  0  0  0  0  0  0
   -4.4469    4.7221    5.8280 H   0  0  0  0  0  0  0  0  0  0  0  0
   -6.2244    3.6509    4.4748 H   0  0  0  0  0  0  0  0  0  0  0  0
   -5.7339    1.7041    3.0931 H   0  0  0  0  0  0  0  0  0  0  0  0
    5.0523   -1.3010   -3.2634 H   0  0  0  0  0  0  0  0  0  0  0  0
    6.2613   -0.4178   -5.2168 H   0  0  0  0  0  0  0  0  0  0  0  0
  1  2  1  0
  2  3  2  0
  3  4  1  0
  4  5  2  0
  5  6  1  0
  6  7  1  0
  7  8  1  0
  8  9  2  0
  8 10  1  0
 10 11  1  0
 11 12  1  0
 12 13  1  0
 13 14  1  0
 14 15  2  0
 15 16  1  0
 15 17  1  0
 17 18  2  0
 18 19  1  0
 18 20  1  0
 20 21  1  0
 21 22  2  0
 22 23  1  0
 23 24  2  0
 24 25  1  0
 25 26  2  0
 20 27  1  0
 27 28  2  0
 28 29  1  0
 29 30  2  0
  5 31  1  0
 31 32  2  0
 32  2  1  0
 29 13  1  0
 28 17  1  0
 26 21  1  0
  1 33  1  0
  1 34  1  0
  1 35  1  0
  3 36  1  0
  4 37  1  0
  6 38  1  0
  6 39  1  0
  7 40  1  0
 10 41  1  0
 10 42  1  0
 11 43  1  0
 11 44  1  0
 12 45  1  0
 12 46  1  0
 16 47  1  0
 16 48  1  0
 16 49  1  0
 19 50  1  0
 19 51  1  0
 19 52  1  0
 22 53  1  0
 23 54  1  0
 24 55  1  0
 25 56  1  0
 26 57  1  0
 31 58  1  0
 32 59  1  0
M  END
$$$$
