
     RDKit          3D

 47 49  0  0  0  0  0  0  0  0999 V2000
    7.5767    0.3120   -0.4412 C   0  0  0  0  0  0  0  0  0  0  0  0
    6.2272   -0.1368   -0.4237 O   0  0  0  0  0  0  0  0  0  0  0  0
    5.3061    0.6511   -1.0587 C   0  0  0  0  0  0  0  0  0  0  0  0
    5.5610    1.8711   -1.6806 C   0  0  0  0  0  0  0  0  0  0  0  0
    4.5160    2.5773   -2.2787 C   0  0  0  0  0  0  0  0  0  0  0  0
    3.2161    2.0642   -2.2678 C   0  0  0  0  0  0  0  0  0  0  0  0
    2.9510    0.8311   -1.6745 C   0  0  0  0  0  0  0  0  0  0  0  0
    1.6631    0.2591   -1.5864 N   0  0  0  0  0  0  0  0  0  0  0  0
    0.5257    0.4375   -2.3671 C   0  0  0  0  0  0  0  0  0  0  0  0
    0.5293    0.9762   -3.9601 S   0  0  0  0  0  0  0  0  0  0  0  0
   -0.6431    0.0244   -1.6710 N   0  0  0  0  0  0  0  0  0  0  0  0
   -1.9319   -0.1144   -2.3654 C   0  0  0  0  0  0  0  0  0  0  0  0
   -2.8192   -1.1592   -1.6921 C   0  0  0  0  0  0  0  0  0  0  0  0
   -2.9533   -0.9119   -0.2142 C   0  0  0  0  0  0  0  0  0  0  0  0
   -4.0434   -1.4444    0.4914 C   0  0  0  0  0  0  0  0  0  0  0  0
   -4.1693   -1.2467    1.8706 C   0  0  0  0  0  0  0  0  0  0  0  0
   -5.2057   -1.7269    2.6328 O   0  0  0  0  0  0  0  0  0  0  0  0
   -6.2191   -2.4729    1.9750 C   0  0  0  0  0  0  0  0  0  0  0  0
   -3.1853   -0.5114    2.5579 C   0  0  0  0  0  0  0  0  0  0  0  0
   -3.3810   -0.3574    3.9083 O   0  0  0  0  0  0  0  0  0  0  0  0
   -2.4202    0.3931    4.6359 C   0  0  0  0  0  0  0  0  0  0  0  0
   -2.0918    0.0051    1.8529 C   0  0  0  0  0  0  0  0  0  0  0  0
   -1.9603   -0.1980    0.4682 C   0  0  0  0  0  0  0  0  0  0  0  0
   -0.7634    0.3854   -0.2481 C   0  0  0  0  0  0  0  0  0  0  0  0
    4.0014    0.1444   -1.0518 C   0  0  0  0  0  0  0  0  0  0  0  0
    7.9555    0.3864   -1.4659 H   0  0  0  0  0  0  0  0  0  0  0  0
    8.1830   -0.4320    0.0845 H   0  0  0  0  0  0  0  0  0  0  0  0
    7.6825    1.2634    0.0905 H   0  0  0  0  0  0  0  0  0  0  0  0
    6.5544    2.3053   -1.7108 H   0  0  0  0  0  0  0  0  0  0  0  0
    4.7102    3.5377   -2.7503 H   0  0  0  0  0  0  0  0  0  0  0  0
    2.4274    2.6676   -2.7047 H   0  0  0  0  0  0  0  0  0  0  0  0
    1.6064   -0.5728   -1.0115 H   0  0  0  0  0  0  0  0  0  0  0  0
   -1.7825   -0.4229   -3.4043 H   0  0  0  0  0  0  0  0  0  0  0  0
   -2.4155    0.8709   -2.3716 H   0  0  0  0  0  0  0  0  0  0  0  0
   -3.8052   -1.1494   -2.1710 H   0  0  0  0  0  0  0  0  0  0  0  0
   -2.3854   -2.1572   -1.8316 H   0  0  0  0  0  0  0  0  0  0  0  0
   -4.7840   -2.0122   -0.0628 H   0  0  0  0  0  0  0  0  0  0  0  0
   -6.9563   -2.7709    2.7268 H   0  0  0  0  0  0  0  0  0  0  0  0
   -6.7362   -1.8633    1.2267 H   0  0  0  0  0  0  0  0  0  0  0  0
   -5.8115   -3.3865    1.5299 H   0  0  0  0  0  0  0  0  0  0  0  0
   -1.4363   -0.0861    4.6014 H   0  0  0  0  0  0  0  0  0  0  0  0
   -2.3711    1.4265    4.2771 H   0  0  0  0  0  0  0  0  0  0  0  0
   -2.7393    0.4202    5.6823 H   0  0  0  0  0  0  0  0  0  0  0  0
   -1.3190    0.5728    2.3620 H   0  0  0  0  0  0  0  0  0  0  0  0
    0.1386    0.0799    0.2911 H   0  0  0  0  0  0  0  0  0  0  0  0
   -0.8253    1.4804   -0.2046 H   0  0  0  0  0  0  0  0  0  0  0  0
    3.8230   -0.8095   -0.5618 H   0  0  0  0  0  0  0  0  0  0  0  0
  1  2  1  0
  2  3  1  0
  3  4  2  0
  4  5  1  0
  5  6  2  0
  6  7  1  0
  7  8  1  0
  8  9  1  0
  9 10  2  0
  9 11  1  0
 11 12  1  0
 12 13  1  0
 13 14  1  0
 14 15  2  0
 15 16  1  0
 16 17  1  0
 17 18  1  0
 16 19  2  0
 19 20  1  0
 20 21  1  0
 19 22  1  0
 22 23  2  0
 23 24  1  0
  7 25  2  0
 25  3  1  0
 24 11  1  0
 23 14  1  0
  1 26  1  0
  1 27  1  0
  1 28  1  0
  4 29  1  0
  5 30  1  0
  6 31  1  0
  8 32  1  0
 12 33  1  0
 12 34  1  0
 13 35  1  0
 13 36  1  0
 15 37  1  0
 18 38  1  0
 18 39  1  0
 18 40  1  0
 21 41  1  0
 21 42  1  0
 21 43  1  0
 22 44  1  0
 24 45  1  0
 24 46  1  0
 25 47  1  0
M  END
$$$$
