
     RDKit          3D

 36 38  0  0  0  0  0  0  0  0999 V2000
   -1.2351   -0.5339    2.1055 O   0  0  0  0  0  0  0  0  0  0  0  0
   -0.4442   -0.2276    1.2187 C   0  0  0  0  0  0  0  0  0  0  0  0
   -0.7637   -0.0747   -0.1160 N   0  0  0  0  0  0  0  0  0  0  0  0
   -1.9638   -0.7206   -0.5077 O   0  0  0  0  0  0  0  0  0  0  0  0
   -2.9924    0.2658   -0.6403 C   0  0  0  0  0  0  0  0  0  0  0  0
   -4.2980   -0.4261   -0.9343 C   0  0  0  0  0  0  0  0  0  0  0  0
   -4.8341   -1.3367   -0.0114 C   0  0  0  0  0  0  0  0  0  0  0  0
   -6.0493   -1.9733   -0.2666 C   0  0  0  0  0  0  0  0  0  0  0  0
   -6.7421   -1.7053   -1.4455 C   0  0  0  0  0  0  0  0  0  0  0  0
   -6.2201   -0.8018   -2.3699 C   0  0  0  0  0  0  0  0  0  0  0  0
   -5.0040   -0.1640   -2.1164 C   0  0  0  0  0  0  0  0  0  0  0  0
    0.9692    0.0031    1.4715 C   0  0  0  0  0  0  0  0  0  0  0  0
    1.6006   -0.0431    2.6910 C   0  0  0  0  0  0  0  0  0  0  0  0
    2.9207    0.2237    2.4973 O   0  0  0  0  0  0  0  0  0  0  0  0
    3.0369    0.4203    1.1442 C   0  0  0  0  0  0  0  0  0  0  0  0
    4.3708    0.7299    0.6349 C   0  0  0  0  0  0  0  0  0  0  0  0
    4.5564    0.9449   -0.7397 C   0  0  0  0  0  0  0  0  0  0  0  0
    5.8210    1.2425   -1.2545 C   0  0  0  0  0  0  0  0  0  0  0  0
    6.9177    1.3292   -0.4003 C   0  0  0  0  0  0  0  0  0  0  0  0
    6.7517    1.1188    0.9668 C   0  0  0  0  0  0  0  0  0  0  0  0
    5.4864    0.8210    1.4813 C   0  0  0  0  0  0  0  0  0  0  0  0
    1.8983    0.2974    0.4835 N   0  0  0  0  0  0  0  0  0  0  0  0
    0.0096   -0.1494   -0.7724 H   0  0  0  0  0  0  0  0  0  0  0  0
   -3.0933    0.8441    0.2865 H   0  0  0  0  0  0  0  0  0  0  0  0
   -2.7232    0.9526   -1.4514 H   0  0  0  0  0  0  0  0  0  0  0  0
   -4.2966   -1.5550    0.9104 H   0  0  0  0  0  0  0  0  0  0  0  0
   -6.4524   -2.6793    0.4544 H   0  0  0  0  0  0  0  0  0  0  0  0
   -7.6877   -2.2022   -1.6446 H   0  0  0  0  0  0  0  0  0  0  0  0
   -6.7603   -0.5947   -3.2899 H   0  0  0  0  0  0  0  0  0  0  0  0
   -4.6116    0.5366   -2.8495 H   0  0  0  0  0  0  0  0  0  0  0  0
    1.2834   -0.2360    3.7057 H   0  0  0  0  0  0  0  0  0  0  0  0
    3.7100    0.8809   -1.4213 H   0  0  0  0  0  0  0  0  0  0  0  0
    5.9480    1.4061   -2.3217 H   0  0  0  0  0  0  0  0  0  0  0  0
    7.9019    1.5605   -0.7998 H   0  0  0  0  0  0  0  0  0  0  0  0
    7.6068    1.1858    1.6350 H   0  0  0  0  0  0  0  0  0  0  0  0
    5.3824    0.6606    2.5526 H   0  0  0  0  0  0  0  0  0  0  0  0
  1  2  2  0
  2  3  1  0
  3  4  1  0
  4  5  1  0
  5  6  1  0
  6  7  2  0
  7  8  1  0
  8  9  2  0
  9 10  1  0
 10 11  2  0
  2 12  1  0
 12 13  2  0
 13 14  1  0
 14 15  1  0
 15 16  1  0
 16 17  2  0
 17 18  1  0
 18 19  2  0
 19 20  1  0
 20 21  2  0
 15 22  2  0
 11  6  1  0
 22 12  1  0
 21 16  1  0
  3 23  1  0
  5 24  1  0
  5 25  1  0
  7 26  1  0
  8 27  1  0
  9 28  1  0
 10 29  1  0
 11 30  1  0
 13 31  1  0
 17 32  1  0
 18 33  1  0
 19 34  1  0
 20 35  1  0
 21 36  1  0
M  END
$$$$
