
     RDKit          3D

 92 91  0  0  0  0  0  0  0  0999 V2000
  -11.4647   -1.3856   -1.0856 C   0  0  0  0  0  0  0  0  0  0  0  0
  -10.1611   -0.7128   -1.4904 C   0  0  0  0  0  0  0  0  0  0  0  0
   -8.9535   -1.5514   -1.0709 C   0  0  0  0  0  0  0  0  0  0  0  0
   -7.6081   -0.9614   -1.5140 C   0  0  0  0  0  0  0  0  0  0  0  0
   -7.2762    0.4565   -0.9881 C   0  0  0  0  0  0  0  0  0  0  0  0
   -7.3185    0.5193    0.5559 C   0  0  0  0  0  0  0  0  0  0  0  0
   -6.9609    1.8831    1.1307 C   0  0  0  0  0  0  0  0  0  0  0  0
   -5.9321    0.9469   -1.5752 C   0  0  0  0  0  0  0  0  0  0  0  0
   -4.8428    0.1049   -1.0888 N   0  0  0  0  0  0  0  0  0  0  0  0
   -3.7118    0.6331   -0.7803 C   0  0  0  0  0  0  0  0  0  0  0  0
   -3.3576    1.9367   -0.9201 N   0  0  0  0  0  0  0  0  0  0  0  0
   -2.7335   -0.1621   -0.2617 N   0  0  0  0  0  0  0  0  0  0  0  0
   -2.5711   -1.3765   -0.6687 C   0  0  0  0  0  0  0  0  0  0  0  0
   -3.2865   -2.0438   -1.6147 N   0  0  0  0  0  0  0  0  0  0  0  0
   -1.6130   -2.2179   -0.1821 N   0  0  0  0  0  0  0  0  0  0  0  0
   -0.6512   -1.7642    0.8130 C   0  0  0  0  0  0  0  0  0  0  0  0
    0.1650   -2.9539    1.3088 C   0  0  0  0  0  0  0  0  0  0  0  0
    1.3445   -2.5891    2.2163 C   0  0  0  0  0  0  0  0  0  0  0  0
    0.9699   -2.0009    3.5822 C   0  0  0  0  0  0  0  0  0  0  0  0
    0.7571   -0.4822    3.6556 C   0  0  0  0  0  0  0  0  0  0  0  0
    1.9085    0.3679    3.1143 C   0  0  0  0  0  0  0  0  0  0  0  0
    3.1242    0.0519    3.8610 N   0  0  0  0  0  0  0  0  0  0  0  0
    4.2566    0.2612    3.2867 C   0  0  0  0  0  0  0  0  0  0  0  0
    5.3918   -0.0652    3.9530 N   0  0  0  0  0  0  0  0  0  0  0  0
    4.3731    0.7443    2.0257 N   0  0  0  0  0  0  0  0  0  0  0  0
    4.5712    2.0081    1.8658 C   0  0  0  0  0  0  0  0  0  0  0  0
    4.6737    2.9665    2.8260 N   0  0  0  0  0  0  0  0  0  0  0  0
    4.7302    2.5977    0.6474 N   0  0  0  0  0  0  0  0  0  0  0  0
    4.5099    1.8937   -0.6077 C   0  0  0  0  0  0  0  0  0  0  0  0
    5.8427    1.5135   -1.2993 C   0  0  0  0  0  0  0  0  0  0  0  0
    6.6879    2.7817   -1.5695 C   0  0  0  0  0  0  0  0  0  0  0  0
    7.5003    2.7206   -2.8576 C   0  0  0  0  0  0  0  0  0  0  0  0
    6.5791    0.4404   -0.4639 C   0  0  0  0  0  0  0  0  0  0  0  0
    7.8181   -0.2083   -1.0871 C   0  0  0  0  0  0  0  0  0  0  0  0
    7.5364   -0.9455   -2.3958 C   0  0  0  0  0  0  0  0  0  0  0  0
    8.7802   -1.6565   -2.9072 C   0  0  0  0  0  0  0  0  0  0  0  0
  -11.5196   -1.5075    0.0018 H   0  0  0  0  0  0  0  0  0  0  0  0
  -12.3175   -0.7779   -1.4026 H   0  0  0  0  0  0  0  0  0  0  0  0
  -11.5593   -2.3736   -1.5493 H   0  0  0  0  0  0  0  0  0  0  0  0
  -10.1533   -0.5647   -2.5767 H   0  0  0  0  0  0  0  0  0  0  0  0
  -10.1227    0.2769   -1.0244 H   0  0  0  0  0  0  0  0  0  0  0  0
   -8.9608   -1.7014    0.0148 H   0  0  0  0  0  0  0  0  0  0  0  0
   -9.0441   -2.5517   -1.5132 H   0  0  0  0  0  0  0  0  0  0  0  0
   -7.5837   -0.9455   -2.6118 H   0  0  0  0  0  0  0  0  0  0  0  0
   -6.8211   -1.6598   -1.2015 H   0  0  0  0  0  0  0  0  0  0  0  0
   -8.0423    1.1446   -1.3705 H   0  0  0  0  0  0  0  0  0  0  0  0
   -8.3301    0.2769    0.8984 H   0  0  0  0  0  0  0  0  0  0  0  0
   -6.6513   -0.2378    0.9849 H   0  0  0  0  0  0  0  0  0  0  0  0
   -7.1892    1.9096    2.2010 H   0  0  0  0  0  0  0  0  0  0  0  0
   -5.8933    2.0930    1.0210 H   0  0  0  0  0  0  0  0  0  0  0  0
   -7.5244    2.6831    0.6439 H   0  0  0  0  0  0  0  0  0  0  0  0
   -5.9669    0.8804   -2.6699 H   0  0  0  0  0  0  0  0  0  0  0  0
   -5.8052    2.0078   -1.3311 H   0  0  0  0  0  0  0  0  0  0  0  0
   -2.3539    2.0272   -0.8249 H   0  0  0  0  0  0  0  0  0  0  0  0
   -3.6994    2.3511   -1.7754 H   0  0  0  0  0  0  0  0  0  0  0  0
   -3.5081   -2.9810   -1.3001 H   0  0  0  0  0  0  0  0  0  0  0  0
   -4.1650   -1.5408   -1.7724 H   0  0  0  0  0  0  0  0  0  0  0  0
   -1.2107   -2.7913   -0.9117 H   0  0  0  0  0  0  0  0  0  0  0  0
   -1.1964   -1.3189    1.6500 H   0  0  0  0  0  0  0  0  0  0  0  0
    0.0048   -1.0044    0.3743 H   0  0  0  0  0  0  0  0  0  0  0  0
    0.5659   -3.4992    0.4433 H   0  0  0  0  0  0  0  0  0  0  0  0
   -0.4958   -3.6600    1.8280 H   0  0  0  0  0  0  0  0  0  0  0  0
    2.0498   -1.9486    1.6759 H   0  0  0  0  0  0  0  0  0  0  0  0
    1.8890   -3.5245    2.4075 H   0  0  0  0  0  0  0  0  0  0  0  0
    0.0737   -2.5038    3.9662 H   0  0  0  0  0  0  0  0  0  0  0  0
    1.7752   -2.2555    4.2826 H   0  0  0  0  0  0  0  0  0  0  0  0
    0.5924   -0.2211    4.7093 H   0  0  0  0  0  0  0  0  0  0  0  0
   -0.1595   -0.1997    3.1308 H   0  0  0  0  0  0  0  0  0  0  0  0
    2.0052    0.2047    2.0347 H   0  0  0  0  0  0  0  0  0  0  0  0
    1.6620    1.4265    3.2652 H   0  0  0  0  0  0  0  0  0  0  0  0
    5.1859   -0.7499    4.6694 H   0  0  0  0  0  0  0  0  0  0  0  0
    6.1103   -0.3707    3.3092 H   0  0  0  0  0  0  0  0  0  0  0  0
    4.7476    2.5810    3.7627 H   0  0  0  0  0  0  0  0  0  0  0  0
    5.4312    3.6143    2.6507 H   0  0  0  0  0  0  0  0  0  0  0  0
    4.4188    3.5616    0.6305 H   0  0  0  0  0  0  0  0  0  0  0  0
    3.9416    2.5545   -1.2743 H   0  0  0  0  0  0  0  0  0  0  0  0
    3.8846    1.0037   -0.4684 H   0  0  0  0  0  0  0  0  0  0  0  0
    5.5571    1.0695   -2.2605 H   0  0  0  0  0  0  0  0  0  0  0  0
    7.3546    2.9872   -0.7229 H   0  0  0  0  0  0  0  0  0  0  0  0
    6.0245    3.6534   -1.6637 H   0  0  0  0  0  0  0  0  0  0  0  0
    6.8564    2.5001   -3.7156 H   0  0  0  0  0  0  0  0  0  0  0  0
    7.9821    3.6864   -3.0412 H   0  0  0  0  0  0  0  0  0  0  0  0
    8.2884    1.9668   -2.8162 H   0  0  0  0  0  0  0  0  0  0  0  0
    5.8696   -0.3632   -0.2242 H   0  0  0  0  0  0  0  0  0  0  0  0
    6.8859    0.8746    0.4963 H   0  0  0  0  0  0  0  0  0  0  0  0
    8.6070    0.5371   -1.2269 H   0  0  0  0  0  0  0  0  0  0  0  0
    8.2186   -0.9257   -0.3591 H   0  0  0  0  0  0  0  0  0  0  0  0
    6.7381   -1.6811   -2.2461 H   0  0  0  0  0  0  0  0  0  0  0  0
    7.1919   -0.2474   -3.1647 H   0  0  0  0  0  0  0  0  0  0  0  0
    9.1292   -2.4034   -2.1876 H   0  0  0  0  0  0  0  0  0  0  0  0
    8.5637   -2.1687   -3.8485 H   0  0  0  0  0  0  0  0  0  0  0  0
    9.5912   -0.9441   -3.0862 H   0  0  0  0  0  0  0  0  0  0  0  0
  1  2  1  0
  2  3  1  0
  3  4  1  0
  4  5  1  0
  5  6  1  0
  6  7  1  0
  5  8  1  0
  8  9  1  0
  9 10  2  3
 10 11  1  0
 10 12  1  0
 12 13  2  3
 13 14  1  0
 13 15  1  0
 15 16  1  0
 16 17  1  0
 17 18  1  0
 18 19  1  0
 19 20  1  0
 20 21  1  0
 21 22  1  0
 22 23  2  3
 23 24  1  0
 23 25  1  0
 25 26  2  3
 26 27  1  0
 26 28  1  0
 28 29  1  0
 29 30  1  0
 30 31  1  0
 31 32  1  0
 30 33  1  0
 33 34  1  0
 34 35  1  0
 35 36  1  0
  1 37  1  0
  1 38  1  0
  1 39  1  0
  2 40  1  0
  2 41  1  0
  3 42  1  0
  3 43  1  0
  4 44  1  0
  4 45  1  0
  5 46  1  0
  6 47  1  0
  6 48  1  0
  7 49  1  0
  7 50  1  0
  7 51  1  0
  8 52  1  0
  8 53  1  0
 11 54  1  0
 11 55  1  0
 14 56  1  0
 14 57  1  0
 15 58  1  0
 16 59  1  0
 16 60  1  0
 17 61  1  0
 17 62  1  0
 18 63  1  0
 18 64  1  0
 19 65  1  0
 19 66  1  0
 20 67  1  0
 20 68  1  0
 21 69  1  0
 21 70  1  0
 24 71  1  0
 24 72  1  0
 27 73  1  0
 27 74  1  0
 28 75  1  0
 29 76  1  0
 29 77  1  0
 30 78  1  0
 31 79  1  0
 31 80  1  0
 32 81  1  0
 32 82  1  0
 32 83  1  0
 33 84  1  0
 33 85  1  0
 34 86  1  0
 34 87  1  0
 35 88  1  0
 35 89  1  0
 36 90  1  0
 36 91  1  0
 36 92  1  0
M  END
$$$$
