
     RDKit          3D

 49 51  0  0  0  0  0  0  0  0999 V2000
    9.0083   -1.8493    3.0881 N   0  0  0  0  0  0  0  0  0  0  0  0
    7.9225   -1.7941    2.6748 C   0  0  0  0  0  0  0  0  0  0  0  0
    6.5948   -1.7458    2.1386 C   0  0  0  0  0  0  0  0  0  0  0  0
    6.0253   -0.5096    2.0710 N   0  0  0  0  0  0  0  0  0  0  0  0
    4.7767   -0.4619    1.5312 C   0  0  0  0  0  0  0  0  0  0  0  0
    4.0964   -1.5870    1.0638 C   0  0  0  0  0  0  0  0  0  0  0  0
    2.7561   -1.5381    0.4460 C   0  0  0  0  0  0  0  0  0  0  0  0
    1.8839   -2.6434    0.5290 C   0  0  0  0  0  0  0  0  0  0  0  0
    0.6193   -2.6318   -0.0736 C   0  0  0  0  0  0  0  0  0  0  0  0
    0.1972   -1.5012   -0.7679 C   0  0  0  0  0  0  0  0  0  0  0  0
    1.0431   -0.3978   -0.8662 C   0  0  0  0  0  0  0  0  0  0  0  0
    2.3093   -0.4142   -0.2778 C   0  0  0  0  0  0  0  0  0  0  0  0
    0.6588    0.6987   -1.5879 O   0  0  0  0  0  0  0  0  0  0  0  0
    0.1217    1.7022   -0.7195 C   0  0  0  0  0  0  0  0  0  0  0  0
   -0.9558    2.4788   -1.4705 C   0  0  0  0  0  0  0  0  0  0  0  0
   -1.5109    3.4644   -0.5999 O   0  0  0  0  0  0  0  0  0  0  0  0
   -2.6978    4.0618   -1.1341 C   0  0  0  0  0  0  0  0  0  0  0  0
   -3.9424    3.3791   -0.5585 C   0  0  0  0  0  0  0  0  0  0  0  0
   -4.2249    2.1763   -1.2882 O   0  0  0  0  0  0  0  0  0  0  0  0
   -5.2590    1.3929   -0.6787 C   0  0  0  0  0  0  0  0  0  0  0  0
   -4.6602    0.3175    0.2350 C   0  0  0  0  0  0  0  0  0  0  0  0
   -4.4990   -0.9357   -0.4419 O   0  0  0  0  0  0  0  0  0  0  0  0
   -3.3529   -1.0110   -1.2876 C   0  0  0  0  0  0  0  0  0  0  0  0
   -2.1051   -1.4420   -0.5151 C   0  0  0  0  0  0  0  0  0  0  0  0
   -1.0014   -1.4845   -1.4298 O   0  0  0  0  0  0  0  0  0  0  0  0
    4.6742   -2.8172    1.1589 N   0  0  0  0  0  0  0  0  0  0  0  0
    5.9299   -2.8770    1.6939 C   0  0  0  0  0  0  0  0  0  0  0  0
    6.5137   -4.1843    1.7629 C   0  0  0  0  0  0  0  0  0  0  0  0
    7.0074   -5.2331    1.8317 N   0  0  0  0  0  0  0  0  0  0  0  0
    4.3377    0.5329    1.4948 H   0  0  0  0  0  0  0  0  0  0  0  0
    2.1990   -3.5479    1.0507 H   0  0  0  0  0  0  0  0  0  0  0  0
   -0.0101   -3.5147   -0.0222 H   0  0  0  0  0  0  0  0  0  0  0  0
    2.9467    0.4522   -0.4283 H   0  0  0  0  0  0  0  0  0  0  0  0
    0.9319    2.3794   -0.4151 H   0  0  0  0  0  0  0  0  0  0  0  0
   -0.3168    1.2797    0.1980 H   0  0  0  0  0  0  0  0  0  0  0  0
   -0.5199    2.9770   -2.3491 H   0  0  0  0  0  0  0  0  0  0  0  0
   -1.7309    1.7846   -1.8282 H   0  0  0  0  0  0  0  0  0  0  0  0
   -2.6834    5.1099   -0.8161 H   0  0  0  0  0  0  0  0  0  0  0  0
   -2.6928    4.0374   -2.2312 H   0  0  0  0  0  0  0  0  0  0  0  0
   -3.7969    3.1402    0.5040 H   0  0  0  0  0  0  0  0  0  0  0  0
   -4.8065    4.0477   -0.6690 H   0  0  0  0  0  0  0  0  0  0  0  0
   -5.8300    0.9272   -1.4845 H   0  0  0  0  0  0  0  0  0  0  0  0
   -5.9355    2.0443   -0.1163 H   0  0  0  0  0  0  0  0  0  0  0  0
   -3.7121    0.6337    0.6862 H   0  0  0  0  0  0  0  0  0  0  0  0
   -5.3693    0.1179    1.0470 H   0  0  0  0  0  0  0  0  0  0  0  0
   -3.1832   -0.0765   -1.8291 H   0  0  0  0  0  0  0  0  0  0  0  0
   -3.5690   -1.7614   -2.0579 H   0  0  0  0  0  0  0  0  0  0  0  0
   -2.2770   -2.4345   -0.0745 H   0  0  0  0  0  0  0  0  0  0  0  0
   -1.9112   -0.7414    0.3047 H   0  0  0  0  0  0  0  0  0  0  0  0
  1  2  3  0
  2  3  1  0
  3  4  2  0
  4  5  1  0
  5  6  2  0
  6  7  1  0
  7  8  2  0
  8  9  1  0
  9 10  2  0
 10 11  1  0
 11 12  2  0
 11 13  1  0
 13 14  1  0
 14 15  1  0
 15 16  1  0
 16 17  1  0
 17 18  1  0
 18 19  1  0
 19 20  1  0
 20 21  1  0
 21 22  1  0
 22 23  1  0
 23 24  1  0
 24 25  1  0
  6 26  1  0
 26 27  2  0
 27 28  1  0
 28 29  3  0
 27  3  1  0
 12  7  1  0
 25 10  1  0
  5 30  1  0
  8 31  1  0
  9 32  1  0
 12 33  1  0
 14 34  1  0
 14 35  1  0
 15 36  1  0
 15 37  1  0
 17 38  1  0
 17 39  1  0
 18 40  1  0
 18 41  1  0
 20 42  1  0
 20 43  1  0
 21 44  1  0
 21 45  1  0
 23 46  1  0
 23 47  1  0
 24 48  1  0
 24 49  1  0
M  END
$$$$
