
     RDKit          3D

 47 49  0  0  0  0  0  0  0  0999 V2000
   -7.0410   -0.2816   -1.1581 C   0  0  0  0  0  0  0  0  0  0  0  0
   -5.8211   -0.7694   -0.5188 N   0  0  0  0  0  0  0  0  0  0  0  0
   -4.6307   -0.3435   -1.2851 C   0  0  0  0  0  0  0  0  0  0  0  0
   -3.3438   -0.3423   -0.4413 C   0  0  0  0  0  0  0  0  0  0  0  0
   -3.4310    0.6325    0.6957 N   0  0  0  0  0  0  0  0  0  0  0  0
   -2.5351    2.0701    0.5112 S   0  0  0  0  0  6  0  0  0  0  0  0
   -2.7153    2.8720    1.7021 O   0  0  0  0  0  0  0  0  0  0  0  0
   -2.8384    2.5955   -0.8042 O   0  0  0  0  0  0  0  0  0  0  0  0
   -0.8589    1.4898    0.5168 C   0  0  0  0  0  0  0  0  0  0  0  0
   -0.0270    1.7289   -0.5735 C   0  0  0  0  0  0  0  0  0  0  0  0
    1.2869    1.2523   -0.5456 C   0  0  0  0  0  0  0  0  0  0  0  0
    1.7841    0.5372    0.5592 C   0  0  0  0  0  0  0  0  0  0  0  0
    3.1265    0.1102    0.4582 N   0  0  0  0  0  0  0  0  0  0  0  0
    3.9627   -0.6188    1.2718 C   0  0  0  0  0  0  0  0  0  0  0  0
    3.6772   -1.3290    2.7550 S   0  0  0  0  0  0  0  0  0  0  0  0
    5.2455   -0.7922    0.7703 N   0  0  0  0  0  0  0  0  0  0  0  0
    5.7812   -0.3560   -0.4263 C   0  0  0  0  0  0  0  0  0  0  0  0
    5.1834    0.3135   -1.2600 O   0  0  0  0  0  0  0  0  0  0  0  0
    7.2000   -0.7381   -0.6346 C   0  0  0  0  0  0  0  0  0  0  0  0
    7.5896   -1.5050   -1.8766 C   0  0  0  0  0  0  0  0  0  0  0  0
    7.6487   -2.1781   -0.5374 C   0  0  0  0  0  0  0  0  0  0  0  0
    0.9336    0.3176    1.6435 C   0  0  0  0  0  0  0  0  0  0  0  0
   -0.3846    0.7918    1.6274 C   0  0  0  0  0  0  0  0  0  0  0  0
   -4.8397    0.8775    1.1466 C   0  0  0  0  0  0  0  0  0  0  0  0
   -5.7340   -0.3501    0.8955 C   0  0  0  0  0  0  0  0  0  0  0  0
   -7.9260   -0.6814   -0.6508 H   0  0  0  0  0  0  0  0  0  0  0  0
   -7.1038    0.8125   -1.1499 H   0  0  0  0  0  0  0  0  0  0  0  0
   -7.0941   -0.6240   -2.1977 H   0  0  0  0  0  0  0  0  0  0  0  0
   -4.7738    0.6651   -1.6958 H   0  0  0  0  0  0  0  0  0  0  0  0
   -4.5020   -1.0238   -2.1347 H   0  0  0  0  0  0  0  0  0  0  0  0
   -2.4885   -0.1232   -1.0882 H   0  0  0  0  0  0  0  0  0  0  0  0
   -3.1604   -1.3373   -0.0174 H   0  0  0  0  0  0  0  0  0  0  0  0
   -0.3829    2.2807   -1.4404 H   0  0  0  0  0  0  0  0  0  0  0  0
    1.9236    1.4494   -1.4069 H   0  0  0  0  0  0  0  0  0  0  0  0
    3.5820    0.4020   -0.4089 H   0  0  0  0  0  0  0  0  0  0  0  0
    5.8500   -1.3290    1.3778 H   0  0  0  0  0  0  0  0  0  0  0  0
    7.9020    0.0275   -0.3173 H   0  0  0  0  0  0  0  0  0  0  0  0
    6.8052   -1.8001   -2.5657 H   0  0  0  0  0  0  0  0  0  0  0  0
    8.5233   -1.2417   -2.3608 H   0  0  0  0  0  0  0  0  0  0  0  0
    8.6277   -2.3783   -0.1159 H   0  0  0  0  0  0  0  0  0  0  0  0
    6.9165   -2.9539   -0.3418 H   0  0  0  0  0  0  0  0  0  0  0  0
    1.2478   -0.2107    2.5334 H   0  0  0  0  0  0  0  0  0  0  0  0
   -1.0320    0.6149    2.4841 H   0  0  0  0  0  0  0  0  0  0  0  0
   -5.2610    1.7469    0.6277 H   0  0  0  0  0  0  0  0  0  0  0  0
   -4.8229    1.0921    2.2210 H   0  0  0  0  0  0  0  0  0  0  0  0
   -5.3192   -1.1974    1.4571 H   0  0  0  0  0  0  0  0  0  0  0  0
   -6.7303   -0.1751    1.3202 H   0  0  0  0  0  0  0  0  0  0  0  0
  1  2  1  0
  2  3  1  0
  3  4  1  0
  4  5  1  0
  5  6  1  0
  6  7  2  0
  6  8  2  0
  6  9  1  0
  9 10  2  0
 10 11  1  0
 11 12  2  0
 12 13  1  0
 13 14  1  0
 14 15  2  0
 14 16  1  0
 16 17  1  0
 17 18  2  0
 17 19  1  0
 19 20  1  0
 20 21  1  0
 12 22  1  0
 22 23  2  0
  5 24  1  0
 24 25  1  0
 25  2  1  0
 23  9  1  0
 21 19  1  0
  1 26  1  0
  1 27  1  0
  1 28  1  0
  3 29  1  0
  3 30  1  0
  4 31  1  0
  4 32  1  0
 10 33  1  0
 11 34  1  0
 13 35  1  0
 16 36  1  0
 19 37  1  0
 20 38  1  0
 20 39  1  0
 21 40  1  0
 21 41  1  0
 22 42  1  0
 23 43  1  0
 24 44  1  0
 24 45  1  0
 25 46  1  0
 25 47  1  0
M  END
$$$$
