
     RDKit          3D

 30 31  0  0  0  0  0  0  0  0999 V2000
   -2.9425    2.9205   -0.3183 C   0  0  0  0  0  0  0  0  0  0  0  0
   -2.2528    1.6227   -0.5231 C   0  0  0  0  0  0  0  0  0  0  0  0
   -1.7415    1.3285   -1.7277 N   0  0  0  0  0  0  0  0  0  0  0  0
   -1.1882    0.1043   -1.5688 N   0  0  0  0  0  0  0  0  0  0  0  0
   -0.5277   -0.4783   -2.7157 C   0  0  0  0  0  0  0  0  0  0  0  0
   -1.3149   -0.3842   -0.2906 C   0  0  0  0  0  0  0  0  0  0  0  0
   -0.6347   -1.9186    0.1858 S   0  0  0  0  0  0  0  0  0  0  0  0
    0.9731   -1.3257    0.7180 C   0  0  0  0  0  0  0  0  0  0  0  0
    1.0864   -0.6922    1.9664 C   0  0  0  0  0  0  0  0  0  0  0  0
    2.3073   -0.1619    2.3804 C   0  0  0  0  0  0  0  0  0  0  0  0
    3.4210   -0.2572    1.5491 C   0  0  0  0  0  0  0  0  0  0  0  0
    3.3238   -0.9180    0.3205 C   0  0  0  0  0  0  0  0  0  0  0  0
    2.1232   -1.5164   -0.0807 C   0  0  0  0  0  0  0  0  0  0  0  0
    2.0521   -2.1103   -1.3610 N   0  0  0  0  0  0  0  0  0  0  0  0
   -2.0285    0.5758    0.4068 C   0  0  0  0  0  0  0  0  0  0  0  0
   -2.4276    0.5462    1.7797 N   0  0  0  0  0  4  0  0  0  0  0  0
   -2.4567    1.6325    2.3760 O   0  0  0  0  0  0  0  0  0  0  0  0
   -2.7157   -0.5531    2.2729 O   0  0  0  0  0  1  0  0  0  0  0  0
   -3.1079    3.4424   -1.2656 H   0  0  0  0  0  0  0  0  0  0  0  0
   -2.3417    3.5705    0.3207 H   0  0  0  0  0  0  0  0  0  0  0  0
   -3.9164    2.7717    0.1519 H   0  0  0  0  0  0  0  0  0  0  0  0
   -1.0781   -0.2007   -3.6178 H   0  0  0  0  0  0  0  0  0  0  0  0
    0.4862   -0.0770   -2.7593 H   0  0  0  0  0  0  0  0  0  0  0  0
   -0.5202   -1.5632   -2.6383 H   0  0  0  0  0  0  0  0  0  0  0  0
    0.2249   -0.6043    2.6264 H   0  0  0  0  0  0  0  0  0  0  0  0
    2.3851    0.3400    3.3419 H   0  0  0  0  0  0  0  0  0  0  0  0
    4.3662    0.1817    1.8568 H   0  0  0  0  0  0  0  0  0  0  0  0
    4.2033   -0.9711   -0.3196 H   0  0  0  0  0  0  0  0  0  0  0  0
    1.3014   -2.8008   -1.4052 H   0  0  0  0  0  0  0  0  0  0  0  0
    2.9412   -2.5039   -1.6616 H   0  0  0  0  0  0  0  0  0  0  0  0
  1  2  1  0
  2  3  2  0
  3  4  1  0
  4  5  1  0
  4  6  1  0
  6  7  1  0
  7  8  1  0
  8  9  2  0
  9 10  1  0
 10 11  2  0
 11 12  1  0
 12 13  2  0
 13 14  1  0
  6 15  2  0
 15 16  1  0
 16 17  2  0
 16 18  1  0
 15  2  1  0
 13  8  1  0
  1 19  1  0
  1 20  1  0
  1 21  1  0
  5 22  1  0
  5 23  1  0
  5 24  1  0
  9 25  1  0
 10 26  1  0
 11 27  1  0
 12 28  1  0
 14 29  1  0
 14 30  1  0
M  CHG  2  16   1  18  -1
M  END
$$$$
