
     RDKit          3D

 34 35  0  0  0  0  0  0  0  0999 V2000
   -3.0387    0.8248    1.0309 C   0  0  0  0  0  0  0  0  0  0  0  0
   -2.6617   -0.4542    0.5120 O   0  0  0  0  0  0  0  0  0  0  0  0
   -3.0077   -0.5474   -0.8114 C   0  0  0  0  0  0  0  0  0  0  0  0
   -4.2575   -1.0971   -1.1109 C   0  0  0  0  0  0  0  0  0  0  0  0
   -4.6674   -1.2116   -2.4400 C   0  0  0  0  0  0  0  0  0  0  0  0
   -3.8246   -0.7840   -3.4655 C   0  0  0  0  0  0  0  0  0  0  0  0
   -4.3397   -0.9185   -5.1011 Cl  0  0  0  0  0  0  0  0  0  0  0  0
   -2.5676   -0.2562   -3.1770 C   0  0  0  0  0  0  0  0  0  0  0  0
   -2.1427   -0.1557   -1.8443 C   0  0  0  0  0  0  0  0  0  0  0  0
   -0.7903    0.3952   -1.6045 C   0  0  0  0  0  0  0  0  0  0  0  0
   -0.3056    1.2681   -2.3096 O   0  0  0  0  0  0  0  0  0  0  0  0
   -0.2304   -0.2585   -0.5497 O   0  0  0  0  0  0  0  0  0  0  0  0
    1.0617    0.2340   -0.2929 N   0  0  0  0  0  0  0  0  0  0  0  0
    1.5549   -0.3035    0.7840 C   0  0  0  0  0  0  0  0  0  0  0  0
    0.8623   -1.2137    1.5529 N   0  0  0  0  0  0  0  0  0  0  0  0
    2.9332    0.1079    1.2065 C   0  0  0  0  0  0  0  0  0  0  0  0
    3.6687   -0.6755    2.1062 C   0  0  0  0  0  0  0  0  0  0  0  0
    4.9517   -0.2784    2.4961 C   0  0  0  0  0  0  0  0  0  0  0  0
    5.5004    0.8972    1.9851 C   0  0  0  0  0  0  0  0  0  0  0  0
    7.0782    1.3829    2.4686 Cl  0  0  0  0  0  0  0  0  0  0  0  0
    4.7811    1.6780    1.0826 C   0  0  0  0  0  0  0  0  0  0  0  0
    3.4990    1.2824    0.6909 C   0  0  0  0  0  0  0  0  0  0  0  0
   -2.7286    0.8636    2.0793 H   0  0  0  0  0  0  0  0  0  0  0  0
   -4.1251    0.9604    0.9918 H   0  0  0  0  0  0  0  0  0  0  0  0
   -2.5334    1.6370    0.4972 H   0  0  0  0  0  0  0  0  0  0  0  0
   -4.9137   -1.4305   -0.3107 H   0  0  0  0  0  0  0  0  0  0  0  0
   -5.6434   -1.6325   -2.6693 H   0  0  0  0  0  0  0  0  0  0  0  0
   -1.9126    0.0689   -3.9834 H   0  0  0  0  0  0  0  0  0  0  0  0
   -0.1206   -1.2522    1.2928 H   0  0  0  0  0  0  0  0  0  0  0  0
    0.9793   -1.1148    2.5546 H   0  0  0  0  0  0  0  0  0  0  0  0
    3.2672   -1.6088    2.4911 H   0  0  0  0  0  0  0  0  0  0  0  0
    5.5193   -0.8935    3.1896 H   0  0  0  0  0  0  0  0  0  0  0  0
    5.2091    2.5909    0.6767 H   0  0  0  0  0  0  0  0  0  0  0  0
    2.9455    1.8954   -0.0184 H   0  0  0  0  0  0  0  0  0  0  0  0
  1  2  1  0
  2  3  1  0
  3  4  2  0
  4  5  1  0
  5  6  2  0
  6  7  1  0
  6  8  1  0
  8  9  2  0
  9 10  1  0
 10 11  2  0
 10 12  1  0
 12 13  1  0
 13 14  2  3
 14 15  1  0
 14 16  1  0
 16 17  2  0
 17 18  1  0
 18 19  2  0
 19 20  1  0
 19 21  1  0
 21 22  2  0
  9  3  1  0
 22 16  1  0
  1 23  1  0
  1 24  1  0
  1 25  1  0
  4 26  1  0
  5 27  1  0
  8 28  1  0
 15 29  1  0
 15 30  1  0
 17 31  1  0
 18 32  1  0
 21 33  1  0
 22 34  1  0
M  END
$$$$
