
     RDKit          3D

 45 48  0  0  0  0  0  0  0  0999 V2000
   -3.8342   -0.2818   -2.4932 C   0  0  0  0  0  0  0  0  0  0  0  0
   -3.4590    0.9896   -1.7297 C   0  0  0  0  0  0  0  0  0  0  0  0
   -4.2767    2.1716   -2.2530 C   0  0  0  0  0  0  0  0  0  0  0  0
   -3.6737    0.8351   -0.2136 C   0  0  0  0  0  0  0  0  0  0  0  0
   -2.7835   -0.1598    0.3853 N   0  0  0  0  0  0  0  0  0  0  0  0
   -1.4744    0.2260    0.5393 N   0  0  0  0  0  0  0  0  0  0  0  0
   -0.6272   -0.6081    1.0689 C   0  0  0  0  0  0  0  0  0  0  0  0
    0.8022   -0.0845    1.1985 C   0  0  0  0  0  0  0  0  0  0  0  0
    1.4353   -0.3157    2.2142 O   0  0  0  0  0  0  0  0  0  0  0  0
    1.1717    0.6284    0.0873 N   0  0  0  0  0  0  0  0  0  0  0  0
    2.3766    1.2362   -0.1405 C   0  0  0  0  0  0  0  0  0  0  0  0
    2.6072    1.9614   -1.2134 N   0  0  0  0  0  0  0  0  0  0  0  0
    3.8938    2.4665   -1.2327 N   0  0  0  0  0  0  0  0  0  0  0  0
    4.5742    2.0852   -0.1751 C   0  0  0  0  0  0  0  0  0  0  0  0
    6.0523    2.5196    0.0658 C   0  0  0  0  0  0  0  0  0  0  0  0
    7.1525    1.4958   -0.0552 C   0  0  0  0  0  0  0  0  0  0  0  0
    7.0058    2.5617   -1.1014 C   0  0  0  0  0  0  0  0  0  0  0  0
    3.7066    1.1000    0.9177 S   0  0  0  0  0  0  0  0  0  0  0  0
   -0.9787   -1.9750    1.4884 C   0  0  0  0  0  0  0  0  0  0  0  0
   -0.0544   -2.8929    2.0030 C   0  0  0  0  0  0  0  0  0  0  0  0
   -0.4701   -4.1763    2.3700 C   0  0  0  0  0  0  0  0  0  0  0  0
   -1.8032   -4.5518    2.2197 C   0  0  0  0  0  0  0  0  0  0  0  0
   -2.7235   -3.6446    1.6975 C   0  0  0  0  0  0  0  0  0  0  0  0
   -2.3078   -2.3571    1.3295 C   0  0  0  0  0  0  0  0  0  0  0  0
   -3.2798   -1.4087    0.7527 C   0  0  0  0  0  0  0  0  0  0  0  0
   -4.4493   -1.7567    0.6119 O   0  0  0  0  0  0  0  0  0  0  0  0
   -3.7116   -0.1367   -3.5719 H   0  0  0  0  0  0  0  0  0  0  0  0
   -4.8757   -0.5648   -2.3068 H   0  0  0  0  0  0  0  0  0  0  0  0
   -3.1952   -1.1216   -2.2025 H   0  0  0  0  0  0  0  0  0  0  0  0
   -2.3995    1.2004   -1.9231 H   0  0  0  0  0  0  0  0  0  0  0  0
   -3.9897    3.0983   -1.7448 H   0  0  0  0  0  0  0  0  0  0  0  0
   -4.1109    2.3152   -3.3259 H   0  0  0  0  0  0  0  0  0  0  0  0
   -5.3491    2.0151   -2.0935 H   0  0  0  0  0  0  0  0  0  0  0  0
   -3.4758    1.7874    0.2942 H   0  0  0  0  0  0  0  0  0  0  0  0
   -4.7178    0.5753   -0.0035 H   0  0  0  0  0  0  0  0  0  0  0  0
    0.4602    0.8141   -0.6113 H   0  0  0  0  0  0  0  0  0  0  0  0
    6.1658    3.2921    0.8188 H   0  0  0  0  0  0  0  0  0  0  0  0
    6.8957    0.4798   -0.3333 H   0  0  0  0  0  0  0  0  0  0  0  0
    7.9882    1.5686    0.6312 H   0  0  0  0  0  0  0  0  0  0  0  0
    7.7382    3.3601   -1.1256 H   0  0  0  0  0  0  0  0  0  0  0  0
    6.6387    2.2705   -2.0797 H   0  0  0  0  0  0  0  0  0  0  0  0
    0.9946   -2.6413    2.1362 H   0  0  0  0  0  0  0  0  0  0  0  0
    0.2500   -4.8838    2.7765 H   0  0  0  0  0  0  0  0  0  0  0  0
   -2.1258   -5.5503    2.5064 H   0  0  0  0  0  0  0  0  0  0  0  0
   -3.7634   -3.9426    1.5747 H   0  0  0  0  0  0  0  0  0  0  0  0
  1  2  1  0
  2  3  1  0
  2  4  1  0
  4  5  1  0
  5  6  1  0
  6  7  2  0
  7  8  1  0
  8  9  2  0
  8 10  1  0
 10 11  1  0
 11 12  2  0
 12 13  1  0
 13 14  2  0
 14 15  1  0
 15 16  1  0
 16 17  1  0
 14 18  1  0
  7 19  1  0
 19 20  2  0
 20 21  1  0
 21 22  2  0
 22 23  1  0
 23 24  2  0
 24 25  1  0
 25 26  2  0
 25  5  1  0
 18 11  1  0
 24 19  1  0
 17 15  1  0
  1 27  1  0
  1 28  1  0
  1 29  1  0
  2 30  1  0
  3 31  1  0
  3 32  1  0
  3 33  1  0
  4 34  1  0
  4 35  1  0
 10 36  1  0
 15 37  1  0
 16 38  1  0
 16 39  1  0
 17 40  1  0
 17 41  1  0
 20 42  1  0
 21 43  1  0
 22 44  1  0
 23 45  1  0
M  END
$$$$
