
     RDKit          3D

 44 46  0  0  0  0  0  0  0  0999 V2000
    2.8337   -3.2015    0.4932 C   0  0  0  0  0  0  0  0  0  0  0  0
    2.1680   -1.8840    0.2754 C   0  0  0  0  0  0  0  0  0  0  0  0
    0.8099   -1.6363    0.2648 C   0  0  0  0  0  0  0  0  0  0  0  0
    0.5953   -0.2803   -0.0906 C   0  0  0  0  0  0  0  0  0  0  0  0
   -0.6961    0.4099   -0.2539 C   0  0  0  0  0  0  0  0  0  0  0  0
   -0.7613    1.5765   -0.6450 O   0  0  0  0  0  0  0  0  0  0  0  0
   -1.9589   -0.3853    0.0783 C   0  0  0  0  0  0  0  0  0  0  0  0
   -3.1313    0.4032   -0.1386 O   0  0  0  0  0  0  0  0  0  0  0  0
   -4.2875   -0.2117    0.2257 C   0  0  0  0  0  0  0  0  0  0  0  0
   -4.3404   -1.3328    0.7058 O   0  0  0  0  0  0  0  0  0  0  0  0
   -5.4526    0.6666   -0.0372 C   0  0  0  0  0  0  0  0  0  0  0  0
   -5.3069    2.0038   -0.1492 C   0  0  0  0  0  0  0  0  0  0  0  0
   -6.4359    2.8781   -0.3738 C   0  0  0  0  0  0  0  0  0  0  0  0
   -7.6660    2.3632   -0.4617 C   0  0  0  0  0  0  0  0  0  0  0  0
   -7.8504    1.0119   -0.3496 N   0  0  0  0  0  0  0  0  0  0  0  0
   -6.8327    0.1002   -0.1544 C   0  0  0  0  0  0  0  0  0  0  0  0
   -7.0809   -1.0992   -0.1057 O   0  0  0  0  0  0  0  0  0  0  0  0
    1.8591    0.2894   -0.2368 C   0  0  0  0  0  0  0  0  0  0  0  0
    2.1930    1.7327   -0.4618 C   0  0  0  0  0  0  0  0  0  0  0  0
    2.8236   -0.7047   -0.0637 N   0  0  0  0  0  0  0  0  0  0  0  0
    4.2316   -0.5485   -0.2322 C   0  0  0  0  0  0  0  0  0  0  0  0
    5.1211   -1.0856    0.7088 C   0  0  0  0  0  0  0  0  0  0  0  0
    6.4980   -0.9324    0.5315 C   0  0  0  0  0  0  0  0  0  0  0  0
    6.9772   -0.2499   -0.5808 C   0  0  0  0  0  0  0  0  0  0  0  0
    8.2982   -0.1065   -0.7475 F   0  0  0  0  0  0  0  0  0  0  0  0
    6.1063    0.2865   -1.5219 C   0  0  0  0  0  0  0  0  0  0  0  0
    4.7284    0.1397   -1.3497 C   0  0  0  0  0  0  0  0  0  0  0  0
    3.2227   -3.2757    1.5128 H   0  0  0  0  0  0  0  0  0  0  0  0
    2.1158   -4.0183    0.3583 H   0  0  0  0  0  0  0  0  0  0  0  0
    3.6455   -3.3702   -0.2206 H   0  0  0  0  0  0  0  0  0  0  0  0
    0.0540   -2.3871    0.4647 H   0  0  0  0  0  0  0  0  0  0  0  0
   -1.9047   -0.6812    1.1325 H   0  0  0  0  0  0  0  0  0  0  0  0
   -1.9966   -1.2642   -0.5749 H   0  0  0  0  0  0  0  0  0  0  0  0
   -4.3360    2.4857   -0.0639 H   0  0  0  0  0  0  0  0  0  0  0  0
   -6.2610    3.9457   -0.4621 H   0  0  0  0  0  0  0  0  0  0  0  0
   -8.5498    2.9712   -0.6258 H   0  0  0  0  0  0  0  0  0  0  0  0
   -8.7790    0.6138   -0.4284 H   0  0  0  0  0  0  0  0  0  0  0  0
    1.4850    2.3825    0.0621 H   0  0  0  0  0  0  0  0  0  0  0  0
    3.1797    1.9985   -0.0720 H   0  0  0  0  0  0  0  0  0  0  0  0
    2.1535    1.9715   -1.5289 H   0  0  0  0  0  0  0  0  0  0  0  0
    4.7639   -1.5852    1.6047 H   0  0  0  0  0  0  0  0  0  0  0  0
    7.1987   -1.3329    1.2573 H   0  0  0  0  0  0  0  0  0  0  0  0
    6.5048    0.8086   -2.3860 H   0  0  0  0  0  0  0  0  0  0  0  0
    4.0609    0.5341   -2.1120 H   0  0  0  0  0  0  0  0  0  0  0  0
  1  2  1  0
  2  3  2  0
  3  4  1  0
  4  5  1  0
  5  6  2  0
  5  7  1  0
  7  8  1  0
  8  9  1  0
  9 10  2  0
  9 11  1  0
 11 12  2  0
 12 13  1  0
 13 14  2  0
 14 15  1  0
 15 16  1  0
 16 17  2  0
  4 18  2  0
 18 19  1  0
 18 20  1  0
 20 21  1  0
 21 22  2  0
 22 23  1  0
 23 24  2  0
 24 25  1  0
 24 26  1  0
 26 27  2  0
 20  2  1  0
 27 21  1  0
 16 11  1  0
  1 28  1  0
  1 29  1  0
  1 30  1  0
  3 31  1  0
  7 32  1  0
  7 33  1  0
 12 34  1  0
 13 35  1  0
 14 36  1  0
 15 37  1  0
 19 38  1  0
 19 39  1  0
 19 40  1  0
 22 41  1  0
 23 42  1  0
 26 43  1  0
 27 44  1  0
M  END
$$$$
