
     RDKit          3D

 40 43  0  0  0  0  0  0  0  0999 V2000
    7.1971    0.9096    1.0677 O   0  0  0  0  0  0  0  0  0  0  0  0
    6.2055    1.3418    1.6729 N   0  0  0  0  0  4  0  0  0  0  0  0
    6.2529    2.1410    2.6187 O   0  0  0  0  0  1  0  0  0  0  0  0
    4.8833    0.8786    1.2332 C   0  0  0  0  0  0  0  0  0  0  0  0
    4.7849   -0.0464    0.1847 C   0  0  0  0  0  0  0  0  0  0  0  0
    3.5239   -0.4862   -0.2320 C   0  0  0  0  0  0  0  0  0  0  0  0
    2.3616   -0.0042    0.3881 C   0  0  0  0  0  0  0  0  0  0  0  0
    1.0416   -0.4600   -0.0430 C   0  0  0  0  0  0  0  0  0  0  0  0
    0.0531   -0.7224    0.8917 N   0  0  0  0  0  0  0  0  0  0  0  0
   -1.0326   -1.1362    0.1398 N   0  0  0  0  0  0  0  0  0  0  0  0
   -2.2898   -1.5321    0.7361 C   0  0  0  0  0  0  0  0  0  0  0  0
   -3.2428   -0.3683    0.8534 C   0  0  0  0  0  0  0  0  0  0  0  0
   -4.3235   -0.2365   -0.0301 C   0  0  0  0  0  0  0  0  0  0  0  0
   -5.2022    0.8425    0.0811 C   0  0  0  0  0  0  0  0  0  0  0  0
   -5.0083    1.8020    1.0731 C   0  0  0  0  0  0  0  0  0  0  0  0
   -3.9342    1.6862    1.9530 C   0  0  0  0  0  0  0  0  0  0  0  0
   -3.0551    0.6080    1.8437 C   0  0  0  0  0  0  0  0  0  0  0  0
   -0.6933   -1.1265   -1.1675 C   0  0  0  0  0  0  0  0  0  0  0  0
   -1.2406   -1.4155   -2.3578 C   0  0  0  0  0  0  0  0  0  0  0  0
   -2.4666   -1.8767   -2.5557 O   0  0  0  0  0  0  0  0  0  0  0  0
   -0.3248   -1.1635   -3.3718 N   0  0  0  0  0  0  0  0  0  0  0  0
    0.8450   -0.6870   -2.7544 C   0  0  0  0  0  0  0  0  0  0  0  0
    1.8821   -0.3278   -3.4965 O   0  0  0  0  0  0  0  0  0  0  0  0
    0.5966   -0.6985   -1.4108 C   0  0  0  0  0  0  0  0  0  0  0  0
    2.4769    0.9134    1.4437 C   0  0  0  0  0  0  0  0  0  0  0  0
    3.7321    1.3603    1.8675 C   0  0  0  0  0  0  0  0  0  0  0  0
    5.6726   -0.4409   -0.3059 H   0  0  0  0  0  0  0  0  0  0  0  0
    3.4599   -1.2308   -1.0232 H   0  0  0  0  0  0  0  0  0  0  0  0
   -2.0752   -1.9469    1.7281 H   0  0  0  0  0  0  0  0  0  0  0  0
   -2.7151   -2.3454    0.1381 H   0  0  0  0  0  0  0  0  0  0  0  0
   -4.4836   -0.9724   -0.8154 H   0  0  0  0  0  0  0  0  0  0  0  0
   -6.0364    0.9361   -0.6091 H   0  0  0  0  0  0  0  0  0  0  0  0
   -5.6914    2.6429    1.1575 H   0  0  0  0  0  0  0  0  0  0  0  0
   -3.7770    2.4374    2.7225 H   0  0  0  0  0  0  0  0  0  0  0  0
   -2.2123    0.5344    2.5294 H   0  0  0  0  0  0  0  0  0  0  0  0
   -2.6202   -1.9853   -3.5104 H   0  0  0  0  0  0  0  0  0  0  0  0
   -0.4446   -1.2696   -4.3692 H   0  0  0  0  0  0  0  0  0  0  0  0
    2.5303    0.0911   -2.9009 H   0  0  0  0  0  0  0  0  0  0  0  0
    1.5804    1.2814    1.9418 H   0  0  0  0  0  0  0  0  0  0  0  0
    3.7900    2.0724    2.6881 H   0  0  0  0  0  0  0  0  0  0  0  0
  1  2  2  0
  2  3  1  0
  2  4  1  0
  4  5  2  0
  5  6  1  0
  6  7  2  0
  7  8  1  0
  8  9  2  0
  9 10  1  0
 10 11  1  0
 11 12  1  0
 12 13  2  0
 13 14  1  0
 14 15  2  0
 15 16  1  0
 16 17  2  0
 10 18  1  0
 18 19  2  0
 19 20  1  0
 19 21  1  0
 21 22  1  0
 22 23  1  0
 22 24  2  0
  7 25  1  0
 25 26  2  0
 26  4  1  0
 24  8  1  0
 17 12  1  0
 24 18  1  0
  5 27  1  0
  6 28  1  0
 11 29  1  0
 11 30  1  0
 13 31  1  0
 14 32  1  0
 15 33  1  0
 16 34  1  0
 17 35  1  0
 20 36  1  0
 21 37  1  0
 23 38  1  0
 25 39  1  0
 26 40  1  0
M  CHG  2   2   1   3  -1
M  END
$$$$
