
     RDKit          3D

 50 52  0  0  0  0  0  0  0  0999 V2000
   -6.3524   -1.2159    0.1918 C   0  0  0  0  0  0  0  0  0  0  0  0
   -5.5917   -0.0762   -0.4871 C   0  0  0  0  0  0  0  0  0  0  0  0
   -4.5964    0.5905    0.4789 C   0  0  0  0  0  0  0  0  0  0  0  0
   -3.1750    0.0582    0.3142 C   0  0  0  0  0  0  0  0  0  0  0  0
   -2.6858    0.2237   -1.0590 N   0  0  0  0  0  0  0  0  0  0  0  0
   -1.3773    0.5581   -1.3955 C   0  0  0  0  0  0  0  0  0  0  0  0
   -1.0385    0.9642   -2.5041 O   0  0  0  0  0  0  0  0  0  0  0  0
   -0.3134    0.4170   -0.3783 C   0  0  0  0  0  0  0  0  0  0  0  0
   -0.0979   -0.8040    0.2699 C   0  0  0  0  0  0  0  0  0  0  0  0
    0.9371   -0.9257    1.2017 C   0  0  0  0  0  0  0  0  0  0  0  0
    1.7831    0.1642    1.4687 C   0  0  0  0  0  0  0  0  0  0  0  0
    3.0512   -0.0739    2.6872 S   0  0  0  0  0  6  0  0  0  0  0  0
    2.4047   -0.7909    3.7734 O   0  0  0  0  0  0  0  0  0  0  0  0
    3.6872    1.1969    2.9616 O   0  0  0  0  0  0  0  0  0  0  0  0
    4.2529   -1.1758    1.9640 C   0  0  0  0  0  0  0  0  0  0  0  0
    4.7160   -0.6852    0.6240 C   0  0  0  0  0  0  0  0  0  0  0  0
    5.6938    0.3113    0.5110 C   0  0  0  0  0  0  0  0  0  0  0  0
    6.1020    0.7590   -0.7481 C   0  0  0  0  0  0  0  0  0  0  0  0
    5.5432    0.2154   -1.9049 C   0  0  0  0  0  0  0  0  0  0  0  0
    4.5752   -0.7803   -1.8048 C   0  0  0  0  0  0  0  0  0  0  0  0
    4.1748   -1.2214   -0.5485 C   0  0  0  0  0  0  0  0  0  0  0  0
    3.2385   -2.1772   -0.4661 F   0  0  0  0  0  0  0  0  0  0  0  0
    1.5534    1.3746    0.8128 C   0  0  0  0  0  0  0  0  0  0  0  0
    2.3451    2.5581    1.0570 N   0  0  0  0  0  4  0  0  0  0  0  0
    3.3880    2.6730    0.4033 O   0  0  0  0  0  0  0  0  0  0  0  0
    1.8630    3.3946    1.8303 O   0  0  0  0  0  1  0  0  0  0  0  0
    0.5183    1.5091   -0.1229 C   0  0  0  0  0  0  0  0  0  0  0  0
   -3.6870    0.2587   -2.1236 C   0  0  0  0  0  0  0  0  0  0  0  0
   -4.9079   -0.5805   -1.7690 C   0  0  0  0  0  0  0  0  0  0  0  0
   -5.6703   -1.9993    0.5389 H   0  0  0  0  0  0  0  0  0  0  0  0
   -7.0693   -1.6702   -0.5003 H   0  0  0  0  0  0  0  0  0  0  0  0
   -6.9122   -0.8472    1.0578 H   0  0  0  0  0  0  0  0  0  0  0  0
   -6.3330    0.6839   -0.7679 H   0  0  0  0  0  0  0  0  0  0  0  0
   -4.9223    0.4800    1.5195 H   0  0  0  0  0  0  0  0  0  0  0  0
   -4.5850    1.6694    0.2729 H   0  0  0  0  0  0  0  0  0  0  0  0
   -3.1431   -1.0124    0.5458 H   0  0  0  0  0  0  0  0  0  0  0  0
   -2.5139    0.5774    1.0147 H   0  0  0  0  0  0  0  0  0  0  0  0
   -0.7249   -1.6642    0.0434 H   0  0  0  0  0  0  0  0  0  0  0  0
    1.0782   -1.8794    1.7098 H   0  0  0  0  0  0  0  0  0  0  0  0
    5.0934   -1.2488    2.6625 H   0  0  0  0  0  0  0  0  0  0  0  0
    3.7989   -2.1698    1.8954 H   0  0  0  0  0  0  0  0  0  0  0  0
    6.1323    0.7665    1.3985 H   0  0  0  0  0  0  0  0  0  0  0  0
    6.8481    1.5474   -0.8251 H   0  0  0  0  0  0  0  0  0  0  0  0
    5.8586    0.5749   -2.8813 H   0  0  0  0  0  0  0  0  0  0  0  0
    4.1299   -1.2104   -2.6965 H   0  0  0  0  0  0  0  0  0  0  0  0
    0.3550    2.4495   -0.6478 H   0  0  0  0  0  0  0  0  0  0  0  0
   -3.9680    1.3068   -2.2824 H   0  0  0  0  0  0  0  0  0  0  0  0
   -3.2388   -0.1060   -3.0548 H   0  0  0  0  0  0  0  0  0  0  0  0
   -4.5921   -1.6247   -1.6437 H   0  0  0  0  0  0  0  0  0  0  0  0
   -5.6259   -0.5679   -2.5974 H   0  0  0  0  0  0  0  0  0  0  0  0
  1  2  1  0
  2  3  1  0
  3  4  1  0
  4  5  1  0
  5  6  1  0
  6  7  2  0
  6  8  1  0
  8  9  2  0
  9 10  1  0
 10 11  2  0
 11 12  1  0
 12 13  2  0
 12 14  2  0
 12 15  1  0
 15 16  1  0
 16 17  2  0
 17 18  1  0
 18 19  2  0
 19 20  1  0
 20 21  2  0
 21 22  1  0
 11 23  1  0
 23 24  1  0
 24 25  2  0
 24 26  1  0
 23 27  2  0
  5 28  1  0
 28 29  1  0
 29  2  1  0
 27  8  1  0
 21 16  1  0
  1 30  1  0
  1 31  1  0
  1 32  1  0
  2 33  1  0
  3 34  1  0
  3 35  1  0
  4 36  1  0
  4 37  1  0
  9 38  1  0
 10 39  1  0
 15 40  1  0
 15 41  1  0
 17 42  1  0
 18 43  1  0
 19 44  1  0
 20 45  1  0
 27 46  1  0
 28 47  1  0
 28 48  1  0
 29 49  1  0
 29 50  1  0
M  CHG  2  24   1  26  -1
M  END
$$$$
