
     RDKit          3D

 42 44  0  0  0  0  0  0  0  0999 V2000
   -5.3807    1.5999    0.5945 C   0  0  0  0  0  0  0  0  0  0  0  0
   -4.8863    0.5634   -0.4264 C   0  0  0  0  0  0  0  0  0  0  0  0
   -5.5961   -0.7732   -0.1447 C   0  0  0  0  0  0  0  0  0  0  0  0
   -5.2459    1.0128   -1.8511 C   0  0  0  0  0  0  0  0  0  0  0  0
   -3.4434    0.3471   -0.2949 N   0  0  0  0  0  0  0  0  0  0  0  0
   -2.4590    1.3050   -0.4708 C   0  0  0  0  0  0  0  0  0  0  0  0
   -2.6886    2.4734   -0.7648 O   0  0  0  0  0  0  0  0  0  0  0  0
   -1.0925    0.7698   -0.2654 C   0  0  0  0  0  0  0  0  0  0  0  0
    0.0478    1.5240   -0.3843 N   0  0  0  0  0  0  0  0  0  0  0  0
    1.0217    0.6841   -0.1280 C   0  0  0  0  0  0  0  0  0  0  0  0
    2.3656    0.9096   -0.1105 N   0  0  0  0  0  0  0  0  0  0  0  0
    3.1372   -0.1010    0.1680 C   0  0  0  0  0  0  0  0  0  0  0  0
    4.6154    0.1018    0.1930 C   0  0  0  0  0  0  0  0  0  0  0  0
    5.1109    1.3511    0.5899 C   0  0  0  0  0  0  0  0  0  0  0  0
    6.4869    1.5833    0.6272 C   0  0  0  0  0  0  0  0  0  0  0  0
    7.3741    0.5735    0.2592 C   0  0  0  0  0  0  0  0  0  0  0  0
    6.8880   -0.6662   -0.1544 C   0  0  0  0  0  0  0  0  0  0  0  0
    5.5114   -0.9036   -0.1929 C   0  0  0  0  0  0  0  0  0  0  0  0
    2.6368   -1.4753    0.4979 C   0  0  0  0  0  0  0  0  0  0  0  0
    1.3012   -1.6487    0.4674 C   0  0  0  0  0  0  0  0  0  0  0  0
    0.6241   -2.9285    0.7693 C   0  0  0  0  0  0  0  0  0  0  0  0
   -0.2066   -2.8403    1.8367 F   0  0  0  0  0  0  0  0  0  0  0  0
    1.5215   -3.9076    1.0706 F   0  0  0  0  0  0  0  0  0  0  0  0
   -0.0992   -3.3945   -0.2783 F   0  0  0  0  0  0  0  0  0  0  0  0
    0.4819   -0.5749    0.1495 N   0  0  0  0  0  0  0  0  0  0  0  0
   -0.8680   -0.5198    0.0599 N   0  0  0  0  0  0  0  0  0  0  0  0
   -6.4713    1.7021    0.5581 H   0  0  0  0  0  0  0  0  0  0  0  0
   -4.9546    2.5914    0.4104 H   0  0  0  0  0  0  0  0  0  0  0  0
   -5.1035    1.3101    1.6147 H   0  0  0  0  0  0  0  0  0  0  0  0
   -5.3675   -1.1367    0.8641 H   0  0  0  0  0  0  0  0  0  0  0  0
   -6.6843   -0.6752   -0.2282 H   0  0  0  0  0  0  0  0  0  0  0  0
   -5.2729   -1.5481   -0.8498 H   0  0  0  0  0  0  0  0  0  0  0  0
   -4.8712    0.2998   -2.5946 H   0  0  0  0  0  0  0  0  0  0  0  0
   -6.3315    1.0928   -1.9785 H   0  0  0  0  0  0  0  0  0  0  0  0
   -4.8169    1.9907   -2.0925 H   0  0  0  0  0  0  0  0  0  0  0  0
   -3.0976   -0.5775   -0.0516 H   0  0  0  0  0  0  0  0  0  0  0  0
    4.4290    2.1514    0.8722 H   0  0  0  0  0  0  0  0  0  0  0  0
    6.8644    2.5546    0.9377 H   0  0  0  0  0  0  0  0  0  0  0  0
    8.4457    0.7575    0.2840 H   0  0  0  0  0  0  0  0  0  0  0  0
    7.5838   -1.4451   -0.4580 H   0  0  0  0  0  0  0  0  0  0  0  0
    5.1650   -1.8675   -0.5534 H   0  0  0  0  0  0  0  0  0  0  0  0
    3.3249   -2.2652    0.7723 H   0  0  0  0  0  0  0  0  0  0  0  0
  1  2  1  0
  2  3  1  0
  2  4  1  0
  2  5  1  0
  5  6  1  0
  6  7  2  0
  6  8  1  0
  8  9  1  0
  9 10  2  0
 10 11  1  0
 11 12  2  0
 12 13  1  0
 13 14  2  0
 14 15  1  0
 15 16  2  0
 16 17  1  0
 17 18  2  0
 12 19  1  0
 19 20  2  0
 20 21  1  0
 21 22  1  0
 21 23  1  0
 21 24  1  0
 20 25  1  0
 25 26  1  0
 26  8  2  0
 25 10  1  0
 18 13  1  0
  1 27  1  0
  1 28  1  0
  1 29  1  0
  3 30  1  0
  3 31  1  0
  3 32  1  0
  4 33  1  0
  4 34  1  0
  4 35  1  0
  5 36  1  0
 14 37  1  0
 15 38  1  0
 16 39  1  0
 17 40  1  0
 18 41  1  0
 19 42  1  0
M  END
$$$$
