
     RDKit          3D

 54 56  0  0  0  0  0  0  0  0999 V2000
   -5.6373   -0.7140    0.8260 C   0  0  0  0  0  0  0  0  0  0  0  0
   -4.6308   -1.8140    0.5452 C   0  0  0  0  0  0  0  0  0  0  0  0
   -3.4316   -1.2515   -0.0004 O   0  0  0  0  0  0  0  0  0  0  0  0
   -2.4991   -0.8207    0.8960 C   0  0  0  0  0  0  0  0  0  0  0  0
   -2.6194   -0.9344    2.1109 O   0  0  0  0  0  0  0  0  0  0  0  0
   -1.3259   -0.2145    0.2660 C   0  0  0  0  0  0  0  0  0  0  0  0
   -1.3700    0.4806   -0.9367 C   0  0  0  0  0  0  0  0  0  0  0  0
   -2.4171    0.7511   -1.7632 N   0  0  0  0  0  0  0  0  0  0  0  0
   -3.1287    1.7739   -1.4165 C   0  0  0  0  0  0  0  0  0  0  0  0
   -4.2483    2.2430   -2.0693 N   0  0  0  0  0  0  0  0  0  0  0  0
   -4.5759    1.7076   -3.3846 C   0  0  0  0  0  0  0  0  0  0  0  0
   -4.7525    3.5759   -1.7802 C   0  0  0  0  0  0  0  0  0  0  0  0
    0.1881    1.0287   -1.4022 S   0  0  0  0  0  0  0  0  0  0  0  0
    0.9318    0.4154    0.0046 C   0  0  0  0  0  0  0  0  0  0  0  0
    2.3559    0.5872    0.2109 C   0  0  0  0  0  0  0  0  0  0  0  0
    3.1154    1.2277   -0.6271 N   0  0  0  0  0  0  0  0  0  0  0  0
    4.4283    1.2551   -0.2435 N   0  0  0  0  0  0  0  0  0  0  0  0
    5.3322    0.4170   -0.9602 C   0  0  0  0  0  0  0  0  0  0  0  0
    4.9055   -0.6401   -1.7749 C   0  0  0  0  0  0  0  0  0  0  0  0
    5.8303   -1.4802   -2.4019 C   0  0  0  0  0  0  0  0  0  0  0  0
    7.1954   -1.2884   -2.2029 C   0  0  0  0  0  0  0  0  0  0  0  0
    7.6361   -0.2612   -1.3723 C   0  0  0  0  0  0  0  0  0  0  0  0
    6.7098    0.5787   -0.7480 C   0  0  0  0  0  0  0  0  0  0  0  0
    0.0124   -0.2244    0.8199 C   0  0  0  0  0  0  0  0  0  0  0  0
    0.4280   -0.8639    2.0610 C   0  0  0  0  0  0  0  0  0  0  0  0
    0.8473   -2.1998    2.0526 C   0  0  0  0  0  0  0  0  0  0  0  0
    1.2544   -2.8102    3.2411 C   0  0  0  0  0  0  0  0  0  0  0  0
    1.2380   -2.0864    4.4328 C   0  0  0  0  0  0  0  0  0  0  0  0
    1.7404   -2.8397    5.8958 Cl  0  0  0  0  0  0  0  0  0  0  0  0
    0.8182   -0.7568    4.4481 C   0  0  0  0  0  0  0  0  0  0  0  0
    0.4119   -0.1433    3.2609 C   0  0  0  0  0  0  0  0  0  0  0  0
   -5.8330   -0.1313   -0.0803 H   0  0  0  0  0  0  0  0  0  0  0  0
   -6.5806   -1.1336    1.1868 H   0  0  0  0  0  0  0  0  0  0  0  0
   -5.2554   -0.0153    1.5769 H   0  0  0  0  0  0  0  0  0  0  0  0
   -4.4236   -2.4085    1.4422 H   0  0  0  0  0  0  0  0  0  0  0  0
   -5.0350   -2.4986   -0.2076 H   0  0  0  0  0  0  0  0  0  0  0  0
   -2.8837    2.3782   -0.5207 H   0  0  0  0  0  0  0  0  0  0  0  0
   -4.5381    0.6129   -3.3837 H   0  0  0  0  0  0  0  0  0  0  0  0
   -5.5896    1.9931   -3.6852 H   0  0  0  0  0  0  0  0  0  0  0  0
   -3.8741    2.0848   -4.1356 H   0  0  0  0  0  0  0  0  0  0  0  0
   -5.7865    3.6889   -2.1224 H   0  0  0  0  0  0  0  0  0  0  0  0
   -4.7444    3.7718   -0.7027 H   0  0  0  0  0  0  0  0  0  0  0  0
   -4.1362    4.3322   -2.2771 H   0  0  0  0  0  0  0  0  0  0  0  0
    2.7955    0.1444    1.1237 H   0  0  0  0  0  0  0  0  0  0  0  0
    4.8219    2.2002   -0.2538 H   0  0  0  0  0  0  0  0  0  0  0  0
    3.8458   -0.8094   -1.9445 H   0  0  0  0  0  0  0  0  0  0  0  0
    5.4803   -2.2842   -3.0440 H   0  0  0  0  0  0  0  0  0  0  0  0
    7.9136   -1.9429   -2.6894 H   0  0  0  0  0  0  0  0  0  0  0  0
    8.6998   -0.1166   -1.2037 H   0  0  0  0  0  0  0  0  0  0  0  0
    7.0724    1.3610   -0.0863 H   0  0  0  0  0  0  0  0  0  0  0  0
    0.8586   -2.7718    1.1273 H   0  0  0  0  0  0  0  0  0  0  0  0
    1.5785   -3.8475    3.2314 H   0  0  0  0  0  0  0  0  0  0  0  0
    0.7979   -0.1963    5.3789 H   0  0  0  0  0  0  0  0  0  0  0  0
    0.0730    0.8899    3.2818 H   0  0  0  0  0  0  0  0  0  0  0  0
  1  2  1  0
  2  3  1  0
  3  4  1  0
  4  5  2  0
  4  6  1  0
  6  7  2  0
  7  8  1  0
  8  9  2  3
  9 10  1  0
 10 11  1  0
 10 12  1  0
  7 13  1  0
 13 14  1  0
 14 15  1  0
 15 16  2  3
 16 17  1  0
 17 18  1  0
 18 19  2  0
 19 20  1  0
 20 21  2  0
 21 22  1  0
 22 23  2  0
 14 24  2  0
 24 25  1  0
 25 26  2  0
 26 27  1  0
 27 28  2  0
 28 29  1  0
 28 30  1  0
 30 31  2  0
 24  6  1  0
 31 25  1  0
 23 18  1  0
  1 32  1  0
  1 33  1  0
  1 34  1  0
  2 35  1  0
  2 36  1  0
  9 37  1  0
 11 38  1  0
 11 39  1  0
 11 40  1  0
 12 41  1  0
 12 42  1  0
 12 43  1  0
 15 44  1  0
 17 45  1  0
 19 46  1  0
 20 47  1  0
 21 48  1  0
 22 49  1  0
 23 50  1  0
 26 51  1  0
 27 52  1  0
 30 53  1  0
 31 54  1  0
M  END
$$$$
