
     RDKit          3D

 58 62  0  0  0  0  0  0  0  0999 V2000
   -5.5711    0.1574   -2.6085 C   0  0  0  0  0  0  0  0  0  0  0  0
   -4.1100    0.0613   -2.1783 C   0  0  0  0  0  0  0  0  0  0  0  0
   -3.8601    0.7402   -0.8049 C   0  0  0  0  0  0  0  0  0  0  0  0
   -3.4246   -0.3955    0.0694 C   0  0  0  0  0  0  0  0  0  0  0  0
   -3.0926   -0.3437    1.4187 C   0  0  0  0  0  0  0  0  0  0  0  0
   -2.7154   -1.5311    2.0571 C   0  0  0  0  0  0  0  0  0  0  0  0
   -2.6858   -2.7439    1.3469 C   0  0  0  0  0  0  0  0  0  0  0  0
   -3.0228   -2.7829   -0.0138 C   0  0  0  0  0  0  0  0  0  0  0  0
   -3.3600   -1.5937   -0.6435 C   0  0  0  0  0  0  0  0  0  0  0  0
   -3.7521   -1.3855   -2.0020 N   0  0  0  0  0  0  0  0  0  0  0  0
   -2.9269   -2.1958   -3.2435 S   0  0  0  0  0  6  0  0  0  0  0  0
   -3.1315   -3.6225   -3.0552 O   0  0  0  0  0  0  0  0  0  0  0  0
   -3.2467   -1.5678   -4.5104 O   0  0  0  0  0  0  0  0  0  0  0  0
   -1.1923   -1.8898   -2.9360 C   0  0  0  0  0  0  0  0  0  0  0  0
   -0.3033   -2.9744   -2.9396 C   0  0  0  0  0  0  0  0  0  0  0  0
    1.0471   -2.7705   -2.6581 C   0  0  0  0  0  0  0  0  0  0  0  0
    1.5073   -1.4897   -2.3479 C   0  0  0  0  0  0  0  0  0  0  0  0
    0.6106   -0.4183   -2.3233 C   0  0  0  0  0  0  0  0  0  0  0  0
    1.0625    0.9421   -1.9608 C   0  0  0  0  0  0  0  0  0  0  0  0
    0.8062    1.8519   -2.7422 O   0  0  0  0  0  0  0  0  0  0  0  0
    1.7463    1.1216   -0.7584 N   0  0  0  0  0  0  0  0  0  0  0  0
    1.4966    0.2755    0.4223 C   0  0  0  0  0  0  0  0  0  0  0  0
    2.6565    0.3146    1.4339 C   0  0  0  0  0  0  0  0  0  0  0  0
    3.0147    1.7014    1.7610 N   0  0  0  0  0  0  0  0  0  0  0  0
    3.9618    1.8159    2.7849 C   0  0  0  0  0  0  0  0  0  0  0  0
    4.1466    0.7765    3.6293 N   0  0  0  0  0  0  0  0  0  0  0  0
    5.0266    0.9280    4.6396 C   0  0  0  0  0  0  0  0  0  0  0  0
    5.7382    2.0839    4.8547 C   0  0  0  0  0  0  0  0  0  0  0  0
    5.5012    3.0892    3.9427 C   0  0  0  0  0  0  0  0  0  0  0  0
    4.6376    2.9765    2.9139 N   0  0  0  0  0  0  0  0  0  0  0  0
    3.2981    2.5550    0.5899 C   0  0  0  0  0  0  0  0  0  0  0  0
    2.1405    2.4962   -0.4248 C   0  0  0  0  0  0  0  0  0  0  0  0
   -0.7299   -0.6036   -2.6609 C   0  0  0  0  0  0  0  0  0  0  0  0
   -5.8789    1.2018   -2.7032 H   0  0  0  0  0  0  0  0  0  0  0  0
   -6.2420   -0.3340   -1.8948 H   0  0  0  0  0  0  0  0  0  0  0  0
   -5.7193   -0.3266   -3.5802 H   0  0  0  0  0  0  0  0  0  0  0  0
   -3.4939    0.5463   -2.9422 H   0  0  0  0  0  0  0  0  0  0  0  0
   -3.0564    1.4800   -0.8854 H   0  0  0  0  0  0  0  0  0  0  0  0
   -4.7580    1.2260   -0.4053 H   0  0  0  0  0  0  0  0  0  0  0  0
   -3.1314    0.5922    1.9709 H   0  0  0  0  0  0  0  0  0  0  0  0
   -2.4566   -1.5186    3.1179 H   0  0  0  0  0  0  0  0  0  0  0  0
   -2.4087   -3.6646    1.8621 H   0  0  0  0  0  0  0  0  0  0  0  0
   -3.0263   -3.7308   -0.5464 H   0  0  0  0  0  0  0  0  0  0  0  0
   -0.6549   -3.9810   -3.1663 H   0  0  0  0  0  0  0  0  0  0  0  0
    1.7383   -3.6070   -2.6768 H   0  0  0  0  0  0  0  0  0  0  0  0
    2.5578   -1.3305   -2.1265 H   0  0  0  0  0  0  0  0  0  0  0  0
    1.2978   -0.7604    0.1449 H   0  0  0  0  0  0  0  0  0  0  0  0
    0.5780    0.6562    0.8901 H   0  0  0  0  0  0  0  0  0  0  0  0
    2.3316   -0.2379    2.3229 H   0  0  0  0  0  0  0  0  0  0  0  0
    3.5241   -0.2020    1.0040 H   0  0  0  0  0  0  0  0  0  0  0  0
    5.1540    0.0563    5.2775 H   0  0  0  0  0  0  0  0  0  0  0  0
    6.4296    2.1939    5.6771 H   0  0  0  0  0  0  0  0  0  0  0  0
    6.0013    4.0528    4.0208 H   0  0  0  0  0  0  0  0  0  0  0  0
    4.2253    2.2148    0.1020 H   0  0  0  0  0  0  0  0  0  0  0  0
    3.4269    3.6073    0.8750 H   0  0  0  0  0  0  0  0  0  0  0  0
    2.4231    3.0403   -1.3392 H   0  0  0  0  0  0  0  0  0  0  0  0
    1.2501    2.9930   -0.0081 H   0  0  0  0  0  0  0  0  0  0  0  0
   -1.3845    0.2536   -2.6854 H   0  0  0  0  0  0  0  0  0  0  0  0
  1  2  1  0
  2  3  1  0
  3  4  1  0
  4  5  2  0
  5  6  1  0
  6  7  2  0
  7  8  1  0
  8  9  2  0
  9 10  1  0
 10 11  1  0
 11 12  2  0
 11 13  2  0
 11 14  1  0
 14 15  2  0
 15 16  1  0
 16 17  2  0
 17 18  1  0
 18 19  1  0
 19 20  2  0
 19 21  1  0
 21 22  1  0
 22 23  1  0
 23 24  1  0
 24 25  1  0
 25 26  2  0
 26 27  1  0
 27 28  2  0
 28 29  1  0
 29 30  2  0
 24 31  1  0
 31 32  1  0
 18 33  2  0
 10  2  1  0
 33 14  1  0
  9  4  1  0
 32 21  1  0
 30 25  1  0
  1 34  1  0
  1 35  1  0
  1 36  1  0
  2 37  1  0
  3 38  1  0
  3 39  1  0
  5 40  1  0
  6 41  1  0
  7 42  1  0
  8 43  1  0
 15 44  1  0
 16 45  1  0
 17 46  1  0
 22 47  1  0
 22 48  1  0
 23 49  1  0
 23 50  1  0
 27 51  1  0
 28 52  1  0
 29 53  1  0
 31 54  1  0
 31 55  1  0
 32 56  1  0
 32 57  1  0
 33 58  1  0
M  END
$$$$
