
     RDKit          3D

 52 54  0  0  0  0  0  0  0  0999 V2000
    3.3826   -0.6441   -1.1757 O   0  0  0  0  0  0  0  0  0  0  0  0
    2.3679   -0.9937   -0.5868 C   0  0  0  0  0  0  0  0  0  0  0  0
    2.0855   -2.2408   -0.0675 N   0  0  0  0  0  0  0  0  0  0  0  0
    2.8881   -3.3959   -0.0982 C   0  0  0  0  0  0  0  0  0  0  0  0
    4.1433   -3.4566   -0.7054 C   0  0  0  0  0  0  0  0  0  0  0  0
    4.8788   -4.6464   -0.6936 C   0  0  0  0  0  0  0  0  0  0  0  0
    4.3653   -5.7838   -0.0750 C   0  0  0  0  0  0  0  0  0  0  0  0
    3.1142   -5.7336    0.5333 C   0  0  0  0  0  0  0  0  0  0  0  0
    2.3795   -4.5450    0.5213 C   0  0  0  0  0  0  0  0  0  0  0  0
    1.2264   -0.0344   -0.3454 C   0  0  0  0  0  0  0  0  0  0  0  0
    1.3778    1.2575   -0.6832 C   0  0  0  0  0  0  0  0  0  0  0  0
    0.3215    2.2923   -0.4123 C   0  0  0  0  0  0  0  0  0  0  0  0
    0.8867    3.5811    0.1622 C   0  0  0  0  0  0  0  0  0  0  0  0
    0.5916    4.8096   -0.4503 C   0  0  0  0  0  0  0  0  0  0  0  0
    1.0944    6.0050    0.0699 C   0  0  0  0  0  0  0  0  0  0  0  0
    1.8953    5.9812    1.2088 C   0  0  0  0  0  0  0  0  0  0  0  0
    2.5750    7.5986    1.9125 Br  0  0  0  0  0  0  0  0  0  0  0  0
    2.1975    4.7741    1.8332 C   0  0  0  0  0  0  0  0  0  0  0  0
    1.6940    3.5796    1.3128 C   0  0  0  0  0  0  0  0  0  0  0  0
   -0.7777    1.7237    0.4897 C   0  0  0  0  0  0  0  0  0  0  0  0
   -1.0820    0.2915    0.0648 C   0  0  0  0  0  0  0  0  0  0  0  0
   -2.1507   -0.1754    0.8928 O   0  0  0  0  0  0  0  0  0  0  0  0
   -2.6983   -1.4255    0.4845 C   0  0  0  0  0  0  0  0  0  0  0  0
   -3.6702   -1.2877   -0.6876 C   0  0  0  0  0  0  0  0  0  0  0  0
   -4.7743   -0.2674   -0.4116 C   0  0  0  0  0  0  0  0  0  0  0  0
   -5.7677   -0.1930   -1.5636 C   0  0  0  0  0  0  0  0  0  0  0  0
   -6.7432    0.8043   -1.2960 O   0  0  0  0  0  0  0  0  0  0  0  0
    0.0712   -0.5441    0.2258 O   0  0  0  0  0  0  0  0  0  0  0  0
    1.1904   -2.3162    0.4035 H   0  0  0  0  0  0  0  0  0  0  0  0
    4.5807   -2.5941   -1.1984 H   0  0  0  0  0  0  0  0  0  0  0  0
    5.8556   -4.6790   -1.1698 H   0  0  0  0  0  0  0  0  0  0  0  0
    4.9406   -6.7058   -0.0674 H   0  0  0  0  0  0  0  0  0  0  0  0
    2.7101   -6.6182    1.0183 H   0  0  0  0  0  0  0  0  0  0  0  0
    1.4064   -4.5311    1.0048 H   0  0  0  0  0  0  0  0  0  0  0  0
    2.3020    1.5952   -1.1504 H   0  0  0  0  0  0  0  0  0  0  0  0
   -0.1276    2.5217   -1.3892 H   0  0  0  0  0  0  0  0  0  0  0  0
   -0.0334    4.8479   -1.3402 H   0  0  0  0  0  0  0  0  0  0  0  0
    0.8557    6.9453   -0.4200 H   0  0  0  0  0  0  0  0  0  0  0  0
    2.8224    4.7499    2.7220 H   0  0  0  0  0  0  0  0  0  0  0  0
    1.9399    2.6447    1.8133 H   0  0  0  0  0  0  0  0  0  0  0  0
   -0.4677    1.7245    1.5439 H   0  0  0  0  0  0  0  0  0  0  0  0
   -1.6812    2.3444    0.4407 H   0  0  0  0  0  0  0  0  0  0  0  0
   -1.3983    0.2734   -0.9858 H   0  0  0  0  0  0  0  0  0  0  0  0
   -3.2396   -1.8284    1.3478 H   0  0  0  0  0  0  0  0  0  0  0  0
   -1.9029   -2.1412    0.2476 H   0  0  0  0  0  0  0  0  0  0  0  0
   -3.1268   -0.9861   -1.5900 H   0  0  0  0  0  0  0  0  0  0  0  0
   -4.1127   -2.2690   -0.8958 H   0  0  0  0  0  0  0  0  0  0  0  0
   -5.3067   -0.5259    0.5121 H   0  0  0  0  0  0  0  0  0  0  0  0
   -4.3459    0.7283   -0.2435 H   0  0  0  0  0  0  0  0  0  0  0  0
   -6.2791   -1.1495   -1.7113 H   0  0  0  0  0  0  0  0  0  0  0  0
   -5.2625    0.0736   -2.4972 H   0  0  0  0  0  0  0  0  0  0  0  0
   -7.1918    0.5644   -0.4671 H   0  0  0  0  0  0  0  0  0  0  0  0
  1  2  2  0
  2  3  1  0
  3  4  1  0
  4  5  2  0
  5  6  1  0
  6  7  2  0
  7  8  1  0
  8  9  2  0
  2 10  1  0
 10 11  2  0
 11 12  1  0
 12 13  1  0
 13 14  2  0
 14 15  1  0
 15 16  2  0
 16 17  1  0
 16 18  1  0
 18 19  2  0
 12 20  1  0
 20 21  1  0
 21 22  1  0
 22 23  1  0
 23 24  1  0
 24 25  1  0
 25 26  1  0
 26 27  1  0
 21 28  1  0
  9  4  1  0
 28 10  1  0
 19 13  1  0
  3 29  1  0
  5 30  1  0
  6 31  1  0
  7 32  1  0
  8 33  1  0
  9 34  1  0
 11 35  1  0
 12 36  1  0
 14 37  1  0
 15 38  1  0
 18 39  1  0
 19 40  1  0
 20 41  1  0
 20 42  1  0
 21 43  1  0
 23 44  1  0
 23 45  1  0
 24 46  1  0
 24 47  1  0
 25 48  1  0
 25 49  1  0
 26 50  1  0
 26 51  1  0
 27 52  1  0
M  END
$$$$
