
     RDKit          3D

 62 63  0  0  0  0  0  0  0  0999 V2000
   -7.2274    1.0279    1.9086 C   0  0  0  0  0  0  0  0  0  0  0  0
   -7.0322    0.2328    0.5993 C   0  0  0  0  0  0  0  0  0  0  0  0
   -7.6879    1.0526   -0.5347 C   0  0  0  0  0  0  0  0  0  0  0  0
   -7.8013   -1.1028    0.6953 C   0  0  0  0  0  0  0  0  0  0  0  0
   -5.5330   -0.0470    0.3860 C   0  0  0  0  0  0  0  0  0  0  0  0
   -4.8148   -0.8004    1.3323 C   0  0  0  0  0  0  0  0  0  0  0  0
   -3.4531   -1.0767    1.1725 C   0  0  0  0  0  0  0  0  0  0  0  0
   -2.7695   -0.6012    0.0562 C   0  0  0  0  0  0  0  0  0  0  0  0
   -1.4367   -0.8160   -0.2046 O   0  0  0  0  0  0  0  0  0  0  0  0
   -0.7118   -1.6359    0.7176 C   0  0  0  0  0  0  0  0  0  0  0  0
    0.7234   -1.7824    0.2101 C   0  0  0  0  0  0  0  0  0  0  0  0
    1.3867   -0.5203    0.3501 O   0  0  0  0  0  0  0  0  0  0  0  0
    2.7401   -0.5002    0.1058 C   0  0  0  0  0  0  0  0  0  0  0  0
    3.4514   -1.5204   -0.5213 C   0  0  0  0  0  0  0  0  0  0  0  0
    4.8314   -1.3979   -0.7149 C   0  0  0  0  0  0  0  0  0  0  0  0
    5.5409   -0.2620   -0.2846 C   0  0  0  0  0  0  0  0  0  0  0  0
    7.0614   -0.1661   -0.5110 C   0  0  0  0  0  0  0  0  0  0  0  0
    7.7211    1.0618    0.1568 C   0  0  0  0  0  0  0  0  0  0  0  0
    7.3404   -0.0759   -2.0255 C   0  0  0  0  0  0  0  0  0  0  0  0
    7.7660   -1.4167    0.0604 C   0  0  0  0  0  0  0  0  0  0  0  0
    4.8013    0.7668    0.3280 C   0  0  0  0  0  0  0  0  0  0  0  0
    3.4170    0.6619    0.5199 C   0  0  0  0  0  0  0  0  0  0  0  0
    2.6358    1.6755    1.1176 N   0  0  0  0  0  0  0  0  0  0  0  0
    3.0444    2.8902    1.6087 C   0  0  0  0  0  0  0  0  0  0  0  0
    4.1694    3.3646    1.6600 O   0  0  0  0  0  0  0  0  0  0  0  0
   -3.4594    0.1634   -0.9038 C   0  0  0  0  0  0  0  0  0  0  0  0
   -2.7096    0.6278   -2.0072 N   0  0  0  0  0  0  0  0  0  0  0  0
   -3.1377    1.3703   -3.0776 C   0  0  0  0  0  0  0  0  0  0  0  0
   -4.2559    1.7952   -3.3252 O   0  0  0  0  0  0  0  0  0  0  0  0
   -4.8248    0.4281   -0.7333 C   0  0  0  0  0  0  0  0  0  0  0  0
   -6.8901    0.4682    2.7872 H   0  0  0  0  0  0  0  0  0  0  0  0
   -6.6680    1.9705    1.8843 H   0  0  0  0  0  0  0  0  0  0  0  0
   -8.2841    1.2712    2.0697 H   0  0  0  0  0  0  0  0  0  0  0  0
   -8.7541    1.2167   -0.3379 H   0  0  0  0  0  0  0  0  0  0  0  0
   -7.6140    0.5378   -1.4999 H   0  0  0  0  0  0  0  0  0  0  0  0
   -7.2250    2.0407   -0.6378 H   0  0  0  0  0  0  0  0  0  0  0  0
   -8.8772   -0.9324    0.8185 H   0  0  0  0  0  0  0  0  0  0  0  0
   -7.4762   -1.7100    1.5459 H   0  0  0  0  0  0  0  0  0  0  0  0
   -7.6598   -1.7038   -0.2104 H   0  0  0  0  0  0  0  0  0  0  0  0
   -5.3130   -1.1869    2.2194 H   0  0  0  0  0  0  0  0  0  0  0  0
   -2.9658   -1.6637    1.9426 H   0  0  0  0  0  0  0  0  0  0  0  0
   -0.7037   -1.1606    1.7054 H   0  0  0  0  0  0  0  0  0  0  0  0
   -1.1708   -2.6299    0.7683 H   0  0  0  0  0  0  0  0  0  0  0  0
    0.7089   -2.0718   -0.8471 H   0  0  0  0  0  0  0  0  0  0  0  0
    1.2346   -2.5414    0.8139 H   0  0  0  0  0  0  0  0  0  0  0  0
    2.9684   -2.4207   -0.8842 H   0  0  0  0  0  0  0  0  0  0  0  0
    5.3488   -2.2120   -1.2189 H   0  0  0  0  0  0  0  0  0  0  0  0
    7.3416    2.0026   -0.2581 H   0  0  0  0  0  0  0  0  0  0  0  0
    7.5503    1.0706    1.2385 H   0  0  0  0  0  0  0  0  0  0  0  0
    8.8072    1.0631   -0.0013 H   0  0  0  0  0  0  0  0  0  0  0  0
    6.8489    0.7995   -2.4651 H   0  0  0  0  0  0  0  0  0  0  0  0
    6.9801   -0.9592   -2.5631 H   0  0  0  0  0  0  0  0  0  0  0  0
    8.4143    0.0098   -2.2255 H   0  0  0  0  0  0  0  0  0  0  0  0
    7.4710   -2.3347   -0.4587 H   0  0  0  0  0  0  0  0  0  0  0  0
    7.5345   -1.5489    1.1237 H   0  0  0  0  0  0  0  0  0  0  0  0
    8.8549   -1.3361   -0.0362 H   0  0  0  0  0  0  0  0  0  0  0  0
    5.3092    1.6659    0.6572 H   0  0  0  0  0  0  0  0  0  0  0  0
    1.6443    1.4617    1.1641 H   0  0  0  0  0  0  0  0  0  0  0  0
    2.1793    3.4563    1.9953 H   0  0  0  0  0  0  0  0  0  0  0  0
   -1.7291    0.3654   -1.9814 H   0  0  0  0  0  0  0  0  0  0  0  0
   -2.2981    1.5676   -3.7665 H   0  0  0  0  0  0  0  0  0  0  0  0
   -5.3426    1.0153   -1.4835 H   0  0  0  0  0  0  0  0  0  0  0  0
  1  2  1  0
  2  3  1  0
  2  4  1  0
  2  5  1  0
  5  6  2  0
  6  7  1  0
  7  8  2  0
  8  9  1  0
  9 10  1  0
 10 11  1  0
 11 12  1  0
 12 13  1  0
 13 14  2  0
 14 15  1  0
 15 16  2  0
 16 17  1  0
 17 18  1  0
 17 19  1  0
 17 20  1  0
 16 21  1  0
 21 22  2  0
 22 23  1  0
 23 24  1  0
 24 25  2  0
  8 26  1  0
 26 27  1  0
 27 28  1  0
 28 29  2  0
 26 30  2  0
 30  5  1  0
 22 13  1  0
  1 31  1  0
  1 32  1  0
  1 33  1  0
  3 34  1  0
  3 35  1  0
  3 36  1  0
  4 37  1  0
  4 38  1  0
  4 39  1  0
  6 40  1  0
  7 41  1  0
 10 42  1  0
 10 43  1  0
 11 44  1  0
 11 45  1  0
 14 46  1  0
 15 47  1  0
 18 48  1  0
 18 49  1  0
 18 50  1  0
 19 51  1  0
 19 52  1  0
 19 53  1  0
 20 54  1  0
 20 55  1  0
 20 56  1  0
 21 57  1  0
 23 58  1  0
 24 59  1  0
 27 60  1  0
 28 61  1  0
 30 62  1  0
M  END
$$$$
