
     RDKit          3D

 48 51  0  0  0  0  0  0  0  0999 V2000
    0.0213    2.3350   -0.3282 O   0  0  0  0  0  0  0  0  0  0  0  0
    0.7255    1.4791    0.2056 C   0  0  0  0  0  0  0  0  0  0  0  0
    2.1903    1.7584    0.5706 C   0  0  0  0  0  0  0  0  0  0  0  0
    2.9367    0.5140    0.8955 N   0  0  0  0  0  0  0  0  0  0  0  0
    3.5756    0.5041    2.2179 C   0  0  0  0  0  0  0  0  0  0  0  0
    4.0166   -0.9005    2.5856 C   0  0  0  0  0  0  0  0  0  0  0  0
    5.0582   -1.3678    1.5848 C   0  0  0  0  0  0  0  0  0  0  0  0
    4.6088   -1.1233    0.1661 C   0  0  0  0  0  0  0  0  0  0  0  0
    5.2601   -1.8314   -0.8610 C   0  0  0  0  0  0  0  0  0  0  0  0
    4.8949   -1.6492   -2.1895 C   0  0  0  0  0  0  0  0  0  0  0  0
    3.8771   -0.7590   -2.4999 C   0  0  0  0  0  0  0  0  0  0  0  0
    3.2355   -0.0423   -1.4836 C   0  0  0  0  0  0  0  0  0  0  0  0
    3.5956   -0.1832   -0.1312 C   0  0  0  0  0  0  0  0  0  0  0  0
    0.3194    0.1997    0.5829 N   0  0  0  0  0  0  0  0  0  0  0  0
   -0.8565   -0.3988    0.2103 N   0  0  0  0  0  0  0  0  0  0  0  0
   -1.9280    0.3374    0.1962 C   0  0  0  0  0  0  0  0  0  0  0  0
   -3.2406   -0.2127   -0.2323 C   0  0  0  0  0  0  0  0  0  0  0  0
   -3.3955   -1.6051   -0.3548 C   0  0  0  0  0  0  0  0  0  0  0  0
   -2.3827   -2.5037   -0.1437 O   0  0  0  0  0  0  0  0  0  0  0  0
   -4.6224   -2.1557   -0.6958 C   0  0  0  0  0  0  0  0  0  0  0  0
   -5.7125   -1.3221   -0.9250 C   0  0  0  0  0  0  0  0  0  0  0  0
   -5.5891    0.0720   -0.8301 C   0  0  0  0  0  0  0  0  0  0  0  0
   -6.7095    0.8811   -1.0820 C   0  0  0  0  0  0  0  0  0  0  0  0
   -6.6249    2.2695   -1.0157 C   0  0  0  0  0  0  0  0  0  0  0  0
   -5.4142    2.8683   -0.7026 C   0  0  0  0  0  0  0  0  0  0  0  0
   -4.2901    2.0780   -0.4461 C   0  0  0  0  0  0  0  0  0  0  0  0
   -4.3413    0.6594   -0.4884 C   0  0  0  0  0  0  0  0  0  0  0  0
    2.6731    2.3164   -0.2395 H   0  0  0  0  0  0  0  0  0  0  0  0
    2.1639    2.4224    1.4436 H   0  0  0  0  0  0  0  0  0  0  0  0
    2.8582    0.8497    2.9720 H   0  0  0  0  0  0  0  0  0  0  0  0
    4.4247    1.1994    2.2312 H   0  0  0  0  0  0  0  0  0  0  0  0
    4.4344   -0.9199    3.5981 H   0  0  0  0  0  0  0  0  0  0  0  0
    3.1530   -1.5781    2.5743 H   0  0  0  0  0  0  0  0  0  0  0  0
    6.0003   -0.8297    1.7473 H   0  0  0  0  0  0  0  0  0  0  0  0
    5.2506   -2.4354    1.7438 H   0  0  0  0  0  0  0  0  0  0  0  0
    6.0533   -2.5361   -0.6212 H   0  0  0  0  0  0  0  0  0  0  0  0
    5.3958   -2.2053   -2.9769 H   0  0  0  0  0  0  0  0  0  0  0  0
    3.5719   -0.6199   -3.5339 H   0  0  0  0  0  0  0  0  0  0  0  0
    2.4353    0.6246   -1.7912 H   0  0  0  0  0  0  0  0  0  0  0  0
    1.1059   -0.4386    0.7350 H   0  0  0  0  0  0  0  0  0  0  0  0
   -1.9071    1.3793    0.5451 H   0  0  0  0  0  0  0  0  0  0  0  0
   -1.5594   -1.9876    0.0049 H   0  0  0  0  0  0  0  0  0  0  0  0
   -4.7295   -3.2337   -0.7806 H   0  0  0  0  0  0  0  0  0  0  0  0
   -6.6659   -1.7762   -1.1890 H   0  0  0  0  0  0  0  0  0  0  0  0
   -7.6666    0.4312   -1.3396 H   0  0  0  0  0  0  0  0  0  0  0  0
   -7.5013    2.8797   -1.2173 H   0  0  0  0  0  0  0  0  0  0  0  0
   -5.3355    3.9520   -0.6625 H   0  0  0  0  0  0  0  0  0  0  0  0
   -3.3636    2.6046   -0.2298 H   0  0  0  0  0  0  0  0  0  0  0  0
  1  2  2  0
  2  3  1  0
  3  4  1  0
  4  5  1  0
  5  6  1  0
  6  7  1  0
  7  8  1  0
  8  9  2  0
  9 10  1  0
 10 11  2  0
 11 12  1  0
 12 13  2  0
  2 14  1  0
 14 15  1  0
 15 16  2  3
 16 17  1  0
 17 18  2  0
 18 19  1  0
 18 20  1  0
 20 21  2  0
 21 22  1  0
 22 23  2  0
 23 24  1  0
 24 25  2  0
 25 26  1  0
 26 27  2  0
 13  4  1  0
 27 17  1  0
 13  8  1  0
 27 22  1  0
  3 28  1  0
  3 29  1  0
  5 30  1  0
  5 31  1  0
  6 32  1  0
  6 33  1  0
  7 34  1  0
  7 35  1  0
  9 36  1  0
 10 37  1  0
 11 38  1  0
 12 39  1  0
 14 40  1  0
 16 41  1  0
 19 42  1  0
 20 43  1  0
 21 44  1  0
 23 45  1  0
 24 46  1  0
 25 47  1  0
 26 48  1  0
M  END
$$$$
