
     RDKit          3D

 68 71  0  0  0  0  0  0  0  0999 V2000
    8.8962   -2.2192   -4.2875 C   0  0  0  0  0  0  0  0  0  0  0  0
    8.1272   -2.9255   -3.3215 O   0  0  0  0  0  0  0  0  0  0  0  0
    6.8326   -2.5230   -3.1470 C   0  0  0  0  0  0  0  0  0  0  0  0
    6.1822   -1.5156   -3.8605 C   0  0  0  0  0  0  0  0  0  0  0  0
    4.8477   -1.2013   -3.5775 C   0  0  0  0  0  0  0  0  0  0  0  0
    4.1559   -1.8919   -2.5775 C   0  0  0  0  0  0  0  0  0  0  0  0
    2.7669   -1.5501   -2.2616 C   0  0  0  0  0  0  0  0  0  0  0  0
    2.3980   -0.5581   -1.4266 C   0  0  0  0  0  0  0  0  0  0  0  0
    3.3432    0.2760   -0.7665 C   0  0  0  0  0  0  0  0  0  0  0  0
    4.0676    0.9786   -0.1925 N   0  0  0  0  0  0  0  0  0  0  0  0
    0.9237   -0.3504   -1.2091 C   0  0  0  0  0  0  0  0  0  0  0  0
    0.1052   -0.9707   -1.8836 O   0  0  0  0  0  0  0  0  0  0  0  0
    0.6090    0.5383   -0.2070 N   0  0  0  0  0  0  0  0  0  0  0  0
   -0.6660    0.9704    0.2223 C   0  0  0  0  0  0  0  0  0  0  0  0
   -1.8642    0.6390   -0.4081 C   0  0  0  0  0  0  0  0  0  0  0  0
   -3.0635    1.1188    0.1235 C   0  0  0  0  0  0  0  0  0  0  0  0
   -4.6096    0.7373   -0.6640 S   0  0  0  0  0  6  0  0  0  0  0  0
   -5.4160    1.9406   -0.6219 O   0  0  0  0  0  0  0  0  0  0  0  0
   -4.3509    0.0563   -1.9145 O   0  0  0  0  0  0  0  0  0  0  0  0
   -5.2958   -0.3996    0.4122 N   0  0  0  0  0  0  0  0  0  0  0  0
   -4.5697   -1.6958    0.5534 C   0  0  0  0  0  0  0  0  0  0  0  0
   -5.3754   -2.8621   -0.0025 C   0  0  0  0  0  0  0  0  0  0  0  0
   -6.7247   -3.0047    0.6983 C   0  0  0  0  0  0  0  0  0  0  0  0
   -7.2920   -1.6591    1.1454 C   0  0  0  0  0  0  0  0  0  0  0  0
   -6.7738   -0.5207    0.2764 C   0  0  0  0  0  0  0  0  0  0  0  0
   -3.0740    1.9375    1.2562 C   0  0  0  0  0  0  0  0  0  0  0  0
   -1.8714    2.2762    1.8777 C   0  0  0  0  0  0  0  0  0  0  0  0
   -0.6555    1.8024    1.3754 C   0  0  0  0  0  0  0  0  0  0  0  0
    0.5880    2.1101    1.9554 N   0  0  0  0  0  0  0  0  0  0  0  0
    1.0994    3.4642    1.6961 C   0  0  0  0  0  0  0  0  0  0  0  0
    0.7561    4.4398    2.8186 C   0  0  0  0  0  0  0  0  0  0  0  0
    1.1616    3.8856    4.1806 C   0  0  0  0  0  0  0  0  0  0  0  0
    0.5332    2.5164    4.4177 C   0  0  0  0  0  0  0  0  0  0  0  0
    0.8564    1.5456    3.2845 C   0  0  0  0  0  0  0  0  0  0  0  0
    4.8044   -2.9035   -1.8659 C   0  0  0  0  0  0  0  0  0  0  0  0
    6.1358   -3.2151   -2.1528 C   0  0  0  0  0  0  0  0  0  0  0  0
    9.9009   -2.6540   -4.2983 H   0  0  0  0  0  0  0  0  0  0  0  0
    8.4729   -2.3363   -5.2909 H   0  0  0  0  0  0  0  0  0  0  0  0
    8.9935   -1.1617   -4.0188 H   0  0  0  0  0  0  0  0  0  0  0  0
    6.6819   -0.9540   -4.6428 H   0  0  0  0  0  0  0  0  0  0  0  0
    4.3581   -0.4125   -4.1452 H   0  0  0  0  0  0  0  0  0  0  0  0
    2.0241   -2.1770   -2.7530 H   0  0  0  0  0  0  0  0  0  0  0  0
    1.3354    0.9402    0.3854 H   0  0  0  0  0  0  0  0  0  0  0  0
   -1.8848    0.0244   -1.3022 H   0  0  0  0  0  0  0  0  0  0  0  0
   -3.5970   -1.6678    0.0534 H   0  0  0  0  0  0  0  0  0  0  0  0
   -4.3651   -1.8480    1.6200 H   0  0  0  0  0  0  0  0  0  0  0  0
   -5.5405   -2.7087   -1.0766 H   0  0  0  0  0  0  0  0  0  0  0  0
   -4.8107   -3.7961    0.0954 H   0  0  0  0  0  0  0  0  0  0  0  0
   -6.6293   -3.6595    1.5730 H   0  0  0  0  0  0  0  0  0  0  0  0
   -7.4271   -3.5005    0.0172 H   0  0  0  0  0  0  0  0  0  0  0  0
   -8.3869   -1.6928    1.1191 H   0  0  0  0  0  0  0  0  0  0  0  0
   -7.0073   -1.4767    2.1899 H   0  0  0  0  0  0  0  0  0  0  0  0
   -7.0492   -0.6875   -0.7712 H   0  0  0  0  0  0  0  0  0  0  0  0
   -7.2359    0.4147    0.6101 H   0  0  0  0  0  0  0  0  0  0  0  0
   -4.0137    2.3184    1.6515 H   0  0  0  0  0  0  0  0  0  0  0  0
   -1.9012    2.9209    2.7491 H   0  0  0  0  0  0  0  0  0  0  0  0
    0.7353    3.8519    0.7359 H   0  0  0  0  0  0  0  0  0  0  0  0
    2.1912    3.3977    1.6032 H   0  0  0  0  0  0  0  0  0  0  0  0
   -0.3183    4.6550    2.8172 H   0  0  0  0  0  0  0  0  0  0  0  0
    1.2670    5.3936    2.6430 H   0  0  0  0  0  0  0  0  0  0  0  0
    0.8530    4.5783    4.9711 H   0  0  0  0  0  0  0  0  0  0  0  0
    2.2539    3.8019    4.2335 H   0  0  0  0  0  0  0  0  0  0  0  0
   -0.5508    2.6273    4.5245 H   0  0  0  0  0  0  0  0  0  0  0  0
    0.8965    2.1041    5.3662 H   0  0  0  0  0  0  0  0  0  0  0  0
    1.9236    1.2951    3.3281 H   0  0  0  0  0  0  0  0  0  0  0  0
    0.3177    0.6007    3.4318 H   0  0  0  0  0  0  0  0  0  0  0  0
    4.2881   -3.4558   -1.0841 H   0  0  0  0  0  0  0  0  0  0  0  0
    6.6372   -4.0021   -1.5940 H   0  0  0  0  0  0  0  0  0  0  0  0
  1  2  1  0
  2  3  1  0
  3  4  2  0
  4  5  1  0
  5  6  2  0
  6  7  1  0
  7  8  2  3
  8  9  1  0
  9 10  3  0
  8 11  1  0
 11 12  2  0
 11 13  1  0
 13 14  1  0
 14 15  2  0
 15 16  1  0
 16 17  1  0
 17 18  2  0
 17 19  2  0
 17 20  1  0
 20 21  1  0
 21 22  1  0
 22 23  1  0
 23 24  1  0
 24 25  1  0
 16 26  2  0
 26 27  1  0
 27 28  2  0
 28 29  1  0
 29 30  1  0
 30 31  1  0
 31 32  1  0
 32 33  1  0
 33 34  1  0
  6 35  1  0
 35 36  2  0
 36  3  1  0
 28 14  1  0
 34 29  1  0
 25 20  1  0
  1 37  1  0
  1 38  1  0
  1 39  1  0
  4 40  1  0
  5 41  1  0
  7 42  1  0
 13 43  1  0
 15 44  1  0
 21 45  1  0
 21 46  1  0
 22 47  1  0
 22 48  1  0
 23 49  1  0
 23 50  1  0
 24 51  1  0
 24 52  1  0
 25 53  1  0
 25 54  1  0
 26 55  1  0
 27 56  1  0
 30 57  1  0
 30 58  1  0
 31 59  1  0
 31 60  1  0
 32 61  1  0
 32 62  1  0
 33 63  1  0
 33 64  1  0
 34 65  1  0
 34 66  1  0
 35 67  1  0
 36 68  1  0
M  END
$$$$
