
     RDKit          3D

 47 49  0  0  0  0  0  0  0  0999 V2000
    6.5657   -1.4548   -1.5946 C   0  0  0  0  0  0  0  0  0  0  0  0
    5.4394   -2.2667   -0.9739 C   0  0  0  0  0  0  0  0  0  0  0  0
    4.5399   -1.4506   -0.0437 C   0  0  0  0  0  0  0  0  0  0  0  0
    3.7379   -0.3699   -0.7741 C   0  0  0  0  0  0  0  0  0  0  0  0
    2.8326    0.3536    0.1160 N   0  0  0  0  0  0  0  0  0  0  0  0
    1.5735   -0.2842    0.4621 C   0  0  0  0  0  0  0  0  0  0  0  0
    0.6254    0.6239    1.1698 C   0  0  0  0  0  0  0  0  0  0  0  0
   -0.7410    0.3497    1.2854 C   0  0  0  0  0  0  0  0  0  0  0  0
   -1.5462    1.2136    2.0297 C   0  0  0  0  0  0  0  0  0  0  0  0
   -2.9935    0.9970    2.2186 C   0  0  0  0  0  0  0  0  0  0  0  0
   -3.4885    1.2306    3.3206 O   0  0  0  0  0  0  0  0  0  0  0  0
   -3.8721    0.4777    1.1407 C   0  0  0  0  0  0  0  0  0  0  0  0
   -3.5859    0.7087   -0.2108 C   0  0  0  0  0  0  0  0  0  0  0  0
   -4.4182    0.1977   -1.2134 C   0  0  0  0  0  0  0  0  0  0  0  0
   -4.0110    0.4854   -2.4869 O   0  0  0  0  0  0  0  0  0  0  0  0
   -4.8557    0.0512   -3.5467 C   0  0  0  0  0  0  0  0  0  0  0  0
   -5.5501   -0.5384   -0.8613 C   0  0  0  0  0  0  0  0  0  0  0  0
   -5.8583   -0.7480    0.4853 C   0  0  0  0  0  0  0  0  0  0  0  0
   -5.0313   -0.2316    1.4784 C   0  0  0  0  0  0  0  0  0  0  0  0
   -5.4170   -0.4580    2.7720 O   0  0  0  0  0  0  0  0  0  0  0  0
   -0.9382    2.2837    2.6724 C   0  0  0  0  0  0  0  0  0  0  0  0
    0.3843    2.5661    2.5775 N   0  0  0  0  0  0  0  0  0  0  0  0
    1.1299    1.7357    1.8225 C   0  0  0  0  0  0  0  0  0  0  0  0
    2.4747    2.0242    1.7059 N   0  0  0  0  0  0  0  0  0  0  0  0
    3.3414    1.3965    0.8676 C   0  0  0  0  0  0  0  0  0  0  0  0
    4.5042    1.7868    0.7843 O   0  0  0  0  0  0  0  0  0  0  0  0
    7.2299   -2.1108   -2.1666 H   0  0  0  0  0  0  0  0  0  0  0  0
    6.1819   -0.6943   -2.2806 H   0  0  0  0  0  0  0  0  0  0  0  0
    7.1627   -0.9573   -0.8239 H   0  0  0  0  0  0  0  0  0  0  0  0
    5.8805   -3.0883   -0.3969 H   0  0  0  0  0  0  0  0  0  0  0  0
    4.8382   -2.7245   -1.7680 H   0  0  0  0  0  0  0  0  0  0  0  0
    5.1450   -0.9973    0.7509 H   0  0  0  0  0  0  0  0  0  0  0  0
    3.8490   -2.1416    0.4542 H   0  0  0  0  0  0  0  0  0  0  0  0
    3.1444   -0.8076   -1.5850 H   0  0  0  0  0  0  0  0  0  0  0  0
    4.4187    0.3567   -1.2310 H   0  0  0  0  0  0  0  0  0  0  0  0
    1.1132   -0.6405   -0.4665 H   0  0  0  0  0  0  0  0  0  0  0  0
    1.7922   -1.1447    1.1043 H   0  0  0  0  0  0  0  0  0  0  0  0
   -1.1563   -0.5396    0.8184 H   0  0  0  0  0  0  0  0  0  0  0  0
   -2.7261    1.3022   -0.5115 H   0  0  0  0  0  0  0  0  0  0  0  0
   -5.8499    0.5039   -3.4708 H   0  0  0  0  0  0  0  0  0  0  0  0
   -4.9189   -1.0414   -3.5765 H   0  0  0  0  0  0  0  0  0  0  0  0
   -4.4086    0.3848   -4.4881 H   0  0  0  0  0  0  0  0  0  0  0  0
   -6.2202   -0.9549   -1.6064 H   0  0  0  0  0  0  0  0  0  0  0  0
   -6.7493   -1.3067    0.7612 H   0  0  0  0  0  0  0  0  0  0  0  0
   -4.8756    0.1231    3.3531 H   0  0  0  0  0  0  0  0  0  0  0  0
   -1.5093    2.9670    3.2969 H   0  0  0  0  0  0  0  0  0  0  0  0
    2.8169    2.8317    2.2046 H   0  0  0  0  0  0  0  0  0  0  0  0
  1  2  1  0
  2  3  1  0
  3  4  1  0
  4  5  1  0
  5  6  1  0
  6  7  1  0
  7  8  2  0
  8  9  1  0
  9 10  1  0
 10 11  2  0
 10 12  1  0
 12 13  2  0
 13 14  1  0
 14 15  1  0
 15 16  1  0
 14 17  2  0
 17 18  1  0
 18 19  2  0
 19 20  1  0
  9 21  2  0
 21 22  1  0
 22 23  2  0
 23 24  1  0
 24 25  1  0
 25 26  2  0
 25  5  1  0
 23  7  1  0
 19 12  1  0
  1 27  1  0
  1 28  1  0
  1 29  1  0
  2 30  1  0
  2 31  1  0
  3 32  1  0
  3 33  1  0
  4 34  1  0
  4 35  1  0
  6 36  1  0
  6 37  1  0
  8 38  1  0
 13 39  1  0
 16 40  1  0
 16 41  1  0
 16 42  1  0
 17 43  1  0
 18 44  1  0
 20 45  1  0
 21 46  1  0
 24 47  1  0
M  END
$$$$
