
     RDKit          3D

 53 56  0  0  0  0  0  0  0  0999 V2000
   -0.0689    1.6850    1.2109 O   0  0  0  0  0  0  0  0  0  0  0  0
    0.5959    0.8899    0.5465 C   0  0  0  0  0  0  0  0  0  0  0  0
   -0.0420   -0.3245   -0.1063 C   0  0  0  0  0  0  0  0  0  0  0  0
   -1.5592   -0.2935    0.0419 C   0  0  0  0  0  0  0  0  0  0  0  0
   -2.2739   -1.7769   -0.7406 S   0  0  0  0  0  0  0  0  0  0  0  0
   -3.9722   -1.5655   -0.2775 C   0  0  0  0  0  0  0  0  0  0  0  0
   -4.6753   -2.6761   -0.0393 N   0  0  0  0  0  0  0  0  0  0  0  0
   -5.9709   -2.5268    0.2949 C   0  0  0  0  0  0  0  0  0  0  0  0
   -6.7127   -3.7594    0.5512 C   0  0  0  0  0  0  0  0  0  0  0  0
   -8.0139   -4.0493    0.9240 C   0  0  0  0  0  0  0  0  0  0  0  0
   -8.1135   -5.4605    1.0068 C   0  0  0  0  0  0  0  0  0  0  0  0
   -6.8717   -5.9491    0.6821 C   0  0  0  0  0  0  0  0  0  0  0  0
   -6.0194   -4.9309    0.4062 O   0  0  0  0  0  0  0  0  0  0  0  0
   -6.5714   -1.2894    0.3910 C   0  0  0  0  0  0  0  0  0  0  0  0
   -5.7737   -0.1896    0.1286 C   0  0  0  0  0  0  0  0  0  0  0  0
   -6.3919    1.1968    0.1966 C   0  0  0  0  0  0  0  0  0  0  0  0
   -7.2202    1.4446   -0.8584 F   0  0  0  0  0  0  0  0  0  0  0  0
   -7.1639    1.3644    1.3109 F   0  0  0  0  0  0  0  0  0  0  0  0
   -5.4886    2.2146    0.2150 F   0  0  0  0  0  0  0  0  0  0  0  0
   -4.4689   -0.3223   -0.2143 N   0  0  0  0  0  0  0  0  0  0  0  0
    1.9610    1.0461    0.3625 N   0  0  0  0  0  0  0  0  0  0  0  0
    2.8140    0.1251   -0.3977 C   0  0  0  0  0  0  0  0  0  0  0  0
    4.3160    0.2868   -0.0933 C   0  0  0  0  0  0  0  0  0  0  0  0
    4.7547    1.6783   -0.2765 N   0  0  0  0  0  0  0  0  0  0  0  0
    6.0861    1.9971   -0.5064 C   0  0  0  0  0  0  0  0  0  0  0  0
    7.1261    1.0808   -0.2797 C   0  0  0  0  0  0  0  0  0  0  0  0
    8.4683    1.4048   -0.5176 C   0  0  0  0  0  0  0  0  0  0  0  0
    8.8077    2.6630   -0.9973 C   0  0  0  0  0  0  0  0  0  0  0  0
    7.8041    3.5920   -1.2388 C   0  0  0  0  0  0  0  0  0  0  0  0
    6.4655    3.2587   -0.9966 C   0  0  0  0  0  0  0  0  0  0  0  0
    3.7767    2.7400    0.0308 C   0  0  0  0  0  0  0  0  0  0  0  0
    2.6267    2.2281    0.9175 C   0  0  0  0  0  0  0  0  0  0  0  0
    0.2298   -0.3335   -1.1686 H   0  0  0  0  0  0  0  0  0  0  0  0
    0.3619   -1.2207    0.3800 H   0  0  0  0  0  0  0  0  0  0  0  0
   -1.9654    0.6050   -0.4357 H   0  0  0  0  0  0  0  0  0  0  0  0
   -1.8389   -0.2752    1.1014 H   0  0  0  0  0  0  0  0  0  0  0  0
   -8.8023   -3.3355    1.1148 H   0  0  0  0  0  0  0  0  0  0  0  0
   -8.9812   -6.0487    1.2702 H   0  0  0  0  0  0  0  0  0  0  0  0
   -6.4510   -6.9421    0.6046 H   0  0  0  0  0  0  0  0  0  0  0  0
   -7.6153   -1.1737    0.6567 H   0  0  0  0  0  0  0  0  0  0  0  0
    2.6273    0.3301   -1.4591 H   0  0  0  0  0  0  0  0  0  0  0  0
    2.5110   -0.9075   -0.1989 H   0  0  0  0  0  0  0  0  0  0  0  0
    4.8591   -0.3875   -0.7653 H   0  0  0  0  0  0  0  0  0  0  0  0
    4.5175   -0.0214    0.9398 H   0  0  0  0  0  0  0  0  0  0  0  0
    6.9170    0.0909    0.1135 H   0  0  0  0  0  0  0  0  0  0  0  0
    9.2442    0.6696   -0.3224 H   0  0  0  0  0  0  0  0  0  0  0  0
    9.8472    2.9171   -1.1835 H   0  0  0  0  0  0  0  0  0  0  0  0
    8.0543    4.5773   -1.6219 H   0  0  0  0  0  0  0  0  0  0  0  0
    5.7138    4.0092   -1.2258 H   0  0  0  0  0  0  0  0  0  0  0  0
    3.3671    3.1212   -0.9131 H   0  0  0  0  0  0  0  0  0  0  0  0
    4.2524    3.5750    0.5607 H   0  0  0  0  0  0  0  0  0  0  0  0
    1.9042    3.0345    1.0811 H   0  0  0  0  0  0  0  0  0  0  0  0
    3.0169    1.9334    1.8995 H   0  0  0  0  0  0  0  0  0  0  0  0
  1  2  2  0
  2  3  1  0
  3  4  1  0
  4  5  1  0
  5  6  1  0
  6  7  2  0
  7  8  1  0
  8  9  1  0
  9 10  2  0
 10 11  1  0
 11 12  2  0
 12 13  1  0
  8 14  2  0
 14 15  1  0
 15 16  1  0
 16 17  1  0
 16 18  1  0
 16 19  1  0
 15 20  2  0
  2 21  1  0
 21 22  1  0
 22 23  1  0
 23 24  1  0
 24 25  1  0
 25 26  2  0
 26 27  1  0
 27 28  2  0
 28 29  1  0
 29 30  2  0
 24 31  1  0
 31 32  1  0
 20  6  1  0
 32 21  1  0
 13  9  1  0
 30 25  1  0
  3 33  1  0
  3 34  1  0
  4 35  1  0
  4 36  1  0
 10 37  1  0
 11 38  1  0
 12 39  1  0
 14 40  1  0
 22 41  1  0
 22 42  1  0
 23 43  1  0
 23 44  1  0
 26 45  1  0
 27 46  1  0
 28 47  1  0
 29 48  1  0
 30 49  1  0
 31 50  1  0
 31 51  1  0
 32 52  1  0
 32 53  1  0
M  END
$$$$
