
     RDKit          3D

 31 32  0  0  0  0  0  0  0  0999 V2000
   -4.5337   -2.1484    1.2557 N   0  0  0  0  0  0  0  0  0  0  0  0
   -4.0437   -1.3951    0.1649 N   0  0  0  0  0  0  0  0  0  0  0  0
   -4.2689   -0.0236    0.1289 C   0  0  0  0  0  0  0  0  0  0  0  0
   -4.9931    0.5634    0.9321 O   0  0  0  0  0  0  0  0  0  0  0  0
   -3.5762    0.6870   -1.0333 C   0  0  0  0  0  0  0  0  0  0  0  0
   -2.3990    0.0441   -1.5047 O   0  0  0  0  0  0  0  0  0  0  0  0
   -1.2339    0.2589   -0.8213 C   0  0  0  0  0  0  0  0  0  0  0  0
   -0.0978   -0.2735   -1.4320 C   0  0  0  0  0  0  0  0  0  0  0  0
    1.1611   -0.1411   -0.8395 C   0  0  0  0  0  0  0  0  0  0  0  0
    1.3110    0.5272    0.3860 C   0  0  0  0  0  0  0  0  0  0  0  0
    2.6593    0.6879    1.0598 C   0  0  0  0  0  0  0  0  0  0  0  0
    3.3950   -0.9144    1.5316 S   0  0  0  0  0  0  0  0  0  0  0  0
    4.8538   -0.8066    0.4650 C   0  0  0  0  0  0  0  0  0  0  0  0
    5.2930    0.6423    0.4233 C   0  0  0  0  0  0  0  0  0  0  0  0
    3.8344    1.6418    0.0422 S   0  0  0  0  0  0  0  0  0  0  0  0
    0.1594    1.0532    0.9939 C   0  0  0  0  0  0  0  0  0  0  0  0
   -1.1015    0.9204    0.3980 C   0  0  0  0  0  0  0  0  0  0  0  0
   -5.4885   -2.4376    1.0238 H   0  0  0  0  0  0  0  0  0  0  0  0
   -4.6654   -1.4959    2.0403 H   0  0  0  0  0  0  0  0  0  0  0  0
   -3.2535   -1.7604   -0.3705 H   0  0  0  0  0  0  0  0  0  0  0  0
   -4.2911    0.6901   -1.8642 H   0  0  0  0  0  0  0  0  0  0  0  0
   -3.3885    1.7366   -0.7785 H   0  0  0  0  0  0  0  0  0  0  0  0
   -0.1880   -0.7951   -2.3819 H   0  0  0  0  0  0  0  0  0  0  0  0
    2.0249   -0.5658   -1.3464 H   0  0  0  0  0  0  0  0  0  0  0  0
    2.5348    1.2500    1.9915 H   0  0  0  0  0  0  0  0  0  0  0  0
    4.5977   -1.1772   -0.5338 H   0  0  0  0  0  0  0  0  0  0  0  0
    5.6491   -1.4447    0.8618 H   0  0  0  0  0  0  0  0  0  0  0  0
    5.7107    0.9638    1.3837 H   0  0  0  0  0  0  0  0  0  0  0  0
    6.0590    0.7970   -0.3423 H   0  0  0  0  0  0  0  0  0  0  0  0
    0.2311    1.5736    1.9477 H   0  0  0  0  0  0  0  0  0  0  0  0
   -1.9512    1.3423    0.9255 H   0  0  0  0  0  0  0  0  0  0  0  0
  1  2  1  0
  2  3  1  0
  3  4  2  0
  3  5  1  0
  5  6  1  0
  6  7  1  0
  7  8  2  0
  8  9  1  0
  9 10  2  0
 10 11  1  0
 11 12  1  0
 12 13  1  0
 13 14  1  0
 14 15  1  0
 10 16  1  0
 16 17  2  0
 17  7  1  0
 15 11  1  0
  1 18  1  0
  1 19  1  0
  2 20  1  0
  5 21  1  0
  5 22  1  0
  8 23  1  0
  9 24  1  0
 11 25  1  0
 13 26  1  0
 13 27  1  0
 14 28  1  0
 14 29  1  0
 16 30  1  0
 17 31  1  0
M  END
$$$$
