
     RDKit          3D

 37 40  0  0  0  0  0  0  0  0999 V2000
    2.2369    1.7806   -1.2844 O   0  0  0  0  0  0  0  0  0  0  0  0
    2.9236    1.0275   -0.6270 C   0  0  0  0  0  0  0  0  0  0  0  0
    4.2683    0.8612   -0.7606 O   0  0  0  0  0  0  0  0  0  0  0  0
    4.6243   -0.0778    0.1486 C   0  0  0  0  0  0  0  0  0  0  0  0
    6.0180   -0.3963    0.1556 C   0  0  0  0  0  0  0  0  0  0  0  0
    7.0822    0.0698   -0.5962 C   0  0  0  0  0  0  0  0  0  0  0  0
    8.2361   -0.6141   -0.1418 C   0  0  0  0  0  0  0  0  0  0  0  0
    7.8112   -1.4553    0.8579 C   0  0  0  0  0  0  0  0  0  0  0  0
    6.4732   -1.3316    1.0458 O   0  0  0  0  0  0  0  0  0  0  0  0
    3.6963   -0.5768    0.8969 N   0  0  0  0  0  0  0  0  0  0  0  0
    2.5644    0.0807    0.4726 C   0  0  0  0  0  0  0  0  0  0  0  0
    1.3625   -0.1806    1.0018 C   0  0  0  0  0  0  0  0  0  0  0  0
    0.1234    0.4206    0.6606 C   0  0  0  0  0  0  0  0  0  0  0  0
   -0.2226    1.7238    0.3295 C   0  0  0  0  0  0  0  0  0  0  0  0
   -1.6220    1.7678    0.1141 C   0  0  0  0  0  0  0  0  0  0  0  0
   -2.0923    0.4950    0.3445 C   0  0  0  0  0  0  0  0  0  0  0  0
   -3.4104   -0.1355    0.3049 C   0  0  0  0  0  0  0  0  0  0  0  0
   -3.5786   -1.4922    0.6191 C   0  0  0  0  0  0  0  0  0  0  0  0
   -4.8396   -2.0917    0.5771 C   0  0  0  0  0  0  0  0  0  0  0  0
   -5.9576   -1.3410    0.2210 C   0  0  0  0  0  0  0  0  0  0  0  0
   -5.8257    0.0188   -0.0904 C   0  0  0  0  0  0  0  0  0  0  0  0
   -7.0277    0.8329   -0.4996 C   0  0  0  0  0  0  0  0  0  0  0  0
   -8.1904    0.3893    0.0551 F   0  0  0  0  0  0  0  0  0  0  0  0
   -6.9275    2.1457   -0.1481 F   0  0  0  0  0  0  0  0  0  0  0  0
   -7.2270    0.8212   -1.8462 F   0  0  0  0  0  0  0  0  0  0  0  0
   -4.5473    0.6067   -0.0525 C   0  0  0  0  0  0  0  0  0  0  0  0
   -1.0460   -0.3088    0.6884 O   0  0  0  0  0  0  0  0  0  0  0  0
    7.0294    0.8144   -1.3793 H   0  0  0  0  0  0  0  0  0  0  0  0
    9.2514   -0.5082   -0.4980 H   0  0  0  0  0  0  0  0  0  0  0  0
    8.3089   -2.1688    1.5005 H   0  0  0  0  0  0  0  0  0  0  0  0
    1.3057   -0.9654    1.7526 H   0  0  0  0  0  0  0  0  0  0  0  0
    0.4558    2.5625    0.2528 H   0  0  0  0  0  0  0  0  0  0  0  0
   -2.2058    2.6323   -0.1671 H   0  0  0  0  0  0  0  0  0  0  0  0
   -2.7210   -2.1011    0.8997 H   0  0  0  0  0  0  0  0  0  0  0  0
   -4.9450   -3.1461    0.8213 H   0  0  0  0  0  0  0  0  0  0  0  0
   -6.9349   -1.8207    0.1883 H   0  0  0  0  0  0  0  0  0  0  0  0
   -4.4501    1.6613   -0.3074 H   0  0  0  0  0  0  0  0  0  0  0  0
  1  2  2  0
  2  3  1  0
  3  4  1  0
  4  5  1  0
  5  6  2  0
  6  7  1  0
  7  8  2  0
  8  9  1  0
  4 10  2  0
 10 11  1  0
 11 12  2  3
 12 13  1  0
 13 14  2  0
 14 15  1  0
 15 16  2  0
 16 17  1  0
 17 18  2  0
 18 19  1  0
 19 20  2  0
 20 21  1  0
 21 22  1  0
 22 23  1  0
 22 24  1  0
 22 25  1  0
 21 26  2  0
 16 27  1  0
 11  2  1  0
 27 13  1  0
  9  5  1  0
 26 17  1  0
  6 28  1  0
  7 29  1  0
  8 30  1  0
 12 31  1  0
 14 32  1  0
 15 33  1  0
 18 34  1  0
 19 35  1  0
 20 36  1  0
 26 37  1  0
M  END
$$$$
