
     RDKit          3D

 51 53  0  0  0  0  0  0  0  0999 V2000
   -3.3809    5.7673   -0.8705 C   0  0  0  0  0  0  0  0  0  0  0  0
   -2.3411    5.1921   -1.8224 C   0  0  0  0  0  0  0  0  0  0  0  0
   -1.8806    3.8086   -1.3707 C   0  0  0  0  0  0  0  0  0  0  0  0
   -0.7428    3.1019   -2.6064 S   0  0  0  0  0  0  0  0  0  0  0  0
   -0.2495    1.6504   -1.7048 C   0  0  0  0  0  0  0  0  0  0  0  0
   -0.8977    0.4538   -1.9092 C   0  0  0  0  0  0  0  0  0  0  0  0
   -0.4555   -0.6316   -1.1787 C   0  0  0  0  0  0  0  0  0  0  0  0
   -1.0840   -1.8839   -1.3476 N   0  0  0  0  0  0  0  0  0  0  0  0
   -0.3432   -2.9945   -0.7064 C   0  0  0  0  0  0  0  0  0  0  0  0
   -1.0333   -4.3453   -1.0057 C   0  0  0  0  0  0  0  0  0  0  0  0
   -2.4486   -4.3648   -0.5730 N   0  0  0  0  0  0  0  0  0  0  0  0
   -3.0728   -5.6421   -0.9122 C   0  0  0  0  0  0  0  0  0  0  0  0
   -3.1683   -3.2430   -1.2140 C   0  0  0  0  0  0  0  0  0  0  0  0
   -2.5090   -1.8688   -0.9406 C   0  0  0  0  0  0  0  0  0  0  0  0
    0.5921   -0.5148   -0.3454 N   0  0  0  0  0  0  0  0  0  0  0  0
    1.1746    0.6928   -0.2124 C   0  0  0  0  0  0  0  0  0  0  0  0
    2.3419    0.8002    0.6894 C   0  0  0  0  0  0  0  0  0  0  0  0
    2.8350   -0.3157    1.3946 C   0  0  0  0  0  0  0  0  0  0  0  0
    3.9546   -0.2250    2.2367 C   0  0  0  0  0  0  0  0  0  0  0  0
    4.6118    0.9922    2.3987 C   0  0  0  0  0  0  0  0  0  0  0  0
    5.7103    1.2178    3.1797 O   0  0  0  0  0  0  0  0  0  0  0  0
    6.2297    0.1026    3.8945 C   0  0  0  0  0  0  0  0  0  0  0  0
    4.1383    2.1124    1.7150 C   0  0  0  0  0  0  0  0  0  0  0  0
    3.0220    2.0186    0.8738 C   0  0  0  0  0  0  0  0  0  0  0  0
    0.7748    1.7998   -0.8538 N   0  0  0  0  0  0  0  0  0  0  0  0
   -4.2744    5.1332   -0.8286 H   0  0  0  0  0  0  0  0  0  0  0  0
   -2.9775    5.8593    0.1459 H   0  0  0  0  0  0  0  0  0  0  0  0
   -3.6877    6.7635   -1.2041 H   0  0  0  0  0  0  0  0  0  0  0  0
   -2.7751    5.1461   -2.8293 H   0  0  0  0  0  0  0  0  0  0  0  0
   -1.4848    5.8776   -1.8657 H   0  0  0  0  0  0  0  0  0  0  0  0
   -1.3762    3.8810   -0.3998 H   0  0  0  0  0  0  0  0  0  0  0  0
   -2.7407    3.1375   -1.2612 H   0  0  0  0  0  0  0  0  0  0  0  0
   -1.7005    0.3626   -2.6290 H   0  0  0  0  0  0  0  0  0  0  0  0
    0.6812   -3.0428   -1.0981 H   0  0  0  0  0  0  0  0  0  0  0  0
   -0.2925   -2.8527    0.3823 H   0  0  0  0  0  0  0  0  0  0  0  0
   -0.4816   -5.1355   -0.4828 H   0  0  0  0  0  0  0  0  0  0  0  0
   -0.9617   -4.5501   -2.0826 H   0  0  0  0  0  0  0  0  0  0  0  0
   -4.1135   -5.6628   -0.5665 H   0  0  0  0  0  0  0  0  0  0  0  0
   -3.0644   -5.8372   -1.9916 H   0  0  0  0  0  0  0  0  0  0  0  0
   -2.5569   -6.4679   -0.4089 H   0  0  0  0  0  0  0  0  0  0  0  0
   -4.1980   -3.2064   -0.8343 H   0  0  0  0  0  0  0  0  0  0  0  0
   -3.2246   -3.3983   -2.3018 H   0  0  0  0  0  0  0  0  0  0  0  0
   -3.0731   -1.1141   -1.5015 H   0  0  0  0  0  0  0  0  0  0  0  0
   -2.5944   -1.6257    0.1287 H   0  0  0  0  0  0  0  0  0  0  0  0
    2.3450   -1.2838    1.2877 H   0  0  0  0  0  0  0  0  0  0  0  0
    4.2826   -1.1276    2.7443 H   0  0  0  0  0  0  0  0  0  0  0  0
    7.0725    0.4558    4.4963 H   0  0  0  0  0  0  0  0  0  0  0  0
    5.4825   -0.3137    4.5813 H   0  0  0  0  0  0  0  0  0  0  0  0
    6.6047   -0.6639    3.2088 H   0  0  0  0  0  0  0  0  0  0  0  0
    4.6429    3.0689    1.8298 H   0  0  0  0  0  0  0  0  0  0  0  0
    2.6885    2.9161    0.3524 H   0  0  0  0  0  0  0  0  0  0  0  0
  1  2  1  0
  2  3  1  0
  3  4  1  0
  4  5  1  0
  5  6  2  0
  6  7  1  0
  7  8  1  0
  8  9  1  0
  9 10  1  0
 10 11  1  0
 11 12  1  0
 11 13  1  0
 13 14  1  0
  7 15  2  0
 15 16  1  0
 16 17  1  0
 17 18  2  0
 18 19  1  0
 19 20  2  0
 20 21  1  0
 21 22  1  0
 20 23  1  0
 23 24  2  0
 16 25  2  0
 25  5  1  0
 14  8  1  0
 24 17  1  0
  1 26  1  0
  1 27  1  0
  1 28  1  0
  2 29  1  0
  2 30  1  0
  3 31  1  0
  3 32  1  0
  6 33  1  0
  9 34  1  0
  9 35  1  0
 10 36  1  0
 10 37  1  0
 12 38  1  0
 12 39  1  0
 12 40  1  0
 13 41  1  0
 13 42  1  0
 14 43  1  0
 14 44  1  0
 18 45  1  0
 19 46  1  0
 22 47  1  0
 22 48  1  0
 22 49  1  0
 23 50  1  0
 24 51  1  0
M  END
$$$$
