
     RDKit          3D

 51 53  0  0  0  0  0  0  0  0999 V2000
   -2.2887    0.5650   -3.3931 C   0  0  0  0  0  0  0  0  0  0  0  0
   -1.0355    0.4571   -2.5630 C   0  0  0  0  0  0  0  0  0  0  0  0
    0.1994    0.5780   -3.2147 C   0  0  0  0  0  0  0  0  0  0  0  0
    1.3916    0.4897   -2.4993 C   0  0  0  0  0  0  0  0  0  0  0  0
    1.3835    0.3082   -1.1136 C   0  0  0  0  0  0  0  0  0  0  0  0
    2.6527    0.2579   -0.4946 N   0  0  0  0  0  0  0  0  0  0  0  0
    3.0757    0.2922    0.8124 C   0  0  0  0  0  0  0  0  0  0  0  0
    2.2196    0.5707    2.2179 S   0  0  0  0  0  0  0  0  0  0  0  0
    4.4383    0.0804    0.9813 N   0  0  0  0  0  0  0  0  0  0  0  0
    5.4200   -0.1250    0.0204 C   0  0  0  0  0  0  0  0  0  0  0  0
    5.2220   -0.0113   -1.1865 O   0  0  0  0  0  0  0  0  0  0  0  0
    6.7818   -0.4356    0.5321 C   0  0  0  0  0  0  0  0  0  0  0  0
    7.8858   -0.0209   -0.2234 C   0  0  0  0  0  0  0  0  0  0  0  0
    9.1808   -0.2912    0.2213 C   0  0  0  0  0  0  0  0  0  0  0  0
    9.3770   -0.9848    1.4148 C   0  0  0  0  0  0  0  0  0  0  0  0
    8.2809   -1.4167    2.1618 C   0  0  0  0  0  0  0  0  0  0  0  0
    6.9825   -1.1480    1.7220 C   0  0  0  0  0  0  0  0  0  0  0  0
    0.1518    0.1689   -0.4666 C   0  0  0  0  0  0  0  0  0  0  0  0
   -1.0636    0.2247   -1.1695 C   0  0  0  0  0  0  0  0  0  0  0  0
   -2.3315    0.1035   -0.5463 N   0  0  0  0  0  0  0  0  0  0  0  0
   -2.7473   -0.3910    0.6672 C   0  0  0  0  0  0  0  0  0  0  0  0
   -1.9015   -1.2265    1.8402 S   0  0  0  0  0  0  0  0  0  0  0  0
   -4.0966   -0.1986    0.9370 N   0  0  0  0  0  0  0  0  0  0  0  0
   -5.0759    0.3939    0.1500 C   0  0  0  0  0  0  0  0  0  0  0  0
   -4.8597    0.8731   -0.9598 O   0  0  0  0  0  0  0  0  0  0  0  0
   -6.4443    0.4434    0.7306 C   0  0  0  0  0  0  0  0  0  0  0  0
   -7.2709    1.5197    0.3838 C   0  0  0  0  0  0  0  0  0  0  0  0
   -8.5623    1.6083    0.9053 C   0  0  0  0  0  0  0  0  0  0  0  0
   -9.0356    0.6182    1.7654 C   0  0  0  0  0  0  0  0  0  0  0  0
   -8.2235   -0.4657    2.0993 C   0  0  0  0  0  0  0  0  0  0  0  0
   -6.9295   -0.5590    1.5810 C   0  0  0  0  0  0  0  0  0  0  0  0
   -2.9072   -0.3303   -3.2721 H   0  0  0  0  0  0  0  0  0  0  0  0
   -2.0596    0.6563   -4.4604 H   0  0  0  0  0  0  0  0  0  0  0  0
   -2.8597    1.4527   -3.1028 H   0  0  0  0  0  0  0  0  0  0  0  0
    0.2438    0.7417   -4.2893 H   0  0  0  0  0  0  0  0  0  0  0  0
    2.3300    0.5884   -3.0410 H   0  0  0  0  0  0  0  0  0  0  0  0
    3.4331    0.2408   -1.1542 H   0  0  0  0  0  0  0  0  0  0  0  0
    4.7189    0.1160    1.9516 H   0  0  0  0  0  0  0  0  0  0  0  0
    7.7405    0.5160   -1.1590 H   0  0  0  0  0  0  0  0  0  0  0  0
   10.0358    0.0356   -0.3658 H   0  0  0  0  0  0  0  0  0  0  0  0
   10.3867   -1.1984    1.7581 H   0  0  0  0  0  0  0  0  0  0  0  0
    8.4398   -1.9732    3.0829 H   0  0  0  0  0  0  0  0  0  0  0  0
    6.1480   -1.5287    2.3045 H   0  0  0  0  0  0  0  0  0  0  0  0
    0.1333    0.0306    0.5998 H   0  0  0  0  0  0  0  0  0  0  0  0
   -3.1150    0.4049   -1.1250 H   0  0  0  0  0  0  0  0  0  0  0  0
   -4.3535   -0.5233    1.8588 H   0  0  0  0  0  0  0  0  0  0  0  0
   -6.9099    2.2938   -0.2910 H   0  0  0  0  0  0  0  0  0  0  0  0
   -9.1996    2.4477    0.6375 H   0  0  0  0  0  0  0  0  0  0  0  0
  -10.0436    0.6866    2.1683 H   0  0  0  0  0  0  0  0  0  0  0  0
   -8.6045   -1.2441    2.7568 H   0  0  0  0  0  0  0  0  0  0  0  0
   -6.3340   -1.4331    1.8288 H   0  0  0  0  0  0  0  0  0  0  0  0
  1  2  1  0
  2  3  2  0
  3  4  1  0
  4  5  2  0
  5  6  1  0
  6  7  1  0
  7  8  2  0
  7  9  1  0
  9 10  1  0
 10 11  2  0
 10 12  1  0
 12 13  2  0
 13 14  1  0
 14 15  2  0
 15 16  1  0
 16 17  2  0
  5 18  1  0
 18 19  2  0
 19 20  1  0
 20 21  1  0
 21 22  2  0
 21 23  1  0
 23 24  1  0
 24 25  2  0
 24 26  1  0
 26 27  2  0
 27 28  1  0
 28 29  2  0
 29 30  1  0
 30 31  2  0
 19  2  1  0
 31 26  1  0
 17 12  1  0
  1 32  1  0
  1 33  1  0
  1 34  1  0
  3 35  1  0
  4 36  1  0
  6 37  1  0
  9 38  1  0
 13 39  1  0
 14 40  1  0
 15 41  1  0
 16 42  1  0
 17 43  1  0
 18 44  1  0
 20 45  1  0
 23 46  1  0
 27 47  1  0
 28 48  1  0
 29 49  1  0
 30 50  1  0
 31 51  1  0
M  END
$$$$
