
     RDKit          3D

 48 50  0  0  0  0  0  0  0  0999 V2000
   -5.8753   -2.5689    1.6498 C   0  0  0  0  0  0  0  0  0  0  0  0
   -4.3866   -2.4114    1.3663 C   0  0  0  0  0  0  0  0  0  0  0  0
   -4.0974   -1.5271    0.1350 C   0  0  0  0  0  0  0  0  0  0  0  0
   -2.6764   -1.5239   -0.1776 N   0  0  0  0  0  0  0  0  0  0  0  0
   -2.0747   -2.5797   -0.8399 C   0  0  0  0  0  0  0  0  0  0  0  0
   -2.7229   -3.5474   -1.2320 O   0  0  0  0  0  0  0  0  0  0  0  0
   -0.6214   -2.4553   -1.0259 C   0  0  0  0  0  0  0  0  0  0  0  0
    0.2279   -1.3432   -0.7722 C   0  0  0  0  0  0  0  0  0  0  0  0
    1.4884   -1.7731   -1.1114 C   0  0  0  0  0  0  0  0  0  0  0  0
    2.8378   -1.1628   -1.1108 C   0  0  0  0  0  0  0  0  0  0  0  0
    2.7431    0.0440   -0.3584 O   0  0  0  0  0  0  0  0  0  0  0  0
    3.8551    0.8365   -0.2652 C   0  0  0  0  0  0  0  0  0  0  0  0
    5.1111    0.5116   -0.7841 C   0  0  0  0  0  0  0  0  0  0  0  0
    6.1925    1.3923   -0.6368 C   0  0  0  0  0  0  0  0  0  0  0  0
    6.0313    2.6051    0.0323 C   0  0  0  0  0  0  0  0  0  0  0  0
    7.0014    3.5450    0.2398 O   0  0  0  0  0  0  0  0  0  0  0  0
    8.3000    3.2588   -0.2647 C   0  0  0  0  0  0  0  0  0  0  0  0
    4.7809    2.9327    0.5556 C   0  0  0  0  0  0  0  0  0  0  0  0
    3.7025    2.0572    0.4101 C   0  0  0  0  0  0  0  0  0  0  0  0
    2.1776    2.5250    1.0823 Cl  0  0  0  0  0  0  0  0  0  0  0  0
    1.4126   -3.0554   -1.5488 O   0  0  0  0  0  0  0  0  0  0  0  0
    0.1028   -3.4837   -1.5026 N   0  0  0  0  0  0  0  0  0  0  0  0
   -4.5625   -0.0897    0.2831 C   0  0  0  0  0  0  0  0  0  0  0  0
   -4.2441    0.6878    1.4035 C   0  0  0  0  0  0  0  0  0  0  0  0
   -4.6881    2.0008    1.4553 C   0  0  0  0  0  0  0  0  0  0  0  0
   -5.4098    2.5886    0.4791 N   0  0  0  0  0  0  0  0  0  0  0  0
   -5.6994    1.8313   -0.5991 C   0  0  0  0  0  0  0  0  0  0  0  0
   -5.3018    0.5109   -0.7431 C   0  0  0  0  0  0  0  0  0  0  0  0
   -6.3992   -2.9739    0.7780 H   0  0  0  0  0  0  0  0  0  0  0  0
   -6.3380   -1.6147    1.9186 H   0  0  0  0  0  0  0  0  0  0  0  0
   -6.0266   -3.2594    2.4858 H   0  0  0  0  0  0  0  0  0  0  0  0
   -3.8845   -2.0214    2.2598 H   0  0  0  0  0  0  0  0  0  0  0  0
   -3.9668   -3.4119    1.2027 H   0  0  0  0  0  0  0  0  0  0  0  0
   -4.6172   -1.9797   -0.7202 H   0  0  0  0  0  0  0  0  0  0  0  0
   -2.1104   -0.7841    0.2092 H   0  0  0  0  0  0  0  0  0  0  0  0
   -0.0260   -0.3613   -0.4024 H   0  0  0  0  0  0  0  0  0  0  0  0
    3.5502   -1.8482   -0.6378 H   0  0  0  0  0  0  0  0  0  0  0  0
    3.1367   -0.9514   -2.1441 H   0  0  0  0  0  0  0  0  0  0  0  0
    5.2934   -0.4214   -1.3086 H   0  0  0  0  0  0  0  0  0  0  0  0
    7.1490    1.0972   -1.0572 H   0  0  0  0  0  0  0  0  0  0  0  0
    8.9494    4.1031   -0.0142 H   0  0  0  0  0  0  0  0  0  0  0  0
    8.7189    2.3645    0.2077 H   0  0  0  0  0  0  0  0  0  0  0  0
    8.2870    3.1598   -1.3554 H   0  0  0  0  0  0  0  0  0  0  0  0
    4.6516    3.8773    1.0784 H   0  0  0  0  0  0  0  0  0  0  0  0
   -3.6624    0.2913    2.2287 H   0  0  0  0  0  0  0  0  0  0  0  0
   -4.4657    2.6335    2.3100 H   0  0  0  0  0  0  0  0  0  0  0  0
   -6.2774    2.3291   -1.3727 H   0  0  0  0  0  0  0  0  0  0  0  0
   -5.5664   -0.0345   -1.6437 H   0  0  0  0  0  0  0  0  0  0  0  0
  1  2  1  0
  2  3  1  0
  3  4  1  0
  4  5  1  0
  5  6  2  0
  5  7  1  0
  7  8  1  0
  8  9  2  0
  9 10  1  0
 10 11  1  0
 11 12  1  0
 12 13  2  0
 13 14  1  0
 14 15  2  0
 15 16  1  0
 16 17  1  0
 15 18  1  0
 18 19  2  0
 19 20  1  0
  9 21  1  0
 21 22  1  0
  3 23  1  0
 23 24  2  0
 24 25  1  0
 25 26  2  0
 26 27  1  0
 27 28  2  0
 22  7  2  0
 28 23  1  0
 19 12  1  0
  1 29  1  0
  1 30  1  0
  1 31  1  0
  2 32  1  0
  2 33  1  0
  3 34  1  0
  4 35  1  0
  8 36  1  0
 10 37  1  0
 10 38  1  0
 13 39  1  0
 14 40  1  0
 17 41  1  0
 17 42  1  0
 17 43  1  0
 18 44  1  0
 24 45  1  0
 25 46  1  0
 27 47  1  0
 28 48  1  0
M  END
$$$$
