
     RDKit          3D

 67 72  0  0  0  0  0  0  0  0999 V2000
    5.9801    0.4705   -0.1070 C   0  0  0  0  0  0  0  0  0  0  0  0
    5.2518    0.7478    1.2127 C   0  0  0  0  0  0  0  0  0  0  0  0
    5.9981    0.1630    2.4166 C   0  0  0  0  0  0  0  0  0  0  0  0
    5.1385    2.2690    1.3982 C   0  0  0  0  0  0  0  0  0  0  0  0
    3.8782    0.2838    1.1640 O   0  0  0  0  0  0  0  0  0  0  0  0
    3.5889   -1.0330    1.0024 C   0  0  0  0  0  0  0  0  0  0  0  0
    4.4278   -1.9174    0.8943 O   0  0  0  0  0  0  0  0  0  0  0  0
    2.2230   -1.2638    0.9627 N   0  0  0  0  0  0  0  0  0  0  0  0
    1.7581   -2.5545    0.4652 C   0  0  0  0  0  0  0  0  0  0  0  0
    1.4907   -2.4732   -1.0520 C   0  0  0  0  0  0  0  0  0  0  0  0
    0.7121   -1.3148   -1.4767 N   0  0  0  0  0  0  0  0  0  0  0  0
    0.9723   -0.0204   -0.7693 C   0  0  2  0  0  0  0  0  0  0  0  0
    1.2651   -0.1829    0.7397 C   0  0  0  0  0  0  0  0  0  0  0  0
   -0.2867    0.7160   -1.0252 C   0  0  0  0  0  0  0  0  0  0  0  0
   -1.2519   -0.1115   -1.6171 C   0  0  0  0  0  0  0  0  0  0  0  0
   -2.3885    0.6204   -1.8400 C   0  0  0  0  0  0  0  0  0  0  0  0
   -3.5275    0.2308   -2.4007 O   0  0  0  0  0  0  0  0  0  0  0  0
   -2.1317    1.8942   -1.3404 N   0  0  0  0  0  0  0  0  0  0  0  0
   -3.0547    3.0225   -1.3107 C   0  0  0  0  0  0  0  0  0  0  0  0
   -3.8034    3.0986   -0.0021 C   0  0  0  0  0  0  0  0  0  0  0  0
   -4.9186    2.2843    0.2453 C   0  0  0  0  0  0  0  0  0  0  0  0
   -5.5977    2.3622    1.4629 C   0  0  0  0  0  0  0  0  0  0  0  0
   -5.1695    3.2502    2.4472 C   0  0  0  0  0  0  0  0  0  0  0  0
   -4.0582    4.0581    2.2182 C   0  0  0  0  0  0  0  0  0  0  0  0
   -3.3774    3.9810    1.0023 C   0  0  0  0  0  0  0  0  0  0  0  0
   -0.8208    1.9665   -0.8788 C   0  0  0  0  0  0  0  0  0  0  0  0
   -0.3153    3.0988   -0.4063 O   0  0  0  0  0  0  0  0  0  0  0  0
   -0.7256   -1.4754   -1.8303 C   0  0  1  0  0  0  0  0  0  0  0  0
   -0.8889   -2.0067   -3.2847 C   0  0  0  0  0  0  0  0  0  0  0  0
   -0.4285   -1.5627   -4.3271 O   0  0  0  0  0  0  0  0  0  0  0  0
   -1.6691   -3.1636   -3.2014 N   0  0  0  0  0  0  0  0  0  0  0  0
   -2.0758   -3.4086   -1.8972 C   0  0  0  0  0  0  0  0  0  0  0  0
   -2.8848   -4.4421   -1.4711 C   0  0  0  0  0  0  0  0  0  0  0  0
   -3.2005   -4.4931   -0.1125 C   0  0  0  0  0  0  0  0  0  0  0  0
   -2.7142   -3.5165    0.7737 C   0  0  0  0  0  0  0  0  0  0  0  0
   -1.8963   -2.4772    0.3180 C   0  0  0  0  0  0  0  0  0  0  0  0
   -1.5660   -2.4361   -1.0286 C   0  0  0  0  0  0  0  0  0  0  0  0
    5.3860    0.8190   -0.9594 H   0  0  0  0  0  0  0  0  0  0  0  0
    6.9557    0.9677   -0.1353 H   0  0  0  0  0  0  0  0  0  0  0  0
    6.1539   -0.5985   -0.2623 H   0  0  0  0  0  0  0  0  0  0  0  0
    6.1736   -0.9114    2.3076 H   0  0  0  0  0  0  0  0  0  0  0  0
    6.9744    0.6413    2.5506 H   0  0  0  0  0  0  0  0  0  0  0  0
    5.4164    0.2947    3.3358 H   0  0  0  0  0  0  0  0  0  0  0  0
    4.5904    2.5095    2.3164 H   0  0  0  0  0  0  0  0  0  0  0  0
    4.5736    2.7210    0.5747 H   0  0  0  0  0  0  0  0  0  0  0  0
    6.1219    2.7479    1.4469 H   0  0  0  0  0  0  0  0  0  0  0  0
    0.8457   -2.8132    1.0108 H   0  0  0  0  0  0  0  0  0  0  0  0
    2.4953   -3.3377    0.6714 H   0  0  0  0  0  0  0  0  0  0  0  0
    2.4640   -2.3959   -1.5542 H   0  0  0  0  0  0  0  0  0  0  0  0
    1.0567   -3.4144   -1.4077 H   0  0  0  0  0  0  0  0  0  0  0  0
    1.8193    0.4708   -1.2624 H   0  0  0  0  0  0  0  0  0  0  0  0
    1.6237    0.7636    1.1580 H   0  0  0  0  0  0  0  0  0  0  0  0
    0.3570   -0.4392    1.2978 H   0  0  0  0  0  0  0  0  0  0  0  0
   -4.1134    0.9877   -2.5480 H   0  0  0  0  0  0  0  0  0  0  0  0
   -2.4799    3.9383   -1.4930 H   0  0  0  0  0  0  0  0  0  0  0  0
   -3.7506    2.9350   -2.1512 H   0  0  0  0  0  0  0  0  0  0  0  0
   -5.2653    1.5738   -0.5005 H   0  0  0  0  0  0  0  0  0  0  0  0
   -6.4588    1.7244    1.6456 H   0  0  0  0  0  0  0  0  0  0  0  0
   -5.6978    3.3078    3.3951 H   0  0  0  0  0  0  0  0  0  0  0  0
   -3.7173    4.7451    2.9883 H   0  0  0  0  0  0  0  0  0  0  0  0
   -2.5022    4.6089    0.8442 H   0  0  0  0  0  0  0  0  0  0  0  0
    0.6225    2.9383   -0.2003 H   0  0  0  0  0  0  0  0  0  0  0  0
   -1.9330   -3.6955   -4.0156 H   0  0  0  0  0  0  0  0  0  0  0  0
   -3.2709   -5.1848   -2.1594 H   0  0  0  0  0  0  0  0  0  0  0  0
   -3.8393   -5.2886    0.2642 H   0  0  0  0  0  0  0  0  0  0  0  0
   -2.9861   -3.5642    1.8262 H   0  0  0  0  0  0  0  0  0  0  0  0
   -1.5487   -1.7155    1.0068 H   0  0  0  0  0  0  0  0  0  0  0  0
  1  2  1  0
  2  3  1  0
  2  4  1  0
  2  5  1  0
  5  6  1  0
  6  7  2  0
  6  8  1  0
  8  9  1  0
  9 10  1  0
 10 11  1  0
 11 12  1  0
 12 13  1  0
 12 14  1  0
 14 15  1  0
 15 16  2  0
 16 17  1  0
 16 18  1  0
 18 19  1  0
 19 20  1  0
 20 21  2  0
 21 22  1  0
 22 23  2  0
 23 24  1  0
 24 25  2  0
 18 26  1  0
 26 27  1  0
 15 28  1  0
 28 29  1  0
 29 30  2  0
 29 31  1  0
 31 32  1  0
 32 33  2  0
 33 34  1  0
 34 35  2  0
 35 36  1  0
 36 37  2  0
 13  8  1  0
 26 14  2  0
 37 28  1  0
 28 11  1  1
 37 32  1  0
 25 20  1  0
  1 38  1  0
  1 39  1  0
  1 40  1  0
  3 41  1  0
  3 42  1  0
  3 43  1  0
  4 44  1  0
  4 45  1  0
  4 46  1  0
  9 47  1  0
  9 48  1  0
 10 49  1  0
 10 50  1  0
 12 51  1  6
 13 52  1  0
 13 53  1  0
 17 54  1  0
 19 55  1  0
 19 56  1  0
 21 57  1  0
 22 58  1  0
 23 59  1  0
 24 60  1  0
 25 61  1  0
 27 62  1  0
 31 63  1  0
 33 64  1  0
 34 65  1  0
 35 66  1  0
 36 67  1  0
M  END
$$$$
