
     RDKit          3D

 58 60  0  0  0  0  0  0  0  0999 V2000
    0.1607   -3.7107    0.8838 C   0  0  0  0  0  0  0  0  0  0  0  0
    0.4909   -3.2815   -0.5407 C   0  0  0  0  0  0  0  0  0  0  0  0
    0.3585   -1.7700   -0.7727 C   0  0  0  0  0  0  0  0  0  0  0  0
    1.3357   -0.9451    0.0231 C   0  0  0  0  0  0  0  0  0  0  0  0
    2.6729   -0.9073   -0.3745 N   0  0  0  0  0  0  0  0  0  0  0  0
    3.3511   -0.1345    0.5784 N   0  0  0  0  0  0  0  0  0  0  0  0
    4.7342    0.1238    0.4531 C   0  0  0  0  0  0  0  0  0  0  0  0
    5.4235    0.8751    1.4167 C   0  0  0  0  0  0  0  0  0  0  0  0
    6.7953    1.1338    1.2915 C   0  0  0  0  0  0  0  0  0  0  0  0
    7.4953    0.6339    0.1883 C   0  0  0  0  0  0  0  0  0  0  0  0
    8.9288    0.9077    0.0466 N   0  0  0  0  0  4  0  0  0  0  0  0
    9.4405    1.7188    0.8324 O   0  0  0  0  0  0  0  0  0  0  0  0
    9.5405    0.3126   -0.8540 O   0  0  0  0  0  1  0  0  0  0  0  0
    6.8329   -0.1233   -0.7826 C   0  0  0  0  0  0  0  0  0  0  0  0
    5.4593   -0.3694   -0.6468 C   0  0  0  0  0  0  0  0  0  0  0  0
    2.4318    0.3579    1.5048 C   0  0  0  0  0  0  0  0  0  0  0  0
    2.5956    1.0847    2.4722 O   0  0  0  0  0  0  0  0  0  0  0  0
    1.1047   -0.1895    1.1126 C   0  0  0  0  0  0  0  0  0  0  0  0
   -0.1276    0.0577    1.8746 C   0  0  0  0  0  0  0  0  0  0  0  0
   -1.2726   -0.4528    1.5840 N   0  0  0  0  0  0  0  0  0  0  0  0
   -2.3745   -0.0767    2.4793 C   0  0  0  0  0  0  0  0  0  0  0  0
   -2.9674    1.2890    2.1111 C   0  0  0  0  0  0  0  0  0  0  0  0
   -3.5059    1.3844    0.7015 C   0  0  0  0  0  0  0  0  0  0  0  0
   -2.9339    2.2754   -0.2115 C   0  0  0  0  0  0  0  0  0  0  0  0
   -3.4400    2.3885   -1.5095 C   0  0  0  0  0  0  0  0  0  0  0  0
   -4.5263    1.6087   -1.9173 C   0  0  0  0  0  0  0  0  0  0  0  0
   -5.0843    1.6534   -3.1721 O   0  0  0  0  0  0  0  0  0  0  0  0
   -4.6583    2.6963   -4.0361 C   0  0  0  0  0  0  0  0  0  0  0  0
   -5.0973    0.6923   -1.0136 C   0  0  0  0  0  0  0  0  0  0  0  0
   -6.1573   -0.0461   -1.4838 O   0  0  0  0  0  0  0  0  0  0  0  0
   -6.5229   -1.1981   -0.7376 C   0  0  0  0  0  0  0  0  0  0  0  0
   -4.5933    0.5980    0.2909 C   0  0  0  0  0  0  0  0  0  0  0  0
    0.2257   -4.7997    0.9707 H   0  0  0  0  0  0  0  0  0  0  0  0
    0.8590   -3.2785    1.6055 H   0  0  0  0  0  0  0  0  0  0  0  0
   -0.8538   -3.4113    1.1608 H   0  0  0  0  0  0  0  0  0  0  0  0
    1.5036   -3.6148   -0.7924 H   0  0  0  0  0  0  0  0  0  0  0  0
   -0.1893   -3.8002   -1.2284 H   0  0  0  0  0  0  0  0  0  0  0  0
   -0.6751   -1.4618   -0.5874 H   0  0  0  0  0  0  0  0  0  0  0  0
    0.5266   -1.5672   -1.8388 H   0  0  0  0  0  0  0  0  0  0  0  0
    3.0554   -1.8490   -0.4775 H   0  0  0  0  0  0  0  0  0  0  0  0
    4.9169    1.2728    2.2939 H   0  0  0  0  0  0  0  0  0  0  0  0
    7.2925    1.7226    2.0605 H   0  0  0  0  0  0  0  0  0  0  0  0
    7.3586   -0.5172   -1.6487 H   0  0  0  0  0  0  0  0  0  0  0  0
    4.9671   -0.9387   -1.4319 H   0  0  0  0  0  0  0  0  0  0  0  0
   -0.0027    0.7301    2.7425 H   0  0  0  0  0  0  0  0  0  0  0  0
   -2.0449   -0.0668    3.5260 H   0  0  0  0  0  0  0  0  0  0  0  0
   -3.1418   -0.8561    2.4115 H   0  0  0  0  0  0  0  0  0  0  0  0
   -2.2075    2.0656    2.2675 H   0  0  0  0  0  0  0  0  0  0  0  0
   -3.7835    1.5255    2.8056 H   0  0  0  0  0  0  0  0  0  0  0  0
   -2.0851    2.8909    0.0788 H   0  0  0  0  0  0  0  0  0  0  0  0
   -2.9568    3.0902   -2.1789 H   0  0  0  0  0  0  0  0  0  0  0  0
   -5.2652    2.6482   -4.9442 H   0  0  0  0  0  0  0  0  0  0  0  0
   -4.8164    3.6803   -3.5825 H   0  0  0  0  0  0  0  0  0  0  0  0
   -3.6141    2.5590   -4.3287 H   0  0  0  0  0  0  0  0  0  0  0  0
   -5.6613   -1.8472   -0.5506 H   0  0  0  0  0  0  0  0  0  0  0  0
   -7.0157   -0.9154    0.1970 H   0  0  0  0  0  0  0  0  0  0  0  0
   -7.2432   -1.7685   -1.3338 H   0  0  0  0  0  0  0  0  0  0  0  0
   -5.0395   -0.0798    1.0113 H   0  0  0  0  0  0  0  0  0  0  0  0
  1  2  1  0
  2  3  1  0
  3  4  1  0
  4  5  1  0
  5  6  1  0
  6  7  1  0
  7  8  2  0
  8  9  1  0
  9 10  2  0
 10 11  1  0
 11 12  2  0
 11 13  1  0
 10 14  1  0
 14 15  2  0
  6 16  1  0
 16 17  2  0
 16 18  1  0
 18 19  1  0
 19 20  2  3
 20 21  1  0
 21 22  1  0
 22 23  1  0
 23 24  2  0
 24 25  1  0
 25 26  2  0
 26 27  1  0
 27 28  1  0
 26 29  1  0
 29 30  1  0
 30 31  1  0
 29 32  2  0
 18  4  2  0
 32 23  1  0
 15  7  1  0
  1 33  1  0
  1 34  1  0
  1 35  1  0
  2 36  1  0
  2 37  1  0
  3 38  1  0
  3 39  1  0
  5 40  1  0
  8 41  1  0
  9 42  1  0
 14 43  1  0
 15 44  1  0
 19 45  1  0
 21 46  1  0
 21 47  1  0
 22 48  1  0
 22 49  1  0
 24 50  1  0
 25 51  1  0
 28 52  1  0
 28 53  1  0
 28 54  1  0
 31 55  1  0
 31 56  1  0
 31 57  1  0
 32 58  1  0
M  CHG  2  11   1  13  -1
M  END
$$$$
