
     RDKit          3D

 63 65  0  0  0  0  0  0  0  0999 V2000
    0.5138   -3.3625   -0.2230 C   0  0  0  0  0  0  0  0  0  0  0  0
   -0.0687   -2.1350    0.4700 C   0  0  0  0  0  0  0  0  0  0  0  0
    0.3272   -2.0050    1.8803 N   0  0  0  0  0  0  0  0  0  0  0  0
    1.7881   -1.9512    2.0997 C   0  0  0  0  0  0  0  0  0  0  0  0
    2.4976   -0.7928    1.3726 C   0  0  0  0  0  0  0  0  0  0  0  0
    2.1331    0.3717    1.5118 O   0  0  0  0  0  0  0  0  0  0  0  0
    3.5672   -1.2237    0.6002 N   0  0  0  0  0  0  0  0  0  0  0  0
    4.4596   -0.4284   -0.1485 C   0  0  0  0  0  0  0  0  0  0  0  0
    4.3437    0.9517   -0.2987 C   0  0  0  0  0  0  0  0  0  0  0  0
    5.2922    1.6770   -1.0375 C   0  0  0  0  0  0  0  0  0  0  0  0
    6.3730    1.0315   -1.6355 C   0  0  0  0  0  0  0  0  0  0  0  0
    7.3830    1.6907   -2.3664 N   0  0  0  0  0  0  0  0  0  0  0  0
    7.4771    3.0429   -2.6398 C   0  0  0  0  0  0  0  0  0  0  0  0
    8.7383    3.3785   -3.3965 C   0  0  0  0  0  0  0  0  0  0  0  0
    6.6802    3.9199   -2.3265 O   0  0  0  0  0  0  0  0  0  0  0  0
    6.4819   -0.3564   -1.4986 C   0  0  0  0  0  0  0  0  0  0  0  0
    5.5322   -1.0792   -0.7655 C   0  0  0  0  0  0  0  0  0  0  0  0
   -0.3455   -0.8529    2.5281 C   0  0  0  0  0  0  0  0  0  0  0  0
   -1.7702   -1.2270    2.9678 C   0  0  0  0  0  0  0  0  0  0  0  0
   -1.9727   -1.8377    4.0162 O   0  0  0  0  0  0  0  0  0  0  0  0
   -2.7367   -0.7989    2.0733 N   0  0  0  0  0  0  0  0  0  0  0  0
   -4.1389   -0.9833    2.1292 C   0  0  0  0  0  0  0  0  0  0  0  0
   -4.7749   -1.5775    3.2248 C   0  0  0  0  0  0  0  0  0  0  0  0
   -6.1591   -1.7723    3.2349 C   0  0  0  0  0  0  0  0  0  0  0  0
   -6.9305   -1.3847    2.1452 C   0  0  0  0  0  0  0  0  0  0  0  0
   -6.3206   -0.7834    1.0462 C   0  0  0  0  0  0  0  0  0  0  0  0
   -4.9334   -0.5530    1.0413 C   0  0  0  0  0  0  0  0  0  0  0  0
   -4.3060    0.1150   -0.1383 C   0  0  0  0  0  0  0  0  0  0  0  0
   -3.1567   -0.1786   -0.4626 O   0  0  0  0  0  0  0  0  0  0  0  0
   -5.0252    1.1464   -0.9264 C   0  0  0  0  0  0  0  0  0  0  0  0
   -5.8346    2.1080   -0.3081 C   0  0  0  0  0  0  0  0  0  0  0  0
   -6.4922    3.0646   -1.0835 C   0  0  0  0  0  0  0  0  0  0  0  0
   -6.3314    3.0704   -2.4709 C   0  0  0  0  0  0  0  0  0  0  0  0
   -5.5036    2.1307   -3.0850 C   0  0  0  0  0  0  0  0  0  0  0  0
   -4.8449    1.1722   -2.3133 C   0  0  0  0  0  0  0  0  0  0  0  0
    1.5915   -3.2700   -0.3786 H   0  0  0  0  0  0  0  0  0  0  0  0
    0.0535   -3.4872   -1.2088 H   0  0  0  0  0  0  0  0  0  0  0  0
    0.3208   -4.2724    0.3523 H   0  0  0  0  0  0  0  0  0  0  0  0
   -1.1575   -2.2377    0.4118 H   0  0  0  0  0  0  0  0  0  0  0  0
    0.1957   -1.2373   -0.1017 H   0  0  0  0  0  0  0  0  0  0  0  0
    2.2293   -2.9135    1.8177 H   0  0  0  0  0  0  0  0  0  0  0  0
    2.0095   -1.8481    3.1701 H   0  0  0  0  0  0  0  0  0  0  0  0
    3.7591   -2.2168    0.6012 H   0  0  0  0  0  0  0  0  0  0  0  0
    3.5262    1.5117    0.1455 H   0  0  0  0  0  0  0  0  0  0  0  0
    5.1501    2.7497   -1.1185 H   0  0  0  0  0  0  0  0  0  0  0  0
    8.1294    1.1052   -2.7191 H   0  0  0  0  0  0  0  0  0  0  0  0
    8.6541    4.3835   -3.8201 H   0  0  0  0  0  0  0  0  0  0  0  0
    9.5914    3.3462   -2.7140 H   0  0  0  0  0  0  0  0  0  0  0  0
    8.8915    2.6722   -4.2180 H   0  0  0  0  0  0  0  0  0  0  0  0
    7.3075   -0.8990   -1.9505 H   0  0  0  0  0  0  0  0  0  0  0  0
    5.6558   -2.1561   -0.6809 H   0  0  0  0  0  0  0  0  0  0  0  0
    0.1706   -0.5608    3.4528 H   0  0  0  0  0  0  0  0  0  0  0  0
   -0.3646    0.0358    1.8853 H   0  0  0  0  0  0  0  0  0  0  0  0
   -2.3937   -0.4288    1.1852 H   0  0  0  0  0  0  0  0  0  0  0  0
   -4.2170   -1.9087    4.0955 H   0  0  0  0  0  0  0  0  0  0  0  0
   -6.6273   -2.2422    4.0968 H   0  0  0  0  0  0  0  0  0  0  0  0
   -8.0041   -1.5588    2.1506 H   0  0  0  0  0  0  0  0  0  0  0  0
   -6.9404   -0.5124    0.1949 H   0  0  0  0  0  0  0  0  0  0  0  0
   -5.9508    2.1339    0.7736 H   0  0  0  0  0  0  0  0  0  0  0  0
   -7.1224    3.8120   -0.6069 H   0  0  0  0  0  0  0  0  0  0  0  0
   -6.8420    3.8177   -3.0747 H   0  0  0  0  0  0  0  0  0  0  0  0
   -5.3661    2.1467   -4.1639 H   0  0  0  0  0  0  0  0  0  0  0  0
   -4.1928    0.4478   -2.7944 H   0  0  0  0  0  0  0  0  0  0  0  0
  1  2  1  0
  2  3  1  0
  3  4  1  0
  4  5  1  0
  5  6  2  0
  5  7  1  0
  7  8  1  0
  8  9  2  0
  9 10  1  0
 10 11  2  0
 11 12  1  0
 12 13  1  0
 13 14  1  0
 13 15  2  0
 11 16  1  0
 16 17  2  0
  3 18  1  0
 18 19  1  0
 19 20  2  0
 19 21  1  0
 21 22  1  0
 22 23  2  0
 23 24  1  0
 24 25  2  0
 25 26  1  0
 26 27  2  0
 27 28  1  0
 28 29  2  0
 28 30  1  0
 30 31  2  0
 31 32  1  0
 32 33  2  0
 33 34  1  0
 34 35  2  0
 17  8  1  0
 27 22  1  0
 35 30  1  0
  1 36  1  0
  1 37  1  0
  1 38  1  0
  2 39  1  0
  2 40  1  0
  4 41  1  0
  4 42  1  0
  7 43  1  0
  9 44  1  0
 10 45  1  0
 12 46  1  0
 14 47  1  0
 14 48  1  0
 14 49  1  0
 16 50  1  0
 17 51  1  0
 18 52  1  0
 18 53  1  0
 21 54  1  0
 23 55  1  0
 24 56  1  0
 25 57  1  0
 26 58  1  0
 31 59  1  0
 32 60  1  0
 33 61  1  0
 34 62  1  0
 35 63  1  0
M  END
$$$$
