
     RDKit          3D

 33 34  0  0  0  0  0  0  0  0999 V2000
   -4.2052   -2.5963    2.8737 C   0  0  0  0  0  0  0  0  0  0  0  0
   -2.6238   -1.9690    2.2675 S   0  0  0  0  0  0  0  0  0  0  0  0
   -2.8730   -1.9636    0.5197 C   0  0  0  0  0  0  0  0  0  0  0  0
   -3.9175   -2.6105    0.0103 N   0  0  0  0  0  0  0  0  0  0  0  0
   -3.8626   -2.4992   -1.6336 S   0  0  0  0  0  0  0  0  0  0  0  0
   -2.4314   -1.5644   -1.7051 C   0  0  0  0  0  0  0  0  0  0  0  0
   -1.7620   -1.0236   -3.2356 S   0  0  0  0  0  0  0  0  0  0  0  0
   -2.5529    0.5995   -3.3657 C   0  0  0  0  0  0  0  0  0  0  0  0
   -1.9651   -1.3460   -0.4144 C   0  0  0  0  0  0  0  0  0  0  0  0
   -0.7734   -0.5848   -0.0665 C   0  0  0  0  0  0  0  0  0  0  0  0
   -0.7607    0.2400    0.8447 O   0  0  0  0  0  0  0  0  0  0  0  0
    0.3492   -0.8720   -0.8217 N   0  0  0  0  0  0  0  0  0  0  0  0
    1.5842   -0.2622   -0.7945 C   0  0  0  0  0  0  0  0  0  0  0  0
    2.3998   -0.5804   -1.6553 O   0  0  0  0  0  0  0  0  0  0  0  0
    1.7669    0.6579    0.2032 N   0  0  0  0  0  0  0  0  0  0  0  0
    2.9126    1.4314    0.4728 C   0  0  0  0  0  0  0  0  0  0  0  0
    4.0969    1.3707   -0.2565 C   0  0  0  0  0  0  0  0  0  0  0  0
    5.1725    2.1857    0.0997 C   0  0  0  0  0  0  0  0  0  0  0  0
    5.0284    3.0403    1.1798 C   0  0  0  0  0  0  0  0  0  0  0  0
    3.9005    3.1316    1.9134 N   0  0  0  0  0  0  0  0  0  0  0  0
    2.8750    2.3264    1.5427 C   0  0  0  0  0  0  0  0  0  0  0  0
   -4.3746   -3.6219    2.5340 H   0  0  0  0  0  0  0  0  0  0  0  0
   -5.0294   -1.9578    2.5434 H   0  0  0  0  0  0  0  0  0  0  0  0
   -4.1914   -2.5980    3.9671 H   0  0  0  0  0  0  0  0  0  0  0  0
   -3.6411    0.4959   -3.3894 H   0  0  0  0  0  0  0  0  0  0  0  0
   -2.2680    1.2328   -2.5209 H   0  0  0  0  0  0  0  0  0  0  0  0
   -2.2288    1.0851   -4.2898 H   0  0  0  0  0  0  0  0  0  0  0  0
    0.2634   -1.5237   -1.5897 H   0  0  0  0  0  0  0  0  0  0  0  0
    0.9658    0.8014    0.8171 H   0  0  0  0  0  0  0  0  0  0  0  0
    4.2175    0.7030   -1.1029 H   0  0  0  0  0  0  0  0  0  0  0  0
    6.1023    2.1505   -0.4572 H   0  0  0  0  0  0  0  0  0  0  0  0
    5.8399    3.6916    1.4913 H   0  0  0  0  0  0  0  0  0  0  0  0
    1.9861    2.4297    2.1595 H   0  0  0  0  0  0  0  0  0  0  0  0
  1  2  1  0
  2  3  1  0
  3  4  2  0
  4  5  1  0
  5  6  1  0
  6  7  1  0
  7  8  1  0
  6  9  2  0
  9 10  1  0
 10 11  2  0
 10 12  1  0
 12 13  1  0
 13 14  2  0
 13 15  1  0
 15 16  1  0
 16 17  2  0
 17 18  1  0
 18 19  2  0
 19 20  1  0
 20 21  2  0
  9  3  1  0
 21 16  1  0
  1 22  1  0
  1 23  1  0
  1 24  1  0
  8 25  1  0
  8 26  1  0
  8 27  1  0
 12 28  1  0
 15 29  1  0
 17 30  1  0
 18 31  1  0
 19 32  1  0
 21 33  1  0
M  END
$$$$
