
     RDKit          3D

 61 63  0  0  0  0  0  0  0  0999 V2000
   -4.5549   -4.0052    3.1055 C   0  0  0  0  0  0  0  0  0  0  0  0
   -4.8283   -2.5669    2.6919 C   0  0  0  0  0  0  0  0  0  0  0  0
   -3.7994   -2.0767    1.6676 C   0  0  0  0  0  0  0  0  0  0  0  0
   -4.0950   -0.6867    1.2857 N   0  0  0  0  0  0  0  0  0  0  0  0
   -4.6349   -0.5683   -0.0786 C   0  0  0  0  0  0  0  0  0  0  0  0
   -6.0433   -1.1590   -0.2177 C   0  0  0  0  0  0  0  0  0  0  0  0
   -6.6123   -0.9060   -1.6067 C   0  0  0  0  0  0  0  0  0  0  0  0
   -2.9498    0.2159    1.5199 C   0  0  0  0  0  0  0  0  0  0  0  0
   -1.6584    0.0025    0.6975 C   0  0  0  0  0  0  0  0  0  0  0  0
   -1.8183    0.4748   -0.6790 N   0  0  0  0  0  0  0  0  0  0  0  0
   -1.0122   -0.2704   -1.9353 S   0  0  0  0  0  6  0  0  0  0  0  0
   -1.2833   -1.6889   -1.8696 O   0  0  0  0  0  0  0  0  0  0  0  0
   -1.2917    0.5081   -3.1210 O   0  0  0  0  0  0  0  0  0  0  0  0
    0.6912   -0.0078   -1.5036 C   0  0  0  0  0  0  0  0  0  0  0  0
    1.2861    1.2322   -1.7842 C   0  0  0  0  0  0  0  0  0  0  0  0
    2.6328    1.4602   -1.4678 C   0  0  0  0  0  0  0  0  0  0  0  0
    3.3704    0.4411   -0.8885 C   0  0  0  0  0  0  0  0  0  0  0  0
    2.7582   -0.7902   -0.6127 C   0  0  0  0  0  0  0  0  0  0  0  0
    1.4282   -1.0406   -0.9238 C   0  0  0  0  0  0  0  0  0  0  0  0
    3.7246   -1.7608   -0.0109 C   0  0  0  0  0  0  0  0  0  0  0  0
    4.9271   -0.8604    0.2656 C   0  0  0  0  0  0  0  0  0  0  0  0
    4.7097    0.4004   -0.4609 N   0  0  0  0  0  0  0  0  0  0  0  0
    5.7516    1.3202   -0.5370 C   0  0  0  0  0  0  0  0  0  0  0  0
    6.7988    1.0956    0.0936 O   0  0  0  0  0  0  0  0  0  0  0  0
    5.6222    2.5723   -1.4353 C   0  0  0  0  0  0  0  0  0  0  0  0
    5.2370    3.9139   -0.7443 C   0  0  0  0  0  0  0  0  0  0  0  0
    6.1783    4.6237   -1.7336 C   0  0  0  0  0  0  0  0  0  0  0  0
    6.9448    3.2940   -1.8450 C   0  0  0  0  0  0  0  0  0  0  0  0
   -5.2947   -4.3348    3.8417 H   0  0  0  0  0  0  0  0  0  0  0  0
   -4.6100   -4.6777    2.2436 H   0  0  0  0  0  0  0  0  0  0  0  0
   -3.5618   -4.1026    3.5554 H   0  0  0  0  0  0  0  0  0  0  0  0
   -5.8440   -2.5042    2.2875 H   0  0  0  0  0  0  0  0  0  0  0  0
   -4.7982   -1.9285    3.5834 H   0  0  0  0  0  0  0  0  0  0  0  0
   -2.8087   -2.1599    2.1328 H   0  0  0  0  0  0  0  0  0  0  0  0
   -3.7736   -2.7439    0.7967 H   0  0  0  0  0  0  0  0  0  0  0  0
   -4.7003    0.4944   -0.3457 H   0  0  0  0  0  0  0  0  0  0  0  0
   -3.9721   -1.0467   -0.8088 H   0  0  0  0  0  0  0  0  0  0  0  0
   -6.7123   -0.7145    0.5286 H   0  0  0  0  0  0  0  0  0  0  0  0
   -6.0271   -2.2404   -0.0449 H   0  0  0  0  0  0  0  0  0  0  0  0
   -7.6145   -1.3381   -1.6899 H   0  0  0  0  0  0  0  0  0  0  0  0
   -5.9810   -1.3600   -2.3772 H   0  0  0  0  0  0  0  0  0  0  0  0
   -6.6873    0.1667   -1.8112 H   0  0  0  0  0  0  0  0  0  0  0  0
   -3.2919    1.2509    1.3866 H   0  0  0  0  0  0  0  0  0  0  0  0
   -2.6854    0.1437    2.5835 H   0  0  0  0  0  0  0  0  0  0  0  0
   -1.3565   -1.0484    0.7261 H   0  0  0  0  0  0  0  0  0  0  0  0
   -0.8556    0.5879    1.1603 H   0  0  0  0  0  0  0  0  0  0  0  0
   -2.1466    1.4209   -0.8589 H   0  0  0  0  0  0  0  0  0  0  0  0
    0.7057    2.0256   -2.2523 H   0  0  0  0  0  0  0  0  0  0  0  0
    3.0395    2.4371   -1.6810 H   0  0  0  0  0  0  0  0  0  0  0  0
    0.9829   -2.0116   -0.7250 H   0  0  0  0  0  0  0  0  0  0  0  0
    3.3444   -2.2178    0.9071 H   0  0  0  0  0  0  0  0  0  0  0  0
    3.9764   -2.5404   -0.7372 H   0  0  0  0  0  0  0  0  0  0  0  0
    5.8676   -1.3271   -0.0483 H   0  0  0  0  0  0  0  0  0  0  0  0
    5.0069   -0.6225    1.3338 H   0  0  0  0  0  0  0  0  0  0  0  0
    5.0494    2.3668   -2.3491 H   0  0  0  0  0  0  0  0  0  0  0  0
    4.1887    4.2144   -0.8089 H   0  0  0  0  0  0  0  0  0  0  0  0
    5.5582    3.9871    0.3017 H   0  0  0  0  0  0  0  0  0  0  0  0
    6.7435    5.4681   -1.3316 H   0  0  0  0  0  0  0  0  0  0  0  0
    5.6891    4.9305   -2.6651 H   0  0  0  0  0  0  0  0  0  0  0  0
    7.3247    3.0547   -2.8420 H   0  0  0  0  0  0  0  0  0  0  0  0
    7.7653    3.2031   -1.1239 H   0  0  0  0  0  0  0  0  0  0  0  0
  1  2  1  0
  2  3  1  0
  3  4  1  0
  4  5  1  0
  5  6  1  0
  6  7  1  0
  4  8  1  0
  8  9  1  0
  9 10  1  0
 10 11  1  0
 11 12  2  0
 11 13  2  0
 11 14  1  0
 14 15  2  0
 15 16  1  0
 16 17  2  0
 17 18  1  0
 18 19  2  0
 18 20  1  0
 20 21  1  0
 21 22  1  0
 22 23  1  0
 23 24  2  0
 23 25  1  0
 25 26  1  0
 26 27  1  0
 27 28  1  0
 19 14  1  0
 28 25  1  0
 22 17  1  0
  1 29  1  0
  1 30  1  0
  1 31  1  0
  2 32  1  0
  2 33  1  0
  3 34  1  0
  3 35  1  0
  5 36  1  0
  5 37  1  0
  6 38  1  0
  6 39  1  0
  7 40  1  0
  7 41  1  0
  7 42  1  0
  8 43  1  0
  8 44  1  0
  9 45  1  0
  9 46  1  0
 10 47  1  0
 15 48  1  0
 16 49  1  0
 19 50  1  0
 20 51  1  0
 20 52  1  0
 21 53  1  0
 21 54  1  0
 25 55  1  0
 26 56  1  0
 26 57  1  0
 27 58  1  0
 27 59  1  0
 28 60  1  0
 28 61  1  0
M  END
$$$$
