
     RDKit          3D

 45 46  0  0  0  0  0  0  0  0999 V2000
   -7.0120   -2.8656    1.5251 C   0  0  0  0  0  0  0  0  0  0  0  0
   -6.2062   -1.5848    1.4021 C   0  0  0  0  0  0  0  0  0  0  0  0
   -5.3306   -1.7217    0.2848 O   0  0  0  0  0  0  0  0  0  0  0  0
   -4.5316   -0.6539   -0.0166 C   0  0  0  0  0  0  0  0  0  0  0  0
   -3.7295   -0.8260   -1.1463 C   0  0  0  0  0  0  0  0  0  0  0  0
   -2.8648    0.1862   -1.5685 C   0  0  0  0  0  0  0  0  0  0  0  0
   -2.7905    1.3935   -0.8629 C   0  0  0  0  0  0  0  0  0  0  0  0
   -1.8369    2.4730   -1.3047 C   0  0  0  0  0  0  0  0  0  0  0  0
   -0.4893    2.1528   -0.8940 N   0  0  0  0  0  0  0  0  0  0  0  0
    0.4381    1.6976   -1.7836 C   0  0  0  0  0  0  0  0  0  0  0  0
    0.2581    1.6367   -2.9877 O   0  0  0  0  0  0  0  0  0  0  0  0
    1.6105    1.3046   -1.1591 N   0  0  0  0  0  0  0  0  0  0  0  0
    2.9176    0.7066   -2.0028 S   0  0  0  0  0  6  0  0  0  0  0  0
    3.5149    1.7739   -2.7738 O   0  0  0  0  0  0  0  0  0  0  0  0
    2.5696   -0.5737   -2.5775 O   0  0  0  0  0  0  0  0  0  0  0  0
    4.0284    0.3741   -0.6463 C   0  0  0  0  0  0  0  0  0  0  0  0
    4.0505   -0.8960   -0.0640 C   0  0  0  0  0  0  0  0  0  0  0  0
    4.9184   -1.1537    1.0022 C   0  0  0  0  0  0  0  0  0  0  0  0
    5.7635   -0.1485    1.4789 C   0  0  0  0  0  0  0  0  0  0  0  0
    6.6508   -0.2687    2.5123 O   0  0  0  0  0  0  0  0  0  0  0  0
    6.7827   -1.5561    3.1027 C   0  0  0  0  0  0  0  0  0  0  0  0
    5.7374    1.1156    0.8791 C   0  0  0  0  0  0  0  0  0  0  0  0
    4.8772    1.3825   -0.1873 C   0  0  0  0  0  0  0  0  0  0  0  0
   -3.5907    1.5603    0.2750 C   0  0  0  0  0  0  0  0  0  0  0  0
   -4.4580    0.5440    0.6939 C   0  0  0  0  0  0  0  0  0  0  0  0
   -7.5875   -3.0479    0.6113 H   0  0  0  0  0  0  0  0  0  0  0  0
   -6.3493   -3.7268    1.6613 H   0  0  0  0  0  0  0  0  0  0  0  0
   -7.7014   -2.8129    2.3723 H   0  0  0  0  0  0  0  0  0  0  0  0
   -5.6282   -1.4360    2.3214 H   0  0  0  0  0  0  0  0  0  0  0  0
   -6.8927   -0.7443    1.2481 H   0  0  0  0  0  0  0  0  0  0  0  0
   -3.7782   -1.7577   -1.7053 H   0  0  0  0  0  0  0  0  0  0  0  0
   -2.2482    0.0255   -2.4521 H   0  0  0  0  0  0  0  0  0  0  0  0
   -2.0973    3.4286   -0.8363 H   0  0  0  0  0  0  0  0  0  0  0  0
   -1.9022    2.6149   -2.3891 H   0  0  0  0  0  0  0  0  0  0  0  0
   -0.3202    2.0388    0.0905 H   0  0  0  0  0  0  0  0  0  0  0  0
    1.7205    1.3887   -0.1599 H   0  0  0  0  0  0  0  0  0  0  0  0
    3.4041   -1.6895   -0.4348 H   0  0  0  0  0  0  0  0  0  0  0  0
    4.9136   -2.1494    1.4343 H   0  0  0  0  0  0  0  0  0  0  0  0
    7.1160   -2.2963    2.3678 H   0  0  0  0  0  0  0  0  0  0  0  0
    5.8485   -1.8665    3.5818 H   0  0  0  0  0  0  0  0  0  0  0  0
    7.5497   -1.4901    3.8804 H   0  0  0  0  0  0  0  0  0  0  0  0
    6.4037    1.8956    1.2421 H   0  0  0  0  0  0  0  0  0  0  0  0
    4.8827    2.3660   -0.6521 H   0  0  0  0  0  0  0  0  0  0  0  0
   -3.5504    2.4857    0.8458 H   0  0  0  0  0  0  0  0  0  0  0  0
   -5.0608    0.7208    1.5783 H   0  0  0  0  0  0  0  0  0  0  0  0
  1  2  1  0
  2  3  1  0
  3  4  1  0
  4  5  2  0
  5  6  1  0
  6  7  2  0
  7  8  1  0
  8  9  1  0
  9 10  1  0
 10 11  2  0
 10 12  1  0
 12 13  1  0
 13 14  2  0
 13 15  2  0
 13 16  1  0
 16 17  2  0
 17 18  1  0
 18 19  2  0
 19 20  1  0
 20 21  1  0
 19 22  1  0
 22 23  2  0
  7 24  1  0
 24 25  2  0
 25  4  1  0
 23 16  1  0
  1 26  1  0
  1 27  1  0
  1 28  1  0
  2 29  1  0
  2 30  1  0
  5 31  1  0
  6 32  1  0
  8 33  1  0
  8 34  1  0
  9 35  1  0
 12 36  1  0
 17 37  1  0
 18 38  1  0
 21 39  1  0
 21 40  1  0
 21 41  1  0
 22 42  1  0
 23 43  1  0
 24 44  1  0
 25 45  1  0
M  END
$$$$
