
     RDKit          3D

 40 42  0  0  0  0  0  0  0  0999 V2000
   -4.8816    1.0036    1.8622 C   0  0  0  0  0  0  0  0  0  0  0  0
   -5.1491    0.6697    0.3912 C   0  0  0  0  0  0  0  0  0  0  0  0
   -4.2757    1.5176   -0.5563 C   0  0  0  0  0  0  0  0  0  0  0  0
   -2.7734    1.2076   -0.4500 C   0  0  0  0  0  0  0  0  0  0  0  0
   -2.5003   -0.2692   -0.3514 C   0  0  0  0  0  0  0  0  0  0  0  0
   -1.2086   -0.9141   -0.4565 C   0  0  0  0  0  0  0  0  0  0  0  0
    0.0746   -0.2304   -0.7061 C   0  0  0  0  0  0  0  0  0  0  0  0
    0.1114    0.8355   -1.3095 O   0  0  0  0  0  0  0  0  0  0  0  0
    1.1706   -0.8842   -0.1672 N   0  0  0  0  0  0  0  0  0  0  0  0
    2.5277   -0.5150   -0.2637 C   0  0  0  0  0  0  0  0  0  0  0  0
    2.9974    0.5584   -1.0175 C   0  0  0  0  0  0  0  0  0  0  0  0
    4.3667    0.8479   -1.0595 C   0  0  0  0  0  0  0  0  0  0  0  0
    5.2895    0.0724   -0.3545 C   0  0  0  0  0  0  0  0  0  0  0  0
    6.5869    0.4726   -0.4899 O   0  0  0  0  0  0  0  0  0  0  0  0
    7.5813   -0.2628    0.2007 C   0  0  0  0  0  0  0  0  0  0  0  0
    8.7879    0.2884   -0.0575 F   0  0  0  0  0  0  0  0  0  0  0  0
    7.6112   -1.5487   -0.2112 F   0  0  0  0  0  0  0  0  0  0  0  0
    7.3793   -0.2233    1.5354 F   0  0  0  0  0  0  0  0  0  0  0  0
    4.8246   -1.0039    0.3977 C   0  0  0  0  0  0  0  0  0  0  0  0
    3.4539   -1.2941    0.4403 C   0  0  0  0  0  0  0  0  0  0  0  0
   -1.3509   -2.2878   -0.3249 C   0  0  0  0  0  0  0  0  0  0  0  0
   -2.9578   -2.7772   -0.0125 S   0  0  0  0  0  0  0  0  0  0  0  0
   -3.5107   -1.1744   -0.0811 C   0  0  0  0  0  0  0  0  0  0  0  0
   -4.9596   -0.8357    0.1065 C   0  0  0  0  0  0  0  0  0  0  0  0
   -3.8635    0.7465    2.1702 H   0  0  0  0  0  0  0  0  0  0  0  0
   -5.5726    0.4544    2.5106 H   0  0  0  0  0  0  0  0  0  0  0  0
   -5.0309    2.0725    2.0477 H   0  0  0  0  0  0  0  0  0  0  0  0
   -6.2009    0.9166    0.1956 H   0  0  0  0  0  0  0  0  0  0  0  0
   -4.6017    1.3261   -1.5876 H   0  0  0  0  0  0  0  0  0  0  0  0
   -4.4405    2.5860   -0.3736 H   0  0  0  0  0  0  0  0  0  0  0  0
   -2.3568    1.7013    0.4361 H   0  0  0  0  0  0  0  0  0  0  0  0
   -2.2731    1.6321   -1.3269 H   0  0  0  0  0  0  0  0  0  0  0  0
    0.9735   -1.6820    0.4201 H   0  0  0  0  0  0  0  0  0  0  0  0
    2.3306    1.1941   -1.5916 H   0  0  0  0  0  0  0  0  0  0  0  0
    4.7091    1.6923   -1.6546 H   0  0  0  0  0  0  0  0  0  0  0  0
    5.4915   -1.6452    0.9668 H   0  0  0  0  0  0  0  0  0  0  0  0
    3.1264   -2.1419    1.0375 H   0  0  0  0  0  0  0  0  0  0  0  0
   -0.5900   -3.0513   -0.4075 H   0  0  0  0  0  0  0  0  0  0  0  0
   -5.4921   -1.0901   -0.8191 H   0  0  0  0  0  0  0  0  0  0  0  0
   -5.4043   -1.4329    0.9115 H   0  0  0  0  0  0  0  0  0  0  0  0
  1  2  1  0
  2  3  1  0
  3  4  1  0
  4  5  1  0
  5  6  1  0
  6  7  1  0
  7  8  2  0
  7  9  1  0
  9 10  1  0
 10 11  2  0
 11 12  1  0
 12 13  2  0
 13 14  1  0
 14 15  1  0
 15 16  1  0
 15 17  1  0
 15 18  1  0
 13 19  1  0
 19 20  2  0
  6 21  2  0
 21 22  1  0
 22 23  1  0
 23 24  1  0
 24  2  1  0
 23  5  2  0
 20 10  1  0
  1 25  1  0
  1 26  1  0
  1 27  1  0
  2 28  1  0
  3 29  1  0
  3 30  1  0
  4 31  1  0
  4 32  1  0
  9 33  1  0
 11 34  1  0
 12 35  1  0
 19 36  1  0
 20 37  1  0
 21 38  1  0
 24 39  1  0
 24 40  1  0
M  END
$$$$
