
     RDKit          3D

 55 58  0  0  0  0  0  0  0  0999 V2000
    4.3684   -3.9971   -3.7401 C   0  0  0  0  0  0  0  0  0  0  0  0
    3.5445   -2.8458   -3.6189 O   0  0  0  0  0  0  0  0  0  0  0  0
    2.8791   -2.6659   -2.4343 C   0  0  0  0  0  0  0  0  0  0  0  0
    2.9543   -3.5314   -1.3407 C   0  0  0  0  0  0  0  0  0  0  0  0
    2.2705   -3.2372   -0.1592 C   0  0  0  0  0  0  0  0  0  0  0  0
    1.5105   -2.0729   -0.0554 C   0  0  0  0  0  0  0  0  0  0  0  0
    1.4028   -1.1901   -1.1409 C   0  0  0  0  0  0  0  0  0  0  0  0
    0.6183    0.0994   -1.0294 C   0  0  0  0  0  0  0  0  0  0  0  0
    1.5108    1.2375   -0.5242 C   0  0  0  0  0  0  0  0  0  0  0  0
    0.6003    1.9772    0.4189 C   0  0  0  0  0  0  0  0  0  0  0  0
    0.9675    3.3015    0.9744 C   0  0  0  0  0  0  0  0  0  0  0  0
    0.0449    3.9793    1.7820 C   0  0  0  0  0  0  0  0  0  0  0  0
    0.3636    5.2281    2.3188 C   0  0  0  0  0  0  0  0  0  0  0  0
    1.6042    5.8048    2.0534 C   0  0  0  0  0  0  0  0  0  0  0  0
    2.5279    5.1340    1.2529 C   0  0  0  0  0  0  0  0  0  0  0  0
    2.2132    3.8838    0.7134 C   0  0  0  0  0  0  0  0  0  0  0  0
   -0.5029    1.3663    0.7248 N   0  0  0  0  0  0  0  0  0  0  0  0
   -0.4974    0.0699   -0.0396 N   0  0  0  0  0  0  0  0  0  0  0  0
   -1.9993   -0.4440   -0.7089 S   0  0  0  0  0  6  0  0  0  0  0  0
   -1.8445   -1.7961   -1.2095 O   0  0  0  0  0  0  0  0  0  0  0  0
   -2.4965    0.6043   -1.5802 O   0  0  0  0  0  0  0  0  0  0  0  0
   -3.0382   -0.5189    0.7300 C   0  0  0  0  0  0  0  0  0  0  0  0
   -3.8328    0.5785    1.0696 C   0  0  0  0  0  0  0  0  0  0  0  0
   -4.6726    0.5017    2.1820 C   0  0  0  0  0  0  0  0  0  0  0  0
   -4.7216   -0.6661    2.9561 C   0  0  0  0  0  0  0  0  0  0  0  0
   -5.6514   -0.7565    4.1306 C   0  0  0  0  0  0  0  0  0  0  0  0
   -3.9387   -1.7690    2.5870 C   0  0  0  0  0  0  0  0  0  0  0  0
   -3.0961   -1.6986    1.4762 C   0  0  0  0  0  0  0  0  0  0  0  0
    2.0824   -1.5098   -2.3306 C   0  0  0  0  0  0  0  0  0  0  0  0
    2.0026   -0.6115   -3.3715 O   0  0  0  0  0  0  0  0  0  0  0  0
    1.1545   -1.1211   -4.4049 C   0  0  0  0  0  0  0  0  0  0  0  0
    5.1807   -3.9811   -3.0061 H   0  0  0  0  0  0  0  0  0  0  0  0
    4.8209   -3.9806   -4.7363 H   0  0  0  0  0  0  0  0  0  0  0  0
    3.7778   -4.9156   -3.6590 H   0  0  0  0  0  0  0  0  0  0  0  0
    3.5430   -4.4420   -1.3696 H   0  0  0  0  0  0  0  0  0  0  0  0
    2.3372   -3.9151    0.6885 H   0  0  0  0  0  0  0  0  0  0  0  0
    1.0017   -1.8590    0.8829 H   0  0  0  0  0  0  0  0  0  0  0  0
    0.2038    0.3873   -2.0037 H   0  0  0  0  0  0  0  0  0  0  0  0
    2.3841    0.8839    0.0353 H   0  0  0  0  0  0  0  0  0  0  0  0
    1.8416    1.8737   -1.3504 H   0  0  0  0  0  0  0  0  0  0  0  0
   -0.9278    3.5424    1.9987 H   0  0  0  0  0  0  0  0  0  0  0  0
   -0.3573    5.7495    2.9438 H   0  0  0  0  0  0  0  0  0  0  0  0
    1.8517    6.7774    2.4718 H   0  0  0  0  0  0  0  0  0  0  0  0
    3.4961    5.5855    1.0492 H   0  0  0  0  0  0  0  0  0  0  0  0
    2.9573    3.3859    0.0989 H   0  0  0  0  0  0  0  0  0  0  0  0
   -3.7983    1.4907    0.4785 H   0  0  0  0  0  0  0  0  0  0  0  0
   -5.2900    1.3591    2.4413 H   0  0  0  0  0  0  0  0  0  0  0  0
   -6.6312   -1.1192    3.8050 H   0  0  0  0  0  0  0  0  0  0  0  0
   -5.2558   -1.4385    4.8905 H   0  0  0  0  0  0  0  0  0  0  0  0
   -5.7754    0.2222    4.6061 H   0  0  0  0  0  0  0  0  0  0  0  0
   -3.9833   -2.6912    3.1625 H   0  0  0  0  0  0  0  0  0  0  0  0
   -2.4949   -2.5610    1.1979 H   0  0  0  0  0  0  0  0  0  0  0  0
    0.8863   -0.2829   -5.0553 H   0  0  0  0  0  0  0  0  0  0  0  0
    0.2266   -1.5427   -4.0009 H   0  0  0  0  0  0  0  0  0  0  0  0
    1.6771   -1.8634   -5.0151 H   0  0  0  0  0  0  0  0  0  0  0  0
  1  2  1  0
  2  3  1  0
  3  4  2  0
  4  5  1  0
  5  6  2  0
  6  7  1  0
  7  8  1  0
  8  9  1  0
  9 10  1  0
 10 11  1  0
 11 12  2  0
 12 13  1  0
 13 14  2  0
 14 15  1  0
 15 16  2  0
 10 17  2  0
 17 18  1  0
 18 19  1  0
 19 20  2  0
 19 21  2  0
 19 22  1  0
 22 23  2  0
 23 24  1  0
 24 25  2  0
 25 26  1  0
 25 27  1  0
 27 28  2  0
  7 29  2  0
 29 30  1  0
 30 31  1  0
 29  3  1  0
 18  8  1  0
 28 22  1  0
 16 11  1  0
  1 32  1  0
  1 33  1  0
  1 34  1  0
  4 35  1  0
  5 36  1  0
  6 37  1  0
  8 38  1  0
  9 39  1  0
  9 40  1  0
 12 41  1  0
 13 42  1  0
 14 43  1  0
 15 44  1  0
 16 45  1  0
 23 46  1  0
 24 47  1  0
 26 48  1  0
 26 49  1  0
 26 50  1  0
 27 51  1  0
 28 52  1  0
 31 53  1  0
 31 54  1  0
 31 55  1  0
M  END
$$$$
