
     RDKit          3D

 55 57  0  0  0  0  0  0  0  0999 V2000
    0.9903    3.8846    2.8105 C   0  0  0  0  0  0  0  0  0  0  0  0
    1.6226    2.5989    2.2717 C   0  0  0  0  0  0  0  0  0  0  0  0
    2.5378    1.9925    3.3398 C   0  0  0  0  0  0  0  0  0  0  0  0
    0.5679    1.5558    1.8428 C   0  0  0  0  0  0  0  0  0  0  0  0
   -0.3520    1.9941    0.6848 C   0  0  0  0  0  0  0  0  0  0  0  0
    0.3177    2.1604   -0.6760 C   0  0  0  0  0  0  0  0  0  0  0  0
   -0.2117    2.7200   -1.6297 O   0  0  0  0  0  0  0  0  0  0  0  0
    1.5635    1.6117   -0.7130 O   0  0  0  0  0  0  0  0  0  0  0  0
    2.2740    1.7047   -1.9541 C   0  0  0  0  0  0  0  0  0  0  0  0
    2.7037    0.3354   -2.4977 C   0  0  0  0  0  0  0  0  0  0  0  0
    3.3772    0.2556   -3.5256 O   0  0  0  0  0  0  0  0  0  0  0  0
    2.2762   -0.7219   -1.7145 N   0  0  0  0  0  0  0  0  0  0  0  0
    2.5140   -2.0975   -1.9096 C   0  0  0  0  0  0  0  0  0  0  0  0
    3.2229   -2.6231   -2.9957 C   0  0  0  0  0  0  0  0  0  0  0  0
    3.4070   -4.0045   -3.1263 C   0  0  0  0  0  0  0  0  0  0  0  0
    2.8829   -4.8733   -2.1716 C   0  0  0  0  0  0  0  0  0  0  0  0
    2.1797   -4.3542   -1.0862 C   0  0  0  0  0  0  0  0  0  0  0  0
    1.5229   -5.4191    0.0963 Cl  0  0  0  0  0  0  0  0  0  0  0  0
    1.9968   -2.9766   -0.9493 C   0  0  0  0  0  0  0  0  0  0  0  0
   -1.5060    1.0916    0.5827 N   0  0  0  0  0  0  0  0  0  0  0  0
   -2.7515    1.3587    1.1095 C   0  0  0  0  0  0  0  0  0  0  0  0
   -2.9843    2.4878    1.7688 O   0  0  0  0  0  0  0  0  0  0  0  0
   -3.5726    0.2914    0.8107 C   0  0  0  0  0  0  0  0  0  0  0  0
   -2.7871   -0.6642    0.0959 C   0  0  0  0  0  0  0  0  0  0  0  0
   -1.5125   -0.1482   -0.0175 C   0  0  0  0  0  0  0  0  0  0  0  0
   -0.4196   -0.6441   -0.5843 O   0  0  0  0  0  0  0  0  0  0  0  0
   -3.3337   -1.9675   -0.3924 C   0  0  0  0  0  0  0  0  0  0  0  0
   -4.7926   -2.1471   -0.0429 C   0  0  0  0  0  0  0  0  0  0  0  0
   -5.5328   -1.2463    0.6305 C   0  0  0  0  0  0  0  0  0  0  0  0
   -5.0157    0.0795    1.1378 C   0  0  0  0  0  0  0  0  0  0  0  0
    0.4658    4.4341    2.0218 H   0  0  0  0  0  0  0  0  0  0  0  0
    0.2754    3.6707    3.6137 H   0  0  0  0  0  0  0  0  0  0  0  0
    1.7580    4.5556    3.2110 H   0  0  0  0  0  0  0  0  0  0  0  0
    2.2502    2.8637    1.4129 H   0  0  0  0  0  0  0  0  0  0  0  0
    3.3222    2.7007    3.6264 H   0  0  0  0  0  0  0  0  0  0  0  0
    1.9732    1.7288    4.2414 H   0  0  0  0  0  0  0  0  0  0  0  0
    3.0282    1.0861    2.9671 H   0  0  0  0  0  0  0  0  0  0  0  0
   -0.0500    1.3114    2.7182 H   0  0  0  0  0  0  0  0  0  0  0  0
    1.0772    0.6210    1.5726 H   0  0  0  0  0  0  0  0  0  0  0  0
   -0.7578    2.9843    0.9179 H   0  0  0  0  0  0  0  0  0  0  0  0
    1.7079    2.2145   -2.7429 H   0  0  0  0  0  0  0  0  0  0  0  0
    3.1889    2.2772   -1.7561 H   0  0  0  0  0  0  0  0  0  0  0  0
    1.6909   -0.4625   -0.9198 H   0  0  0  0  0  0  0  0  0  0  0  0
    3.6447   -1.9838   -3.7659 H   0  0  0  0  0  0  0  0  0  0  0  0
    3.9600   -4.3970   -3.9789 H   0  0  0  0  0  0  0  0  0  0  0  0
    3.0281   -5.9451   -2.2786 H   0  0  0  0  0  0  0  0  0  0  0  0
    1.4579   -2.5968   -0.0830 H   0  0  0  0  0  0  0  0  0  0  0  0
   -3.9296    2.4998    1.9993 H   0  0  0  0  0  0  0  0  0  0  0  0
   -0.6985   -1.4470   -1.0655 H   0  0  0  0  0  0  0  0  0  0  0  0
   -3.2212   -2.0245   -1.4813 H   0  0  0  0  0  0  0  0  0  0  0  0
   -2.7589   -2.7906    0.0481 H   0  0  0  0  0  0  0  0  0  0  0  0
   -5.2548   -3.0752   -0.3692 H   0  0  0  0  0  0  0  0  0  0  0  0
   -6.5785   -1.4648    0.8343 H   0  0  0  0  0  0  0  0  0  0  0  0
   -5.1523    0.1200    2.2241 H   0  0  0  0  0  0  0  0  0  0  0  0
   -5.6119    0.8844    0.6936 H   0  0  0  0  0  0  0  0  0  0  0  0
  1  2  1  0
  2  3  1  0
  2  4  1  0
  4  5  1  0
  5  6  1  0
  6  7  2  0
  6  8  1  0
  8  9  1  0
  9 10  1  0
 10 11  2  0
 10 12  1  0
 12 13  1  0
 13 14  2  0
 14 15  1  0
 15 16  2  0
 16 17  1  0
 17 18  1  0
 17 19  2  0
  5 20  1  0
 20 21  1  0
 21 22  1  0
 21 23  2  0
 23 24  1  0
 24 25  2  0
 25 26  1  0
 24 27  1  0
 27 28  1  0
 28 29  2  0
 29 30  1  0
 19 13  1  0
 25 20  1  0
 30 23  1  0
  1 31  1  0
  1 32  1  0
  1 33  1  0
  2 34  1  0
  3 35  1  0
  3 36  1  0
  3 37  1  0
  4 38  1  0
  4 39  1  0
  5 40  1  0
  9 41  1  0
  9 42  1  0
 12 43  1  0
 14 44  1  0
 15 45  1  0
 16 46  1  0
 19 47  1  0
 22 48  1  0
 26 49  1  0
 27 50  1  0
 27 51  1  0
 28 52  1  0
 29 53  1  0
 30 54  1  0
 30 55  1  0
M  END
$$$$
