
     RDKit          3D

 46 50  0  0  0  0  0  0  0  0999 V2000
    0.2043    2.0677    1.4141 O   0  0  0  0  0  0  0  0  0  0  0  0
   -0.5161    1.4524    0.6321 C   0  0  0  0  0  0  0  0  0  0  0  0
   -1.8952    1.9053    0.4092 C   0  0  0  0  0  0  0  0  0  0  0  0
   -2.2904    3.1918    0.7911 C   0  0  0  0  0  0  0  0  0  0  0  0
   -3.5992    3.5997    0.5499 C   0  0  0  0  0  0  0  0  0  0  0  0
   -4.1019    5.1793    1.0079 Cl  0  0  0  0  0  0  0  0  0  0  0  0
   -4.5066    2.7364   -0.0638 C   0  0  0  0  0  0  0  0  0  0  0  0
   -4.1028    1.4504   -0.4313 C   0  0  0  0  0  0  0  0  0  0  0  0
   -2.7964    1.0282   -0.1835 C   0  0  0  0  0  0  0  0  0  0  0  0
   -2.5007   -0.2483   -0.5549 O   0  0  0  0  0  0  0  0  0  0  0  0
   -1.2476   -0.8224   -0.0891 C   0  0  0  0  0  0  0  0  0  0  0  0
   -1.4626   -1.3907    1.3351 C   0  0  0  0  0  0  0  0  0  0  0  0
   -2.5026   -2.5093    1.3560 C   0  0  0  0  0  0  0  0  0  0  0  0
   -2.1226   -3.5830    0.4419 N   0  0  0  0  0  0  0  0  0  0  0  0
   -2.0509   -3.0953   -0.9348 C   0  0  0  0  0  0  0  0  0  0  0  0
   -0.9947   -1.9988   -1.0679 C   0  0  0  0  0  0  0  0  0  0  0  0
   -0.0878    0.2112   -0.1425 C   0  0  0  0  0  0  0  0  0  0  0  0
    1.2649   -0.2941    0.3396 C   0  0  0  0  0  0  0  0  0  0  0  0
    2.1350    0.3632   -0.6770 C   0  0  0  0  0  0  0  0  0  0  0  0
    3.6091    0.4191   -0.5319 C   0  0  0  0  0  0  0  0  0  0  0  0
    4.2659   -0.2144    0.5293 C   0  0  0  0  0  0  0  0  0  0  0  0
    5.6580   -0.1442    0.6326 C   0  0  0  0  0  0  0  0  0  0  0  0
    6.3974    0.5550   -0.3206 C   0  0  0  0  0  0  0  0  0  0  0  0
    5.7485    1.1858   -1.3803 C   0  0  0  0  0  0  0  0  0  0  0  0
    4.3581    1.1180   -1.4871 C   0  0  0  0  0  0  0  0  0  0  0  0
    1.5063    0.8465   -1.7013 N   0  0  0  0  0  0  0  0  0  0  0  0
    0.1272    0.6222   -1.5040 O   0  0  0  0  0  0  0  0  0  0  0  0
   -1.5795    3.8677    1.2606 H   0  0  0  0  0  0  0  0  0  0  0  0
   -5.5272    3.0569   -0.2577 H   0  0  0  0  0  0  0  0  0  0  0  0
   -4.8112    0.7761   -0.9070 H   0  0  0  0  0  0  0  0  0  0  0  0
   -1.8005   -0.6062    2.0220 H   0  0  0  0  0  0  0  0  0  0  0  0
   -0.5189   -1.7806    1.7359 H   0  0  0  0  0  0  0  0  0  0  0  0
   -2.5650   -2.9171    2.3711 H   0  0  0  0  0  0  0  0  0  0  0  0
   -3.4990   -2.1244    1.1078 H   0  0  0  0  0  0  0  0  0  0  0  0
   -2.8205   -4.3267    0.4924 H   0  0  0  0  0  0  0  0  0  0  0  0
   -1.7802   -3.9307   -1.5903 H   0  0  0  0  0  0  0  0  0  0  0  0
   -3.0330   -2.7388   -1.2680 H   0  0  0  0  0  0  0  0  0  0  0  0
   -0.0107   -2.4492   -0.9012 H   0  0  0  0  0  0  0  0  0  0  0  0
   -1.0137   -1.6395   -2.1045 H   0  0  0  0  0  0  0  0  0  0  0  0
    1.3942   -1.3748    0.2446 H   0  0  0  0  0  0  0  0  0  0  0  0
    1.5138    0.0021    1.3613 H   0  0  0  0  0  0  0  0  0  0  0  0
    3.7208   -0.7692    1.2865 H   0  0  0  0  0  0  0  0  0  0  0  0
    6.1671   -0.6352    1.4585 H   0  0  0  0  0  0  0  0  0  0  0  0
    7.4801    0.6092   -0.2374 H   0  0  0  0  0  0  0  0  0  0  0  0
    6.3228    1.7321   -2.1244 H   0  0  0  0  0  0  0  0  0  0  0  0
    3.8641    1.6164   -2.3189 H   0  0  0  0  0  0  0  0  0  0  0  0
  1  2  2  0
  2  3  1  0
  3  4  2  0
  4  5  1  0
  5  6  1  0
  5  7  2  0
  7  8  1  0
  8  9  2  0
  9 10  1  0
 10 11  1  0
 11 12  1  0
 12 13  1  0
 13 14  1  0
 14 15  1  0
 15 16  1  0
 11 17  1  0
 17 18  1  0
 18 19  1  0
 19 20  1  0
 20 21  2  0
 21 22  1  0
 22 23  2  0
 23 24  1  0
 24 25  2  0
 19 26  2  0
 26 27  1  0
 17  2  1  0
 25 20  1  0
  9  3  1  0
 16 11  1  0
 27 17  1  0
  4 28  1  0
  7 29  1  0
  8 30  1  0
 12 31  1  0
 12 32  1  0
 13 33  1  0
 13 34  1  0
 14 35  1  0
 15 36  1  0
 15 37  1  0
 16 38  1  0
 16 39  1  0
 18 40  1  0
 18 41  1  0
 21 42  1  0
 22 43  1  0
 23 44  1  0
 24 45  1  0
 25 46  1  0
M  END
$$$$
