
     RDKit          3D

 44 46  0  0  0  0  0  0  0  0999 V2000
    4.5007    0.1877   -0.8359 C   0  0  0  0  0  0  0  0  0  0  0  0
    3.0947    0.1184   -1.0834 O   0  0  0  0  0  0  0  0  0  0  0  0
    2.5475   -1.1053   -0.8698 C   0  0  0  0  0  0  0  0  0  0  0  0
    3.1791   -2.1006   -0.5343 O   0  0  0  0  0  0  0  0  0  0  0  0
    1.0496   -1.1083   -1.0307 C   0  0  0  0  0  0  0  0  0  0  0  0
    0.4352   -0.1960   -2.0721 C   0  0  0  0  0  0  0  0  0  0  0  0
    1.2362    0.2022   -3.2890 C   0  0  0  0  0  0  0  0  0  0  0  0
   -0.8009    0.2073   -2.0246 N   0  0  0  0  0  0  0  0  0  0  0  0
   -1.6070   -0.1988   -0.9865 C   0  0  0  0  0  0  0  0  0  0  0  0
   -1.1144   -0.7274    0.1395 C   0  0  0  0  0  0  0  0  0  0  0  0
   -2.0375   -1.1639    1.2024 C   0  0  0  0  0  0  0  0  0  0  0  0
   -1.6061   -1.8027    2.1603 O   0  0  0  0  0  0  0  0  0  0  0  0
   -3.3630   -0.8293    1.0326 N   0  0  0  0  0  0  0  0  0  0  0  0
   -4.2990   -1.1943    2.0789 C   0  0  0  0  0  0  0  0  0  0  0  0
   -3.8882   -0.3255   -0.1498 C   0  0  0  0  0  0  0  0  0  0  0  0
   -5.1024   -0.1778   -0.3046 O   0  0  0  0  0  0  0  0  0  0  0  0
   -2.9660   -0.0157   -1.1427 N   0  0  0  0  0  0  0  0  0  0  0  0
   -3.4618    0.5477   -2.3955 C   0  0  0  0  0  0  0  0  0  0  0  0
    0.3622   -0.9335    0.3363 C   0  0  0  0  0  0  0  0  0  0  0  0
    0.9571    0.1632    1.2228 C   0  0  0  0  0  0  0  0  0  0  0  0
    1.5677   -0.1928    2.4378 C   0  0  0  0  0  0  0  0  0  0  0  0
    2.1350    0.7792    3.2654 C   0  0  0  0  0  0  0  0  0  0  0  0
    2.0940    2.1180    2.8887 C   0  0  0  0  0  0  0  0  0  0  0  0
    2.7969    3.3155    3.9039 Cl  0  0  0  0  0  0  0  0  0  0  0  0
    1.4863    2.4933    1.6940 C   0  0  0  0  0  0  0  0  0  0  0  0
    0.9181    1.5219    0.8652 C   0  0  0  0  0  0  0  0  0  0  0  0
    4.8250    1.2162   -1.0163 H   0  0  0  0  0  0  0  0  0  0  0  0
    5.0418   -0.4728   -1.5203 H   0  0  0  0  0  0  0  0  0  0  0  0
    4.7192   -0.0668    0.2060 H   0  0  0  0  0  0  0  0  0  0  0  0
    0.8069   -2.1128   -1.4142 H   0  0  0  0  0  0  0  0  0  0  0  0
    0.5648    0.4365   -4.1207 H   0  0  0  0  0  0  0  0  0  0  0  0
    1.8293    1.0917   -3.0636 H   0  0  0  0  0  0  0  0  0  0  0  0
    1.8927   -0.6163   -3.5948 H   0  0  0  0  0  0  0  0  0  0  0  0
   -3.8032   -1.2665    3.0512 H   0  0  0  0  0  0  0  0  0  0  0  0
   -4.7356   -2.1663    1.8277 H   0  0  0  0  0  0  0  0  0  0  0  0
   -5.1025   -0.4545    2.1487 H   0  0  0  0  0  0  0  0  0  0  0  0
   -4.5525    0.6221   -2.4127 H   0  0  0  0  0  0  0  0  0  0  0  0
   -3.1543   -0.0929   -3.2288 H   0  0  0  0  0  0  0  0  0  0  0  0
   -3.0525    1.5550   -2.5256 H   0  0  0  0  0  0  0  0  0  0  0  0
    0.5079   -1.8921    0.8557 H   0  0  0  0  0  0  0  0  0  0  0  0
    1.6023   -1.2345    2.7552 H   0  0  0  0  0  0  0  0  0  0  0  0
    2.6016    0.4832    4.2012 H   0  0  0  0  0  0  0  0  0  0  0  0
    1.4483    3.5395    1.4017 H   0  0  0  0  0  0  0  0  0  0  0  0
    0.4467    1.8490   -0.0590 H   0  0  0  0  0  0  0  0  0  0  0  0
  1  2  1  0
  2  3  1  0
  3  4  2  0
  3  5  1  0
  5  6  1  0
  6  7  1  0
  6  8  2  0
  8  9  1  0
  9 10  2  0
 10 11  1  0
 11 12  2  0
 11 13  1  0
 13 14  1  0
 13 15  1  0
 15 16  2  0
 15 17  1  0
 17 18  1  0
 10 19  1  0
 19 20  1  0
 20 21  2  0
 21 22  1  0
 22 23  2  0
 23 24  1  0
 23 25  1  0
 25 26  2  0
 19  5  1  0
 26 20  1  0
 17  9  1  0
  1 27  1  0
  1 28  1  0
  1 29  1  0
  5 30  1  0
  7 31  1  0
  7 32  1  0
  7 33  1  0
 14 34  1  0
 14 35  1  0
 14 36  1  0
 18 37  1  0
 18 38  1  0
 18 39  1  0
 19 40  1  0
 21 41  1  0
 22 42  1  0
 25 43  1  0
 26 44  1  0
M  END
$$$$
