
     RDKit          3D

 34 36  0  0  0  0  0  0  0  0999 V2000
   -2.2682   -2.8860   -2.5844 O   0  0  0  0  0  0  0  0  0  0  0  0
   -2.0913   -1.9293   -1.8402 C   0  0  0  0  0  0  0  0  0  0  0  0
   -3.1667   -1.1732   -1.3873 O   0  0  0  0  0  0  0  0  0  0  0  0
   -2.9819   -0.0701   -0.5313 C   0  0  0  0  0  0  0  0  0  0  0  0
   -4.1413    0.6066   -0.1480 C   0  0  0  0  0  0  0  0  0  0  0  0
   -4.0396    1.7069    0.6967 C   0  0  0  0  0  0  0  0  0  0  0  0
   -2.7867    2.1173    1.1471 C   0  0  0  0  0  0  0  0  0  0  0  0
   -1.6333    1.4276    0.7533 C   0  0  0  0  0  0  0  0  0  0  0  0
   -1.7101    0.3156   -0.0975 C   0  0  0  0  0  0  0  0  0  0  0  0
   -0.5272   -0.4540   -0.5486 C   0  0  0  0  0  0  0  0  0  0  0  0
    0.7375   -0.0541   -0.1049 N   0  0  0  0  0  0  0  0  0  0  0  0
    1.4832    1.0260   -0.7682 C   0  0  0  0  0  0  0  0  0  0  0  0
    2.9476    0.6249   -0.9274 C   0  0  0  0  0  0  0  0  0  0  0  0
    3.5585    0.2097    0.4091 C   0  0  0  0  0  0  0  0  0  0  0  0
    2.7253   -0.8870    1.0686 C   0  0  0  0  0  0  0  0  0  0  0  0
    1.2635   -0.4682    1.2045 C   0  0  0  0  0  0  0  0  0  0  0  0
   -0.7859   -1.4919   -1.3635 C   0  0  0  0  0  0  0  0  0  0  0  0
    0.3246   -2.2621   -1.8231 N   0  0  0  0  0  4  0  0  0  0  0  0
    0.8624   -1.9029   -2.8810 O   0  0  0  0  0  0  0  0  0  0  0  0
    0.6671   -3.2303   -1.1283 O   0  0  0  0  0  1  0  0  0  0  0  0
   -5.1137    0.2781   -0.5051 H   0  0  0  0  0  0  0  0  0  0  0  0
   -4.9336    2.2441    1.0039 H   0  0  0  0  0  0  0  0  0  0  0  0
   -2.7034    2.9775    1.8078 H   0  0  0  0  0  0  0  0  0  0  0  0
   -0.6754    1.7789    1.1260 H   0  0  0  0  0  0  0  0  0  0  0  0
    1.4060    1.9447   -0.1747 H   0  0  0  0  0  0  0  0  0  0  0  0
    1.0592    1.2395   -1.7568 H   0  0  0  0  0  0  0  0  0  0  0  0
    3.0243   -0.2116   -1.6330 H   0  0  0  0  0  0  0  0  0  0  0  0
    3.5165    1.4587   -1.3533 H   0  0  0  0  0  0  0  0  0  0  0  0
    4.5840   -0.1441    0.2553 H   0  0  0  0  0  0  0  0  0  0  0  0
    3.6132    1.0800    1.0744 H   0  0  0  0  0  0  0  0  0  0  0  0
    2.7907   -1.8004    0.4645 H   0  0  0  0  0  0  0  0  0  0  0  0
    3.1369   -1.1236    2.0560 H   0  0  0  0  0  0  0  0  0  0  0  0
    1.1732    0.3609    1.9163 H   0  0  0  0  0  0  0  0  0  0  0  0
    0.6847   -1.3083    1.6068 H   0  0  0  0  0  0  0  0  0  0  0  0
  1  2  2  0
  2  3  1  0
  3  4  1  0
  4  5  2  0
  5  6  1  0
  6  7  2  0
  7  8  1  0
  8  9  2  0
  9 10  1  0
 10 11  1  0
 11 12  1  0
 12 13  1  0
 13 14  1  0
 14 15  1  0
 15 16  1  0
 10 17  2  0
 17 18  1  0
 18 19  2  0
 18 20  1  0
 17  2  1  0
  9  4  1  0
 16 11  1  0
  5 21  1  0
  6 22  1  0
  7 23  1  0
  8 24  1  0
 12 25  1  0
 12 26  1  0
 13 27  1  0
 13 28  1  0
 14 29  1  0
 14 30  1  0
 15 31  1  0
 15 32  1  0
 16 33  1  0
 16 34  1  0
M  CHG  2  18   1  20  -1
M  END
$$$$
