
     RDKit          3D

 42 45  0  0  0  0  0  0  0  0999 V2000
   -3.8439    3.7755   -0.5152 C   0  0  0  0  0  0  0  0  0  0  0  0
   -2.6709    2.9692   -0.0398 C   0  0  0  0  0  0  0  0  0  0  0  0
   -1.9109    3.4078    1.0586 C   0  0  0  0  0  0  0  0  0  0  0  0
   -0.7924    2.6891    1.4968 C   0  0  0  0  0  0  0  0  0  0  0  0
   -0.4377    1.5283    0.8290 C   0  0  0  0  0  0  0  0  0  0  0  0
   -1.1810    1.0950   -0.2686 C   0  0  0  0  0  0  0  0  0  0  0  0
   -2.2884    1.8067   -0.7192 C   0  0  0  0  0  0  0  0  0  0  0  0
   -0.6141   -0.1646   -0.8575 C   0  0  0  0  0  0  0  0  0  0  0  0
   -1.6348   -1.3078   -0.8951 C   0  0  0  0  0  0  0  0  0  0  0  0
   -1.0416   -2.6307   -1.1115 N   0  0  0  0  0  0  0  0  0  0  0  0
   -0.8128   -2.9234   -2.5229 C   0  0  0  0  0  0  0  0  0  0  0  0
    0.1503   -2.8934   -0.2967 C   0  0  0  0  0  0  0  0  0  0  0  0
    0.4222   -1.8290    0.7671 C   0  0  0  0  0  0  0  0  0  0  0  0
    0.5774   -0.4591    0.0923 C   0  0  0  0  0  0  0  0  0  0  0  0
    0.6547    0.6649    1.0651 N   0  0  0  0  0  0  0  0  0  0  0  0
    1.6080    0.8459    2.0713 C   0  0  0  0  0  0  0  0  0  0  0  0
    1.4585    1.6351    3.0030 O   0  0  0  0  0  0  0  0  0  0  0  0
    2.8245    0.0580    1.9723 C   0  0  0  0  0  0  0  0  0  0  0  0
    3.7394   -0.1344    0.9512 C   0  0  0  0  0  0  0  0  0  0  0  0
    4.7462   -0.9917    1.4596 C   0  0  0  0  0  0  0  0  0  0  0  0
    4.3987   -1.2588    2.7631 C   0  0  0  0  0  0  0  0  0  0  0  0
    5.3866   -2.3577    3.9601 Br  0  0  0  0  0  0  0  0  0  0  0  0
    3.2436   -0.6217    3.0851 O   0  0  0  0  0  0  0  0  0  0  0  0
   -3.5131    4.5242   -1.2414 H   0  0  0  0  0  0  0  0  0  0  0  0
   -4.5947    3.1325   -0.9864 H   0  0  0  0  0  0  0  0  0  0  0  0
   -4.3324    4.2847    0.3222 H   0  0  0  0  0  0  0  0  0  0  0  0
   -2.1859    4.3207    1.5836 H   0  0  0  0  0  0  0  0  0  0  0  0
   -0.2309    3.0615    2.3466 H   0  0  0  0  0  0  0  0  0  0  0  0
   -2.8487    1.4659   -1.5854 H   0  0  0  0  0  0  0  0  0  0  0  0
   -0.2331    0.0472   -1.8645 H   0  0  0  0  0  0  0  0  0  0  0  0
   -2.4059   -1.1032   -1.6497 H   0  0  0  0  0  0  0  0  0  0  0  0
   -2.1902   -1.3438    0.0529 H   0  0  0  0  0  0  0  0  0  0  0  0
   -0.0741   -2.2488   -2.9695 H   0  0  0  0  0  0  0  0  0  0  0  0
   -0.4614   -3.9536   -2.6497 H   0  0  0  0  0  0  0  0  0  0  0  0
   -1.7451   -2.8396   -3.0922 H   0  0  0  0  0  0  0  0  0  0  0  0
    1.0476   -2.9733   -0.9255 H   0  0  0  0  0  0  0  0  0  0  0  0
    0.0273   -3.8670    0.1913 H   0  0  0  0  0  0  0  0  0  0  0  0
    1.3281   -2.1025    1.3167 H   0  0  0  0  0  0  0  0  0  0  0  0
   -0.3864   -1.8090    1.5092 H   0  0  0  0  0  0  0  0  0  0  0  0
    1.4973   -0.4547   -0.5032 H   0  0  0  0  0  0  0  0  0  0  0  0
    3.6953    0.3107   -0.0332 H   0  0  0  0  0  0  0  0  0  0  0  0
    5.6244   -1.3554    0.9446 H   0  0  0  0  0  0  0  0  0  0  0  0
  1  2  1  0
  2  3  2  0
  3  4  1  0
  4  5  2  0
  5  6  1  0
  6  7  2  0
  6  8  1  0
  8  9  1  0
  9 10  1  0
 10 11  1  0
 10 12  1  0
 12 13  1  0
 13 14  1  0
 14 15  1  0
 15 16  1  0
 16 17  2  0
 16 18  1  0
 18 19  2  0
 19 20  1  0
 20 21  2  0
 21 22  1  0
 21 23  1  0
  7  2  1  0
 14  8  1  0
 23 18  1  0
 15  5  1  0
  1 24  1  0
  1 25  1  0
  1 26  1  0
  3 27  1  0
  4 28  1  0
  7 29  1  0
  8 30  1  0
  9 31  1  0
  9 32  1  0
 11 33  1  0
 11 34  1  0
 11 35  1  0
 12 36  1  0
 12 37  1  0
 13 38  1  0
 13 39  1  0
 14 40  1  0
 19 41  1  0
 20 42  1  0
M  END
$$$$
