
     RDKit          3D

 50 53  0  0  0  0  0  0  0  0999 V2000
    6.4223    2.3317    1.0269 C   0  0  0  0  0  0  0  0  0  0  0  0
    6.4107    1.1614    0.0537 C   0  0  0  0  0  0  0  0  0  0  0  0
    5.5039    0.1009    0.5129 N   0  0  0  0  0  0  0  0  0  0  0  0
    6.1140   -0.9394    1.3521 C   0  0  0  0  0  0  0  0  0  0  0  0
    6.5940   -2.1107    0.5068 C   0  0  0  0  0  0  0  0  0  0  0  0
    4.1511    0.0912    0.1900 C   0  0  0  0  0  0  0  0  0  0  0  0
    3.3068   -0.9842    0.5185 C   0  0  0  0  0  0  0  0  0  0  0  0
    1.9400   -1.0010    0.1978 C   0  0  0  0  0  0  0  0  0  0  0  0
    1.3590    0.0757   -0.4653 C   0  0  0  0  0  0  0  0  0  0  0  0
   -0.0608    0.0833   -0.8253 C   0  0  0  0  0  0  0  0  0  0  0  0
   -1.0895    0.1191    0.0335 C   0  0  0  0  0  0  0  0  0  0  0  0
   -1.0159    0.1775    1.7776 S   0  0  0  0  0  0  0  0  0  0  0  0
   -2.7295    0.2068    1.8366 C   0  0  0  0  0  0  0  0  0  0  0  0
   -3.6076    0.2263    2.7959 N   0  0  0  0  0  0  0  0  0  0  0  0
   -4.8454    0.2232    2.1720 N   0  0  0  0  0  0  0  0  0  0  0  0
   -4.6705    0.2106    0.8530 C   0  0  0  0  0  0  0  0  0  0  0  0
   -5.7313    0.1875   -0.1540 C   0  0  0  0  0  0  0  0  0  0  0  0
   -5.7489    1.1579   -1.1702 C   0  0  0  0  0  0  0  0  0  0  0  0
   -6.7620    1.1747   -2.1301 C   0  0  0  0  0  0  0  0  0  0  0  0
   -7.7799    0.2293   -2.0809 C   0  0  0  0  0  0  0  0  0  0  0  0
   -7.7863   -0.7333   -1.0725 C   0  0  0  0  0  0  0  0  0  0  0  0
   -6.7673   -0.7709   -0.1048 C   0  0  0  0  0  0  0  0  0  0  0  0
   -6.8344   -1.8205    0.9738 C   0  0  0  0  0  0  0  0  0  0  0  0
   -3.3182    0.1893    0.6190 N   0  0  0  0  0  0  0  0  0  0  0  0
   -2.4924    0.1354   -0.4772 C   0  0  0  0  0  0  0  0  0  0  0  0
   -2.8962    0.1109   -1.6241 O   0  0  0  0  0  0  0  0  0  0  0  0
    2.1664    1.1527   -0.8175 C   0  0  0  0  0  0  0  0  0  0  0  0
    3.5320    1.1543   -0.4910 C   0  0  0  0  0  0  0  0  0  0  0  0
    7.1192    3.1021    0.6824 H   0  0  0  0  0  0  0  0  0  0  0  0
    6.7385    2.0104    2.0249 H   0  0  0  0  0  0  0  0  0  0  0  0
    5.4331    2.7888    1.1244 H   0  0  0  0  0  0  0  0  0  0  0  0
    6.1658    1.4965   -0.9603 H   0  0  0  0  0  0  0  0  0  0  0  0
    7.4315    0.7654   -0.0229 H   0  0  0  0  0  0  0  0  0  0  0  0
    6.9774   -0.5229    1.8868 H   0  0  0  0  0  0  0  0  0  0  0  0
    5.4343   -1.2778    2.1422 H   0  0  0  0  0  0  0  0  0  0  0  0
    7.3319   -1.7847   -0.2337 H   0  0  0  0  0  0  0  0  0  0  0  0
    5.7701   -2.5858   -0.0341 H   0  0  0  0  0  0  0  0  0  0  0  0
    7.0638   -2.8677    1.1425 H   0  0  0  0  0  0  0  0  0  0  0  0
    3.6921   -1.8608    1.0301 H   0  0  0  0  0  0  0  0  0  0  0  0
    1.3490   -1.8710    0.4736 H   0  0  0  0  0  0  0  0  0  0  0  0
   -0.2506    0.0771   -1.8984 H   0  0  0  0  0  0  0  0  0  0  0  0
   -4.9743    1.9196   -1.2254 H   0  0  0  0  0  0  0  0  0  0  0  0
   -6.7570    1.9293   -2.9124 H   0  0  0  0  0  0  0  0  0  0  0  0
   -8.5730    0.2433   -2.8241 H   0  0  0  0  0  0  0  0  0  0  0  0
   -8.5971   -1.4587   -1.0441 H   0  0  0  0  0  0  0  0  0  0  0  0
   -7.1264   -1.3667    1.9259 H   0  0  0  0  0  0  0  0  0  0  0  0
   -7.5708   -2.5943    0.7307 H   0  0  0  0  0  0  0  0  0  0  0  0
   -5.8697   -2.3259    1.0857 H   0  0  0  0  0  0  0  0  0  0  0  0
    1.7520    2.0098   -1.3429 H   0  0  0  0  0  0  0  0  0  0  0  0
    4.0962    2.0344   -0.7830 H   0  0  0  0  0  0  0  0  0  0  0  0
  1  2  1  0
  2  3  1  0
  3  4  1  0
  4  5  1  0
  3  6  1  0
  6  7  2  0
  7  8  1  0
  8  9  2  0
  9 10  1  0
 10 11  2  3
 11 12  1  0
 12 13  1  0
 13 14  2  0
 14 15  1  0
 15 16  2  0
 16 17  1  0
 17 18  2  0
 18 19  1  0
 19 20  2  0
 20 21  1  0
 21 22  2  0
 22 23  1  0
 16 24  1  0
 24 25  1  0
 25 26  2  0
  9 27  1  0
 27 28  2  0
 28  6  1  0
 25 11  1  0
 24 13  1  0
 22 17  1  0
  1 29  1  0
  1 30  1  0
  1 31  1  0
  2 32  1  0
  2 33  1  0
  4 34  1  0
  4 35  1  0
  5 36  1  0
  5 37  1  0
  5 38  1  0
  7 39  1  0
  8 40  1  0
 10 41  1  0
 18 42  1  0
 19 43  1  0
 20 44  1  0
 21 45  1  0
 23 46  1  0
 23 47  1  0
 23 48  1  0
 27 49  1  0
 28 50  1  0
M  END
$$$$
