
     RDKit          3D

 43 45  0  0  0  0  0  0  0  0999 V2000
   -0.5630   -3.8852   -0.4538 C   0  0  0  0  0  0  0  0  0  0  0  0
    0.0323   -2.8473   -1.3686 C   0  0  0  0  0  0  0  0  0  0  0  0
   -0.1659   -2.8628   -2.5832 O   0  0  0  0  0  0  0  0  0  0  0  0
    0.8615   -1.7891   -0.7440 C   0  0  0  0  0  0  0  0  0  0  0  0
    0.2569   -0.6844   -0.2443 C   0  0  0  0  0  0  0  0  0  0  0  0
   -1.1126   -0.4086   -0.3379 N   0  0  0  0  0  0  0  0  0  0  0  0
   -1.8567    0.2608    0.7535 C   0  0  0  0  0  0  0  0  0  0  0  0
   -3.3793    0.1021    0.5650 C   0  0  0  0  0  0  0  0  0  0  0  0
   -3.8791    0.7459   -0.6679 N   0  0  0  0  0  0  0  0  0  0  0  0
   -5.1525    0.1556   -1.0740 C   0  0  0  0  0  0  0  0  0  0  0  0
   -2.8763    0.6863   -1.7536 C   0  0  0  0  0  0  0  0  0  0  0  0
   -1.8404   -0.4549   -1.6354 C   0  0  0  0  0  0  0  0  0  0  0  0
    1.0595    0.2217    0.4132 N   0  0  0  0  0  0  0  0  0  0  0  0
    2.4256    0.1206    0.4478 C   0  0  0  0  0  0  0  0  0  0  0  0
    3.2340    1.2409    1.0252 C   0  0  0  0  0  0  0  0  0  0  0  0
    4.5733    1.3914    0.6437 C   0  0  0  0  0  0  0  0  0  0  0  0
    5.3397    2.4352    1.1651 C   0  0  0  0  0  0  0  0  0  0  0  0
    4.7747    3.3286    2.0739 C   0  0  0  0  0  0  0  0  0  0  0  0
    3.4455    3.1772    2.4678 C   0  0  0  0  0  0  0  0  0  0  0  0
    2.6742    2.1345    1.9477 C   0  0  0  0  0  0  0  0  0  0  0  0
    3.0552   -0.9160   -0.0150 N   0  0  0  0  0  0  0  0  0  0  0  0
    2.3419   -1.9733   -0.5499 C   0  0  0  0  0  0  0  0  0  0  0  0
    3.1603   -3.4035   -0.9506 S   0  0  0  0  0  0  0  0  0  0  0  0
   -0.2562   -4.8795   -0.7889 H   0  0  0  0  0  0  0  0  0  0  0  0
   -1.6527   -3.8010   -0.4760 H   0  0  0  0  0  0  0  0  0  0  0  0
   -0.2226   -3.7465    0.5763 H   0  0  0  0  0  0  0  0  0  0  0  0
   -1.5724   -0.1852    1.7142 H   0  0  0  0  0  0  0  0  0  0  0  0
   -1.5942    1.3254    0.7876 H   0  0  0  0  0  0  0  0  0  0  0  0
   -3.6092   -0.9724    0.5612 H   0  0  0  0  0  0  0  0  0  0  0  0
   -3.8964    0.5424    1.4251 H   0  0  0  0  0  0  0  0  0  0  0  0
   -5.5733    0.7007   -1.9262 H   0  0  0  0  0  0  0  0  0  0  0  0
   -5.0491   -0.8984   -1.3556 H   0  0  0  0  0  0  0  0  0  0  0  0
   -5.8858    0.2274   -0.2630 H   0  0  0  0  0  0  0  0  0  0  0  0
   -2.3308    1.6391   -1.7327 H   0  0  0  0  0  0  0  0  0  0  0  0
   -3.3575    0.6455   -2.7387 H   0  0  0  0  0  0  0  0  0  0  0  0
   -2.3524   -1.4197   -1.7262 H   0  0  0  0  0  0  0  0  0  0  0  0
   -1.1348   -0.3588   -2.4689 H   0  0  0  0  0  0  0  0  0  0  0  0
    0.6343    1.1321    0.5214 H   0  0  0  0  0  0  0  0  0  0  0  0
    5.0259    0.6987   -0.0631 H   0  0  0  0  0  0  0  0  0  0  0  0
    6.3783    2.5472    0.8634 H   0  0  0  0  0  0  0  0  0  0  0  0
    5.3745    4.1387    2.4818 H   0  0  0  0  0  0  0  0  0  0  0  0
    3.0135    3.8676    3.1883 H   0  0  0  0  0  0  0  0  0  0  0  0
    1.6523    2.0210    2.2956 H   0  0  0  0  0  0  0  0  0  0  0  0
  1  2  1  0
  2  3  2  0
  2  4  1  0
  4  5  2  0
  5  6  1  0
  6  7  1  0
  7  8  1  0
  8  9  1  0
  9 10  1  0
  9 11  1  0
 11 12  1  0
  5 13  1  0
 13 14  1  0
 14 15  1  0
 15 16  2  0
 16 17  1  0
 17 18  2  0
 18 19  1  0
 19 20  2  0
 14 21  2  0
 21 22  1  0
 22 23  2  0
 22  4  1  0
 12  6  1  0
 20 15  1  0
  1 24  1  0
  1 25  1  0
  1 26  1  0
  7 27  1  0
  7 28  1  0
  8 29  1  0
  8 30  1  0
 10 31  1  0
 10 32  1  0
 10 33  1  0
 11 34  1  0
 11 35  1  0
 12 36  1  0
 12 37  1  0
 13 38  1  0
 16 39  1  0
 17 40  1  0
 18 41  1  0
 19 42  1  0
 20 43  1  0
M  END
$$$$
