
     RDKit          3D

 45 48  0  0  0  0  0  0  0  0999 V2000
   -2.0664   -1.4901   -2.6770 C   0  0  0  0  0  0  0  0  0  0  0  0
   -1.9785   -0.8261   -1.4233 O   0  0  0  0  0  0  0  0  0  0  0  0
   -2.4329   -1.4969   -0.3146 C   0  0  0  0  0  0  0  0  0  0  0  0
   -3.2482   -2.6362   -0.3821 C   0  0  0  0  0  0  0  0  0  0  0  0
   -3.7218   -3.2431    0.7827 C   0  0  0  0  0  0  0  0  0  0  0  0
   -3.3951   -2.7148    2.0252 C   0  0  0  0  0  0  0  0  0  0  0  0
   -2.5891   -1.5791    2.1028 C   0  0  0  0  0  0  0  0  0  0  0  0
   -2.0865   -0.9515    0.9427 C   0  0  0  0  0  0  0  0  0  0  0  0
   -1.2260    0.2329    1.0813 C   0  0  0  0  0  0  0  0  0  0  0  0
   -1.6353    1.1899    1.9477 N   0  0  0  0  0  0  0  0  0  0  0  0
   -0.8174    2.2639    2.0802 C   0  0  0  0  0  0  0  0  0  0  0  0
   -1.2571    3.3325    3.0199 C   0  0  0  0  0  0  0  0  0  0  0  0
   -2.4615    3.1197    3.6348 N   0  0  0  0  0  0  0  0  0  0  0  0
   -0.5922    4.3392    3.2302 O   0  0  0  0  0  0  0  0  0  0  0  0
    0.3553    2.3706    1.3932 C   0  0  0  0  0  0  0  0  0  0  0  0
    1.3438    3.3405    1.3684 N   0  0  0  0  0  0  0  0  0  0  0  0
    2.3502    2.9313    0.4828 C   0  0  0  0  0  0  0  0  0  0  0  0
    3.3476    3.5978    0.2595 O   0  0  0  0  0  0  0  0  0  0  0  0
    1.9401    1.6676   -0.0438 N   0  0  0  0  0  0  0  0  0  0  0  0
    2.6407    0.8627   -0.9850 C   0  0  0  0  0  0  0  0  0  0  0  0
    3.9450    1.2026   -1.3791 C   0  0  0  0  0  0  0  0  0  0  0  0
    4.6649    0.4283   -2.2968 C   0  0  0  0  0  0  0  0  0  0  0  0
    4.0944   -0.7095   -2.8533 C   0  0  0  0  0  0  0  0  0  0  0  0
    2.7948   -1.0718   -2.5038 C   0  0  0  0  0  0  0  0  0  0  0  0
    2.1659   -2.3095   -3.0733 C   0  0  0  0  0  0  0  0  0  0  0  0
    2.0877   -0.2900   -1.5697 C   0  0  0  0  0  0  0  0  0  0  0  0
    0.6913    1.3424    0.5467 C   0  0  0  0  0  0  0  0  0  0  0  0
   -0.0682    0.2561    0.3873 N   0  0  0  0  0  0  0  0  0  0  0  0
   -3.1072   -1.5623   -3.0079 H   0  0  0  0  0  0  0  0  0  0  0  0
   -1.5915   -2.4764   -2.6419 H   0  0  0  0  0  0  0  0  0  0  0  0
   -1.5249   -0.8871   -3.4123 H   0  0  0  0  0  0  0  0  0  0  0  0
   -3.5467   -3.0686   -1.3316 H   0  0  0  0  0  0  0  0  0  0  0  0
   -4.3536   -4.1256    0.7163 H   0  0  0  0  0  0  0  0  0  0  0  0
   -3.7653   -3.1838    2.9334 H   0  0  0  0  0  0  0  0  0  0  0  0
   -2.3386   -1.1810    3.0852 H   0  0  0  0  0  0  0  0  0  0  0  0
   -2.8360    3.8265    4.2520 H   0  0  0  0  0  0  0  0  0  0  0  0
   -3.0151    2.3017    3.4052 H   0  0  0  0  0  0  0  0  0  0  0  0
    1.3458    4.2020    1.9017 H   0  0  0  0  0  0  0  0  0  0  0  0
    4.4545    2.0722   -0.9748 H   0  0  0  0  0  0  0  0  0  0  0  0
    5.6763    0.7198   -2.5693 H   0  0  0  0  0  0  0  0  0  0  0  0
    4.6671   -1.3057   -3.5592 H   0  0  0  0  0  0  0  0  0  0  0  0
    2.6587   -2.6124   -4.0031 H   0  0  0  0  0  0  0  0  0  0  0  0
    1.1110   -2.1333   -3.3073 H   0  0  0  0  0  0  0  0  0  0  0  0
    2.2405   -3.1316   -2.3548 H   0  0  0  0  0  0  0  0  0  0  0  0
    1.0796   -0.6138   -1.3347 H   0  0  0  0  0  0  0  0  0  0  0  0
  1  2  1  0
  2  3  1  0
  3  4  2  0
  4  5  1  0
  5  6  2  0
  6  7  1  0
  7  8  2  0
  8  9  1  0
  9 10  2  0
 10 11  1  0
 11 12  1  0
 12 13  1  0
 12 14  2  0
 11 15  2  0
 15 16  1  0
 16 17  1  0
 17 18  2  0
 17 19  1  0
 19 20  1  0
 20 21  2  0
 21 22  1  0
 22 23  2  0
 23 24  1  0
 24 25  1  0
 24 26  2  0
 19 27  1  0
 27 28  2  0
  8  3  1  0
 28  9  1  0
 27 15  1  0
 26 20  1  0
  1 29  1  0
  1 30  1  0
  1 31  1  0
  4 32  1  0
  5 33  1  0
  6 34  1  0
  7 35  1  0
 13 36  1  0
 13 37  1  0
 16 38  1  0
 21 39  1  0
 22 40  1  0
 23 41  1  0
 25 42  1  0
 25 43  1  0
 25 44  1  0
 26 45  1  0
M  END
$$$$
