
     RDKit          3D

 49 51  0  0  0  0  0  0  0  0999 V2000
   -1.2159    1.8058    1.8589 O   0  0  0  0  0  0  0  0  0  0  0  0
   -0.7600    0.8681    1.2143 C   0  0  0  0  0  0  0  0  0  0  0  0
   -1.6347   -0.0316    0.3579 C   0  0  0  0  0  0  0  0  0  0  0  0
   -3.1098    0.3549    0.4663 C   0  0  0  0  0  0  0  0  0  0  0  0
   -3.9699   -0.5267   -0.3417 N   0  0  0  0  0  0  0  0  0  0  0  0
   -5.3667   -0.4487    0.0954 C   0  0  0  0  0  0  0  0  0  0  0  0
   -6.2093   -1.4703   -0.6681 C   0  0  0  0  0  0  0  0  0  0  0  0
   -6.0889   -1.3222   -2.1880 C   0  0  0  0  0  0  0  0  0  0  0  0
   -5.1173   -0.2165   -2.5789 C   0  0  0  0  0  0  0  0  0  0  0  0
   -3.8064   -0.3054   -1.7897 C   0  0  0  0  0  0  0  0  0  0  0  0
    0.5711    0.4988    1.1402 N   0  0  0  0  0  0  0  0  0  0  0  0
    1.6847    1.0505    1.8197 C   0  0  0  0  0  0  0  0  0  0  0  0
    1.5519    2.0729    2.7680 C   0  0  0  0  0  0  0  0  0  0  0  0
    2.6674    2.5696    3.4513 C   0  0  0  0  0  0  0  0  0  0  0  0
    3.9272    2.0387    3.2005 C   0  0  0  0  0  0  0  0  0  0  0  0
    5.4286    2.6986    4.1417 Br  0  0  0  0  0  0  0  0  0  0  0  0
    4.0911    1.0236    2.2604 C   0  0  0  0  0  0  0  0  0  0  0  0
    2.9795    0.5446    1.5463 C   0  0  0  0  0  0  0  0  0  0  0  0
    3.1726   -0.5164    0.5108 C   0  0  0  0  0  0  0  0  0  0  0  0
    2.2642   -1.3151    0.2848 O   0  0  0  0  0  0  0  0  0  0  0  0
    4.4223   -0.6263   -0.2821 C   0  0  0  0  0  0  0  0  0  0  0  0
    4.8981   -1.9039   -0.5984 C   0  0  0  0  0  0  0  0  0  0  0  0
    6.0694   -2.0495   -1.3435 C   0  0  0  0  0  0  0  0  0  0  0  0
    6.7574   -0.9198   -1.7871 C   0  0  0  0  0  0  0  0  0  0  0  0
    6.2712    0.3560   -1.4956 C   0  0  0  0  0  0  0  0  0  0  0  0
    5.1001    0.5064   -0.7501 C   0  0  0  0  0  0  0  0  0  0  0  0
   -1.4968   -1.0661    0.6925 H   0  0  0  0  0  0  0  0  0  0  0  0
   -1.2838    0.0458   -0.6770 H   0  0  0  0  0  0  0  0  0  0  0  0
   -3.2603    1.4034    0.1839 H   0  0  0  0  0  0  0  0  0  0  0  0
   -3.3954    0.2784    1.5223 H   0  0  0  0  0  0  0  0  0  0  0  0
   -5.7702    0.5628   -0.0442 H   0  0  0  0  0  0  0  0  0  0  0  0
   -5.4441   -0.6790    1.1650 H   0  0  0  0  0  0  0  0  0  0  0  0
   -7.2607   -1.3837   -0.3634 H   0  0  0  0  0  0  0  0  0  0  0  0
   -5.8949   -2.4863   -0.3897 H   0  0  0  0  0  0  0  0  0  0  0  0
   -5.7483   -2.2811   -2.6144 H   0  0  0  0  0  0  0  0  0  0  0  0
   -7.0788   -1.1191   -2.6290 H   0  0  0  0  0  0  0  0  0  0  0  0
   -5.5843    0.7592   -2.3960 H   0  0  0  0  0  0  0  0  0  0  0  0
   -4.9119   -0.2638   -3.6555 H   0  0  0  0  0  0  0  0  0  0  0  0
   -3.2357    0.6103   -2.0005 H   0  0  0  0  0  0  0  0  0  0  0  0
   -3.2119   -1.1385   -2.1888 H   0  0  0  0  0  0  0  0  0  0  0  0
    0.7899   -0.3189    0.5625 H   0  0  0  0  0  0  0  0  0  0  0  0
    0.5844    2.5004    3.0137 H   0  0  0  0  0  0  0  0  0  0  0  0
    2.5323    3.3621    4.1853 H   0  0  0  0  0  0  0  0  0  0  0  0
    5.0823    0.6077    2.0950 H   0  0  0  0  0  0  0  0  0  0  0  0
    4.3607   -2.7889   -0.2620 H   0  0  0  0  0  0  0  0  0  0  0  0
    6.4437   -3.0443   -1.5778 H   0  0  0  0  0  0  0  0  0  0  0  0
    7.6727   -1.0365   -2.3648 H   0  0  0  0  0  0  0  0  0  0  0  0
    6.8054    1.2331   -1.8541 H   0  0  0  0  0  0  0  0  0  0  0  0
    4.7274    1.5069   -0.5506 H   0  0  0  0  0  0  0  0  0  0  0  0
  1  2  2  0
  2  3  1  0
  3  4  1  0
  4  5  1  0
  5  6  1  0
  6  7  1  0
  7  8  1  0
  8  9  1  0
  9 10  1  0
  2 11  1  0
 11 12  1  0
 12 13  2  0
 13 14  1  0
 14 15  2  0
 15 16  1  0
 15 17  1  0
 17 18  2  0
 18 19  1  0
 19 20  2  0
 19 21  1  0
 21 22  2  0
 22 23  1  0
 23 24  2  0
 24 25  1  0
 25 26  2  0
 10  5  1  0
 18 12  1  0
 26 21  1  0
  3 27  1  0
  3 28  1  0
  4 29  1  0
  4 30  1  0
  6 31  1  0
  6 32  1  0
  7 33  1  0
  7 34  1  0
  8 35  1  0
  8 36  1  0
  9 37  1  0
  9 38  1  0
 10 39  1  0
 10 40  1  0
 11 41  1  0
 13 42  1  0
 14 43  1  0
 17 44  1  0
 22 45  1  0
 23 46  1  0
 24 47  1  0
 25 48  1  0
 26 49  1  0
M  END
$$$$
