
     RDKit          3D

 57 60  0  0  0  0  0  0  0  0999 V2000
   -1.3738    0.5387   -0.5328 O   0  0  0  0  0  0  0  0  0  0  0  0
   -1.3749    1.2410    0.4707 C   0  0  0  0  0  0  0  0  0  0  0  0
   -0.1170    1.7944    1.1185 C   0  0  0  0  0  0  0  0  0  0  0  0
    1.1773    1.2694    0.4958 C   0  0  0  0  0  0  0  0  0  0  0  0
    1.4723   -0.1786    0.9017 C   0  0  0  0  0  0  0  0  0  0  0  0
    2.7171   -0.7559    0.2222 C   0  0  0  0  0  0  0  0  0  0  0  0
    4.0192   -0.0778    0.6607 C   0  0  0  0  0  0  0  0  0  0  0  0
    5.1859   -0.7433    0.0896 N   0  0  0  0  0  0  0  0  0  0  0  0
    5.6270   -0.3238   -1.1557 C   0  0  0  0  0  0  0  0  0  0  0  0
    5.1138    0.5893   -1.8010 O   0  0  0  0  0  0  0  0  0  0  0  0
    6.7030   -0.9813   -1.6807 N   0  0  0  0  0  0  0  0  0  0  0  0
    7.3509   -2.0388   -1.0505 C   0  0  0  0  0  0  0  0  0  0  0  0
    8.4454   -2.6510   -1.6614 C   0  0  0  0  0  0  0  0  0  0  0  0
    9.0869   -3.7148   -1.0224 C   0  0  0  0  0  0  0  0  0  0  0  0
    8.6349   -4.1639    0.2200 C   0  0  0  0  0  0  0  0  0  0  0  0
    7.5390   -3.5496    0.8276 C   0  0  0  0  0  0  0  0  0  0  0  0
    6.8993   -2.4839    0.1863 C   0  0  0  0  0  0  0  0  0  0  0  0
    5.7357   -1.8122    0.7966 C   0  0  0  0  0  0  0  0  0  0  0  0
    5.3086   -2.2174    1.8757 O   0  0  0  0  0  0  0  0  0  0  0  0
   -2.5261    1.6410    1.1213 N   0  0  0  0  0  0  0  0  0  0  0  0
   -3.8232    1.1117    0.7309 C   0  0  0  0  0  0  0  0  0  0  0  0
   -4.9650    2.0188    1.1890 C   0  0  0  0  0  0  0  0  0  0  0  0
   -6.3114    1.4639    0.8523 C   0  0  0  0  0  0  0  0  0  0  0  0
   -7.1602    0.7922    1.7108 C   0  0  0  0  0  0  0  0  0  0  0  0
   -8.2908    0.4510    1.0183 N   0  0  0  0  0  0  0  0  0  0  0  0
   -8.2026    0.8870   -0.2825 C   0  0  0  0  0  0  0  0  0  0  0  0
   -9.1129    0.7626   -1.3391 C   0  0  0  0  0  0  0  0  0  0  0  0
   -8.7507    1.3085   -2.5739 C   0  0  0  0  0  0  0  0  0  0  0  0
   -7.5273    1.9520   -2.7422 C   0  0  0  0  0  0  0  0  0  0  0  0
   -6.6296    2.0683   -1.6746 C   0  0  0  0  0  0  0  0  0  0  0  0
   -6.9705    1.5268   -0.4179 C   0  0  0  0  0  0  0  0  0  0  0  0
   -0.1480    2.8842    0.9986 H   0  0  0  0  0  0  0  0  0  0  0  0
   -0.1367    1.5736    2.1919 H   0  0  0  0  0  0  0  0  0  0  0  0
    1.9976    1.9132    0.8326 H   0  0  0  0  0  0  0  0  0  0  0  0
    1.1334    1.3498   -0.5968 H   0  0  0  0  0  0  0  0  0  0  0  0
    0.6193   -0.8154    0.6401 H   0  0  0  0  0  0  0  0  0  0  0  0
    1.5870   -0.2411    1.9908 H   0  0  0  0  0  0  0  0  0  0  0  0
    2.6092   -0.6894   -0.8675 H   0  0  0  0  0  0  0  0  0  0  0  0
    2.7706   -1.8261    0.4591 H   0  0  0  0  0  0  0  0  0  0  0  0
    4.0956   -0.0922    1.7543 H   0  0  0  0  0  0  0  0  0  0  0  0
    4.0239    0.9732    0.3524 H   0  0  0  0  0  0  0  0  0  0  0  0
    7.0086   -0.6541   -2.5879 H   0  0  0  0  0  0  0  0  0  0  0  0
    8.8079   -2.3140   -2.6287 H   0  0  0  0  0  0  0  0  0  0  0  0
    9.9407   -4.1963   -1.4941 H   0  0  0  0  0  0  0  0  0  0  0  0
    9.1353   -4.9933    0.7149 H   0  0  0  0  0  0  0  0  0  0  0  0
    7.1860   -3.9011    1.7948 H   0  0  0  0  0  0  0  0  0  0  0  0
   -2.4271    1.9949    2.0639 H   0  0  0  0  0  0  0  0  0  0  0  0
   -3.8452    0.9800   -0.3571 H   0  0  0  0  0  0  0  0  0  0  0  0
   -3.9126    0.1159    1.1810 H   0  0  0  0  0  0  0  0  0  0  0  0
   -4.8958    2.1757    2.2734 H   0  0  0  0  0  0  0  0  0  0  0  0
   -4.8529    3.0117    0.7350 H   0  0  0  0  0  0  0  0  0  0  0  0
   -7.0561    0.5283    2.7548 H   0  0  0  0  0  0  0  0  0  0  0  0
   -9.0806   -0.0498    1.4006 H   0  0  0  0  0  0  0  0  0  0  0  0
  -10.0660    0.2602   -1.2121 H   0  0  0  0  0  0  0  0  0  0  0  0
   -9.4343    1.2271   -3.4159 H   0  0  0  0  0  0  0  0  0  0  0  0
   -7.2631    2.3670   -3.7117 H   0  0  0  0  0  0  0  0  0  0  0  0
   -5.6770    2.5694   -1.8199 H   0  0  0  0  0  0  0  0  0  0  0  0
  1  2  2  0
  2  3  1  0
  3  4  1  0
  4  5  1  0
  5  6  1  0
  6  7  1  0
  7  8  1  0
  8  9  1  0
  9 10  2  0
  9 11  1  0
 11 12  1  0
 12 13  2  0
 13 14  1  0
 14 15  2  0
 15 16  1  0
 16 17  2  0
 17 18  1  0
 18 19  2  0
  2 20  1  0
 20 21  1  0
 21 22  1  0
 22 23  1  0
 23 24  2  0
 24 25  1  0
 25 26  1  0
 26 27  2  0
 27 28  1  0
 28 29  2  0
 29 30  1  0
 30 31  2  0
 18  8  1  0
 31 23  1  0
 17 12  1  0
 31 26  1  0
  3 32  1  0
  3 33  1  0
  4 34  1  0
  4 35  1  0
  5 36  1  0
  5 37  1  0
  6 38  1  0
  6 39  1  0
  7 40  1  0
  7 41  1  0
 11 42  1  0
 13 43  1  0
 14 44  1  0
 15 45  1  0
 16 46  1  0
 20 47  1  0
 21 48  1  0
 21 49  1  0
 22 50  1  0
 22 51  1  0
 24 52  1  0
 25 53  1  0
 27 54  1  0
 28 55  1  0
 29 56  1  0
 30 57  1  0
M  END
$$$$
