
     RDKit          3D

 47 48  0  0  0  0  0  0  0  0999 V2000
    1.1967   -3.1338    1.9474 C   0  0  0  0  0  0  0  0  0  0  0  0
    1.3831   -1.6398    2.1323 C   0  0  0  0  0  0  0  0  0  0  0  0
    1.5391   -1.0474    0.8380 O   0  0  0  0  0  0  0  0  0  0  0  0
    1.8515    0.2811    0.8598 C   0  0  0  0  0  0  0  0  0  0  0  0
    1.9895    0.9333    1.8873 O   0  0  0  0  0  0  0  0  0  0  0  0
    1.9862    0.8631   -0.4764 C   0  0  0  0  0  0  0  0  0  0  0  0
    2.2388    0.1671   -1.6575 C   0  0  0  0  0  0  0  0  0  0  0  0
    2.4049   -1.2873   -1.9295 C   0  0  0  0  0  0  0  0  0  0  0  0
    2.3743    1.0832   -2.6687 N   0  0  0  0  0  0  0  0  0  0  0  0
    2.2032    2.3515   -2.1846 C   0  0  0  0  0  0  0  0  0  0  0  0
    2.3103    3.5386   -3.0770 C   0  0  0  0  0  0  0  0  0  0  0  0
    1.9259    2.2633   -0.8245 C   0  0  0  0  0  0  0  0  0  0  0  0
    1.6375    3.4369    0.0190 C   0  0  0  0  0  0  0  0  0  0  0  0
    2.2428    4.4974   -0.1629 O   0  0  0  0  0  0  0  0  0  0  0  0
    0.5528    3.3705    1.0931 C   0  0  0  0  0  0  0  0  0  0  0  0
   -0.4055    2.3450    0.8403 O   0  0  0  0  0  0  0  0  0  0  0  0
   -1.3055    2.1685    1.8325 C   0  0  0  0  0  0  0  0  0  0  0  0
   -1.4312    2.8659    2.8269 O   0  0  0  0  0  0  0  0  0  0  0  0
   -2.1456    0.9748    1.5944 C   0  0  0  0  0  0  0  0  0  0  0  0
   -2.0209    0.1694    0.5275 C   0  0  0  0  0  0  0  0  0  0  0  0
   -2.8164   -1.0472    0.3167 C   0  0  0  0  0  0  0  0  0  0  0  0
   -2.2061   -2.1443   -0.3084 C   0  0  0  0  0  0  0  0  0  0  0  0
   -2.9251   -3.3186   -0.5481 C   0  0  0  0  0  0  0  0  0  0  0  0
   -4.2641   -3.3966   -0.1749 C   0  0  0  0  0  0  0  0  0  0  0  0
   -5.1523   -4.8388   -0.4728 Cl  0  0  0  0  0  0  0  0  0  0  0  0
   -4.8899   -2.3101    0.4317 C   0  0  0  0  0  0  0  0  0  0  0  0
   -4.1690   -1.1364    0.6725 C   0  0  0  0  0  0  0  0  0  0  0  0
    0.3277   -3.3431    1.3148 H   0  0  0  0  0  0  0  0  0  0  0  0
    1.0613   -3.6322    2.9116 H   0  0  0  0  0  0  0  0  0  0  0  0
    2.0684   -3.5664    1.4445 H   0  0  0  0  0  0  0  0  0  0  0  0
    0.5029   -1.2120    2.6242 H   0  0  0  0  0  0  0  0  0  0  0  0
    2.2748   -1.4557    2.7428 H   0  0  0  0  0  0  0  0  0  0  0  0
    2.7387   -1.4695   -2.9566 H   0  0  0  0  0  0  0  0  0  0  0  0
    1.4533   -1.8110   -1.7912 H   0  0  0  0  0  0  0  0  0  0  0  0
    3.1490   -1.7243   -1.2559 H   0  0  0  0  0  0  0  0  0  0  0  0
    2.5847    0.8571   -3.6337 H   0  0  0  0  0  0  0  0  0  0  0  0
    1.4760    4.2270   -2.9075 H   0  0  0  0  0  0  0  0  0  0  0  0
    2.2940    3.2491   -4.1327 H   0  0  0  0  0  0  0  0  0  0  0  0
    3.2473    4.0721   -2.8866 H   0  0  0  0  0  0  0  0  0  0  0  0
    0.0332    4.3366    1.0862 H   0  0  0  0  0  0  0  0  0  0  0  0
    1.0391    3.2293    2.0643 H   0  0  0  0  0  0  0  0  0  0  0  0
   -2.8600    0.7808    2.3872 H   0  0  0  0  0  0  0  0  0  0  0  0
   -1.2787    0.3749   -0.2405 H   0  0  0  0  0  0  0  0  0  0  0  0
   -1.1601   -2.0981   -0.6064 H   0  0  0  0  0  0  0  0  0  0  0  0
   -2.4358   -4.1630   -1.0261 H   0  0  0  0  0  0  0  0  0  0  0  0
   -5.9376   -2.3665    0.7149 H   0  0  0  0  0  0  0  0  0  0  0  0
   -4.6829   -0.2944    1.1301 H   0  0  0  0  0  0  0  0  0  0  0  0
  1  2  1  0
  2  3  1  0
  3  4  1  0
  4  5  2  0
  4  6  1  0
  6  7  2  0
  7  8  1  0
  7  9  1  0
  9 10  1  0
 10 11  1  0
 10 12  2  0
 12 13  1  0
 13 14  2  0
 13 15  1  0
 15 16  1  0
 16 17  1  0
 17 18  2  0
 17 19  1  0
 19 20  2  3
 20 21  1  0
 21 22  2  0
 22 23  1  0
 23 24  2  0
 24 25  1  0
 24 26  1  0
 26 27  2  0
 12  6  1  0
 27 21  1  0
  1 28  1  0
  1 29  1  0
  1 30  1  0
  2 31  1  0
  2 32  1  0
  8 33  1  0
  8 34  1  0
  8 35  1  0
  9 36  1  0
 11 37  1  0
 11 38  1  0
 11 39  1  0
 15 40  1  0
 15 41  1  0
 19 42  1  0
 20 43  1  0
 22 44  1  0
 23 45  1  0
 26 46  1  0
 27 47  1  0
M  END
$$$$
