
     RDKit          3D

 33 35  0  0  0  0  0  0  0  0999 V2000
    0.1739   -0.2642    1.2162 O   0  0  0  0  0  0  0  0  0  0  0  0
    0.7356    0.4936    0.4352 C   0  0  0  0  0  0  0  0  0  0  0  0
    2.1395    0.3572   -0.0396 C   0  0  0  0  0  0  0  0  0  0  0  0
    2.9052   -0.6523    0.3963 C   0  0  0  0  0  0  0  0  0  0  0  0
    4.2627   -0.8779    0.0259 C   0  0  0  0  0  0  0  0  0  0  0  0
    4.9071   -0.7811   -1.1965 C   0  0  0  0  0  0  0  0  0  0  0  0
    6.2927   -1.1110   -1.1283 C   0  0  0  0  0  0  0  0  0  0  0  0
    6.6727   -1.4705    0.1427 C   0  0  0  0  0  0  0  0  0  0  0  0
    5.3657   -1.4197    1.2390 S   0  0  0  0  0  0  0  0  0  0  0  0
    2.5325    1.6589   -1.1028 S   0  0  0  0  0  0  0  0  0  0  0  0
    0.9299    2.3827   -0.9915 C   0  0  0  0  0  0  0  0  0  0  0  0
    0.4914    3.7723   -1.7952 S   0  0  0  0  0  0  0  0  0  0  0  0
    0.1709    1.6225   -0.1296 N   0  0  0  0  0  0  0  0  0  0  0  0
   -1.3046    1.8744    0.1110 N   0  0  0  0  0  0  0  0  0  0  0  0
   -2.3100    1.0664   -1.0193 S   0  0  0  0  0  6  0  0  0  0  0  0
   -1.5125    0.0613   -1.6922 O   0  0  0  0  0  0  0  0  0  0  0  0
   -3.0434    2.0690   -1.7585 O   0  0  0  0  0  0  0  0  0  0  0  0
   -3.4464    0.2398    0.0650 C   0  0  0  0  0  0  0  0  0  0  0  0
   -3.1131   -1.0128    0.5879 C   0  0  0  0  0  0  0  0  0  0  0  0
   -4.0089   -1.6596    1.4387 C   0  0  0  0  0  0  0  0  0  0  0  0
   -5.2300   -1.0610    1.7542 C   0  0  0  0  0  0  0  0  0  0  0  0
   -5.5631    0.1842    1.2181 C   0  0  0  0  0  0  0  0  0  0  0  0
   -4.6727    0.8390    0.3676 C   0  0  0  0  0  0  0  0  0  0  0  0
    2.4800   -1.3508    1.1175 H   0  0  0  0  0  0  0  0  0  0  0  0
    4.4117   -0.4926   -2.1160 H   0  0  0  0  0  0  0  0  0  0  0  0
    6.9716   -1.0910   -1.9721 H   0  0  0  0  0  0  0  0  0  0  0  0
    7.6554   -1.7701    0.4803 H   0  0  0  0  0  0  0  0  0  0  0  0
   -1.5775    1.6419    1.0720 H   0  0  0  0  0  0  0  0  0  0  0  0
   -2.1658   -1.4894    0.3426 H   0  0  0  0  0  0  0  0  0  0  0  0
   -3.7580   -2.6335    1.8532 H   0  0  0  0  0  0  0  0  0  0  0  0
   -5.9282   -1.5709    2.4145 H   0  0  0  0  0  0  0  0  0  0  0  0
   -6.5208    0.6402    1.4592 H   0  0  0  0  0  0  0  0  0  0  0  0
   -4.9436    1.8049   -0.0545 H   0  0  0  0  0  0  0  0  0  0  0  0
  1  2  2  0
  2  3  1  0
  3  4  2  3
  4  5  1  0
  5  6  2  0
  6  7  1  0
  7  8  2  0
  8  9  1  0
  3 10  1  0
 10 11  1  0
 11 12  2  0
 11 13  1  0
 13 14  1  0
 14 15  1  0
 15 16  2  0
 15 17  2  0
 15 18  1  0
 18 19  2  0
 19 20  1  0
 20 21  2  0
 21 22  1  0
 22 23  2  0
 13  2  1  0
 23 18  1  0
  9  5  1  0
  4 24  1  0
  6 25  1  0
  7 26  1  0
  8 27  1  0
 14 28  1  0
 19 29  1  0
 20 30  1  0
 21 31  1  0
 22 32  1  0
 23 33  1  0
M  END
$$$$
