
     RDKit          3D

 60 62  0  0  0  0  0  0  0  0999 V2000
    4.4051   -1.5448   -5.3803 C   0  0  0  0  0  0  0  0  0  0  0  0
    5.0631   -0.9668   -4.2598 O   0  0  0  0  0  0  0  0  0  0  0  0
    4.2954   -0.7064   -3.1593 C   0  0  0  0  0  0  0  0  0  0  0  0
    2.9484   -1.0379   -3.0024 C   0  0  0  0  0  0  0  0  0  0  0  0
    2.2739   -0.7094   -1.8204 C   0  0  0  0  0  0  0  0  0  0  0  0
    2.9469   -0.0362   -0.7985 C   0  0  0  0  0  0  0  0  0  0  0  0
    2.2721    0.3162    0.4712 C   0  0  0  0  0  0  0  0  0  0  0  0
    2.7784   -0.0856    1.5197 O   0  0  0  0  0  0  0  0  0  0  0  0
    0.9954    1.1164    0.4820 C   0  0  0  0  0  0  0  0  0  0  0  0
    0.5777    1.7479   -0.8045 C   0  0  0  0  0  0  0  0  0  0  0  0
    1.2169    2.5535   -1.4571 O   0  0  0  0  0  0  0  0  0  0  0  0
   -0.7773    1.2040   -1.2301 C   0  0  0  0  0  0  0  0  0  0  0  0
   -1.3506    1.5092   -2.2549 O   0  0  0  0  0  0  0  0  0  0  0  0
   -1.1633    0.3165   -0.2571 N   0  0  0  0  0  0  0  0  0  0  0  0
   -2.3632   -0.5080   -0.3517 C   0  0  0  0  0  0  0  0  0  0  0  0
   -2.0787   -2.0243   -0.4170 C   0  0  0  0  0  0  0  0  0  0  0  0
   -1.0546   -2.4198   -1.4068 N   0  0  0  0  0  0  0  0  0  0  0  0
   -1.5301   -2.2111   -2.7792 C   0  0  0  0  0  0  0  0  0  0  0  0
   -0.6945   -3.8292   -1.2212 C   0  0  0  0  0  0  0  0  0  0  0  0
   -0.1935    0.2011    0.8258 C   0  0  0  0  0  0  0  0  0  0  0  0
   -0.8028    0.5045    2.1857 C   0  0  0  0  0  0  0  0  0  0  0  0
   -0.7537   -0.4829    3.1824 C   0  0  0  0  0  0  0  0  0  0  0  0
   -1.2991   -0.2491    4.4425 C   0  0  0  0  0  0  0  0  0  0  0  0
   -1.8881    0.9811    4.7366 C   0  0  0  0  0  0  0  0  0  0  0  0
   -1.9391    1.9920    3.7728 C   0  0  0  0  0  0  0  0  0  0  0  0
   -2.4601    3.2392    3.9968 O   0  0  0  0  0  0  0  0  0  0  0  0
   -2.7845    3.5862    5.3362 C   0  0  0  0  0  0  0  0  0  0  0  0
   -1.4189    1.7372    2.4878 C   0  0  0  0  0  0  0  0  0  0  0  0
   -1.4034    2.6905    1.4959 O   0  0  0  0  0  0  0  0  0  0  0  0
   -2.7029    3.1878    1.1720 C   0  0  0  0  0  0  0  0  0  0  0  0
    4.3016    0.2706   -0.9364 C   0  0  0  0  0  0  0  0  0  0  0  0
    4.9678   -0.0598   -2.1180 C   0  0  0  0  0  0  0  0  0  0  0  0
    3.5958   -0.9014   -5.7411 H   0  0  0  0  0  0  0  0  0  0  0  0
    4.0377   -2.5489   -5.1442 H   0  0  0  0  0  0  0  0  0  0  0  0
    5.1389   -1.6403   -6.1866 H   0  0  0  0  0  0  0  0  0  0  0  0
    2.3933   -1.5563   -3.7774 H   0  0  0  0  0  0  0  0  0  0  0  0
    1.2353   -1.0055   -1.7160 H   0  0  0  0  0  0  0  0  0  0  0  0
    1.1341    1.9280    1.2062 H   0  0  0  0  0  0  0  0  0  0  0  0
   -2.9878   -0.2930    0.5225 H   0  0  0  0  0  0  0  0  0  0  0  0
   -2.9380   -0.1991   -1.2319 H   0  0  0  0  0  0  0  0  0  0  0  0
   -1.7335   -2.3281    0.5796 H   0  0  0  0  0  0  0  0  0  0  0  0
   -3.0212   -2.5589   -0.5926 H   0  0  0  0  0  0  0  0  0  0  0  0
   -0.7669   -2.5273   -3.4996 H   0  0  0  0  0  0  0  0  0  0  0  0
   -1.7145   -1.1527   -2.9810 H   0  0  0  0  0  0  0  0  0  0  0  0
   -2.4499   -2.7691   -2.9869 H   0  0  0  0  0  0  0  0  0  0  0  0
   -1.5520   -4.4975   -1.3597 H   0  0  0  0  0  0  0  0  0  0  0  0
   -0.2864   -3.9923   -0.2176 H   0  0  0  0  0  0  0  0  0  0  0  0
    0.0907   -4.1214   -1.9281 H   0  0  0  0  0  0  0  0  0  0  0  0
    0.1385   -0.8448    0.8203 H   0  0  0  0  0  0  0  0  0  0  0  0
   -0.2781   -1.4429    2.9886 H   0  0  0  0  0  0  0  0  0  0  0  0
   -1.2522   -1.0230    5.2050 H   0  0  0  0  0  0  0  0  0  0  0  0
   -2.2893    1.1216    5.7347 H   0  0  0  0  0  0  0  0  0  0  0  0
   -1.9159    3.4866    5.9955 H   0  0  0  0  0  0  0  0  0  0  0  0
   -3.6295    2.9934    5.7006 H   0  0  0  0  0  0  0  0  0  0  0  0
   -3.0888    4.6370    5.3436 H   0  0  0  0  0  0  0  0  0  0  0  0
   -2.8950    4.1204    1.7104 H   0  0  0  0  0  0  0  0  0  0  0  0
   -2.7123    3.4170    0.1026 H   0  0  0  0  0  0  0  0  0  0  0  0
   -3.4976    2.4574    1.3642 H   0  0  0  0  0  0  0  0  0  0  0  0
    4.8402    0.7684   -0.1335 H   0  0  0  0  0  0  0  0  0  0  0  0
    6.0202    0.1900   -2.2305 H   0  0  0  0  0  0  0  0  0  0  0  0
  1  2  1  0
  2  3  1  0
  3  4  2  0
  4  5  1  0
  5  6  2  0
  6  7  1  0
  7  8  2  0
  7  9  1  0
  9 10  1  0
 10 11  2  0
 10 12  1  0
 12 13  2  0
 12 14  1  0
 14 15  1  0
 15 16  1  0
 16 17  1  0
 17 18  1  0
 17 19  1  0
 14 20  1  0
 20 21  1  0
 21 22  2  0
 22 23  1  0
 23 24  2  0
 24 25  1  0
 25 26  1  0
 26 27  1  0
 25 28  2  0
 28 29  1  0
 29 30  1  0
  6 31  1  0
 31 32  2  0
 32  3  1  0
 20  9  1  0
 28 21  1  0
  1 33  1  0
  1 34  1  0
  1 35  1  0
  4 36  1  0
  5 37  1  0
  9 38  1  0
 15 39  1  0
 15 40  1  0
 16 41  1  0
 16 42  1  0
 18 43  1  0
 18 44  1  0
 18 45  1  0
 19 46  1  0
 19 47  1  0
 19 48  1  0
 20 49  1  0
 22 50  1  0
 23 51  1  0
 24 52  1  0
 27 53  1  0
 27 54  1  0
 27 55  1  0
 30 56  1  0
 30 57  1  0
 30 58  1  0
 31 59  1  0
 32 60  1  0
M  END
$$$$
