
     RDKit          3D

 39 41  0  0  0  0  0  0  0  0999 V2000
   -7.7512    1.3690   -0.5095 C   0  0  0  0  0  0  0  0  0  0  0  0
   -6.8766    2.3699    0.2253 C   0  0  0  0  0  0  0  0  0  0  0  0
   -5.8141    1.7074    0.9093 O   0  0  0  0  0  0  0  0  0  0  0  0
   -4.6280    1.5033    0.2592 C   0  0  0  0  0  0  0  0  0  0  0  0
   -4.3748    1.7565   -1.0861 C   0  0  0  0  0  0  0  0  0  0  0  0
   -3.1110    1.4978   -1.6372 C   0  0  0  0  0  0  0  0  0  0  0  0
   -2.0838    0.9739   -0.8289 C   0  0  0  0  0  0  0  0  0  0  0  0
   -0.7955    0.6724   -1.2385 N   0  0  0  0  0  0  0  0  0  0  0  0
   -0.1111    0.2018   -0.2240 C   0  0  0  0  0  0  0  0  0  0  0  0
    1.1997   -0.1696   -0.3842 N   0  0  0  0  0  0  0  0  0  0  0  0
    2.0478   -0.6772    0.5752 C   0  0  0  0  0  0  0  0  0  0  0  0
    1.7908   -0.8921    1.7531 O   0  0  0  0  0  0  0  0  0  0  0  0
    3.4191   -0.9636   -0.0012 C   0  0  0  0  0  0  0  0  0  0  0  0
    4.3562   -1.5252    1.0586 C   0  0  0  0  0  0  0  0  0  0  0  0
    5.6727   -1.8008    0.5075 N   0  0  0  0  0  0  0  0  0  0  0  0
    6.7137   -0.9114    0.4665 C   0  0  0  0  0  0  0  0  0  0  0  0
    7.7810   -1.5384   -0.1390 C   0  0  0  0  0  0  0  0  0  0  0  0
    7.3679   -2.8512   -0.4694 C   0  0  0  0  0  0  0  0  0  0  0  0
    6.0606   -2.9875   -0.0560 C   0  0  0  0  0  0  0  0  0  0  0  0
   -0.9388    0.0887    1.2556 S   0  0  0  0  0  0  0  0  0  0  0  0
   -2.3565    0.7210    0.5151 C   0  0  0  0  0  0  0  0  0  0  0  0
   -3.6185    0.9761    1.0751 C   0  0  0  0  0  0  0  0  0  0  0  0
   -7.1909    0.8424   -1.2877 H   0  0  0  0  0  0  0  0  0  0  0  0
   -8.6052    1.8701   -0.9740 H   0  0  0  0  0  0  0  0  0  0  0  0
   -8.1246    0.6067    0.1824 H   0  0  0  0  0  0  0  0  0  0  0  0
   -7.4838    2.8574    0.9967 H   0  0  0  0  0  0  0  0  0  0  0  0
   -6.5205    3.1743   -0.4275 H   0  0  0  0  0  0  0  0  0  0  0  0
   -5.1379    2.1489   -1.7499 H   0  0  0  0  0  0  0  0  0  0  0  0
   -2.9170    1.6960   -2.6868 H   0  0  0  0  0  0  0  0  0  0  0  0
    1.5306   -0.0356   -1.3300 H   0  0  0  0  0  0  0  0  0  0  0  0
    3.3088   -1.6771   -0.8269 H   0  0  0  0  0  0  0  0  0  0  0  0
    3.8264   -0.0319   -0.4125 H   0  0  0  0  0  0  0  0  0  0  0  0
    3.9710   -2.4625    1.4776 H   0  0  0  0  0  0  0  0  0  0  0  0
    4.4870   -0.8229    1.8905 H   0  0  0  0  0  0  0  0  0  0  0  0
    6.6178    0.0885    0.8694 H   0  0  0  0  0  0  0  0  0  0  0  0
    8.7536   -1.0988   -0.3184 H   0  0  0  0  0  0  0  0  0  0  0  0
    7.9614   -3.6168   -0.9522 H   0  0  0  0  0  0  0  0  0  0  0  0
    5.3848   -3.8307   -0.1171 H   0  0  0  0  0  0  0  0  0  0  0  0
   -3.8108    0.7710    2.1244 H   0  0  0  0  0  0  0  0  0  0  0  0
  1  2  1  0
  2  3  1  0
  3  4  1  0
  4  5  2  0
  5  6  1  0
  6  7  2  0
  7  8  1  0
  8  9  2  0
  9 10  1  0
 10 11  1  0
 11 12  2  0
 11 13  1  0
 13 14  1  0
 14 15  1  0
 15 16  1  0
 16 17  2  0
 17 18  1  0
 18 19  2  0
  9 20  1  0
 20 21  1  0
 21 22  2  0
 22  4  1  0
 21  7  1  0
 19 15  1  0
  1 23  1  0
  1 24  1  0
  1 25  1  0
  2 26  1  0
  2 27  1  0
  5 28  1  0
  6 29  1  0
 10 30  1  0
 13 31  1  0
 13 32  1  0
 14 33  1  0
 14 34  1  0
 16 35  1  0
 17 36  1  0
 18 37  1  0
 19 38  1  0
 22 39  1  0
M  END
$$$$
