
     RDKit          3D

 33 35  0  0  0  0  0  0  0  0999 V2000
   -3.6916   -0.7629    3.9011 C   0  0  0  0  0  0  0  0  0  0  0  0
   -2.6792   -0.5586    2.7851 C   0  0  0  0  0  0  0  0  0  0  0  0
   -3.1500   -1.0897    1.4772 C   0  0  0  0  0  0  0  0  0  0  0  0
   -4.2990   -1.6831    1.2062 N   0  0  0  0  0  0  0  0  0  0  0  0
   -4.2985   -2.0297   -0.1267 N   0  0  0  0  0  0  0  0  0  0  0  0
   -3.1587   -1.6248   -0.6276 C   0  0  0  0  0  0  0  0  0  0  0  0
   -2.3928   -1.0062    0.3264 N   0  0  0  0  0  0  0  0  0  0  0  0
   -1.1375   -0.4749    0.2315 N   0  0  0  0  0  0  0  0  0  0  0  0
   -0.6684   -0.2677   -0.9687 C   0  0  0  0  0  0  0  0  0  0  0  0
    0.7289    0.2634   -1.0753 C   0  0  0  0  0  0  0  0  0  0  0  0
    1.1195    1.1005   -2.1240 C   0  0  0  0  0  0  0  0  0  0  0  0
    2.4335    1.5754   -2.1826 C   0  0  0  0  0  0  0  0  0  0  0  0
    3.3663    1.2301   -1.2010 C   0  0  0  0  0  0  0  0  0  0  0  0
    4.6109    1.7643   -1.3846 O   0  0  0  0  0  0  0  0  0  0  0  0
    5.5986    1.4469   -0.4114 C   0  0  0  0  0  0  0  0  0  0  0  0
    2.9735    0.4041   -0.1488 C   0  0  0  0  0  0  0  0  0  0  0  0
    1.6594   -0.0743   -0.0843 C   0  0  0  0  0  0  0  0  0  0  0  0
   -1.4413   -0.4413   -2.2724 C   0  0  0  0  0  0  0  0  0  0  0  0
   -2.5718   -1.8449   -2.2273 S   0  0  0  0  0  0  0  0  0  0  0  0
   -3.3048   -0.3588    4.8421 H   0  0  0  0  0  0  0  0  0  0  0  0
   -4.6364   -0.2556    3.6774 H   0  0  0  0  0  0  0  0  0  0  0  0
   -3.9067   -1.8263    4.0518 H   0  0  0  0  0  0  0  0  0  0  0  0
   -2.4687    0.5129    2.6876 H   0  0  0  0  0  0  0  0  0  0  0  0
   -1.7408   -1.0533    3.0615 H   0  0  0  0  0  0  0  0  0  0  0  0
    0.4249    1.4159   -2.8968 H   0  0  0  0  0  0  0  0  0  0  0  0
    2.7349    2.2281   -2.9996 H   0  0  0  0  0  0  0  0  0  0  0  0
    5.3137    1.8226    0.5769 H   0  0  0  0  0  0  0  0  0  0  0  0
    5.7940    0.3698   -0.3845 H   0  0  0  0  0  0  0  0  0  0  0  0
    6.5274    1.9467   -0.7026 H   0  0  0  0  0  0  0  0  0  0  0  0
    3.6608    0.1133    0.6391 H   0  0  0  0  0  0  0  0  0  0  0  0
    1.3721   -0.7169    0.7458 H   0  0  0  0  0  0  0  0  0  0  0  0
   -0.7597   -0.6000   -3.1123 H   0  0  0  0  0  0  0  0  0  0  0  0
   -2.0126    0.4752   -2.4549 H   0  0  0  0  0  0  0  0  0  0  0  0
  1  2  1  0
  2  3  1  0
  3  4  2  0
  4  5  1  0
  5  6  2  0
  6  7  1  0
  7  8  1  0
  8  9  2  0
  9 10  1  0
 10 11  2  0
 11 12  1  0
 12 13  2  0
 13 14  1  0
 14 15  1  0
 13 16  1  0
 16 17  2  0
  9 18  1  0
 18 19  1  0
  7  3  1  0
 17 10  1  0
 19  6  1  0
  1 20  1  0
  1 21  1  0
  1 22  1  0
  2 23  1  0
  2 24  1  0
 11 25  1  0
 12 26  1  0
 15 27  1  0
 15 28  1  0
 15 29  1  0
 16 30  1  0
 17 31  1  0
 18 32  1  0
 18 33  1  0
M  END
$$$$
