
     RDKit          3D

 52 54  0  0  0  0  0  0  0  0999 V2000
    1.8846   -2.4281    1.1632 C   0  0  0  0  0  0  0  0  0  0  0  0
    1.7618   -1.6299   -0.1284 C   0  0  0  0  0  0  0  0  0  0  0  0
    1.1127   -0.3046   -0.0390 N   0  0  0  0  0  0  0  0  0  0  0  0
    1.1655    0.3675   -1.3563 C   0  0  0  0  0  0  0  0  0  0  0  0
    2.5612    0.7795   -1.7790 C   0  0  0  0  0  0  0  0  0  0  0  0
    3.0822    0.3638   -3.0128 C   0  0  0  0  0  0  0  0  0  0  0  0
    4.3605    0.7596   -3.4109 C   0  0  0  0  0  0  0  0  0  0  0  0
    5.1288    1.5765   -2.5833 C   0  0  0  0  0  0  0  0  0  0  0  0
    4.6209    1.9991   -1.3565 C   0  0  0  0  0  0  0  0  0  0  0  0
    3.3432    1.6051   -0.9568 C   0  0  0  0  0  0  0  0  0  0  0  0
   -0.2742   -0.2653    0.5132 C   0  0  0  0  0  0  0  0  0  0  0  0
   -0.3044   -0.3855    2.0426 C   0  0  0  0  0  0  0  0  0  0  0  0
    0.4427    0.5219    2.8117 C   0  0  0  0  0  0  0  0  0  0  0  0
    0.3911    0.4421    4.1943 C   0  0  0  0  0  0  0  0  0  0  0  0
   -0.3507   -0.4621    4.8646 N   0  0  0  0  0  0  0  0  0  0  0  0
   -1.0553   -1.3372    4.1183 C   0  0  0  0  0  0  0  0  0  0  0  0
   -1.0689   -1.3377    2.7308 C   0  0  0  0  0  0  0  0  0  0  0  0
   -1.2883   -1.1175   -0.2093 C   0  0  0  0  0  0  0  0  0  0  0  0
   -1.1375   -2.3934   -0.5253 N   0  0  0  0  0  0  0  0  0  0  0  0
   -2.2749   -2.7884   -1.1577 N   0  0  0  0  0  0  0  0  0  0  0  0
   -3.1382   -1.7944   -1.2300 N   0  0  0  0  0  0  0  0  0  0  0  0
   -2.5546   -0.7381   -0.6214 N   0  0  0  0  0  0  0  0  0  0  0  0
   -3.2997    0.5275   -0.5250 C   0  0  0  0  0  0  0  0  0  0  0  0
   -2.6577    1.5990   -1.4249 C   0  0  0  0  0  0  0  0  0  0  0  0
   -4.7664    0.3568   -1.0122 C   0  0  0  0  0  0  0  0  0  0  0  0
   -3.3888    1.0268    0.9298 C   0  0  0  0  0  0  0  0  0  0  0  0
    0.9253   -2.8409    1.4816 H   0  0  0  0  0  0  0  0  0  0  0  0
    2.3096   -1.8233    1.9700 H   0  0  0  0  0  0  0  0  0  0  0  0
    2.5572   -3.2788    1.0062 H   0  0  0  0  0  0  0  0  0  0  0  0
    2.7953   -1.4822   -0.4659 H   0  0  0  0  0  0  0  0  0  0  0  0
    1.2936   -2.2566   -0.8958 H   0  0  0  0  0  0  0  0  0  0  0  0
    0.5908    1.3021   -1.3320 H   0  0  0  0  0  0  0  0  0  0  0  0
    0.6989   -0.2581   -2.1286 H   0  0  0  0  0  0  0  0  0  0  0  0
    2.4984   -0.2762   -3.6705 H   0  0  0  0  0  0  0  0  0  0  0  0
    4.7581    0.4282   -4.3667 H   0  0  0  0  0  0  0  0  0  0  0  0
    6.1248    1.8812   -2.8933 H   0  0  0  0  0  0  0  0  0  0  0  0
    5.2212    2.6323   -0.7087 H   0  0  0  0  0  0  0  0  0  0  0  0
    2.9595    1.9340    0.0062 H   0  0  0  0  0  0  0  0  0  0  0  0
   -0.5945    0.7720    0.3751 H   0  0  0  0  0  0  0  0  0  0  0  0
    1.0677    1.2736    2.3389 H   0  0  0  0  0  0  0  0  0  0  0  0
    0.9634    1.1246    4.8159 H   0  0  0  0  0  0  0  0  0  0  0  0
   -1.6296   -2.0678    4.6813 H   0  0  0  0  0  0  0  0  0  0  0  0
   -1.6582   -2.0903    2.2158 H   0  0  0  0  0  0  0  0  0  0  0  0
   -2.5545    1.2393   -2.4554 H   0  0  0  0  0  0  0  0  0  0  0  0
   -3.2656    2.5110   -1.4483 H   0  0  0  0  0  0  0  0  0  0  0  0
   -1.6638    1.8924   -1.0808 H   0  0  0  0  0  0  0  0  0  0  0  0
   -5.3008   -0.3936   -0.4172 H   0  0  0  0  0  0  0  0  0  0  0  0
   -4.8104    0.0479   -2.0635 H   0  0  0  0  0  0  0  0  0  0  0  0
   -5.3243    1.2973   -0.9302 H   0  0  0  0  0  0  0  0  0  0  0  0
   -2.4308    1.3844    1.3118 H   0  0  0  0  0  0  0  0  0  0  0  0
   -3.7434    0.2345    1.5989 H   0  0  0  0  0  0  0  0  0  0  0  0
   -4.0840    1.8704    1.0157 H   0  0  0  0  0  0  0  0  0  0  0  0
  1  2  1  0
  2  3  1  0
  3  4  1  0
  4  5  1  0
  5  6  2  0
  6  7  1  0
  7  8  2  0
  8  9  1  0
  9 10  2  0
  3 11  1  0
 11 12  1  0
 12 13  2  0
 13 14  1  0
 14 15  2  0
 15 16  1  0
 16 17  2  0
 11 18  1  0
 18 19  2  0
 19 20  1  0
 20 21  2  0
 21 22  1  0
 22 23  1  0
 23 24  1  0
 23 25  1  0
 23 26  1  0
 10  5  1  0
 17 12  1  0
 22 18  1  0
  1 27  1  0
  1 28  1  0
  1 29  1  0
  2 30  1  0
  2 31  1  0
  4 32  1  0
  4 33  1  0
  6 34  1  0
  7 35  1  0
  8 36  1  0
  9 37  1  0
 10 38  1  0
 11 39  1  0
 13 40  1  0
 14 41  1  0
 16 42  1  0
 17 43  1  0
 24 44  1  0
 24 45  1  0
 24 46  1  0
 25 47  1  0
 25 48  1  0
 25 49  1  0
 26 50  1  0
 26 51  1  0
 26 52  1  0
M  END
$$$$
