
     RDKit          3D

 52 54  0  0  0  0  0  0  0  0999 V2000
    2.6676   -0.8297   -2.0120 C   0  0  0  0  0  0  0  0  0  0  0  0
    2.1746   -0.7096   -0.5722 C   0  0  0  0  0  0  0  0  0  0  0  0
    0.8498   -0.0509   -0.4969 N   0  0  0  0  0  0  0  0  0  0  0  0
    0.9683    1.4158   -0.7407 C   0  0  0  0  0  0  0  0  0  0  0  0
    1.9699    2.2101    0.0789 C   0  0  0  0  0  0  0  0  0  0  0  0
    3.2481    2.4888   -0.4355 C   0  0  0  0  0  0  0  0  0  0  0  0
    4.1784    3.2210    0.3056 C   0  0  0  0  0  0  0  0  0  0  0  0
    3.8423    3.6969    1.5692 C   0  0  0  0  0  0  0  0  0  0  0  0
    2.5741    3.4480    2.0862 C   0  0  0  0  0  0  0  0  0  0  0  0
    1.6441    2.7153    1.3443 C   0  0  0  0  0  0  0  0  0  0  0  0
    0.1138   -0.4010    0.7523 C   0  0  0  0  0  0  0  0  0  0  0  0
   -0.1590   -1.8968    0.9962 C   0  0  0  0  0  0  0  0  0  0  0  0
   -0.4488   -2.3215    2.3049 C   0  0  0  0  0  0  0  0  0  0  0  0
   -0.7139   -3.6612    2.5442 C   0  0  0  0  0  0  0  0  0  0  0  0
   -0.7083   -4.6074    1.5843 N   0  0  0  0  0  0  0  0  0  0  0  0
   -0.4242   -4.1951    0.3332 C   0  0  0  0  0  0  0  0  0  0  0  0
   -0.1535   -2.8766   -0.0050 C   0  0  0  0  0  0  0  0  0  0  0  0
   -1.1546    0.3914    1.0170 C   0  0  0  0  0  0  0  0  0  0  0  0
   -1.2933    1.1101    2.1238 N   0  0  0  0  0  0  0  0  0  0  0  0
   -2.5278    1.6680    2.0965 N   0  0  0  0  0  0  0  0  0  0  0  0
   -3.1769    1.3009    1.0123 N   0  0  0  0  0  0  0  0  0  0  0  0
   -2.3380    0.5006    0.3049 N   0  0  0  0  0  0  0  0  0  0  0  0
   -2.8810   -0.1041   -0.9210 C   0  0  0  0  0  0  0  0  0  0  0  0
   -1.8621   -0.2653   -2.0576 C   0  0  0  0  0  0  0  0  0  0  0  0
   -4.0082    0.7903   -1.5197 C   0  0  0  0  0  0  0  0  0  0  0  0
   -3.5187   -1.4630   -0.5814 C   0  0  0  0  0  0  0  0  0  0  0  0
    1.9421   -1.3707   -2.6290 H   0  0  0  0  0  0  0  0  0  0  0  0
    3.6084   -1.3899   -2.0368 H   0  0  0  0  0  0  0  0  0  0  0  0
    2.8527    0.1419   -2.4759 H   0  0  0  0  0  0  0  0  0  0  0  0
    2.9243   -0.2154    0.0542 H   0  0  0  0  0  0  0  0  0  0  0  0
    2.1411   -1.7328   -0.1882 H   0  0  0  0  0  0  0  0  0  0  0  0
   -0.0072    1.9102   -0.6619 H   0  0  0  0  0  0  0  0  0  0  0  0
    1.2133    1.5554   -1.8022 H   0  0  0  0  0  0  0  0  0  0  0  0
    3.5318    2.1382   -1.4247 H   0  0  0  0  0  0  0  0  0  0  0  0
    5.1638    3.4229   -0.1062 H   0  0  0  0  0  0  0  0  0  0  0  0
    4.5630    4.2692    2.1471 H   0  0  0  0  0  0  0  0  0  0  0  0
    2.3010    3.8302    3.0668 H   0  0  0  0  0  0  0  0  0  0  0  0
    0.6560    2.5634    1.7677 H   0  0  0  0  0  0  0  0  0  0  0  0
    0.8020   -0.1226    1.5667 H   0  0  0  0  0  0  0  0  0  0  0  0
   -0.4763   -1.6171    3.1327 H   0  0  0  0  0  0  0  0  0  0  0  0
   -0.9454   -4.0152    3.5449 H   0  0  0  0  0  0  0  0  0  0  0  0
   -0.4194   -4.9773   -0.4209 H   0  0  0  0  0  0  0  0  0  0  0  0
    0.0714   -2.6394   -1.0383 H   0  0  0  0  0  0  0  0  0  0  0  0
   -2.3497   -0.6013   -2.9811 H   0  0  0  0  0  0  0  0  0  0  0  0
   -1.1079   -1.0146   -1.8353 H   0  0  0  0  0  0  0  0  0  0  0  0
   -1.3622    0.6818   -2.2840 H   0  0  0  0  0  0  0  0  0  0  0  0
   -3.6382    1.7997   -1.7361 H   0  0  0  0  0  0  0  0  0  0  0  0
   -4.8642    0.8849   -0.8410 H   0  0  0  0  0  0  0  0  0  0  0  0
   -4.3958    0.3697   -2.4554 H   0  0  0  0  0  0  0  0  0  0  0  0
   -4.3184   -1.3522    0.1607 H   0  0  0  0  0  0  0  0  0  0  0  0
   -2.7940   -2.1631   -0.1641 H   0  0  0  0  0  0  0  0  0  0  0  0
   -3.9547   -1.9310   -1.4714 H   0  0  0  0  0  0  0  0  0  0  0  0
  1  2  1  0
  2  3  1  0
  3  4  1  0
  4  5  1  0
  5  6  2  0
  6  7  1  0
  7  8  2  0
  8  9  1  0
  9 10  2  0
  3 11  1  0
 11 12  1  0
 12 13  2  0
 13 14  1  0
 14 15  2  0
 15 16  1  0
 16 17  2  0
 11 18  1  0
 18 19  2  0
 19 20  1  0
 20 21  2  0
 21 22  1  0
 22 23  1  0
 23 24  1  0
 23 25  1  0
 23 26  1  0
 10  5  1  0
 17 12  1  0
 22 18  1  0
  1 27  1  0
  1 28  1  0
  1 29  1  0
  2 30  1  0
  2 31  1  0
  4 32  1  0
  4 33  1  0
  6 34  1  0
  7 35  1  0
  8 36  1  0
  9 37  1  0
 10 38  1  0
 11 39  1  0
 13 40  1  0
 14 41  1  0
 16 42  1  0
 17 43  1  0
 24 44  1  0
 24 45  1  0
 24 46  1  0
 25 47  1  0
 25 48  1  0
 25 49  1  0
 26 50  1  0
 26 51  1  0
 26 52  1  0
M  END
$$$$
