
     RDKit          3D

 40 42  0  0  0  0  0  0  0  0999 V2000
    1.6536   -2.7249   -2.8405 C   0  0  0  0  0  0  0  0  0  0  0  0
    2.5417   -1.7317   -2.1561 C   0  0  0  0  0  0  0  0  0  0  0  0
    3.5462   -1.2419   -2.6504 O   0  0  0  0  0  0  0  0  0  0  0  0
    2.0674   -1.4662   -0.9096 O   0  0  0  0  0  0  0  0  0  0  0  0
    2.8214   -0.4828   -0.1822 C   0  0  0  0  0  0  0  0  0  0  0  0
    2.0785   -0.1133    1.1065 C   0  0  0  0  0  0  0  0  0  0  0  0
    0.9090    0.7409    0.8322 N   0  0  0  0  0  0  0  0  0  0  0  0
    1.0834    2.1145    0.6913 C   0  0  0  0  0  0  0  0  0  0  0  0
    2.2373    2.6988    0.8122 N   0  0  0  0  0  0  0  0  0  0  0  0
    2.3834    4.0520    0.6841 C   0  0  0  0  0  0  0  0  0  0  0  0
    3.3836    4.6365    1.0870 O   0  0  0  0  0  0  0  0  0  0  0  0
    1.3868    4.7901    0.1156 N   0  0  0  0  0  0  0  0  0  0  0  0
    0.0782    4.4453    0.2531 C   0  0  0  0  0  0  0  0  0  0  0  0
   -0.8360    5.2495    0.3175 O   0  0  0  0  0  0  0  0  0  0  0  0
   -0.1268    2.9619    0.3863 C   0  0  0  0  0  0  0  0  0  0  0  0
   -1.3072    2.4514    0.2165 N   0  0  0  0  0  0  0  0  0  0  0  0
   -1.4520    1.0559    0.3251 C   0  0  0  0  0  0  0  0  0  0  0  0
   -2.7389    0.5447    0.1159 C   0  0  0  0  0  0  0  0  0  0  0  0
   -3.0053   -0.8273    0.1871 C   0  0  0  0  0  0  0  0  0  0  0  0
   -4.4058   -1.3208   -0.0484 C   0  0  0  0  0  0  0  0  0  0  0  0
   -1.9490   -1.7055    0.4718 C   0  0  0  0  0  0  0  0  0  0  0  0
   -2.1707   -3.1922    0.5562 C   0  0  0  0  0  0  0  0  0  0  0  0
   -0.6557   -1.1875    0.6866 C   0  0  0  0  0  0  0  0  0  0  0  0
   -0.3738    0.1883    0.6208 C   0  0  0  0  0  0  0  0  0  0  0  0
    1.6576   -3.6677   -2.2878 H   0  0  0  0  0  0  0  0  0  0  0  0
    0.6386   -2.3259   -2.9133 H   0  0  0  0  0  0  0  0  0  0  0  0
    2.0278   -2.9096   -3.8514 H   0  0  0  0  0  0  0  0  0  0  0  0
    3.7914   -0.9215    0.0781 H   0  0  0  0  0  0  0  0  0  0  0  0
    2.9826    0.4054   -0.8043 H   0  0  0  0  0  0  0  0  0  0  0  0
    1.8077   -1.0093    1.6734 H   0  0  0  0  0  0  0  0  0  0  0  0
    2.7717    0.4288    1.7623 H   0  0  0  0  0  0  0  0  0  0  0  0
    1.5617    5.7839    0.1506 H   0  0  0  0  0  0  0  0  0  0  0  0
   -3.5410    1.2464   -0.1076 H   0  0  0  0  0  0  0  0  0  0  0  0
   -5.0994   -0.4927   -0.2291 H   0  0  0  0  0  0  0  0  0  0  0  0
   -4.7695   -1.8677    0.8272 H   0  0  0  0  0  0  0  0  0  0  0  0
   -4.4356   -1.9742   -0.9260 H   0  0  0  0  0  0  0  0  0  0  0  0
   -2.8697   -3.4262    1.3653 H   0  0  0  0  0  0  0  0  0  0  0  0
   -1.2380   -3.7288    0.7600 H   0  0  0  0  0  0  0  0  0  0  0  0
   -2.5664   -3.5723   -0.3910 H   0  0  0  0  0  0  0  0  0  0  0  0
    0.1314   -1.9041    0.8988 H   0  0  0  0  0  0  0  0  0  0  0  0
  1  2  1  0
  2  3  2  0
  2  4  1  0
  4  5  1  0
  5  6  1  0
  6  7  1  0
  7  8  1  0
  8  9  2  0
  9 10  1  0
 10 11  2  0
 10 12  1  0
 12 13  1  0
 13 14  2  0
 13 15  1  0
 15 16  2  0
 16 17  1  0
 17 18  2  0
 18 19  1  0
 19 20  1  0
 19 21  2  0
 21 22  1  0
 21 23  1  0
 23 24  2  0
 24  7  1  0
 15  8  1  0
 24 17  1  0
  1 25  1  0
  1 26  1  0
  1 27  1  0
  5 28  1  0
  5 29  1  0
  6 30  1  0
  6 31  1  0
 12 32  1  0
 18 33  1  0
 20 34  1  0
 20 35  1  0
 20 36  1  0
 22 37  1  0
 22 38  1  0
 22 39  1  0
 23 40  1  0
M  END
$$$$
