
     RDKit          3D

 44 47  0  0  0  0  0  0  0  0999 V2000
    2.5144    0.0637   -2.1816 O   0  0  0  0  0  0  0  0  0  0  0  0
    1.8302    1.0041   -1.3173 S   0  0  0  0  0  6  0  0  0  0  0  0
    1.7842    2.4259   -1.5895 O   0  0  0  0  0  0  0  0  0  0  0  0
    2.4720    0.8004    0.3246 C   0  0  0  0  0  0  0  0  0  0  0  0
    1.6422    0.4081    1.3858 C   0  0  0  0  0  0  0  0  0  0  0  0
    2.1720    0.2465    2.6601 C   0  0  0  0  0  0  0  0  0  0  0  0
    3.5253    0.4788    2.8718 C   0  0  0  0  0  0  0  0  0  0  0  0
    4.3549    0.8795    1.8118 C   0  0  0  0  0  0  0  0  0  0  0  0
    5.7180    1.1193    2.0353 C   0  0  0  0  0  0  0  0  0  0  0  0
    6.5356    1.5204    0.9889 C   0  0  0  0  0  0  0  0  0  0  0  0
    5.9579    1.6698   -0.2522 C   0  0  0  0  0  0  0  0  0  0  0  0
    4.6496    1.4466   -0.4991 N   0  0  0  0  0  0  0  0  0  0  0  0
    3.8371    1.0514    0.5062 C   0  0  0  0  0  0  0  0  0  0  0  0
    0.2313    0.4797   -1.2704 N   0  0  0  0  0  0  0  0  0  0  0  0
   -0.0925   -0.9599   -1.3600 C   0  0  0  0  0  0  0  0  0  0  0  0
   -1.2723   -1.3707   -0.4570 C   0  0  0  0  0  0  0  0  0  0  0  0
   -2.4432   -0.4821   -0.5821 N   0  0  0  0  0  0  0  0  0  0  0  0
   -3.7184   -1.0008   -0.3886 C   0  0  0  0  0  0  0  0  0  0  0  0
   -3.9461   -2.0648    0.5020 C   0  0  0  0  0  0  0  0  0  0  0  0
   -5.2244   -2.5944    0.7180 C   0  0  0  0  0  0  0  0  0  0  0  0
   -6.3189   -2.0665    0.0454 C   0  0  0  0  0  0  0  0  0  0  0  0
   -6.1308   -1.0099   -0.8367 C   0  0  0  0  0  0  0  0  0  0  0  0
   -4.8482   -0.4859   -1.0448 C   0  0  0  0  0  0  0  0  0  0  0  0
   -2.2368    0.8060   -1.2637 C   0  0  0  0  0  0  0  0  0  0  0  0
   -0.8619    1.4059   -0.9159 C   0  0  0  0  0  0  0  0  0  0  0  0
    0.5837    0.2321    1.2465 H   0  0  0  0  0  0  0  0  0  0  0  0
    1.5333   -0.0554    3.4868 H   0  0  0  0  0  0  0  0  0  0  0  0
    3.9318    0.3510    3.8733 H   0  0  0  0  0  0  0  0  0  0  0  0
    6.1498    0.9965    3.0257 H   0  0  0  0  0  0  0  0  0  0  0  0
    7.5917    1.7118    1.1385 H   0  0  0  0  0  0  0  0  0  0  0  0
    6.5420    1.9823   -1.1133 H   0  0  0  0  0  0  0  0  0  0  0  0
    0.7752   -1.5726   -1.0932 H   0  0  0  0  0  0  0  0  0  0  0  0
   -0.3410   -1.1787   -2.4056 H   0  0  0  0  0  0  0  0  0  0  0  0
   -0.9488   -1.3659    0.5900 H   0  0  0  0  0  0  0  0  0  0  0  0
   -1.5319   -2.4048   -0.7168 H   0  0  0  0  0  0  0  0  0  0  0  0
   -3.1245   -2.4914    1.0705 H   0  0  0  0  0  0  0  0  0  0  0  0
   -5.3589   -3.4149    1.4175 H   0  0  0  0  0  0  0  0  0  0  0  0
   -7.3124   -2.4738    0.2092 H   0  0  0  0  0  0  0  0  0  0  0  0
   -6.9789   -0.5891   -1.3704 H   0  0  0  0  0  0  0  0  0  0  0  0
   -4.7550    0.3274   -1.7583 H   0  0  0  0  0  0  0  0  0  0  0  0
   -2.3183    0.6623   -2.3484 H   0  0  0  0  0  0  0  0  0  0  0  0
   -2.9961    1.5344   -0.9552 H   0  0  0  0  0  0  0  0  0  0  0  0
   -0.7525    2.3432   -1.4711 H   0  0  0  0  0  0  0  0  0  0  0  0
   -0.8205    1.6344    0.1536 H   0  0  0  0  0  0  0  0  0  0  0  0
  1  2  2  0
  2  3  2  0
  2  4  1  0
  4  5  2  0
  5  6  1  0
  6  7  2  0
  7  8  1  0
  8  9  2  0
  9 10  1  0
 10 11  2  0
 11 12  1  0
 12 13  2  0
  2 14  1  0
 14 15  1  0
 15 16  1  0
 16 17  1  0
 17 18  1  0
 18 19  2  0
 19 20  1  0
 20 21  2  0
 21 22  1  0
 22 23  2  0
 17 24  1  0
 24 25  1  0
 13  4  1  0
 25 14  1  0
 13  8  1  0
 23 18  1  0
  5 26  1  0
  6 27  1  0
  7 28  1  0
  9 29  1  0
 10 30  1  0
 11 31  1  0
 15 32  1  0
 15 33  1  0
 16 34  1  0
 16 35  1  0
 19 36  1  0
 20 37  1  0
 21 38  1  0
 22 39  1  0
 23 40  1  0
 24 41  1  0
 24 42  1  0
 25 43  1  0
 25 44  1  0
M  END
$$$$
