
     RDKit          3D

 36 39  0  0  0  0  0  0  0  0999 V2000
   -1.7743    0.5511    2.8943 C   0  0  0  0  0  0  0  0  0  0  0  0
   -0.9414    0.3369    1.6831 C   0  0  0  0  0  0  0  0  0  0  0  0
    0.3907    0.3335    1.7933 N   0  0  0  0  0  0  0  0  0  0  0  0
    0.8479    0.0909    0.5403 N   0  0  0  0  0  0  0  0  0  0  0  0
    2.1865   -0.0076    0.1303 C   0  0  0  0  0  0  0  0  0  0  0  0
    2.4518   -0.2401   -1.1689 C   0  0  0  0  0  0  0  0  0  0  0  0
    1.2733   -0.3881   -2.0633 C   0  0  0  0  0  0  0  0  0  0  0  0
    0.0272   -0.3078   -1.7041 N   0  0  0  0  0  0  0  0  0  0  0  0
   -0.2026   -0.0576   -0.3751 C   0  0  0  0  0  0  0  0  0  0  0  0
   -1.3693    0.1119    0.3495 C   0  0  0  0  0  0  0  0  0  0  0  0
   -2.7074    0.0566   -0.2156 C   0  0  0  0  0  0  0  0  0  0  0  0
   -3.6396    1.0610    0.0773 C   0  0  0  0  0  0  0  0  0  0  0  0
   -4.9330    1.0031   -0.4483 C   0  0  0  0  0  0  0  0  0  0  0  0
   -5.3051   -0.0580   -1.2715 C   0  0  0  0  0  0  0  0  0  0  0  0
   -4.3845   -1.0597   -1.5732 C   0  0  0  0  0  0  0  0  0  0  0  0
   -3.0913   -1.0026   -1.0480 C   0  0  0  0  0  0  0  0  0  0  0  0
    3.8441   -0.3078   -1.6667 C   0  0  0  0  0  0  0  0  0  0  0  0
    4.0678   -0.5327   -2.8538 O   0  0  0  0  0  0  0  0  0  0  0  0
    4.9615   -0.0182   -0.6890 C   0  0  0  0  0  0  0  0  0  0  0  0
    4.5901   -0.4663    0.7166 C   0  0  0  0  0  0  0  0  0  0  0  0
    3.2633    0.1413    1.1714 C   0  0  0  0  0  0  0  0  0  0  0  0
   -1.2140    0.3242    3.8076 H   0  0  0  0  0  0  0  0  0  0  0  0
   -2.1045    1.5931    2.9487 H   0  0  0  0  0  0  0  0  0  0  0  0
   -2.6582   -0.0945    2.8805 H   0  0  0  0  0  0  0  0  0  0  0  0
    1.5005   -0.5838   -3.1250 H   0  0  0  0  0  0  0  0  0  0  0  0
   -3.3648    1.9065    0.7027 H   0  0  0  0  0  0  0  0  0  0  0  0
   -5.6472    1.7897   -0.2200 H   0  0  0  0  0  0  0  0  0  0  0  0
   -6.3099   -0.1014   -1.6835 H   0  0  0  0  0  0  0  0  0  0  0  0
   -4.6690   -1.8849   -2.2206 H   0  0  0  0  0  0  0  0  0  0  0  0
   -2.3838   -1.7907   -1.2966 H   0  0  0  0  0  0  0  0  0  0  0  0
    5.8588   -0.5552   -1.0146 H   0  0  0  0  0  0  0  0  0  0  0  0
    5.1713    1.0566   -0.7156 H   0  0  0  0  0  0  0  0  0  0  0  0
    4.5095   -1.5613    0.7379 H   0  0  0  0  0  0  0  0  0  0  0  0
    5.3846   -0.1921    1.4198 H   0  0  0  0  0  0  0  0  0  0  0  0
    2.9721   -0.3527    2.1061 H   0  0  0  0  0  0  0  0  0  0  0  0
    3.3989    1.2069    1.3942 H   0  0  0  0  0  0  0  0  0  0  0  0
  1  2  1  0
  2  3  2  0
  3  4  1  0
  4  5  1  0
  5  6  2  0
  6  7  1  0
  7  8  2  0
  8  9  1  0
  9 10  2  0
 10 11  1  0
 11 12  2  0
 12 13  1  0
 13 14  2  0
 14 15  1  0
 15 16  2  0
  6 17  1  0
 17 18  2  0
 17 19  1  0
 19 20  1  0
 20 21  1  0
 10  2  1  0
 16 11  1  0
  9  4  1  0
 21  5  1  0
  1 22  1  0
  1 23  1  0
  1 24  1  0
  7 25  1  0
 12 26  1  0
 13 27  1  0
 14 28  1  0
 15 29  1  0
 16 30  1  0
 19 31  1  0
 19 32  1  0
 20 33  1  0
 20 34  1  0
 21 35  1  0
 21 36  1  0
M  END
$$$$
