
     RDKit          3D

 39 41  0  0  0  0  0  0  0  0999 V2000
   -7.4053    1.5291   -1.1167 C   0  0  0  0  0  0  0  0  0  0  0  0
   -6.6387    0.3594   -1.3723 O   0  0  0  0  0  0  0  0  0  0  0  0
   -5.3253    0.3888   -0.9944 C   0  0  0  0  0  0  0  0  0  0  0  0
   -4.6114   -0.7781   -1.2615 C   0  0  0  0  0  0  0  0  0  0  0  0
   -3.2556   -0.8853   -0.9267 C   0  0  0  0  0  0  0  0  0  0  0  0
   -2.5849    0.1792   -0.3119 C   0  0  0  0  0  0  0  0  0  0  0  0
   -1.1917    0.0787    0.0373 N   0  0  0  0  0  0  0  0  0  0  0  0
   -0.5260    0.8138    1.0310 C   0  0  0  0  0  0  0  0  0  0  0  0
   -1.1461    1.6798    1.8317 O   0  0  0  0  0  0  0  0  0  0  0  0
    0.8007    0.4389    1.0478 C   0  0  0  0  0  0  0  0  0  0  0  0
    0.9810   -0.5409    0.0584 C   0  0  0  0  0  0  0  0  0  0  0  0
    2.1378   -1.1645   -0.2760 N   0  0  0  0  0  0  0  0  0  0  0  0
    3.3754   -0.7406    0.2385 N   0  0  0  0  0  0  0  0  0  0  0  0
    4.5002   -0.9499   -0.5472 C   0  0  0  0  0  0  0  0  0  0  0  0
    4.4129   -1.2903   -1.7277 O   0  0  0  0  0  0  0  0  0  0  0  0
    5.7511   -0.7573    0.1523 C   0  0  0  0  0  0  0  0  0  0  0  0
    7.0599   -0.8533   -0.2814 C   0  0  0  0  0  0  0  0  0  0  0  0
    7.8821   -0.5650    0.8339 C   0  0  0  0  0  0  0  0  0  0  0  0
    7.0298   -0.3122    1.8823 C   0  0  0  0  0  0  0  0  0  0  0  0
    5.7363   -0.4265    1.4842 O   0  0  0  0  0  0  0  0  0  0  0  0
   -0.2403   -0.7774   -0.5404 C   0  0  0  0  0  0  0  0  0  0  0  0
   -0.5360   -1.6223   -1.5302 O   0  0  0  0  0  0  0  0  0  0  0  0
   -3.3102    1.3500   -0.0474 C   0  0  0  0  0  0  0  0  0  0  0  0
   -4.6679    1.4543   -0.3862 C   0  0  0  0  0  0  0  0  0  0  0  0
   -7.4599    1.7392   -0.0434 H   0  0  0  0  0  0  0  0  0  0  0  0
   -8.4240    1.3453   -1.4716 H   0  0  0  0  0  0  0  0  0  0  0  0
   -7.0107    2.3884   -1.6689 H   0  0  0  0  0  0  0  0  0  0  0  0
   -5.1135   -1.6204   -1.7313 H   0  0  0  0  0  0  0  0  0  0  0  0
   -2.7674   -1.8326   -1.1304 H   0  0  0  0  0  0  0  0  0  0  0  0
   -0.4888    2.0238    2.4617 H   0  0  0  0  0  0  0  0  0  0  0  0
    1.5549    0.8421    1.7080 H   0  0  0  0  0  0  0  0  0  0  0  0
    2.2501   -1.5209   -1.2324 H   0  0  0  0  0  0  0  0  0  0  0  0
    3.4778   -0.7242    1.2490 H   0  0  0  0  0  0  0  0  0  0  0  0
    7.3705   -1.1024   -1.2876 H   0  0  0  0  0  0  0  0  0  0  0  0
    8.9625   -0.5444    0.8696 H   0  0  0  0  0  0  0  0  0  0  0  0
    7.1793   -0.0508    2.9211 H   0  0  0  0  0  0  0  0  0  0  0  0
    0.2550   -2.1635   -1.6926 H   0  0  0  0  0  0  0  0  0  0  0  0
   -2.8396    2.2242    0.3920 H   0  0  0  0  0  0  0  0  0  0  0  0
   -5.1738    2.3876   -0.1635 H   0  0  0  0  0  0  0  0  0  0  0  0
  1  2  1  0
  2  3  1  0
  3  4  2  0
  4  5  1  0
  5  6  2  0
  6  7  1  0
  7  8  1  0
  8  9  1  0
  8 10  2  0
 10 11  1  0
 11 12  1  0
 12 13  1  0
 13 14  1  0
 14 15  2  0
 14 16  1  0
 16 17  2  0
 17 18  1  0
 18 19  2  0
 19 20  1  0
 11 21  2  0
 21 22  1  0
  6 23  1  0
 23 24  2  0
 24  3  1  0
 21  7  1  0
 20 16  1  0
  1 25  1  0
  1 26  1  0
  1 27  1  0
  4 28  1  0
  5 29  1  0
  9 30  1  0
 10 31  1  0
 12 32  1  0
 13 33  1  0
 17 34  1  0
 18 35  1  0
 19 36  1  0
 22 37  1  0
 23 38  1  0
 24 39  1  0
M  END
$$$$
