
     RDKit          3D

 48 50  0  0  0  0  0  0  0  0999 V2000
    5.1939    1.0655   -2.8680 C   0  0  0  0  0  0  0  0  0  0  0  0
    5.4244    0.8997   -1.3713 C   0  0  0  0  0  0  0  0  0  0  0  0
    4.7409   -0.2991   -0.8426 N   0  0  0  0  0  0  0  0  0  0  0  0
    5.2584   -0.7437    0.4694 C   0  0  0  0  0  0  0  0  0  0  0  0
    4.8758   -2.1877    0.7693 C   0  0  0  0  0  0  0  0  0  0  0  0
    3.3326   -0.1701   -0.8464 C   0  0  0  0  0  0  0  0  0  0  0  0
    2.5905   -1.0457   -1.6494 C   0  0  0  0  0  0  0  0  0  0  0  0
    1.1955   -0.9760   -1.6923 C   0  0  0  0  0  0  0  0  0  0  0  0
    0.5185   -0.0244   -0.9261 C   0  0  0  0  0  0  0  0  0  0  0  0
   -0.9420    0.0577   -0.9912 C   0  0  0  0  0  0  0  0  0  0  0  0
   -1.8304   -0.4534   -0.1145 C   0  0  0  0  0  0  0  0  0  0  0  0
   -1.4549   -1.2031    1.1039 C   0  0  0  0  0  0  0  0  0  0  0  0
   -0.3150   -1.3394    1.5295 O   0  0  0  0  0  0  0  0  0  0  0  0
   -2.5046   -1.7502    1.7805 N   0  0  0  0  0  0  0  0  0  0  0  0
   -3.8228   -1.4447    1.6316 C   0  0  0  0  0  0  0  0  0  0  0  0
   -4.6266   -1.8430    2.4738 O   0  0  0  0  0  0  0  0  0  0  0  0
   -4.1677   -0.6914    0.5304 N   0  0  0  0  0  0  0  0  0  0  0  0
   -5.5754   -0.3594    0.3571 C   0  0  0  0  0  0  0  0  0  0  0  0
   -5.8903    0.8591    1.1548 C   0  0  0  0  0  0  0  0  0  0  0  0
   -6.4094    1.0556    2.4184 C   0  0  0  0  0  0  0  0  0  0  0  0
   -6.4634    2.4563    2.6146 C   0  0  0  0  0  0  0  0  0  0  0  0
   -5.9743    3.0239    1.4619 C   0  0  0  0  0  0  0  0  0  0  0  0
   -5.6213    2.0623    0.5713 O   0  0  0  0  0  0  0  0  0  0  0  0
   -3.2729   -0.2434   -0.4275 C   0  0  0  0  0  0  0  0  0  0  0  0
   -3.6233    0.2816   -1.4835 O   0  0  0  0  0  0  0  0  0  0  0  0
    1.2478    0.8591   -0.1259 C   0  0  0  0  0  0  0  0  0  0  0  0
    2.6438    0.7833   -0.0852 C   0  0  0  0  0  0  0  0  0  0  0  0
    5.4709    0.1560   -3.4116 H   0  0  0  0  0  0  0  0  0  0  0  0
    4.1467    1.2892   -3.0944 H   0  0  0  0  0  0  0  0  0  0  0  0
    5.8002    1.8916   -3.2531 H   0  0  0  0  0  0  0  0  0  0  0  0
    5.1300    1.8088   -0.8334 H   0  0  0  0  0  0  0  0  0  0  0  0
    6.5054    0.7868   -1.2221 H   0  0  0  0  0  0  0  0  0  0  0  0
    4.9329   -0.0822    1.2817 H   0  0  0  0  0  0  0  0  0  0  0  0
    6.3546   -0.6981    0.4516 H   0  0  0  0  0  0  0  0  0  0  0  0
    5.1763   -2.8513   -0.0488 H   0  0  0  0  0  0  0  0  0  0  0  0
    3.7970   -2.2987    0.9169 H   0  0  0  0  0  0  0  0  0  0  0  0
    5.3719   -2.5265    1.6844 H   0  0  0  0  0  0  0  0  0  0  0  0
    3.1111   -1.7916   -2.2449 H   0  0  0  0  0  0  0  0  0  0  0  0
    0.6506   -1.6703   -2.3264 H   0  0  0  0  0  0  0  0  0  0  0  0
   -1.2900    0.5920   -1.8757 H   0  0  0  0  0  0  0  0  0  0  0  0
   -2.2645   -2.2393    2.6314 H   0  0  0  0  0  0  0  0  0  0  0  0
   -6.1983   -1.1964    0.6940 H   0  0  0  0  0  0  0  0  0  0  0  0
   -5.8123   -0.1869   -0.6983 H   0  0  0  0  0  0  0  0  0  0  0  0
   -6.7038    0.2789    3.1121 H   0  0  0  0  0  0  0  0  0  0  0  0
   -6.8138    2.9877    3.4882 H   0  0  0  0  0  0  0  0  0  0  0  0
   -5.8193    4.0427    1.1344 H   0  0  0  0  0  0  0  0  0  0  0  0
    0.7398    1.6052    0.4792 H   0  0  0  0  0  0  0  0  0  0  0  0
    3.1868    1.4732    0.5539 H   0  0  0  0  0  0  0  0  0  0  0  0
  1  2  1  0
  2  3  1  0
  3  4  1  0
  4  5  1  0
  3  6  1  0
  6  7  2  0
  7  8  1  0
  8  9  2  0
  9 10  1  0
 10 11  2  3
 11 12  1  0
 12 13  2  0
 12 14  1  0
 14 15  1  0
 15 16  2  0
 15 17  1  0
 17 18  1  0
 18 19  1  0
 19 20  2  0
 20 21  1  0
 21 22  2  0
 22 23  1  0
 17 24  1  0
 24 25  2  0
  9 26  1  0
 26 27  2  0
 27  6  1  0
 24 11  1  0
 23 19  1  0
  1 28  1  0
  1 29  1  0
  1 30  1  0
  2 31  1  0
  2 32  1  0
  4 33  1  0
  4 34  1  0
  5 35  1  0
  5 36  1  0
  5 37  1  0
  7 38  1  0
  8 39  1  0
 10 40  1  0
 14 41  1  0
 18 42  1  0
 18 43  1  0
 20 44  1  0
 21 45  1  0
 22 46  1  0
 26 47  1  0
 27 48  1  0
M  END
$$$$
