
     RDKit          3D

 45 48  0  0  0  0  0  0  0  0999 V2000
   -2.2532   -3.0042    1.4043 C   0  0  0  0  0  0  0  0  0  0  0  0
   -0.9659   -2.6193    0.6994 C   0  0  0  0  0  0  0  0  0  0  0  0
   -0.8935   -1.1961    0.5464 O   0  0  0  0  0  0  0  0  0  0  0  0
   -1.4927   -0.6942   -0.5677 C   0  0  0  0  0  0  0  0  0  0  0  0
   -2.1258   -1.3310   -1.3972 O   0  0  0  0  0  0  0  0  0  0  0  0
   -1.3974    0.7846   -0.5545 C   0  0  0  0  0  0  0  0  0  0  0  0
   -2.7096    1.4688   -0.6508 C   0  0  0  0  0  0  0  0  0  0  0  0
   -2.9367    2.4487   -1.3454 O   0  0  0  0  0  0  0  0  0  0  0  0
   -3.5994    0.8581    0.1744 O   0  0  0  0  0  0  0  0  0  0  0  0
   -4.9216    1.4087    0.1325 C   0  0  0  0  0  0  0  0  0  0  0  0
   -5.7964    0.5949    1.0665 C   0  0  0  0  0  0  0  0  0  0  0  0
   -0.2373    1.4798   -0.3902 C   0  0  0  0  0  0  0  0  0  0  0  0
   -0.2839    2.9364    0.0121 C   0  0  0  0  0  0  0  0  0  0  0  0
    0.7615    3.5777    0.5941 C   0  0  0  0  0  0  0  0  0  0  0  0
    0.6335    5.3593    1.1412 Br  0  0  0  0  0  0  0  0  0  0  0  0
    2.0063    2.8889    0.7744 C   0  0  0  0  0  0  0  0  0  0  0  0
    3.1723    3.2627    1.3134 N   0  0  0  0  0  0  0  0  0  0  0  0
    4.0488    2.1964    1.0662 O   0  0  0  0  0  0  0  0  0  0  0  0
    3.3936    1.2161    0.3717 C   0  0  0  0  0  0  0  0  0  0  0  0
    3.8914    0.0175   -0.1541 C   0  0  0  0  0  0  0  0  0  0  0  0
    5.2340   -0.3565    0.0378 C   0  0  0  0  0  0  0  0  0  0  0  0
    5.6961   -1.5446   -0.5184 C   0  0  0  0  0  0  0  0  0  0  0  0
    4.8293   -2.3507   -1.2545 C   0  0  0  0  0  0  0  0  0  0  0  0
    3.4943   -1.9707   -1.4493 C   0  0  0  0  0  0  0  0  0  0  0  0
    2.9810   -0.7678   -0.9133 C   0  0  0  0  0  0  0  0  0  0  0  0
    1.6340   -0.3136   -1.0810 C   0  0  0  0  0  0  0  0  0  0  0  0
    0.7976   -0.9586   -1.9569 O   0  0  0  0  0  0  0  0  0  0  0  0
    1.1248    0.8274   -0.4297 C   0  0  0  0  0  0  0  0  0  0  0  0
    2.0859    1.5970    0.2301 C   0  0  0  0  0  0  0  0  0  0  0  0
   -2.3326   -2.4890    2.3676 H   0  0  0  0  0  0  0  0  0  0  0  0
   -3.1275   -2.7112    0.8143 H   0  0  0  0  0  0  0  0  0  0  0  0
   -2.2944   -4.0840    1.5758 H   0  0  0  0  0  0  0  0  0  0  0  0
   -0.1085   -2.9192    1.3104 H   0  0  0  0  0  0  0  0  0  0  0  0
   -0.8670   -3.1301   -0.2647 H   0  0  0  0  0  0  0  0  0  0  0  0
   -5.3145    1.3474   -0.8888 H   0  0  0  0  0  0  0  0  0  0  0  0
   -4.8981    2.4545    0.4600 H   0  0  0  0  0  0  0  0  0  0  0  0
   -6.8255    0.9661    1.0622 H   0  0  0  0  0  0  0  0  0  0  0  0
   -5.7977   -0.4599    0.7729 H   0  0  0  0  0  0  0  0  0  0  0  0
   -5.4106    0.6371    2.0912 H   0  0  0  0  0  0  0  0  0  0  0  0
   -1.2114    3.4870   -0.1134 H   0  0  0  0  0  0  0  0  0  0  0  0
    5.9127    0.2690    0.6134 H   0  0  0  0  0  0  0  0  0  0  0  0
    6.7307   -1.8473   -0.3741 H   0  0  0  0  0  0  0  0  0  0  0  0
    5.1912   -3.2858   -1.6768 H   0  0  0  0  0  0  0  0  0  0  0  0
    2.8560   -2.6527   -2.0065 H   0  0  0  0  0  0  0  0  0  0  0  0
    1.3260   -1.3979   -2.6452 H   0  0  0  0  0  0  0  0  0  0  0  0
  1  2  1  0
  2  3  1  0
  3  4  1  0
  4  5  2  0
  4  6  1  0
  6  7  1  0
  7  8  2  0
  7  9  1  0
  9 10  1  0
 10 11  1  0
  6 12  2  3
 12 13  1  0
 13 14  2  0
 14 15  1  0
 14 16  1  0
 16 17  2  0
 17 18  1  0
 18 19  1  0
 19 20  1  0
 20 21  2  0
 21 22  1  0
 22 23  2  0
 23 24  1  0
 24 25  2  0
 25 26  1  0
 26 27  1  0
 26 28  2  0
 28 29  1  0
 28 12  1  0
 29 16  1  0
 29 19  2  0
 25 20  1  0
  1 30  1  0
  1 31  1  0
  1 32  1  0
  2 33  1  0
  2 34  1  0
 10 35  1  0
 10 36  1  0
 11 37  1  0
 11 38  1  0
 11 39  1  0
 13 40  1  0
 21 41  1  0
 22 42  1  0
 23 43  1  0
 24 44  1  0
 27 45  1  0
M  END
$$$$
