
     RDKit          3D

 35 36  0  0  0  0  0  0  0  0999 V2000
    4.5136   -1.3238    0.9263 C   0  0  0  0  0  0  0  0  0  0  0  0
    4.1595   -0.8566   -0.4745 C   0  0  0  0  0  0  0  0  0  0  0  0
    3.6850    0.5184   -0.4953 N   0  0  0  0  0  0  0  0  0  0  0  0
    4.6004    1.4911   -0.7144 N   0  0  0  0  0  0  0  0  0  0  0  0
    3.8866    2.6136   -0.6993 C   0  0  0  0  0  0  0  0  0  0  0  0
    2.5286    2.3592   -0.4812 C   0  0  0  0  0  0  0  0  0  0  0  0
    1.2562    3.7332   -0.3830 Br  0  0  0  0  0  0  0  0  0  0  0  0
    2.3899    0.9883   -0.3502 C   0  0  0  0  0  0  0  0  0  0  0  0
    1.2366    0.1374   -0.0999 C   0  0  0  0  0  0  0  0  0  0  0  0
    1.3668   -1.0411    0.2123 O   0  0  0  0  0  0  0  0  0  0  0  0
    0.0152    0.7642   -0.2572 N   0  0  0  0  0  0  0  0  0  0  0  0
   -1.2779    0.2258   -0.0863 C   0  0  0  0  0  0  0  0  0  0  0  0
   -1.5388   -1.0918    0.2931 C   0  0  0  0  0  0  0  0  0  0  0  0
   -2.8571   -1.5460    0.4571 C   0  0  0  0  0  0  0  0  0  0  0  0
   -3.1193   -2.9730    0.8418 C   0  0  0  0  0  0  0  0  0  0  0  0
   -3.9218   -0.6730    0.2071 C   0  0  0  0  0  0  0  0  0  0  0  0
   -3.6819    0.6465   -0.1881 C   0  0  0  0  0  0  0  0  0  0  0  0
   -4.8252    1.5913   -0.4137 C   0  0  0  0  0  0  0  0  0  0  0  0
   -2.3582    1.0895   -0.3167 C   0  0  0  0  0  0  0  0  0  0  0  0
    5.3060   -0.7029    1.3579 H   0  0  0  0  0  0  0  0  0  0  0  0
    3.6515   -1.2730    1.5986 H   0  0  0  0  0  0  0  0  0  0  0  0
    4.8677   -2.3590    0.9025 H   0  0  0  0  0  0  0  0  0  0  0  0
    5.0469   -0.9051   -1.1174 H   0  0  0  0  0  0  0  0  0  0  0  0
    3.4056   -1.4964   -0.9408 H   0  0  0  0  0  0  0  0  0  0  0  0
    4.3922    3.5595   -0.8459 H   0  0  0  0  0  0  0  0  0  0  0  0
    0.0455    1.7366   -0.5322 H   0  0  0  0  0  0  0  0  0  0  0  0
   -0.7325   -1.7950    0.4759 H   0  0  0  0  0  0  0  0  0  0  0  0
   -2.3357   -3.3472    1.5090 H   0  0  0  0  0  0  0  0  0  0  0  0
   -4.0709   -3.0666    1.3755 H   0  0  0  0  0  0  0  0  0  0  0  0
   -3.1534   -3.6011   -0.0536 H   0  0  0  0  0  0  0  0  0  0  0  0
   -4.9453   -1.0251    0.3221 H   0  0  0  0  0  0  0  0  0  0  0  0
   -5.7111    1.0554   -0.7703 H   0  0  0  0  0  0  0  0  0  0  0  0
   -5.0746    2.1059    0.5193 H   0  0  0  0  0  0  0  0  0  0  0  0
   -4.5706    2.3378   -1.1733 H   0  0  0  0  0  0  0  0  0  0  0  0
   -2.1793    2.1229   -0.6053 H   0  0  0  0  0  0  0  0  0  0  0  0
  1  2  1  0
  2  3  1  0
  3  4  1  0
  4  5  2  0
  5  6  1  0
  6  7  1  0
  6  8  2  0
  8  9  1  0
  9 10  2  0
  9 11  1  0
 11 12  1  0
 12 13  2  0
 13 14  1  0
 14 15  1  0
 14 16  2  0
 16 17  1  0
 17 18  1  0
 17 19  2  0
  8  3  1  0
 19 12  1  0
  1 20  1  0
  1 21  1  0
  1 22  1  0
  2 23  1  0
  2 24  1  0
  5 25  1  0
 11 26  1  0
 13 27  1  0
 15 28  1  0
 15 29  1  0
 15 30  1  0
 16 31  1  0
 18 32  1  0
 18 33  1  0
 18 34  1  0
 19 35  1  0
M  END
$$$$
