
     RDKit          3D

 40 42  0  0  0  0  0  0  0  0999 V2000
   -5.3829    1.7697    1.1617 C   0  0  0  0  0  0  0  0  0  0  0  0
   -4.3257    0.6838    0.9742 C   0  0  0  0  0  0  0  0  0  0  0  0
   -2.9146    1.2998    0.8966 C   0  0  0  0  0  0  0  0  0  0  0  0
   -1.8221    0.2213    0.8124 C   0  0  0  0  0  0  0  0  0  0  0  0
   -2.1647   -0.8651   -0.1711 C   0  0  0  0  0  0  0  0  0  0  0  0
   -1.2890   -1.8967   -0.6848 C   0  0  0  0  0  0  0  0  0  0  0  0
    0.1459   -2.0829   -0.4395 C   0  0  0  0  0  0  0  0  0  0  0  0
    0.5993   -3.1894   -0.1763 O   0  0  0  0  0  0  0  0  0  0  0  0
    0.8721   -0.9205   -0.6072 N   0  0  0  0  0  0  0  0  0  0  0  0
    2.2539   -0.7317   -0.4141 C   0  0  0  0  0  0  0  0  0  0  0  0
    2.7802    0.5245   -0.7375 C   0  0  0  0  0  0  0  0  0  0  0  0
    4.1437    0.8018   -0.5692 C   0  0  0  0  0  0  0  0  0  0  0  0
    5.0010   -0.1766   -0.0704 C   0  0  0  0  0  0  0  0  0  0  0  0
    6.3424   -0.0514    0.1461 O   0  0  0  0  0  0  0  0  0  0  0  0
    6.9485    1.1917   -0.1604 C   0  0  0  0  0  0  0  0  0  0  0  0
    6.4191    2.1884    0.5816 F   0  0  0  0  0  0  0  0  0  0  0  0
    8.2677    1.1139    0.1222 F   0  0  0  0  0  0  0  0  0  0  0  0
    6.8172    1.4888   -1.4712 F   0  0  0  0  0  0  0  0  0  0  0  0
    4.4753   -1.4287    0.2558 C   0  0  0  0  0  0  0  0  0  0  0  0
    3.1134   -1.7064    0.0877 C   0  0  0  0  0  0  0  0  0  0  0  0
   -1.9975   -2.7994   -1.4607 C   0  0  0  0  0  0  0  0  0  0  0  0
   -3.6419   -2.3835   -1.6401 S   0  0  0  0  0  0  0  0  0  0  0  0
   -3.4621   -1.0336   -0.6246 C   0  0  0  0  0  0  0  0  0  0  0  0
   -4.6263   -0.1504   -0.2885 C   0  0  0  0  0  0  0  0  0  0  0  0
   -5.1988    2.3354    2.0810 H   0  0  0  0  0  0  0  0  0  0  0  0
   -5.3823    2.4757    0.3244 H   0  0  0  0  0  0  0  0  0  0  0  0
   -6.3828    1.3290    1.2337 H   0  0  0  0  0  0  0  0  0  0  0  0
   -4.3612    0.0206    1.8496 H   0  0  0  0  0  0  0  0  0  0  0  0
   -2.7248    1.9324    1.7719 H   0  0  0  0  0  0  0  0  0  0  0  0
   -2.8496    1.9508    0.0144 H   0  0  0  0  0  0  0  0  0  0  0  0
   -1.6925   -0.2390    1.7999 H   0  0  0  0  0  0  0  0  0  0  0  0
   -0.8780    0.7089    0.5551 H   0  0  0  0  0  0  0  0  0  0  0  0
    0.3591   -0.1337   -0.9812 H   0  0  0  0  0  0  0  0  0  0  0  0
    2.1392    1.3106   -1.1298 H   0  0  0  0  0  0  0  0  0  0  0  0
    4.4916    1.7942   -0.8412 H   0  0  0  0  0  0  0  0  0  0  0  0
    5.1276   -2.2064    0.6482 H   0  0  0  0  0  0  0  0  0  0  0  0
    2.7615   -2.6957    0.3641 H   0  0  0  0  0  0  0  0  0  0  0  0
   -1.6108   -3.6858   -1.9471 H   0  0  0  0  0  0  0  0  0  0  0  0
   -5.5326   -0.7456   -0.1240 H   0  0  0  0  0  0  0  0  0  0  0  0
   -4.8184    0.5128   -1.1418 H   0  0  0  0  0  0  0  0  0  0  0  0
  1  2  1  0
  2  3  1  0
  3  4  1  0
  4  5  1  0
  5  6  1  0
  6  7  1  0
  7  8  2  0
  7  9  1  0
  9 10  1  0
 10 11  2  0
 11 12  1  0
 12 13  2  0
 13 14  1  0
 14 15  1  0
 15 16  1  0
 15 17  1  0
 15 18  1  0
 13 19  1  0
 19 20  2  0
  6 21  2  0
 21 22  1  0
 22 23  1  0
 23 24  1  0
 24  2  1  0
 23  5  2  0
 20 10  1  0
  1 25  1  0
  1 26  1  0
  1 27  1  0
  2 28  1  0
  3 29  1  0
  3 30  1  0
  4 31  1  0
  4 32  1  0
  9 33  1  0
 11 34  1  0
 12 35  1  0
 19 36  1  0
 20 37  1  0
 21 38  1  0
 24 39  1  0
 24 40  1  0
M  END
$$$$
