
     RDKit          3D

 55 56  0  0  0  0  0  0  0  0999 V2000
   -1.3430    2.0378    2.9200 C   0  0  0  0  0  0  0  0  0  0  0  0
   -1.3808    1.7800    1.4589 C   0  0  0  0  0  0  0  0  0  0  0  0
   -0.4908    2.2193    0.4991 C   0  0  0  0  0  0  0  0  0  0  0  0
   -0.9623    1.7209   -0.7303 C   0  0  0  0  0  0  0  0  0  0  0  0
   -0.3676    1.8961   -2.0589 C   0  0  0  0  0  0  0  0  0  0  0  0
    0.6853    2.4965   -2.2692 O   0  0  0  0  0  0  0  0  0  0  0  0
   -1.0990    1.2788   -3.0629 N   0  0  0  0  0  0  0  0  0  0  0  0
   -0.3658    0.9184   -4.3439 N   0  0  0  0  0  0  0  0  0  0  0  0
    0.2012   -0.6896   -4.4814 S   0  0  0  0  0  6  0  0  0  0  0  0
   -0.9496   -1.5633   -4.3928 O   0  0  0  0  0  0  0  0  0  0  0  0
    1.1156   -0.7340   -5.6005 O   0  0  0  0  0  0  0  0  0  0  0  0
    1.1527   -0.8845   -2.9922 C   0  0  0  0  0  0  0  0  0  0  0  0
    0.6100   -1.5539   -1.8965 C   0  0  0  0  0  0  0  0  0  0  0  0
    1.3461   -1.6435   -0.7115 C   0  0  0  0  0  0  0  0  0  0  0  0
    2.6303   -1.0718   -0.5974 C   0  0  0  0  0  0  0  0  0  0  0  0
    3.3898   -1.1399    0.7407 C   0  0  0  0  0  0  0  0  0  0  0  0
    3.6830   -2.6131    1.0933 C   0  0  0  0  0  0  0  0  0  0  0  0
    2.5319   -0.5068    1.8610 C   0  0  0  0  0  0  0  0  0  0  0  0
    4.7410   -0.3892    0.7300 C   0  0  0  0  0  0  0  0  0  0  0  0
    3.1653   -0.4442   -1.7371 C   0  0  0  0  0  0  0  0  0  0  0  0
    2.4381   -0.3512   -2.9271 C   0  0  0  0  0  0  0  0  0  0  0  0
   -2.0729    0.9883   -0.5513 N   0  0  0  0  0  0  0  0  0  0  0  0
   -2.3420    1.0569    0.7767 N   0  0  0  0  0  0  0  0  0  0  0  0
   -3.5288    0.3334    1.2875 C   0  0  0  0  0  0  0  0  0  0  0  0
   -4.4672   -0.0915    0.1239 C   0  0  0  0  0  0  0  0  0  0  0  0
   -4.3772    1.2126    2.2307 C   0  0  0  0  0  0  0  0  0  0  0  0
   -3.0807   -0.9482    2.0149 C   0  0  0  0  0  0  0  0  0  0  0  0
   -1.4829    1.1262    3.5036 H   0  0  0  0  0  0  0  0  0  0  0  0
   -2.1071    2.7713    3.2000 H   0  0  0  0  0  0  0  0  0  0  0  0
   -0.3715    2.4576    3.2113 H   0  0  0  0  0  0  0  0  0  0  0  0
    0.3924    2.8235    0.6586 H   0  0  0  0  0  0  0  0  0  0  0  0
   -1.8363    0.6400   -2.7536 H   0  0  0  0  0  0  0  0  0  0  0  0
    0.3544    1.5935   -4.6279 H   0  0  0  0  0  0  0  0  0  0  0  0
   -0.3857   -1.9889   -1.9438 H   0  0  0  0  0  0  0  0  0  0  0  0
    0.8936   -2.1608    0.1317 H   0  0  0  0  0  0  0  0  0  0  0  0
    4.2638   -3.1001    0.3009 H   0  0  0  0  0  0  0  0  0  0  0  0
    4.2584   -2.6904    2.0228 H   0  0  0  0  0  0  0  0  0  0  0  0
    2.7657   -3.1947    1.2333 H   0  0  0  0  0  0  0  0  0  0  0  0
    1.6010   -1.0570    2.0343 H   0  0  0  0  0  0  0  0  0  0  0  0
    2.2617    0.5271    1.6131 H   0  0  0  0  0  0  0  0  0  0  0  0
    3.0734   -0.4911    2.8136 H   0  0  0  0  0  0  0  0  0  0  0  0
    4.6102    0.6693    0.4791 H   0  0  0  0  0  0  0  0  0  0  0  0
    5.2265   -0.4303    1.7117 H   0  0  0  0  0  0  0  0  0  0  0  0
    5.4396   -0.8241    0.0071 H   0  0  0  0  0  0  0  0  0  0  0  0
    4.1556    0.0025   -1.7254 H   0  0  0  0  0  0  0  0  0  0  0  0
    2.8746    0.1567   -3.7848 H   0  0  0  0  0  0  0  0  0  0  0  0
   -4.7980    0.7790   -0.4591 H   0  0  0  0  0  0  0  0  0  0  0  0
   -5.3644   -0.5927    0.5029 H   0  0  0  0  0  0  0  0  0  0  0  0
   -3.9768   -0.7914   -0.5650 H   0  0  0  0  0  0  0  0  0  0  0  0
   -5.3338    0.7329    2.4627 H   0  0  0  0  0  0  0  0  0  0  0  0
   -3.8874    1.3894    3.1949 H   0  0  0  0  0  0  0  0  0  0  0  0
   -4.5952    2.1849    1.7742 H   0  0  0  0  0  0  0  0  0  0  0  0
   -2.4336   -1.5637    1.3780 H   0  0  0  0  0  0  0  0  0  0  0  0
   -3.9429   -1.5584    2.3083 H   0  0  0  0  0  0  0  0  0  0  0  0
   -2.5175   -0.7242    2.9281 H   0  0  0  0  0  0  0  0  0  0  0  0
  1  2  1  0
  2  3  2  0
  3  4  1  0
  4  5  1  0
  5  6  2  0
  5  7  1  0
  7  8  1  0
  8  9  1  0
  9 10  2  0
  9 11  2  0
  9 12  1  0
 12 13  2  0
 13 14  1  0
 14 15  2  0
 15 16  1  0
 16 17  1  0
 16 18  1  0
 16 19  1  0
 15 20  1  0
 20 21  2  0
  4 22  2  0
 22 23  1  0
 23 24  1  0
 24 25  1  0
 24 26  1  0
 24 27  1  0
 23  2  1  0
 21 12  1  0
  1 28  1  0
  1 29  1  0
  1 30  1  0
  3 31  1  0
  7 32  1  0
  8 33  1  0
 13 34  1  0
 14 35  1  0
 17 36  1  0
 17 37  1  0
 17 38  1  0
 18 39  1  0
 18 40  1  0
 18 41  1  0
 19 42  1  0
 19 43  1  0
 19 44  1  0
 20 45  1  0
 21 46  1  0
 25 47  1  0
 25 48  1  0
 25 49  1  0
 26 50  1  0
 26 51  1  0
 26 52  1  0
 27 53  1  0
 27 54  1  0
 27 55  1  0
M  END
$$$$
