
     RDKit          3D

 62 65  0  0  0  0  0  0  0  0999 V2000
    9.5555   -1.4721   -2.8093 C   0  0  0  0  0  0  0  0  0  0  0  0
    9.2334   -1.7960   -1.3633 C   0  0  0  0  0  0  0  0  0  0  0  0
    7.8379   -1.5482   -1.1514 O   0  0  0  0  0  0  0  0  0  0  0  0
    7.4051   -1.8213    0.1093 C   0  0  0  0  0  0  0  0  0  0  0  0
    8.1287   -2.2436    1.0029 O   0  0  0  0  0  0  0  0  0  0  0  0
    6.0562   -1.5744    0.2633 N   0  0  0  0  0  0  0  0  0  0  0  0
    5.4097   -1.8987    1.5332 C   0  0  0  0  0  0  0  0  0  0  0  0
    3.9208   -2.2221    1.3672 C   0  0  0  0  0  0  0  0  0  0  0  0
    3.1860   -1.1645    0.6607 N   0  0  0  0  0  0  0  0  0  0  0  0
    1.8420   -0.9710    0.9709 C   0  0  0  0  0  0  0  0  0  0  0  0
    1.2578   -1.7040    1.7699 O   0  0  0  0  0  0  0  0  0  0  0  0
    1.1252    0.1980    0.2701 C   0  0  0  0  0  0  0  0  0  0  0  0
   -0.2011    0.4592    0.7040 O   0  0  0  0  0  0  0  0  0  0  0  0
   -1.2273   -0.2951    0.1999 C   0  0  0  0  0  0  0  0  0  0  0  0
   -1.0707   -1.4025   -0.6406 C   0  0  0  0  0  0  0  0  0  0  0  0
   -2.1832   -2.1184   -1.0892 C   0  0  0  0  0  0  0  0  0  0  0  0
   -3.4626   -1.7411   -0.6921 C   0  0  0  0  0  0  0  0  0  0  0  0
   -3.6354   -0.6395    0.1523 C   0  0  0  0  0  0  0  0  0  0  0  0
   -2.5205    0.0970    0.5935 C   0  0  0  0  0  0  0  0  0  0  0  0
   -2.7388    1.2445    1.5454 C   0  0  0  0  0  0  0  0  0  0  0  0
   -4.0915    1.8959    1.2917 C   0  0  0  0  0  0  0  0  0  0  0  0
   -5.1709    0.9183    1.2809 N   0  0  0  0  0  0  0  0  0  0  0  0
   -6.5135    1.3735    1.6262 C   0  0  0  0  0  0  0  0  0  0  0  0
   -7.1183    2.2729    0.5799 C   0  0  0  0  0  0  0  0  0  0  0  0
   -7.6776    1.7409   -0.5911 C   0  0  0  0  0  0  0  0  0  0  0  0
   -8.2263    2.5829   -1.5618 C   0  0  0  0  0  0  0  0  0  0  0  0
   -8.2225    3.9649   -1.3739 C   0  0  0  0  0  0  0  0  0  0  0  0
   -7.6651    4.5052   -0.2167 C   0  0  0  0  0  0  0  0  0  0  0  0
   -7.1173    3.6596    0.7447 C   0  0  0  0  0  0  0  0  0  0  0  0
   -6.5736    4.2028    1.8434 F   0  0  0  0  0  0  0  0  0  0  0  0
   -5.0166   -0.2828    0.5942 C   0  0  0  0  0  0  0  0  0  0  0  0
   -5.9481   -1.0442    0.3472 O   0  0  0  0  0  0  0  0  0  0  0  0
    3.9545   -0.3454   -0.2850 C   0  0  0  0  0  0  0  0  0  0  0  0
    5.2134   -1.0501   -0.8098 C   0  0  0  0  0  0  0  0  0  0  0  0
    9.3130   -0.4285   -3.0347 H   0  0  0  0  0  0  0  0  0  0  0  0
    8.9558   -2.0910   -3.4852 H   0  0  0  0  0  0  0  0  0  0  0  0
   10.6148   -1.6429   -3.0210 H   0  0  0  0  0  0  0  0  0  0  0  0
    9.8275   -1.1570   -0.6995 H   0  0  0  0  0  0  0  0  0  0  0  0
    9.4591   -2.8496   -1.1627 H   0  0  0  0  0  0  0  0  0  0  0  0
    5.5305   -1.0200    2.1783 H   0  0  0  0  0  0  0  0  0  0  0  0
    5.9249   -2.7369    2.0149 H   0  0  0  0  0  0  0  0  0  0  0  0
    3.8006   -3.1340    0.7695 H   0  0  0  0  0  0  0  0  0  0  0  0
    3.4728   -2.4078    2.3490 H   0  0  0  0  0  0  0  0  0  0  0  0
    1.1597    0.0756   -0.8177 H   0  0  0  0  0  0  0  0  0  0  0  0
    1.6966    1.1034    0.5054 H   0  0  0  0  0  0  0  0  0  0  0  0
   -0.0938   -1.7581   -0.9489 H   0  0  0  0  0  0  0  0  0  0  0  0
   -2.0493   -2.9846   -1.7332 H   0  0  0  0  0  0  0  0  0  0  0  0
   -4.3232   -2.3150   -1.0293 H   0  0  0  0  0  0  0  0  0  0  0  0
   -1.9635    2.0102    1.4352 H   0  0  0  0  0  0  0  0  0  0  0  0
   -2.6897    0.8562    2.5698 H   0  0  0  0  0  0  0  0  0  0  0  0
   -4.2852    2.6393    2.0729 H   0  0  0  0  0  0  0  0  0  0  0  0
   -4.0965    2.4053    0.3199 H   0  0  0  0  0  0  0  0  0  0  0  0
   -6.4582    1.8822    2.5962 H   0  0  0  0  0  0  0  0  0  0  0  0
   -7.1722    0.5098    1.7797 H   0  0  0  0  0  0  0  0  0  0  0  0
   -7.6852    0.6635   -0.7504 H   0  0  0  0  0  0  0  0  0  0  0  0
   -8.6560    2.1567   -2.4658 H   0  0  0  0  0  0  0  0  0  0  0  0
   -8.6506    4.6179   -2.1294 H   0  0  0  0  0  0  0  0  0  0  0  0
   -7.6523    5.5786   -0.0566 H   0  0  0  0  0  0  0  0  0  0  0  0
    4.2373    0.5671    0.2536 H   0  0  0  0  0  0  0  0  0  0  0  0
    3.3228   -0.0521   -1.1277 H   0  0  0  0  0  0  0  0  0  0  0  0
    4.9281   -1.9082   -1.4301 H   0  0  0  0  0  0  0  0  0  0  0  0
    5.7869   -0.3609   -1.4383 H   0  0  0  0  0  0  0  0  0  0  0  0
  1  2  1  0
  2  3  1  0
  3  4  1  0
  4  5  2  0
  4  6  1  0
  6  7  1  0
  7  8  1  0
  8  9  1  0
  9 10  1  0
 10 11  2  0
 10 12  1  0
 12 13  1  0
 13 14  1  0
 14 15  2  0
 15 16  1  0
 16 17  2  0
 17 18  1  0
 18 19  2  0
 19 20  1  0
 20 21  1  0
 21 22  1  0
 22 23  1  0
 23 24  1  0
 24 25  2  0
 25 26  1  0
 26 27  2  0
 27 28  1  0
 28 29  2  0
 29 30  1  0
 22 31  1  0
 31 32  2  0
  9 33  1  0
 33 34  1  0
 34  6  1  0
 19 14  1  0
 29 24  1  0
 31 18  1  0
  1 35  1  0
  1 36  1  0
  1 37  1  0
  2 38  1  0
  2 39  1  0
  7 40  1  0
  7 41  1  0
  8 42  1  0
  8 43  1  0
 12 44  1  0
 12 45  1  0
 15 46  1  0
 16 47  1  0
 17 48  1  0
 20 49  1  0
 20 50  1  0
 21 51  1  0
 21 52  1  0
 23 53  1  0
 23 54  1  0
 25 55  1  0
 26 56  1  0
 27 57  1  0
 28 58  1  0
 33 59  1  0
 33 60  1  0
 34 61  1  0
 34 62  1  0
M  END
$$$$
