
     RDKit          3D

 39 41  0  0  0  0  0  0  0  0999 V2000
    0.2474    1.7028   -1.1967 O   0  0  0  0  0  0  0  0  0  0  0  0
    0.0560    0.6015   -0.6889 C   0  0  0  0  0  0  0  0  0  0  0  0
    1.0822   -0.2586   -0.3703 N   0  0  0  0  0  0  0  0  0  0  0  0
    2.4812    0.1232   -0.4629 C   0  0  0  0  0  0  0  0  0  0  0  0
    2.9045    0.9339    0.7694 C   0  0  0  0  0  0  0  0  0  0  0  0
    4.3896    1.2850    0.7306 C   0  0  0  0  0  0  0  0  0  0  0  0
    5.2582    0.0429    0.5565 C   0  0  0  0  0  0  0  0  0  0  0  0
    4.8422   -0.7664   -0.6682 C   0  0  0  0  0  0  0  0  0  0  0  0
    3.3586   -1.1223   -0.6288 C   0  0  0  0  0  0  0  0  0  0  0  0
   -1.3387    0.1408   -0.3899 C   0  0  0  0  0  0  0  0  0  0  0  0
   -2.3870    0.9625   -0.8384 C   0  0  0  0  0  0  0  0  0  0  0  0
   -3.7318    0.6258   -0.6132 C   0  0  0  0  0  0  0  0  0  0  0  0
   -4.7761    1.4486   -1.0647 C   0  0  0  0  0  0  0  0  0  0  0  0
   -6.1080    1.1018   -0.8345 C   0  0  0  0  0  0  0  0  0  0  0  0
   -6.4125   -0.0710   -0.1505 C   0  0  0  0  0  0  0  0  0  0  0  0
   -5.3856   -0.8994    0.3050 C   0  0  0  0  0  0  0  0  0  0  0  0
   -4.0397   -0.5644    0.0812 C   0  0  0  0  0  0  0  0  0  0  0  0
   -2.9947   -1.3858    0.5335 C   0  0  0  0  0  0  0  0  0  0  0  0
   -1.6591   -1.0361    0.3016 C   0  0  0  0  0  0  0  0  0  0  0  0
   -0.6751   -1.8688    0.7735 O   0  0  0  0  0  0  0  0  0  0  0  0
    0.8319   -1.0841    0.1683 H   0  0  0  0  0  0  0  0  0  0  0  0
    2.5969    0.7562   -1.3523 H   0  0  0  0  0  0  0  0  0  0  0  0
    2.3152    1.8563    0.8376 H   0  0  0  0  0  0  0  0  0  0  0  0
    2.6894    0.3621    1.6817 H   0  0  0  0  0  0  0  0  0  0  0  0
    4.6697    1.8039    1.6542 H   0  0  0  0  0  0  0  0  0  0  0  0
    4.5777    1.9807   -0.0964 H   0  0  0  0  0  0  0  0  0  0  0  0
    5.1799   -0.5853    1.4524 H   0  0  0  0  0  0  0  0  0  0  0  0
    6.3095    0.3379    0.4640 H   0  0  0  0  0  0  0  0  0  0  0  0
    5.0550   -0.1897   -1.5767 H   0  0  0  0  0  0  0  0  0  0  0  0
    5.4398   -1.6832   -0.7245 H   0  0  0  0  0  0  0  0  0  0  0  0
    3.1753   -1.8219    0.1975 H   0  0  0  0  0  0  0  0  0  0  0  0
    3.0843   -1.6524   -1.5491 H   0  0  0  0  0  0  0  0  0  0  0  0
   -2.1482    1.8806   -1.3748 H   0  0  0  0  0  0  0  0  0  0  0  0
   -4.5576    2.3698   -1.6014 H   0  0  0  0  0  0  0  0  0  0  0  0
   -6.9061    1.7487   -1.1900 H   0  0  0  0  0  0  0  0  0  0  0  0
   -7.4499   -0.3416    0.0292 H   0  0  0  0  0  0  0  0  0  0  0  0
   -5.6471   -1.8111    0.8376 H   0  0  0  0  0  0  0  0  0  0  0  0
   -3.2361   -2.2998    1.0697 H   0  0  0  0  0  0  0  0  0  0  0  0
   -1.0908   -2.6230    1.2272 H   0  0  0  0  0  0  0  0  0  0  0  0
  1  2  2  0
  2  3  1  0
  3  4  1  0
  4  5  1  0
  5  6  1  0
  6  7  1  0
  7  8  1  0
  8  9  1  0
  2 10  1  0
 10 11  2  0
 11 12  1  0
 12 13  2  0
 13 14  1  0
 14 15  2  0
 15 16  1  0
 16 17  2  0
 17 18  1  0
 18 19  2  0
 19 20  1  0
  9  4  1  0
 19 10  1  0
 17 12  1  0
  3 21  1  0
  4 22  1  0
  5 23  1  0
  5 24  1  0
  6 25  1  0
  6 26  1  0
  7 27  1  0
  7 28  1  0
  8 29  1  0
  8 30  1  0
  9 31  1  0
  9 32  1  0
 11 33  1  0
 13 34  1  0
 14 35  1  0
 15 36  1  0
 16 37  1  0
 18 38  1  0
 20 39  1  0
M  END
$$$$
