
     RDKit          3D

 49 52  0  0  0  0  0  0  0  0999 V2000
    1.8176    0.5964    0.2181 O   0  0  0  0  0  0  0  0  0  0  0  0
    2.5128    0.7633   -0.7825 C   0  0  0  0  0  0  0  0  0  0  0  0
    1.9430    1.3435   -2.0760 C   0  0  0  0  0  0  0  0  0  0  0  0
    0.5096    0.3749   -2.6288 S   0  0  0  0  0  0  0  0  0  0  0  0
   -0.6989    1.0906   -1.6235 C   0  0  0  0  0  0  0  0  0  0  0  0
   -1.1310    2.3223   -1.7428 N   0  0  0  0  0  0  0  0  0  0  0  0
   -1.9661    2.5691   -0.6843 N   0  0  0  0  0  0  0  0  0  0  0  0
   -1.9941    1.4959    0.0864 C   0  0  0  0  0  0  0  0  0  0  0  0
   -2.6889    1.4182    1.3659 C   0  0  0  0  0  0  0  0  0  0  0  0
   -2.0141    1.0803    2.5402 C   0  0  0  0  0  0  0  0  0  0  0  0
   -2.7330    1.0362    3.7224 C   0  0  0  0  0  0  0  0  0  0  0  0
   -4.0520    1.3082    3.8081 N   0  0  0  0  0  0  0  0  0  0  0  0
   -4.6749    1.6716    2.6668 C   0  0  0  0  0  0  0  0  0  0  0  0
   -4.0436    1.7450    1.4377 C   0  0  0  0  0  0  0  0  0  0  0  0
   -1.2865    0.4873   -0.5436 N   0  0  0  0  0  0  0  0  0  0  0  0
   -1.1620   -0.8947   -0.1281 C   0  0  0  0  0  0  0  0  0  0  0  0
   -2.1281   -1.8879   -0.7967 C   0  0  0  0  0  0  0  0  0  0  0  0
   -3.6140   -1.5925   -0.6518 C   0  0  0  0  0  0  0  0  0  0  0  0
   -3.9804   -0.9738   -1.9774 C   0  0  0  0  0  0  0  0  0  0  0  0
   -3.0620   -1.7020   -2.9316 C   0  0  0  0  0  0  0  0  0  0  0  0
   -1.8592   -1.9884   -2.2051 O   0  0  0  0  0  0  0  0  0  0  0  0
    3.8625    0.4649   -0.8788 N   0  0  0  0  0  0  0  0  0  0  0  0
    4.7172   -0.0670    0.1186 C   0  0  0  0  0  0  0  0  0  0  0  0
    4.2973   -0.3586    1.4189 C   0  0  0  0  0  0  0  0  0  0  0  0
    5.1947   -0.8826    2.3569 C   0  0  0  0  0  0  0  0  0  0  0  0
    6.5224   -1.1199    2.0088 C   0  0  0  0  0  0  0  0  0  0  0  0
    6.9594   -0.8337    0.7181 C   0  0  0  0  0  0  0  0  0  0  0  0
    6.0634   -0.3111   -0.2182 C   0  0  0  0  0  0  0  0  0  0  0  0
    6.6571    0.0294   -1.8101 Cl  0  0  0  0  0  0  0  0  0  0  0  0
    1.6868    2.3948   -1.9098 H   0  0  0  0  0  0  0  0  0  0  0  0
    2.6875    1.3109   -2.8773 H   0  0  0  0  0  0  0  0  0  0  0  0
   -0.9480    0.8766    2.5452 H   0  0  0  0  0  0  0  0  0  0  0  0
   -2.2514    0.7794    4.6620 H   0  0  0  0  0  0  0  0  0  0  0  0
   -5.7287    1.9147    2.7700 H   0  0  0  0  0  0  0  0  0  0  0  0
   -4.5944    2.0551    0.5551 H   0  0  0  0  0  0  0  0  0  0  0  0
   -0.1303   -1.2049   -0.3259 H   0  0  0  0  0  0  0  0  0  0  0  0
   -1.2906   -0.9451    0.9556 H   0  0  0  0  0  0  0  0  0  0  0  0
   -1.9197   -2.8741   -0.3639 H   0  0  0  0  0  0  0  0  0  0  0  0
   -4.1576   -2.5400   -0.5437 H   0  0  0  0  0  0  0  0  0  0  0  0
   -3.8716   -0.9804    0.2135 H   0  0  0  0  0  0  0  0  0  0  0  0
   -5.0365   -1.0897   -2.2350 H   0  0  0  0  0  0  0  0  0  0  0  0
   -3.7508    0.0965   -1.9753 H   0  0  0  0  0  0  0  0  0  0  0  0
   -2.8240   -1.1122   -3.8212 H   0  0  0  0  0  0  0  0  0  0  0  0
   -3.4968   -2.6558   -3.2496 H   0  0  0  0  0  0  0  0  0  0  0  0
    4.3213    0.6257   -1.7708 H   0  0  0  0  0  0  0  0  0  0  0  0
    3.2756   -0.1890    1.7425 H   0  0  0  0  0  0  0  0  0  0  0  0
    4.8507   -1.1027    3.3654 H   0  0  0  0  0  0  0  0  0  0  0  0
    7.2142   -1.5264    2.7426 H   0  0  0  0  0  0  0  0  0  0  0  0
    7.9959   -1.0179    0.4482 H   0  0  0  0  0  0  0  0  0  0  0  0
  1  2  2  0
  2  3  1  0
  3  4  1  0
  4  5  1  0
  5  6  2  0
  6  7  1  0
  7  8  2  0
  8  9  1  0
  9 10  2  0
 10 11  1  0
 11 12  2  0
 12 13  1  0
 13 14  2  0
  8 15  1  0
 15 16  1  0
 16 17  1  0
 17 18  1  0
 18 19  1  0
 19 20  1  0
 20 21  1  0
  2 22  1  0
 22 23  1  0
 23 24  2  0
 24 25  1  0
 25 26  2  0
 26 27  1  0
 27 28  2  0
 28 29  1  0
 15  5  1  0
 21 17  1  0
 28 23  1  0
 14  9  1  0
  3 30  1  0
  3 31  1  0
 10 32  1  0
 11 33  1  0
 13 34  1  0
 14 35  1  0
 16 36  1  0
 16 37  1  0
 17 38  1  0
 18 39  1  0
 18 40  1  0
 19 41  1  0
 19 42  1  0
 20 43  1  0
 20 44  1  0
 22 45  1  0
 24 46  1  0
 25 47  1  0
 26 48  1  0
 27 49  1  0
M  END
$$$$
