
     RDKit          3D

 54 58  0  0  0  0  0  0  0  0999 V2000
   -5.2477    0.9664    4.4144 O   0  0  0  0  0  0  0  0  0  0  0  0
   -4.2866    1.5313    3.9262 C   0  0  0  0  0  0  0  0  0  0  0  0
   -3.8000    2.6670    4.4564 O   0  0  0  0  0  0  0  0  0  0  0  0
   -3.5344    1.0861    2.7289 C   0  0  0  0  0  0  0  0  0  0  0  0
   -3.9321   -0.0902    2.0911 C   0  0  0  0  0  0  0  0  0  0  0  0
   -3.2482   -0.5456    0.9557 C   0  0  0  0  0  0  0  0  0  0  0  0
   -2.1587    0.1614    0.4242 C   0  0  0  0  0  0  0  0  0  0  0  0
   -1.4607   -0.2996   -0.7380 N   0  0  0  0  0  0  0  0  0  0  0  0
   -0.0779   -0.0263   -0.9428 C   0  0  0  0  0  0  0  0  0  0  0  0
    0.6868    0.6367   -0.2667 O   0  0  0  0  0  0  0  0  0  0  0  0
    0.2574   -0.7614   -2.2186 C   0  0  0  0  0  0  0  0  0  0  0  0
    1.4117   -0.8786   -2.8905 C   0  0  0  0  0  0  0  0  0  0  0  0
    2.6666   -0.3602   -2.4760 C   0  0  0  0  0  0  0  0  0  0  0  0
    3.7450    0.0135   -3.2693 C   0  0  0  0  0  0  0  0  0  0  0  0
    4.7899    0.4410   -2.4137 C   0  0  0  0  0  0  0  0  0  0  0  0
    4.3174    0.3027   -1.1278 C   0  0  0  0  0  0  0  0  0  0  0  0
    4.8597    0.5617    0.2029 C   0  0  0  0  0  0  0  0  0  0  0  0
    6.2271    0.8280    0.3790 C   0  0  0  0  0  0  0  0  0  0  0  0
    6.7534    1.0797    1.6517 C   0  0  0  0  0  0  0  0  0  0  0  0
    5.9051    1.0682    2.7655 C   0  0  0  0  0  0  0  0  0  0  0  0
    6.4533    1.3311    4.1017 N   0  0  0  0  0  4  0  0  0  0  0  0
    7.6653    1.5773    4.1888 O   0  0  0  0  0  0  0  0  0  0  0  0
    5.6746    1.2914    5.0650 O   0  0  0  0  0  1  0  0  0  0  0  0
    4.5398    0.8087    2.6128 C   0  0  0  0  0  0  0  0  0  0  0  0
    4.0271    0.5584    1.3354 C   0  0  0  0  0  0  0  0  0  0  0  0
    3.0543   -0.2044   -1.1701 O   0  0  0  0  0  0  0  0  0  0  0  0
   -0.9745   -1.3615   -2.6747 C   0  0  0  0  0  0  0  0  0  0  0  0
   -1.9411   -1.0819   -1.7887 C   0  0  0  0  0  0  0  0  0  0  0  0
   -3.3351   -1.4530   -2.0387 C   0  0  0  0  0  0  0  0  0  0  0  0
   -4.3075   -0.4632   -2.2407 C   0  0  0  0  0  0  0  0  0  0  0  0
   -5.6346   -0.8163   -2.4930 C   0  0  0  0  0  0  0  0  0  0  0  0
   -5.9991   -2.1602   -2.5547 C   0  0  0  0  0  0  0  0  0  0  0  0
   -5.0387   -3.1529   -2.3672 C   0  0  0  0  0  0  0  0  0  0  0  0
   -3.7111   -2.8020   -2.1133 C   0  0  0  0  0  0  0  0  0  0  0  0
   -1.7670    1.3354    1.0875 C   0  0  0  0  0  0  0  0  0  0  0  0
   -2.4454    1.7977    2.2242 C   0  0  0  0  0  0  0  0  0  0  0  0
   -4.3795    2.8344    5.2287 H   0  0  0  0  0  0  0  0  0  0  0  0
   -4.7702   -0.6679    2.4767 H   0  0  0  0  0  0  0  0  0  0  0  0
   -3.5702   -1.4912    0.5314 H   0  0  0  0  0  0  0  0  0  0  0  0
    1.4139   -1.4171   -3.8346 H   0  0  0  0  0  0  0  0  0  0  0  0
    3.7664   -0.0108   -4.3502 H   0  0  0  0  0  0  0  0  0  0  0  0
    5.7613    0.8119   -2.7065 H   0  0  0  0  0  0  0  0  0  0  0  0
    6.9025    0.8370   -0.4737 H   0  0  0  0  0  0  0  0  0  0  0  0
    7.8181    1.2799    1.7537 H   0  0  0  0  0  0  0  0  0  0  0  0
    3.8618    0.7991    3.4637 H   0  0  0  0  0  0  0  0  0  0  0  0
    2.9586    0.3677    1.2272 H   0  0  0  0  0  0  0  0  0  0  0  0
   -1.0921   -1.9100   -3.5969 H   0  0  0  0  0  0  0  0  0  0  0  0
   -4.0375    0.5900   -2.1975 H   0  0  0  0  0  0  0  0  0  0  0  0
   -6.3833   -0.0421   -2.6409 H   0  0  0  0  0  0  0  0  0  0  0  0
   -7.0331   -2.4338   -2.7502 H   0  0  0  0  0  0  0  0  0  0  0  0
   -5.3243   -4.2008   -2.4169 H   0  0  0  0  0  0  0  0  0  0  0  0
   -2.9754   -3.5891   -1.9625 H   0  0  0  0  0  0  0  0  0  0  0  0
   -0.9408    1.9404    0.7212 H   0  0  0  0  0  0  0  0  0  0  0  0
   -2.1104    2.7163    2.7002 H   0  0  0  0  0  0  0  0  0  0  0  0
  1  2  2  0
  2  3  1  0
  2  4  1  0
  4  5  2  0
  5  6  1  0
  6  7  2  0
  7  8  1  0
  8  9  1  0
  9 10  2  0
  9 11  1  0
 11 12  2  3
 12 13  1  0
 13 14  2  0
 14 15  1  0
 15 16  2  0
 16 17  1  0
 17 18  2  0
 18 19  1  0
 19 20  2  0
 20 21  1  0
 21 22  2  0
 21 23  1  0
 20 24  1  0
 24 25  2  0
 16 26  1  0
 11 27  1  0
 27 28  2  0
 28 29  1  0
 29 30  2  0
 30 31  1  0
 31 32  2  0
 32 33  1  0
 33 34  2  0
  7 35  1  0
 35 36  2  0
 36  4  1  0
 28  8  1  0
 34 29  1  0
 26 13  1  0
 25 17  1  0
  3 37  1  0
  5 38  1  0
  6 39  1  0
 12 40  1  0
 14 41  1  0
 15 42  1  0
 18 43  1  0
 19 44  1  0
 24 45  1  0
 25 46  1  0
 27 47  1  0
 30 48  1  0
 31 49  1  0
 32 50  1  0
 33 51  1  0
 34 52  1  0
 35 53  1  0
 36 54  1  0
M  CHG  2  21   1  23  -1
M  END
$$$$
