
     RDKit          3D

 40 43  0  0  0  0  0  0  0  0999 V2000
   -0.7222    3.4708   -1.8882 C   0  0  0  0  0  0  0  0  0  0  0  0
   -0.3429    2.7200   -0.8451 C   0  0  0  0  0  0  0  0  0  0  0  0
   -1.0831    2.6529    0.4641 C   0  0  0  0  0  0  0  0  0  0  0  0
   -1.8277    1.3960    0.5342 N   0  0  0  0  0  0  0  0  0  0  0  0
   -1.2833    0.1997    0.9699 C   0  0  0  0  0  0  0  0  0  0  0  0
    0.3799    0.1758    1.5184 S   0  0  0  0  0  0  0  0  0  0  0  0
    0.9665   -1.2109    0.5001 C   0  0  0  0  0  0  0  0  0  0  0  0
    2.4760   -1.1705    0.4129 C   0  0  0  0  0  0  0  0  0  0  0  0
    3.2290   -2.0112    1.1426 C   0  0  0  0  0  0  0  0  0  0  0  0
    4.7021   -1.9512    1.0352 C   0  0  0  0  0  0  0  0  0  0  0  0
    5.3965   -2.7163    1.6978 O   0  0  0  0  0  0  0  0  0  0  0  0
    5.1670   -1.0033    0.1593 N   0  0  0  0  0  0  0  0  0  0  0  0
    6.4970   -0.7600   -0.1072 C   0  0  0  0  0  0  0  0  0  0  0  0
    6.7005    0.2085   -1.0077 C   0  0  0  0  0  0  0  0  0  0  0  0
    5.1954    0.8766   -1.5802 S   0  0  0  0  0  0  0  0  0  0  0  0
    4.2879   -0.2128   -0.5435 C   0  0  0  0  0  0  0  0  0  0  0  0
    3.0016   -0.2497   -0.4729 N   0  0  0  0  0  0  0  0  0  0  0  0
   -1.9185   -0.9258    1.0139 N   0  0  0  0  0  0  0  0  0  0  0  0
   -3.2494   -0.9551    0.5914 C   0  0  0  0  0  0  0  0  0  0  0  0
   -3.9433   -2.1672    0.6284 C   0  0  0  0  0  0  0  0  0  0  0  0
   -5.2761   -2.2378    0.2138 C   0  0  0  0  0  0  0  0  0  0  0  0
   -5.9269   -1.0921   -0.2420 C   0  0  0  0  0  0  0  0  0  0  0  0
   -5.2442    0.1229   -0.2822 C   0  0  0  0  0  0  0  0  0  0  0  0
   -3.9088    0.1814    0.1358 C   0  0  0  0  0  0  0  0  0  0  0  0
   -3.1551    1.4466    0.1088 C   0  0  0  0  0  0  0  0  0  0  0  0
   -3.7271    2.4654   -0.2741 O   0  0  0  0  0  0  0  0  0  0  0  0
   -1.6274    4.0715   -1.8564 H   0  0  0  0  0  0  0  0  0  0  0  0
   -0.1397    3.4871   -2.8041 H   0  0  0  0  0  0  0  0  0  0  0  0
    0.5721    2.1363   -0.9275 H   0  0  0  0  0  0  0  0  0  0  0  0
   -1.7685    3.5033    0.5612 H   0  0  0  0  0  0  0  0  0  0  0  0
   -0.3783    2.7436    1.2958 H   0  0  0  0  0  0  0  0  0  0  0  0
    0.5448   -1.1470   -0.5098 H   0  0  0  0  0  0  0  0  0  0  0  0
    0.6191   -2.1506    0.9436 H   0  0  0  0  0  0  0  0  0  0  0  0
    2.8185   -2.7380    1.8316 H   0  0  0  0  0  0  0  0  0  0  0  0
    7.2612   -1.3359    0.3999 H   0  0  0  0  0  0  0  0  0  0  0  0
    7.6648    0.5530   -1.3558 H   0  0  0  0  0  0  0  0  0  0  0  0
   -3.4398   -3.0624    0.9849 H   0  0  0  0  0  0  0  0  0  0  0  0
   -5.8047   -3.1874    0.2482 H   0  0  0  0  0  0  0  0  0  0  0  0
   -6.9640   -1.1448   -0.5648 H   0  0  0  0  0  0  0  0  0  0  0  0
   -5.7491    1.0187   -0.6369 H   0  0  0  0  0  0  0  0  0  0  0  0
  1  2  2  0
  2  3  1  0
  3  4  1  0
  4  5  1  0
  5  6  1  0
  6  7  1  0
  7  8  1  0
  8  9  2  0
  9 10  1  0
 10 11  2  0
 10 12  1  0
 12 13  1  0
 13 14  2  0
 14 15  1  0
 15 16  1  0
 16 17  2  0
  5 18  2  0
 18 19  1  0
 19 20  2  0
 20 21  1  0
 21 22  2  0
 22 23  1  0
 23 24  2  0
 24 25  1  0
 25 26  2  0
 25  4  1  0
 17  8  1  0
 24 19  1  0
 16 12  1  0
  1 27  1  0
  1 28  1  0
  2 29  1  0
  3 30  1  0
  3 31  1  0
  7 32  1  0
  7 33  1  0
  9 34  1  0
 13 35  1  0
 14 36  1  0
 20 37  1  0
 21 38  1  0
 22 39  1  0
 23 40  1  0
M  END
$$$$
