
     RDKit          3D

 69 73  0  0  0  0  0  0  0  0999 V2000
   -1.7754    2.8448    5.7211 C   0  0  0  0  0  0  0  0  0  0  0  0
   -1.5276    2.5504    4.2715 C   0  0  0  0  0  0  0  0  0  0  0  0
   -1.3152    3.5916    3.3644 C   0  0  0  0  0  0  0  0  0  0  0  0
   -1.0574    3.3176    2.0181 C   0  0  0  0  0  0  0  0  0  0  0  0
   -1.0022    1.9970    1.5445 C   0  0  0  0  0  0  0  0  0  0  0  0
   -0.6671    1.7489    0.0846 C   0  0  0  0  0  0  0  0  0  0  0  0
   -1.4611    0.7120   -0.5686 N   0  0  0  0  0  0  0  0  0  0  0  0
   -2.6873    1.1153   -1.1286 C   0  0  0  0  0  0  0  0  0  0  0  0
   -3.0604    2.2911   -1.1331 O   0  0  0  0  0  0  0  0  0  0  0  0
   -3.4790    0.0049   -1.8681 C   0  0  0  0  0  0  0  0  0  0  0  0
   -4.9557    0.3986   -2.0832 C   0  0  0  0  0  0  0  0  0  0  0  0
   -5.6346   -0.1556   -3.3570 C   0  0  0  0  0  0  0  0  0  0  0  0
   -5.0430    0.4468   -4.6337 C   0  0  0  0  0  0  0  0  0  0  0  0
   -5.6363   -1.6798   -3.4399 C   0  0  0  0  0  0  0  0  0  0  0  0
   -3.4117   -1.2443   -1.1146 N   0  0  0  0  0  0  0  0  0  0  0  0
   -2.1013   -1.6347   -0.8314 C   0  0  0  0  0  0  0  0  0  0  0  0
   -1.9154   -2.9625   -0.8071 N   0  0  0  0  0  0  0  0  0  0  0  0
   -0.7013   -3.3721   -0.4444 C   0  0  0  0  0  0  0  0  0  0  0  0
    0.3309   -2.5845   -0.1312 N   0  0  0  0  0  0  0  0  0  0  0  0
    0.1314   -1.2476   -0.1863 C   0  0  0  0  0  0  0  0  0  0  0  0
    1.2604   -0.4449    0.0661 N   0  0  0  0  0  0  0  0  0  0  0  0
    1.9764   -0.8453    1.3060 C   0  0  0  0  0  0  0  0  0  0  0  0
    3.3009   -1.5980    1.0463 C   0  0  0  0  0  0  0  0  0  0  0  0
    4.2030   -0.8098    0.1834 N   0  0  0  0  0  0  0  0  0  0  0  0
    5.5800   -0.8908    0.2932 C   0  0  0  0  0  0  0  0  0  0  0  0
    6.4231    0.1230   -0.1921 C   0  0  0  0  0  0  0  0  0  0  0  0
    7.8176    0.0500   -0.0781 C   0  0  0  0  0  0  0  0  0  0  0  0
    8.4105   -1.0513    0.5260 C   0  0  0  0  0  0  0  0  0  0  0  0
    7.6072   -2.0746    1.0119 C   0  0  0  0  0  0  0  0  0  0  0  0
    6.2136   -1.9903    0.8950 C   0  0  0  0  0  0  0  0  0  0  0  0
    3.5552    0.0770   -0.8002 C   0  0  0  0  0  0  0  0  0  0  0  0
    2.1287   -0.4107   -1.1387 C   0  0  0  0  0  0  0  0  0  0  0  0
   -1.1107   -0.6902   -0.5298 C   0  0  0  0  0  0  0  0  0  0  0  0
   -1.1922    0.9597    2.4669 C   0  0  0  0  0  0  0  0  0  0  0  0
   -1.4518    1.2324    3.8140 C   0  0  0  0  0  0  0  0  0  0  0  0
   -0.8233    2.9877    6.2417 H   0  0  0  0  0  0  0  0  0  0  0  0
   -2.3181    2.0244    6.2026 H   0  0  0  0  0  0  0  0  0  0  0  0
   -2.3831    3.7483    5.8347 H   0  0  0  0  0  0  0  0  0  0  0  0
   -1.3506    4.6256    3.6983 H   0  0  0  0  0  0  0  0  0  0  0  0
   -0.9010    4.1514    1.3366 H   0  0  0  0  0  0  0  0  0  0  0  0
    0.4038    1.6086   -0.0365 H   0  0  0  0  0  0  0  0  0  0  0  0
   -0.8515    2.6832   -0.4633 H   0  0  0  0  0  0  0  0  0  0  0  0
   -2.9831   -0.1186   -2.8398 H   0  0  0  0  0  0  0  0  0  0  0  0
   -5.5467    0.0862   -1.2113 H   0  0  0  0  0  0  0  0  0  0  0  0
   -5.0584    1.4897   -2.1264 H   0  0  0  0  0  0  0  0  0  0  0  0
   -6.6844    0.1648   -3.3125 H   0  0  0  0  0  0  0  0  0  0  0  0
   -5.0404    1.5406   -4.5839 H   0  0  0  0  0  0  0  0  0  0  0  0
   -4.0174    0.1094   -4.8104 H   0  0  0  0  0  0  0  0  0  0  0  0
   -5.6410    0.1567   -5.5052 H   0  0  0  0  0  0  0  0  0  0  0  0
   -4.6308   -2.0788   -3.6046 H   0  0  0  0  0  0  0  0  0  0  0  0
   -6.0450   -2.1214   -2.5257 H   0  0  0  0  0  0  0  0  0  0  0  0
   -6.2614   -2.0165   -4.2747 H   0  0  0  0  0  0  0  0  0  0  0  0
   -3.9098   -2.0470   -1.4832 H   0  0  0  0  0  0  0  0  0  0  0  0
   -0.5345   -4.4424   -0.4009 H   0  0  0  0  0  0  0  0  0  0  0  0
    1.3384   -1.4282    1.9835 H   0  0  0  0  0  0  0  0  0  0  0  0
    2.2094    0.0828    1.8447 H   0  0  0  0  0  0  0  0  0  0  0  0
    3.1049   -2.5667    0.5725 H   0  0  0  0  0  0  0  0  0  0  0  0
    3.7593   -1.7852    2.0246 H   0  0  0  0  0  0  0  0  0  0  0  0
    6.0058    1.0144   -0.6510 H   0  0  0  0  0  0  0  0  0  0  0  0
    8.4339    0.8604   -0.4580 H   0  0  0  0  0  0  0  0  0  0  0  0
    9.4916   -1.1119    0.6177 H   0  0  0  0  0  0  0  0  0  0  0  0
    8.0584   -2.9455    1.4798 H   0  0  0  0  0  0  0  0  0  0  0  0
    5.6293   -2.8279    1.2664 H   0  0  0  0  0  0  0  0  0  0  0  0
    4.1274    0.0996   -1.7353 H   0  0  0  0  0  0  0  0  0  0  0  0
    3.5119    1.0960   -0.3964 H   0  0  0  0  0  0  0  0  0  0  0  0
    2.2067   -1.4041   -1.6033 H   0  0  0  0  0  0  0  0  0  0  0  0
    1.6859    0.2662   -1.8801 H   0  0  0  0  0  0  0  0  0  0  0  0
   -1.1417   -0.0791    2.1578 H   0  0  0  0  0  0  0  0  0  0  0  0
   -1.5968    0.4031    4.5024 H   0  0  0  0  0  0  0  0  0  0  0  0
  1  2  1  0
  2  3  2  0
  3  4  1  0
  4  5  2  0
  5  6  1  0
  6  7  1  0
  7  8  1  0
  8  9  2  0
  8 10  1  0
 10 11  1  0
 11 12  1  0
 12 13  1  0
 12 14  1  0
 10 15  1  0
 15 16  1  0
 16 17  2  0
 17 18  1  0
 18 19  2  0
 19 20  1  0
 20 21  1  0
 21 22  1  0
 22 23  1  0
 23 24  1  0
 24 25  1  0
 25 26  2  0
 26 27  1  0
 27 28  2  0
 28 29  1  0
 29 30  2  0
 24 31  1  0
 31 32  1  0
 20 33  2  0
  5 34  1  0
 34 35  2  0
 35  2  1  0
 33  7  1  0
 33 16  1  0
 32 21  1  0
 30 25  1  0
  1 36  1  0
  1 37  1  0
  1 38  1  0
  3 39  1  0
  4 40  1  0
  6 41  1  0
  6 42  1  0
 10 43  1  0
 11 44  1  0
 11 45  1  0
 12 46  1  0
 13 47  1  0
 13 48  1  0
 13 49  1  0
 14 50  1  0
 14 51  1  0
 14 52  1  0
 15 53  1  0
 18 54  1  0
 22 55  1  0
 22 56  1  0
 23 57  1  0
 23 58  1  0
 26 59  1  0
 27 60  1  0
 28 61  1  0
 29 62  1  0
 30 63  1  0
 31 64  1  0
 31 65  1  0
 32 66  1  0
 32 67  1  0
 34 68  1  0
 35 69  1  0
M  END
$$$$
