
     RDKit          3D

 47 49  0  0  0  0  0  0  0  0999 V2000
   -0.6759    1.5368    3.6617 C   0  0  0  0  0  0  0  0  0  0  0  0
   -0.8415    2.1685    2.3440 N   0  0  0  0  0  0  0  0  0  0  0  0
   -1.9977    3.0707    2.3060 C   0  0  0  0  0  0  0  0  0  0  0  0
   -0.3972    1.4924    1.1827 C   0  0  0  0  0  0  0  0  0  0  0  0
   -1.4601    1.1368    0.1230 C   0  0  0  0  0  0  0  0  0  0  0  0
   -2.5509    0.2775    0.6357 N   0  0  0  0  0  0  0  0  0  0  0  0
   -2.0769   -1.0764    0.9961 C   0  0  0  0  0  0  0  0  0  0  0  0
   -1.6848   -1.9684   -0.1966 C   0  0  0  0  0  0  0  0  0  0  0  0
   -2.7102   -1.9904   -1.2348 N   0  0  0  0  0  0  0  0  0  0  0  0
   -2.7072   -3.0022   -2.1745 C   0  0  0  0  0  0  0  0  0  0  0  0
   -3.2822   -2.9766   -3.2546 O   0  0  0  0  0  0  0  0  0  0  0  0
   -3.3059   -0.7062   -1.5925 C   0  0  0  0  0  0  0  0  0  0  0  0
   -3.6411    0.1519   -0.3573 C   0  0  0  0  0  0  0  0  0  0  0  0
    0.8898    1.1584    0.9266 C   0  0  0  0  0  0  0  0  0  0  0  0
    1.3153    0.4746   -0.1918 N   0  0  0  0  0  0  0  0  0  0  0  0
    2.5966    0.4104   -0.0321 C   0  0  0  0  0  0  0  0  0  0  0  0
    3.5656   -0.2206   -0.9417 C   0  0  0  0  0  0  0  0  0  0  0  0
    4.9339   -0.2498   -0.6456 C   0  0  0  0  0  0  0  0  0  0  0  0
    5.8262   -0.8597   -1.5303 C   0  0  0  0  0  0  0  0  0  0  0  0
    5.3567   -1.4396   -2.7087 C   0  0  0  0  0  0  0  0  0  0  0  0
    3.9950   -1.4121   -3.0076 C   0  0  0  0  0  0  0  0  0  0  0  0
    3.0991   -0.8041   -2.1265 C   0  0  0  0  0  0  0  0  0  0  0  0
    3.1191    0.9703    1.0778 O   0  0  0  0  0  0  0  0  0  0  0  0
    2.0742    1.4968    1.7808 C   0  0  0  0  0  0  0  0  0  0  0  0
    2.1688    2.0795    2.8418 O   0  0  0  0  0  0  0  0  0  0  0  0
   -0.3984    2.2904    4.4058 H   0  0  0  0  0  0  0  0  0  0  0  0
   -1.6132    1.0639    3.9761 H   0  0  0  0  0  0  0  0  0  0  0  0
    0.0934    0.7584    3.6618 H   0  0  0  0  0  0  0  0  0  0  0  0
   -2.9391    2.5123    2.2991 H   0  0  0  0  0  0  0  0  0  0  0  0
   -1.9972    3.7265    3.1838 H   0  0  0  0  0  0  0  0  0  0  0  0
   -1.9573    3.7196    1.4248 H   0  0  0  0  0  0  0  0  0  0  0  0
   -1.0102    0.6953   -0.7724 H   0  0  0  0  0  0  0  0  0  0  0  0
   -1.8906    2.0853   -0.2249 H   0  0  0  0  0  0  0  0  0  0  0  0
   -2.8919   -1.5727    1.5404 H   0  0  0  0  0  0  0  0  0  0  0  0
   -1.2467   -1.0285    1.7096 H   0  0  0  0  0  0  0  0  0  0  0  0
   -1.5029   -2.9930    0.1475 H   0  0  0  0  0  0  0  0  0  0  0  0
   -0.7562   -1.6176   -0.6608 H   0  0  0  0  0  0  0  0  0  0  0  0
   -2.1411   -3.8889   -1.8433 H   0  0  0  0  0  0  0  0  0  0  0  0
   -2.5953   -0.1855   -2.2452 H   0  0  0  0  0  0  0  0  0  0  0  0
   -4.2152   -0.8796   -2.1792 H   0  0  0  0  0  0  0  0  0  0  0  0
   -3.9813    1.1445   -0.6765 H   0  0  0  0  0  0  0  0  0  0  0  0
   -4.5008   -0.3016    0.1539 H   0  0  0  0  0  0  0  0  0  0  0  0
    5.3220    0.1967    0.2668 H   0  0  0  0  0  0  0  0  0  0  0  0
    6.8891   -0.8817   -1.3009 H   0  0  0  0  0  0  0  0  0  0  0  0
    6.0540   -1.9127   -3.3964 H   0  0  0  0  0  0  0  0  0  0  0  0
    3.6311   -1.8628   -3.9280 H   0  0  0  0  0  0  0  0  0  0  0  0
    2.0394   -0.7868   -2.3728 H   0  0  0  0  0  0  0  0  0  0  0  0
  1  2  1  0
  2  3  1  0
  2  4  1  0
  4  5  1  0
  5  6  1  0
  6  7  1  0
  7  8  1  0
  8  9  1  0
  9 10  1  0
 10 11  2  0
  9 12  1  0
 12 13  1  0
  4 14  2  3
 14 15  1  0
 15 16  2  0
 16 17  1  0
 17 18  2  0
 18 19  1  0
 19 20  2  0
 20 21  1  0
 21 22  2  0
 16 23  1  0
 23 24  1  0
 24 25  2  0
 13  6  1  0
 24 14  1  0
 22 17  1  0
  1 26  1  0
  1 27  1  0
  1 28  1  0
  3 29  1  0
  3 30  1  0
  3 31  1  0
  5 32  1  0
  5 33  1  0
  7 34  1  0
  7 35  1  0
  8 36  1  0
  8 37  1  0
 10 38  1  0
 12 39  1  0
 12 40  1  0
 13 41  1  0
 13 42  1  0
 18 43  1  0
 19 44  1  0
 20 45  1  0
 21 46  1  0
 22 47  1  0
M  END
$$$$
