
     RDKit          3D

 62 65  0  0  0  0  0  0  0  0999 V2000
   -5.6940   -2.6990   -0.7888 C   0  0  0  0  0  0  0  0  0  0  0  0
   -4.5334   -3.4716   -1.3888 C   0  0  0  0  0  0  0  0  0  0  0  0
   -3.2856   -2.7990   -1.1580 O   0  0  0  0  0  0  0  0  0  0  0  0
   -2.9771   -1.8369   -2.0740 C   0  0  0  0  0  0  0  0  0  0  0  0
   -3.6828   -1.4562   -3.0015 O   0  0  0  0  0  0  0  0  0  0  0  0
   -1.6021   -1.3483   -1.8381 C   0  0  0  0  0  0  0  0  0  0  0  0
   -0.6485   -1.9757   -2.5856 C   0  0  0  0  0  0  0  0  0  0  0  0
   -0.9245   -3.0853   -3.5827 C   0  0  0  0  0  0  0  0  0  0  0  0
    0.7108   -1.7006   -2.5062 N   0  0  0  0  0  0  0  0  0  0  0  0
    1.0841   -0.9443   -1.5318 C   0  0  0  0  0  0  0  0  0  0  0  0
    2.7614   -0.6820   -1.1696 S   0  0  0  0  0  0  0  0  0  0  0  0
    2.3673   -0.1853    0.4644 C   0  0  0  0  0  0  0  0  0  0  0  0
    3.2876   -0.0709    1.4470 C   0  0  0  0  0  0  0  0  0  0  0  0
    2.9278    0.2407    2.7546 O   0  0  0  0  0  0  0  0  0  0  0  0
    4.7323   -0.3045    1.2638 C   0  0  0  0  0  0  0  0  0  0  0  0
    5.5227    0.5864    0.5214 C   0  0  0  0  0  0  0  0  0  0  0  0
    6.8914    0.3533    0.3516 C   0  0  0  0  0  0  0  0  0  0  0  0
    7.4820   -0.7732    0.9308 C   0  0  0  0  0  0  0  0  0  0  0  0
    8.8045   -1.1081    0.8445 O   0  0  0  0  0  0  0  0  0  0  0  0
    9.5226   -0.5461   -0.2618 C   0  0  0  0  0  0  0  0  0  0  0  0
    6.7066   -1.6448    1.6977 C   0  0  0  0  0  0  0  0  0  0  0  0
    5.3376   -1.4180    1.8607 C   0  0  0  0  0  0  0  0  0  0  0  0
    0.9091    0.0195    0.5831 C   0  0  0  0  0  0  0  0  0  0  0  0
    0.3859    0.4986    1.7735 N   0  0  0  0  0  0  0  0  0  0  0  0
    0.2079   -0.2882   -0.5337 C   0  0  0  0  0  0  0  0  0  0  0  0
   -1.2292   -0.2454   -0.8959 C   0  0  0  0  0  0  0  0  0  0  0  0
   -2.0546    0.7766   -0.4853 C   0  0  0  0  0  0  0  0  0  0  0  0
   -1.4723    2.0423    0.0351 C   0  0  0  0  0  0  0  0  0  0  0  0
   -2.2214    2.9978    0.6161 C   0  0  0  0  0  0  0  0  0  0  0  0
   -3.6720    2.8358    0.7352 C   0  0  0  0  0  0  0  0  0  0  0  0
   -4.4498    3.6857    1.4530 C   0  0  0  0  0  0  0  0  0  0  0  0
   -3.9292    4.7022    2.2392 O   0  0  0  0  0  0  0  0  0  0  0  0
   -5.8298    3.5326    1.4289 O   0  0  0  0  0  0  0  0  0  0  0  0
   -6.5358    4.6825    1.8873 C   0  0  0  0  0  0  0  0  0  0  0  0
   -4.2809    1.7503   -0.0487 C   0  0  0  0  0  0  0  0  0  0  0  0
   -3.5286    0.7960   -0.6265 C   0  0  0  0  0  0  0  0  0  0  0  0
   -5.5655   -2.5769    0.2945 H   0  0  0  0  0  0  0  0  0  0  0  0
   -6.6351   -3.2290   -0.9666 H   0  0  0  0  0  0  0  0  0  0  0  0
   -5.7767   -1.6991   -1.2240 H   0  0  0  0  0  0  0  0  0  0  0  0
   -4.6805   -3.6448   -2.4678 H   0  0  0  0  0  0  0  0  0  0  0  0
   -4.4846   -4.4618   -0.9110 H   0  0  0  0  0  0  0  0  0  0  0  0
   -1.9785   -3.2469   -3.8149 H   0  0  0  0  0  0  0  0  0  0  0  0
   -0.5318   -4.0336   -3.1964 H   0  0  0  0  0  0  0  0  0  0  0  0
   -0.4177   -2.8713   -4.5332 H   0  0  0  0  0  0  0  0  0  0  0  0
    3.7606    0.3403    3.2604 H   0  0  0  0  0  0  0  0  0  0  0  0
    5.0731    1.4660    0.0613 H   0  0  0  0  0  0  0  0  0  0  0  0
    7.4632    1.0750   -0.2194 H   0  0  0  0  0  0  0  0  0  0  0  0
    8.9993   -0.7205   -1.2106 H   0  0  0  0  0  0  0  0  0  0  0  0
   10.4896   -1.0518   -0.3203 H   0  0  0  0  0  0  0  0  0  0  0  0
    9.7133    0.5229   -0.1103 H   0  0  0  0  0  0  0  0  0  0  0  0
    7.1704   -2.5201    2.1516 H   0  0  0  0  0  0  0  0  0  0  0  0
    4.7477   -2.1291    2.4333 H   0  0  0  0  0  0  0  0  0  0  0  0
   -0.5923    0.2580    1.9283 H   0  0  0  0  0  0  0  0  0  0  0  0
    0.9676    0.2528    2.5772 H   0  0  0  0  0  0  0  0  0  0  0  0
   -0.4145    2.2532   -0.1188 H   0  0  0  0  0  0  0  0  0  0  0  0
   -1.7396    3.9260    0.9049 H   0  0  0  0  0  0  0  0  0  0  0  0
   -2.9900    4.5162    2.3931 H   0  0  0  0  0  0  0  0  0  0  0  0
   -7.6018    4.5139    1.7126 H   0  0  0  0  0  0  0  0  0  0  0  0
   -6.3908    4.8149    2.9618 H   0  0  0  0  0  0  0  0  0  0  0  0
   -6.2419    5.5733    1.3215 H   0  0  0  0  0  0  0  0  0  0  0  0
   -5.3636    1.7197   -0.1503 H   0  0  0  0  0  0  0  0  0  0  0  0
   -4.0697    0.0359   -1.1676 H   0  0  0  0  0  0  0  0  0  0  0  0
  1  2  1  0
  2  3  1  0
  3  4  1  0
  4  5  2  0
  4  6  1  0
  6  7  2  0
  7  8  1  0
  7  9  1  0
  9 10  2  0
 10 11  1  0
 11 12  1  0
 12 13  2  3
 13 14  1  0
 13 15  1  0
 15 16  2  0
 16 17  1  0
 17 18  2  0
 18 19  1  0
 19 20  1  0
 18 21  1  0
 21 22  2  0
 12 23  1  0
 23 24  1  0
 23 25  2  0
 25 26  1  0
 26 27  2  3
 27 28  1  0
 28 29  2  0
 29 30  1  0
 30 31  2  3
 31 32  1  0
 31 33  1  0
 33 34  1  0
 30 35  1  0
 35 36  2  0
 26  6  1  0
 36 27  1  0
 25 10  1  0
 22 15  1  0
  1 37  1  0
  1 38  1  0
  1 39  1  0
  2 40  1  0
  2 41  1  0
  8 42  1  0
  8 43  1  0
  8 44  1  0
 14 45  1  0
 16 46  1  0
 17 47  1  0
 20 48  1  0
 20 49  1  0
 20 50  1  0
 21 51  1  0
 22 52  1  0
 24 53  1  0
 24 54  1  0
 28 55  1  0
 29 56  1  0
 32 57  1  0
 34 58  1  0
 34 59  1  0
 34 60  1  0
 35 61  1  0
 36 62  1  0
M  END
$$$$
