
     RDKit          3D

 68 70  0  0  0  0  0  0  0  0999 V2000
    6.8944    1.7488   -0.6492 C   0  0  0  0  0  0  0  0  0  0  0  0
    5.4780    1.2013   -0.6302 C   0  0  0  0  0  0  0  0  0  0  0  0
    4.7815    1.6759    0.5914 N   0  0  0  0  0  0  0  0  0  0  0  0
    3.6416    2.5964    0.3419 C   0  0  0  0  0  0  0  0  0  0  0  0
    4.1444    3.9621   -0.0979 C   0  0  0  0  0  0  0  0  0  0  0  0
    4.5964    0.5367    1.8502 S   0  0  0  0  0  6  0  0  0  0  0  0
    5.8494   -0.1799    1.9813 O   0  0  0  0  0  0  0  0  0  0  0  0
    3.9923    1.1880    2.9921 O   0  0  0  0  0  0  0  0  0  0  0  0
    3.3978   -0.6108    1.1980 C   0  0  0  0  0  0  0  0  0  0  0  0
    3.8001   -1.8860    0.7915 C   0  0  0  0  0  0  0  0  0  0  0  0
    2.8517   -2.7873    0.3019 C   0  0  0  0  0  0  0  0  0  0  0  0
    1.5008   -2.4215    0.2104 C   0  0  0  0  0  0  0  0  0  0  0  0
    0.5056   -3.2889   -0.3044 N   0  0  0  0  0  0  0  0  0  0  0  0
    0.2946   -4.4919    0.5375 C   0  0  0  0  0  0  0  0  0  0  0  0
   -0.5582   -5.5090   -0.2358 C   0  0  0  0  0  0  0  0  0  0  0  0
    0.0762   -5.9891   -1.4328 O   0  0  0  0  0  0  0  0  0  0  0  0
    1.0336   -5.0711   -1.9817 C   0  0  0  0  0  0  0  0  0  0  0  0
    0.6751   -3.5953   -1.7489 C   0  0  0  0  0  0  0  0  0  0  0  0
    1.1141   -1.1224    0.6227 C   0  0  0  0  0  0  0  0  0  0  0  0
   -0.2540   -0.8097    0.4820 N   0  0  0  0  0  0  0  0  0  0  0  0
   -0.8403    0.4376    0.5323 C   0  0  0  0  0  0  0  0  0  0  0  0
   -0.2502    1.5024    0.6844 O   0  0  0  0  0  0  0  0  0  0  0  0
   -2.3541    0.3594    0.4031 C   0  0  0  0  0  0  0  0  0  0  0  0
   -2.9505    1.6809   -0.0843 C   0  0  0  0  0  0  0  0  0  0  0  0
   -4.4747    1.6210   -0.2951 C   0  0  0  0  0  0  0  0  0  0  0  0
   -4.9422    2.8586   -1.0912 C   0  0  0  0  0  0  0  0  0  0  0  0
   -6.3987    3.2510   -0.8343 C   0  0  0  0  0  0  0  0  0  0  0  0
   -7.2562    2.0457   -0.4780 C   0  0  0  0  0  0  0  0  0  0  0  0
   -6.7566    1.3497    0.7881 C   0  0  0  0  0  0  0  0  0  0  0  0
   -5.2506    1.5014    1.0221 C   0  0  0  0  0  0  0  0  0  0  0  0
    2.0545   -0.2350    1.1418 C   0  0  0  0  0  0  0  0  0  0  0  0
    7.4212    1.4078   -1.5460 H   0  0  0  0  0  0  0  0  0  0  0  0
    7.4600    1.4142    0.2262 H   0  0  0  0  0  0  0  0  0  0  0  0
    6.8988    2.8434   -0.6483 H   0  0  0  0  0  0  0  0  0  0  0  0
    4.9438    1.5186   -1.5320 H   0  0  0  0  0  0  0  0  0  0  0  0
    5.5114    0.1085   -0.6711 H   0  0  0  0  0  0  0  0  0  0  0  0
    2.9754    2.1744   -0.4183 H   0  0  0  0  0  0  0  0  0  0  0  0
    3.0539    2.7393    1.2544 H   0  0  0  0  0  0  0  0  0  0  0  0
    4.6660    3.9096   -1.0583 H   0  0  0  0  0  0  0  0  0  0  0  0
    3.3050    4.6543   -0.2128 H   0  0  0  0  0  0  0  0  0  0  0  0
    4.8365    4.3818    0.6400 H   0  0  0  0  0  0  0  0  0  0  0  0
    4.8424   -2.1891    0.8618 H   0  0  0  0  0  0  0  0  0  0  0  0
    3.1808   -3.7751   -0.0067 H   0  0  0  0  0  0  0  0  0  0  0  0
   -0.2217   -4.2014    1.4596 H   0  0  0  0  0  0  0  0  0  0  0  0
    1.2473   -4.9634    0.8079 H   0  0  0  0  0  0  0  0  0  0  0  0
   -0.7753   -6.3789    0.3914 H   0  0  0  0  0  0  0  0  0  0  0  0
   -1.5171   -5.0644   -0.5256 H   0  0  0  0  0  0  0  0  0  0  0  0
    2.0107   -5.3072   -1.5454 H   0  0  0  0  0  0  0  0  0  0  0  0
    1.1025   -5.2748   -3.0553 H   0  0  0  0  0  0  0  0  0  0  0  0
   -0.2887   -3.3882   -2.2294 H   0  0  0  0  0  0  0  0  0  0  0  0
    1.4164   -2.9448   -2.2285 H   0  0  0  0  0  0  0  0  0  0  0  0
   -0.8007   -1.6030    0.1549 H   0  0  0  0  0  0  0  0  0  0  0  0
   -2.7457    0.0955    1.3918 H   0  0  0  0  0  0  0  0  0  0  0  0
   -2.6213   -0.4422   -0.2963 H   0  0  0  0  0  0  0  0  0  0  0  0
   -2.4672    1.9465   -1.0346 H   0  0  0  0  0  0  0  0  0  0  0  0
   -2.7050    2.4859    0.6215 H   0  0  0  0  0  0  0  0  0  0  0  0
   -4.6990    0.7317   -0.9008 H   0  0  0  0  0  0  0  0  0  0  0  0
   -4.8105    2.6446   -2.1611 H   0  0  0  0  0  0  0  0  0  0  0  0
   -4.3060    3.7287   -0.8801 H   0  0  0  0  0  0  0  0  0  0  0  0
   -6.4390    3.9781   -0.0124 H   0  0  0  0  0  0  0  0  0  0  0  0
   -6.8036    3.7585   -1.7174 H   0  0  0  0  0  0  0  0  0  0  0  0
   -8.3016    2.3475   -0.3444 H   0  0  0  0  0  0  0  0  0  0  0  0
   -7.2434    1.3334   -1.3136 H   0  0  0  0  0  0  0  0  0  0  0  0
   -7.2886    1.7430    1.6625 H   0  0  0  0  0  0  0  0  0  0  0  0
   -7.0163    0.2855    0.7271 H   0  0  0  0  0  0  0  0  0  0  0  0
   -4.9038    0.6494    1.6158 H   0  0  0  0  0  0  0  0  0  0  0  0
   -5.0703    2.3958    1.6321 H   0  0  0  0  0  0  0  0  0  0  0  0
    1.7565    0.7375    1.5204 H   0  0  0  0  0  0  0  0  0  0  0  0
  1  2  1  0
  2  3  1  0
  3  4  1  0
  4  5  1  0
  3  6  1  0
  6  7  2  0
  6  8  2  0
  6  9  1  0
  9 10  2  0
 10 11  1  0
 11 12  2  0
 12 13  1  0
 13 14  1  0
 14 15  1  0
 15 16  1  0
 16 17  1  0
 17 18  1  0
 12 19  1  0
 19 20  1  0
 20 21  1  0
 21 22  2  0
 21 23  1  0
 23 24  1  0
 24 25  1  0
 25 26  1  0
 26 27  1  0
 27 28  1  0
 28 29  1  0
 29 30  1  0
 19 31  2  0
 31  9  1  0
 18 13  1  0
 30 25  1  0
  1 32  1  0
  1 33  1  0
  1 34  1  0
  2 35  1  0
  2 36  1  0
  4 37  1  0
  4 38  1  0
  5 39  1  0
  5 40  1  0
  5 41  1  0
 10 42  1  0
 11 43  1  0
 14 44  1  0
 14 45  1  0
 15 46  1  0
 15 47  1  0
 17 48  1  0
 17 49  1  0
 18 50  1  0
 18 51  1  0
 20 52  1  0
 23 53  1  0
 23 54  1  0
 24 55  1  0
 24 56  1  0
 25 57  1  0
 26 58  1  0
 26 59  1  0
 27 60  1  0
 27 61  1  0
 28 62  1  0
 28 63  1  0
 29 64  1  0
 29 65  1  0
 30 66  1  0
 30 67  1  0
 31 68  1  0
M  END
$$$$
