
     RDKit          3D

 48 50  0  0  0  0  0  0  0  0999 V2000
   -1.2696    1.1094   -1.1237 O   0  0  0  0  0  0  0  0  0  0  0  0
   -1.8398    0.2392   -0.4700 C   0  0  0  0  0  0  0  0  0  0  0  0
   -1.1898   -1.0491   -0.0106 C   0  0  0  0  0  0  0  0  0  0  0  0
    0.2782   -1.1246   -0.4213 C   0  0  0  0  0  0  0  0  0  0  0  0
    0.9180   -2.4346    0.0414 C   0  0  0  0  0  0  0  0  0  0  0  0
    2.3307   -2.5053   -0.3324 N   0  0  0  0  0  0  0  0  0  0  0  0
    3.2668   -1.9404    0.5210 C   0  0  0  0  0  0  0  0  0  0  0  0
    3.0072   -1.3765    1.5747 O   0  0  0  0  0  0  0  0  0  0  0  0
    4.6384   -2.0946   -0.0421 C   0  0  0  0  0  0  0  0  0  0  0  0
    5.7991   -1.7228    0.5155 C   0  0  0  0  0  0  0  0  0  0  0  0
    5.9428   -1.0947    1.8347 C   0  0  0  0  0  0  0  0  0  0  0  0
    6.0903    0.2987    1.8911 C   0  0  0  0  0  0  0  0  0  0  0  0
    6.2318    0.9472    3.1201 C   0  0  0  0  0  0  0  0  0  0  0  0
    6.2289    0.2113    4.3035 C   0  0  0  0  0  0  0  0  0  0  0  0
    6.0853   -1.1757    4.2609 C   0  0  0  0  0  0  0  0  0  0  0  0
    5.9432   -1.8285    3.0329 C   0  0  0  0  0  0  0  0  0  0  0  0
    5.7866   -3.5519    3.0450 Cl  0  0  0  0  0  0  0  0  0  0  0  0
    4.5532   -2.8583   -1.5857 S   0  0  0  0  0  0  0  0  0  0  0  0
    2.8044   -3.0256   -1.5180 C   0  0  0  0  0  0  0  0  0  0  0  0
    1.9345   -3.7264   -2.7576 S   0  0  0  0  0  0  0  0  0  0  0  0
   -3.1605    0.3491   -0.0747 N   0  0  0  0  0  0  0  0  0  0  0  0
   -3.9115    1.3819   -0.6714 N   0  0  0  0  0  0  0  0  0  0  0  0
   -5.1636    1.0364   -1.1478 C   0  0  0  0  0  0  0  0  0  0  0  0
   -5.6793   -0.0535   -0.9088 O   0  0  0  0  0  0  0  0  0  0  0  0
   -5.8546    2.0396   -2.0050 C   0  0  0  0  0  0  0  0  0  0  0  0
   -6.8723    1.5925   -2.8602 C   0  0  0  0  0  0  0  0  0  0  0  0
   -7.5521    2.4960   -3.6816 C   0  0  0  0  0  0  0  0  0  0  0  0
   -7.2210    3.8488   -3.6436 C   0  0  0  0  0  0  0  0  0  0  0  0
   -8.0574    4.9628   -4.6522 Cl  0  0  0  0  0  0  0  0  0  0  0  0
   -6.2199    4.3068   -2.7875 C   0  0  0  0  0  0  0  0  0  0  0  0
   -5.5373    3.4047   -1.9642 C   0  0  0  0  0  0  0  0  0  0  0  0
   -1.2774   -1.1096    1.0805 H   0  0  0  0  0  0  0  0  0  0  0  0
   -1.7443   -1.8873   -0.4483 H   0  0  0  0  0  0  0  0  0  0  0  0
    0.3650   -1.0288   -1.5106 H   0  0  0  0  0  0  0  0  0  0  0  0
    0.8247   -0.2725    0.0028 H   0  0  0  0  0  0  0  0  0  0  0  0
    0.3794   -3.2893   -0.3803 H   0  0  0  0  0  0  0  0  0  0  0  0
    0.8391   -2.5165    1.1323 H   0  0  0  0  0  0  0  0  0  0  0  0
    6.7406   -1.8913   -0.0026 H   0  0  0  0  0  0  0  0  0  0  0  0
    6.0882    0.8918    0.9790 H   0  0  0  0  0  0  0  0  0  0  0  0
    6.3385    2.0289    3.1534 H   0  0  0  0  0  0  0  0  0  0  0  0
    6.3345    0.7177    5.2598 H   0  0  0  0  0  0  0  0  0  0  0  0
    6.0824   -1.7429    5.1880 H   0  0  0  0  0  0  0  0  0  0  0  0
   -3.7008   -0.4872    0.1522 H   0  0  0  0  0  0  0  0  0  0  0  0
   -3.3513    2.0933   -1.1414 H   0  0  0  0  0  0  0  0  0  0  0  0
   -7.1383    0.5369   -2.8910 H   0  0  0  0  0  0  0  0  0  0  0  0
   -8.3368    2.1378   -4.3432 H   0  0  0  0  0  0  0  0  0  0  0  0
   -5.9717    5.3649   -2.7510 H   0  0  0  0  0  0  0  0  0  0  0  0
   -4.7823    3.7922   -1.2855 H   0  0  0  0  0  0  0  0  0  0  0  0
  1  2  2  0
  2  3  1  0
  3  4  1  0
  4  5  1  0
  5  6  1  0
  6  7  1  0
  7  8  2  0
  7  9  1  0
  9 10  2  3
 10 11  1  0
 11 12  2  0
 12 13  1  0
 13 14  2  0
 14 15  1  0
 15 16  2  0
 16 17  1  0
  9 18  1  0
 18 19  1  0
 19 20  2  0
  2 21  1  0
 21 22  1  0
 22 23  1  0
 23 24  2  0
 23 25  1  0
 25 26  2  0
 26 27  1  0
 27 28  2  0
 28 29  1  0
 28 30  1  0
 30 31  2  0
 19  6  1  0
 31 25  1  0
 16 11  1  0
  3 32  1  0
  3 33  1  0
  4 34  1  0
  4 35  1  0
  5 36  1  0
  5 37  1  0
 10 38  1  0
 12 39  1  0
 13 40  1  0
 14 41  1  0
 15 42  1  0
 21 43  1  0
 22 44  1  0
 26 45  1  0
 27 46  1  0
 30 47  1  0
 31 48  1  0
M  END
$$$$
