
     RDKit          3D

 45 47  0  0  0  0  0  0  0  0999 V2000
    5.0619    3.0171    2.9765 C   0  0  0  0  0  0  0  0  0  0  0  0
    4.3836    2.1076    1.9950 C   0  0  0  0  0  0  0  0  0  0  0  0
    5.0185    0.9407    1.5647 C   0  0  0  0  0  0  0  0  0  0  0  0
    4.3997    0.1035    0.6349 C   0  0  0  0  0  0  0  0  0  0  0  0
    3.1370    0.4190    0.1066 C   0  0  0  0  0  0  0  0  0  0  0  0
    2.5199   -0.4960   -0.8466 C   0  0  0  0  0  0  0  0  0  0  0  0
    3.1745   -0.9990   -1.9525 C   0  0  0  0  0  0  0  0  0  0  0  0
    2.1327   -2.0367   -2.8308 S   0  0  0  0  0  0  0  0  0  0  0  0
    0.8879   -1.7558   -1.6700 C   0  0  0  0  0  0  0  0  0  0  0  0
   -0.4423   -2.4308   -1.8178 C   0  0  0  0  0  0  0  0  0  0  0  0
   -0.4194   -3.7366   -1.1513 C   0  0  0  0  0  0  0  0  0  0  0  0
   -0.4052   -4.7822   -0.6453 N   0  0  0  0  0  0  0  0  0  0  0  0
   -1.4833   -1.5557   -1.1719 C   0  0  0  0  0  0  0  0  0  0  0  0
   -2.4779   -1.0820   -1.8595 N   0  0  0  0  0  0  0  0  0  0  0  0
   -3.3770   -0.2519   -1.1609 C   0  0  0  0  0  0  0  0  0  0  0  0
   -2.9752    1.0442   -0.8073 C   0  0  0  0  0  0  0  0  0  0  0  0
   -3.8430    1.9043   -0.1340 C   0  0  0  0  0  0  0  0  0  0  0  0
   -5.1335    1.4860    0.1749 C   0  0  0  0  0  0  0  0  0  0  0  0
   -5.5585    0.2080   -0.1914 C   0  0  0  0  0  0  0  0  0  0  0  0
   -4.6878   -0.6690   -0.8549 C   0  0  0  0  0  0  0  0  0  0  0  0
   -5.3023   -2.2890   -1.3068 S   0  0  0  0  0  0  0  0  0  0  0  0
   -4.7304   -3.1929    0.1289 C   0  0  0  0  0  0  0  0  0  0  0  0
   -5.0777   -4.4999    0.0483 F   0  0  0  0  0  0  0  0  0  0  0  0
   -3.3844   -3.1428    0.2690 F   0  0  0  0  0  0  0  0  0  0  0  0
   -5.2754   -2.7062    1.2713 F   0  0  0  0  0  0  0  0  0  0  0  0
    1.2134   -0.9270   -0.6976 N   0  0  0  0  0  0  0  0  0  0  0  0
    2.4953    1.6042    0.5200 C   0  0  0  0  0  0  0  0  0  0  0  0
    1.1411    2.0079    0.0012 C   0  0  0  0  0  0  0  0  0  0  0  0
    3.1301    2.4348    1.4634 C   0  0  0  0  0  0  0  0  0  0  0  0
    5.7735    3.6637    2.4545 H   0  0  0  0  0  0  0  0  0  0  0  0
    4.3364    3.6465    3.5014 H   0  0  0  0  0  0  0  0  0  0  0  0
    5.5992    2.4356    3.7317 H   0  0  0  0  0  0  0  0  0  0  0  0
    5.9976    0.6729    1.9543 H   0  0  0  0  0  0  0  0  0  0  0  0
    4.9098   -0.8101    0.3405 H   0  0  0  0  0  0  0  0  0  0  0  0
    4.1850   -0.8090   -2.2854 H   0  0  0  0  0  0  0  0  0  0  0  0
   -0.6989   -2.5513   -2.8770 H   0  0  0  0  0  0  0  0  0  0  0  0
   -1.3646   -1.3385   -0.0913 H   0  0  0  0  0  0  0  0  0  0  0  0
   -1.9764    1.3873   -1.0646 H   0  0  0  0  0  0  0  0  0  0  0  0
   -3.5132    2.9031    0.1456 H   0  0  0  0  0  0  0  0  0  0  0  0
   -5.8146    2.1565    0.6941 H   0  0  0  0  0  0  0  0  0  0  0  0
   -6.5750   -0.0964    0.0498 H   0  0  0  0  0  0  0  0  0  0  0  0
    0.9176    3.0522    0.2438 H   0  0  0  0  0  0  0  0  0  0  0  0
    0.3612    1.3866    0.4516 H   0  0  0  0  0  0  0  0  0  0  0  0
    1.0986    1.9225   -1.0894 H   0  0  0  0  0  0  0  0  0  0  0  0
    2.6417    3.3533    1.7842 H   0  0  0  0  0  0  0  0  0  0  0  0
  1  2  1  0
  2  3  2  0
  3  4  1  0
  4  5  2  0
  5  6  1  0
  6  7  2  0
  7  8  1  0
  8  9  1  0
  9 10  1  0
 10 11  1  0
 11 12  3  0
 10 13  1  0
 13 14  2  3
 14 15  1  0
 15 16  2  0
 16 17  1  0
 17 18  2  0
 18 19  1  0
 19 20  2  0
 20 21  1  0
 21 22  1  0
 22 23  1  0
 22 24  1  0
 22 25  1  0
  9 26  2  0
  5 27  1  0
 27 28  1  0
 27 29  2  0
 29  2  1  0
 26  6  1  0
 20 15  1  0
  1 30  1  0
  1 31  1  0
  1 32  1  0
  3 33  1  0
  4 34  1  0
  7 35  1  0
 10 36  1  0
 13 37  1  0
 16 38  1  0
 17 39  1  0
 18 40  1  0
 19 41  1  0
 28 42  1  0
 28 43  1  0
 28 44  1  0
 29 45  1  0
M  END
$$$$
