
     RDKit          3D

 46 49  0  0  0  0  0  0  0  0999 V2000
    6.5791   -1.0560    0.8875 N   0  0  0  0  0  0  0  0  0  0  0  0
    6.0601   -0.0184   -0.3353 S   0  0  0  0  0  6  0  0  0  0  0  0
    6.4046   -0.6754   -1.5751 O   0  0  0  0  0  0  0  0  0  0  0  0
    6.5144    1.3119   -0.0075 O   0  0  0  0  0  0  0  0  0  0  0  0
    4.3028   -0.0856   -0.1270 C   0  0  0  0  0  0  0  0  0  0  0  0
    3.5586   -1.0418   -0.8121 C   0  0  0  0  0  0  0  0  0  0  0  0
    2.1720   -1.0857   -0.6328 C   0  0  0  0  0  0  0  0  0  0  0  0
    1.4970   -0.1843    0.2131 C   0  0  0  0  0  0  0  0  0  0  0  0
    0.1143   -0.2576    0.3689 N   0  0  0  0  0  0  0  0  0  0  0  0
   -0.6091   -1.2339   -0.2551 N   0  0  0  0  0  0  0  0  0  0  0  0
   -1.8287   -1.1495    0.1836 C   0  0  0  0  0  0  0  0  0  0  0  0
   -2.9211   -2.0350   -0.2835 C   0  0  0  0  0  0  0  0  0  0  0  0
   -4.1984   -1.9848    0.2861 C   0  0  0  0  0  0  0  0  0  0  0  0
   -5.2058   -2.8340   -0.1802 C   0  0  0  0  0  0  0  0  0  0  0  0
   -4.9423   -3.7337   -1.2123 C   0  0  0  0  0  0  0  0  0  0  0  0
   -3.6714   -3.7888   -1.7815 C   0  0  0  0  0  0  0  0  0  0  0  0
   -2.6623   -2.9423   -1.3186 C   0  0  0  0  0  0  0  0  0  0  0  0
   -2.0544   -0.1004    1.2373 C   0  0  0  0  0  0  0  0  0  0  0  0
   -0.7119    0.6316    1.1887 C   0  0  0  0  0  0  0  0  0  0  0  0
   -0.8732    2.0261    0.5977 C   0  0  0  0  0  0  0  0  0  0  0  0
   -1.0093    3.1291    1.4583 C   0  0  0  0  0  0  0  0  0  0  0  0
   -1.1821    4.4173    0.9455 C   0  0  0  0  0  0  0  0  0  0  0  0
   -1.2262    4.6132   -0.4328 C   0  0  0  0  0  0  0  0  0  0  0  0
   -1.4607    6.3561   -1.1254 Br  0  0  0  0  0  0  0  0  0  0  0  0
   -1.1012    3.5339   -1.3028 C   0  0  0  0  0  0  0  0  0  0  0  0
   -0.9296    2.2464   -0.7892 C   0  0  0  0  0  0  0  0  0  0  0  0
    2.2815    0.7758    0.8746 C   0  0  0  0  0  0  0  0  0  0  0  0
    3.6710    0.8331    0.7089 C   0  0  0  0  0  0  0  0  0  0  0  0
    5.8282   -1.3349    1.5180 H   0  0  0  0  0  0  0  0  0  0  0  0
    7.0343   -1.8635    0.4582 H   0  0  0  0  0  0  0  0  0  0  0  0
    4.0342   -1.7501   -1.4862 H   0  0  0  0  0  0  0  0  0  0  0  0
    1.6021   -1.8385   -1.1750 H   0  0  0  0  0  0  0  0  0  0  0  0
   -4.4351   -1.2989    1.0934 H   0  0  0  0  0  0  0  0  0  0  0  0
   -6.1984   -2.7946    0.2624 H   0  0  0  0  0  0  0  0  0  0  0  0
   -5.7278   -4.3931   -1.5735 H   0  0  0  0  0  0  0  0  0  0  0  0
   -3.4640   -4.4898   -2.5861 H   0  0  0  0  0  0  0  0  0  0  0  0
   -1.6745   -2.9947   -1.7720 H   0  0  0  0  0  0  0  0  0  0  0  0
   -2.1949   -0.5982    2.2028 H   0  0  0  0  0  0  0  0  0  0  0  0
   -2.9182    0.5312    1.0129 H   0  0  0  0  0  0  0  0  0  0  0  0
   -0.3016    0.7031    2.2041 H   0  0  0  0  0  0  0  0  0  0  0  0
   -0.9794    2.9948    2.5378 H   0  0  0  0  0  0  0  0  0  0  0  0
   -1.2805    5.2585    1.6268 H   0  0  0  0  0  0  0  0  0  0  0  0
   -1.1322    3.6798   -2.3794 H   0  0  0  0  0  0  0  0  0  0  0  0
   -0.8282    1.4120   -1.4828 H   0  0  0  0  0  0  0  0  0  0  0  0
    1.8246    1.5115    1.5301 H   0  0  0  0  0  0  0  0  0  0  0  0
    4.2436    1.5981    1.2297 H   0  0  0  0  0  0  0  0  0  0  0  0
  1  2  1  0
  2  3  2  0
  2  4  2  0
  2  5  1  0
  5  6  2  0
  6  7  1  0
  7  8  2  0
  8  9  1  0
  9 10  1  0
 10 11  2  0
 11 12  1  0
 12 13  2  0
 13 14  1  0
 14 15  2  0
 15 16  1  0
 16 17  2  0
 11 18  1  0
 18 19  1  0
 19 20  1  0
 20 21  2  0
 21 22  1  0
 22 23  2  0
 23 24  1  0
 23 25  1  0
 25 26  2  0
  8 27  1  0
 27 28  2  0
 28  5  1  0
 19  9  1  0
 26 20  1  0
 17 12  1  0
  1 29  1  0
  1 30  1  0
  6 31  1  0
  7 32  1  0
 13 33  1  0
 14 34  1  0
 15 35  1  0
 16 36  1  0
 17 37  1  0
 18 38  1  0
 18 39  1  0
 19 40  1  0
 21 41  1  0
 22 42  1  0
 25 43  1  0
 26 44  1  0
 27 45  1  0
 28 46  1  0
M  END
$$$$
