
     RDKit          3D

 58 61  0  0  0  0  0  0  0  0999 V2000
    0.5209    0.2358    1.7691 O   0  0  0  0  0  0  0  0  0  0  0  0
    0.0839    0.3100    0.6266 C   0  0  0  0  0  0  0  0  0  0  0  0
   -1.2435    0.4900    0.3305 N   0  0  0  0  0  0  0  0  0  0  0  0
   -2.2530    0.5882    1.3746 C   0  0  0  0  0  0  0  0  0  0  0  0
   -3.6961    0.7885    0.8131 C   0  0  0  0  0  0  0  0  0  0  0  0
   -3.8895    2.2580    0.4378 C   0  0  0  0  0  0  0  0  0  0  0  0
   -4.6750    3.1902    1.0945 C   0  0  0  0  0  0  0  0  0  0  0  0
   -4.6298    4.4756    0.4824 C   0  0  0  0  0  0  0  0  0  0  0  0
   -3.8120    4.4906   -0.6238 C   0  0  0  0  0  0  0  0  0  0  0  0
   -3.1048    2.9646   -0.9209 S   0  0  0  0  0  0  0  0  0  0  0  0
   -4.0378   -0.1333   -0.3157 N   0  0  0  0  0  0  0  0  0  0  0  0
   -5.4554    0.0399   -0.7351 C   0  0  0  0  0  0  0  0  0  0  0  0
   -5.8513   -0.9524   -1.8398 C   0  0  0  0  0  0  0  0  0  0  0  0
   -5.6660   -2.3040   -1.4068 O   0  0  0  0  0  0  0  0  0  0  0  0
   -4.2966   -2.5159   -1.0512 C   0  0  0  0  0  0  0  0  0  0  0  0
   -3.8591   -1.5575    0.0693 C   0  0  0  0  0  0  0  0  0  0  0  0
    1.0074    0.1736   -0.5310 C   0  0  0  0  0  0  0  0  0  0  0  0
    0.7530    0.7857   -1.7610 C   0  0  0  0  0  0  0  0  0  0  0  0
    1.6599    0.6330   -2.8143 C   0  0  0  0  0  0  0  0  0  0  0  0
    2.8376   -0.1097   -2.6485 C   0  0  0  0  0  0  0  0  0  0  0  0
    3.8314   -0.2860   -4.0462 Cl  0  0  0  0  0  0  0  0  0  0  0  0
    3.1099   -0.6870   -1.4074 C   0  0  0  0  0  0  0  0  0  0  0  0
    4.5902   -1.6116   -1.1103 S   0  0  0  0  0  6  0  0  0  0  0  0
    5.7017   -1.0102   -1.8136 O   0  0  0  0  0  0  0  0  0  0  0  0
    4.2390   -3.0039   -1.2879 O   0  0  0  0  0  0  0  0  0  0  0  0
    4.9181   -1.3648    0.5557 N   0  0  0  0  0  0  0  0  0  0  0  0
    5.2577    0.0514    0.9414 C   0  0  0  0  0  0  0  0  0  0  0  0
    5.9657    0.0794    2.3001 C   0  0  0  0  0  0  0  0  0  0  0  0
    7.2264   -0.6040    2.2883 O   0  0  0  0  0  0  0  0  0  0  0  0
    7.2743   -1.6849    1.3455 C   0  0  0  0  0  0  0  0  0  0  0  0
    5.9109   -2.3442    1.1230 C   0  0  0  0  0  0  0  0  0  0  0  0
    2.1845   -0.5626   -0.3573 C   0  0  0  0  0  0  0  0  0  0  0  0
   -1.5953    0.3623   -0.6117 H   0  0  0  0  0  0  0  0  0  0  0  0
   -1.9687    1.4082    2.0456 H   0  0  0  0  0  0  0  0  0  0  0  0
   -2.2006   -0.3348    1.9644 H   0  0  0  0  0  0  0  0  0  0  0  0
   -4.3813    0.5829    1.6492 H   0  0  0  0  0  0  0  0  0  0  0  0
   -5.2587    2.9607    1.9782 H   0  0  0  0  0  0  0  0  0  0  0  0
   -5.1692    5.3458    0.8362 H   0  0  0  0  0  0  0  0  0  0  0  0
   -3.5939    5.3266   -1.2741 H   0  0  0  0  0  0  0  0  0  0  0  0
   -5.6295    1.0481   -1.1239 H   0  0  0  0  0  0  0  0  0  0  0  0
   -6.1172   -0.1101    0.1281 H   0  0  0  0  0  0  0  0  0  0  0  0
   -6.9103   -0.8271   -2.0870 H   0  0  0  0  0  0  0  0  0  0  0  0
   -5.2732   -0.7801   -2.7559 H   0  0  0  0  0  0  0  0  0  0  0  0
   -3.6666   -2.3994   -1.9414 H   0  0  0  0  0  0  0  0  0  0  0  0
   -4.2000   -3.5516   -0.7098 H   0  0  0  0  0  0  0  0  0  0  0  0
   -2.8092   -1.7735    0.2887 H   0  0  0  0  0  0  0  0  0  0  0  0
   -4.4474   -1.7735    0.9707 H   0  0  0  0  0  0  0  0  0  0  0  0
   -0.1333    1.3961   -1.9150 H   0  0  0  0  0  0  0  0  0  0  0  0
    1.4392    1.1004   -3.7730 H   0  0  0  0  0  0  0  0  0  0  0  0
    4.3373    0.6380    1.0063 H   0  0  0  0  0  0  0  0  0  0  0  0
    5.9132    0.5027    0.1892 H   0  0  0  0  0  0  0  0  0  0  0  0
    5.3394   -0.3803    3.0735 H   0  0  0  0  0  0  0  0  0  0  0  0
    6.1571    1.1130    2.6053 H   0  0  0  0  0  0  0  0  0  0  0  0
    7.9899   -2.4189    1.7293 H   0  0  0  0  0  0  0  0  0  0  0  0
    7.6782   -1.2950    0.4043 H   0  0  0  0  0  0  0  0  0  0  0  0
    5.5004   -2.6988    2.0761 H   0  0  0  0  0  0  0  0  0  0  0  0
    6.0253   -3.2207    0.4784 H   0  0  0  0  0  0  0  0  0  0  0  0
    2.3717   -1.0437    0.6025 H   0  0  0  0  0  0  0  0  0  0  0  0
  1  2  2  0
  2  3  1  0
  3  4  1  0
  4  5  1  0
  5  6  1  0
  6  7  2  0
  7  8  1  0
  8  9  2  0
  9 10  1  0
  5 11  1  0
 11 12  1  0
 12 13  1  0
 13 14  1  0
 14 15  1  0
 15 16  1  0
  2 17  1  0
 17 18  2  0
 18 19  1  0
 19 20  2  0
 20 21  1  0
 20 22  1  0
 22 23  1  0
 23 24  2  0
 23 25  2  0
 23 26  1  0
 26 27  1  0
 27 28  1  0
 28 29  1  0
 29 30  1  0
 30 31  1  0
 22 32  2  0
 10  6  1  0
 16 11  1  0
 32 17  1  0
 31 26  1  0
  3 33  1  0
  4 34  1  0
  4 35  1  0
  5 36  1  0
  7 37  1  0
  8 38  1  0
  9 39  1  0
 12 40  1  0
 12 41  1  0
 13 42  1  0
 13 43  1  0
 15 44  1  0
 15 45  1  0
 16 46  1  0
 16 47  1  0
 18 48  1  0
 19 49  1  0
 27 50  1  0
 27 51  1  0
 28 52  1  0
 28 53  1  0
 30 54  1  0
 30 55  1  0
 31 56  1  0
 31 57  1  0
 32 58  1  0
M  END
$$$$
