
     RDKit          3D

 46 48  0  0  0  0  0  0  0  0999 V2000
    4.9883   -2.1377   -1.4401 C   0  0  0  0  0  0  0  0  0  0  0  0
    4.0378   -0.9996   -1.7603 C   0  0  0  0  0  0  0  0  0  0  0  0
    3.2999   -0.6285   -0.5873 O   0  0  0  0  0  0  0  0  0  0  0  0
    2.1600   -1.3431   -0.3358 C   0  0  0  0  0  0  0  0  0  0  0  0
    1.7507   -2.2405   -1.0659 O   0  0  0  0  0  0  0  0  0  0  0  0
    1.4699   -0.8662    0.9589 C   0  0  0  0  0  0  0  0  0  0  0  0
    2.2373   -1.6125    2.0741 C   0  0  0  0  0  0  0  0  0  0  0  0
    3.5513   -1.2772    2.1198 F   0  0  0  0  0  0  0  0  0  0  0  0
    1.7260   -1.3268    3.3022 F   0  0  0  0  0  0  0  0  0  0  0  0
    2.1822   -2.9603    1.9362 F   0  0  0  0  0  0  0  0  0  0  0  0
    1.6086    0.5975    1.0922 N   0  0  0  0  0  0  0  0  0  0  0  0
    0.6919    1.2702    0.5028 C   0  0  0  0  0  0  0  0  0  0  0  0
    0.7242    2.7410    0.3760 C   0  0  0  0  0  0  0  0  0  0  0  0
   -0.1640    3.4582   -0.4308 C   0  0  0  0  0  0  0  0  0  0  0  0
   -0.0628    4.8472   -0.4985 C   0  0  0  0  0  0  0  0  0  0  0  0
    0.9263    5.4737    0.2425 C   0  0  0  0  0  0  0  0  0  0  0  0
    1.8031    4.8132    1.0280 N   0  0  0  0  0  0  0  0  0  0  0  0
    1.6853    3.4619    1.0755 C   0  0  0  0  0  0  0  0  0  0  0  0
   -0.4203    0.7597   -0.0508 O   0  0  0  0  0  0  0  0  0  0  0  0
   -0.7625   -0.4809    0.3615 C   0  0  0  0  0  0  0  0  0  0  0  0
   -2.0876   -0.7945    0.1159 N   0  0  0  0  0  0  0  0  0  0  0  0
   -2.6142   -2.0655    0.6389 C   0  0  0  0  0  0  0  0  0  0  0  0
   -3.7513   -2.5845   -0.2373 C   0  0  0  0  0  0  0  0  0  0  0  0
   -4.8413   -1.5355   -0.4134 C   0  0  0  0  0  0  0  0  0  0  0  0
   -4.2411   -0.2433   -0.9519 C   0  0  0  0  0  0  0  0  0  0  0  0
   -3.0987    0.2521   -0.0686 C   0  0  0  0  0  0  0  0  0  0  0  0
    0.0607   -1.2802    0.9311 N   0  0  0  0  0  0  0  0  0  0  0  0
    4.4401   -3.0318   -1.1271 H   0  0  0  0  0  0  0  0  0  0  0  0
    5.6499   -1.8641   -0.6116 H   0  0  0  0  0  0  0  0  0  0  0  0
    5.5992   -2.3897   -2.3115 H   0  0  0  0  0  0  0  0  0  0  0  0
    3.3676   -1.2550   -2.5889 H   0  0  0  0  0  0  0  0  0  0  0  0
    4.6096   -0.1187   -2.0699 H   0  0  0  0  0  0  0  0  0  0  0  0
   -0.9279    2.9552   -1.0162 H   0  0  0  0  0  0  0  0  0  0  0  0
   -0.7376    5.4281   -1.1181 H   0  0  0  0  0  0  0  0  0  0  0  0
    1.0449    6.5537    0.2217 H   0  0  0  0  0  0  0  0  0  0  0  0
    2.4122    2.9689    1.7169 H   0  0  0  0  0  0  0  0  0  0  0  0
   -2.9623   -1.9177    1.6686 H   0  0  0  0  0  0  0  0  0  0  0  0
   -1.8377   -2.8388    0.6636 H   0  0  0  0  0  0  0  0  0  0  0  0
   -3.3549   -2.8628   -1.2220 H   0  0  0  0  0  0  0  0  0  0  0  0
   -4.1767   -3.4916    0.2064 H   0  0  0  0  0  0  0  0  0  0  0  0
   -5.3317   -1.3444    0.5488 H   0  0  0  0  0  0  0  0  0  0  0  0
   -5.6095   -1.9060   -1.1010 H   0  0  0  0  0  0  0  0  0  0  0  0
   -5.0176    0.5267   -1.0196 H   0  0  0  0  0  0  0  0  0  0  0  0
   -3.8674   -0.4145   -1.9694 H   0  0  0  0  0  0  0  0  0  0  0  0
   -3.4818    0.5616    0.9114 H   0  0  0  0  0  0  0  0  0  0  0  0
   -2.6782    1.1431   -0.5462 H   0  0  0  0  0  0  0  0  0  0  0  0
  1  2  1  0
  2  3  1  0
  3  4  1  0
  4  5  2  0
  4  6  1  0
  6  7  1  0
  7  8  1  0
  7  9  1  0
  7 10  1  0
  6 11  1  0
 11 12  2  0
 12 13  1  0
 13 14  2  0
 14 15  1  0
 15 16  2  0
 16 17  1  0
 17 18  2  0
 12 19  1  0
 19 20  1  0
 20 21  1  0
 21 22  1  0
 22 23  1  0
 23 24  1  0
 24 25  1  0
 25 26  1  0
 20 27  2  0
 27  6  1  0
 18 13  1  0
 26 21  1  0
  1 28  1  0
  1 29  1  0
  1 30  1  0
  2 31  1  0
  2 32  1  0
 14 33  1  0
 15 34  1  0
 16 35  1  0
 18 36  1  0
 22 37  1  0
 22 38  1  0
 23 39  1  0
 23 40  1  0
 24 41  1  0
 24 42  1  0
 25 43  1  0
 25 44  1  0
 26 45  1  0
 26 46  1  0
M  END
$$$$
