
     RDKit          3D

 49 51  0  0  0  0  0  0  0  0999 V2000
   -8.4176   -0.5144   -0.4262 C   0  0  0  0  0  0  0  0  0  0  0  0
   -7.5306   -0.3374    0.7804 C   0  0  0  0  0  0  0  0  0  0  0  0
   -8.0073   -0.3787    1.9143 O   0  0  0  0  0  0  0  0  0  0  0  0
   -6.1850   -0.1232    0.5427 N   0  0  0  0  0  0  0  0  0  0  0  0
   -5.5832   -0.0070   -0.7895 C   0  0  0  0  0  0  0  0  0  0  0  0
   -4.2028    0.6777   -0.7812 C   0  0  0  0  0  0  0  0  0  0  0  0
   -3.2816    0.0148    0.1538 N   0  0  0  0  0  0  0  0  0  0  0  0
   -1.9063    0.1406    0.0295 C   0  0  0  0  0  0  0  0  0  0  0  0
   -1.3103    1.1173   -0.7795 C   0  0  0  0  0  0  0  0  0  0  0  0
    0.0853    1.2428   -0.9100 C   0  0  0  0  0  0  0  0  0  0  0  0
    0.9421    0.3860   -0.2332 C   0  0  0  0  0  0  0  0  0  0  0  0
    2.3522    0.4047   -0.2825 N   0  0  0  0  0  0  0  0  0  0  0  0
    3.2757    1.2228   -0.8876 C   0  0  0  0  0  0  0  0  0  0  0  0
    3.0623    2.5997   -1.8076 S   0  0  0  0  0  0  0  0  0  0  0  0
    4.5974    0.8368   -0.6990 N   0  0  0  0  0  0  0  0  0  0  0  0
    5.1044   -0.2393    0.0188 C   0  0  0  0  0  0  0  0  0  0  0  0
    4.4079   -0.9893    0.6976 O   0  0  0  0  0  0  0  0  0  0  0  0
    6.5795   -0.4249   -0.0303 C   0  0  0  0  0  0  0  0  0  0  0  0
    7.2139   -0.9886    1.0838 C   0  0  0  0  0  0  0  0  0  0  0  0
    8.5964   -1.1796    1.0813 C   0  0  0  0  0  0  0  0  0  0  0  0
    9.3476   -0.8183   -0.0362 C   0  0  0  0  0  0  0  0  0  0  0  0
    8.7188   -0.2740   -1.1561 C   0  0  0  0  0  0  0  0  0  0  0  0
    7.3353   -0.0797   -1.1587 C   0  0  0  0  0  0  0  0  0  0  0  0
    0.3667   -0.6036    0.5692 C   0  0  0  0  0  0  0  0  0  0  0  0
   -1.0258   -0.7204    0.6962 C   0  0  0  0  0  0  0  0  0  0  0  0
   -3.8670   -0.5667    1.3784 C   0  0  0  0  0  0  0  0  0  0  0  0
   -5.2677   -0.0018    1.6778 C   0  0  0  0  0  0  0  0  0  0  0  0
   -9.4006   -0.8698   -0.1023 H   0  0  0  0  0  0  0  0  0  0  0  0
   -7.9999   -1.2600   -1.1075 H   0  0  0  0  0  0  0  0  0  0  0  0
   -8.5449    0.4429   -0.9380 H   0  0  0  0  0  0  0  0  0  0  0  0
   -6.2600    0.5416   -1.4519 H   0  0  0  0  0  0  0  0  0  0  0  0
   -5.4878   -1.0276   -1.1794 H   0  0  0  0  0  0  0  0  0  0  0  0
   -4.3151    1.7300   -0.4927 H   0  0  0  0  0  0  0  0  0  0  0  0
   -3.8142    0.6417   -1.8059 H   0  0  0  0  0  0  0  0  0  0  0  0
   -1.9196    1.8341   -1.3229 H   0  0  0  0  0  0  0  0  0  0  0  0
    0.4414    2.0293   -1.5606 H   0  0  0  0  0  0  0  0  0  0  0  0
    2.7911   -0.3355    0.2691 H   0  0  0  0  0  0  0  0  0  0  0  0
    5.2525    1.4710   -1.1350 H   0  0  0  0  0  0  0  0  0  0  0  0
    6.6338   -1.2784    1.9581 H   0  0  0  0  0  0  0  0  0  0  0  0
    9.0862   -1.6136    1.9498 H   0  0  0  0  0  0  0  0  0  0  0  0
   10.4245   -0.9711   -0.0382 H   0  0  0  0  0  0  0  0  0  0  0  0
    9.3078   -0.0107   -2.0318 H   0  0  0  0  0  0  0  0  0  0  0  0
    6.8688    0.3113   -2.0584 H   0  0  0  0  0  0  0  0  0  0  0  0
    0.9921   -1.3092    1.1123 H   0  0  0  0  0  0  0  0  0  0  0  0
   -1.4059   -1.5269    1.3172 H   0  0  0  0  0  0  0  0  0  0  0  0
   -3.2372   -0.3628    2.2529 H   0  0  0  0  0  0  0  0  0  0  0  0
   -3.9334   -1.6538    1.2504 H   0  0  0  0  0  0  0  0  0  0  0  0
   -5.6837   -0.4997    2.5601 H   0  0  0  0  0  0  0  0  0  0  0  0
   -5.1963    1.0683    1.9084 H   0  0  0  0  0  0  0  0  0  0  0  0
  1  2  1  0
  2  3  2  0
  2  4  1  0
  4  5  1  0
  5  6  1  0
  6  7  1  0
  7  8  1  0
  8  9  2  0
  9 10  1  0
 10 11  2  0
 11 12  1  0
 12 13  1  0
 13 14  2  0
 13 15  1  0
 15 16  1  0
 16 17  2  0
 16 18  1  0
 18 19  2  0
 19 20  1  0
 20 21  2  0
 21 22  1  0
 22 23  2  0
 11 24  1  0
 24 25  2  0
  7 26  1  0
 26 27  1  0
 27  4  1  0
 25  8  1  0
 23 18  1  0
  1 28  1  0
  1 29  1  0
  1 30  1  0
  5 31  1  0
  5 32  1  0
  6 33  1  0
  6 34  1  0
  9 35  1  0
 10 36  1  0
 12 37  1  0
 15 38  1  0
 19 39  1  0
 20 40  1  0
 21 41  1  0
 22 42  1  0
 23 43  1  0
 24 44  1  0
 25 45  1  0
 26 46  1  0
 26 47  1  0
 27 48  1  0
 27 49  1  0
M  END
$$$$
