
     RDKit          3D

 40 42  0  0  0  0  0  0  0  0999 V2000
    2.8215    3.7855    3.3497 C   0  0  0  0  0  0  0  0  0  0  0  0
    2.2952    2.8051    2.3160 C   0  0  0  0  0  0  0  0  0  0  0  0
    0.5283    2.4779    2.6195 S   0  0  0  0  0  0  0  0  0  0  0  0
    0.1673    1.3377    1.2900 C   0  0  0  0  0  0  0  0  0  0  0  0
   -1.1242    0.8757    1.1542 C   0  0  0  0  0  0  0  0  0  0  0  0
   -1.3812   -0.0089    0.1266 C   0  0  0  0  0  0  0  0  0  0  0  0
   -2.6608   -0.5071   -0.0898 N   0  0  0  0  0  0  0  0  0  0  0  0
   -2.8550   -1.3246   -1.2992 C   0  0  0  0  0  0  0  0  0  0  0  0
   -4.3386   -1.7048   -1.4234 C   0  0  0  0  0  0  0  0  0  0  0  0
   -4.8400   -2.4682   -0.3144 O   0  0  0  0  0  0  0  0  0  0  0  0
   -4.0739   -2.2982    0.8855 C   0  0  0  0  0  0  0  0  0  0  0  0
   -3.5037   -0.8799    1.0610 C   0  0  0  0  0  0  0  0  0  0  0  0
   -0.3990   -0.3674   -0.7172 N   0  0  0  0  0  0  0  0  0  0  0  0
    0.8363    0.1269   -0.5155 C   0  0  0  0  0  0  0  0  0  0  0  0
    1.9055   -0.2914   -1.4471 C   0  0  0  0  0  0  0  0  0  0  0  0
    1.6486   -1.1801   -2.5110 C   0  0  0  0  0  0  0  0  0  0  0  0
    2.6585   -1.5785   -3.3950 C   0  0  0  0  0  0  0  0  0  0  0  0
    3.9513   -1.0928   -3.2309 C   0  0  0  0  0  0  0  0  0  0  0  0
    5.1945   -1.5799   -4.3148 Cl  0  0  0  0  0  0  0  0  0  0  0  0
    4.2414   -0.2144   -2.1925 C   0  0  0  0  0  0  0  0  0  0  0  0
    3.2273    0.1804   -1.3116 C   0  0  0  0  0  0  0  0  0  0  0  0
    1.1633    0.9710    0.4733 N   0  0  0  0  0  0  0  0  0  0  0  0
    2.7268    3.3884    4.3662 H   0  0  0  0  0  0  0  0  0  0  0  0
    2.2951    4.7447    3.2992 H   0  0  0  0  0  0  0  0  0  0  0  0
    3.8837    3.9816    3.1692 H   0  0  0  0  0  0  0  0  0  0  0  0
    2.4249    3.2268    1.3141 H   0  0  0  0  0  0  0  0  0  0  0  0
    2.8596    1.8692    2.3804 H   0  0  0  0  0  0  0  0  0  0  0  0
   -1.9077    1.2181    1.8167 H   0  0  0  0  0  0  0  0  0  0  0  0
   -2.5594   -0.7631   -2.1934 H   0  0  0  0  0  0  0  0  0  0  0  0
   -2.2488   -2.2374   -1.2382 H   0  0  0  0  0  0  0  0  0  0  0  0
   -4.9557   -0.8022   -1.5038 H   0  0  0  0  0  0  0  0  0  0  0  0
   -4.5031   -2.2960   -2.3298 H   0  0  0  0  0  0  0  0  0  0  0  0
   -3.2640   -3.0373    0.8747 H   0  0  0  0  0  0  0  0  0  0  0  0
   -4.7266   -2.5458    1.7288 H   0  0  0  0  0  0  0  0  0  0  0  0
   -4.3280   -0.1598    1.1201 H   0  0  0  0  0  0  0  0  0  0  0  0
   -2.9564   -0.8504    2.0099 H   0  0  0  0  0  0  0  0  0  0  0  0
    0.6437   -1.5736   -2.6595 H   0  0  0  0  0  0  0  0  0  0  0  0
    2.4249   -2.2651   -4.2043 H   0  0  0  0  0  0  0  0  0  0  0  0
    5.2495    0.1688   -2.0588 H   0  0  0  0  0  0  0  0  0  0  0  0
    3.4793    0.8693   -0.5064 H   0  0  0  0  0  0  0  0  0  0  0  0
  1  2  1  0
  2  3  1  0
  3  4  1  0
  4  5  2  0
  5  6  1  0
  6  7  1  0
  7  8  1  0
  8  9  1  0
  9 10  1  0
 10 11  1  0
 11 12  1  0
  6 13  2  0
 13 14  1  0
 14 15  1  0
 15 16  2  0
 16 17  1  0
 17 18  2  0
 18 19  1  0
 18 20  1  0
 20 21  2  0
 14 22  2  0
 22  4  1  0
 12  7  1  0
 21 15  1  0
  1 23  1  0
  1 24  1  0
  1 25  1  0
  2 26  1  0
  2 27  1  0
  5 28  1  0
  8 29  1  0
  8 30  1  0
  9 31  1  0
  9 32  1  0
 11 33  1  0
 11 34  1  0
 12 35  1  0
 12 36  1  0
 16 37  1  0
 17 38  1  0
 20 39  1  0
 21 40  1  0
M  END
$$$$
