
     RDKit          3D

 47 49  0  0  0  0  0  0  0  0999 V2000
   -7.7632    1.7459   -2.3811 C   0  0  0  0  0  0  0  0  0  0  0  0
   -6.9298    1.4800   -1.2628 O   0  0  0  0  0  0  0  0  0  0  0  0
   -5.6477    1.0554   -1.5098 C   0  0  0  0  0  0  0  0  0  0  0  0
   -5.1133    0.8551   -2.7867 C   0  0  0  0  0  0  0  0  0  0  0  0
   -3.7939    0.4208   -2.9413 C   0  0  0  0  0  0  0  0  0  0  0  0
   -2.9917    0.1856   -1.8231 C   0  0  0  0  0  0  0  0  0  0  0  0
   -1.6188   -0.2952   -2.0153 C   0  0  0  0  0  0  0  0  0  0  0  0
   -0.4983    0.3315   -1.6309 C   0  0  0  0  0  0  0  0  0  0  0  0
   -0.3445    1.8482   -0.8439 S   0  0  0  0  0  0  0  0  0  0  0  0
    1.4123    1.7495   -0.7870 C   0  0  0  0  0  0  0  0  0  0  0  0
    2.3408    2.9753   -0.1390 S   0  0  0  0  0  0  0  0  0  0  0  0
    1.8341    0.5683   -1.3657 N   0  0  0  0  0  0  0  0  0  0  0  0
    3.2286    0.1242   -1.4611 C   0  0  0  0  0  0  0  0  0  0  0  0
    3.5596   -1.0419   -0.5346 C   0  0  0  0  0  0  0  0  0  0  0  0
    3.4689   -0.6152    0.9095 C   0  0  0  0  0  0  0  0  0  0  0  0
    2.3901   -0.5759    1.4941 O   0  0  0  0  0  0  0  0  0  0  0  0
    4.6523   -0.1896    1.4498 N   0  0  0  0  0  0  0  0  0  0  0  0
    5.2517   -0.9736    2.2789 C   0  0  0  0  0  0  0  0  0  0  0  0
    6.4123   -0.6357    2.9111 N   0  0  0  0  0  0  0  0  0  0  0  0
    7.1512   -1.7297    3.5011 C   0  0  0  0  0  0  0  0  0  0  0  0
    6.1087   -2.7461    3.9562 C   0  0  0  0  0  0  0  0  0  0  0  0
    4.7849   -2.6152    2.7109 S   0  0  0  0  0  0  0  0  0  0  0  0
    0.8448   -0.2532   -1.8794 C   0  0  0  0  0  0  0  0  0  0  0  0
    1.0278   -1.3105   -2.4689 O   0  0  0  0  0  0  0  0  0  0  0  0
   -3.5268    0.3716   -0.5421 C   0  0  0  0  0  0  0  0  0  0  0  0
   -4.8451    0.8152   -0.3766 C   0  0  0  0  0  0  0  0  0  0  0  0
   -5.4423    1.0262    0.8426 O   0  0  0  0  0  0  0  0  0  0  0  0
   -4.6118    0.9830    1.9948 C   0  0  0  0  0  0  0  0  0  0  0  0
   -7.3543    2.5545   -2.9957 H   0  0  0  0  0  0  0  0  0  0  0  0
   -7.9283    0.8409   -2.9748 H   0  0  0  0  0  0  0  0  0  0  0  0
   -8.7355    2.0760   -2.0027 H   0  0  0  0  0  0  0  0  0  0  0  0
   -5.6973    1.0275   -3.6841 H   0  0  0  0  0  0  0  0  0  0  0  0
   -3.4002    0.2719   -3.9445 H   0  0  0  0  0  0  0  0  0  0  0  0
   -1.5461   -1.2505   -2.5342 H   0  0  0  0  0  0  0  0  0  0  0  0
    3.3950   -0.1998   -2.4961 H   0  0  0  0  0  0  0  0  0  0  0  0
    3.9134    0.9565   -1.2769 H   0  0  0  0  0  0  0  0  0  0  0  0
    2.8835   -1.8908   -0.6810 H   0  0  0  0  0  0  0  0  0  0  0  0
    4.5729   -1.4053   -0.7406 H   0  0  0  0  0  0  0  0  0  0  0  0
    6.9144    0.1560    2.5286 H   0  0  0  0  0  0  0  0  0  0  0  0
    7.8211   -2.1692    2.7524 H   0  0  0  0  0  0  0  0  0  0  0  0
    7.7615   -1.3861    4.3418 H   0  0  0  0  0  0  0  0  0  0  0  0
    5.6948   -2.4690    4.9310 H   0  0  0  0  0  0  0  0  0  0  0  0
    6.5139   -3.7596    4.0129 H   0  0  0  0  0  0  0  0  0  0  0  0
   -2.9002    0.1560    0.3174 H   0  0  0  0  0  0  0  0  0  0  0  0
   -5.2212    1.2710    2.8568 H   0  0  0  0  0  0  0  0  0  0  0  0
   -3.7856    1.6980    1.9185 H   0  0  0  0  0  0  0  0  0  0  0  0
   -4.2429   -0.0321    2.1741 H   0  0  0  0  0  0  0  0  0  0  0  0
  1  2  1  0
  2  3  1  0
  3  4  2  0
  4  5  1  0
  5  6  2  0
  6  7  1  0
  7  8  2  3
  8  9  1  0
  9 10  1  0
 10 11  2  0
 10 12  1  0
 12 13  1  0
 13 14  1  0
 14 15  1  0
 15 16  2  0
 15 17  1  0
 17 18  2  3
 18 19  1  0
 19 20  1  0
 20 21  1  0
 21 22  1  0
 12 23  1  0
 23 24  2  0
  6 25  1  0
 25 26  2  0
 26 27  1  0
 27 28  1  0
 26  3  1  0
 23  8  1  0
 22 18  1  0
  1 29  1  0
  1 30  1  0
  1 31  1  0
  4 32  1  0
  5 33  1  0
  7 34  1  0
 13 35  1  0
 13 36  1  0
 14 37  1  0
 14 38  1  0
 19 39  1  0
 20 40  1  0
 20 41  1  0
 21 42  1  0
 21 43  1  0
 25 44  1  0
 28 45  1  0
 28 46  1  0
 28 47  1  0
M  END
$$$$
