
     RDKit          3D

 43 45  0  0  0  0  0  0  0  0999 V2000
    3.7023   -1.8758   -1.1505 N   0  0  0  0  0  0  0  0  0  0  0  0
    2.9584   -0.9852   -1.1662 C   0  0  0  0  0  0  0  0  0  0  0  0
    2.1138    0.1525   -1.2180 C   0  0  0  0  0  0  0  0  0  0  0  0
    0.8157    0.1453   -0.8584 C   0  0  0  0  0  0  0  0  0  0  0  0
    0.0685   -0.9734   -0.3869 C   0  0  0  0  0  0  0  0  0  0  0  0
    0.2152   -2.3468   -0.5444 C   0  0  0  0  0  0  0  0  0  0  0  0
   -0.8447   -2.9864    0.1466 C   0  0  0  0  0  0  0  0  0  0  0  0
   -1.6143   -1.9859    0.6935 C   0  0  0  0  0  0  0  0  0  0  0  0
   -2.8304   -1.9508    1.5033 C   0  0  0  0  0  0  0  0  0  0  0  0
   -3.5055   -3.1393    1.8289 C   0  0  0  0  0  0  0  0  0  0  0  0
   -4.6705   -3.1183    2.6032 C   0  0  0  0  0  0  0  0  0  0  0  0
   -5.1732   -1.8976    3.0544 C   0  0  0  0  0  0  0  0  0  0  0  0
   -6.6451   -1.8527    4.0416 S   0  0  0  0  0  6  0  0  0  0  0  0
   -7.8102   -1.4588    2.8912 N   0  0  0  0  0  0  0  0  0  0  0  0
   -6.9573   -3.1993    4.4625 O   0  0  0  0  0  0  0  0  0  0  0  0
   -6.5395   -0.7516    4.9680 O   0  0  0  0  0  0  0  0  0  0  0  0
   -4.5140   -0.7043    2.7570 C   0  0  0  0  0  0  0  0  0  0  0  0
   -3.3513   -0.7360    1.9812 C   0  0  0  0  0  0  0  0  0  0  0  0
   -1.0720   -0.7802    0.3633 O   0  0  0  0  0  0  0  0  0  0  0  0
    2.6791    1.4758   -1.6774 C   0  0  0  0  0  0  0  0  0  0  0  0
    1.9354    2.4466   -1.7926 O   0  0  0  0  0  0  0  0  0  0  0  0
    4.0398    1.4775   -1.9403 N   0  0  0  0  0  0  0  0  0  0  0  0
    4.8266    2.5662   -2.3848 C   0  0  0  0  0  0  0  0  0  0  0  0
    6.1940    2.3224   -2.5796 C   0  0  0  0  0  0  0  0  0  0  0  0
    7.0475    3.3388   -3.0174 C   0  0  0  0  0  0  0  0  0  0  0  0
    6.5427    4.6112   -3.2663 C   0  0  0  0  0  0  0  0  0  0  0  0
    5.1867    4.8643   -3.0764 C   0  0  0  0  0  0  0  0  0  0  0  0
    4.3320    3.8469   -2.6374 C   0  0  0  0  0  0  0  0  0  0  0  0
    0.2508    1.0767   -0.8835 H   0  0  0  0  0  0  0  0  0  0  0  0
    0.9890   -2.8557   -1.1025 H   0  0  0  0  0  0  0  0  0  0  0  0
   -1.0179   -4.0501    0.2246 H   0  0  0  0  0  0  0  0  0  0  0  0
   -3.1300   -4.1013    1.4869 H   0  0  0  0  0  0  0  0  0  0  0  0
   -5.1686   -4.0538    2.8496 H   0  0  0  0  0  0  0  0  0  0  0  0
   -7.4157   -1.1881    1.9914 H   0  0  0  0  0  0  0  0  0  0  0  0
   -8.4645   -2.2385    2.8036 H   0  0  0  0  0  0  0  0  0  0  0  0
   -4.8896    0.2478    3.1276 H   0  0  0  0  0  0  0  0  0  0  0  0
   -2.8470    0.2033    1.7590 H   0  0  0  0  0  0  0  0  0  0  0  0
    4.5665    0.6216   -1.8073 H   0  0  0  0  0  0  0  0  0  0  0  0
    6.6186    1.3390   -2.3935 H   0  0  0  0  0  0  0  0  0  0  0  0
    8.1054    3.1360   -3.1623 H   0  0  0  0  0  0  0  0  0  0  0  0
    7.2028    5.4048   -3.6069 H   0  0  0  0  0  0  0  0  0  0  0  0
    4.7864    5.8567   -3.2693 H   0  0  0  0  0  0  0  0  0  0  0  0
    3.2844    4.0963   -2.5046 H   0  0  0  0  0  0  0  0  0  0  0  0
  1  2  3  0
  2  3  1  0
  3  4  2  3
  4  5  1  0
  5  6  2  0
  6  7  1  0
  7  8  2  0
  8  9  1  0
  9 10  2  0
 10 11  1  0
 11 12  2  0
 12 13  1  0
 13 14  1  0
 13 15  2  0
 13 16  2  0
 12 17  1  0
 17 18  2  0
  8 19  1  0
  3 20  1  0
 20 21  2  0
 20 22  1  0
 22 23  1  0
 23 24  2  0
 24 25  1  0
 25 26  2  0
 26 27  1  0
 27 28  2  0
 19  5  1  0
 28 23  1  0
 18  9  1  0
  4 29  1  0
  6 30  1  0
  7 31  1  0
 10 32  1  0
 11 33  1  0
 14 34  1  0
 14 35  1  0
 17 36  1  0
 18 37  1  0
 22 38  1  0
 24 39  1  0
 25 40  1  0
 26 41  1  0
 27 42  1  0
 28 43  1  0
M  END
$$$$
