
     RDKit          3D

 41 43  0  0  0  0  0  0  0  0999 V2000
   -5.5344   -0.3985    3.2096 C   0  0  0  0  0  0  0  0  0  0  0  0
   -4.2480   -0.1380    2.6637 O   0  0  0  0  0  0  0  0  0  0  0  0
   -4.0990   -0.2976    1.3130 C   0  0  0  0  0  0  0  0  0  0  0  0
   -5.0962   -0.6949    0.4237 C   0  0  0  0  0  0  0  0  0  0  0  0
   -4.8149   -0.8253   -0.9411 C   0  0  0  0  0  0  0  0  0  0  0  0
   -3.5326   -0.5574   -1.4250 C   0  0  0  0  0  0  0  0  0  0  0  0
   -3.1504   -0.6556   -2.7433 O   0  0  0  0  0  0  0  0  0  0  0  0
   -4.1412   -1.0737   -3.6747 C   0  0  0  0  0  0  0  0  0  0  0  0
   -2.5217   -0.1509   -0.5299 C   0  0  0  0  0  0  0  0  0  0  0  0
   -1.2461    0.0994   -1.0814 N   0  0  0  0  0  0  0  0  0  0  0  0
   -0.1238    0.5805   -0.4565 C   0  0  0  0  0  0  0  0  0  0  0  0
   -0.0129    0.9451    0.7106 O   0  0  0  0  0  0  0  0  0  0  0  0
    0.9555    0.6487   -1.3299 N   0  0  0  0  0  0  0  0  0  0  0  0
    2.2067    0.9484   -0.7212 N   0  0  0  0  0  0  0  0  0  0  0  0
    3.2571    0.0948   -1.0190 C   0  0  0  0  0  0  0  0  0  0  0  0
    3.1626   -0.7355   -1.9227 O   0  0  0  0  0  0  0  0  0  0  0  0
    4.4343    0.2435   -0.1821 C   0  0  0  0  0  0  0  0  0  0  0  0
    5.5234   -0.6281   -0.1314 C   0  0  0  0  0  0  0  0  0  0  0  0
    6.3889   -0.0531    0.8081 C   0  0  0  0  0  0  0  0  0  0  0  0
    7.5963   -0.3243    1.3650 O   0  0  0  0  0  0  0  0  0  0  0  0
    7.8157    0.7142    2.2241 C   0  0  0  0  0  0  0  0  0  0  0  0
    6.7911    1.6352    2.2302 C   0  0  0  0  0  0  0  0  0  0  0  0
    5.8847    1.0958    1.2958 C   0  0  0  0  0  0  0  0  0  0  0  0
    4.6774    1.3024    0.6864 N   0  0  0  0  0  0  0  0  0  0  0  0
   -2.8139   -0.0277    0.8306 C   0  0  0  0  0  0  0  0  0  0  0  0
   -5.4814   -0.2248    4.2886 H   0  0  0  0  0  0  0  0  0  0  0  0
   -5.8249   -1.4428    3.0544 H   0  0  0  0  0  0  0  0  0  0  0  0
   -6.2837    0.2861    2.7986 H   0  0  0  0  0  0  0  0  0  0  0  0
   -6.1050   -0.9131    0.7586 H   0  0  0  0  0  0  0  0  0  0  0  0
   -5.6216   -1.1384   -1.5953 H   0  0  0  0  0  0  0  0  0  0  0  0
   -3.6761   -1.1043   -4.6648 H   0  0  0  0  0  0  0  0  0  0  0  0
   -4.9687   -0.3581   -3.7182 H   0  0  0  0  0  0  0  0  0  0  0  0
   -4.4991   -2.0825   -3.4443 H   0  0  0  0  0  0  0  0  0  0  0  0
   -1.2025   -0.0168   -2.0868 H   0  0  0  0  0  0  0  0  0  0  0  0
    1.0241   -0.0948   -2.0251 H   0  0  0  0  0  0  0  0  0  0  0  0
    2.1102    1.2965    0.2315 H   0  0  0  0  0  0  0  0  0  0  0  0
    5.6512   -1.5410   -0.6963 H   0  0  0  0  0  0  0  0  0  0  0  0
    8.7522    0.6561    2.7628 H   0  0  0  0  0  0  0  0  0  0  0  0
    6.7241    2.5393    2.8160 H   0  0  0  0  0  0  0  0  0  0  0  0
    4.0986    2.1163    0.8539 H   0  0  0  0  0  0  0  0  0  0  0  0
   -2.0557    0.2750    1.5461 H   0  0  0  0  0  0  0  0  0  0  0  0
  1  2  1  0
  2  3  1  0
  3  4  2  0
  4  5  1  0
  5  6  2  0
  6  7  1  0
  7  8  1  0
  6  9  1  0
  9 10  1  0
 10 11  1  0
 11 12  2  0
 11 13  1  0
 13 14  1  0
 14 15  1  0
 15 16  2  0
 15 17  1  0
 17 18  2  0
 18 19  1  0
 19 20  1  0
 20 21  1  0
 21 22  2  0
 22 23  1  0
 23 24  1  0
  9 25  2  0
 25  3  1  0
 24 17  1  0
 23 19  2  0
  1 26  1  0
  1 27  1  0
  1 28  1  0
  4 29  1  0
  5 30  1  0
  8 31  1  0
  8 32  1  0
  8 33  1  0
 10 34  1  0
 13 35  1  0
 14 36  1  0
 18 37  1  0
 21 38  1  0
 22 39  1  0
 24 40  1  0
 25 41  1  0
M  END
$$$$
