
     RDKit          3D

 51 53  0  0  0  0  0  0  0  0999 V2000
   -6.0076    1.3477    1.1077 C   0  0  0  0  0  0  0  0  0  0  0  0
   -5.1835    0.5127    0.1665 C   0  0  0  0  0  0  0  0  0  0  0  0
   -4.5565    1.1256   -0.9281 C   0  0  0  0  0  0  0  0  0  0  0  0
   -3.7818    0.3838   -1.8256 C   0  0  0  0  0  0  0  0  0  0  0  0
   -3.6224   -0.9864   -1.6422 C   0  0  0  0  0  0  0  0  0  0  0  0
   -2.8865   -1.8312   -2.4278 O   0  0  0  0  0  0  0  0  0  0  0  0
   -2.3141   -1.3210   -3.6362 C   0  0  0  0  0  0  0  0  0  0  0  0
   -1.0309   -0.6540   -3.3212 C   0  0  0  0  0  0  0  0  0  0  0  0
   -0.0575   -0.8349   -2.3697 C   0  0  0  0  0  0  0  0  0  0  0  0
    0.8844    0.1947   -2.6220 C   0  0  0  0  0  0  0  0  0  0  0  0
    2.1150    0.4827   -1.8859 C   0  0  0  0  0  0  0  0  0  0  0  0
    3.2163    0.3195   -2.4104 O   0  0  0  0  0  0  0  0  0  0  0  0
    1.9866    0.9026   -0.5520 N   0  0  0  0  0  0  0  0  0  0  0  0
    0.7142    1.0950    0.1316 C   0  0  0  0  0  0  0  0  0  0  0  0
    3.2000    0.9633    0.2644 C   0  0  0  0  0  0  0  0  0  0  0  0
    3.5516   -0.3968    0.8761 C   0  0  0  0  0  0  0  0  0  0  0  0
    4.7931   -0.3229    1.7283 C   0  0  0  0  0  0  0  0  0  0  0  0
    6.0609   -0.4065    1.1366 C   0  0  0  0  0  0  0  0  0  0  0  0
    7.2130   -0.3179    1.9189 C   0  0  0  0  0  0  0  0  0  0  0  0
    7.1088   -0.1420    3.2972 C   0  0  0  0  0  0  0  0  0  0  0  0
    5.8526   -0.0534    3.8946 C   0  0  0  0  0  0  0  0  0  0  0  0
    4.6986   -0.1413    3.1142 C   0  0  0  0  0  0  0  0  0  0  0  0
    0.5162    0.9243   -3.6879 N   0  0  0  0  0  0  0  0  0  0  0  0
   -0.6856    0.3925   -4.1167 O   0  0  0  0  0  0  0  0  0  0  0  0
   -4.2377   -1.6021   -0.5485 C   0  0  0  0  0  0  0  0  0  0  0  0
   -5.0168   -0.8704    0.3634 C   0  0  0  0  0  0  0  0  0  0  0  0
   -5.6642   -1.5847    1.5178 C   0  0  0  0  0  0  0  0  0  0  0  0
   -5.5533    1.3559    2.1035 H   0  0  0  0  0  0  0  0  0  0  0  0
   -7.0273    0.9552    1.1738 H   0  0  0  0  0  0  0  0  0  0  0  0
   -6.0790    2.3860    0.7664 H   0  0  0  0  0  0  0  0  0  0  0  0
   -4.6669    2.1958   -1.0935 H   0  0  0  0  0  0  0  0  0  0  0  0
   -3.3160    0.9178   -2.6473 H   0  0  0  0  0  0  0  0  0  0  0  0
   -2.1117   -2.1839   -4.2804 H   0  0  0  0  0  0  0  0  0  0  0  0
   -3.0154   -0.6812   -4.1831 H   0  0  0  0  0  0  0  0  0  0  0  0
   -0.0371   -1.5846   -1.5929 H   0  0  0  0  0  0  0  0  0  0  0  0
    0.4536    0.1712    0.6553 H   0  0  0  0  0  0  0  0  0  0  0  0
    0.8093    1.9107    0.8543 H   0  0  0  0  0  0  0  0  0  0  0  0
   -0.0840    1.3570   -0.5661 H   0  0  0  0  0  0  0  0  0  0  0  0
    3.0596    1.7212    1.0446 H   0  0  0  0  0  0  0  0  0  0  0  0
    4.0303    1.3149   -0.3603 H   0  0  0  0  0  0  0  0  0  0  0  0
    3.6967   -1.1460    0.0871 H   0  0  0  0  0  0  0  0  0  0  0  0
    2.7127   -0.7669    1.4792 H   0  0  0  0  0  0  0  0  0  0  0  0
    6.1572   -0.5393    0.0604 H   0  0  0  0  0  0  0  0  0  0  0  0
    8.1921   -0.3848    1.4512 H   0  0  0  0  0  0  0  0  0  0  0  0
    8.0068   -0.0730    3.9053 H   0  0  0  0  0  0  0  0  0  0  0  0
    5.7721    0.0850    4.9696 H   0  0  0  0  0  0  0  0  0  0  0  0
    3.7266   -0.0678    3.5962 H   0  0  0  0  0  0  0  0  0  0  0  0
   -4.1056   -2.6737   -0.4106 H   0  0  0  0  0  0  0  0  0  0  0  0
   -5.3576   -1.1335    2.4669 H   0  0  0  0  0  0  0  0  0  0  0  0
   -6.7541   -1.5407    1.4271 H   0  0  0  0  0  0  0  0  0  0  0  0
   -5.3754   -2.6407    1.5504 H   0  0  0  0  0  0  0  0  0  0  0  0
  1  2  1  0
  2  3  2  0
  3  4  1  0
  4  5  2  0
  5  6  1  0
  6  7  1  0
  7  8  1  0
  8  9  2  0
  9 10  1  0
 10 11  1  0
 11 12  2  0
 11 13  1  0
 13 14  1  0
 13 15  1  0
 15 16  1  0
 16 17  1  0
 17 18  2  0
 18 19  1  0
 19 20  2  0
 20 21  1  0
 21 22  2  0
 10 23  2  0
 23 24  1  0
  5 25  1  0
 25 26  2  0
 26 27  1  0
 26  2  1  0
 24  8  1  0
 22 17  1  0
  1 28  1  0
  1 29  1  0
  1 30  1  0
  3 31  1  0
  4 32  1  0
  7 33  1  0
  7 34  1  0
  9 35  1  0
 14 36  1  0
 14 37  1  0
 14 38  1  0
 15 39  1  0
 15 40  1  0
 16 41  1  0
 16 42  1  0
 18 43  1  0
 19 44  1  0
 20 45  1  0
 21 46  1  0
 22 47  1  0
 25 48  1  0
 27 49  1  0
 27 50  1  0
 27 51  1  0
M  END
$$$$
