
     RDKit          3D

 47 50  0  0  0  0  0  0  0  0999 V2000
   -1.2693    0.9992    0.7748 O   0  0  0  0  0  0  0  0  0  0  0  0
   -1.8168    0.0455    0.2565 C   0  0  0  0  0  0  0  0  0  0  0  0
   -3.1941    0.0589   -0.2293 C   0  0  0  0  0  0  0  0  0  0  0  0
   -4.1018    1.0946   -0.3289 C   0  0  0  0  0  0  0  0  0  0  0  0
   -5.3738    0.7819   -0.8190 C   0  0  0  0  0  0  0  0  0  0  0  0
   -5.7041   -0.5402   -1.1844 C   0  0  0  0  0  0  0  0  0  0  0  0
   -4.7680   -1.5726   -1.0660 C   0  0  0  0  0  0  0  0  0  0  0  0
   -3.5174   -1.2362   -0.5871 C   0  0  0  0  0  0  0  0  0  0  0  0
   -2.3440   -2.0668   -0.3273 C   0  0  0  0  0  0  0  0  0  0  0  0
   -2.3415   -3.2797   -0.4132 O   0  0  0  0  0  0  0  0  0  0  0  0
   -1.3460   -1.2235    0.0754 N   0  0  0  0  0  0  0  0  0  0  0  0
   -0.0395   -1.6654    0.5097 C   0  0  0  0  0  0  0  0  0  0  0  0
    1.0575   -1.3002   -0.3996 N   0  0  0  0  0  0  0  0  0  0  0  0
    2.1129   -0.4649    0.0269 C   0  0  0  0  0  0  0  0  0  0  0  0
    3.2632   -0.5787   -0.4092 O   0  0  0  0  0  0  0  0  0  0  0  0
    1.7732    0.6529    1.0279 C   0  0  0  0  0  0  0  0  0  0  0  0
    2.9431    1.3801    1.3961 O   0  0  0  0  0  0  0  0  0  0  0  0
    2.7722    2.4275    2.2593 C   0  0  0  0  0  0  0  0  0  0  0  0
    3.9581    3.0403    2.6725 C   0  0  0  0  0  0  0  0  0  0  0  0
    3.9305    4.1220    3.5540 C   0  0  0  0  0  0  0  0  0  0  0  0
    2.7111    4.6006    4.0264 C   0  0  0  0  0  0  0  0  0  0  0  0
    1.5235    3.9978    3.6150 C   0  0  0  0  0  0  0  0  0  0  0  0
    1.5517    2.9133    2.7323 C   0  0  0  0  0  0  0  0  0  0  0  0
    1.1551   -1.9671   -1.6797 C   0  0  0  0  0  0  0  0  0  0  0  0
    1.8771   -1.3752   -2.7347 C   0  0  0  0  0  0  0  0  0  0  0  0
    1.9587   -1.9758   -3.9961 C   0  0  0  0  0  0  0  0  0  0  0  0
    1.3121   -3.1788   -4.2226 C   0  0  0  0  0  0  0  0  0  0  0  0
    1.3838   -3.7561   -5.4284 F   0  0  0  0  0  0  0  0  0  0  0  0
    0.5891   -3.7890   -3.2104 C   0  0  0  0  0  0  0  0  0  0  0  0
    0.5107   -3.1857   -1.9483 C   0  0  0  0  0  0  0  0  0  0  0  0
   -3.8379    2.1062   -0.0382 H   0  0  0  0  0  0  0  0  0  0  0  0
   -6.1220    1.5670   -0.9179 H   0  0  0  0  0  0  0  0  0  0  0  0
   -6.7027   -0.7580   -1.5603 H   0  0  0  0  0  0  0  0  0  0  0  0
   -5.0116   -2.5949   -1.3369 H   0  0  0  0  0  0  0  0  0  0  0  0
    0.1288   -1.2495    1.5040 H   0  0  0  0  0  0  0  0  0  0  0  0
   -0.0328   -2.7499    0.6626 H   0  0  0  0  0  0  0  0  0  0  0  0
    1.3398    0.2283    1.9344 H   0  0  0  0  0  0  0  0  0  0  0  0
    1.0859    1.3270    0.5103 H   0  0  0  0  0  0  0  0  0  0  0  0
    4.9112    2.6694    2.3028 H   0  0  0  0  0  0  0  0  0  0  0  0
    4.8601    4.5890    3.8678 H   0  0  0  0  0  0  0  0  0  0  0  0
    2.6858    5.4439    4.7114 H   0  0  0  0  0  0  0  0  0  0  0  0
    0.5706    4.3741    3.9782 H   0  0  0  0  0  0  0  0  0  0  0  0
    0.6034    2.4799    2.4302 H   0  0  0  0  0  0  0  0  0  0  0  0
    2.3810   -0.4195   -2.6057 H   0  0  0  0  0  0  0  0  0  0  0  0
    2.5223   -1.5053   -4.7953 H   0  0  0  0  0  0  0  0  0  0  0  0
    0.0931   -4.7361   -3.3996 H   0  0  0  0  0  0  0  0  0  0  0  0
   -0.0419   -3.7304   -1.1907 H   0  0  0  0  0  0  0  0  0  0  0  0
  1  2  2  0
  2  3  1  0
  3  4  2  0
  4  5  1  0
  5  6  2  0
  6  7  1  0
  7  8  2  0
  8  9  1  0
  9 10  2  0
  9 11  1  0
 11 12  1  0
 12 13  1  0
 13 14  1  0
 14 15  2  0
 14 16  1  0
 16 17  1  0
 17 18  1  0
 18 19  2  0
 19 20  1  0
 20 21  2  0
 21 22  1  0
 22 23  2  0
 13 24  1  0
 24 25  2  0
 25 26  1  0
 26 27  2  0
 27 28  1  0
 27 29  1  0
 29 30  2  0
 11  2  1  0
 23 18  1  0
 30 24  1  0
  8  3  1  0
  4 31  1  0
  5 32  1  0
  6 33  1  0
  7 34  1  0
 12 35  1  0
 12 36  1  0
 16 37  1  0
 16 38  1  0
 19 39  1  0
 20 40  1  0
 21 41  1  0
 22 42  1  0
 23 43  1  0
 25 44  1  0
 26 45  1  0
 29 46  1  0
 30 47  1  0
M  END
$$$$
