
     RDKit          3D

 47 50  0  0  0  0  0  0  0  0999 V2000
   -5.7024    0.6090    2.2294 C   0  0  0  0  0  0  0  0  0  0  0  0
   -5.8783    1.1915    0.8332 C   0  0  0  0  0  0  0  0  0  0  0  0
   -5.1043    0.4473   -0.1710 N   0  0  0  0  0  0  0  0  0  0  0  0
   -5.8748   -0.3847   -1.1055 C   0  0  0  0  0  0  0  0  0  0  0  0
   -6.1401   -1.7680   -0.5314 C   0  0  0  0  0  0  0  0  0  0  0  0
   -3.7172    0.5307   -0.2458 C   0  0  0  0  0  0  0  0  0  0  0  0
   -2.9488   -0.3813   -0.9902 C   0  0  0  0  0  0  0  0  0  0  0  0
   -1.5496   -0.3038   -1.0691 C   0  0  0  0  0  0  0  0  0  0  0  0
   -0.8607    0.6987   -0.3921 C   0  0  0  0  0  0  0  0  0  0  0  0
    0.5975    0.8135   -0.4656 C   0  0  0  0  0  0  0  0  0  0  0  0
    1.4800   -0.0587    0.0413 C   0  0  0  0  0  0  0  0  0  0  0  0
    1.1363   -1.5289    0.9237 S   0  0  0  0  0  0  0  0  0  0  0  0
    2.8199   -1.8098    1.0894 C   0  0  0  0  0  0  0  0  0  0  0  0
    3.5456   -2.7096    1.6882 N   0  0  0  0  0  0  0  0  0  0  0  0
    4.8660   -2.3414    1.4647 N   0  0  0  0  0  0  0  0  0  0  0  0
    4.8854   -1.2435    0.7160 C   0  0  0  0  0  0  0  0  0  0  0  0
    6.0725   -0.5451    0.2404 C   0  0  0  0  0  0  0  0  0  0  0  0
    6.9601   -0.0159    1.1910 C   0  0  0  0  0  0  0  0  0  0  0  0
    8.1114    0.6658    0.7905 C   0  0  0  0  0  0  0  0  0  0  0  0
    8.3953    0.8180   -0.5645 C   0  0  0  0  0  0  0  0  0  0  0  0
    7.5344    0.2790   -1.5206 C   0  0  0  0  0  0  0  0  0  0  0  0
    6.3810   -0.4057   -1.1230 C   0  0  0  0  0  0  0  0  0  0  0  0
    5.3938   -1.0985   -2.3658 Cl  0  0  0  0  0  0  0  0  0  0  0  0
    3.5860   -0.8642    0.5026 N   0  0  0  0  0  0  0  0  0  0  0  0
    2.9450    0.1917   -0.0952 C   0  0  0  0  0  0  0  0  0  0  0  0
    3.5320    1.1324   -0.5949 O   0  0  0  0  0  0  0  0  0  0  0  0
   -1.5904    1.6255    0.3461 C   0  0  0  0  0  0  0  0  0  0  0  0
   -2.9894    1.5348    0.4163 C   0  0  0  0  0  0  0  0  0  0  0  0
   -4.6663    0.6737    2.5739 H   0  0  0  0  0  0  0  0  0  0  0  0
   -6.3266    1.1542    2.9446 H   0  0  0  0  0  0  0  0  0  0  0  0
   -5.9962   -0.4446    2.2596 H   0  0  0  0  0  0  0  0  0  0  0  0
   -5.6249    2.2573    0.8190 H   0  0  0  0  0  0  0  0  0  0  0  0
   -6.9473    1.1529    0.5890 H   0  0  0  0  0  0  0  0  0  0  0  0
   -6.8372    0.0961   -1.3222 H   0  0  0  0  0  0  0  0  0  0  0  0
   -5.3820   -0.4613   -2.0816 H   0  0  0  0  0  0  0  0  0  0  0  0
   -6.7614   -1.7085    0.3676 H   0  0  0  0  0  0  0  0  0  0  0  0
   -5.2123   -2.2819   -0.2628 H   0  0  0  0  0  0  0  0  0  0  0  0
   -6.6716   -2.3841   -1.2636 H   0  0  0  0  0  0  0  0  0  0  0  0
   -3.4195   -1.2018   -1.5232 H   0  0  0  0  0  0  0  0  0  0  0  0
   -1.0175   -1.0409   -1.6656 H   0  0  0  0  0  0  0  0  0  0  0  0
    0.9518    1.7117   -0.9707 H   0  0  0  0  0  0  0  0  0  0  0  0
    6.7582   -0.1352    2.2546 H   0  0  0  0  0  0  0  0  0  0  0  0
    8.7880    1.0742    1.5379 H   0  0  0  0  0  0  0  0  0  0  0  0
    9.2922    1.3474   -0.8771 H   0  0  0  0  0  0  0  0  0  0  0  0
    7.7717    0.3891   -2.5760 H   0  0  0  0  0  0  0  0  0  0  0  0
   -1.0893    2.4295    0.8800 H   0  0  0  0  0  0  0  0  0  0  0  0
   -3.4959    2.2935    1.0046 H   0  0  0  0  0  0  0  0  0  0  0  0
  1  2  1  0
  2  3  1  0
  3  4  1  0
  4  5  1  0
  3  6  1  0
  6  7  2  0
  7  8  1  0
  8  9  2  0
  9 10  1  0
 10 11  2  3
 11 12  1  0
 12 13  1  0
 13 14  2  0
 14 15  1  0
 15 16  2  0
 16 17  1  0
 17 18  2  0
 18 19  1  0
 19 20  2  0
 20 21  1  0
 21 22  2  0
 22 23  1  0
 16 24  1  0
 24 25  1  0
 25 26  2  0
  9 27  1  0
 27 28  2  0
 28  6  1  0
 25 11  1  0
 24 13  1  0
 22 17  1  0
  1 29  1  0
  1 30  1  0
  1 31  1  0
  2 32  1  0
  2 33  1  0
  4 34  1  0
  4 35  1  0
  5 36  1  0
  5 37  1  0
  5 38  1  0
  7 39  1  0
  8 40  1  0
 10 41  1  0
 18 42  1  0
 19 43  1  0
 20 44  1  0
 21 45  1  0
 27 46  1  0
 28 47  1  0
M  END
$$$$
