
     RDKit          3D

 41 42  0  0  0  0  0  0  0  0999 V2000
   -7.5058   -2.2797    1.8521 C   0  0  0  0  0  0  0  0  0  0  0  0
   -7.1932   -1.2831    0.8872 O   0  0  0  0  0  0  0  0  0  0  0  0
   -5.9649   -0.6898    0.9905 C   0  0  0  0  0  0  0  0  0  0  0  0
   -5.0121   -0.9389    1.9773 C   0  0  0  0  0  0  0  0  0  0  0  0
   -3.7900   -0.2564    1.9652 C   0  0  0  0  0  0  0  0  0  0  0  0
   -3.5053    0.6858    0.9677 C   0  0  0  0  0  0  0  0  0  0  0  0
   -2.1843    1.4177    0.9580 C   0  0  0  0  0  0  0  0  0  0  0  0
   -1.0165    0.6062    0.4357 C   0  0  0  0  0  0  0  0  0  0  0  0
   -1.0368   -0.5883    0.1659 O   0  0  0  0  0  0  0  0  0  0  0  0
    0.0685    1.4549    0.3402 O   0  0  0  0  0  0  0  0  0  0  0  0
    1.2066    0.7352   -0.0689 N   0  0  0  0  0  0  0  0  0  0  0  0
    2.2420    1.5092   -0.2067 C   0  0  0  0  0  0  0  0  0  0  0  0
    2.2013    2.8709   -0.0006 N   0  0  0  0  0  0  0  0  0  0  0  0
    3.5348    0.8776   -0.6304 C   0  0  0  0  0  0  0  0  0  0  0  0
    3.5293   -0.3877   -1.2302 C   0  0  0  0  0  0  0  0  0  0  0  0
    4.7273   -0.9860   -1.6396 C   0  0  0  0  0  0  0  0  0  0  0  0
    5.9413   -0.3263   -1.4475 C   0  0  0  0  0  0  0  0  0  0  0  0
    7.1766   -0.7950   -1.7997 O   0  0  0  0  0  0  0  0  0  0  0  0
    7.2282   -2.0879   -2.3901 C   0  0  0  0  0  0  0  0  0  0  0  0
    5.9465    0.9323   -0.8397 C   0  0  0  0  0  0  0  0  0  0  0  0
    4.7531    1.5342   -0.4290 C   0  0  0  0  0  0  0  0  0  0  0  0
   -4.4628    0.9268   -0.0243 C   0  0  0  0  0  0  0  0  0  0  0  0
   -5.6824    0.2453   -0.0072 C   0  0  0  0  0  0  0  0  0  0  0  0
   -7.5395   -1.8546    2.8608 H   0  0  0  0  0  0  0  0  0  0  0  0
   -6.8024   -3.1176    1.7986 H   0  0  0  0  0  0  0  0  0  0  0  0
   -8.5027   -2.6672    1.6213 H   0  0  0  0  0  0  0  0  0  0  0  0
   -5.1824   -1.6620    2.7679 H   0  0  0  0  0  0  0  0  0  0  0  0
   -3.0556   -0.4780    2.7372 H   0  0  0  0  0  0  0  0  0  0  0  0
   -2.2781    2.3202    0.3411 H   0  0  0  0  0  0  0  0  0  0  0  0
   -1.9504    1.7409    1.9796 H   0  0  0  0  0  0  0  0  0  0  0  0
    1.2516    3.2232    0.0354 H   0  0  0  0  0  0  0  0  0  0  0  0
    2.7833    3.4199   -0.6240 H   0  0  0  0  0  0  0  0  0  0  0  0
    2.5912   -0.9182   -1.3852 H   0  0  0  0  0  0  0  0  0  0  0  0
    4.6720   -1.9665   -2.1015 H   0  0  0  0  0  0  0  0  0  0  0  0
    6.6877   -2.1084   -3.3422 H   0  0  0  0  0  0  0  0  0  0  0  0
    8.2775   -2.3187   -2.5981 H   0  0  0  0  0  0  0  0  0  0  0  0
    6.8491   -2.8516   -1.7028 H   0  0  0  0  0  0  0  0  0  0  0  0
    6.8919    1.4444   -0.6763 H   0  0  0  0  0  0  0  0  0  0  0  0
    4.7961    2.4995    0.0665 H   0  0  0  0  0  0  0  0  0  0  0  0
   -4.2720    1.6421   -0.8209 H   0  0  0  0  0  0  0  0  0  0  0  0
   -6.4187    0.4401   -0.7834 H   0  0  0  0  0  0  0  0  0  0  0  0
  1  2  1  0
  2  3  1  0
  3  4  2  0
  4  5  1  0
  5  6  2  0
  6  7  1  0
  7  8  1  0
  8  9  2  0
  8 10  1  0
 10 11  1  0
 11 12  2  3
 12 13  1  0
 12 14  1  0
 14 15  2  0
 15 16  1  0
 16 17  2  0
 17 18  1  0
 18 19  1  0
 17 20  1  0
 20 21  2  0
  6 22  1  0
 22 23  2  0
 23  3  1  0
 21 14  1  0
  1 24  1  0
  1 25  1  0
  1 26  1  0
  4 27  1  0
  5 28  1  0
  7 29  1  0
  7 30  1  0
 13 31  1  0
 13 32  1  0
 15 33  1  0
 16 34  1  0
 19 35  1  0
 19 36  1  0
 19 37  1  0
 20 38  1  0
 21 39  1  0
 22 40  1  0
 23 41  1  0
M  END
$$$$
