
     RDKit          3D

 46 49  0  0  0  0  0  0  0  0999 V2000
   -2.3960    0.9826   -1.1212 O   0  0  0  0  0  0  0  0  0  0  0  0
   -1.7216    0.2727   -0.3789 C   0  0  0  0  0  0  0  0  0  0  0  0
   -0.2885    0.1426   -0.5837 C   0  0  0  0  0  0  0  0  0  0  0  0
    0.4215   -1.0414   -0.6619 C   0  0  0  0  0  0  0  0  0  0  0  0
    1.7281   -0.7196   -0.9320 N   0  0  0  0  0  0  0  0  0  0  0  0
    2.8324   -1.6042   -1.0941 C   0  0  0  0  0  0  0  0  0  0  0  0
    4.1057   -1.0749   -1.3585 C   0  0  0  0  0  0  0  0  0  0  0  0
    5.2031   -1.9234   -1.5191 C   0  0  0  0  0  0  0  0  0  0  0  0
    5.0393   -3.3030   -1.4179 C   0  0  0  0  0  0  0  0  0  0  0  0
    3.7787   -3.8369   -1.1560 C   0  0  0  0  0  0  0  0  0  0  0  0
    2.6749   -2.9939   -0.9936 C   0  0  0  0  0  0  0  0  0  0  0  0
    1.8918    0.6183   -1.0376 N   0  0  0  0  0  0  0  0  0  0  0  0
    0.6763    1.1562   -0.8469 C   0  0  0  0  0  0  0  0  0  0  0  0
    0.5061    2.6122   -0.9066 C   0  0  0  0  0  0  0  0  0  0  0  0
    1.2644    3.3662   -1.8195 C   0  0  0  0  0  0  0  0  0  0  0  0
    1.1262    4.7546   -1.8874 C   0  0  0  0  0  0  0  0  0  0  0  0
    0.2326    5.3938   -1.0385 C   0  0  0  0  0  0  0  0  0  0  0  0
    0.0993    6.7251   -1.1004 F   0  0  0  0  0  0  0  0  0  0  0  0
   -0.5215    4.6721   -0.1216 C   0  0  0  0  0  0  0  0  0  0  0  0
   -0.3829    3.2825   -0.0521 C   0  0  0  0  0  0  0  0  0  0  0  0
   -2.2967   -0.4421    0.6762 N   0  0  0  0  0  0  0  0  0  0  0  0
   -3.7536   -0.4289    0.7883 C   0  0  0  0  0  0  0  0  0  0  0  0
   -4.2667   -1.6103    1.6014 C   0  0  0  0  0  0  0  0  0  0  0  0
   -3.6763   -1.6373    3.0113 C   0  0  0  0  0  0  0  0  0  0  0  0
   -2.3252   -0.9295    3.1070 C   0  0  0  0  0  0  0  0  0  0  0  0
   -1.5421   -1.0056    1.8001 C   0  0  0  0  0  0  0  0  0  0  0  0
    0.0845   -2.0620   -0.5722 H   0  0  0  0  0  0  0  0  0  0  0  0
    4.2595   -0.0002   -1.4421 H   0  0  0  0  0  0  0  0  0  0  0  0
    6.1852   -1.5045   -1.7240 H   0  0  0  0  0  0  0  0  0  0  0  0
    5.8946   -3.9620   -1.5443 H   0  0  0  0  0  0  0  0  0  0  0  0
    3.6545   -4.9146   -1.0796 H   0  0  0  0  0  0  0  0  0  0  0  0
    1.7138   -3.4560   -0.7938 H   0  0  0  0  0  0  0  0  0  0  0  0
    1.9676    2.8690   -2.4854 H   0  0  0  0  0  0  0  0  0  0  0  0
    1.7092    5.3351   -2.5946 H   0  0  0  0  0  0  0  0  0  0  0  0
   -1.2124    5.1927    0.5336 H   0  0  0  0  0  0  0  0  0  0  0  0
   -0.9744    2.7396    0.6797 H   0  0  0  0  0  0  0  0  0  0  0  0
   -4.1971   -0.4467   -0.2137 H   0  0  0  0  0  0  0  0  0  0  0  0
   -4.0417    0.5192    1.2583 H   0  0  0  0  0  0  0  0  0  0  0  0
   -3.9945   -2.5409    1.0865 H   0  0  0  0  0  0  0  0  0  0  0  0
   -5.3608   -1.5908    1.6566 H   0  0  0  0  0  0  0  0  0  0  0  0
   -3.5746   -2.6811    3.3322 H   0  0  0  0  0  0  0  0  0  0  0  0
   -4.3722   -1.1673    3.7166 H   0  0  0  0  0  0  0  0  0  0  0  0
   -1.7393   -1.3567    3.9285 H   0  0  0  0  0  0  0  0  0  0  0  0
   -2.4952    0.1257    3.3579 H   0  0  0  0  0  0  0  0  0  0  0  0
   -0.5926   -0.4754    1.9220 H   0  0  0  0  0  0  0  0  0  0  0  0
   -1.3235   -2.0512    1.5551 H   0  0  0  0  0  0  0  0  0  0  0  0
  1  2  2  0
  2  3  1  0
  3  4  2  0
  4  5  1  0
  5  6  1  0
  6  7  2  0
  7  8  1  0
  8  9  2  0
  9 10  1  0
 10 11  2  0
  5 12  1  0
 12 13  2  0
 13 14  1  0
 14 15  2  0
 15 16  1  0
 16 17  2  0
 17 18  1  0
 17 19  1  0
 19 20  2  0
  2 21  1  0
 21 22  1  0
 22 23  1  0
 23 24  1  0
 24 25  1  0
 25 26  1  0
 13  3  1  0
 20 14  1  0
 26 21  1  0
 11  6  1  0
  4 27  1  0
  7 28  1  0
  8 29  1  0
  9 30  1  0
 10 31  1  0
 11 32  1  0
 15 33  1  0
 16 34  1  0
 19 35  1  0
 20 36  1  0
 22 37  1  0
 22 38  1  0
 23 39  1  0
 23 40  1  0
 24 41  1  0
 24 42  1  0
 25 43  1  0
 25 44  1  0
 26 45  1  0
 26 46  1  0
M  END
$$$$
