
     RDKit          3D

 55 59  0  0  0  0  0  0  0  0999 V2000
    4.0712   -2.1367    1.1627 C   0  0  0  0  0  0  0  0  0  0  0  0
    4.0824   -0.8758    0.4641 N   0  0  0  0  0  0  0  0  0  0  0  0
    3.0134   -0.0199    0.3030 C   0  0  0  0  0  0  0  0  0  0  0  0
    1.7557   -0.3420    0.7258 N   0  0  0  0  0  0  0  0  0  0  0  0
    1.0705   -1.3594   -0.1128 C   0  0  0  0  0  0  0  0  0  0  0  0
   -0.4610   -1.3180    0.0832 C   0  0  0  0  0  0  0  0  0  0  0  0
   -1.0859   -0.0361   -0.3373 N   0  0  0  0  0  0  0  0  0  0  0  0
   -2.4079    0.1745    0.3225 C   0  0  0  0  0  0  0  0  0  0  0  0
   -3.1424    1.4344   -0.1606 C   0  0  0  0  0  0  0  0  0  0  0  0
   -3.9056    2.1872    0.7492 C   0  0  0  0  0  0  0  0  0  0  0  0
   -4.5963    3.3263    0.3306 C   0  0  0  0  0  0  0  0  0  0  0  0
   -4.5401    3.7266   -1.0026 C   0  0  0  0  0  0  0  0  0  0  0  0
   -3.7972    2.9873   -1.9200 C   0  0  0  0  0  0  0  0  0  0  0  0
   -3.1070    1.8474   -1.5039 C   0  0  0  0  0  0  0  0  0  0  0  0
   -3.3462   -1.0354    0.2043 C   0  0  0  0  0  0  0  0  0  0  0  0
   -3.6786   -1.5890   -1.0442 C   0  0  0  0  0  0  0  0  0  0  0  0
   -4.5395   -2.6841   -1.1335 C   0  0  0  0  0  0  0  0  0  0  0  0
   -5.0830   -3.2400    0.0224 C   0  0  0  0  0  0  0  0  0  0  0  0
   -4.7678   -2.7016    1.2682 C   0  0  0  0  0  0  0  0  0  0  0  0
   -3.9069   -1.6059    1.3600 C   0  0  0  0  0  0  0  0  0  0  0  0
   -0.1399    1.0880   -0.0807 C   0  0  0  0  0  0  0  0  0  0  0  0
    0.8912    0.8236    1.0370 C   0  0  0  0  0  0  0  0  0  0  0  0
    3.3970    1.1000   -0.2684 N   0  0  0  0  0  0  0  0  0  0  0  0
    4.7312    0.9450   -0.5418 C   0  0  0  0  0  0  0  0  0  0  0  0
    5.6204    1.8299   -1.1701 C   0  0  0  0  0  0  0  0  0  0  0  0
    6.9541    1.4396   -1.3397 C   0  0  0  0  0  0  0  0  0  0  0  0
    7.3944    0.1932   -0.8913 C   0  0  0  0  0  0  0  0  0  0  0  0
    6.5225   -0.7017   -0.2597 C   0  0  0  0  0  0  0  0  0  0  0  0
    5.1927   -0.2911   -0.1016 C   0  0  0  0  0  0  0  0  0  0  0  0
    5.0411   -2.2970    1.6404 H   0  0  0  0  0  0  0  0  0  0  0  0
    3.3009   -2.1259    1.9376 H   0  0  0  0  0  0  0  0  0  0  0  0
    3.8741   -2.9283    0.4358 H   0  0  0  0  0  0  0  0  0  0  0  0
    1.3009   -1.2065   -1.1763 H   0  0  0  0  0  0  0  0  0  0  0  0
    1.4295   -2.3572    0.1630 H   0  0  0  0  0  0  0  0  0  0  0  0
   -0.6664   -1.5196    1.1436 H   0  0  0  0  0  0  0  0  0  0  0  0
   -0.8949   -2.1379   -0.4996 H   0  0  0  0  0  0  0  0  0  0  0  0
   -2.1953    0.3230    1.3920 H   0  0  0  0  0  0  0  0  0  0  0  0
   -3.9708    1.8857    1.7920 H   0  0  0  0  0  0  0  0  0  0  0  0
   -5.1822    3.8991    1.0446 H   0  0  0  0  0  0  0  0  0  0  0  0
   -5.0786    4.6125   -1.3281 H   0  0  0  0  0  0  0  0  0  0  0  0
   -3.7545    3.2956   -2.9612 H   0  0  0  0  0  0  0  0  0  0  0  0
   -2.5307    1.2811   -2.2327 H   0  0  0  0  0  0  0  0  0  0  0  0
   -3.2590   -1.1671   -1.9548 H   0  0  0  0  0  0  0  0  0  0  0  0
   -4.7868   -3.0999   -2.1066 H   0  0  0  0  0  0  0  0  0  0  0  0
   -5.7558   -4.0904   -0.0486 H   0  0  0  0  0  0  0  0  0  0  0  0
   -5.1963   -3.1326    2.1691 H   0  0  0  0  0  0  0  0  0  0  0  0
   -3.6781   -1.1980    2.3417 H   0  0  0  0  0  0  0  0  0  0  0  0
   -0.6589    2.0261    0.1420 H   0  0  0  0  0  0  0  0  0  0  0  0
    0.4009    1.2688   -1.0189 H   0  0  0  0  0  0  0  0  0  0  0  0
    0.3642    0.6132    1.9765 H   0  0  0  0  0  0  0  0  0  0  0  0
    1.4774    1.7321    1.2253 H   0  0  0  0  0  0  0  0  0  0  0  0
    5.2692    2.7957   -1.5155 H   0  0  0  0  0  0  0  0  0  0  0  0
    7.6515    2.1171   -1.8263 H   0  0  0  0  0  0  0  0  0  0  0  0
    8.4358   -0.0881   -1.0340 H   0  0  0  0  0  0  0  0  0  0  0  0
    6.8715   -1.6679    0.0873 H   0  0  0  0  0  0  0  0  0  0  0  0
  1  2  1  0
  2  3  1  0
  3  4  1  0
  4  5  1  0
  5  6  1  0
  6  7  1  0
  7  8  1  0
  8  9  1  0
  9 10  2  0
 10 11  1  0
 11 12  2  0
 12 13  1  0
 13 14  2  0
  8 15  1  0
 15 16  2  0
 16 17  1  0
 17 18  2  0
 18 19  1  0
 19 20  2  0
  7 21  1  0
 21 22  1  0
  3 23  2  0
 23 24  1  0
 24 25  2  0
 25 26  1  0
 26 27  2  0
 27 28  1  0
 28 29  2  0
 29  2  1  0
 22  4  1  0
 29 24  1  0
 14  9  1  0
 20 15  1  0
  1 30  1  0
  1 31  1  0
  1 32  1  0
  5 33  1  0
  5 34  1  0
  6 35  1  0
  6 36  1  0
  8 37  1  0
 10 38  1  0
 11 39  1  0
 12 40  1  0
 13 41  1  0
 14 42  1  0
 16 43  1  0
 17 44  1  0
 18 45  1  0
 19 46  1  0
 20 47  1  0
 21 48  1  0
 21 49  1  0
 22 50  1  0
 22 51  1  0
 25 52  1  0
 26 53  1  0
 27 54  1  0
 28 55  1  0
M  END
$$$$
