
     RDKit          3D

 52 56  0  0  0  0  0  0  0  0999 V2000
    8.6960    0.0797   -0.9148 C   0  0  0  0  0  0  0  0  0  0  0  0
    7.5684   -0.3717   -0.0040 C   0  0  0  0  0  0  0  0  0  0  0  0
    6.3332   -0.0925   -0.6617 O   0  0  0  0  0  0  0  0  0  0  0  0
    5.1856   -0.4075    0.0092 C   0  0  0  0  0  0  0  0  0  0  0  0
    5.1035   -1.0121    1.2589 C   0  0  0  0  0  0  0  0  0  0  0  0
    3.8500   -1.2773    1.8263 C   0  0  0  0  0  0  0  0  0  0  0  0
    2.6674   -0.9544    1.1761 C   0  0  0  0  0  0  0  0  0  0  0  0
    1.4943   -1.2277    1.7626 N   0  0  0  0  0  0  0  0  0  0  0  0
    0.3567   -0.8916    1.1104 C   0  0  0  0  0  0  0  0  0  0  0  0
   -1.0371   -1.3075    2.0302 Cl  0  0  0  0  0  0  0  0  0  0  0  0
    0.3093   -0.3023   -0.1486 C   0  0  0  0  0  0  0  0  0  0  0  0
   -0.9515    0.0577   -0.9011 C   0  0  0  0  0  0  0  0  0  0  0  0
   -1.8458   -1.1327   -1.2354 C   0  0  0  0  0  0  0  0  0  0  0  0
   -3.1508   -0.6621   -0.6493 C   0  0  0  0  0  0  0  0  0  0  0  0
   -4.3770   -1.4914   -0.7121 C   0  0  0  0  0  0  0  0  0  0  0  0
   -4.3817   -2.7449   -1.3344 C   0  0  0  0  0  0  0  0  0  0  0  0
   -5.5566   -3.5006   -1.3749 C   0  0  0  0  0  0  0  0  0  0  0  0
   -6.7263   -3.0097   -0.7960 C   0  0  0  0  0  0  0  0  0  0  0  0
   -6.7261   -1.7626   -0.1740 C   0  0  0  0  0  0  0  0  0  0  0  0
   -5.5548   -1.0043   -0.1313 C   0  0  0  0  0  0  0  0  0  0  0  0
   -3.1218    0.5182   -0.1073 N   0  0  0  0  0  0  0  0  0  0  0  0
   -1.8282    0.9768   -0.1862 N   0  0  0  0  0  0  0  0  0  0  0  0
   -1.4879    2.3185    0.0230 C   0  0  0  0  0  0  0  0  0  0  0  0
   -0.4392    2.7664   -0.4533 O   0  0  0  0  0  0  0  0  0  0  0  0
   -2.3989    3.1778    0.7730 C   0  0  0  0  0  0  0  0  0  0  0  0
   -2.6044    4.5315    0.5657 C   0  0  0  0  0  0  0  0  0  0  0  0
   -3.5171    5.1007    1.4999 C   0  0  0  0  0  0  0  0  0  0  0  0
   -3.9552    4.1724    2.4162 C   0  0  0  0  0  0  0  0  0  0  0  0
   -3.2552    2.6348    2.1558 S   0  0  0  0  0  0  0  0  0  0  0  0
    1.5516   -0.0253   -0.7404 C   0  0  0  0  0  0  0  0  0  0  0  0
    2.7503   -0.3462   -0.0875 C   0  0  0  0  0  0  0  0  0  0  0  0
    4.0063   -0.0766   -0.6600 C   0  0  0  0  0  0  0  0  0  0  0  0
    9.6694   -0.1135   -0.4553 H   0  0  0  0  0  0  0  0  0  0  0  0
    8.6126    1.1502   -1.1300 H   0  0  0  0  0  0  0  0  0  0  0  0
    8.6483   -0.4433   -1.8757 H   0  0  0  0  0  0  0  0  0  0  0  0
    7.6658   -1.4479    0.1796 H   0  0  0  0  0  0  0  0  0  0  0  0
    7.6296    0.1793    0.9416 H   0  0  0  0  0  0  0  0  0  0  0  0
    5.9865   -1.2911    1.8239 H   0  0  0  0  0  0  0  0  0  0  0  0
    3.7967   -1.7476    2.8060 H   0  0  0  0  0  0  0  0  0  0  0  0
   -0.6770    0.5560   -1.8411 H   0  0  0  0  0  0  0  0  0  0  0  0
   -1.9483   -1.2547   -2.3187 H   0  0  0  0  0  0  0  0  0  0  0  0
   -1.5280   -2.0800   -0.7925 H   0  0  0  0  0  0  0  0  0  0  0  0
   -3.4880   -3.1571   -1.7923 H   0  0  0  0  0  0  0  0  0  0  0  0
   -5.5600   -4.4754   -1.8569 H   0  0  0  0  0  0  0  0  0  0  0  0
   -7.6387   -3.6004   -0.8271 H   0  0  0  0  0  0  0  0  0  0  0  0
   -7.6362   -1.3793    0.2808 H   0  0  0  0  0  0  0  0  0  0  0  0
   -5.5679   -0.0338    0.3614 H   0  0  0  0  0  0  0  0  0  0  0  0
   -2.1188    5.0824   -0.2316 H   0  0  0  0  0  0  0  0  0  0  0  0
   -3.8266    6.1384    1.5052 H   0  0  0  0  0  0  0  0  0  0  0  0
   -4.6415    4.3235    3.2379 H   0  0  0  0  0  0  0  0  0  0  0  0
    1.5915    0.4612   -1.7143 H   0  0  0  0  0  0  0  0  0  0  0  0
    4.0734    0.3995   -1.6361 H   0  0  0  0  0  0  0  0  0  0  0  0
  1  2  1  0
  2  3  1  0
  3  4  1  0
  4  5  2  0
  5  6  1  0
  6  7  2  0
  7  8  1  0
  8  9  2  0
  9 10  1  0
  9 11  1  0
 11 12  1  0
 12 13  1  0
 13 14  1  0
 14 15  1  0
 15 16  2  0
 16 17  1  0
 17 18  2  0
 18 19  1  0
 19 20  2  0
 14 21  2  0
 21 22  1  0
 22 23  1  0
 23 24  2  0
 23 25  1  0
 25 26  2  0
 26 27  1  0
 27 28  2  0
 28 29  1  0
 11 30  2  0
 30 31  1  0
 31 32  2  0
 32  4  1  0
 31  7  1  0
 22 12  1  0
 29 25  1  0
 20 15  1  0
  1 33  1  0
  1 34  1  0
  1 35  1  0
  2 36  1  0
  2 37  1  0
  5 38  1  0
  6 39  1  0
 12 40  1  0
 13 41  1  0
 13 42  1  0
 16 43  1  0
 17 44  1  0
 18 45  1  0
 19 46  1  0
 20 47  1  0
 26 48  1  0
 27 49  1  0
 28 50  1  0
 30 51  1  0
 32 52  1  0
M  END
$$$$
