
     RDKit          3D

 45 47  0  0  0  0  0  0  0  0999 V2000
    2.4097   -1.6538    3.2868 C   0  0  0  0  0  0  0  0  0  0  0  0
    3.0650   -1.4386    1.9515 C   0  0  0  0  0  0  0  0  0  0  0  0
    4.3302   -2.0111    1.7140 C   0  0  0  0  0  0  0  0  0  0  0  0
    4.9832   -1.8471    0.4957 C   0  0  0  0  0  0  0  0  0  0  0  0
    4.3986   -1.1073   -0.5323 C   0  0  0  0  0  0  0  0  0  0  0  0
    3.1393   -0.5336   -0.2996 C   0  0  0  0  0  0  0  0  0  0  0  0
    2.1722    0.4093   -1.3633 S   0  0  0  0  0  0  0  0  0  0  0  0
    0.9891    0.5988   -0.1418 C   0  0  0  0  0  0  0  0  0  0  0  0
   -0.2114    1.2701   -0.3827 N   0  0  0  0  0  0  0  0  0  0  0  0
   -1.4003    0.8752    0.3772 C   0  0  0  0  0  0  0  0  0  0  0  0
   -2.0209   -0.4287   -0.1355 C   0  0  0  0  0  0  0  0  0  0  0  0
   -3.2971   -0.7624    0.6457 C   0  0  0  0  0  0  0  0  0  0  0  0
   -3.8702   -2.0713    0.2867 N   0  0  0  0  0  0  0  0  0  0  0  0
   -4.9353   -2.4265    1.2290 C   0  0  0  0  0  0  0  0  0  0  0  0
   -4.3986   -2.0864   -1.0796 C   0  0  0  0  0  0  0  0  0  0  0  0
   -0.4110    2.1305   -1.4712 C   0  0  0  0  0  0  0  0  0  0  0  0
   -1.4865    2.1287   -2.0767 O   0  0  0  0  0  0  0  0  0  0  0  0
    0.6125    3.1166   -1.8124 C   0  0  0  0  0  0  0  0  0  0  0  0
    0.9100    3.6046   -3.0749 C   0  0  0  0  0  0  0  0  0  0  0  0
    1.9311    4.6007   -3.0484 C   0  0  0  0  0  0  0  0  0  0  0  0
    2.3329    4.8574   -1.7640 C   0  0  0  0  0  0  0  0  0  0  0  0
    3.5296    5.9857   -1.2716 Cl  0  0  0  0  0  0  0  0  0  0  0  0
    1.5078    3.9480   -0.6018 S   0  0  0  0  0  0  0  0  0  0  0  0
    1.2323   -0.0506    0.9731 N   0  0  0  0  0  0  0  0  0  0  0  0
    2.4666   -0.6813    0.9140 C   0  0  0  0  0  0  0  0  0  0  0  0
    2.2610   -2.7238    3.4641 H   0  0  0  0  0  0  0  0  0  0  0  0
    3.0376   -1.2429    4.0838 H   0  0  0  0  0  0  0  0  0  0  0  0
    1.4325   -1.1643    3.3406 H   0  0  0  0  0  0  0  0  0  0  0  0
    4.8111   -2.5963    2.4966 H   0  0  0  0  0  0  0  0  0  0  0  0
    5.9592   -2.3026    0.3418 H   0  0  0  0  0  0  0  0  0  0  0  0
    4.9047   -0.9816   -1.4845 H   0  0  0  0  0  0  0  0  0  0  0  0
   -2.1397    1.6837    0.3129 H   0  0  0  0  0  0  0  0  0  0  0  0
   -1.1306    0.7875    1.4367 H   0  0  0  0  0  0  0  0  0  0  0  0
   -1.2990   -1.2486   -0.0347 H   0  0  0  0  0  0  0  0  0  0  0  0
   -2.2382   -0.3271   -1.2042 H   0  0  0  0  0  0  0  0  0  0  0  0
   -4.0385    0.0361    0.5103 H   0  0  0  0  0  0  0  0  0  0  0  0
   -3.0351   -0.7746    1.7120 H   0  0  0  0  0  0  0  0  0  0  0  0
   -5.3377   -3.4198    1.0001 H   0  0  0  0  0  0  0  0  0  0  0  0
   -4.5447   -2.4785    2.2515 H   0  0  0  0  0  0  0  0  0  0  0  0
   -5.7610   -1.7059    1.2102 H   0  0  0  0  0  0  0  0  0  0  0  0
   -3.6006   -1.9532   -1.8164 H   0  0  0  0  0  0  0  0  0  0  0  0
   -4.8541   -3.0578   -1.3045 H   0  0  0  0  0  0  0  0  0  0  0  0
   -5.1551   -1.3095   -1.2388 H   0  0  0  0  0  0  0  0  0  0  0  0
    0.4184    3.2504   -3.9744 H   0  0  0  0  0  0  0  0  0  0  0  0
    2.3309    5.1019   -3.9209 H   0  0  0  0  0  0  0  0  0  0  0  0
  1  2  1  0
  2  3  2  0
  3  4  1  0
  4  5  2  0
  5  6  1  0
  6  7  1  0
  7  8  1  0
  8  9  1  0
  9 10  1  0
 10 11  1  0
 11 12  1  0
 12 13  1  0
 13 14  1  0
 13 15  1  0
  9 16  1  0
 16 17  2  0
 16 18  1  0
 18 19  2  0
 19 20  1  0
 20 21  2  0
 21 22  1  0
 21 23  1  0
  8 24  2  0
 24 25  1  0
 25  2  1  0
 25  6  2  0
 23 18  1  0
  1 26  1  0
  1 27  1  0
  1 28  1  0
  3 29  1  0
  4 30  1  0
  5 31  1  0
 10 32  1  0
 10 33  1  0
 11 34  1  0
 11 35  1  0
 12 36  1  0
 12 37  1  0
 14 38  1  0
 14 39  1  0
 14 40  1  0
 15 41  1  0
 15 42  1  0
 15 43  1  0
 19 44  1  0
 20 45  1  0
M  END
$$$$
