
     RDKit          3D

 47 49  0  0  0  0  0  0  0  0999 V2000
    7.0244   -2.1010   -0.3532 C   0  0  0  0  0  0  0  0  0  0  0  0
    6.1403   -0.9302   -0.0128 C   0  0  0  0  0  0  0  0  0  0  0  0
    4.7625   -1.0136   -0.2892 C   0  0  0  0  0  0  0  0  0  0  0  0
    3.9108    0.0514    0.0009 C   0  0  0  0  0  0  0  0  0  0  0  0
    2.5620    0.0908   -0.2207 O   0  0  0  0  0  0  0  0  0  0  0  0
    1.9639   -1.0636   -0.8087 C   0  0  0  0  0  0  0  0  0  0  0  0
    0.5156   -0.7886   -0.9507 C   0  0  0  0  0  0  0  0  0  0  0  0
   -0.2990    0.2963   -0.7429 C   0  0  0  0  0  0  0  0  0  0  0  0
   -1.6090   -0.1447   -1.0899 C   0  0  0  0  0  0  0  0  0  0  0  0
   -2.8270    0.6861   -1.0103 C   0  0  0  0  0  0  0  0  0  0  0  0
   -2.7328    1.8271   -0.5467 O   0  0  0  0  0  0  0  0  0  0  0  0
   -4.0724    0.2065   -1.4435 N   0  0  0  0  0  0  0  0  0  0  0  0
   -4.3311   -1.1548   -1.8925 C   0  0  0  0  0  0  0  0  0  0  0  0
   -5.2529    1.0117   -1.1256 C   0  0  0  0  0  0  0  0  0  0  0  0
   -5.9046    0.6063    0.1807 C   0  0  0  0  0  0  0  0  0  0  0  0
   -5.4353    1.1167    1.3905 C   0  0  0  0  0  0  0  0  0  0  0  0
   -6.0377    0.7021    2.5745 C   0  0  0  0  0  0  0  0  0  0  0  0
   -7.0860   -0.2080    2.5230 C   0  0  0  0  0  0  0  0  0  0  0  0
   -7.4887   -0.6719    1.2825 C   0  0  0  0  0  0  0  0  0  0  0  0
   -6.9231   -0.2915    0.1162 N   0  0  0  0  0  0  0  0  0  0  0  0
   -1.5632   -1.4314   -1.4736 N   0  0  0  0  0  0  0  0  0  0  0  0
   -0.2446   -1.8244   -1.3916 O   0  0  0  0  0  0  0  0  0  0  0  0
    4.4373    1.2121    0.5710 C   0  0  0  0  0  0  0  0  0  0  0  0
    5.8070    1.3301    0.8555 C   0  0  0  0  0  0  0  0  0  0  0  0
    6.3185    2.6066    1.4648 C   0  0  0  0  0  0  0  0  0  0  0  0
    6.6566    0.2503    0.5556 C   0  0  0  0  0  0  0  0  0  0  0  0
    8.3559    0.3759    0.8856 Cl  0  0  0  0  0  0  0  0  0  0  0  0
    7.5839   -2.4314    0.5275 H   0  0  0  0  0  0  0  0  0  0  0  0
    7.7194   -1.8299   -1.1540 H   0  0  0  0  0  0  0  0  0  0  0  0
    6.4382   -2.9587   -0.6998 H   0  0  0  0  0  0  0  0  0  0  0  0
    4.3831   -1.9280   -0.7345 H   0  0  0  0  0  0  0  0  0  0  0  0
    2.1034   -1.9363   -0.1601 H   0  0  0  0  0  0  0  0  0  0  0  0
    2.3915   -1.2511   -1.8006 H   0  0  0  0  0  0  0  0  0  0  0  0
   -0.0074    1.2761   -0.3906 H   0  0  0  0  0  0  0  0  0  0  0  0
   -3.6552   -1.4115   -2.7116 H   0  0  0  0  0  0  0  0  0  0  0  0
   -4.2010   -1.8445   -1.0530 H   0  0  0  0  0  0  0  0  0  0  0  0
   -5.3524   -1.2427   -2.2766 H   0  0  0  0  0  0  0  0  0  0  0  0
   -5.9722    0.9043   -1.9473 H   0  0  0  0  0  0  0  0  0  0  0  0
   -4.9988    2.0776   -1.0899 H   0  0  0  0  0  0  0  0  0  0  0  0
   -4.6111    1.8247    1.4123 H   0  0  0  0  0  0  0  0  0  0  0  0
   -5.6890    1.0864    3.5287 H   0  0  0  0  0  0  0  0  0  0  0  0
   -7.5762   -0.5491    3.4276 H   0  0  0  0  0  0  0  0  0  0  0  0
   -8.3030   -1.3849    1.1900 H   0  0  0  0  0  0  0  0  0  0  0  0
    3.7624    2.0375    0.7930 H   0  0  0  0  0  0  0  0  0  0  0  0
    7.0371    3.0888    0.7939 H   0  0  0  0  0  0  0  0  0  0  0  0
    6.7927    2.4066    2.4312 H   0  0  0  0  0  0  0  0  0  0  0  0
    5.5070    3.3200    1.6436 H   0  0  0  0  0  0  0  0  0  0  0  0
  1  2  1  0
  2  3  2  0
  3  4  1  0
  4  5  1  0
  5  6  1  0
  6  7  1  0
  7  8  2  0
  8  9  1  0
  9 10  1  0
 10 11  2  0
 10 12  1  0
 12 13  1  0
 12 14  1  0
 14 15  1  0
 15 16  2  0
 16 17  1  0
 17 18  2  0
 18 19  1  0
 19 20  2  0
  9 21  2  0
 21 22  1  0
  4 23  2  0
 23 24  1  0
 24 25  1  0
 24 26  2  0
 26 27  1  0
 26  2  1  0
 22  7  1  0
 20 15  1  0
  1 28  1  0
  1 29  1  0
  1 30  1  0
  3 31  1  0
  6 32  1  0
  6 33  1  0
  8 34  1  0
 13 35  1  0
 13 36  1  0
 13 37  1  0
 14 38  1  0
 14 39  1  0
 16 40  1  0
 17 41  1  0
 18 42  1  0
 19 43  1  0
 23 44  1  0
 25 45  1  0
 25 46  1  0
 25 47  1  0
M  END
$$$$
