
     RDKit          3D

 29 31  0  0  0  0  0  0  0  0999 V2000
    5.8337   -1.5412   -0.0039 C   0  0  0  0  0  0  0  0  0  0  0  0
    5.4578   -0.1976   -0.2812 O   0  0  0  0  0  0  0  0  0  0  0  0
    4.1192    0.0909   -0.2585 C   0  0  0  0  0  0  0  0  0  0  0  0
    3.8138    1.4219   -0.5427 C   0  0  0  0  0  0  0  0  0  0  0  0
    2.4893    1.8742   -0.5584 C   0  0  0  0  0  0  0  0  0  0  0  0
    1.4458    0.9714   -0.2829 C   0  0  0  0  0  0  0  0  0  0  0  0
    0.0932    1.2701   -0.2611 N   0  0  0  0  0  0  0  0  0  0  0  0
   -0.5932    0.1902    0.0255 C   0  0  0  0  0  0  0  0  0  0  0  0
   -1.9605    0.2453    0.1097 N   0  0  0  0  0  0  0  0  0  0  0  0
   -2.8337   -0.7961    0.3470 C   0  0  0  0  0  0  0  0  0  0  0  0
   -2.4951   -1.9675    0.4847 O   0  0  0  0  0  0  0  0  0  0  0  0
   -4.2377   -0.3753    0.4051 C   0  0  0  0  0  0  0  0  0  0  0  0
   -4.7975    0.8823    0.5701 C   0  0  0  0  0  0  0  0  0  0  0  0
   -6.2245    0.8561    0.5660 C   0  0  0  0  0  0  0  0  0  0  0  0
   -6.7158   -0.4181    0.4061 C   0  0  0  0  0  0  0  0  0  0  0  0
   -5.4661   -1.5730    0.2695 S   0  0  0  0  0  0  0  0  0  0  0  0
    0.3101   -1.2226    0.2967 S   0  0  0  0  0  0  0  0  0  0  0  0
    1.7673   -0.3562   -0.0000 C   0  0  0  0  0  0  0  0  0  0  0  0
    3.0960   -0.8214    0.0184 C   0  0  0  0  0  0  0  0  0  0  0  0
    6.9246   -1.6021   -0.0640 H   0  0  0  0  0  0  0  0  0  0  0  0
    5.5393   -1.8319    1.0099 H   0  0  0  0  0  0  0  0  0  0  0  0
    5.4201   -2.2285   -0.7492 H   0  0  0  0  0  0  0  0  0  0  0  0
    4.6179    2.1232   -0.7566 H   0  0  0  0  0  0  0  0  0  0  0  0
    2.2624    2.9118   -0.7810 H   0  0  0  0  0  0  0  0  0  0  0  0
   -2.3180    1.1670   -0.0838 H   0  0  0  0  0  0  0  0  0  0  0  0
   -4.2289    1.7938    0.7057 H   0  0  0  0  0  0  0  0  0  0  0  0
   -6.8577    1.7278    0.6816 H   0  0  0  0  0  0  0  0  0  0  0  0
   -7.7506   -0.7310    0.3695 H   0  0  0  0  0  0  0  0  0  0  0  0
    3.2889   -1.8632    0.2444 H   0  0  0  0  0  0  0  0  0  0  0  0
  1  2  1  0
  2  3  1  0
  3  4  2  0
  4  5  1  0
  5  6  2  0
  6  7  1  0
  7  8  2  0
  8  9  1  0
  9 10  1  0
 10 11  2  0
 10 12  1  0
 12 13  2  0
 13 14  1  0
 14 15  2  0
 15 16  1  0
  8 17  1  0
 17 18  1  0
 18 19  2  0
 19  3  1  0
 18  6  1  0
 16 12  1  0
  1 20  1  0
  1 21  1  0
  1 22  1  0
  4 23  1  0
  5 24  1  0
  9 25  1  0
 13 26  1  0
 14 27  1  0
 15 28  1  0
 19 29  1  0
M  END
$$$$
