
     RDKit          3D

 41 44  0  0  0  0  0  0  0  0999 V2000
   -0.1578    0.3812   -4.6679 O   0  0  0  0  0  0  0  0  0  0  0  0
    0.1392    1.1516   -3.7672 C   0  0  0  0  0  0  0  0  0  0  0  0
    0.4275    2.4391   -4.0387 O   0  0  0  0  0  0  0  0  0  0  0  0
    0.2709    0.8002   -2.2948 C   0  0  0  0  0  0  0  0  0  0  0  0
    1.7400    0.4851   -1.9896 C   0  0  0  0  0  0  0  0  0  0  0  0
    2.1023    0.7619   -0.5599 C   0  0  0  0  0  0  0  0  0  0  0  0
    2.6640    1.9311   -0.0809 C   0  0  0  0  0  0  0  0  0  0  0  0
    2.8454    1.8026    1.2677 N   0  0  0  0  0  0  0  0  0  0  0  0
    2.3994    0.5727    1.6913 C   0  0  0  0  0  0  0  0  0  0  0  0
    2.3812    0.0174    2.9767 C   0  0  0  0  0  0  0  0  0  0  0  0
    1.8719   -1.2761    3.1159 C   0  0  0  0  0  0  0  0  0  0  0  0
    1.4009   -1.9832    2.0126 C   0  0  0  0  0  0  0  0  0  0  0  0
    1.4220   -1.4130    0.7363 C   0  0  0  0  0  0  0  0  0  0  0  0
    1.9333   -0.1076    0.5650 C   0  0  0  0  0  0  0  0  0  0  0  0
   -0.5843   -0.3920   -2.0185 N   0  0  0  0  0  0  0  0  0  0  0  0
   -2.2252   -0.0972   -1.7791 S   0  0  0  0  0  6  0  0  0  0  0  0
   -2.9545   -1.1827   -2.3902 O   0  0  0  0  0  0  0  0  0  0  0  0
   -2.4919    1.2775   -2.1436 O   0  0  0  0  0  0  0  0  0  0  0  0
   -2.3746   -0.2410   -0.0389 C   0  0  0  0  0  0  0  0  0  0  0  0
   -2.6335    0.8971    0.7584 C   0  0  0  0  0  0  0  0  0  0  0  0
   -2.7789    0.8337    2.1628 C   0  0  0  0  0  0  0  0  0  0  0  0
   -2.6866   -0.3672    2.8870 C   0  0  0  0  0  0  0  0  0  0  0  0
   -2.4388   -1.5404    2.1325 C   0  0  0  0  0  0  0  0  0  0  0  0
   -2.3354   -2.7809    2.6339 N   0  0  0  0  0  0  0  0  0  0  0  0
   -2.0670   -3.7889    1.3430 S   0  0  0  0  0  0  0  0  0  0  0  0
   -2.0288   -2.6957    0.0997 N   0  0  0  0  0  0  0  0  0  0  0  0
   -2.2721   -1.4828    0.6298 C   0  0  0  0  0  0  0  0  0  0  0  0
    0.2519    2.5266   -4.9993 H   0  0  0  0  0  0  0  0  0  0  0  0
   -0.0689    1.6521   -1.6929 H   0  0  0  0  0  0  0  0  0  0  0  0
    1.9761   -0.5557   -2.2344 H   0  0  0  0  0  0  0  0  0  0  0  0
    2.3962    1.0951   -2.6222 H   0  0  0  0  0  0  0  0  0  0  0  0
    2.9555    2.8408   -0.5876 H   0  0  0  0  0  0  0  0  0  0  0  0
    3.2449    2.5065    1.8748 H   0  0  0  0  0  0  0  0  0  0  0  0
    2.7542    0.5642    3.8367 H   0  0  0  0  0  0  0  0  0  0  0  0
    1.8431   -1.7365    4.0991 H   0  0  0  0  0  0  0  0  0  0  0  0
    1.0091   -2.9851    2.1470 H   0  0  0  0  0  0  0  0  0  0  0  0
    1.0491   -1.9762   -0.1150 H   0  0  0  0  0  0  0  0  0  0  0  0
   -0.4696   -1.1644   -2.6803 H   0  0  0  0  0  0  0  0  0  0  0  0
   -2.7292    1.8747    0.2808 H   0  0  0  0  0  0  0  0  0  0  0  0
   -2.9781    1.7557    2.7105 H   0  0  0  0  0  0  0  0  0  0  0  0
   -2.8030   -0.4000    3.9655 H   0  0  0  0  0  0  0  0  0  0  0  0
  1  2  2  0
  2  3  1  0
  2  4  1  0
  4  5  1  0
  5  6  1  0
  6  7  2  0
  7  8  1  0
  8  9  1  0
  9 10  2  0
 10 11  1  0
 11 12  2  0
 12 13  1  0
 13 14  2  0
  4 15  1  0
 15 16  1  0
 16 17  2  0
 16 18  2  0
 16 19  1  0
 19 20  2  0
 20 21  1  0
 21 22  2  0
 22 23  1  0
 23 24  2  0
 24 25  1  0
 25 26  1  0
 26 27  2  0
 14  6  1  0
 27 19  1  0
 14  9  1  0
 27 23  1  0
  3 28  1  0
  4 29  1  0
  5 30  1  0
  5 31  1  0
  7 32  1  0
  8 33  1  0
 10 34  1  0
 11 35  1  0
 12 36  1  0
 13 37  1  0
 15 38  1  0
 20 39  1  0
 21 40  1  0
 22 41  1  0
M  END
$$$$
