
     RDKit          3D

 46 49  0  0  0  0  0  0  0  0999 V2000
    5.2234   -0.7833    0.9457 C   0  0  0  0  0  0  0  0  0  0  0  0
    4.3494   -0.4033    0.0045 C   0  0  0  0  0  0  0  0  0  0  0  0
    2.8672   -0.6911    0.0635 C   0  0  0  0  0  0  0  0  0  0  0  0
    2.0090    0.5948   -0.0597 C   0  0  0  0  0  0  0  0  0  0  0  0
    1.0709    0.5429   -1.2125 N   0  0  0  0  0  0  0  0  0  0  0  0
    1.8692    0.3293   -2.4403 C   0  0  0  0  0  0  0  0  0  0  0  0
    2.5614   -1.0417   -2.4281 C   0  0  0  0  0  0  0  0  0  0  0  0
    2.4063   -1.6784   -1.0361 C   0  0  0  0  0  0  0  0  0  0  0  0
    0.8985   -1.9087   -0.8013 C   0  0  0  0  0  0  0  0  0  0  0  0
    0.1219   -0.5906   -1.0661 C   0  0  0  0  0  0  0  0  0  0  0  0
   -0.9825   -0.3062   -0.0668 C   0  0  0  0  0  0  0  0  0  0  0  0
   -1.6474   -1.3339    0.5687 N   0  0  0  0  0  0  0  0  0  0  0  0
   -2.6375   -0.8600    1.3910 C   0  0  0  0  0  0  0  0  0  0  0  0
   -3.5289   -1.5532    2.2190 C   0  0  0  0  0  0  0  0  0  0  0  0
   -4.4590   -0.8017    2.9421 C   0  0  0  0  0  0  0  0  0  0  0  0
   -4.4950    0.5856    2.8352 C   0  0  0  0  0  0  0  0  0  0  0  0
   -3.5957    1.2591    2.0003 C   0  0  0  0  0  0  0  0  0  0  0  0
   -2.6414    0.5243    1.2651 C   0  0  0  0  0  0  0  0  0  0  0  0
   -1.6079    0.8769    0.3323 C   0  0  0  0  0  0  0  0  0  0  0  0
   -1.3086    2.2799   -0.1276 C   0  0  0  0  0  0  0  0  0  0  0  0
   -1.8079    2.5544   -1.5457 C   0  0  0  0  0  0  0  0  0  0  0  0
   -3.2337    2.6273   -1.5836 O   0  0  0  0  0  0  0  0  0  0  0  0
    6.2783   -0.5424    0.8534 H   0  0  0  0  0  0  0  0  0  0  0  0
    4.9135   -1.3388    1.8255 H   0  0  0  0  0  0  0  0  0  0  0  0
    4.7208    0.1568   -0.8516 H   0  0  0  0  0  0  0  0  0  0  0  0
    2.6426   -1.1457    1.0392 H   0  0  0  0  0  0  0  0  0  0  0  0
    2.6374    1.4902   -0.1542 H   0  0  0  0  0  0  0  0  0  0  0  0
    1.4464    0.7451    0.8703 H   0  0  0  0  0  0  0  0  0  0  0  0
    1.2260    0.4156   -3.3248 H   0  0  0  0  0  0  0  0  0  0  0  0
    2.6140    1.1286   -2.5431 H   0  0  0  0  0  0  0  0  0  0  0  0
    2.1079   -1.6947   -3.1841 H   0  0  0  0  0  0  0  0  0  0  0  0
    3.6179   -0.9335   -2.6966 H   0  0  0  0  0  0  0  0  0  0  0  0
    2.9520   -2.6266   -0.9766 H   0  0  0  0  0  0  0  0  0  0  0  0
    0.7595   -2.2836    0.2196 H   0  0  0  0  0  0  0  0  0  0  0  0
    0.5335   -2.6887   -1.4815 H   0  0  0  0  0  0  0  0  0  0  0  0
   -0.4082   -0.7047   -2.0241 H   0  0  0  0  0  0  0  0  0  0  0  0
   -1.4489   -2.3165    0.4494 H   0  0  0  0  0  0  0  0  0  0  0  0
   -3.5060   -2.6349    2.2999 H   0  0  0  0  0  0  0  0  0  0  0  0
   -5.1657   -1.3086    3.5950 H   0  0  0  0  0  0  0  0  0  0  0  0
   -5.2278    1.1539    3.4025 H   0  0  0  0  0  0  0  0  0  0  0  0
   -3.6387    2.3417    1.9230 H   0  0  0  0  0  0  0  0  0  0  0  0
   -1.7796    2.9939    0.5585 H   0  0  0  0  0  0  0  0  0  0  0  0
   -0.2335    2.4708   -0.0667 H   0  0  0  0  0  0  0  0  0  0  0  0
   -1.4273    3.5210   -1.8902 H   0  0  0  0  0  0  0  0  0  0  0  0
   -1.4839    1.7902   -2.2588 H   0  0  0  0  0  0  0  0  0  0  0  0
   -3.5618    1.7884   -1.2104 H   0  0  0  0  0  0  0  0  0  0  0  0
  1  2  2  0
  2  3  1  0
  3  4  1  0
  4  5  1  0
  5  6  1  0
  6  7  1  0
  7  8  1  0
  8  9  1  0
  9 10  1  0
 10 11  1  0
 11 12  1  0
 12 13  1  0
 13 14  2  0
 14 15  1  0
 15 16  2  0
 16 17  1  0
 17 18  2  0
 18 19  1  0
 19 20  1  0
 20 21  1  0
 21 22  1  0
  8  3  1  0
 19 11  2  0
 10  5  1  0
 18 13  1  0
  1 23  1  0
  1 24  1  0
  2 25  1  0
  3 26  1  0
  4 27  1  0
  4 28  1  0
  6 29  1  0
  6 30  1  0
  7 31  1  0
  7 32  1  0
  8 33  1  0
  9 34  1  0
  9 35  1  0
 10 36  1  0
 12 37  1  0
 14 38  1  0
 15 39  1  0
 16 40  1  0
 17 41  1  0
 20 42  1  0
 20 43  1  0
 21 44  1  0
 21 45  1  0
 22 46  1  0
M  END
$$$$
