
     RDKit          3D

 50 50  0  0  0  0  0  0  0  0999 V2000
    7.9182    0.5251    0.0334 C   0  0  0  0  0  0  0  0  0  0  0  0
    7.5621    1.2960    1.0755 C   0  0  0  0  0  0  0  0  0  0  0  0
    8.1483    2.6680    1.2688 C   0  0  0  0  0  0  0  0  0  0  0  0
    6.6004    0.8091    2.1337 C   0  0  0  0  0  0  0  0  0  0  0  0
    4.9740    1.5899    1.9583 S   0  0  0  0  0  0  0  0  0  0  0  0
    4.2943    0.6568    0.6627 C   0  0  0  0  0  0  0  0  0  0  0  0
    4.6351   -0.5777    0.3484 N   0  0  0  0  0  0  0  0  0  0  0  0
    3.8520   -0.9496   -0.7242 N   0  0  0  0  0  0  0  0  0  0  0  0
    3.0757    0.0799   -0.9813 C   0  0  0  0  0  0  0  0  0  0  0  0
    2.0331    0.2373   -2.0206 C   0  0  0  0  0  0  0  0  0  0  0  0
    0.6145    0.0937   -1.4633 C   0  0  0  0  0  0  0  0  0  0  0  0
    0.3009   -1.3292   -0.9850 C   0  0  0  0  0  0  0  0  0  0  0  0
   -1.1137   -1.4747   -0.4177 C   0  0  0  0  0  0  0  0  0  0  0  0
   -2.2056   -1.3643   -1.4805 C   0  0  0  0  0  0  0  0  0  0  0  0
   -3.5152   -1.5864   -0.9144 N   0  0  0  0  0  0  0  0  0  0  0  0
   -4.2288   -0.6033   -0.2987 C   0  0  0  0  0  0  0  0  0  0  0  0
   -3.8925    0.5674   -0.2292 O   0  0  0  0  0  0  0  0  0  0  0  0
   -5.3511   -1.1479    0.2222 O   0  0  0  0  0  0  0  0  0  0  0  0
   -6.3018   -0.3283    0.9500 C   0  0  0  0  0  0  0  0  0  0  0  0
   -7.4110   -1.3028    1.3744 C   0  0  0  0  0  0  0  0  0  0  0  0
   -5.6703    0.2731    2.2105 C   0  0  0  0  0  0  0  0  0  0  0  0
   -6.9149    0.7483    0.0476 C   0  0  0  0  0  0  0  0  0  0  0  0
    3.2937    1.1373   -0.1432 O   0  0  0  0  0  0  0  0  0  0  0  0
    7.5030   -0.4702   -0.1050 H   0  0  0  0  0  0  0  0  0  0  0  0
    8.6208    0.8702   -0.7195 H   0  0  0  0  0  0  0  0  0  0  0  0
    8.8721    2.9184    0.4855 H   0  0  0  0  0  0  0  0  0  0  0  0
    8.6687    2.7264    2.2303 H   0  0  0  0  0  0  0  0  0  0  0  0
    7.3654    3.4322    1.2497 H   0  0  0  0  0  0  0  0  0  0  0  0
    6.5038   -0.2824    2.1241 H   0  0  0  0  0  0  0  0  0  0  0  0
    6.9967    1.0649    3.1232 H   0  0  0  0  0  0  0  0  0  0  0  0
    2.1968   -0.4969   -2.8181 H   0  0  0  0  0  0  0  0  0  0  0  0
    2.1382    1.2282   -2.4789 H   0  0  0  0  0  0  0  0  0  0  0  0
    0.4613    0.8010   -0.6385 H   0  0  0  0  0  0  0  0  0  0  0  0
   -0.0856    0.3741   -2.2583 H   0  0  0  0  0  0  0  0  0  0  0  0
    1.0076   -1.6121   -0.1958 H   0  0  0  0  0  0  0  0  0  0  0  0
    0.4439   -2.0397   -1.8081 H   0  0  0  0  0  0  0  0  0  0  0  0
   -1.1924   -2.4555    0.0685 H   0  0  0  0  0  0  0  0  0  0  0  0
   -1.2756   -0.7291    0.3706 H   0  0  0  0  0  0  0  0  0  0  0  0
   -2.0601   -2.1187   -2.2605 H   0  0  0  0  0  0  0  0  0  0  0  0
   -2.1951   -0.3760   -1.9512 H   0  0  0  0  0  0  0  0  0  0  0  0
   -3.8807   -2.5229   -0.8154 H   0  0  0  0  0  0  0  0  0  0  0  0
   -7.8641   -1.7824    0.4989 H   0  0  0  0  0  0  0  0  0  0  0  0
   -8.2015   -0.7989    1.9403 H   0  0  0  0  0  0  0  0  0  0  0  0
   -7.0037   -2.1113    1.9931 H   0  0  0  0  0  0  0  0  0  0  0  0
   -4.9225    1.0348    1.9698 H   0  0  0  0  0  0  0  0  0  0  0  0
   -6.4253    0.7465    2.8474 H   0  0  0  0  0  0  0  0  0  0  0  0
   -5.1563   -0.4989    2.7939 H   0  0  0  0  0  0  0  0  0  0  0  0
   -7.2819    0.3098   -0.8875 H   0  0  0  0  0  0  0  0  0  0  0  0
   -6.1832    1.5135   -0.2300 H   0  0  0  0  0  0  0  0  0  0  0  0
   -7.7479    1.2572    0.5444 H   0  0  0  0  0  0  0  0  0  0  0  0
  1  2  2  0
  2  3  1  0
  2  4  1  0
  4  5  1  0
  5  6  1  0
  6  7  2  0
  7  8  1  0
  8  9  2  0
  9 10  1  0
 10 11  1  0
 11 12  1  0
 12 13  1  0
 13 14  1  0
 14 15  1  0
 15 16  1  0
 16 17  2  0
 16 18  1  0
 18 19  1  0
 19 20  1  0
 19 21  1  0
 19 22  1  0
  9 23  1  0
 23  6  1  0
  1 24  1  0
  1 25  1  0
  3 26  1  0
  3 27  1  0
  3 28  1  0
  4 29  1  0
  4 30  1  0
 10 31  1  0
 10 32  1  0
 11 33  1  0
 11 34  1  0
 12 35  1  0
 12 36  1  0
 13 37  1  0
 13 38  1  0
 14 39  1  0
 14 40  1  0
 15 41  1  0
 20 42  1  0
 20 43  1  0
 20 44  1  0
 21 45  1  0
 21 46  1  0
 21 47  1  0
 22 48  1  0
 22 49  1  0
 22 50  1  0
M  END
$$$$
