
     RDKit          3D

 52 55  0  0  0  0  0  0  0  0999 V2000
    5.9111    0.2242    1.1565 C   0  0  0  0  0  0  0  0  0  0  0  0
    6.2272    0.4685   -0.3108 C   0  0  0  0  0  0  0  0  0  0  0  0
    5.3576   -0.2880   -1.3413 C   0  0  0  0  0  0  0  0  0  0  0  0
    5.5611   -1.8103   -1.2981 C   0  0  0  0  0  0  0  0  0  0  0  0
    3.9323    0.1670   -1.3584 N   0  0  0  0  0  0  0  0  0  0  0  0
    3.0490   -0.4337   -0.4518 C   0  0  0  0  0  0  0  0  0  0  0  0
    3.3951   -1.2752    0.3773 O   0  0  0  0  0  0  0  0  0  0  0  0
    1.6209   -0.0061   -0.5050 C   0  0  0  0  0  0  0  0  0  0  0  0
    0.7619   -0.6592    0.3057 C   0  0  0  0  0  0  0  0  0  0  0  0
   -0.6780   -0.4328    0.4516 C   0  0  0  0  0  0  0  0  0  0  0  0
   -1.1583    0.5857    1.2740 C   0  0  0  0  0  0  0  0  0  0  0  0
   -2.5407    0.7837    1.4370 C   0  0  0  0  0  0  0  0  0  0  0  0
   -3.4677   -0.0643    0.7938 C   0  0  0  0  0  0  0  0  0  0  0  0
   -2.9695   -1.0778   -0.0527 C   0  0  0  0  0  0  0  0  0  0  0  0
   -1.5844   -1.2631   -0.2068 C   0  0  0  0  0  0  0  0  0  0  0  0
   -3.9043   -2.0205   -0.7681 C   0  0  0  0  0  0  0  0  0  0  0  0
   -5.3252   -1.4809   -0.8238 C   0  0  0  0  0  0  0  0  0  0  0  0
   -5.7230   -0.9689    0.5505 C   0  0  0  0  0  0  0  0  0  0  0  0
   -4.8488    0.1335    0.9439 N   0  0  0  0  0  0  0  0  0  0  0  0
   -5.2826    0.9448    2.0789 C   0  0  0  0  0  0  0  0  0  0  0  0
   -4.4709    2.2280    2.1395 C   0  0  0  0  0  0  0  0  0  0  0  0
   -3.0046    1.8865    2.3550 C   0  0  0  0  0  0  0  0  0  0  0  0
    1.2160    1.0787   -1.4125 C   0  0  0  0  0  0  0  0  0  0  0  0
    0.0779    1.5027   -1.5595 O   0  0  0  0  0  0  0  0  0  0  0  0
    2.2414    1.6193   -2.1294 N   0  0  0  0  0  0  0  0  0  0  0  0
    3.5528    1.2369   -2.1731 C   0  0  0  0  0  0  0  0  0  0  0  0
    4.5134    2.1273   -3.2264 S   0  0  0  0  0  0  0  0  0  0  0  0
    4.9199    0.6030    1.4200 H   0  0  0  0  0  0  0  0  0  0  0  0
    6.6361    0.7543    1.7834 H   0  0  0  0  0  0  0  0  0  0  0  0
    5.9680   -0.8365    1.4148 H   0  0  0  0  0  0  0  0  0  0  0  0
    6.1567    1.5470   -0.4950 H   0  0  0  0  0  0  0  0  0  0  0  0
    7.2772    0.1975   -0.4805 H   0  0  0  0  0  0  0  0  0  0  0  0
    5.7804   -0.0239   -2.3165 H   0  0  0  0  0  0  0  0  0  0  0  0
    4.8989   -2.3099   -2.0133 H   0  0  0  0  0  0  0  0  0  0  0  0
    5.3901   -2.2476   -0.3121 H   0  0  0  0  0  0  0  0  0  0  0  0
    6.5935   -2.0566   -1.5720 H   0  0  0  0  0  0  0  0  0  0  0  0
    1.1190   -1.4623    0.9506 H   0  0  0  0  0  0  0  0  0  0  0  0
   -0.4603    1.2382    1.7932 H   0  0  0  0  0  0  0  0  0  0  0  0
   -1.2204   -2.0626   -0.8481 H   0  0  0  0  0  0  0  0  0  0  0  0
   -3.5509   -2.2001   -1.7904 H   0  0  0  0  0  0  0  0  0  0  0  0
   -3.8956   -2.9809   -0.2378 H   0  0  0  0  0  0  0  0  0  0  0  0
   -6.0119   -2.2673   -1.1554 H   0  0  0  0  0  0  0  0  0  0  0  0
   -5.3855   -0.6648   -1.5556 H   0  0  0  0  0  0  0  0  0  0  0  0
   -6.7612   -0.6188    0.5082 H   0  0  0  0  0  0  0  0  0  0  0  0
   -5.6807   -1.7727    1.2966 H   0  0  0  0  0  0  0  0  0  0  0  0
   -5.1870    0.3751    3.0121 H   0  0  0  0  0  0  0  0  0  0  0  0
   -6.3416    1.2039    1.9631 H   0  0  0  0  0  0  0  0  0  0  0  0
   -4.5896    2.7868    1.2020 H   0  0  0  0  0  0  0  0  0  0  0  0
   -4.8286    2.8720    2.9503 H   0  0  0  0  0  0  0  0  0  0  0  0
   -2.8510    1.5586    3.3906 H   0  0  0  0  0  0  0  0  0  0  0  0
   -2.4017    2.7886    2.1972 H   0  0  0  0  0  0  0  0  0  0  0  0
    1.9664    2.3729   -2.7473 H   0  0  0  0  0  0  0  0  0  0  0  0
  1  2  1  0
  2  3  1  0
  3  4  1  0
  3  5  1  0
  5  6  1  0
  6  7  2  0
  6  8  1  0
  8  9  2  3
  9 10  1  0
 10 11  2  0
 11 12  1  0
 12 13  2  0
 13 14  1  0
 14 15  2  0
 14 16  1  0
 16 17  1  0
 17 18  1  0
 18 19  1  0
 19 20  1  0
 20 21  1  0
 21 22  1  0
  8 23  1  0
 23 24  2  0
 23 25  1  0
 25 26  1  0
 26 27  2  0
 26  5  1  0
 15 10  1  0
 22 12  1  0
 19 13  1  0
  1 28  1  0
  1 29  1  0
  1 30  1  0
  2 31  1  0
  2 32  1  0
  3 33  1  0
  4 34  1  0
  4 35  1  0
  4 36  1  0
  9 37  1  0
 11 38  1  0
 15 39  1  0
 16 40  1  0
 16 41  1  0
 17 42  1  0
 17 43  1  0
 18 44  1  0
 18 45  1  0
 20 46  1  0
 20 47  1  0
 21 48  1  0
 21 49  1  0
 22 50  1  0
 22 51  1  0
 25 52  1  0
M  END
$$$$
