
     RDKit          3D

 43 45  0  0  0  0  0  0  0  0999 V2000
    2.3589   -1.6084   -0.2396 O   0  0  0  0  0  0  0  0  0  0  0  0
    2.2724   -0.3975   -0.4641 C   0  0  0  0  0  0  0  0  0  0  0  0
    3.3797    0.3528   -1.2454 C   0  0  0  0  0  0  0  0  0  0  0  0
    4.2459    1.1836   -0.3111 C   0  0  0  0  0  0  0  0  0  0  0  0
    5.3218    0.2003    0.0823 C   0  0  0  0  0  0  0  0  0  0  0  0
    5.5136   -0.5969   -1.1884 C   0  0  0  0  0  0  0  0  0  0  0  0
    4.2816   -0.5390   -1.9172 O   0  0  0  0  0  0  0  0  0  0  0  0
    1.1817    0.3323   -0.0005 N   0  0  0  0  0  0  0  0  0  0  0  0
    0.9567    1.7687   -0.1790 C   0  0  0  0  0  0  0  0  0  0  0  0
   -0.5086    2.1052   -0.5073 C   0  0  0  0  0  0  0  0  0  0  0  0
   -1.5024    1.3931    0.3210 N   0  0  0  0  0  0  0  0  0  0  0  0
   -2.8439    1.7485    0.3161 C   0  0  0  0  0  0  0  0  0  0  0  0
   -3.4564    3.2119   -0.2367 S   0  0  0  0  0  0  0  0  0  0  0  0
   -3.7526    0.8843    0.8638 N   0  0  0  0  0  0  0  0  0  0  0  0
   -3.9237   -0.4895    0.5674 C   0  0  0  0  0  0  0  0  0  0  0  0
   -3.1807   -1.1659   -0.4060 C   0  0  0  0  0  0  0  0  0  0  0  0
   -3.4173   -2.5197   -0.6588 C   0  0  0  0  0  0  0  0  0  0  0  0
   -4.4062   -3.1883    0.0513 C   0  0  0  0  0  0  0  0  0  0  0  0
   -4.6341   -4.4849   -0.1930 F   0  0  0  0  0  0  0  0  0  0  0  0
   -5.1687   -2.5270    1.0054 C   0  0  0  0  0  0  0  0  0  0  0  0
   -4.9320   -1.1741    1.2588 C   0  0  0  0  0  0  0  0  0  0  0  0
   -0.9253    0.5138    1.3548 C   0  0  0  0  0  0  0  0  0  0  0  0
    0.1777   -0.3887    0.7889 C   0  0  0  0  0  0  0  0  0  0  0  0
    2.9048    0.9592   -2.0216 H   0  0  0  0  0  0  0  0  0  0  0  0
    3.7234    1.5961    0.5557 H   0  0  0  0  0  0  0  0  0  0  0  0
    4.6980    2.0137   -0.8671 H   0  0  0  0  0  0  0  0  0  0  0  0
    4.9562   -0.4539    0.8825 H   0  0  0  0  0  0  0  0  0  0  0  0
    6.2434    0.6744    0.4303 H   0  0  0  0  0  0  0  0  0  0  0  0
    6.2927   -0.1547   -1.8181 H   0  0  0  0  0  0  0  0  0  0  0  0
    5.7775   -1.6400   -0.9919 H   0  0  0  0  0  0  0  0  0  0  0  0
    1.2381    2.2434    0.7692 H   0  0  0  0  0  0  0  0  0  0  0  0
    1.6042    2.1901   -0.9495 H   0  0  0  0  0  0  0  0  0  0  0  0
   -0.6422    3.1871   -0.4104 H   0  0  0  0  0  0  0  0  0  0  0  0
   -0.7249    1.8323   -1.5473 H   0  0  0  0  0  0  0  0  0  0  0  0
   -4.6102    1.3430    1.1557 H   0  0  0  0  0  0  0  0  0  0  0  0
   -2.4302   -0.6540   -1.0007 H   0  0  0  0  0  0  0  0  0  0  0  0
   -2.8427   -3.0508   -1.4114 H   0  0  0  0  0  0  0  0  0  0  0  0
   -5.9411   -3.0666    1.5439 H   0  0  0  0  0  0  0  0  0  0  0  0
   -5.5322   -0.6676    2.0105 H   0  0  0  0  0  0  0  0  0  0  0  0
   -1.6802   -0.0834    1.8693 H   0  0  0  0  0  0  0  0  0  0  0  0
   -0.5029    1.1803    2.1181 H   0  0  0  0  0  0  0  0  0  0  0  0
   -0.2559   -1.1512    0.1321 H   0  0  0  0  0  0  0  0  0  0  0  0
    0.6858   -0.9122    1.6071 H   0  0  0  0  0  0  0  0  0  0  0  0
  1  2  2  0
  2  3  1  0
  3  4  1  0
  4  5  1  0
  5  6  1  0
  6  7  1  0
  2  8  1  0
  8  9  1  0
  9 10  1  0
 10 11  1  0
 11 12  1  0
 12 13  2  0
 12 14  1  0
 14 15  1  0
 15 16  2  0
 16 17  1  0
 17 18  2  0
 18 19  1  0
 18 20  1  0
 20 21  2  0
 11 22  1  0
 22 23  1  0
  7  3  1  0
 23  8  1  0
 21 15  1  0
  3 24  1  0
  4 25  1  0
  4 26  1  0
  5 27  1  0
  5 28  1  0
  6 29  1  0
  6 30  1  0
  9 31  1  0
  9 32  1  0
 10 33  1  0
 10 34  1  0
 14 35  1  0
 16 36  1  0
 17 37  1  0
 20 38  1  0
 21 39  1  0
 22 40  1  0
 22 41  1  0
 23 42  1  0
 23 43  1  0
M  END
$$$$
