
     RDKit          3D

 40 41  0  0  0  0  0  0  0  0999 V2000
    0.4440   -3.2594   -0.6097 C   0  0  0  0  0  0  0  0  0  0  0  0
    1.1470   -2.1802    0.2052 C   0  0  0  0  0  0  0  0  0  0  0  0
    0.6797   -0.7655   -0.1756 C   0  0  0  0  0  0  0  0  0  0  0  0
    1.4055    0.3177    0.6463 C   0  0  0  0  0  0  0  0  0  0  0  0
    2.8555    0.4936    0.2678 C   0  0  0  0  0  0  0  0  0  0  0  0
    3.1971    1.1233   -0.9371 C   0  0  0  0  0  0  0  0  0  0  0  0
    4.5357    1.2807   -1.2983 C   0  0  0  0  0  0  0  0  0  0  0  0
    5.5444    0.8118   -0.4590 C   0  0  0  0  0  0  0  0  0  0  0  0
    5.2156    0.1876    0.7430 C   0  0  0  0  0  0  0  0  0  0  0  0
    3.8771    0.0295    1.1065 C   0  0  0  0  0  0  0  0  0  0  0  0
   -0.7374   -0.6938    0.1012 O   0  0  0  0  0  0  0  0  0  0  0  0
   -1.4215    0.2401   -0.6010 C   0  0  0  0  0  0  0  0  0  0  0  0
   -0.9908    1.0027   -1.4476 O   0  0  0  0  0  0  0  0  0  0  0  0
   -2.8330    0.1875   -0.1914 C   0  0  0  0  0  0  0  0  0  0  0  0
   -3.5513   -0.9994   -0.3982 C   0  0  0  0  0  0  0  0  0  0  0  0
   -4.9145   -1.0478   -0.1039 C   0  0  0  0  0  0  0  0  0  0  0  0
   -5.5634    0.0852    0.3877 C   0  0  0  0  0  0  0  0  0  0  0  0
   -4.8492    1.2677    0.5964 C   0  0  0  0  0  0  0  0  0  0  0  0
   -3.4772    1.3226    0.3092 C   0  0  0  0  0  0  0  0  0  0  0  0
   -2.7127    2.5469    0.6153 C   0  0  0  0  0  0  0  0  0  0  0  0
   -1.5871    2.5966    1.0703 O   0  0  0  0  0  0  0  0  0  0  0  0
   -3.4223    3.6563    0.3447 O   0  0  0  0  0  0  0  0  0  0  0  0
   -0.6350   -3.2597   -0.4277 H   0  0  0  0  0  0  0  0  0  0  0  0
    0.8295   -4.2470   -0.3373 H   0  0  0  0  0  0  0  0  0  0  0  0
    0.6133   -3.1126   -1.6812 H   0  0  0  0  0  0  0  0  0  0  0  0
    2.2270   -2.2794    0.0529 H   0  0  0  0  0  0  0  0  0  0  0  0
    0.9422   -2.3663    1.2665 H   0  0  0  0  0  0  0  0  0  0  0  0
    0.8512   -0.6228   -1.2508 H   0  0  0  0  0  0  0  0  0  0  0  0
    0.9037    1.2863    0.5266 H   0  0  0  0  0  0  0  0  0  0  0  0
    1.3119    0.0945    1.7174 H   0  0  0  0  0  0  0  0  0  0  0  0
    2.4178    1.4994   -1.5981 H   0  0  0  0  0  0  0  0  0  0  0  0
    4.7900    1.7723   -2.2335 H   0  0  0  0  0  0  0  0  0  0  0  0
    6.5867    0.9364   -0.7400 H   0  0  0  0  0  0  0  0  0  0  0  0
    6.0022   -0.1747    1.3995 H   0  0  0  0  0  0  0  0  0  0  0  0
    3.6371   -0.4587    2.0481 H   0  0  0  0  0  0  0  0  0  0  0  0
   -3.0545   -1.8794   -0.8010 H   0  0  0  0  0  0  0  0  0  0  0  0
   -5.4737   -1.9667   -0.2662 H   0  0  0  0  0  0  0  0  0  0  0  0
   -6.6269    0.0470    0.6137 H   0  0  0  0  0  0  0  0  0  0  0  0
   -5.3635    2.1400    0.9948 H   0  0  0  0  0  0  0  0  0  0  0  0
   -2.8002    4.3878    0.5442 H   0  0  0  0  0  0  0  0  0  0  0  0
  1  2  1  0
  2  3  1  0
  3  4  1  0
  4  5  1  0
  5  6  2  0
  6  7  1  0
  7  8  2  0
  8  9  1  0
  9 10  2  0
  3 11  1  0
 11 12  1  0
 12 13  2  0
 12 14  1  0
 14 15  2  0
 15 16  1  0
 16 17  2  0
 17 18  1  0
 18 19  2  0
 19 20  1  0
 20 21  2  0
 20 22  1  0
 10  5  1  0
 19 14  1  0
  1 23  1  0
  1 24  1  0
  1 25  1  0
  2 26  1  0
  2 27  1  0
  3 28  1  0
  4 29  1  0
  4 30  1  0
  6 31  1  0
  7 32  1  0
  8 33  1  0
  9 34  1  0
 10 35  1  0
 15 36  1  0
 16 37  1  0
 17 38  1  0
 18 39  1  0
 22 40  1  0
M  END
$$$$
