
     RDKit          3D

 73 75  0  0  0  0  0  0  0  0999 V2000
    9.8401   -1.5498   -1.6533 C   0  0  0  0  0  0  0  0  0  0  0  0
    8.8380   -0.4105   -1.5578 C   0  0  0  0  0  0  0  0  0  0  0  0
    7.5807   -0.7105   -2.3713 C   0  0  0  0  0  0  0  0  0  0  0  0
    6.5510    0.4213   -2.3416 C   0  0  0  0  0  0  0  0  0  0  0  0
    5.9654    0.7642   -0.9668 C   0  0  0  0  0  0  0  0  0  0  0  0
    5.3478   -0.4416   -0.2550 C   0  0  0  0  0  0  0  0  0  0  0  0
    4.5563   -0.0668    1.0008 C   0  0  0  0  0  0  0  0  0  0  0  0
    3.2171    0.6059    0.6814 C   0  0  0  0  0  0  0  0  0  0  0  0
    2.3668    0.7652    1.9439 C   0  0  0  0  0  0  0  0  0  0  0  0
    1.0198    1.4607    1.7007 C   0  0  0  0  0  0  0  0  0  0  0  0
    0.1428    0.6988    0.7039 C   0  0  0  0  0  0  0  0  0  0  0  0
   -1.3444    1.1400    0.7086 N   0  0  0  0  0  4  0  0  0  0  0  0
   -1.4614    2.6372    0.4362 C   0  0  0  0  0  0  0  0  0  0  0  0
   -2.0159    0.3971   -0.4545 C   0  0  0  0  0  0  0  0  0  0  0  0
   -1.9852    0.7711    2.0724 C   0  0  0  0  0  0  0  0  0  0  0  0
   -3.5266    0.8110    2.1258 C   0  0  0  0  0  0  0  0  0  0  0  0
   -4.1771   -0.4724    1.6611 C   0  0  0  0  0  0  0  0  0  0  0  0
   -5.2075   -0.6381    0.8002 C   0  0  0  0  0  0  0  0  0  0  0  0
   -5.9045    0.5040    0.1564 C   0  0  0  0  0  0  0  0  0  0  0  0
   -6.4474    1.5587    0.9045 C   0  0  0  0  0  0  0  0  0  0  0  0
   -7.1070    2.6107    0.2682 C   0  0  0  0  0  0  0  0  0  0  0  0
   -7.2519    2.6076   -1.1173 C   0  0  0  0  0  0  0  0  0  0  0  0
   -6.7541    1.5434   -1.8701 C   0  0  0  0  0  0  0  0  0  0  0  0
   -6.0959    0.4811   -1.2391 C   0  0  0  0  0  0  0  0  0  0  0  0
   -5.5279   -0.8932   -2.2414 S   0  0  0  0  0  0  0  0  0  0  0  0
   -5.6536   -2.2381   -1.0582 C   0  0  0  0  0  0  0  0  0  0  0  0
   -5.9000   -3.5294   -1.5412 C   0  0  0  0  0  0  0  0  0  0  0  0
   -6.0002   -4.6031   -0.6539 C   0  0  0  0  0  0  0  0  0  0  0  0
   -5.8645   -4.3854    0.7155 C   0  0  0  0  0  0  0  0  0  0  0  0
   -5.9731   -5.7137    1.8075 Cl  0  0  0  0  0  0  0  0  0  0  0  0
   -5.6190   -3.1049    1.2110 C   0  0  0  0  0  0  0  0  0  0  0  0
   -5.4893   -2.0233    0.3273 C   0  0  0  0  0  0  0  0  0  0  0  0
   10.1305   -1.7327   -2.6918 H   0  0  0  0  0  0  0  0  0  0  0  0
    9.4177   -2.4736   -1.2469 H   0  0  0  0  0  0  0  0  0  0  0  0
   10.7432   -1.3100   -1.0846 H   0  0  0  0  0  0  0  0  0  0  0  0
    9.3057    0.5112   -1.9219 H   0  0  0  0  0  0  0  0  0  0  0  0
    8.5853   -0.2547   -0.5045 H   0  0  0  0  0  0  0  0  0  0  0  0
    7.8672   -0.8816   -3.4164 H   0  0  0  0  0  0  0  0  0  0  0  0
    7.1233   -1.6446   -2.0254 H   0  0  0  0  0  0  0  0  0  0  0  0
    5.7262    0.1476   -3.0104 H   0  0  0  0  0  0  0  0  0  0  0  0
    7.0023    1.3278   -2.7647 H   0  0  0  0  0  0  0  0  0  0  0  0
    6.7391    1.2088   -0.3300 H   0  0  0  0  0  0  0  0  0  0  0  0
    5.2076    1.5419   -1.1155 H   0  0  0  0  0  0  0  0  0  0  0  0
    6.1495   -1.1261    0.0467 H   0  0  0  0  0  0  0  0  0  0  0  0
    4.6991   -0.9954   -0.9439 H   0  0  0  0  0  0  0  0  0  0  0  0
    4.3641   -0.9868    1.5671 H   0  0  0  0  0  0  0  0  0  0  0  0
    5.1596    0.5828    1.6462 H   0  0  0  0  0  0  0  0  0  0  0  0
    2.6804   -0.0039   -0.0542 H   0  0  0  0  0  0  0  0  0  0  0  0
    3.3847    1.5898    0.2302 H   0  0  0  0  0  0  0  0  0  0  0  0
    2.1820   -0.2231    2.3871 H   0  0  0  0  0  0  0  0  0  0  0  0
    2.9291    1.3446    2.6882 H   0  0  0  0  0  0  0  0  0  0  0  0
    1.2057    2.4783    1.3344 H   0  0  0  0  0  0  0  0  0  0  0  0
    0.5270    1.5565    2.6723 H   0  0  0  0  0  0  0  0  0  0  0  0
    0.1462   -0.3780    0.9109 H   0  0  0  0  0  0  0  0  0  0  0  0
    0.5158    0.8569   -0.3153 H   0  0  0  0  0  0  0  0  0  0  0  0
   -0.8945    2.8695   -0.4714 H   0  0  0  0  0  0  0  0  0  0  0  0
   -2.5162    2.8927    0.2943 H   0  0  0  0  0  0  0  0  0  0  0  0
   -1.0586    3.1859    1.2921 H   0  0  0  0  0  0  0  0  0  0  0  0
   -3.0272    0.7847   -0.5840 H   0  0  0  0  0  0  0  0  0  0  0  0
   -2.0134   -0.6744   -0.2335 H   0  0  0  0  0  0  0  0  0  0  0  0
   -1.4439    0.5959   -1.3669 H   0  0  0  0  0  0  0  0  0  0  0  0
   -1.6067   -0.2209    2.3497 H   0  0  0  0  0  0  0  0  0  0  0  0
   -1.6004    1.4959    2.7983 H   0  0  0  0  0  0  0  0  0  0  0  0
   -3.8134    0.9358    3.1779 H   0  0  0  0  0  0  0  0  0  0  0  0
   -3.8928    1.6945    1.5990 H   0  0  0  0  0  0  0  0  0  0  0  0
   -3.6959   -1.3666    2.0641 H   0  0  0  0  0  0  0  0  0  0  0  0
   -6.3781    1.5611    1.9904 H   0  0  0  0  0  0  0  0  0  0  0  0
   -7.5306    3.4245    0.8539 H   0  0  0  0  0  0  0  0  0  0  0  0
   -7.7824    3.4201   -1.6100 H   0  0  0  0  0  0  0  0  0  0  0  0
   -6.9109    1.5391   -2.9480 H   0  0  0  0  0  0  0  0  0  0  0  0
   -6.0196   -3.7106   -2.6077 H   0  0  0  0  0  0  0  0  0  0  0  0
   -6.1900   -5.6034   -1.0375 H   0  0  0  0  0  0  0  0  0  0  0  0
   -5.5360   -2.9566    2.2850 H   0  0  0  0  0  0  0  0  0  0  0  0
  1  2  1  0
  2  3  1  0
  3  4  1  0
  4  5  1  0
  5  6  1  0
  6  7  1  0
  7  8  1  0
  8  9  1  0
  9 10  1  0
 10 11  1  0
 11 12  1  0
 12 13  1  0
 12 14  1  0
 12 15  1  0
 15 16  1  0
 16 17  1  0
 17 18  2  3
 18 19  1  0
 19 20  2  0
 20 21  1  0
 21 22  2  0
 22 23  1  0
 23 24  2  0
 24 25  1  0
 25 26  1  0
 26 27  2  0
 27 28  1  0
 28 29  2  0
 29 30  1  0
 29 31  1  0
 31 32  2  0
 32 18  1  0
 24 19  1  0
 32 26  1  0
  1 33  1  0
  1 34  1  0
  1 35  1  0
  2 36  1  0
  2 37  1  0
  3 38  1  0
  3 39  1  0
  4 40  1  0
  4 41  1  0
  5 42  1  0
  5 43  1  0
  6 44  1  0
  6 45  1  0
  7 46  1  0
  7 47  1  0
  8 48  1  0
  8 49  1  0
  9 50  1  0
  9 51  1  0
 10 52  1  0
 10 53  1  0
 11 54  1  0
 11 55  1  0
 13 56  1  0
 13 57  1  0
 13 58  1  0
 14 59  1  0
 14 60  1  0
 14 61  1  0
 15 62  1  0
 15 63  1  0
 16 64  1  0
 16 65  1  0
 17 66  1  0
 20 67  1  0
 21 68  1  0
 22 69  1  0
 23 70  1  0
 27 71  1  0
 28 72  1  0
 31 73  1  0
M  CHG  1  12   1
M  END
$$$$
