
     RDKit          3D

 37 39  0  0  0  0  0  0  0  0999 V2000
   -2.7996   -3.1155   -3.4901 C   0  0  0  0  0  0  0  0  0  0  0  0
   -3.3531   -1.8046   -3.4882 O   0  0  0  0  0  0  0  0  0  0  0  0
   -2.8228   -0.9104   -2.5917 C   0  0  0  0  0  0  0  0  0  0  0  0
   -1.8107   -1.1757   -1.6704 C   0  0  0  0  0  0  0  0  0  0  0  0
   -1.3520   -0.1634   -0.8137 C   0  0  0  0  0  0  0  0  0  0  0  0
   -0.3004   -0.4882    0.1633 C   0  0  0  0  0  0  0  0  0  0  0  0
    0.7600    0.3073    0.3804 C   0  0  0  0  0  0  0  0  0  0  0  0
    1.8143    0.0469    1.3090 C   0  0  0  0  0  0  0  0  0  0  0  0
    2.8319    0.8675    1.4889 N   0  0  0  0  0  0  0  0  0  0  0  0
    3.7082    0.3800    2.4425 C   0  0  0  0  0  0  0  0  0  0  0  0
    4.8954    1.0066    2.8728 C   0  0  0  0  0  0  0  0  0  0  0  0
    5.6891    0.3968    3.8498 C   0  0  0  0  0  0  0  0  0  0  0  0
    5.3138   -0.8248    4.3997 C   0  0  0  0  0  0  0  0  0  0  0  0
    4.1406   -1.4654    3.9887 C   0  0  0  0  0  0  0  0  0  0  0  0
    3.3523   -0.8425    3.0066 C   0  0  0  0  0  0  0  0  0  0  0  0
    1.8776   -1.3691    2.3030 S   0  0  0  0  0  0  0  0  0  0  0  0
   -1.9342    1.1146   -0.8689 C   0  0  0  0  0  0  0  0  0  0  0  0
   -2.9498    1.3975   -1.7858 C   0  0  0  0  0  0  0  0  0  0  0  0
   -3.5767    2.6074   -1.9206 O   0  0  0  0  0  0  0  0  0  0  0  0
   -3.1371    3.6722   -1.0902 C   0  0  0  0  0  0  0  0  0  0  0  0
   -3.3806    0.3754   -2.6391 C   0  0  0  0  0  0  0  0  0  0  0  0
   -4.3791    0.6271   -3.5505 O   0  0  0  0  0  0  0  0  0  0  0  0
   -1.7358   -3.0945   -3.7484 H   0  0  0  0  0  0  0  0  0  0  0  0
   -2.9653   -3.6144   -2.5296 H   0  0  0  0  0  0  0  0  0  0  0  0
   -3.3177   -3.6953   -4.2600 H   0  0  0  0  0  0  0  0  0  0  0  0
   -1.3560   -2.1589   -1.6046 H   0  0  0  0  0  0  0  0  0  0  0  0
   -0.4363   -1.4323    0.6835 H   0  0  0  0  0  0  0  0  0  0  0  0
    0.8700    1.2314   -0.1818 H   0  0  0  0  0  0  0  0  0  0  0  0
    5.1834    1.9597    2.4404 H   0  0  0  0  0  0  0  0  0  0  0  0
    6.6043    0.8834    4.1792 H   0  0  0  0  0  0  0  0  0  0  0  0
    5.9398   -1.2889    5.1592 H   0  0  0  0  0  0  0  0  0  0  0  0
    3.8485   -2.4187    4.4185 H   0  0  0  0  0  0  0  0  0  0  0  0
   -1.5877    1.8748   -0.1762 H   0  0  0  0  0  0  0  0  0  0  0  0
   -2.0835    3.9081   -1.2732 H   0  0  0  0  0  0  0  0  0  0  0  0
   -3.3147    3.4471   -0.0335 H   0  0  0  0  0  0  0  0  0  0  0  0
   -3.7250    4.5595   -1.3440 H   0  0  0  0  0  0  0  0  0  0  0  0
   -4.5111   -0.2147   -4.0250 H   0  0  0  0  0  0  0  0  0  0  0  0
  1  2  1  0
  2  3  1  0
  3  4  2  0
  4  5  1  0
  5  6  1  0
  6  7  2  3
  7  8  1  0
  8  9  2  0
  9 10  1  0
 10 11  2  0
 11 12  1  0
 12 13  2  0
 13 14  1  0
 14 15  2  0
 15 16  1  0
  5 17  2  0
 17 18  1  0
 18 19  1  0
 19 20  1  0
 18 21  2  0
 21 22  1  0
 21  3  1  0
 16  8  1  0
 15 10  1  0
  1 23  1  0
  1 24  1  0
  1 25  1  0
  4 26  1  0
  6 27  1  0
  7 28  1  0
 11 29  1  0
 12 30  1  0
 13 31  1  0
 14 32  1  0
 17 33  1  0
 20 34  1  0
 20 35  1  0
 20 36  1  0
 22 37  1  0
M  END
$$$$
