
     RDKit          3D

 38 39  0  0  0  0  0  0  0  0999 V2000
    6.1978   -1.4541   -0.2298 C   0  0  0  0  0  0  0  0  0  0  0  0
    4.9776   -0.6190    0.1250 C   0  0  0  0  0  0  0  0  0  0  0  0
    4.1852   -0.2277   -1.1215 C   0  0  0  0  0  0  0  0  0  0  0  0
    2.9962    0.5801   -0.7679 C   0  0  0  0  0  0  0  0  0  0  0  0
    2.8839    1.8802   -0.6109 N   0  0  0  0  0  0  0  0  0  0  0  0
    1.5662    2.1160   -0.2775 N   0  0  0  0  0  0  0  0  0  0  0  0
    0.9650    0.9428   -0.2577 C   0  0  0  0  0  0  0  0  0  0  0  0
   -0.4247    0.6078    0.0317 C   0  0  0  0  0  0  0  0  0  0  0  0
   -1.3059    1.6276    0.4326 C   0  0  0  0  0  0  0  0  0  0  0  0
   -2.6446    1.3498    0.7170 C   0  0  0  0  0  0  0  0  0  0  0  0
   -3.5685    2.2788    1.1199 O   0  0  0  0  0  0  0  0  0  0  0  0
   -3.0949    3.5827    1.4293 C   0  0  0  0  0  0  0  0  0  0  0  0
   -3.1074    0.0315    0.5710 C   0  0  0  0  0  0  0  0  0  0  0  0
   -4.4164   -0.2646    0.8835 O   0  0  0  0  0  0  0  0  0  0  0  0
   -5.2363   -0.1112   -0.2738 C   0  0  0  0  0  0  0  0  0  0  0  0
   -2.2436   -1.0079    0.1863 C   0  0  0  0  0  0  0  0  0  0  0  0
   -2.8027   -2.2560    0.0909 O   0  0  0  0  0  0  0  0  0  0  0  0
   -1.9417   -3.3460   -0.2092 C   0  0  0  0  0  0  0  0  0  0  0  0
   -0.9056   -0.7081   -0.0841 C   0  0  0  0  0  0  0  0  0  0  0  0
    1.8188   -0.0875   -0.5617 O   0  0  0  0  0  0  0  0  0  0  0  0
    6.8610   -0.9105   -0.9120 H   0  0  0  0  0  0  0  0  0  0  0  0
    6.7667   -1.6984    0.6731 H   0  0  0  0  0  0  0  0  0  0  0  0
    5.9026   -2.3929   -0.7114 H   0  0  0  0  0  0  0  0  0  0  0  0
    5.3024    0.2818    0.6610 H   0  0  0  0  0  0  0  0  0  0  0  0
    4.3403   -1.1865    0.8161 H   0  0  0  0  0  0  0  0  0  0  0  0
    4.8219    0.3528   -1.7999 H   0  0  0  0  0  0  0  0  0  0  0  0
    3.8727   -1.1260   -1.6673 H   0  0  0  0  0  0  0  0  0  0  0  0
   -0.9174    2.6395    0.5144 H   0  0  0  0  0  0  0  0  0  0  0  0
   -3.9386    4.1610    1.8181 H   0  0  0  0  0  0  0  0  0  0  0  0
   -2.3246    3.5537    2.2075 H   0  0  0  0  0  0  0  0  0  0  0  0
   -2.7311    4.0896    0.5298 H   0  0  0  0  0  0  0  0  0  0  0  0
   -4.9195   -0.7814   -1.0812 H   0  0  0  0  0  0  0  0  0  0  0  0
   -6.2599   -0.3791    0.0040 H   0  0  0  0  0  0  0  0  0  0  0  0
   -5.2428    0.9268   -0.6241 H   0  0  0  0  0  0  0  0  0  0  0  0
   -2.5452   -4.2593   -0.2122 H   0  0  0  0  0  0  0  0  0  0  0  0
   -1.5018   -3.2373   -1.2059 H   0  0  0  0  0  0  0  0  0  0  0  0
   -1.1674   -3.4608    0.5567 H   0  0  0  0  0  0  0  0  0  0  0  0
   -0.2176   -1.4883   -0.3937 H   0  0  0  0  0  0  0  0  0  0  0  0
  1  2  1  0
  2  3  1  0
  3  4  1  0
  4  5  2  0
  5  6  1  0
  6  7  2  0
  7  8  1  0
  8  9  2  0
  9 10  1  0
 10 11  1  0
 11 12  1  0
 10 13  2  0
 13 14  1  0
 14 15  1  0
 13 16  1  0
 16 17  1  0
 17 18  1  0
 16 19  2  0
  7 20  1  0
 20  4  1  0
 19  8  1  0
  1 21  1  0
  1 22  1  0
  1 23  1  0
  2 24  1  0
  2 25  1  0
  3 26  1  0
  3 27  1  0
  9 28  1  0
 12 29  1  0
 12 30  1  0
 12 31  1  0
 15 32  1  0
 15 33  1  0
 15 34  1  0
 18 35  1  0
 18 36  1  0
 18 37  1  0
 19 38  1  0
M  END
$$$$
