
     RDKit          3D

 33 34  0  0  0  0  0  0  0  0999 V2000
    6.5551    0.3468   -1.3108 C   0  0  0  0  0  0  0  0  0  0  0  0
    5.6839   -0.3924   -0.3054 C   0  0  0  0  0  0  0  0  0  0  0  0
    5.4311    0.4630    0.9345 C   0  0  0  0  0  0  0  0  0  0  0  0
    4.4243   -0.4221    2.1644 S   0  0  0  0  0  0  0  0  0  0  0  0
    2.8183   -0.2532    1.4935 C   0  0  0  0  0  0  0  0  0  0  0  0
    2.5490    0.4863    0.4402 N   0  0  0  0  0  0  0  0  0  0  0  0
    1.2051    0.4519    0.1113 N   0  0  0  0  0  0  0  0  0  0  0  0
    0.5248   -0.3048    0.9363 C   0  0  0  0  0  0  0  0  0  0  0  0
   -0.8074   -0.6165    0.9736 N   0  0  0  0  0  0  0  0  0  0  0  0
   -1.7180   -0.0460    0.1063 C   0  0  0  0  0  0  0  0  0  0  0  0
   -1.4425    0.7974   -0.7354 O   0  0  0  0  0  0  0  0  0  0  0  0
   -2.9877   -0.5662    0.3281 N   0  0  0  0  0  0  0  0  0  0  0  0
   -4.1946   -0.1906   -0.3007 C   0  0  0  0  0  0  0  0  0  0  0  0
   -5.3388   -0.9360    0.0169 C   0  0  0  0  0  0  0  0  0  0  0  0
   -6.5756   -0.6267   -0.5559 C   0  0  0  0  0  0  0  0  0  0  0  0
   -6.6817    0.4339   -1.4506 C   0  0  0  0  0  0  0  0  0  0  0  0
   -5.5521    1.1834   -1.7692 C   0  0  0  0  0  0  0  0  0  0  0  0
   -4.3141    0.8738   -1.1958 C   0  0  0  0  0  0  0  0  0  0  0  0
    1.4506   -1.0417    2.1682 S   0  0  0  0  0  0  0  0  0  0  0  0
    6.7313   -0.2788   -2.1915 H   0  0  0  0  0  0  0  0  0  0  0  0
    7.5266    0.6020   -0.8756 H   0  0  0  0  0  0  0  0  0  0  0  0
    6.0724    1.2718   -1.6421 H   0  0  0  0  0  0  0  0  0  0  0  0
    4.7407   -0.6620   -0.7938 H   0  0  0  0  0  0  0  0  0  0  0  0
    6.1854   -1.3268   -0.0257 H   0  0  0  0  0  0  0  0  0  0  0  0
    4.9635    1.4185    0.6739 H   0  0  0  0  0  0  0  0  0  0  0  0
    6.3878    0.6994    1.4134 H   0  0  0  0  0  0  0  0  0  0  0  0
   -1.1146   -1.2008    1.7307 H   0  0  0  0  0  0  0  0  0  0  0  0
   -3.0486   -1.3628    0.9418 H   0  0  0  0  0  0  0  0  0  0  0  0
   -5.2870   -1.7695    0.7120 H   0  0  0  0  0  0  0  0  0  0  0  0
   -7.4548   -1.2137   -0.3037 H   0  0  0  0  0  0  0  0  0  0  0  0
   -7.6410    0.6781   -1.8992 H   0  0  0  0  0  0  0  0  0  0  0  0
   -5.6278    2.0144   -2.4662 H   0  0  0  0  0  0  0  0  0  0  0  0
   -3.4634    1.4901   -1.4699 H   0  0  0  0  0  0  0  0  0  0  0  0
  1  2  1  0
  2  3  1  0
  3  4  1  0
  4  5  1  0
  5  6  2  0
  6  7  1  0
  7  8  2  0
  8  9  1  0
  9 10  1  0
 10 11  2  0
 10 12  1  0
 12 13  1  0
 13 14  2  0
 14 15  1  0
 15 16  2  0
 16 17  1  0
 17 18  2  0
  8 19  1  0
 19  5  1  0
 18 13  1  0
  1 20  1  0
  1 21  1  0
  1 22  1  0
  2 23  1  0
  2 24  1  0
  3 25  1  0
  3 26  1  0
  9 27  1  0
 12 28  1  0
 14 29  1  0
 15 30  1  0
 16 31  1  0
 17 32  1  0
 18 33  1  0
M  END
$$$$
