
     RDKit          3D

 39 41  0  0  0  0  0  0  0  0999 V2000
    4.7444    1.1583   -0.8271 C   0  0  0  0  0  0  0  0  0  0  0  0
    4.2756    0.5423    0.4909 C   0  0  0  0  0  0  0  0  0  0  0  0
    4.9063   -0.8354    0.6922 C   0  0  0  0  0  0  0  0  0  0  0  0
    2.7407    0.5069    0.6080 C   0  0  0  0  0  0  0  0  0  0  0  0
    2.0231   -0.3515   -0.4419 C   0  0  0  0  0  0  0  0  0  0  0  0
    0.5734   -0.3239   -0.2512 N   0  0  0  0  0  0  0  0  0  0  0  0
    0.0190   -1.2573    0.6216 C   0  0  0  0  0  0  0  0  0  0  0  0
    0.6781   -2.0970    1.2305 O   0  0  0  0  0  0  0  0  0  0  0  0
   -1.4490   -1.2090    0.8159 C   0  0  0  0  0  0  0  0  0  0  0  0
   -2.0475   -2.1455    1.6670 C   0  0  0  0  0  0  0  0  0  0  0  0
   -3.4189   -2.1128    1.8758 C   0  0  0  0  0  0  0  0  0  0  0  0
   -4.1945   -1.1522    1.2259 C   0  0  0  0  0  0  0  0  0  0  0  0
   -3.6245   -0.2008    0.3479 C   0  0  0  0  0  0  0  0  0  0  0  0
   -4.3943    0.7746   -0.3461 C   0  0  0  0  0  0  0  0  0  0  0  0
   -5.7807    0.9211   -0.1404 N   0  0  0  0  0  0  0  0  0  0  0  0
   -3.7421    1.7548   -1.1038 C   0  0  0  0  0  0  0  0  0  0  0  0
   -2.3628    1.7188   -1.2802 C   0  0  0  0  0  0  0  0  0  0  0  0
   -1.6062    0.7201   -0.6617 C   0  0  0  0  0  0  0  0  0  0  0  0
   -2.2149   -0.2341    0.1607 C   0  0  0  0  0  0  0  0  0  0  0  0
   -0.1399    0.6995   -0.8708 C   0  0  0  0  0  0  0  0  0  0  0  0
    0.3796    1.5710   -1.5641 O   0  0  0  0  0  0  0  0  0  0  0  0
    4.2827    2.1384   -0.9856 H   0  0  0  0  0  0  0  0  0  0  0  0
    4.5011    0.5221   -1.6839 H   0  0  0  0  0  0  0  0  0  0  0  0
    5.8307    1.2991   -0.8191 H   0  0  0  0  0  0  0  0  0  0  0  0
    4.6396    1.1889    1.3006 H   0  0  0  0  0  0  0  0  0  0  0  0
    5.9974   -0.7531    0.7448 H   0  0  0  0  0  0  0  0  0  0  0  0
    4.5611   -1.2897    1.6268 H   0  0  0  0  0  0  0  0  0  0  0  0
    4.6667   -1.5176   -0.1296 H   0  0  0  0  0  0  0  0  0  0  0  0
    2.4736    0.1471    1.6103 H   0  0  0  0  0  0  0  0  0  0  0  0
    2.3608    1.5355    0.5523 H   0  0  0  0  0  0  0  0  0  0  0  0
    2.2524    0.0082   -1.4505 H   0  0  0  0  0  0  0  0  0  0  0  0
    2.3660   -1.3900   -0.3851 H   0  0  0  0  0  0  0  0  0  0  0  0
   -1.4443   -2.8957    2.1752 H   0  0  0  0  0  0  0  0  0  0  0  0
   -3.8865   -2.8300    2.5461 H   0  0  0  0  0  0  0  0  0  0  0  0
   -5.2626   -1.1490    1.4287 H   0  0  0  0  0  0  0  0  0  0  0  0
   -6.2656    0.0487    0.0389 H   0  0  0  0  0  0  0  0  0  0  0  0
   -6.2470    1.4575   -0.8664 H   0  0  0  0  0  0  0  0  0  0  0  0
   -4.3096    2.5544   -1.5745 H   0  0  0  0  0  0  0  0  0  0  0  0
   -1.8814    2.4776   -1.8945 H   0  0  0  0  0  0  0  0  0  0  0  0
  1  2  1  0
  2  3  1  0
  2  4  1  0
  4  5  1  0
  5  6  1  0
  6  7  1  0
  7  8  2  0
  7  9  1  0
  9 10  1  0
 10 11  2  0
 11 12  1  0
 12 13  2  0
 13 14  1  0
 14 15  1  0
 14 16  2  0
 16 17  1  0
 17 18  2  0
 18 19  1  0
 18 20  1  0
 20 21  2  0
 20  6  1  0
 19  9  2  0
 19 13  1  0
  1 22  1  0
  1 23  1  0
  1 24  1  0
  2 25  1  0
  3 26  1  0
  3 27  1  0
  3 28  1  0
  4 29  1  0
  4 30  1  0
  5 31  1  0
  5 32  1  0
 10 33  1  0
 11 34  1  0
 12 35  1  0
 15 36  1  0
 15 37  1  0
 16 38  1  0
 17 39  1  0
M  END
$$$$
