
     RDKit          3D

 52 54  0  0  0  0  0  0  0  0999 V2000
   -4.6100    3.2344   -1.0960 C   0  0  0  0  0  0  0  0  0  0  0  0
   -3.7290    1.9773   -1.2422 C   0  0  0  0  0  0  0  0  0  0  0  0
   -3.4141    1.7993   -2.7396 C   0  0  0  0  0  0  0  0  0  0  0  0
   -2.4242    2.2002   -0.4253 C   0  0  0  0  0  0  0  0  0  0  0  0
   -1.6748    0.9167   -0.2123 C   0  0  0  0  0  0  0  0  0  0  0  0
   -2.3514   -0.2894   -0.2836 C   0  0  0  0  0  0  0  0  0  0  0  0
   -1.2926   -1.6100   -0.0903 S   0  0  0  0  0  0  0  0  0  0  0  0
    0.0604   -0.6090    0.0902 C   0  0  0  0  0  0  0  0  0  0  0  0
    1.3286   -1.1353    0.2756 N   0  0  0  0  0  0  0  0  0  0  0  0
    1.7062   -2.4646    0.3119 C   0  0  0  0  0  0  0  0  0  0  0  0
    0.9923   -3.4532    0.1657 O   0  0  0  0  0  0  0  0  0  0  0  0
    3.2150   -2.6364    0.5154 C   0  0  0  0  0  0  0  0  0  0  0  0
    3.7874   -1.4718    1.1004 O   0  0  0  0  0  0  0  0  0  0  0  0
    5.1218   -1.4947    1.4057 C   0  0  0  0  0  0  0  0  0  0  0  0
    5.9976   -2.5281    1.0570 C   0  0  0  0  0  0  0  0  0  0  0  0
    7.3501   -2.4549    1.4081 C   0  0  0  0  0  0  0  0  0  0  0  0
    7.8322   -1.3500    2.1064 C   0  0  0  0  0  0  0  0  0  0  0  0
    9.4967   -1.2703    2.5328 Cl  0  0  0  0  0  0  0  0  0  0  0  0
    6.9769   -0.3125    2.4604 C   0  0  0  0  0  0  0  0  0  0  0  0
    5.6270   -0.3866    2.1097 C   0  0  0  0  0  0  0  0  0  0  0  0
    4.5967    0.9220    2.5798 Cl  0  0  0  0  0  0  0  0  0  0  0  0
   -0.2630    0.7417    0.0540 C   0  0  0  0  0  0  0  0  0  0  0  0
    0.7574    1.7727    0.2374 C   0  0  0  0  0  0  0  0  0  0  0  0
    0.3356    2.9565    0.7707 N   0  0  0  0  0  0  0  0  0  0  0  0
    1.9482    1.5887    0.0025 O   0  0  0  0  0  0  0  0  0  0  0  0
   -3.8435   -0.4555   -0.5318 C   0  0  0  0  0  0  0  0  0  0  0  0
   -4.5153   -1.0833    0.7073 C   0  0  0  0  0  0  0  0  0  0  0  0
   -4.1303   -1.3526   -1.7517 C   0  0  0  0  0  0  0  0  0  0  0  0
   -4.5216    0.8553   -0.7024 N   0  0  0  0  0  0  0  0  0  0  0  0
   -5.5349    3.1472   -1.6788 H   0  0  0  0  0  0  0  0  0  0  0  0
   -4.8913    3.4079   -0.0504 H   0  0  0  0  0  0  0  0  0  0  0  0
   -4.0815    4.1286   -1.4464 H   0  0  0  0  0  0  0  0  0  0  0  0
   -2.6928    0.9982   -2.9245 H   0  0  0  0  0  0  0  0  0  0  0  0
   -2.9813    2.7161   -3.1574 H   0  0  0  0  0  0  0  0  0  0  0  0
   -4.3213    1.5772   -3.3134 H   0  0  0  0  0  0  0  0  0  0  0  0
   -2.6689    2.6127    0.5626 H   0  0  0  0  0  0  0  0  0  0  0  0
   -1.7901    2.9312   -0.9409 H   0  0  0  0  0  0  0  0  0  0  0  0
    2.0795   -0.4491    0.3825 H   0  0  0  0  0  0  0  0  0  0  0  0
    3.3574   -3.4969    1.1795 H   0  0  0  0  0  0  0  0  0  0  0  0
    3.6519   -2.8239   -0.4720 H   0  0  0  0  0  0  0  0  0  0  0  0
    5.6659   -3.4043    0.5084 H   0  0  0  0  0  0  0  0  0  0  0  0
    8.0219   -3.2644    1.1311 H   0  0  0  0  0  0  0  0  0  0  0  0
    7.3551    0.5479    3.0053 H   0  0  0  0  0  0  0  0  0  0  0  0
   -0.5261    2.9871    1.2964 H   0  0  0  0  0  0  0  0  0  0  0  0
    1.0762    3.5787    1.0672 H   0  0  0  0  0  0  0  0  0  0  0  0
   -5.6013   -1.1669    0.5760 H   0  0  0  0  0  0  0  0  0  0  0  0
   -4.1381   -2.0933    0.9057 H   0  0  0  0  0  0  0  0  0  0  0  0
   -4.3330   -0.4859    1.6095 H   0  0  0  0  0  0  0  0  0  0  0  0
   -3.7968   -2.3829   -1.5801 H   0  0  0  0  0  0  0  0  0  0  0  0
   -5.2046   -1.4032   -1.9669 H   0  0  0  0  0  0  0  0  0  0  0  0
   -3.6264   -1.0014   -2.6567 H   0  0  0  0  0  0  0  0  0  0  0  0
   -5.3799    0.7327   -1.2369 H   0  0  0  0  0  0  0  0  0  0  0  0
  1  2  1  0
  2  3  1  0
  2  4  1  0
  4  5  1  0
  5  6  2  0
  6  7  1  0
  7  8  1  0
  8  9  1  0
  9 10  1  0
 10 11  2  0
 10 12  1  0
 12 13  1  0
 13 14  1  0
 14 15  2  0
 15 16  1  0
 16 17  2  0
 17 18  1  0
 17 19  1  0
 19 20  2  0
 20 21  1  0
  8 22  2  0
 22 23  1  0
 23 24  1  0
 23 25  2  0
  6 26  1  0
 26 27  1  0
 26 28  1  0
 26 29  1  0
 29  2  1  0
 22  5  1  0
 20 14  1  0
  1 30  1  0
  1 31  1  0
  1 32  1  0
  3 33  1  0
  3 34  1  0
  3 35  1  0
  4 36  1  0
  4 37  1  0
  9 38  1  0
 12 39  1  0
 12 40  1  0
 15 41  1  0
 16 42  1  0
 19 43  1  0
 24 44  1  0
 24 45  1  0
 27 46  1  0
 27 47  1  0
 27 48  1  0
 28 49  1  0
 28 50  1  0
 28 51  1  0
 29 52  1  0
M  END
$$$$
