
     RDKit          3D

 74 78  0  0  0  0  0  0  0  0999 V2000
    0.7869   -4.8027    2.7231 C   0  0  0  0  0  0  0  0  0  0  0  0
    0.4948   -3.5351    3.5161 C   0  0  0  0  0  0  0  0  0  0  0  0
   -0.7626   -2.8514    3.0498 C   0  0  0  0  0  0  0  0  0  0  0  0
   -2.1089   -3.2312    3.6252 C   0  0  0  0  0  0  0  0  0  0  0  0
   -2.1653   -4.2981    4.6973 C   0  0  0  0  0  0  0  0  0  0  0  0
   -3.2494   -2.7112    3.2729 N   0  0  0  0  0  0  0  0  0  0  0  0
   -3.2144   -1.7413    2.3185 C   0  0  0  0  0  0  0  0  0  0  0  0
   -4.2200   -1.0156    1.7278 C   0  0  0  0  0  0  0  0  0  0  0  0
   -3.5927   -0.1464    0.8029 C   0  0  0  0  0  0  0  0  0  0  0  0
   -4.2195    0.8291   -0.0995 C   0  0  0  0  0  0  0  0  0  0  0  0
   -5.6118    0.9148   -0.2254 C   0  0  0  0  0  0  0  0  0  0  0  0
   -6.2041    1.8351   -1.0979 C   0  0  0  0  0  0  0  0  0  0  0  0
   -7.5731    1.7977   -1.1127 O   0  0  0  0  0  0  0  0  0  0  0  0
   -8.2364    2.6491   -2.0382 C   0  0  0  0  0  0  0  0  0  0  0  0
   -5.3995    2.6896   -1.8553 C   0  0  0  0  0  0  0  0  0  0  0  0
   -4.0092    2.6221   -1.7437 C   0  0  0  0  0  0  0  0  0  0  0  0
   -3.1093    3.3984   -2.4241 O   0  0  0  0  0  0  0  0  0  0  0  0
   -3.6329    4.3391   -3.3522 C   0  0  0  0  0  0  0  0  0  0  0  0
   -3.4307    1.6965   -0.8696 C   0  0  0  0  0  0  0  0  0  0  0  0
   -2.2619   -0.3122    0.8291 N   0  0  0  0  0  0  0  0  0  0  0  0
   -2.0271   -1.2992    1.7428 N   0  0  0  0  0  0  0  0  0  0  0  0
   -0.7793   -1.8649    2.1223 C   0  0  0  0  0  0  0  0  0  0  0  0
    0.4044   -1.3884    1.5161 N   0  0  0  0  0  0  0  0  0  0  0  0
    0.9360   -0.0772    1.9785 C   0  0  0  0  0  0  0  0  0  0  0  0
    1.8166    0.6362    0.9249 C   0  0  0  0  0  0  0  0  0  0  0  0
    2.7870   -0.2778    0.3004 N   0  0  0  0  0  0  0  0  0  0  0  0
    3.6881    0.4277   -0.6224 C   0  0  0  0  0  0  0  0  0  0  0  0
    4.8945   -0.4407   -1.0723 C   0  0  0  0  0  0  0  0  0  0  0  0
    5.9335    0.2202   -1.8789 N   0  0  0  0  0  0  0  0  0  0  0  0
    5.4464    0.8572   -3.1143 C   0  0  0  0  0  0  0  0  0  0  0  0
    5.4309    2.3925   -3.0435 C   0  0  0  0  0  0  0  0  0  0  0  0
    6.7146    2.9621   -2.7525 O   0  0  0  0  0  0  0  0  0  0  0  0
    7.5688    2.0872   -2.0002 C   0  0  0  0  0  0  0  0  0  0  0  0
    6.7864    1.1285   -1.0912 C   0  0  0  0  0  0  0  0  0  0  0  0
    2.0933   -1.4275   -0.3239 C   0  0  0  0  0  0  0  0  0  0  0  0
    0.6038   -1.6105    0.0690 C   0  0  0  0  0  0  0  0  0  0  0  0
    0.9273   -4.5816    1.6584 H   0  0  0  0  0  0  0  0  0  0  0  0
    1.7048   -5.2737    3.0929 H   0  0  0  0  0  0  0  0  0  0  0  0
   -0.0240   -5.5333    2.8132 H   0  0  0  0  0  0  0  0  0  0  0  0
    1.3561   -2.8611    3.4265 H   0  0  0  0  0  0  0  0  0  0  0  0
    0.4396   -3.7704    4.5833 H   0  0  0  0  0  0  0  0  0  0  0  0
   -1.5331   -4.0186    5.5458 H   0  0  0  0  0  0  0  0  0  0  0  0
   -1.8407   -5.2575    4.2848 H   0  0  0  0  0  0  0  0  0  0  0  0
   -3.1924   -4.4148    5.0635 H   0  0  0  0  0  0  0  0  0  0  0  0
   -5.2706   -1.1184    1.9510 H   0  0  0  0  0  0  0  0  0  0  0  0
   -6.2650    0.2607    0.3469 H   0  0  0  0  0  0  0  0  0  0  0  0
   -7.9505    2.4102   -3.0675 H   0  0  0  0  0  0  0  0  0  0  0  0
   -9.3128    2.4759   -1.9401 H   0  0  0  0  0  0  0  0  0  0  0  0
   -8.0455    3.7024   -1.8119 H   0  0  0  0  0  0  0  0  0  0  0  0
   -5.8517    3.4074   -2.5263 H   0  0  0  0  0  0  0  0  0  0  0  0
   -4.2552    5.0861   -2.8485 H   0  0  0  0  0  0  0  0  0  0  0  0
   -2.7884    4.8635   -3.8113 H   0  0  0  0  0  0  0  0  0  0  0  0
   -4.1876    3.8367   -4.1512 H   0  0  0  0  0  0  0  0  0  0  0  0
   -2.3451    1.6561   -0.7946 H   0  0  0  0  0  0  0  0  0  0  0  0
    1.5334   -0.2620    2.8802 H   0  0  0  0  0  0  0  0  0  0  0  0
    0.1194    0.5986    2.2620 H   0  0  0  0  0  0  0  0  0  0  0  0
    2.3428    1.4564    1.4295 H   0  0  0  0  0  0  0  0  0  0  0  0
    1.1759    1.0925    0.1579 H   0  0  0  0  0  0  0  0  0  0  0  0
    4.0765    1.3153   -0.1092 H   0  0  0  0  0  0  0  0  0  0  0  0
    3.1280    0.7874   -1.4959 H   0  0  0  0  0  0  0  0  0  0  0  0
    5.3708   -0.8806   -0.1847 H   0  0  0  0  0  0  0  0  0  0  0  0
    4.5245   -1.2949   -1.6539 H   0  0  0  0  0  0  0  0  0  0  0  0
    6.1366    0.5626   -3.9148 H   0  0  0  0  0  0  0  0  0  0  0  0
    4.4623    0.4775   -3.4109 H   0  0  0  0  0  0  0  0  0  0  0  0
    4.7274    2.7407   -2.2794 H   0  0  0  0  0  0  0  0  0  0  0  0
    5.0983    2.8084   -4.0003 H   0  0  0  0  0  0  0  0  0  0  0  0
    8.1977    1.5320   -2.7062 H   0  0  0  0  0  0  0  0  0  0  0  0
    8.2336    2.7167   -1.3994 H   0  0  0  0  0  0  0  0  0  0  0  0
    7.4878    0.5364   -0.4936 H   0  0  0  0  0  0  0  0  0  0  0  0
    6.1880    1.7336   -0.4013 H   0  0  0  0  0  0  0  0  0  0  0  0
    2.1310   -1.3713   -1.4195 H   0  0  0  0  0  0  0  0  0  0  0  0
    2.6430   -2.3322   -0.0341 H   0  0  0  0  0  0  0  0  0  0  0  0
   -0.0119   -0.9119   -0.5107 H   0  0  0  0  0  0  0  0  0  0  0  0
    0.2918   -2.6262   -0.2023 H   0  0  0  0  0  0  0  0  0  0  0  0
  1  2  1  0
  2  3  1  0
  3  4  1  0
  4  5  1  0
  4  6  2  0
  6  7  1  0
  7  8  2  0
  8  9  1  0
  9 10  1  0
 10 11  2  0
 11 12  1  0
 12 13  1  0
 13 14  1  0
 12 15  2  0
 15 16  1  0
 16 17  1  0
 17 18  1  0
 16 19  2  0
  9 20  2  0
 20 21  1  0
 21 22  1  0
 22 23  1  0
 23 24  1  0
 24 25  1  0
 25 26  1  0
 26 27  1  0
 27 28  1  0
 28 29  1  0
 29 30  1  0
 30 31  1  0
 31 32  1  0
 32 33  1  0
 33 34  1  0
 26 35  1  0
 35 36  1  0
 22  3  2  0
 36 23  1  0
 21  7  1  0
 34 29  1  0
 19 10  1  0
  1 37  1  0
  1 38  1  0
  1 39  1  0
  2 40  1  0
  2 41  1  0
  5 42  1  0
  5 43  1  0
  5 44  1  0
  8 45  1  0
 11 46  1  0
 14 47  1  0
 14 48  1  0
 14 49  1  0
 15 50  1  0
 18 51  1  0
 18 52  1  0
 18 53  1  0
 19 54  1  0
 24 55  1  0
 24 56  1  0
 25 57  1  0
 25 58  1  0
 27 59  1  0
 27 60  1  0
 28 61  1  0
 28 62  1  0
 30 63  1  0
 30 64  1  0
 31 65  1  0
 31 66  1  0
 33 67  1  0
 33 68  1  0
 34 69  1  0
 34 70  1  0
 35 71  1  0
 35 72  1  0
 36 73  1  0
 36 74  1  0
M  END
$$$$
