
     RDKit          3D

 40 42  0  0  0  0  0  0  0  0999 V2000
    3.5091    2.2266    1.6759 C   0  0  0  0  0  0  0  0  0  0  0  0
    3.0645    0.8542    1.2616 C   0  0  0  0  0  0  0  0  0  0  0  0
    2.7851    0.5797   -0.0842 C   0  0  0  0  0  0  0  0  0  0  0  0
    2.3429   -0.6859   -0.4717 C   0  0  0  0  0  0  0  0  0  0  0  0
    2.1512   -1.6736    0.4974 C   0  0  0  0  0  0  0  0  0  0  0  0
    1.5750   -3.2867    0.0180 S   0  0  0  0  0  6  0  0  0  0  0  0
    1.8186   -3.4569   -1.3985 O   0  0  0  0  0  0  0  0  0  0  0  0
    2.0810   -4.2339    0.9894 O   0  0  0  0  0  0  0  0  0  0  0  0
   -0.1047   -3.1982    0.2767 N   0  0  0  0  0  0  0  0  0  0  0  0
   -0.7887   -2.0538   -0.3256 C   0  0  0  0  0  0  0  0  0  0  0  0
   -1.3088   -0.9902    0.3676 C   0  0  0  0  0  0  0  0  0  0  0  0
   -1.8160   -0.1008   -0.6225 C   0  0  0  0  0  0  0  0  0  0  0  0
   -2.4374    1.2144   -0.4254 C   0  0  0  0  0  0  0  0  0  0  0  0
   -3.1478    1.8276   -1.4694 C   0  0  0  0  0  0  0  0  0  0  0  0
   -3.7458    3.0783   -1.2930 C   0  0  0  0  0  0  0  0  0  0  0  0
   -3.6392    3.7349   -0.0698 C   0  0  0  0  0  0  0  0  0  0  0  0
   -2.9334    3.1434    0.9755 C   0  0  0  0  0  0  0  0  0  0  0  0
   -2.3352    1.8914    0.7994 C   0  0  0  0  0  0  0  0  0  0  0  0
   -1.6548   -0.6262   -1.8501 N   0  0  0  0  0  0  0  0  0  0  0  0
   -1.0587   -1.8157   -1.6432 N   0  0  0  0  0  0  0  0  0  0  0  0
   -0.8160   -2.6835   -2.7698 C   0  0  0  0  0  0  0  0  0  0  0  0
    2.4308   -1.4168    1.8425 C   0  0  0  0  0  0  0  0  0  0  0  0
    2.8776   -0.1499    2.2216 C   0  0  0  0  0  0  0  0  0  0  0  0
    4.1468    2.1792    2.5649 H   0  0  0  0  0  0  0  0  0  0  0  0
    2.6377    2.8502    1.8982 H   0  0  0  0  0  0  0  0  0  0  0  0
    4.0937    2.7039    0.8824 H   0  0  0  0  0  0  0  0  0  0  0  0
    2.9120    1.3521   -0.8405 H   0  0  0  0  0  0  0  0  0  0  0  0
    2.1369   -0.8836   -1.5213 H   0  0  0  0  0  0  0  0  0  0  0  0
   -0.3253   -3.4105    1.2502 H   0  0  0  0  0  0  0  0  0  0  0  0
   -1.2966   -0.8468    1.4374 H   0  0  0  0  0  0  0  0  0  0  0  0
   -3.2405    1.3296   -2.4329 H   0  0  0  0  0  0  0  0  0  0  0  0
   -4.2923    3.5362   -2.1133 H   0  0  0  0  0  0  0  0  0  0  0  0
   -4.1031    4.7082    0.0671 H   0  0  0  0  0  0  0  0  0  0  0  0
   -2.8448    3.6579    1.9289 H   0  0  0  0  0  0  0  0  0  0  0  0
   -1.7815    1.4653    1.6310 H   0  0  0  0  0  0  0  0  0  0  0  0
   -0.7120   -3.7142   -2.4242 H   0  0  0  0  0  0  0  0  0  0  0  0
   -1.6682   -2.6191   -3.4520 H   0  0  0  0  0  0  0  0  0  0  0  0
    0.0942   -2.3464   -3.2709 H   0  0  0  0  0  0  0  0  0  0  0  0
    2.3067   -2.1904    2.5966 H   0  0  0  0  0  0  0  0  0  0  0  0
    3.0867    0.0499    3.2707 H   0  0  0  0  0  0  0  0  0  0  0  0
  1  2  1  0
  2  3  2  0
  3  4  1  0
  4  5  2  0
  5  6  1  0
  6  7  2  0
  6  8  2  0
  6  9  1  0
  9 10  1  0
 10 11  2  0
 11 12  1  0
 12 13  1  0
 13 14  2  0
 14 15  1  0
 15 16  2  0
 16 17  1  0
 17 18  2  0
 12 19  2  0
 19 20  1  0
 20 21  1  0
  5 22  1  0
 22 23  2  0
 23  2  1  0
 20 10  1  0
 18 13  1  0
  1 24  1  0
  1 25  1  0
  1 26  1  0
  3 27  1  0
  4 28  1  0
  9 29  1  0
 11 30  1  0
 14 31  1  0
 15 32  1  0
 16 33  1  0
 17 34  1  0
 18 35  1  0
 21 36  1  0
 21 37  1  0
 21 38  1  0
 22 39  1  0
 23 40  1  0
M  END
$$$$
