
     RDKit          3D

 62 65  0  0  0  0  0  0  0  0999 V2000
   -6.8650    0.6335   -2.8849 C   0  0  0  0  0  0  0  0  0  0  0  0
   -7.0484    0.3975   -1.4944 O   0  0  0  0  0  0  0  0  0  0  0  0
   -6.8064   -0.9598   -1.1341 C   0  0  0  0  0  0  0  0  0  0  0  0
   -5.3921   -1.1896   -0.6841 C   0  0  0  0  0  0  0  0  0  0  0  0
   -4.4530   -0.2441   -0.5085 C   0  0  0  0  0  0  0  0  0  0  0  0
   -3.0976   -0.5043   -0.0481 C   0  0  0  0  0  0  0  0  0  0  0  0
   -2.3153   -1.3420   -0.7701 C   0  0  0  0  0  0  0  0  0  0  0  0
   -0.9439   -1.6154   -0.3351 C   0  0  0  0  0  0  0  0  0  0  0  0
   -0.1694   -2.4407   -1.0529 C   0  0  0  0  0  0  0  0  0  0  0  0
    1.2196   -2.7598   -0.6539 C   0  0  0  0  0  0  0  0  0  0  0  0
    1.8959   -3.4563   -1.4145 O   0  0  0  0  0  0  0  0  0  0  0  0
    1.7490   -2.2818    0.7009 C   0  0  0  0  0  0  0  0  0  0  0  0
    1.6961   -3.4960    1.6422 C   0  0  0  0  0  0  0  0  0  0  0  0
    3.1401   -1.9205    0.6175 O   0  0  0  0  0  0  0  0  0  0  0  0
    3.4051   -0.8550   -0.1869 C   0  0  0  0  0  0  0  0  0  0  0  0
    2.5543   -0.2326   -0.8040 O   0  0  0  0  0  0  0  0  0  0  0  0
    4.8662   -0.5629   -0.2119 C   0  0  0  0  0  0  0  0  0  0  0  0
    5.7728   -1.2739    0.5558 C   0  0  0  0  0  0  0  0  0  0  0  0
    7.1049   -1.0160    0.5394 N   0  0  0  0  0  0  0  0  0  0  0  0
    7.5124   -0.0199   -0.2720 C   0  0  0  0  0  0  0  0  0  0  0  0
    8.8625    0.3001   -0.3434 C   0  0  0  0  0  0  0  0  0  0  0  0
    9.3235    1.3232   -1.1732 C   0  0  0  0  0  0  0  0  0  0  0  0
    8.4182    2.0409   -1.9445 C   0  0  0  0  0  0  0  0  0  0  0  0
    7.0593    1.7291   -1.8807 C   0  0  0  0  0  0  0  0  0  0  0  0
    6.5880    0.7124   -1.0598 C   0  0  0  0  0  0  0  0  0  0  0  0
    5.2690    0.4442   -1.0306 N   0  0  0  0  0  0  0  0  0  0  0  0
    0.9293   -1.1788    1.3699 C   0  0  0  0  0  0  0  0  0  0  0  0
    1.3742   -0.5281    2.3190 O   0  0  0  0  0  0  0  0  0  0  0  0
   -0.4514   -0.9594    0.8678 C   0  0  0  0  0  0  0  0  0  0  0  0
   -1.2885   -0.1377    1.5254 C   0  0  0  0  0  0  0  0  0  0  0  0
   -2.6063    0.1339    1.1203 N   0  0  0  0  0  0  0  0  0  0  0  0
   -3.4388    1.0438    1.9394 C   0  0  0  0  0  0  0  0  0  0  0  0
   -3.3927    2.4985    1.4293 C   0  0  0  0  0  0  0  0  0  0  0  0
   -4.4903    3.3177    2.1133 C   0  0  0  0  0  0  0  0  0  0  0  0
   -2.0343    3.1599    1.6712 C   0  0  0  0  0  0  0  0  0  0  0  0
   -7.0136    1.6997   -3.0746 H   0  0  0  0  0  0  0  0  0  0  0  0
   -7.6030    0.0719   -3.4651 H   0  0  0  0  0  0  0  0  0  0  0  0
   -5.8533    0.3608   -3.1993 H   0  0  0  0  0  0  0  0  0  0  0  0
   -7.4732   -1.1967   -0.2980 H   0  0  0  0  0  0  0  0  0  0  0  0
   -7.0616   -1.6378   -1.9569 H   0  0  0  0  0  0  0  0  0  0  0  0
   -5.1477   -2.2265   -0.4646 H   0  0  0  0  0  0  0  0  0  0  0  0
   -4.6995    0.7998   -0.6873 H   0  0  0  0  0  0  0  0  0  0  0  0
   -2.6821   -1.8113   -1.6777 H   0  0  0  0  0  0  0  0  0  0  0  0
   -0.5065   -2.9148   -1.9684 H   0  0  0  0  0  0  0  0  0  0  0  0
    2.1028   -3.2466    2.6297 H   0  0  0  0  0  0  0  0  0  0  0  0
    2.3040   -4.3219    1.2540 H   0  0  0  0  0  0  0  0  0  0  0  0
    0.6726   -3.8628    1.7790 H   0  0  0  0  0  0  0  0  0  0  0  0
    5.4733   -2.0791    1.2176 H   0  0  0  0  0  0  0  0  0  0  0  0
    9.5700   -0.2623    0.2612 H   0  0  0  0  0  0  0  0  0  0  0  0
   10.3850    1.5548   -1.2140 H   0  0  0  0  0  0  0  0  0  0  0  0
    8.7632    2.8408   -2.5954 H   0  0  0  0  0  0  0  0  0  0  0  0
    6.3498    2.2902   -2.4847 H   0  0  0  0  0  0  0  0  0  0  0  0
   -0.9798    0.3836    2.4286 H   0  0  0  0  0  0  0  0  0  0  0  0
   -3.1137    1.0076    2.9883 H   0  0  0  0  0  0  0  0  0  0  0  0
   -4.4739    0.6801    1.9550 H   0  0  0  0  0  0  0  0  0  0  0  0
   -3.5841    2.5203    0.3505 H   0  0  0  0  0  0  0  0  0  0  0  0
   -5.4780    2.8894    1.9123 H   0  0  0  0  0  0  0  0  0  0  0  0
   -4.4946    4.3488    1.7443 H   0  0  0  0  0  0  0  0  0  0  0  0
   -4.3465    3.3466    3.1987 H   0  0  0  0  0  0  0  0  0  0  0  0
   -1.7526    3.1160    2.7282 H   0  0  0  0  0  0  0  0  0  0  0  0
   -2.0566    4.2132    1.3722 H   0  0  0  0  0  0  0  0  0  0  0  0
   -1.2474    2.6760    1.0854 H   0  0  0  0  0  0  0  0  0  0  0  0
  1  2  1  0
  2  3  1  0
  3  4  1  0
  4  5  2  3
  5  6  1  0
  6  7  2  0
  7  8  1  0
  8  9  2  0
  9 10  1  0
 10 11  2  0
 10 12  1  0
 12 13  1  0
 12 14  1  0
 14 15  1  0
 15 16  2  0
 15 17  1  0
 17 18  2  0
 18 19  1  0
 19 20  2  0
 20 21  1  0
 21 22  2  0
 22 23  1  0
 23 24  2  0
 24 25  1  0
 25 26  2  0
 12 27  1  0
 27 28  2  0
 27 29  1  0
 29 30  2  0
 30 31  1  0
 31 32  1  0
 32 33  1  0
 33 34  1  0
 33 35  1  0
 31  6  1  0
 29  8  1  0
 26 17  1  0
 25 20  1  0
  1 36  1  0
  1 37  1  0
  1 38  1  0
  3 39  1  0
  3 40  1  0
  4 41  1  0
  5 42  1  0
  7 43  1  0
  9 44  1  0
 13 45  1  0
 13 46  1  0
 13 47  1  0
 18 48  1  0
 21 49  1  0
 22 50  1  0
 23 51  1  0
 24 52  1  0
 30 53  1  0
 32 54  1  0
 32 55  1  0
 33 56  1  0
 34 57  1  0
 34 58  1  0
 34 59  1  0
 35 60  1  0
 35 61  1  0
 35 62  1  0
M  END
$$$$
