
     RDKit          3D

 55 58  0  0  0  0  0  0  0  0999 V2000
   -3.7210   -3.0559   -0.7708 C   0  0  0  0  0  0  0  0  0  0  0  0
   -4.4032   -1.9186   -1.5180 C   0  0  0  0  0  0  0  0  0  0  0  0
   -4.7958   -0.8447   -0.5983 N   0  0  0  0  0  0  0  0  0  0  0  0
   -6.0352   -0.7817    0.0175 C   0  0  0  0  0  0  0  0  0  0  0  0
   -6.4421    0.1575    0.8891 C   0  0  0  0  0  0  0  0  0  0  0  0
   -7.7905    0.1231    1.4878 C   0  0  0  0  0  0  0  0  0  0  0  0
   -8.2446    0.8759    2.3288 O   0  0  0  0  0  0  0  0  0  0  0  0
   -8.5605   -0.8779    1.0125 O   0  0  0  0  0  0  0  0  0  0  0  0
   -5.4531    1.2199    1.2153 C   0  0  0  0  0  0  0  0  0  0  0  0
   -5.6951    2.1516    1.9732 O   0  0  0  0  0  0  0  0  0  0  0  0
   -4.1246    1.1337    0.5907 C   0  0  0  0  0  0  0  0  0  0  0  0
   -3.1396    2.0495    0.8539 C   0  0  0  0  0  0  0  0  0  0  0  0
   -1.9131    1.9874    0.2993 N   0  0  0  0  0  0  0  0  0  0  0  0
   -1.6555    0.9741   -0.5435 C   0  0  0  0  0  0  0  0  0  0  0  0
   -0.4011    0.9035   -1.1535 N   0  0  0  0  0  0  0  0  0  0  0  0
   -0.0432   -0.4447   -1.6256 C   0  0  0  0  0  0  0  0  0  0  0  0
    1.2890   -0.4269   -2.3996 C   0  0  0  0  0  0  0  0  0  0  0  0
    2.3661    0.2342   -1.6436 N   0  0  0  0  0  0  0  0  0  0  0  0
    3.6965   -0.0268   -1.8924 C   0  0  0  0  0  0  0  0  0  0  0  0
    4.3151   -0.6514   -3.3238 S   0  0  0  0  0  0  0  0  0  0  0  0
    4.6162    0.2201   -0.8958 N   0  0  0  0  0  0  0  0  0  0  0  0
    4.4502    0.2928    0.4870 C   0  0  0  0  0  0  0  0  0  0  0  0
    3.3970    0.4695    1.0873 O   0  0  0  0  0  0  0  0  0  0  0  0
    5.7121    0.2132    1.2735 C   0  0  0  0  0  0  0  0  0  0  0  0
    5.8352    1.0122    2.4169 C   0  0  0  0  0  0  0  0  0  0  0  0
    7.0031    0.9674    3.1795 C   0  0  0  0  0  0  0  0  0  0  0  0
    8.0448    0.1174    2.8093 C   0  0  0  0  0  0  0  0  0  0  0  0
    7.9186   -0.6964    1.6831 C   0  0  0  0  0  0  0  0  0  0  0  0
    6.7522   -0.6552    0.9156 C   0  0  0  0  0  0  0  0  0  0  0  0
    1.9777    1.5828   -1.1904 C   0  0  0  0  0  0  0  0  0  0  0  0
    0.6661    1.5787   -0.3881 C   0  0  0  0  0  0  0  0  0  0  0  0
   -2.5809    0.0465   -0.8523 N   0  0  0  0  0  0  0  0  0  0  0  0
   -3.8071    0.1204   -0.2914 C   0  0  0  0  0  0  0  0  0  0  0  0
   -2.7986   -2.7219   -0.2852 H   0  0  0  0  0  0  0  0  0  0  0  0
   -4.3769   -3.4667    0.0040 H   0  0  0  0  0  0  0  0  0  0  0  0
   -3.4655   -3.8637   -1.4636 H   0  0  0  0  0  0  0  0  0  0  0  0
   -5.2955   -2.3146   -2.0199 H   0  0  0  0  0  0  0  0  0  0  0  0
   -3.7585   -1.5497   -2.3253 H   0  0  0  0  0  0  0  0  0  0  0  0
   -6.6915   -1.5984   -0.2758 H   0  0  0  0  0  0  0  0  0  0  0  0
   -9.4034   -0.7565    1.5007 H   0  0  0  0  0  0  0  0  0  0  0  0
   -3.3004    2.8827    1.5325 H   0  0  0  0  0  0  0  0  0  0  0  0
   -0.8075   -0.8476   -2.3016 H   0  0  0  0  0  0  0  0  0  0  0  0
    0.0493   -1.1245   -0.7679 H   0  0  0  0  0  0  0  0  0  0  0  0
    1.5789   -1.4576   -2.6306 H   0  0  0  0  0  0  0  0  0  0  0  0
    1.1670    0.1128   -3.3472 H   0  0  0  0  0  0  0  0  0  0  0  0
    5.5591    0.0650   -1.2240 H   0  0  0  0  0  0  0  0  0  0  0  0
    5.0218    1.6709    2.7154 H   0  0  0  0  0  0  0  0  0  0  0  0
    7.0975    1.5913    4.0651 H   0  0  0  0  0  0  0  0  0  0  0  0
    8.9524    0.0801    3.4075 H   0  0  0  0  0  0  0  0  0  0  0  0
    8.7263   -1.3722    1.4112 H   0  0  0  0  0  0  0  0  0  0  0  0
    6.6625   -1.3277    0.0669 H   0  0  0  0  0  0  0  0  0  0  0  0
    2.7779    2.0723   -0.6298 H   0  0  0  0  0  0  0  0  0  0  0  0
    1.8462    2.1854   -2.0997 H   0  0  0  0  0  0  0  0  0  0  0  0
    0.4069    2.6244   -0.1826 H   0  0  0  0  0  0  0  0  0  0  0  0
    0.8182    1.0649    0.5695 H   0  0  0  0  0  0  0  0  0  0  0  0
  1  2  1  0
  2  3  1  0
  3  4  1  0
  4  5  2  0
  5  6  1  0
  6  7  2  0
  6  8  1  0
  5  9  1  0
  9 10  2  0
  9 11  1  0
 11 12  2  0
 12 13  1  0
 13 14  2  0
 14 15  1  0
 15 16  1  0
 16 17  1  0
 17 18  1  0
 18 19  1  0
 19 20  2  0
 19 21  1  0
 21 22  1  0
 22 23  2  0
 22 24  1  0
 24 25  2  0
 25 26  1  0
 26 27  2  0
 27 28  1  0
 28 29  2  0
 18 30  1  0
 30 31  1  0
 14 32  1  0
 32 33  2  0
 33  3  1  0
 33 11  1  0
 31 15  1  0
 29 24  1  0
  1 34  1  0
  1 35  1  0
  1 36  1  0
  2 37  1  0
  2 38  1  0
  4 39  1  0
  8 40  1  0
 12 41  1  0
 16 42  1  0
 16 43  1  0
 17 44  1  0
 17 45  1  0
 21 46  1  0
 25 47  1  0
 26 48  1  0
 27 49  1  0
 28 50  1  0
 29 51  1  0
 30 52  1  0
 30 53  1  0
 31 54  1  0
 31 55  1  0
M  END
$$$$
