
     RDKit          3D

 47 50  0  0  0  0  0  0  0  0999 V2000
   -5.9154   -0.7053    0.4437 C   0  0  0  0  0  0  0  0  0  0  0  0
   -4.6753   -0.4725    1.2948 C   0  0  0  0  0  0  0  0  0  0  0  0
   -3.8225    0.5692    0.7055 N   0  0  0  0  0  0  0  0  0  0  0  0
   -4.0684    1.9373    1.1788 C   0  0  0  0  0  0  0  0  0  0  0  0
   -3.1807    2.2752    2.3681 C   0  0  0  0  0  0  0  0  0  0  0  0
   -2.8278    0.2746   -0.2213 C   0  0  0  0  0  0  0  0  0  0  0  0
   -1.9202    1.2434   -0.6851 C   0  0  0  0  0  0  0  0  0  0  0  0
   -0.9125    0.9531   -1.6183 C   0  0  0  0  0  0  0  0  0  0  0  0
   -0.7752   -0.3345   -2.1269 C   0  0  0  0  0  0  0  0  0  0  0  0
    0.2532   -0.6557   -3.1158 C   0  0  0  0  0  0  0  0  0  0  0  0
    1.5645   -0.7775   -2.8681 C   0  0  0  0  0  0  0  0  0  0  0  0
    2.7125   -1.1657   -4.1438 S   0  0  0  0  0  0  0  0  0  0  0  0
    3.9866   -1.1150   -3.0005 C   0  0  0  0  0  0  0  0  0  0  0  0
    5.2673   -1.3417   -3.0478 N   0  0  0  0  0  0  0  0  0  0  0  0
    5.7315   -1.1568   -1.7521 N   0  0  0  0  0  0  0  0  0  0  0  0
    4.7127   -0.7975   -0.9774 C   0  0  0  0  0  0  0  0  0  0  0  0
    4.7792   -0.4819    0.4442 C   0  0  0  0  0  0  0  0  0  0  0  0
    5.2105   -1.4823    1.3303 C   0  0  0  0  0  0  0  0  0  0  0  0
    5.2872   -1.2353    2.7034 C   0  0  0  0  0  0  0  0  0  0  0  0
    4.9440    0.0173    3.2066 C   0  0  0  0  0  0  0  0  0  0  0  0
    4.5347    1.0279    2.3363 C   0  0  0  0  0  0  0  0  0  0  0  0
    4.4584    0.7849    0.9601 C   0  0  0  0  0  0  0  0  0  0  0  0
    4.0025    2.1072   -0.0620 Cl  0  0  0  0  0  0  0  0  0  0  0  0
    3.5798   -0.8103   -1.7493 N   0  0  0  0  0  0  0  0  0  0  0  0
    2.2351   -0.6287   -1.5370 C   0  0  0  0  0  0  0  0  0  0  0  0
    1.7771   -0.4201   -0.4316 O   0  0  0  0  0  0  0  0  0  0  0  0
   -1.6602   -1.3175   -1.6988 C   0  0  0  0  0  0  0  0  0  0  0  0
   -2.6611   -1.0120   -0.7630 C   0  0  0  0  0  0  0  0  0  0  0  0
   -6.5542   -1.4664    0.9045 H   0  0  0  0  0  0  0  0  0  0  0  0
   -6.5021    0.2139    0.3436 H   0  0  0  0  0  0  0  0  0  0  0  0
   -5.6574   -1.0411   -0.5637 H   0  0  0  0  0  0  0  0  0  0  0  0
   -4.1288   -1.4078    1.4561 H   0  0  0  0  0  0  0  0  0  0  0  0
   -4.9968   -0.1638    2.2972 H   0  0  0  0  0  0  0  0  0  0  0  0
   -3.9481    2.6735    0.3759 H   0  0  0  0  0  0  0  0  0  0  0  0
   -5.1158    2.0354    1.4921 H   0  0  0  0  0  0  0  0  0  0  0  0
   -3.3968    3.2868    2.7241 H   0  0  0  0  0  0  0  0  0  0  0  0
   -2.1194    2.2276    2.1101 H   0  0  0  0  0  0  0  0  0  0  0  0
   -3.3518    1.5813    3.1974 H   0  0  0  0  0  0  0  0  0  0  0  0
   -1.9601    2.2658   -0.3225 H   0  0  0  0  0  0  0  0  0  0  0  0
   -0.2413    1.7496   -1.9282 H   0  0  0  0  0  0  0  0  0  0  0  0
   -0.1325   -0.8052   -4.1212 H   0  0  0  0  0  0  0  0  0  0  0  0
    5.4909   -2.4642    0.9520 H   0  0  0  0  0  0  0  0  0  0  0  0
    5.6171   -2.0217    3.3790 H   0  0  0  0  0  0  0  0  0  0  0  0
    5.0030    0.2099    4.2757 H   0  0  0  0  0  0  0  0  0  0  0  0
    4.2820    2.0069    2.7357 H   0  0  0  0  0  0  0  0  0  0  0  0
   -1.5862   -2.3344   -2.0761 H   0  0  0  0  0  0  0  0  0  0  0  0
   -3.3193   -1.8262   -0.4786 H   0  0  0  0  0  0  0  0  0  0  0  0
  1  2  1  0
  2  3  1  0
  3  4  1  0
  4  5  1  0
  3  6  1  0
  6  7  2  0
  7  8  1  0
  8  9  2  0
  9 10  1  0
 10 11  2  3
 11 12  1  0
 12 13  1  0
 13 14  2  0
 14 15  1  0
 15 16  2  0
 16 17  1  0
 17 18  2  0
 18 19  1  0
 19 20  2  0
 20 21  1  0
 21 22  2  0
 22 23  1  0
 16 24  1  0
 24 25  1  0
 25 26  2  0
  9 27  1  0
 27 28  2  0
 28  6  1  0
 25 11  1  0
 24 13  1  0
 22 17  1  0
  1 29  1  0
  1 30  1  0
  1 31  1  0
  2 32  1  0
  2 33  1  0
  4 34  1  0
  4 35  1  0
  5 36  1  0
  5 37  1  0
  5 38  1  0
  7 39  1  0
  8 40  1  0
 10 41  1  0
 18 42  1  0
 19 43  1  0
 20 44  1  0
 21 45  1  0
 27 46  1  0
 28 47  1  0
M  END
$$$$
