
     RDKit          3D

 31 31  0  0  0  0  0  0  0  0999 V2000
    5.2737    0.0312   -1.1991 N   0  0  0  0  0  0  0  0  0  0  0  0
    3.9935    0.4338   -1.4201 C   0  0  0  0  0  0  0  0  0  0  0  0
    3.6906    1.8255   -2.2828 S   0  0  0  0  0  0  0  0  0  0  0  0
    3.0555   -0.4152   -0.8851 N   0  0  0  0  0  0  0  0  0  0  0  0
    1.7032   -0.0230   -0.8385 N   0  0  0  0  0  0  0  0  0  0  0  0
    1.0252   -0.2548    0.3447 C   0  0  0  0  0  0  0  0  0  0  0  0
    1.4944   -0.9460    1.2464 O   0  0  0  0  0  0  0  0  0  0  0  0
   -0.3425    0.4181    0.4124 C   0  0  0  0  0  0  0  0  0  0  0  0
   -0.8988    0.3995    1.8426 C   0  0  0  0  0  0  0  0  0  0  0  0
   -2.2475    1.1067    1.9220 C   0  0  0  0  0  0  0  0  0  0  0  0
   -3.2593    0.4965    0.9604 C   0  0  0  0  0  0  0  0  0  0  0  0
   -2.7322    0.4384   -0.4735 C   0  0  0  0  0  0  0  0  0  0  0  0
   -1.3327   -0.1829   -0.5989 C   0  0  0  0  0  0  0  0  0  0  0  0
   -1.3976   -1.6953   -0.4927 C   0  0  0  0  0  0  0  0  0  0  0  0
   -2.0853   -2.3546    0.2661 O   0  0  0  0  0  0  0  0  0  0  0  0
   -0.5662   -2.3023   -1.3607 O   0  0  0  0  0  0  0  0  0  0  0  0
    6.0038    0.5496   -1.6746 H   0  0  0  0  0  0  0  0  0  0  0  0
    5.4674   -0.9457   -1.0237 H   0  0  0  0  0  0  0  0  0  0  0  0
    3.3359   -0.9974   -0.0947 H   0  0  0  0  0  0  0  0  0  0  0  0
    1.4499    0.7534   -1.4468 H   0  0  0  0  0  0  0  0  0  0  0  0
   -0.1812    1.4727    0.1444 H   0  0  0  0  0  0  0  0  0  0  0  0
   -0.1928    0.8929    2.5222 H   0  0  0  0  0  0  0  0  0  0  0  0
   -1.0023   -0.6314    2.2036 H   0  0  0  0  0  0  0  0  0  0  0  0
   -2.1170    2.1706    1.6886 H   0  0  0  0  0  0  0  0  0  0  0  0
   -2.6334    1.0509    2.9462 H   0  0  0  0  0  0  0  0  0  0  0  0
   -3.5240   -0.5101    1.3029 H   0  0  0  0  0  0  0  0  0  0  0  0
   -4.1853    1.0828    0.9833 H   0  0  0  0  0  0  0  0  0  0  0  0
   -3.4494   -0.1078   -1.0984 H   0  0  0  0  0  0  0  0  0  0  0  0
   -2.6917    1.4629   -0.8661 H   0  0  0  0  0  0  0  0  0  0  0  0
   -0.9860    0.0386   -1.6182 H   0  0  0  0  0  0  0  0  0  0  0  0
   -0.6679   -3.2575   -1.1619 H   0  0  0  0  0  0  0  0  0  0  0  0
  1  2  1  0
  2  3  2  0
  2  4  1  0
  4  5  1  0
  5  6  1  0
  6  7  2  0
  6  8  1  0
  8  9  1  0
  9 10  1  0
 10 11  1  0
 11 12  1  0
 12 13  1  0
 13 14  1  0
 14 15  2  0
 14 16  1  0
 13  8  1  0
  1 17  1  0
  1 18  1  0
  4 19  1  0
  5 20  1  0
  8 21  1  0
  9 22  1  0
  9 23  1  0
 10 24  1  0
 10 25  1  0
 11 26  1  0
 11 27  1  0
 12 28  1  0
 12 29  1  0
 13 30  1  0
 16 31  1  0
M  END
$$$$
