
     RDKit          3D

 36 38  0  0  0  0  0  0  0  0999 V2000
    6.2572    0.3167   -3.7190 Br  0  0  0  0  0  0  0  0  0  0  0  0
    5.0650    0.1249   -2.2652 C   0  0  0  0  0  0  0  0  0  0  0  0
    3.8719    0.8422   -2.2494 C   0  0  0  0  0  0  0  0  0  0  0  0
    2.9916    0.6969   -1.1731 C   0  0  0  0  0  0  0  0  0  0  0  0
    3.2975   -0.1601   -0.1043 C   0  0  0  0  0  0  0  0  0  0  0  0
    2.3538   -0.2894    1.0011 C   0  0  0  0  0  0  0  0  0  0  0  0
    2.7053   -0.6171    2.2936 C   0  0  0  0  0  0  0  0  0  0  0  0
    1.3138   -0.6508    3.2889 S   0  0  0  0  0  0  0  0  0  0  0  0
    0.3262   -0.2161    1.9356 C   0  0  0  0  0  0  0  0  0  0  0  0
   -1.0079   -0.0904    2.1479 N   0  0  0  0  0  0  0  0  0  0  0  0
   -1.7952    0.2487    1.1723 C   0  0  0  0  0  0  0  0  0  0  0  0
   -3.2721    0.3603    1.5509 C   0  0  0  0  0  0  0  0  0  0  0  0
   -4.1361   -0.6124    0.7635 C   0  0  0  0  0  0  0  0  0  0  0  0
   -4.5932   -0.0608   -0.5866 C   0  0  0  0  0  0  0  0  0  0  0  0
   -3.5467    0.7344   -1.3682 C   0  0  0  0  0  0  0  0  0  0  0  0
   -2.1504    0.1330   -1.3104 C   0  0  0  0  0  0  0  0  0  0  0  0
   -1.4217    0.5461   -0.1245 N   0  0  0  0  0  0  0  0  0  0  0  0
    1.0002   -0.0586    0.8100 N   0  0  0  0  0  0  0  0  0  0  0  0
    4.5019   -0.8787   -0.1406 C   0  0  0  0  0  0  0  0  0  0  0  0
    5.3840   -0.7358   -1.2174 C   0  0  0  0  0  0  0  0  0  0  0  0
    3.6159    1.5152   -3.0634 H   0  0  0  0  0  0  0  0  0  0  0  0
    2.0636    1.2661   -1.1692 H   0  0  0  0  0  0  0  0  0  0  0  0
    3.6810   -0.8233    2.7079 H   0  0  0  0  0  0  0  0  0  0  0  0
   -3.3692    0.1296    2.6194 H   0  0  0  0  0  0  0  0  0  0  0  0
   -3.5991    1.3976    1.4196 H   0  0  0  0  0  0  0  0  0  0  0  0
   -3.5988   -1.5569    0.6114 H   0  0  0  0  0  0  0  0  0  0  0  0
   -5.0309   -0.8585    1.3483 H   0  0  0  0  0  0  0  0  0  0  0  0
   -4.9400   -0.9021   -1.1998 H   0  0  0  0  0  0  0  0  0  0  0  0
   -5.4693    0.5827   -0.4365 H   0  0  0  0  0  0  0  0  0  0  0  0
   -3.5265    1.7721   -1.0122 H   0  0  0  0  0  0  0  0  0  0  0  0
   -3.8754    0.7774   -2.4141 H   0  0  0  0  0  0  0  0  0  0  0  0
   -1.5860    0.4936   -2.1782 H   0  0  0  0  0  0  0  0  0  0  0  0
   -2.1757   -0.9600   -1.3844 H   0  0  0  0  0  0  0  0  0  0  0  0
   -0.4127    0.4063   -0.2420 H   0  0  0  0  0  0  0  0  0  0  0  0
    4.7665   -1.5702    0.6555 H   0  0  0  0  0  0  0  0  0  0  0  0
    6.3114   -1.3028   -1.2291 H   0  0  0  0  0  0  0  0  0  0  0  0
  1  2  1  0
  2  3  2  0
  3  4  1  0
  4  5  2  0
  5  6  1  0
  6  7  2  0
  7  8  1  0
  8  9  1  0
  9 10  1  0
 10 11  2  3
 11 12  1  0
 12 13  1  0
 13 14  1  0
 14 15  1  0
 15 16  1  0
 16 17  1  0
  9 18  2  0
  5 19  1  0
 19 20  2  0
 20  2  1  0
 18  6  1  0
 17 11  1  0
  3 21  1  0
  4 22  1  0
  7 23  1  0
 12 24  1  0
 12 25  1  0
 13 26  1  0
 13 27  1  0
 14 28  1  0
 14 29  1  0
 15 30  1  0
 15 31  1  0
 16 32  1  0
 16 33  1  0
 17 34  1  0
 19 35  1  0
 20 36  1  0
M  END
$$$$
