
     RDKit          3D

 43 45  0  0  0  0  0  0  0  0999 V2000
    2.7635   -2.3645    1.6600 C   0  0  0  0  0  0  0  0  0  0  0  0
    2.5667   -1.0381    2.1470 O   0  0  0  0  0  0  0  0  0  0  0  0
    2.1725   -0.1431    1.1841 C   0  0  0  0  0  0  0  0  0  0  0  0
    1.0778    0.6520    1.5482 C   0  0  0  0  0  0  0  0  0  0  0  0
    0.5349    1.6115    0.6752 C   0  0  0  0  0  0  0  0  0  0  0  0
   -0.6575    2.3599    1.1466 C   0  0  0  0  0  0  0  0  0  0  0  0
   -0.4961    3.7378    1.5010 C   0  0  0  0  0  0  0  0  0  0  0  0
   -0.3502    4.8497    1.7981 N   0  0  0  0  0  0  0  0  0  0  0  0
   -1.8757    1.7881    1.2733 C   0  0  0  0  0  0  0  0  0  0  0  0
   -2.1937    0.3732    1.0005 C   0  0  0  0  0  0  0  0  0  0  0  0
   -2.1171   -0.5149    2.0850 C   0  0  0  0  0  0  0  0  0  0  0  0
   -2.3222   -1.8774    1.9001 C   0  0  0  0  0  0  0  0  0  0  0  0
   -2.6160   -2.3667    0.6306 C   0  0  0  0  0  0  0  0  0  0  0  0
   -2.7302   -1.5007   -0.4675 C   0  0  0  0  0  0  0  0  0  0  0  0
   -3.0462   -2.0092   -1.7391 C   0  0  0  0  0  0  0  0  0  0  0  0
   -3.1830   -1.1630   -2.8379 C   0  0  0  0  0  0  0  0  0  0  0  0
   -3.0163    0.2057   -2.6779 C   0  0  0  0  0  0  0  0  0  0  0  0
   -2.7008    0.7259   -1.4214 C   0  0  0  0  0  0  0  0  0  0  0  0
   -2.5338   -0.1076   -0.2920 C   0  0  0  0  0  0  0  0  0  0  0  0
    1.1840    1.7943   -0.5612 C   0  0  0  0  0  0  0  0  0  0  0  0
    0.7488    2.8067   -1.5328 N   0  0  0  0  0  4  0  0  0  0  0  0
    1.6128    3.2767   -2.2863 O   0  0  0  0  0  0  0  0  0  0  0  0
   -0.4466    3.1201   -1.5637 O   0  0  0  0  0  1  0  0  0  0  0  0
    2.3095    1.0190   -0.9180 C   0  0  0  0  0  0  0  0  0  0  0  0
    2.8111    0.0459   -0.0496 C   0  0  0  0  0  0  0  0  0  0  0  0
    3.9173   -0.7177   -0.3054 O   0  0  0  0  0  0  0  0  0  0  0  0
    4.5392   -0.5902   -1.5786 C   0  0  0  0  0  0  0  0  0  0  0  0
    2.1110   -2.6050    0.8123 H   0  0  0  0  0  0  0  0  0  0  0  0
    2.5182   -3.0554    2.4723 H   0  0  0  0  0  0  0  0  0  0  0  0
    3.8140   -2.5205    1.4004 H   0  0  0  0  0  0  0  0  0  0  0  0
    0.6423    0.4959    2.5343 H   0  0  0  0  0  0  0  0  0  0  0  0
   -2.7277    2.3712    1.6217 H   0  0  0  0  0  0  0  0  0  0  0  0
   -1.8812   -0.1495    3.0823 H   0  0  0  0  0  0  0  0  0  0  0  0
   -2.2505   -2.5610    2.7436 H   0  0  0  0  0  0  0  0  0  0  0  0
   -2.7670   -3.4367    0.5059 H   0  0  0  0  0  0  0  0  0  0  0  0
   -3.1905   -3.0776   -1.8821 H   0  0  0  0  0  0  0  0  0  0  0  0
   -3.4304   -1.5720   -3.8137 H   0  0  0  0  0  0  0  0  0  0  0  0
   -3.1374    0.8745   -3.5264 H   0  0  0  0  0  0  0  0  0  0  0  0
   -2.6078    1.8057   -1.3321 H   0  0  0  0  0  0  0  0  0  0  0  0
    2.7849    1.1961   -1.8792 H   0  0  0  0  0  0  0  0  0  0  0  0
    4.9616    0.4108   -1.7153 H   0  0  0  0  0  0  0  0  0  0  0  0
    5.3647   -1.3072   -1.6194 H   0  0  0  0  0  0  0  0  0  0  0  0
    3.8431   -0.8429   -2.3861 H   0  0  0  0  0  0  0  0  0  0  0  0
  1  2  1  0
  2  3  1  0
  3  4  2  0
  4  5  1  0
  5  6  1  0
  6  7  1  0
  7  8  3  0
  6  9  2  3
  9 10  1  0
 10 11  2  0
 11 12  1  0
 12 13  2  0
 13 14  1  0
 14 15  2  0
 15 16  1  0
 16 17  2  0
 17 18  1  0
 18 19  2  0
  5 20  2  0
 20 21  1  0
 21 22  2  0
 21 23  1  0
 20 24  1  0
 24 25  2  0
 25 26  1  0
 26 27  1  0
 25  3  1  0
 19 10  1  0
 19 14  1  0
  1 28  1  0
  1 29  1  0
  1 30  1  0
  4 31  1  0
  9 32  1  0
 11 33  1  0
 12 34  1  0
 13 35  1  0
 15 36  1  0
 16 37  1  0
 17 38  1  0
 18 39  1  0
 24 40  1  0
 27 41  1  0
 27 42  1  0
 27 43  1  0
M  CHG  2  21   1  23  -1
M  END
$$$$
