
     RDKit          3D

 45 47  0  0  0  0  0  0  0  0999 V2000
   -5.7962   -0.8778   -1.3484 C   0  0  0  0  0  0  0  0  0  0  0  0
   -5.5655   -0.4003    0.0772 C   0  0  0  0  0  0  0  0  0  0  0  0
   -4.4076    0.4987    0.1637 N   0  0  0  0  0  0  0  0  0  0  0  0
   -4.6580    1.9210   -0.1104 C   0  0  0  0  0  0  0  0  0  0  0  0
   -4.0704    2.3533   -1.4474 C   0  0  0  0  0  0  0  0  0  0  0  0
   -3.1401    0.0243    0.4886 C   0  0  0  0  0  0  0  0  0  0  0  0
   -2.0966    0.8792    0.8817 C   0  0  0  0  0  0  0  0  0  0  0  0
   -0.8150    0.4088    1.2124 C   0  0  0  0  0  0  0  0  0  0  0  0
   -0.5192   -0.9490    1.1454 C   0  0  0  0  0  0  0  0  0  0  0  0
    0.7867   -1.4953    1.5247 C   0  0  0  0  0  0  0  0  0  0  0  0
    1.9913   -1.1073    1.0849 C   0  0  0  0  0  0  0  0  0  0  0  0
    3.2287   -1.7859    1.5621 C   0  0  0  0  0  0  0  0  0  0  0  0
    3.3311   -2.6959    2.3574 O   0  0  0  0  0  0  0  0  0  0  0  0
    4.3342   -1.1231    0.8626 C   0  0  0  0  0  0  0  0  0  0  0  0
    5.6874   -1.3901    0.9646 C   0  0  0  0  0  0  0  0  0  0  0  0
    6.5606   -0.6169    0.1896 C   0  0  0  0  0  0  0  0  0  0  0  0
    6.0697    0.3993   -0.6652 C   0  0  0  0  0  0  0  0  0  0  0  0
    6.9802    1.2285   -1.4928 C   0  0  0  0  0  0  0  0  0  0  0  0
    6.6397    2.1212   -2.2450 O   0  0  0  0  0  0  0  0  0  0  0  0
    8.2725    0.8967   -1.3353 O   0  0  0  0  0  0  0  0  0  0  0  0
    4.6918    0.6509   -0.7513 C   0  0  0  0  0  0  0  0  0  0  0  0
    3.8468   -0.1253    0.0235 C   0  0  0  0  0  0  0  0  0  0  0  0
    2.3822   -0.0543    0.1072 C   0  0  0  0  0  0  0  0  0  0  0  0
    1.6904    0.7234   -0.5124 O   0  0  0  0  0  0  0  0  0  0  0  0
   -1.5379   -1.8245    0.7745 C   0  0  0  0  0  0  0  0  0  0  0  0
   -2.8163   -1.3420    0.4502 C   0  0  0  0  0  0  0  0  0  0  0  0
   -6.0440   -0.0409   -2.0086 H   0  0  0  0  0  0  0  0  0  0  0  0
   -4.9129   -1.3765   -1.7584 H   0  0  0  0  0  0  0  0  0  0  0  0
   -6.6316   -1.5844   -1.3783 H   0  0  0  0  0  0  0  0  0  0  0  0
   -5.4674   -1.2544    0.7573 H   0  0  0  0  0  0  0  0  0  0  0  0
   -6.4662    0.1228    0.4226 H   0  0  0  0  0  0  0  0  0  0  0  0
   -4.2858    2.5532    0.7033 H   0  0  0  0  0  0  0  0  0  0  0  0
   -5.7379    2.1125   -0.1442 H   0  0  0  0  0  0  0  0  0  0  0  0
   -4.3165    3.4018   -1.6437 H   0  0  0  0  0  0  0  0  0  0  0  0
   -4.4712    1.7529   -2.2698 H   0  0  0  0  0  0  0  0  0  0  0  0
   -2.9810    2.2571   -1.4676 H   0  0  0  0  0  0  0  0  0  0  0  0
   -2.2506    1.9511    0.9545 H   0  0  0  0  0  0  0  0  0  0  0  0
   -0.0608    1.1301    1.5163 H   0  0  0  0  0  0  0  0  0  0  0  0
    0.7302   -2.3249    2.2300 H   0  0  0  0  0  0  0  0  0  0  0  0
    6.0573   -2.1716    1.6224 H   0  0  0  0  0  0  0  0  0  0  0  0
    7.6308   -0.8095    0.2539 H   0  0  0  0  0  0  0  0  0  0  0  0
    8.7503    1.5129   -1.9306 H   0  0  0  0  0  0  0  0  0  0  0  0
    4.2933    1.4260   -1.4017 H   0  0  0  0  0  0  0  0  0  0  0  0
   -1.3556   -2.8953    0.7213 H   0  0  0  0  0  0  0  0  0  0  0  0
   -3.5506   -2.0804    0.1442 H   0  0  0  0  0  0  0  0  0  0  0  0
  1  2  1  0
  2  3  1  0
  3  4  1  0
  4  5  1  0
  3  6  1  0
  6  7  2  0
  7  8  1  0
  8  9  2  0
  9 10  1  0
 10 11  2  3
 11 12  1  0
 12 13  2  0
 12 14  1  0
 14 15  2  0
 15 16  1  0
 16 17  2  0
 17 18  1  0
 18 19  2  0
 18 20  1  0
 17 21  1  0
 21 22  2  0
 22 23  1  0
 23 24  2  0
  9 25  1  0
 25 26  2  0
 26  6  1  0
 23 11  1  0
 22 14  1  0
  1 27  1  0
  1 28  1  0
  1 29  1  0
  2 30  1  0
  2 31  1  0
  4 32  1  0
  4 33  1  0
  5 34  1  0
  5 35  1  0
  5 36  1  0
  7 37  1  0
  8 38  1  0
 10 39  1  0
 15 40  1  0
 16 41  1  0
 20 42  1  0
 21 43  1  0
 25 44  1  0
 26 45  1  0
M  END
$$$$
