
     RDKit          3D

 43 45  0  0  0  0  0  0  0  0999 V2000
   -5.0447   -3.6110   -1.2413 C   0  0  0  0  0  0  0  0  0  0  0  0
   -4.7162   -2.1956   -1.0304 N   0  0  0  0  0  0  0  0  0  0  0  0
   -4.6264   -1.5216   -2.3356 C   0  0  0  0  0  0  0  0  0  0  0  0
   -3.4315   -2.0865   -0.2987 C   0  0  0  0  0  0  0  0  0  0  0  0
   -3.1917   -0.7179    0.2922 C   0  0  0  0  0  0  0  0  0  0  0  0
   -4.2122    0.0784    0.8449 C   0  0  0  0  0  0  0  0  0  0  0  0
   -5.5233   -0.3151    0.8014 O   0  0  0  0  0  0  0  0  0  0  0  0
   -3.9557    1.3183    1.4588 C   0  0  0  0  0  0  0  0  0  0  0  0
   -2.6535    1.8095    1.5431 C   0  0  0  0  0  0  0  0  0  0  0  0
   -1.6546    1.0226    1.0073 C   0  0  0  0  0  0  0  0  0  0  0  0
   -1.9062   -0.2089    0.4035 C   0  0  0  0  0  0  0  0  0  0  0  0
   -0.7573   -0.8260   -0.0415 O   0  0  0  0  0  0  0  0  0  0  0  0
    0.3012    0.0325    0.2746 C   0  0  0  0  0  0  0  0  0  0  0  0
    1.5694   -0.2751   -0.0291 C   0  0  0  0  0  0  0  0  0  0  0  0
    2.7436    0.5232    0.2503 C   0  0  0  0  0  0  0  0  0  0  0  0
    3.9794    0.1455   -0.1156 C   0  0  0  0  0  0  0  0  0  0  0  0
    5.1987    0.9240    0.1543 C   0  0  0  0  0  0  0  0  0  0  0  0
    6.4038    0.2397    0.3644 C   0  0  0  0  0  0  0  0  0  0  0  0
    7.5913    0.9393    0.5954 C   0  0  0  0  0  0  0  0  0  0  0  0
    7.5889    2.3321    0.6081 C   0  0  0  0  0  0  0  0  0  0  0  0
    6.4013    3.0251    0.3855 C   0  0  0  0  0  0  0  0  0  0  0  0
    5.2136    2.3253    0.1545 C   0  0  0  0  0  0  0  0  0  0  0  0
   -0.2170    1.2553    0.9553 C   0  0  0  0  0  0  0  0  0  0  0  0
    0.3725    2.2271    1.3741 O   0  0  0  0  0  0  0  0  0  0  0  0
   -5.1654   -4.1236   -0.2804 H   0  0  0  0  0  0  0  0  0  0  0  0
   -6.0002   -3.7086   -1.7687 H   0  0  0  0  0  0  0  0  0  0  0  0
   -4.2743   -4.1343   -1.8192 H   0  0  0  0  0  0  0  0  0  0  0  0
   -4.4181   -0.4532   -2.2160 H   0  0  0  0  0  0  0  0  0  0  0  0
   -3.8478   -1.9557   -2.9735 H   0  0  0  0  0  0  0  0  0  0  0  0
   -5.5835   -1.5922   -2.8647 H   0  0  0  0  0  0  0  0  0  0  0  0
   -2.6010   -2.3852   -0.9512 H   0  0  0  0  0  0  0  0  0  0  0  0
   -3.4350   -2.7817    0.5517 H   0  0  0  0  0  0  0  0  0  0  0  0
   -5.5694   -1.0757    0.1789 H   0  0  0  0  0  0  0  0  0  0  0  0
   -4.7835    1.8938    1.8671 H   0  0  0  0  0  0  0  0  0  0  0  0
   -2.4323    2.7623    2.0116 H   0  0  0  0  0  0  0  0  0  0  0  0
    1.7437   -1.2220   -0.5371 H   0  0  0  0  0  0  0  0  0  0  0  0
    2.6000    1.4562    0.7912 H   0  0  0  0  0  0  0  0  0  0  0  0
    4.1361   -0.7977   -0.6338 H   0  0  0  0  0  0  0  0  0  0  0  0
    6.4281   -0.8476    0.3600 H   0  0  0  0  0  0  0  0  0  0  0  0
    8.5169    0.3957    0.7653 H   0  0  0  0  0  0  0  0  0  0  0  0
    8.5116    2.8773    0.7880 H   0  0  0  0  0  0  0  0  0  0  0  0
    6.3965    4.1120    0.3878 H   0  0  0  0  0  0  0  0  0  0  0  0
    4.3040    2.8914   -0.0324 H   0  0  0  0  0  0  0  0  0  0  0  0
  1  2  1  0
  2  3  1  0
  2  4  1  0
  4  5  1  0
  5  6  2  0
  6  7  1  0
  6  8  1  0
  8  9  2  0
  9 10  1  0
 10 11  2  0
 11 12  1  0
 12 13  1  0
 13 14  2  3
 14 15  1  0
 15 16  2  3
 16 17  1  0
 17 18  2  0
 18 19  1  0
 19 20  2  0
 20 21  1  0
 21 22  2  0
 13 23  1  0
 23 24  2  0
 11  5  1  0
 22 17  1  0
 23 10  1  0
  1 25  1  0
  1 26  1  0
  1 27  1  0
  3 28  1  0
  3 29  1  0
  3 30  1  0
  4 31  1  0
  4 32  1  0
  7 33  1  0
  8 34  1  0
  9 35  1  0
 14 36  1  0
 15 37  1  0
 16 38  1  0
 18 39  1  0
 19 40  1  0
 20 41  1  0
 21 42  1  0
 22 43  1  0
M  END
$$$$
