
     RDKit          3D

 42 45  0  0  0  0  0  0  0  0999 V2000
    8.0626    0.2620   -0.4610 O   0  0  0  0  0  0  0  0  0  0  0  0
    7.2293   -0.4366   -1.0107 C   0  0  0  0  0  0  0  0  0  0  0  0
    7.5989   -1.3629   -1.9156 O   0  0  0  0  0  0  0  0  0  0  0  0
    5.7375   -0.3746   -0.8449 C   0  0  0  0  0  0  0  0  0  0  0  0
    5.3613    0.4698    0.3781 C   0  0  0  0  0  0  0  0  0  0  0  0
    5.3781   -0.3351    1.6798 C   0  0  0  0  0  0  0  0  0  0  0  0
    4.6841   -0.1227    2.6638 O   0  0  0  0  0  0  0  0  0  0  0  0
    6.3021   -1.3142    1.7126 O   0  0  0  0  0  0  0  0  0  0  0  0
    4.0083    1.0750    0.2726 N   0  0  0  0  0  0  0  0  0  0  0  0
    2.9241    0.2648   -0.0216 C   0  0  0  0  0  0  0  0  0  0  0  0
    2.9794   -0.9326   -0.2667 O   0  0  0  0  0  0  0  0  0  0  0  0
    1.6527    1.0395    0.0149 C   0  0  0  0  0  0  0  0  0  0  0  0
    0.4920    0.4324   -0.2622 C   0  0  0  0  0  0  0  0  0  0  0  0
   -0.8124    1.0036   -0.2657 C   0  0  0  0  0  0  0  0  0  0  0  0
   -1.2830    2.3082   -0.3114 C   0  0  0  0  0  0  0  0  0  0  0  0
   -2.6997    2.2668   -0.3014 C   0  0  0  0  0  0  0  0  0  0  0  0
   -3.0693    0.9357   -0.2633 C   0  0  0  0  0  0  0  0  0  0  0  0
   -4.3787    0.3342   -0.2430 C   0  0  0  0  0  0  0  0  0  0  0  0
   -4.5444   -0.9712   -0.2240 N   0  0  0  0  0  0  0  0  0  0  0  0
   -5.8928   -1.2810   -0.2062 C   0  0  0  0  0  0  0  0  0  0  0  0
   -6.4425   -2.5788   -0.1826 C   0  0  0  0  0  0  0  0  0  0  0  0
   -7.8311   -2.7465   -0.1665 C   0  0  0  0  0  0  0  0  0  0  0  0
   -8.6742   -1.6398   -0.1737 C   0  0  0  0  0  0  0  0  0  0  0  0
   -8.1539   -0.3419   -0.1970 C   0  0  0  0  0  0  0  0  0  0  0  0
   -6.7578   -0.1859   -0.2130 C   0  0  0  0  0  0  0  0  0  0  0  0
   -5.8255    1.2598   -0.2423 S   0  0  0  0  0  0  0  0  0  0  0  0
   -1.9217    0.1864   -0.2514 O   0  0  0  0  0  0  0  0  0  0  0  0
    1.9803    2.6560    0.4732 S   0  0  0  0  0  0  0  0  0  0  0  0
    3.7090    2.3741    0.6298 C   0  0  0  0  0  0  0  0  0  0  0  0
    4.7478    3.5865    1.1124 S   0  0  0  0  0  0  0  0  0  0  0  0
    8.5778   -1.3098   -1.9394 H   0  0  0  0  0  0  0  0  0  0  0  0
    5.3632   -1.4003   -0.7572 H   0  0  0  0  0  0  0  0  0  0  0  0
    5.3339    0.0755   -1.7594 H   0  0  0  0  0  0  0  0  0  0  0  0
    6.0930    1.2699    0.5156 H   0  0  0  0  0  0  0  0  0  0  0  0
    6.2107   -1.7062    2.6081 H   0  0  0  0  0  0  0  0  0  0  0  0
    0.5104   -0.6331   -0.4914 H   0  0  0  0  0  0  0  0  0  0  0  0
   -0.6866    3.2078   -0.3570 H   0  0  0  0  0  0  0  0  0  0  0  0
   -3.3666    3.1175   -0.3263 H   0  0  0  0  0  0  0  0  0  0  0  0
   -5.7799   -3.4388   -0.1769 H   0  0  0  0  0  0  0  0  0  0  0  0
   -8.2504   -3.7497   -0.1481 H   0  0  0  0  0  0  0  0  0  0  0  0
   -9.7527   -1.7844   -0.1608 H   0  0  0  0  0  0  0  0  0  0  0  0
   -8.8134    0.5206   -0.2023 H   0  0  0  0  0  0  0  0  0  0  0  0
  1  2  2  0
  2  3  1  0
  2  4  1  0
  4  5  1  0
  5  6  1  0
  6  7  2  0
  6  8  1  0
  5  9  1  0
  9 10  1  0
 10 11  2  0
 10 12  1  0
 12 13  2  3
 13 14  1  0
 14 15  2  0
 15 16  1  0
 16 17  2  0
 17 18  1  0
 18 19  2  0
 19 20  1  0
 20 21  2  0
 21 22  1  0
 22 23  2  0
 23 24  1  0
 24 25  2  0
 25 26  1  0
 17 27  1  0
 12 28  1  0
 28 29  1  0
 29 30  2  0
 29  9  1  0
 27 14  1  0
 26 18  1  0
 25 20  1  0
  3 31  1  0
  4 32  1  0
  4 33  1  0
  5 34  1  0
  8 35  1  0
 13 36  1  0
 15 37  1  0
 16 38  1  0
 21 39  1  0
 22 40  1  0
 23 41  1  0
 24 42  1  0
M  END
$$$$
