
     RDKit          3D

 43 45  0  0  0  0  0  0  0  0999 V2000
   -7.2702   -1.6896   -0.4621 C   0  0  0  0  0  0  0  0  0  0  0  0
   -6.8772   -0.8363    0.4930 C   0  0  0  0  0  0  0  0  0  0  0  0
   -6.2625    0.5108    0.2290 C   0  0  0  0  0  0  0  0  0  0  0  0
   -4.8393    0.4441    0.5180 N   0  0  0  0  0  0  0  0  0  0  0  0
   -4.4319    0.6655    1.8249 C   0  0  0  0  0  0  0  0  0  0  0  0
   -5.1957    0.9292    2.7514 O   0  0  0  0  0  0  0  0  0  0  0  0
   -3.0955    0.5795    2.0671 N   0  0  0  0  0  0  0  0  0  0  0  0
   -2.1537    0.2831    1.0997 C   0  0  0  0  0  0  0  0  0  0  0  0
   -0.8642    0.2231    1.4892 N   0  0  0  0  0  0  0  0  0  0  0  0
    0.0413   -0.0676    0.5291 C   0  0  0  0  0  0  0  0  0  0  0  0
    1.3862   -0.1466    0.8572 C   0  0  0  0  0  0  0  0  0  0  0  0
    2.3621   -0.4323   -0.1029 C   0  0  0  0  0  0  0  0  0  0  0  0
    3.7061   -0.5167    0.2877 N   0  0  0  0  0  0  0  0  0  0  0  0
    4.3675    0.5943    0.2987 C   0  0  0  0  0  0  0  0  0  0  0  0
    5.6897    0.7472    0.6488 N   0  0  0  0  0  0  0  0  0  0  0  0
    6.5180   -0.4373    0.8322 C   0  0  0  0  0  0  0  0  0  0  0  0
    6.3947    1.9747    0.3178 C   0  0  0  0  0  0  0  0  0  0  0  0
    1.9751   -0.6771   -1.4264 C   0  0  0  0  0  0  0  0  0  0  0  0
    2.9922   -1.0159   -2.4787 C   0  0  0  0  0  0  0  0  0  0  0  0
    0.6163   -0.5915   -1.7635 C   0  0  0  0  0  0  0  0  0  0  0  0
   -0.3523   -0.2919   -0.8156 C   0  0  0  0  0  0  0  0  0  0  0  0
   -1.6422   -0.2224   -1.1906 N   0  0  0  0  0  0  0  0  0  0  0  0
   -2.5332    0.0658   -0.2088 C   0  0  0  0  0  0  0  0  0  0  0  0
   -3.9710    0.1625   -0.5433 C   0  0  0  0  0  0  0  0  0  0  0  0
   -4.3429    0.0094   -1.7052 O   0  0  0  0  0  0  0  0  0  0  0  0
   -7.1411   -1.4603   -1.5168 H   0  0  0  0  0  0  0  0  0  0  0  0
   -7.7167   -2.6456   -0.2073 H   0  0  0  0  0  0  0  0  0  0  0  0
   -7.0221   -1.1061    1.5374 H   0  0  0  0  0  0  0  0  0  0  0  0
   -6.7456    1.2589    0.8677 H   0  0  0  0  0  0  0  0  0  0  0  0
   -6.4267    0.8224   -0.8088 H   0  0  0  0  0  0  0  0  0  0  0  0
   -2.7711    0.7293    3.0123 H   0  0  0  0  0  0  0  0  0  0  0  0
    1.6911    0.0141    1.8883 H   0  0  0  0  0  0  0  0  0  0  0  0
    3.8925    1.5523    0.0112 H   0  0  0  0  0  0  0  0  0  0  0  0
    7.4639   -0.1856    1.3236 H   0  0  0  0  0  0  0  0  0  0  0  0
    6.7439   -0.8980   -0.1351 H   0  0  0  0  0  0  0  0  0  0  0  0
    6.0143   -1.1756    1.4653 H   0  0  0  0  0  0  0  0  0  0  0  0
    6.6810    1.9760   -0.7390 H   0  0  0  0  0  0  0  0  0  0  0  0
    7.2997    2.0859    0.9242 H   0  0  0  0  0  0  0  0  0  0  0  0
    5.7663    2.8511    0.5093 H   0  0  0  0  0  0  0  0  0  0  0  0
    3.6446   -0.1568   -2.6648 H   0  0  0  0  0  0  0  0  0  0  0  0
    3.5982   -1.8720   -2.1646 H   0  0  0  0  0  0  0  0  0  0  0  0
    2.5134   -1.2851   -3.4262 H   0  0  0  0  0  0  0  0  0  0  0  0
    0.2971   -0.7689   -2.7890 H   0  0  0  0  0  0  0  0  0  0  0  0
  1  2  2  0
  2  3  1  0
  3  4  1  0
  4  5  1  0
  5  6  2  0
  5  7  1  0
  7  8  1  0
  8  9  2  0
  9 10  1  0
 10 11  2  0
 11 12  1  0
 12 13  1  0
 13 14  2  3
 14 15  1  0
 15 16  1  0
 15 17  1  0
 12 18  2  0
 18 19  1  0
 18 20  1  0
 20 21  2  0
 21 22  1  0
 22 23  2  0
 23 24  1  0
 24 25  2  0
 24  4  1  0
 23  8  1  0
 21 10  1  0
  1 26  1  0
  1 27  1  0
  2 28  1  0
  3 29  1  0
  3 30  1  0
  7 31  1  0
 11 32  1  0
 14 33  1  0
 16 34  1  0
 16 35  1  0
 16 36  1  0
 17 37  1  0
 17 38  1  0
 17 39  1  0
 19 40  1  0
 19 41  1  0
 19 42  1  0
 20 43  1  0
M  END
$$$$
