
     RDKit          3D

 51 53  0  0  0  0  0  0  0  0999 V2000
    0.0178   -1.4339   -0.7850 O   0  0  0  0  0  0  0  0  0  0  0  0
    1.1985   -1.6654   -0.9959 C   0  0  0  0  0  0  0  0  0  0  0  0
    1.7616   -2.9189   -1.0845 N   0  0  0  0  0  0  0  0  0  0  0  0
    1.0043   -4.1078   -0.8006 C   0  0  0  0  0  0  0  0  0  0  0  0
    0.9658   -4.3167    0.6693 C   0  0  0  0  0  0  0  0  0  0  0  0
    1.6059   -5.1875    1.5233 C   0  0  0  0  0  0  0  0  0  0  0  0
    1.1173   -4.9005    2.8226 C   0  0  0  0  0  0  0  0  0  0  0  0
    0.2135   -3.8628    2.6906 C   0  0  0  0  0  0  0  0  0  0  0  0
   -0.6056   -3.2053    3.6748 C   0  0  0  0  0  0  0  0  0  0  0  0
   -1.3085   -2.1165    3.5680 N   0  0  0  0  0  0  0  0  0  0  0  0
   -1.2651   -1.3888    2.4126 N   0  0  0  0  0  0  0  0  0  0  0  0
   -2.0794   -0.2776    2.2866 C   0  0  0  0  0  0  0  0  0  0  0  0
   -2.9658    0.0921    3.0463 O   0  0  0  0  0  0  0  0  0  0  0  0
   -1.8389    0.5319    1.0076 C   0  0  0  0  0  0  0  0  0  0  0  0
   -0.6938    0.7906    0.6685 O   0  0  0  0  0  0  0  0  0  0  0  0
   -3.0231    0.8909    0.4045 N   0  0  0  0  0  0  0  0  0  0  0  0
   -3.2190    1.6123   -0.7904 C   0  0  0  0  0  0  0  0  0  0  0  0
   -2.1614    2.0588   -1.5929 C   0  0  0  0  0  0  0  0  0  0  0  0
   -2.4120    2.7766   -2.7677 C   0  0  0  0  0  0  0  0  0  0  0  0
   -3.7189    3.0555   -3.1581 C   0  0  0  0  0  0  0  0  0  0  0  0
   -4.7823    2.6202   -2.3699 C   0  0  0  0  0  0  0  0  0  0  0  0
   -4.5345    1.9032   -1.1946 C   0  0  0  0  0  0  0  0  0  0  0  0
   -6.0340    1.3484   -0.1606 Br  0  0  0  0  0  0  0  0  0  0  0  0
    0.1299   -3.5011    1.3780 O   0  0  0  0  0  0  0  0  0  0  0  0
    2.2260   -0.5207   -1.1534 C   0  0  0  0  0  0  0  0  0  0  0  0
    3.3364   -0.8055   -1.5874 O   0  0  0  0  0  0  0  0  0  0  0  0
    1.7396    0.7004   -0.7388 N   0  0  0  0  0  0  0  0  0  0  0  0
    2.4046    1.9396   -0.7622 C   0  0  0  0  0  0  0  0  0  0  0  0
    1.7181    3.0520   -0.2525 C   0  0  0  0  0  0  0  0  0  0  0  0
    2.3134    4.3153   -0.2498 C   0  0  0  0  0  0  0  0  0  0  0  0
    3.6002    4.4809   -0.7535 C   0  0  0  0  0  0  0  0  0  0  0  0
    4.2856    3.3836   -1.2656 C   0  0  0  0  0  0  0  0  0  0  0  0
    3.6902    2.1180   -1.2734 C   0  0  0  0  0  0  0  0  0  0  0  0
    2.7725   -2.9567   -1.1899 H   0  0  0  0  0  0  0  0  0  0  0  0
    1.4956   -4.9460   -1.3055 H   0  0  0  0  0  0  0  0  0  0  0  0
   -0.0115   -4.0048   -1.1989 H   0  0  0  0  0  0  0  0  0  0  0  0
    2.3275   -5.9440    1.2425 H   0  0  0  0  0  0  0  0  0  0  0  0
    1.3879   -5.3944    3.7456 H   0  0  0  0  0  0  0  0  0  0  0  0
   -0.6471   -3.7042    4.6577 H   0  0  0  0  0  0  0  0  0  0  0  0
   -0.6272   -1.6525    1.6598 H   0  0  0  0  0  0  0  0  0  0  0  0
   -3.8641    0.6413    0.9225 H   0  0  0  0  0  0  0  0  0  0  0  0
   -1.1320    1.8622   -1.3363 H   0  0  0  0  0  0  0  0  0  0  0  0
   -1.5781    3.1196   -3.3732 H   0  0  0  0  0  0  0  0  0  0  0  0
   -3.9073    3.6145   -4.0708 H   0  0  0  0  0  0  0  0  0  0  0  0
   -5.7973    2.8417   -2.6776 H   0  0  0  0  0  0  0  0  0  0  0  0
    0.7962    0.6855   -0.3361 H   0  0  0  0  0  0  0  0  0  0  0  0
    0.7145    2.9488    0.1485 H   0  0  0  0  0  0  0  0  0  0  0  0
    1.7694    5.1652    0.1460 H   0  0  0  0  0  0  0  0  0  0  0  0
    4.0671    5.4624   -0.7531 H   0  0  0  0  0  0  0  0  0  0  0  0
    5.2887    3.5073   -1.6672 H   0  0  0  0  0  0  0  0  0  0  0  0
    4.2584    1.2926   -1.6899 H   0  0  0  0  0  0  0  0  0  0  0  0
  1  2  2  0
  2  3  1  0
  3  4  1  0
  4  5  1  0
  5  6  2  0
  6  7  1  0
  7  8  2  0
  8  9  1  0
  9 10  2  3
 10 11  1  0
 11 12  1  0
 12 13  2  0
 12 14  1  0
 14 15  2  0
 14 16  1  0
 16 17  1  0
 17 18  2  0
 18 19  1  0
 19 20  2  0
 20 21  1  0
 21 22  2  0
 22 23  1  0
  8 24  1  0
  2 25  1  0
 25 26  2  0
 25 27  1  0
 27 28  1  0
 28 29  2  0
 29 30  1  0
 30 31  2  0
 31 32  1  0
 32 33  2  0
 24  5  1  0
 33 28  1  0
 22 17  1  0
  3 34  1  0
  4 35  1  0
  4 36  1  0
  6 37  1  0
  7 38  1  0
  9 39  1  0
 11 40  1  0
 16 41  1  0
 18 42  1  0
 19 43  1  0
 20 44  1  0
 21 45  1  0
 27 46  1  0
 29 47  1  0
 30 48  1  0
 31 49  1  0
 32 50  1  0
 33 51  1  0
M  END
$$$$
