
     RDKit          3D

 44 46  0  0  0  0  0  0  0  0999 V2000
   -5.6064    1.2101   -1.4988 C   0  0  0  0  0  0  0  0  0  0  0  0
   -5.2352    0.1461   -0.5024 C   0  0  0  0  0  0  0  0  0  0  0  0
   -5.8263   -1.1230   -0.5924 C   0  0  0  0  0  0  0  0  0  0  0  0
   -5.4935   -2.1249    0.3167 C   0  0  0  0  0  0  0  0  0  0  0  0
   -4.5672   -1.8677    1.3218 C   0  0  0  0  0  0  0  0  0  0  0  0
   -3.9699   -0.6086    1.4223 C   0  0  0  0  0  0  0  0  0  0  0  0
   -4.2987    0.4042    0.5158 C   0  0  0  0  0  0  0  0  0  0  0  0
   -3.7597    1.6653    0.5111 O   0  0  0  0  0  0  0  0  0  0  0  0
   -2.8345    2.0115    1.5332 C   0  0  0  0  0  0  0  0  0  0  0  0
   -1.4099    1.4891    1.3103 C   0  0  0  0  0  0  0  0  0  0  0  0
   -0.6363    1.3727    2.2562 O   0  0  0  0  0  0  0  0  0  0  0  0
   -1.1477    1.2336   -0.0164 N   0  0  0  0  0  0  0  0  0  0  0  0
    0.0230    0.7766   -0.5609 C   0  0  0  0  0  0  0  0  0  0  0  0
    0.1462    0.5205   -1.8438 N   0  0  0  0  0  0  0  0  0  0  0  0
    1.4128    0.0796   -2.1688 N   0  0  0  0  0  0  0  0  0  0  0  0
    2.2035    0.0160   -1.1157 C   0  0  0  0  0  0  0  0  0  0  0  0
    3.6435   -0.4267   -1.1766 C   0  0  0  0  0  0  0  0  0  0  0  0
    4.6080    0.7513   -0.9457 C   0  0  0  0  0  0  0  0  0  0  0  0
    6.0151    0.2548   -0.6358 C   0  0  0  0  0  0  0  0  0  0  0  0
    6.0579   -0.5853    0.6411 C   0  0  0  0  0  0  0  0  0  0  0  0
    4.7300   -1.2665    0.9759 C   0  0  0  0  0  0  0  0  0  0  0  0
    3.9439   -1.6425   -0.2768 C   0  0  0  0  0  0  0  0  0  0  0  0
    1.4363    0.5038    0.3456 S   0  0  0  0  0  0  0  0  0  0  0  0
   -4.7263    1.5085   -2.0780 H   0  0  0  0  0  0  0  0  0  0  0  0
   -6.3647    0.8539   -2.2043 H   0  0  0  0  0  0  0  0  0  0  0  0
   -6.0185    2.0844   -0.9843 H   0  0  0  0  0  0  0  0  0  0  0  0
   -6.5505   -1.3394   -1.3752 H   0  0  0  0  0  0  0  0  0  0  0  0
   -5.9561   -3.1057    0.2388 H   0  0  0  0  0  0  0  0  0  0  0  0
   -4.3049   -2.6504    2.0297 H   0  0  0  0  0  0  0  0  0  0  0  0
   -3.2499   -0.4650    2.2215 H   0  0  0  0  0  0  0  0  0  0  0  0
   -2.7632    3.1055    1.5375 H   0  0  0  0  0  0  0  0  0  0  0  0
   -3.1994    1.7191    2.5244 H   0  0  0  0  0  0  0  0  0  0  0  0
   -1.9087    1.3244   -0.6801 H   0  0  0  0  0  0  0  0  0  0  0  0
    3.8038   -0.7719   -2.2093 H   0  0  0  0  0  0  0  0  0  0  0  0
    4.2708    1.3919   -0.1215 H   0  0  0  0  0  0  0  0  0  0  0  0
    4.6266    1.3893   -1.8382 H   0  0  0  0  0  0  0  0  0  0  0  0
    6.7049    1.1011   -0.5420 H   0  0  0  0  0  0  0  0  0  0  0  0
    6.3762   -0.3480   -1.4785 H   0  0  0  0  0  0  0  0  0  0  0  0
    6.3512    0.0444    1.4897 H   0  0  0  0  0  0  0  0  0  0  0  0
    6.8468   -1.3406    0.5379 H   0  0  0  0  0  0  0  0  0  0  0  0
    4.1272   -0.5951    1.5989 H   0  0  0  0  0  0  0  0  0  0  0  0
    4.9220   -2.1589    1.5836 H   0  0  0  0  0  0  0  0  0  0  0  0
    3.0289   -2.1792    0.0004 H   0  0  0  0  0  0  0  0  0  0  0  0
    4.5489   -2.3583   -0.8500 H   0  0  0  0  0  0  0  0  0  0  0  0
  1  2  1  0
  2  3  2  0
  3  4  1  0
  4  5  2  0
  5  6  1  0
  6  7  2  0
  7  8  1  0
  8  9  1  0
  9 10  1  0
 10 11  2  0
 10 12  1  0
 12 13  1  0
 13 14  2  0
 14 15  1  0
 15 16  2  0
 16 17  1  0
 17 18  1  0
 18 19  1  0
 19 20  1  0
 20 21  1  0
 21 22  1  0
 16 23  1  0
  7  2  1  0
 23 13  1  0
 22 17  1  0
  1 24  1  0
  1 25  1  0
  1 26  1  0
  3 27  1  0
  4 28  1  0
  5 29  1  0
  6 30  1  0
  9 31  1  0
  9 32  1  0
 12 33  1  0
 17 34  1  0
 18 35  1  0
 18 36  1  0
 19 37  1  0
 19 38  1  0
 20 39  1  0
 20 40  1  0
 21 41  1  0
 21 42  1  0
 22 43  1  0
 22 44  1  0
M  END
$$$$
