
     RDKit          3D

 43 45  0  0  0  0  0  0  0  0999 V2000
    3.8645    0.4461    2.0199 C   0  0  0  0  0  0  0  0  0  0  0  0
    4.0495   -0.0593    0.5912 C   0  0  0  0  0  0  0  0  0  0  0  0
    5.5169   -0.4009    0.3362 C   0  0  0  0  0  0  0  0  0  0  0  0
    3.0531   -1.5755    0.3074 S   0  0  0  0  0  0  0  0  0  0  0  0
    1.4016   -0.9073    0.1481 C   0  0  0  0  0  0  0  0  0  0  0  0
    0.3364   -1.7812    0.1821 C   0  0  0  0  0  0  0  0  0  0  0  0
   -0.9299   -1.2505    0.0419 C   0  0  0  0  0  0  0  0  0  0  0  0
   -2.0577   -2.0636    0.0864 N   0  0  0  0  0  0  0  0  0  0  0  0
   -3.3610   -1.3774    0.0782 C   0  0  0  0  0  0  0  0  0  0  0  0
   -4.4839   -2.4178    0.2111 C   0  0  0  0  0  0  0  0  0  0  0  0
   -4.5115   -3.3855   -0.8506 O   0  0  0  0  0  0  0  0  0  0  0  0
   -3.2521   -3.5295   -1.5207 C   0  0  0  0  0  0  0  0  0  0  0  0
   -2.0352   -3.3724   -0.5923 C   0  0  0  0  0  0  0  0  0  0  0  0
   -1.0956    0.0757   -0.0917 N   0  0  0  0  0  0  0  0  0  0  0  0
   -0.0033    0.8620   -0.1235 C   0  0  0  0  0  0  0  0  0  0  0  0
   -0.2054    2.3173   -0.2844 C   0  0  0  0  0  0  0  0  0  0  0  0
   -1.4945    2.8728   -0.4040 C   0  0  0  0  0  0  0  0  0  0  0  0
   -1.6884    4.2499   -0.5557 C   0  0  0  0  0  0  0  0  0  0  0  0
   -0.5935    5.1076   -0.5915 C   0  0  0  0  0  0  0  0  0  0  0  0
    0.6927    4.5900   -0.4760 C   0  0  0  0  0  0  0  0  0  0  0  0
    0.8822    3.2123   -0.3244 C   0  0  0  0  0  0  0  0  0  0  0  0
    1.2556    0.4127   -0.0176 N   0  0  0  0  0  0  0  0  0  0  0  0
    4.1716   -0.3030    2.7586 H   0  0  0  0  0  0  0  0  0  0  0  0
    2.8256    0.7222    2.2263 H   0  0  0  0  0  0  0  0  0  0  0  0
    4.4745    1.3409    2.1872 H   0  0  0  0  0  0  0  0  0  0  0  0
    3.7574    0.7167   -0.1241 H   0  0  0  0  0  0  0  0  0  0  0  0
    5.8832   -1.1745    1.0208 H   0  0  0  0  0  0  0  0  0  0  0  0
    5.6729   -0.7475   -0.6916 H   0  0  0  0  0  0  0  0  0  0  0  0
    6.1441    0.4866    0.4778 H   0  0  0  0  0  0  0  0  0  0  0  0
    0.4924   -2.8398    0.3397 H   0  0  0  0  0  0  0  0  0  0  0  0
   -3.4297   -0.6752    0.9175 H   0  0  0  0  0  0  0  0  0  0  0  0
   -3.4894   -0.8217   -0.8595 H   0  0  0  0  0  0  0  0  0  0  0  0
   -5.4594   -1.9216    0.2281 H   0  0  0  0  0  0  0  0  0  0  0  0
   -4.3799   -2.9696    1.1527 H   0  0  0  0  0  0  0  0  0  0  0  0
   -3.2408   -4.5197   -1.9875 H   0  0  0  0  0  0  0  0  0  0  0  0
   -3.2147   -2.7897   -2.3293 H   0  0  0  0  0  0  0  0  0  0  0  0
   -2.0627   -4.1502    0.1795 H   0  0  0  0  0  0  0  0  0  0  0  0
   -1.1301   -3.5199   -1.1923 H   0  0  0  0  0  0  0  0  0  0  0  0
   -2.3694    2.2249   -0.3791 H   0  0  0  0  0  0  0  0  0  0  0  0
   -2.6958    4.6480   -0.6454 H   0  0  0  0  0  0  0  0  0  0  0  0
   -0.7424    6.1776   -0.7093 H   0  0  0  0  0  0  0  0  0  0  0  0
    1.5522    5.2548   -0.5034 H   0  0  0  0  0  0  0  0  0  0  0  0
    1.9000    2.8355   -0.2368 H   0  0  0  0  0  0  0  0  0  0  0  0
  1  2  1  0
  2  3  1  0
  2  4  1  0
  4  5  1  0
  5  6  2  0
  6  7  1  0
  7  8  1  0
  8  9  1  0
  9 10  1  0
 10 11  1  0
 11 12  1  0
 12 13  1  0
  7 14  2  0
 14 15  1  0
 15 16  1  0
 16 17  2  0
 17 18  1  0
 18 19  2  0
 19 20  1  0
 20 21  2  0
 15 22  2  0
 22  5  1  0
 13  8  1  0
 21 16  1  0
  1 23  1  0
  1 24  1  0
  1 25  1  0
  2 26  1  0
  3 27  1  0
  3 28  1  0
  3 29  1  0
  6 30  1  0
  9 31  1  0
  9 32  1  0
 10 33  1  0
 10 34  1  0
 12 35  1  0
 12 36  1  0
 13 37  1  0
 13 38  1  0
 17 39  1  0
 18 40  1  0
 19 41  1  0
 20 42  1  0
 21 43  1  0
M  END
$$$$
