
     RDKit          3D

 46 48  0  0  0  0  0  0  0  0999 V2000
   -1.1658   -0.6807    0.9868 O   0  0  0  0  0  0  0  0  0  0  0  0
   -0.6717   -0.0982    0.0291 C   0  0  0  0  0  0  0  0  0  0  0  0
    0.8317    0.0264   -0.1558 C   0  0  0  0  0  0  0  0  0  0  0  0
    1.5925   -0.4844    1.0703 C   0  0  0  0  0  0  0  0  0  0  0  0
    3.0542   -0.2762    0.9704 N   0  0  0  0  0  0  0  0  0  0  0  0
    3.7010   -0.5367    2.2640 C   0  0  0  0  0  0  0  0  0  0  0  0
    5.0621    0.1677    2.4399 C   0  0  0  0  0  0  0  0  0  0  0  0
    5.5867    0.9199    1.2157 C   0  0  0  0  0  0  0  0  0  0  0  0
    5.9713    0.0245    0.0381 C   0  0  0  0  0  0  0  0  0  0  0  0
    5.1605   -1.2598   -0.1040 C   0  0  0  0  0  0  0  0  0  0  0  0
    3.6398   -1.0656   -0.1282 C   0  0  0  0  0  0  0  0  0  0  0  0
   -1.3586    0.4988   -1.0176 N   0  0  0  0  0  0  0  0  0  0  0  0
   -2.7554    0.5750   -1.2002 C   0  0  0  0  0  0  0  0  0  0  0  0
   -3.2098    1.2433   -2.3472 C   0  0  0  0  0  0  0  0  0  0  0  0
   -4.5773    1.3732   -2.6055 C   0  0  0  0  0  0  0  0  0  0  0  0
   -5.5022    0.8375   -1.7164 C   0  0  0  0  0  0  0  0  0  0  0  0
   -5.0594    0.1466   -0.5856 C   0  0  0  0  0  0  0  0  0  0  0  0
   -3.6923    0.0285   -0.3202 C   0  0  0  0  0  0  0  0  0  0  0  0
   -5.9145   -0.4364    0.3165 O   0  0  0  0  0  0  0  0  0  0  0  0
   -7.2363   -0.5582   -0.2191 C   0  0  0  0  0  0  0  0  0  0  0  0
   -7.6624    0.7365   -0.8906 C   0  0  0  0  0  0  0  0  0  0  0  0
   -6.8267    1.0201   -2.0190 O   0  0  0  0  0  0  0  0  0  0  0  0
    1.0991   -0.5479   -1.0499 H   0  0  0  0  0  0  0  0  0  0  0  0
    1.0760    1.0811   -0.3316 H   0  0  0  0  0  0  0  0  0  0  0  0
    1.2133    0.0677    1.9407 H   0  0  0  0  0  0  0  0  0  0  0  0
    1.3653   -1.5437    1.2495 H   0  0  0  0  0  0  0  0  0  0  0  0
    3.8019   -1.6152    2.4439 H   0  0  0  0  0  0  0  0  0  0  0  0
    3.0651   -0.1693    3.0809 H   0  0  0  0  0  0  0  0  0  0  0  0
    5.8096   -0.5651    2.7678 H   0  0  0  0  0  0  0  0  0  0  0  0
    4.9678    0.8933    3.2584 H   0  0  0  0  0  0  0  0  0  0  0  0
    6.4682    1.5051    1.5066 H   0  0  0  0  0  0  0  0  0  0  0  0
    4.8428    1.6579    0.8900 H   0  0  0  0  0  0  0  0  0  0  0  0
    5.9042    0.6095   -0.8874 H   0  0  0  0  0  0  0  0  0  0  0  0
    7.0272   -0.2561    0.1419 H   0  0  0  0  0  0  0  0  0  0  0  0
    5.4609   -1.7580   -1.0346 H   0  0  0  0  0  0  0  0  0  0  0  0
    5.4340   -1.9566    0.6982 H   0  0  0  0  0  0  0  0  0  0  0  0
    3.1903   -2.0672   -0.1543 H   0  0  0  0  0  0  0  0  0  0  0  0
    3.3862   -0.5773   -1.0767 H   0  0  0  0  0  0  0  0  0  0  0  0
   -0.7943    0.9410   -1.7326 H   0  0  0  0  0  0  0  0  0  0  0  0
   -2.5080    1.6773   -3.0548 H   0  0  0  0  0  0  0  0  0  0  0  0
   -4.9185    1.9003   -3.4920 H   0  0  0  0  0  0  0  0  0  0  0  0
   -3.3938   -0.5046    0.5763 H   0  0  0  0  0  0  0  0  0  0  0  0
   -7.2521   -1.4001   -0.9224 H   0  0  0  0  0  0  0  0  0  0  0  0
   -7.9102   -0.7940    0.6105 H   0  0  0  0  0  0  0  0  0  0  0  0
   -7.6109    1.5849   -0.1969 H   0  0  0  0  0  0  0  0  0  0  0  0
   -8.6918    0.6542   -1.2531 H   0  0  0  0  0  0  0  0  0  0  0  0
  1  2  2  0
  2  3  1  0
  3  4  1  0
  4  5  1  0
  5  6  1  0
  6  7  1  0
  7  8  1  0
  8  9  1  0
  9 10  1  0
 10 11  1  0
  2 12  1  0
 12 13  1  0
 13 14  2  0
 14 15  1  0
 15 16  2  0
 16 17  1  0
 17 18  2  0
 17 19  1  0
 19 20  1  0
 20 21  1  0
 21 22  1  0
 11  5  1  0
 18 13  1  0
 22 16  1  0
  3 23  1  0
  3 24  1  0
  4 25  1  0
  4 26  1  0
  6 27  1  0
  6 28  1  0
  7 29  1  0
  7 30  1  0
  8 31  1  0
  8 32  1  0
  9 33  1  0
  9 34  1  0
 10 35  1  0
 10 36  1  0
 11 37  1  0
 11 38  1  0
 12 39  1  0
 14 40  1  0
 15 41  1  0
 18 42  1  0
 20 43  1  0
 20 44  1  0
 21 45  1  0
 21 46  1  0
M  END
$$$$
