
     RDKit          3D

 30 32  0  0  0  0  0  0  0  0999 V2000
    1.2418   -0.6492   -0.7613 O   0  0  0  0  0  0  0  0  0  0  0  0
    1.7473    0.3929   -0.3481 C   0  0  0  0  0  0  0  0  0  0  0  0
    0.9691    1.7058   -0.2945 C   0  0  0  0  0  0  0  0  0  0  0  0
   -0.4656    1.4575   -0.1781 N   0  0  0  0  0  0  0  0  0  0  0  0
   -1.2910    1.0222   -1.2401 C   0  0  0  0  0  0  0  0  0  0  0  0
   -1.0332    1.1356   -2.4231 O   0  0  0  0  0  0  0  0  0  0  0  0
   -2.5197    0.4239   -0.6854 C   0  0  0  0  0  0  0  0  0  0  0  0
   -3.5857   -0.0848   -1.4101 C   0  0  0  0  0  0  0  0  0  0  0  0
   -4.6690   -0.6156   -0.7007 C   0  0  0  0  0  0  0  0  0  0  0  0
   -4.6717   -0.6315    0.7074 C   0  0  0  0  0  0  0  0  0  0  0  0
   -3.5918   -0.1187    1.4295 C   0  0  0  0  0  0  0  0  0  0  0  0
   -2.5350    0.3983    0.7032 C   0  0  0  0  0  0  0  0  0  0  0  0
   -1.0781    1.0939    1.3445 S   0  0  0  0  0  6  0  0  0  0  0  0
   -1.4032    2.3325    2.0112 O   0  0  0  0  0  0  0  0  0  0  0  0
   -0.2826    0.0572    1.9552 O   0  0  0  0  0  0  0  0  0  0  0  0
    3.0485    0.5277    0.0869 N   0  0  0  0  0  0  0  0  0  0  0  0
    3.9714   -0.4925    0.1514 C   0  0  0  0  0  0  0  0  0  0  0  0
    3.8348   -1.8568   -0.1842 C   0  0  0  0  0  0  0  0  0  0  0  0
    5.0650   -2.3982    0.0790 C   0  0  0  0  0  0  0  0  0  0  0  0
    5.8926   -1.4309    0.5408 O   0  0  0  0  0  0  0  0  0  0  0  0
    5.2086   -0.2293    0.5883 N   0  0  0  0  0  0  0  0  0  0  0  0
    1.1780    2.2677   -1.2111 H   0  0  0  0  0  0  0  0  0  0  0  0
    1.3097    2.3183    0.5478 H   0  0  0  0  0  0  0  0  0  0  0  0
   -3.5791   -0.0739   -2.4966 H   0  0  0  0  0  0  0  0  0  0  0  0
   -5.5204   -1.0236   -1.2430 H   0  0  0  0  0  0  0  0  0  0  0  0
   -5.5259   -1.0511    1.2366 H   0  0  0  0  0  0  0  0  0  0  0  0
   -3.5832   -0.1282    2.5150 H   0  0  0  0  0  0  0  0  0  0  0  0
    3.4082    1.4151    0.4112 H   0  0  0  0  0  0  0  0  0  0  0  0
    2.9676   -2.3779   -0.5605 H   0  0  0  0  0  0  0  0  0  0  0  0
    5.4924   -3.3865    0.0001 H   0  0  0  0  0  0  0  0  0  0  0  0
  1  2  2  0
  2  3  1  0
  3  4  1  0
  4  5  1  0
  5  6  2  0
  5  7  1  0
  7  8  2  0
  8  9  1  0
  9 10  2  0
 10 11  1  0
 11 12  2  0
 12 13  1  0
 13 14  2  0
 13 15  2  0
  2 16  1  0
 16 17  1  0
 17 18  1  0
 18 19  2  0
 19 20  1  0
 20 21  1  0
 13  4  1  0
 21 17  2  0
 12  7  1  0
  3 22  1  0
  3 23  1  0
  8 24  1  0
  9 25  1  0
 10 26  1  0
 11 27  1  0
 16 28  1  0
 18 29  1  0
 19 30  1  0
M  END
$$$$
