
     RDKit          3D

 50 53  0  0  0  0  0  0  0  0999 V2000
   -8.1302   -0.0686    2.1174 C   0  0  0  0  0  0  0  0  0  0  0  0
   -6.8237    0.2896    1.4728 C   0  0  0  0  0  0  0  0  0  0  0  0
   -6.5346    1.6146    1.1391 C   0  0  0  0  0  0  0  0  0  0  0  0
   -5.3030    1.9480    0.5666 C   0  0  0  0  0  0  0  0  0  0  0  0
   -4.3340    0.9652    0.3264 C   0  0  0  0  0  0  0  0  0  0  0  0
   -3.1181    1.3908   -0.2556 N   0  0  0  0  0  0  0  0  0  0  0  0
   -2.0300    0.6014   -0.5937 C   0  0  0  0  0  0  0  0  0  0  0  0
   -1.9440   -0.6177   -0.4637 O   0  0  0  0  0  0  0  0  0  0  0  0
   -0.8715    1.3994   -1.2103 C   0  0  0  0  0  0  0  0  0  0  0  0
    0.4120    0.6970   -1.0690 N   0  0  0  0  0  4  0  0  0  0  0  0
    1.4743    1.0454   -0.2358 C   0  0  0  0  0  0  0  0  0  0  0  0
    2.4788    0.0921   -0.3581 C   0  0  0  0  0  0  0  0  0  0  0  0
    3.8468    0.0748    0.4140 C   0  0  0  0  0  0  0  0  0  0  0  0
    4.1762    1.1288    1.2739 C   0  0  0  0  0  0  0  0  0  0  0  0
    5.3928    1.1221    1.9629 C   0  0  0  0  0  0  0  0  0  0  0  0
    6.2969    0.0691    1.7976 C   0  0  0  0  0  0  0  0  0  0  0  0
    7.5871    0.0478    2.5646 C   0  0  0  0  0  0  0  0  0  0  0  0
    5.9539   -0.9913    0.9537 C   0  0  0  0  0  0  0  0  0  0  0  0
    4.7381   -0.9875    0.2620 C   0  0  0  0  0  0  0  0  0  0  0  0
    1.9668   -0.7885   -1.2932 N   0  0  0  0  0  0  0  0  0  0  0  0
    0.7352   -0.4483   -1.6652 C   0  0  0  0  0  0  0  0  0  0  0  0
    0.1420   -1.3922   -2.6429 C   0  0  0  0  0  0  0  0  0  0  0  0
    1.3742   -2.2029   -3.0901 C   0  0  0  0  0  0  0  0  0  0  0  0
    2.4122   -2.0083   -1.9515 C   0  0  0  0  0  0  0  0  0  0  0  0
   -4.6180   -0.3551    0.6755 C   0  0  0  0  0  0  0  0  0  0  0  0
   -5.8512   -0.6890    1.2485 C   0  0  0  0  0  0  0  0  0  0  0  0
   -8.0401   -0.0050    3.2061 H   0  0  0  0  0  0  0  0  0  0  0  0
   -8.9265    0.6068    1.7882 H   0  0  0  0  0  0  0  0  0  0  0  0
   -8.4337   -1.0849    1.8455 H   0  0  0  0  0  0  0  0  0  0  0  0
   -7.2688    2.3970    1.3214 H   0  0  0  0  0  0  0  0  0  0  0  0
   -5.1237    2.9904    0.3170 H   0  0  0  0  0  0  0  0  0  0  0  0
   -3.0688    2.3861   -0.4410 H   0  0  0  0  0  0  0  0  0  0  0  0
   -0.7910    2.3787   -0.7272 H   0  0  0  0  0  0  0  0  0  0  0  0
   -1.0701    1.5438   -2.2770 H   0  0  0  0  0  0  0  0  0  0  0  0
    1.3760    1.9360    0.3611 H   0  0  0  0  0  0  0  0  0  0  0  0
    3.5138    1.9741    1.4326 H   0  0  0  0  0  0  0  0  0  0  0  0
    5.6341    1.9465    2.6324 H   0  0  0  0  0  0  0  0  0  0  0  0
    7.9790    1.0621    2.6937 H   0  0  0  0  0  0  0  0  0  0  0  0
    8.3501   -0.5298    2.0325 H   0  0  0  0  0  0  0  0  0  0  0  0
    7.4289   -0.4005    3.5503 H   0  0  0  0  0  0  0  0  0  0  0  0
    6.6350   -1.8324    0.8323 H   0  0  0  0  0  0  0  0  0  0  0  0
    4.5188   -1.8384   -0.3692 H   0  0  0  0  0  0  0  0  0  0  0  0
   -0.3251   -0.8263   -3.4493 H   0  0  0  0  0  0  0  0  0  0  0  0
   -0.5758   -2.0102   -2.1018 H   0  0  0  0  0  0  0  0  0  0  0  0
    1.7738   -1.7668   -4.0133 H   0  0  0  0  0  0  0  0  0  0  0  0
    1.1476   -3.2546   -3.2840 H   0  0  0  0  0  0  0  0  0  0  0  0
    2.3706   -2.8321   -1.2331 H   0  0  0  0  0  0  0  0  0  0  0  0
    3.4199   -1.8915   -2.3563 H   0  0  0  0  0  0  0  0  0  0  0  0
   -3.9071   -1.1602    0.5243 H   0  0  0  0  0  0  0  0  0  0  0  0
   -6.0458   -1.7254    1.5188 H   0  0  0  0  0  0  0  0  0  0  0  0
  1  2  1  0
  2  3  2  0
  3  4  1  0
  4  5  2  0
  5  6  1  0
  6  7  1  0
  7  8  2  0
  7  9  1  0
  9 10  1  0
 10 11  1  0
 11 12  2  0
 12 13  1  0
 13 14  2  0
 14 15  1  0
 15 16  2  0
 16 17  1  0
 16 18  1  0
 18 19  2  0
 12 20  1  0
 20 21  1  0
 21 22  1  0
 22 23  1  0
 23 24  1  0
  5 25  1  0
 25 26  2  0
 26  2  1  0
 21 10  2  0
 19 13  1  0
 24 20  1  0
  1 27  1  0
  1 28  1  0
  1 29  1  0
  3 30  1  0
  4 31  1  0
  6 32  1  0
  9 33  1  0
  9 34  1  0
 11 35  1  0
 14 36  1  0
 15 37  1  0
 17 38  1  0
 17 39  1  0
 17 40  1  0
 18 41  1  0
 19 42  1  0
 22 43  1  0
 22 44  1  0
 23 45  1  0
 23 46  1  0
 24 47  1  0
 24 48  1  0
 25 49  1  0
 26 50  1  0
M  CHG  1  10   1
M  END
$$$$
