
     RDKit          3D

 48 50  0  0  0  0  0  0  0  0999 V2000
    4.0267   -3.4505   -2.6147 C   0  0  0  0  0  0  0  0  0  0  0  0
    3.5948   -2.4248   -1.6079 C   0  0  0  0  0  0  0  0  0  0  0  0
    4.2687   -2.2995   -0.3907 C   0  0  0  0  0  0  0  0  0  0  0  0
    3.8818   -1.3647    0.5919 C   0  0  0  0  0  0  0  0  0  0  0  0
    4.6537   -1.3007    1.8799 C   0  0  0  0  0  0  0  0  0  0  0  0
    2.7449   -0.5756    0.3071 C   0  0  0  0  0  0  0  0  0  0  0  0
    1.9763    0.6401    1.2608 S   0  0  0  0  0  0  0  0  0  0  0  0
    0.7738    0.8519    0.0642 C   0  0  0  0  0  0  0  0  0  0  0  0
   -0.2247    1.8169    0.1986 N   0  0  0  0  0  0  0  0  0  0  0  0
   -0.8155    2.4043   -1.0073 C   0  0  0  0  0  0  0  0  0  0  0  0
   -2.2679    1.9686   -1.2367 C   0  0  0  0  0  0  0  0  0  0  0  0
   -2.3774    0.4907   -1.6419 C   0  0  0  0  0  0  0  0  0  0  0  0
   -3.7327   -0.0140   -1.9115 N   0  0  0  0  0  0  0  0  0  0  0  0
   -4.5887   -0.0020   -0.7290 C   0  0  0  0  0  0  0  0  0  0  0  0
   -4.3794    0.6499   -3.0382 C   0  0  0  0  0  0  0  0  0  0  0  0
   -0.6158    2.3647    1.4308 C   0  0  0  0  0  0  0  0  0  0  0  0
   -0.9543    3.5493    1.5041 O   0  0  0  0  0  0  0  0  0  0  0  0
   -0.7374    1.5053    2.6063 C   0  0  0  0  0  0  0  0  0  0  0  0
   -0.4777    1.8522    3.9220 C   0  0  0  0  0  0  0  0  0  0  0  0
   -0.7522    0.7880    4.8320 C   0  0  0  0  0  0  0  0  0  0  0  0
   -1.2528   -0.3058    4.1741 C   0  0  0  0  0  0  0  0  0  0  0  0
   -1.7488   -1.9286    5.0525 Br  0  0  0  0  0  0  0  0  0  0  0  0
   -1.4122   -0.0722    2.5052 S   0  0  0  0  0  0  0  0  0  0  0  0
    0.9498    0.1508   -1.0308 N   0  0  0  0  0  0  0  0  0  0  0  0
    2.0405   -0.6907   -0.8933 C   0  0  0  0  0  0  0  0  0  0  0  0
    2.4733   -1.6243   -1.8557 C   0  0  0  0  0  0  0  0  0  0  0  0
    3.5324   -4.4054   -2.4113 H   0  0  0  0  0  0  0  0  0  0  0  0
    5.1113   -3.5979   -2.5807 H   0  0  0  0  0  0  0  0  0  0  0  0
    3.7748   -3.1311   -3.6315 H   0  0  0  0  0  0  0  0  0  0  0  0
    5.1268   -2.9431   -0.1933 H   0  0  0  0  0  0  0  0  0  0  0  0
    5.7283   -1.3856    1.6865 H   0  0  0  0  0  0  0  0  0  0  0  0
    4.4946   -0.3550    2.4054 H   0  0  0  0  0  0  0  0  0  0  0  0
    4.3469   -2.1205    2.5369 H   0  0  0  0  0  0  0  0  0  0  0  0
   -0.2034    2.1749   -1.8876 H   0  0  0  0  0  0  0  0  0  0  0  0
   -0.7937    3.4960   -0.9024 H   0  0  0  0  0  0  0  0  0  0  0  0
   -2.6802    2.5991   -2.0326 H   0  0  0  0  0  0  0  0  0  0  0  0
   -2.8563    2.1633   -0.3333 H   0  0  0  0  0  0  0  0  0  0  0  0
   -1.7623    0.3183   -2.5347 H   0  0  0  0  0  0  0  0  0  0  0  0
   -1.9338   -0.1395   -0.8621 H   0  0  0  0  0  0  0  0  0  0  0  0
   -5.5266   -0.5305   -0.9341 H   0  0  0  0  0  0  0  0  0  0  0  0
   -4.8392    1.0118   -0.3992 H   0  0  0  0  0  0  0  0  0  0  0  0
   -4.1100   -0.5296    0.1032 H   0  0  0  0  0  0  0  0  0  0  0  0
   -5.3062    0.1290   -3.3043 H   0  0  0  0  0  0  0  0  0  0  0  0
   -3.7392    0.6200   -3.9268 H   0  0  0  0  0  0  0  0  0  0  0  0
   -4.6306    1.6945   -2.8259 H   0  0  0  0  0  0  0  0  0  0  0  0
   -0.0976    2.8260    4.2107 H   0  0  0  0  0  0  0  0  0  0  0  0
   -0.5998    0.8393    5.9031 H   0  0  0  0  0  0  0  0  0  0  0  0
    1.9170   -1.7135   -2.7844 H   0  0  0  0  0  0  0  0  0  0  0  0
  1  2  1  0
  2  3  2  0
  3  4  1  0
  4  5  1  0
  4  6  2  0
  6  7  1  0
  7  8  1  0
  8  9  1  0
  9 10  1  0
 10 11  1  0
 11 12  1  0
 12 13  1  0
 13 14  1  0
 13 15  1  0
  9 16  1  0
 16 17  2  0
 16 18  1  0
 18 19  2  0
 19 20  1  0
 20 21  2  0
 21 22  1  0
 21 23  1  0
  8 24  2  0
 24 25  1  0
 25 26  2  0
 26  2  1  0
 25  6  1  0
 23 18  1  0
  1 27  1  0
  1 28  1  0
  1 29  1  0
  3 30  1  0
  5 31  1  0
  5 32  1  0
  5 33  1  0
 10 34  1  0
 10 35  1  0
 11 36  1  0
 11 37  1  0
 12 38  1  0
 12 39  1  0
 14 40  1  0
 14 41  1  0
 14 42  1  0
 15 43  1  0
 15 44  1  0
 15 45  1  0
 19 46  1  0
 20 47  1  0
 26 48  1  0
M  END
$$$$
