
     RDKit          3D

 39 40  0  0  0  0  0  0  0  0999 V2000
   -4.3681   -1.5946    1.9782 C   0  0  0  0  0  0  0  0  0  0  0  0
   -3.0765   -0.8954    2.3728 C   0  0  0  0  0  0  0  0  0  0  0  0
   -1.9991   -0.9380    1.2867 C   0  0  0  0  0  0  0  0  0  0  0  0
   -2.3643   -0.1312    0.0377 C   0  0  0  0  0  0  0  0  0  0  0  0
   -1.2946   -0.1972   -0.9635 N   0  0  0  0  0  0  0  0  0  0  0  0
   -1.5582    0.0553   -2.2786 C   0  0  0  0  0  0  0  0  0  0  0  0
   -2.5978   -0.5938   -2.8343 N   0  0  0  0  0  0  0  0  0  0  0  0
   -0.7811    0.8538   -2.9443 N   0  0  0  0  0  0  0  0  0  0  0  0
    0.1679    1.3624   -1.9175 C   0  0  0  0  0  0  0  0  0  0  0  0
   -0.0375    0.5036   -0.6514 C   0  0  0  0  0  0  0  0  0  0  0  0
    1.0888   -0.5260   -0.4519 C   0  0  0  0  0  0  0  0  0  0  0  0
    2.3624    0.0873    0.0828 C   0  0  0  0  0  0  0  0  0  0  0  0
    2.4511    0.4780    1.4269 C   0  0  0  0  0  0  0  0  0  0  0  0
    3.6225    1.0551    1.9187 C   0  0  0  0  0  0  0  0  0  0  0  0
    4.7071    1.2414    1.0712 C   0  0  0  0  0  0  0  0  0  0  0  0
    5.8311    1.8096    1.5934 O   0  0  0  0  0  0  0  0  0  0  0  0
    4.6420    0.8576   -0.2638 C   0  0  0  0  0  0  0  0  0  0  0  0
    3.4695    0.2796   -0.7562 C   0  0  0  0  0  0  0  0  0  0  0  0
   -5.0552   -1.6217    2.8302 H   0  0  0  0  0  0  0  0  0  0  0  0
   -4.1773   -2.6258    1.6646 H   0  0  0  0  0  0  0  0  0  0  0  0
   -4.8755   -1.0721    1.1623 H   0  0  0  0  0  0  0  0  0  0  0  0
   -3.2917    0.1445    2.6449 H   0  0  0  0  0  0  0  0  0  0  0  0
   -2.6803   -1.3824    3.2720 H   0  0  0  0  0  0  0  0  0  0  0  0
   -1.7937   -1.9793    1.0086 H   0  0  0  0  0  0  0  0  0  0  0  0
   -1.0726   -0.5451    1.7216 H   0  0  0  0  0  0  0  0  0  0  0  0
   -3.2911   -0.5347   -0.3829 H   0  0  0  0  0  0  0  0  0  0  0  0
   -2.5621    0.9150    0.3015 H   0  0  0  0  0  0  0  0  0  0  0  0
   -2.5661   -0.5110   -3.8447 H   0  0  0  0  0  0  0  0  0  0  0  0
   -2.6476   -1.5604   -2.5410 H   0  0  0  0  0  0  0  0  0  0  0  0
    1.1893    1.3246   -2.3057 H   0  0  0  0  0  0  0  0  0  0  0  0
   -0.0767    2.4109   -1.7112 H   0  0  0  0  0  0  0  0  0  0  0  0
   -0.1368    1.1552    0.2254 H   0  0  0  0  0  0  0  0  0  0  0  0
    1.2915   -1.0589   -1.3905 H   0  0  0  0  0  0  0  0  0  0  0  0
    0.7693   -1.3045    0.2532 H   0  0  0  0  0  0  0  0  0  0  0  0
    1.6110    0.3318    2.1020 H   0  0  0  0  0  0  0  0  0  0  0  0
    3.6898    1.3565    2.9602 H   0  0  0  0  0  0  0  0  0  0  0  0
    6.5001    1.8709    0.8921 H   0  0  0  0  0  0  0  0  0  0  0  0
    5.4852    0.9978   -0.9325 H   0  0  0  0  0  0  0  0  0  0  0  0
    3.4253   -0.0191   -1.8019 H   0  0  0  0  0  0  0  0  0  0  0  0
  1  2  1  0
  2  3  1  0
  3  4  1  0
  4  5  1  0
  5  6  1  0
  6  7  1  0
  6  8  2  0
  8  9  1  0
  9 10  1  0
 10 11  1  0
 11 12  1  0
 12 13  2  0
 13 14  1  0
 14 15  2  0
 15 16  1  0
 15 17  1  0
 17 18  2  0
 10  5  1  0
 18 12  1  0
  1 19  1  0
  1 20  1  0
  1 21  1  0
  2 22  1  0
  2 23  1  0
  3 24  1  0
  3 25  1  0
  4 26  1  0
  4 27  1  0
  7 28  1  0
  7 29  1  0
  9 30  1  0
  9 31  1  0
 10 32  1  0
 11 33  1  0
 11 34  1  0
 13 35  1  0
 14 36  1  0
 16 37  1  0
 17 38  1  0
 18 39  1  0
M  END
$$$$
