
     RDKit          3D

 44 47  0  0  0  0  0  0  0  0999 V2000
    2.3230    0.2168    2.1532 C   0  0  0  0  0  0  0  0  0  0  0  0
    2.8557    0.3025    0.7144 C   0  0  0  0  0  0  0  0  0  0  0  0
    4.2079   -0.4358    0.6711 C   0  0  0  0  0  0  0  0  0  0  0  0
    1.8955   -0.3756   -0.2851 C   0  0  0  0  0  0  0  0  0  0  0  0
    0.9230    0.6140   -0.9462 C   0  0  0  0  0  0  0  0  0  0  0  0
   -0.1854    1.1928   -0.0597 C   0  0  0  0  0  0  0  0  0  0  0  0
   -1.1130    0.0841    0.4460 C   0  0  0  0  0  0  0  0  0  0  0  0
   -2.3197    0.6752    1.1540 C   0  0  0  0  0  0  0  0  0  0  0  0
   -2.6054    0.6230    2.5068 C   0  0  0  0  0  0  0  0  0  0  0  0
   -3.8248    1.2823    2.8348 C   0  0  0  0  0  0  0  0  0  0  0  0
   -4.4333    1.8216    1.7251 C   0  0  0  0  0  0  0  0  0  0  0  0
   -3.5381    1.5358    0.2990 S   0  0  0  0  0  0  0  0  0  0  0  0
   -1.4402   -0.8875   -0.6708 C   0  0  0  0  0  0  0  0  0  0  0  0
   -2.4430   -1.8625   -0.5200 C   0  0  0  0  0  0  0  0  0  0  0  0
   -2.7382   -2.7499   -1.5583 C   0  0  0  0  0  0  0  0  0  0  0  0
   -3.9887   -3.9142   -1.3186 Cl  0  0  0  0  0  0  0  0  0  0  0  0
   -2.0255   -2.6805   -2.7563 C   0  0  0  0  0  0  0  0  0  0  0  0
   -2.3146   -3.5430   -3.7777 O   0  0  0  0  0  0  0  0  0  0  0  0
   -1.0096   -1.7397   -2.9099 C   0  0  0  0  0  0  0  0  0  0  0  0
   -0.7060   -0.8651   -1.8630 C   0  0  0  0  0  0  0  0  0  0  0  0
    0.3333   -0.0063   -2.1003 O   0  0  0  0  0  0  0  0  0  0  0  0
    1.7185    1.6983   -1.4818 N   0  0  0  0  0  0  0  0  0  0  0  0
    2.6654    2.3287   -0.7526 C   0  0  0  0  0  0  0  0  0  0  0  0
    3.2761    3.8012   -1.2063 S   0  0  0  0  0  0  0  0  0  0  0  0
    3.0897    1.7080    0.3750 N   0  0  0  0  0  0  0  0  0  0  0  0
    2.1411   -0.8224    2.4489 H   0  0  0  0  0  0  0  0  0  0  0  0
    3.0411    0.6442    2.8634 H   0  0  0  0  0  0  0  0  0  0  0  0
    1.3900    0.7700    2.2841 H   0  0  0  0  0  0  0  0  0  0  0  0
    4.9197   -0.0030    1.3839 H   0  0  0  0  0  0  0  0  0  0  0  0
    4.6670   -0.3638   -0.3219 H   0  0  0  0  0  0  0  0  0  0  0  0
    4.0895   -1.4976    0.9146 H   0  0  0  0  0  0  0  0  0  0  0  0
    2.4857   -0.8308   -1.0957 H   0  0  0  0  0  0  0  0  0  0  0  0
    1.3803   -1.2270    0.1746 H   0  0  0  0  0  0  0  0  0  0  0  0
    0.2092    1.7808    0.7759 H   0  0  0  0  0  0  0  0  0  0  0  0
   -0.7616    1.9070   -0.6669 H   0  0  0  0  0  0  0  0  0  0  0  0
   -0.5600   -0.5009    1.1946 H   0  0  0  0  0  0  0  0  0  0  0  0
   -1.9695    0.1310    3.2333 H   0  0  0  0  0  0  0  0  0  0  0  0
   -4.2355    1.3576    3.8343 H   0  0  0  0  0  0  0  0  0  0  0  0
   -5.3629    2.3726    1.6811 H   0  0  0  0  0  0  0  0  0  0  0  0
   -3.0107   -1.9257    0.4064 H   0  0  0  0  0  0  0  0  0  0  0  0
   -1.7625   -3.3294   -4.5474 H   0  0  0  0  0  0  0  0  0  0  0  0
   -0.4337   -1.6815   -3.8288 H   0  0  0  0  0  0  0  0  0  0  0  0
    1.3548    2.1885   -2.2884 H   0  0  0  0  0  0  0  0  0  0  0  0
    3.8152    2.2064    0.8813 H   0  0  0  0  0  0  0  0  0  0  0  0
  1  2  1  0
  2  3  1  0
  2  4  1  0
  4  5  1  0
  5  6  1  0
  6  7  1  0
  7  8  1  0
  8  9  2  0
  9 10  1  0
 10 11  2  0
 11 12  1  0
  7 13  1  0
 13 14  2  0
 14 15  1  0
 15 16  1  0
 15 17  2  0
 17 18  1  0
 17 19  1  0
 19 20  2  0
 20 21  1  0
  5 22  1  0
 22 23  1  0
 23 24  2  0
 23 25  1  0
 25  2  1  0
 21  5  1  0
 12  8  1  0
 20 13  1  0
  1 26  1  0
  1 27  1  0
  1 28  1  0
  3 29  1  0
  3 30  1  0
  3 31  1  0
  4 32  1  0
  4 33  1  0
  6 34  1  0
  6 35  1  0
  7 36  1  0
  9 37  1  0
 10 38  1  0
 11 39  1  0
 14 40  1  0
 18 41  1  0
 19 42  1  0
 22 43  1  0
 25 44  1  0
M  END
$$$$
