
     RDKit          3D

 37 39  0  0  0  0  0  0  0  0999 V2000
    1.5618    1.2551    2.3332 O   0  0  0  0  0  0  0  0  0  0  0  0
    1.8939    0.9610    1.1827 C   0  0  0  0  0  0  0  0  0  0  0  0
    2.9764   -0.0956    0.9817 C   0  0  0  0  0  0  0  0  0  0  0  0
    2.3548   -1.4607    1.0210 C   0  0  0  0  0  0  0  0  0  0  0  0
    1.7247   -2.0810    2.0835 C   0  0  0  0  0  0  0  0  0  0  0  0
    1.2536   -3.3831    1.7514 C   0  0  0  0  0  0  0  0  0  0  0  0
    1.5485   -3.7208    0.4501 C   0  0  0  0  0  0  0  0  0  0  0  0
    2.3938   -2.4756   -0.3593 S   0  0  0  0  0  0  0  0  0  0  0  0
    1.3317    1.5300    0.0411 N   0  0  0  0  0  0  0  0  0  0  0  0
    1.7756    1.2771   -1.3042 C   0  0  0  0  0  0  0  0  0  0  0  0
    0.9451    2.2108   -2.1610 C   0  0  0  0  0  0  0  0  0  0  0  0
   -0.0797    2.7734   -1.2709 N   0  0  0  0  0  0  0  0  0  0  0  0
    0.2169    2.3593   -0.0799 C   0  0  0  0  0  0  0  0  0  0  0  0
   -0.7553    2.8481    1.2587 S   0  0  0  0  0  0  0  0  0  0  0  0
   -1.6380    1.3091    1.6292 C   0  0  0  0  0  0  0  0  0  0  0  0
   -2.2377    0.6061    0.4342 C   0  0  0  0  0  0  0  0  0  0  0  0
   -1.6042   -0.5514   -0.0592 C   0  0  0  0  0  0  0  0  0  0  0  0
   -2.0999   -1.2246   -1.1767 C   0  0  0  0  0  0  0  0  0  0  0  0
   -3.2417   -0.7565   -1.8188 C   0  0  0  0  0  0  0  0  0  0  0  0
   -3.8912    0.3797   -1.3374 C   0  0  0  0  0  0  0  0  0  0  0  0
   -3.3972    1.0566   -0.2169 C   0  0  0  0  0  0  0  0  0  0  0  0
   -4.2832    2.4336    0.3341 Cl  0  0  0  0  0  0  0  0  0  0  0  0
    3.6925    0.0028    1.8077 H   0  0  0  0  0  0  0  0  0  0  0  0
    3.5556    0.0751    0.0719 H   0  0  0  0  0  0  0  0  0  0  0  0
    1.6008   -1.6165    3.0565 H   0  0  0  0  0  0  0  0  0  0  0  0
    0.7284   -4.0400    2.4345 H   0  0  0  0  0  0  0  0  0  0  0  0
    1.3153   -4.6441   -0.0629 H   0  0  0  0  0  0  0  0  0  0  0  0
    2.8458    1.4776   -1.4099 H   0  0  0  0  0  0  0  0  0  0  0  0
    1.5798    0.2319   -1.5592 H   0  0  0  0  0  0  0  0  0  0  0  0
    0.4810    1.6781   -2.9970 H   0  0  0  0  0  0  0  0  0  0  0  0
    1.5581    3.0209   -2.5708 H   0  0  0  0  0  0  0  0  0  0  0  0
   -2.4258    1.5278    2.3589 H   0  0  0  0  0  0  0  0  0  0  0  0
   -0.9534    0.6318    2.1512 H   0  0  0  0  0  0  0  0  0  0  0  0
   -0.7140   -0.9401    0.4303 H   0  0  0  0  0  0  0  0  0  0  0  0
   -1.5949   -2.1152   -1.5427 H   0  0  0  0  0  0  0  0  0  0  0  0
   -3.6311   -1.2765   -2.6903 H   0  0  0  0  0  0  0  0  0  0  0  0
   -4.7869    0.7361   -1.8401 H   0  0  0  0  0  0  0  0  0  0  0  0
  1  2  2  0
  2  3  1  0
  3  4  1  0
  4  5  2  0
  5  6  1  0
  6  7  2  0
  7  8  1  0
  2  9  1  0
  9 10  1  0
 10 11  1  0
 11 12  1  0
 12 13  2  0
 13 14  1  0
 14 15  1  0
 15 16  1  0
 16 17  2  0
 17 18  1  0
 18 19  2  0
 19 20  1  0
 20 21  2  0
 21 22  1  0
  8  4  1  0
 13  9  1  0
 21 16  1  0
  3 23  1  0
  3 24  1  0
  5 25  1  0
  6 26  1  0
  7 27  1  0
 10 28  1  0
 10 29  1  0
 11 30  1  0
 11 31  1  0
 15 32  1  0
 15 33  1  0
 17 34  1  0
 18 35  1  0
 19 36  1  0
 20 37  1  0
M  END
$$$$
