
     RDKit          3D

 72 75  0  0  0  0  0  0  0  0999 V2000
   -3.8241    2.6994   -3.3444 C   0  0  0  0  0  0  0  0  0  0  0  0
   -4.2968    1.9094   -2.1573 C   0  0  0  0  0  0  0  0  0  0  0  0
   -4.9347    2.6043   -1.1209 C   0  0  0  0  0  0  0  0  0  0  0  0
   -5.4185    1.9411    0.0118 C   0  0  0  0  0  0  0  0  0  0  0  0
   -5.2995    0.5505    0.1559 C   0  0  0  0  0  0  0  0  0  0  0  0
   -5.8473   -0.1511    1.4138 C   0  0  0  0  0  0  0  0  0  0  0  0
   -5.5282   -1.6622    1.4716 C   0  0  0  0  0  0  0  0  0  0  0  0
   -7.3831    0.0032    1.4542 C   0  0  0  0  0  0  0  0  0  0  0  0
   -5.2370    0.4891    2.6822 C   0  0  0  0  0  0  0  0  0  0  0  0
   -4.6814   -0.1456   -0.8944 C   0  0  0  0  0  0  0  0  0  0  0  0
   -4.1603    0.5173   -2.0256 C   0  0  0  0  0  0  0  0  0  0  0  0
   -3.3687   -0.5195   -3.2623 S   0  0  0  0  0  6  0  0  0  0  0  0
   -3.2209    0.2294   -4.4947 O   0  0  0  0  0  0  0  0  0  0  0  0
   -4.0631   -1.7916   -3.2645 O   0  0  0  0  0  0  0  0  0  0  0  0
   -1.8139   -0.7595   -2.6139 N   0  0  0  0  0  0  0  0  0  0  0  0
   -0.9173    0.4134   -2.5505 C   0  0  0  0  0  0  0  0  0  0  0  0
    0.4385    0.0241   -1.9725 C   0  0  0  0  0  0  0  0  0  0  0  0
    0.3083   -0.5178   -0.5395 C   0  0  0  0  0  0  0  0  0  0  0  0
    1.4385   -1.5215   -0.3016 C   0  0  0  0  0  0  0  0  0  0  0  0
    1.2795   -2.7144   -0.5774 O   0  0  0  0  0  0  0  0  0  0  0  0
    2.6622   -1.0325    0.1235 N   0  0  0  0  0  0  0  0  0  0  0  0
    2.8775    0.2865    0.7348 C   0  0  0  0  0  0  0  0  0  0  0  0
    4.1513    0.3485    1.6026 C   0  0  0  0  0  0  0  0  0  0  0  0
    5.3341   -0.0627    0.8312 N   0  0  0  0  0  0  0  0  0  0  0  0
    6.6126    0.1461    1.3423 C   0  0  0  0  0  0  0  0  0  0  0  0
    6.8553    0.4205    2.6967 C   0  0  0  0  0  0  0  0  0  0  0  0
    8.1513    0.6187    3.1843 C   0  0  0  0  0  0  0  0  0  0  0  0
    9.2299    0.5710    2.3145 C   0  0  0  0  0  0  0  0  0  0  0  0
   10.4749    0.7855    2.8236 O   0  0  0  0  0  0  0  0  0  0  0  0
    9.0319    0.3200    0.9666 C   0  0  0  0  0  0  0  0  0  0  0  0
    7.7322    0.1099    0.4909 C   0  0  0  0  0  0  0  0  0  0  0  0
    5.1501   -1.1965   -0.1017 C   0  0  0  0  0  0  0  0  0  0  0  0
    3.8183   -1.9368    0.1321 C   0  0  0  0  0  0  0  0  0  0  0  0
   -1.0592   -1.1745   -0.2903 C   0  0  0  0  0  0  0  0  0  0  0  0
   -1.6373   -1.7869   -1.5596 C   0  0  0  0  0  0  0  0  0  0  0  0
   -3.9671    3.7764   -3.1923 H   0  0  0  0  0  0  0  0  0  0  0  0
   -2.7541    2.5505   -3.5141 H   0  0  0  0  0  0  0  0  0  0  0  0
   -4.3958    2.4299   -4.2378 H   0  0  0  0  0  0  0  0  0  0  0  0
   -5.0708    3.6830   -1.1842 H   0  0  0  0  0  0  0  0  0  0  0  0
   -5.9145    2.5385    0.7770 H   0  0  0  0  0  0  0  0  0  0  0  0
   -5.8810   -2.1058    2.4084 H   0  0  0  0  0  0  0  0  0  0  0  0
   -4.4519   -1.8509    1.4075 H   0  0  0  0  0  0  0  0  0  0  0  0
   -6.0158   -2.2067    0.6546 H   0  0  0  0  0  0  0  0  0  0  0  0
   -7.8109   -0.5078    2.3264 H   0  0  0  0  0  0  0  0  0  0  0  0
   -7.6916    1.0537    1.5090 H   0  0  0  0  0  0  0  0  0  0  0  0
   -7.8461   -0.4272    0.5564 H   0  0  0  0  0  0  0  0  0  0  0  0
   -5.5577   -0.0376    3.5879 H   0  0  0  0  0  0  0  0  0  0  0  0
   -5.5376    1.5352    2.8022 H   0  0  0  0  0  0  0  0  0  0  0  0
   -4.1424    0.4619    2.6453 H   0  0  0  0  0  0  0  0  0  0  0  0
   -4.6015   -1.2295   -0.8554 H   0  0  0  0  0  0  0  0  0  0  0  0
   -1.3608    1.2001   -1.9313 H   0  0  0  0  0  0  0  0  0  0  0  0
   -0.7697    0.8090   -3.5611 H   0  0  0  0  0  0  0  0  0  0  0  0
    1.1097    0.8929   -1.9786 H   0  0  0  0  0  0  0  0  0  0  0  0
    0.9039   -0.7245   -2.6294 H   0  0  0  0  0  0  0  0  0  0  0  0
    0.3806    0.3123    0.1676 H   0  0  0  0  0  0  0  0  0  0  0  0
    2.0166    0.5424    1.3614 H   0  0  0  0  0  0  0  0  0  0  0  0
    2.9398    1.0142   -0.0832 H   0  0  0  0  0  0  0  0  0  0  0  0
    4.0252   -0.3172    2.4699 H   0  0  0  0  0  0  0  0  0  0  0  0
    4.2688    1.3753    1.9707 H   0  0  0  0  0  0  0  0  0  0  0  0
    6.0408    0.4576    3.4149 H   0  0  0  0  0  0  0  0  0  0  0  0
    8.3129    0.8134    4.2397 H   0  0  0  0  0  0  0  0  0  0  0  0
   11.1123    0.7811    2.0909 H   0  0  0  0  0  0  0  0  0  0  0  0
    9.8617    0.2899    0.2678 H   0  0  0  0  0  0  0  0  0  0  0  0
    7.5967   -0.0565   -0.5743 H   0  0  0  0  0  0  0  0  0  0  0  0
    5.1687   -0.7971   -1.1233 H   0  0  0  0  0  0  0  0  0  0  0  0
    5.9609   -1.9294   -0.0097 H   0  0  0  0  0  0  0  0  0  0  0  0
    3.8259   -2.4282    1.1119 H   0  0  0  0  0  0  0  0  0  0  0  0
    3.6950   -2.7173   -0.6250 H   0  0  0  0  0  0  0  0  0  0  0  0
   -1.7529   -0.4100    0.0854 H   0  0  0  0  0  0  0  0  0  0  0  0
   -0.9907   -1.9366    0.4974 H   0  0  0  0  0  0  0  0  0  0  0  0
   -0.9789   -2.5689   -1.9558 H   0  0  0  0  0  0  0  0  0  0  0  0
   -2.5827   -2.2808   -1.3104 H   0  0  0  0  0  0  0  0  0  0  0  0
  1  2  1  0
  2  3  2  0
  3  4  1  0
  4  5  2  0
  5  6  1  0
  6  7  1  0
  6  8  1  0
  6  9  1  0
  5 10  1  0
 10 11  2  0
 11 12  1  0
 12 13  2  0
 12 14  2  0
 12 15  1  0
 15 16  1  0
 16 17  1  0
 17 18  1  0
 18 19  1  0
 19 20  2  0
 19 21  1  0
 21 22  1  0
 22 23  1  0
 23 24  1  0
 24 25  1  0
 25 26  2  0
 26 27  1  0
 27 28  2  0
 28 29  1  0
 28 30  1  0
 30 31  2  0
 24 32  1  0
 32 33  1  0
 18 34  1  0
 34 35  1  0
 11  2  1  0
 35 15  1  0
 33 21  1  0
 31 25  1  0
  1 36  1  0
  1 37  1  0
  1 38  1  0
  3 39  1  0
  4 40  1  0
  7 41  1  0
  7 42  1  0
  7 43  1  0
  8 44  1  0
  8 45  1  0
  8 46  1  0
  9 47  1  0
  9 48  1  0
  9 49  1  0
 10 50  1  0
 16 51  1  0
 16 52  1  0
 17 53  1  0
 17 54  1  0
 18 55  1  0
 22 56  1  0
 22 57  1  0
 23 58  1  0
 23 59  1  0
 26 60  1  0
 27 61  1  0
 29 62  1  0
 30 63  1  0
 31 64  1  0
 32 65  1  0
 32 66  1  0
 33 67  1  0
 33 68  1  0
 34 69  1  0
 34 70  1  0
 35 71  1  0
 35 72  1  0
M  END
$$$$
