
     RDKit          3D

 41 44  0  0  0  0  0  0  0  0999 V2000
    3.6418   -0.9323    0.8293 C   0  0  0  0  0  0  0  0  0  0  0  0
    3.1977    0.3490    0.1788 C   0  0  0  0  0  0  0  0  0  0  0  0
    4.0426    0.9438   -0.7740 C   0  0  0  0  0  0  0  0  0  0  0  0
    3.6997    2.1493   -1.3901 C   0  0  0  0  0  0  0  0  0  0  0  0
    2.5107    2.7908   -1.0579 C   0  0  0  0  0  0  0  0  0  0  0  0
    1.6605    2.2262   -0.1093 C   0  0  0  0  0  0  0  0  0  0  0  0
    1.9964    1.0093    0.5044 C   0  0  0  0  0  0  0  0  0  0  0  0
    0.8497    0.3361    1.7037 S   0  0  0  0  0  6  0  0  0  0  0  0
    1.6145   -0.0772    2.8580 O   0  0  0  0  0  0  0  0  0  0  0  0
   -0.2500    1.2727    1.8304 O   0  0  0  0  0  0  0  0  0  0  0  0
    0.2622   -1.0018    0.8456 N   0  0  0  0  0  0  0  0  0  0  0  0
   -0.7716   -1.6847    1.5372 C   0  0  0  0  0  0  0  0  0  0  0  0
   -0.3661   -2.4217    2.5799 N   0  0  0  0  0  0  0  0  0  0  0  0
   -1.3027   -3.0435    3.3059 C   0  0  0  0  0  0  0  0  0  0  0  0
   -2.6236   -3.0312    3.1074 N   0  0  0  0  0  0  0  0  0  0  0  0
   -2.9802   -2.2859    2.0477 C   0  0  0  0  0  0  0  0  0  0  0  0
   -4.6211   -2.1289    1.6178 S   0  0  0  0  0  0  0  0  0  0  0  0
   -4.2373   -1.1287    0.2867 C   0  0  0  0  0  0  0  0  0  0  0  0
   -2.8772   -0.9170    0.1697 C   0  0  0  0  0  0  0  0  0  0  0  0
   -2.3569   -0.1162   -0.9233 C   0  0  0  0  0  0  0  0  0  0  0  0
   -1.9065   -0.7402   -2.0923 C   0  0  0  0  0  0  0  0  0  0  0  0
   -1.3624    0.0247   -3.1247 C   0  0  0  0  0  0  0  0  0  0  0  0
   -1.2709    1.4102   -2.9934 C   0  0  0  0  0  0  0  0  0  0  0  0
   -1.7249    2.0342   -1.8318 C   0  0  0  0  0  0  0  0  0  0  0  0
   -2.2657    1.2728   -0.7950 C   0  0  0  0  0  0  0  0  0  0  0  0
   -2.1291   -1.5847    1.2064 C   0  0  0  0  0  0  0  0  0  0  0  0
    2.8511   -1.6864    0.8092 H   0  0  0  0  0  0  0  0  0  0  0  0
    3.9543   -0.7460    1.8610 H   0  0  0  0  0  0  0  0  0  0  0  0
    4.4974   -1.3677    0.3009 H   0  0  0  0  0  0  0  0  0  0  0  0
    4.9863    0.4709   -1.0416 H   0  0  0  0  0  0  0  0  0  0  0  0
    4.3697    2.5920   -2.1235 H   0  0  0  0  0  0  0  0  0  0  0  0
    2.2500    3.7344   -1.5307 H   0  0  0  0  0  0  0  0  0  0  0  0
    0.7405    2.7467    0.1480 H   0  0  0  0  0  0  0  0  0  0  0  0
   -0.0125   -0.7061   -0.0885 H   0  0  0  0  0  0  0  0  0  0  0  0
   -0.9467   -3.6233    4.1523 H   0  0  0  0  0  0  0  0  0  0  0  0
   -5.0289   -0.7505   -0.3475 H   0  0  0  0  0  0  0  0  0  0  0  0
   -1.9758   -1.8200   -2.2077 H   0  0  0  0  0  0  0  0  0  0  0  0
   -1.0131   -0.4581   -4.0344 H   0  0  0  0  0  0  0  0  0  0  0  0
   -0.8485    2.0056   -3.7995 H   0  0  0  0  0  0  0  0  0  0  0  0
   -1.6542    3.1145   -1.7304 H   0  0  0  0  0  0  0  0  0  0  0  0
   -2.5995    1.7689    0.1151 H   0  0  0  0  0  0  0  0  0  0  0  0
  1  2  1  0
  2  3  2  0
  3  4  1  0
  4  5  2  0
  5  6  1  0
  6  7  2  0
  7  8  1  0
  8  9  2  0
  8 10  2  0
  8 11  1  0
 11 12  1  0
 12 13  2  0
 13 14  1  0
 14 15  2  0
 15 16  1  0
 16 17  1  0
 17 18  1  0
 18 19  2  0
 19 20  1  0
 20 21  2  0
 21 22  1  0
 22 23  2  0
 23 24  1  0
 24 25  2  0
 19 26  1  0
  7  2  1  0
 26 12  1  0
 26 16  2  0
 25 20  1  0
  1 27  1  0
  1 28  1  0
  1 29  1  0
  3 30  1  0
  4 31  1  0
  5 32  1  0
  6 33  1  0
 11 34  1  0
 14 35  1  0
 18 36  1  0
 21 37  1  0
 22 38  1  0
 23 39  1  0
 24 40  1  0
 25 41  1  0
M  END
$$$$
