
     RDKit          3D

 54 58  0  0  0  0  0  0  0  0999 V2000
    5.2678   -2.4176    1.0746 C   0  0  0  0  0  0  0  0  0  0  0  0
    4.8679   -0.9610    1.2205 C   0  0  0  0  0  0  0  0  0  0  0  0
    4.3665   -0.3875   -0.0899 C   0  0  0  0  0  0  0  0  0  0  0  0
    5.1343    0.2714   -0.7957 O   0  0  0  0  0  0  0  0  0  0  0  0
    3.0539   -0.6301   -0.4699 N   0  0  0  0  0  0  0  0  0  0  0  0
    2.6410   -0.1414   -1.7796 C   0  0  0  0  0  0  0  0  0  0  0  0
    1.1435   -0.3072   -2.0357 C   0  0  0  0  0  0  0  0  0  0  0  0
    0.3144    0.1171   -0.7950 C   0  0  0  0  0  0  0  0  0  0  0  0
    0.7436   -0.7825    0.4064 C   0  0  0  0  0  0  0  0  0  0  0  0
    2.0984   -1.4751    0.2288 C   0  0  0  0  0  0  0  0  0  0  0  0
    0.6823    1.4659   -0.4003 O   0  0  0  0  0  0  0  0  0  0  0  0
    0.2144    2.4749   -1.1929 C   0  0  0  0  0  0  0  0  0  0  0  0
    0.8730    3.6988   -1.0831 C   0  0  0  0  0  0  0  0  0  0  0  0
    0.4708    4.7810   -1.8694 C   0  0  0  0  0  0  0  0  0  0  0  0
   -0.5937    4.6361   -2.7596 C   0  0  0  0  0  0  0  0  0  0  0  0
   -1.0843    5.9716   -3.7252 Cl  0  0  0  0  0  0  0  0  0  0  0  0
   -1.2655    3.4209   -2.8660 C   0  0  0  0  0  0  0  0  0  0  0  0
   -0.8602    2.3446   -2.0704 C   0  0  0  0  0  0  0  0  0  0  0  0
   -1.5765    1.0564   -2.1316 C   0  0  0  0  0  0  0  0  0  0  0  0
   -2.4346    0.8815   -2.9904 O   0  0  0  0  0  0  0  0  0  0  0  0
   -1.2174    0.0464   -1.0454 C   0  0  0  0  0  0  0  0  0  0  0  0
   -2.0954    0.3451    0.1655 C   0  0  0  0  0  0  0  0  0  0  0  0
   -2.6763   -1.0053    0.3959 C   0  0  0  0  0  0  0  0  0  0  0  0
   -3.5271   -1.3027    1.5731 C   0  0  0  0  0  0  0  0  0  0  0  0
   -3.9980   -2.6102    1.7564 C   0  0  0  0  0  0  0  0  0  0  0  0
   -4.7987   -2.9245    2.8579 C   0  0  0  0  0  0  0  0  0  0  0  0
   -5.1306   -1.9319    3.7767 C   0  0  0  0  0  0  0  0  0  0  0  0
   -6.1140   -2.3156    5.1342 Cl  0  0  0  0  0  0  0  0  0  0  0  0
   -4.6701   -0.6276    3.6020 C   0  0  0  0  0  0  0  0  0  0  0  0
   -3.8685   -0.3102    2.5000 C   0  0  0  0  0  0  0  0  0  0  0  0
   -2.3765   -1.8912   -0.4973 N   0  0  0  0  0  0  0  0  0  0  0  0
   -1.5833   -1.2663   -1.4838 O   0  0  0  0  0  0  0  0  0  0  0  0
    5.6619   -2.7998    2.0213 H   0  0  0  0  0  0  0  0  0  0  0  0
    6.0446   -2.5315    0.3109 H   0  0  0  0  0  0  0  0  0  0  0  0
    4.4236   -3.0467    0.7785 H   0  0  0  0  0  0  0  0  0  0  0  0
    5.7423   -0.3740    1.5273 H   0  0  0  0  0  0  0  0  0  0  0  0
    4.1257   -0.8207    2.0115 H   0  0  0  0  0  0  0  0  0  0  0  0
    2.9271    0.9144   -1.8605 H   0  0  0  0  0  0  0  0  0  0  0  0
    3.2107   -0.6867   -2.5416 H   0  0  0  0  0  0  0  0  0  0  0  0
    0.9265   -1.3535   -2.2866 H   0  0  0  0  0  0  0  0  0  0  0  0
    0.8908    0.2801   -2.9251 H   0  0  0  0  0  0  0  0  0  0  0  0
    0.0187   -1.5775    0.6029 H   0  0  0  0  0  0  0  0  0  0  0  0
    0.7882   -0.1716    1.3179 H   0  0  0  0  0  0  0  0  0  0  0  0
    1.9815   -2.3875   -0.3694 H   0  0  0  0  0  0  0  0  0  0  0  0
    2.4624   -1.7950    1.2063 H   0  0  0  0  0  0  0  0  0  0  0  0
    1.7108    3.8085   -0.3978 H   0  0  0  0  0  0  0  0  0  0  0  0
    0.9945    5.7306   -1.7869 H   0  0  0  0  0  0  0  0  0  0  0  0
   -2.1002    3.3123   -3.5554 H   0  0  0  0  0  0  0  0  0  0  0  0
   -2.9045    1.0528   -0.0456 H   0  0  0  0  0  0  0  0  0  0  0  0
   -1.5326    0.6942    1.0349 H   0  0  0  0  0  0  0  0  0  0  0  0
   -3.7484   -3.3932    1.0420 H   0  0  0  0  0  0  0  0  0  0  0  0
   -5.1592   -3.9417    2.9888 H   0  0  0  0  0  0  0  0  0  0  0  0
   -4.9341    0.1466    4.3185 H   0  0  0  0  0  0  0  0  0  0  0  0
   -3.5311    0.7160    2.3880 H   0  0  0  0  0  0  0  0  0  0  0  0
  1  2  1  0
  2  3  1  0
  3  4  2  0
  3  5  1  0
  5  6  1  0
  6  7  1  0
  7  8  1  0
  8  9  1  0
  9 10  1  0
  8 11  1  0
 11 12  1  0
 12 13  2  0
 13 14  1  0
 14 15  2  0
 15 16  1  0
 15 17  1  0
 17 18  2  0
 18 19  1  0
 19 20  2  0
 19 21  1  0
 21 22  1  0
 22 23  1  0
 23 24  1  0
 24 25  2  0
 25 26  1  0
 26 27  2  0
 27 28  1  0
 27 29  1  0
 29 30  2  0
 23 31  2  0
 31 32  1  0
 10  5  1  0
 18 12  1  0
 32 21  1  0
 21  8  1  0
 30 24  1  0
  1 33  1  0
  1 34  1  0
  1 35  1  0
  2 36  1  0
  2 37  1  0
  6 38  1  0
  6 39  1  0
  7 40  1  0
  7 41  1  0
  9 42  1  0
  9 43  1  0
 10 44  1  0
 10 45  1  0
 13 46  1  0
 14 47  1  0
 17 48  1  0
 22 49  1  0
 22 50  1  0
 25 51  1  0
 26 52  1  0
 29 53  1  0
 30 54  1  0
M  END
$$$$
