
     RDKit          3D

 43 45  0  0  0  0  0  0  0  0999 V2000
    7.6916    1.0551   -0.0777 C   0  0  0  0  0  0  0  0  0  0  0  0
    6.1845    0.9894   -0.0997 C   0  0  0  0  0  0  0  0  0  0  0  0
    5.5626   -0.2951   -0.5407 C   0  0  0  0  0  0  0  0  0  0  0  0
    4.2163   -0.3489   -0.5631 C   0  0  0  0  0  0  0  0  0  0  0  0
    3.5230   -1.6045   -0.9967 C   0  0  0  0  0  0  0  0  0  0  0  0
    3.5002    0.8009   -0.1738 N   0  0  0  0  0  0  0  0  0  0  0  0
    2.1615    1.1306   -0.0642 C   0  0  0  0  0  0  0  0  0  0  0  0
    0.8266    0.0810   -0.4019 S   0  0  0  0  0  0  0  0  0  0  0  0
   -0.5204    1.2978   -0.5143 C   0  0  0  0  0  0  0  0  0  0  0  0
   -1.8338    0.5766   -0.7699 C   0  0  0  0  0  0  0  0  0  0  0  0
   -2.2858    0.5227   -1.9185 O   0  0  0  0  0  0  0  0  0  0  0  0
   -2.5130   -0.0238    0.2965 N   0  0  0  0  0  0  0  0  0  0  0  0
   -2.1388    0.1396    1.7001 C   0  0  0  0  0  0  0  0  0  0  0  0
   -3.8031   -0.6643   -0.0202 C   0  0  0  0  0  0  0  0  0  0  0  0
   -4.2825   -1.7309    0.9776 C   0  0  0  0  0  0  0  0  0  0  0  0
   -5.6625   -2.1479    0.4893 C   0  0  0  0  0  0  0  0  0  0  0  0
   -6.4345   -0.6298   -0.0446 S   0  0  0  0  0  6  0  0  0  0  0  0
   -6.9657   -0.8290   -1.3760 O   0  0  0  0  0  0  0  0  0  0  0  0
   -7.2462   -0.1254    1.0443 O   0  0  0  0  0  0  0  0  0  0  0  0
   -4.9458    0.3493   -0.1403 C   0  0  0  0  0  0  0  0  0  0  0  0
    2.0243    2.3660    0.3573 N   0  0  0  0  0  0  0  0  0  0  0  0
    3.2751    2.8892    0.5366 N   0  0  0  0  0  0  0  0  0  0  0  0
    4.1644    1.9683    0.2237 C   0  0  0  0  0  0  0  0  0  0  0  0
    5.5255    2.0500    0.2548 N   0  0  0  0  0  0  0  0  0  0  0  0
    8.0301    1.7597   -0.8434 H   0  0  0  0  0  0  0  0  0  0  0  0
    8.0258    1.4064    0.9033 H   0  0  0  0  0  0  0  0  0  0  0  0
    8.1407    0.0774   -0.2720 H   0  0  0  0  0  0  0  0  0  0  0  0
    6.2050   -1.1195   -0.8226 H   0  0  0  0  0  0  0  0  0  0  0  0
    2.9049   -1.4255   -1.8816 H   0  0  0  0  0  0  0  0  0  0  0  0
    4.2395   -2.3885   -1.2689 H   0  0  0  0  0  0  0  0  0  0  0  0
    2.9077   -2.0110   -0.1878 H   0  0  0  0  0  0  0  0  0  0  0  0
   -0.3302    1.9609   -1.3660 H   0  0  0  0  0  0  0  0  0  0  0  0
   -0.5932    1.9363    0.3693 H   0  0  0  0  0  0  0  0  0  0  0  0
   -2.9121    0.7274    2.2026 H   0  0  0  0  0  0  0  0  0  0  0  0
   -2.0603   -0.8471    2.1645 H   0  0  0  0  0  0  0  0  0  0  0  0
   -1.1829    0.6412    1.8376 H   0  0  0  0  0  0  0  0  0  0  0  0
   -3.6911   -1.1626   -0.9941 H   0  0  0  0  0  0  0  0  0  0  0  0
   -4.3708   -1.3128    1.9874 H   0  0  0  0  0  0  0  0  0  0  0  0
   -3.6002   -2.5854    1.0269 H   0  0  0  0  0  0  0  0  0  0  0  0
   -6.2636   -2.6143    1.2727 H   0  0  0  0  0  0  0  0  0  0  0  0
   -5.5912   -2.8136   -0.3755 H   0  0  0  0  0  0  0  0  0  0  0  0
   -4.9522    1.0558    0.6956 H   0  0  0  0  0  0  0  0  0  0  0  0
   -4.9290    0.8985   -1.0848 H   0  0  0  0  0  0  0  0  0  0  0  0
  1  2  1  0
  2  3  1  0
  3  4  2  0
  4  5  1  0
  4  6  1  0
  6  7  1  0
  7  8  1  0
  8  9  1  0
  9 10  1  0
 10 11  2  0
 10 12  1  0
 12 13  1  0
 12 14  1  0
 14 15  1  0
 15 16  1  0
 16 17  1  0
 17 18  2  0
 17 19  2  0
 17 20  1  0
  7 21  2  0
 21 22  1  0
 22 23  2  0
 23 24  1  0
 24  2  2  0
 23  6  1  0
 20 14  1  0
  1 25  1  0
  1 26  1  0
  1 27  1  0
  3 28  1  0
  5 29  1  0
  5 30  1  0
  5 31  1  0
  9 32  1  0
  9 33  1  0
 13 34  1  0
 13 35  1  0
 13 36  1  0
 14 37  1  0
 15 38  1  0
 15 39  1  0
 16 40  1  0
 16 41  1  0
 20 42  1  0
 20 43  1  0
M  END
$$$$
