
     RDKit          3D

 55 58  0  0  0  0  0  0  0  0999 V2000
   -9.3167    0.6744   -2.0198 C   0  0  0  0  0  0  0  0  0  0  0  0
   -8.6109    0.0440   -0.8293 C   0  0  0  0  0  0  0  0  0  0  0  0
   -7.2125    0.6105   -0.5796 C   0  0  0  0  0  0  0  0  0  0  0  0
   -6.2274    0.3065   -1.7074 C   0  0  0  0  0  0  0  0  0  0  0  0
   -4.8973    0.7923   -1.3966 N   0  0  0  0  0  0  0  0  0  0  0  0
   -4.0278    0.0559   -0.6171 C   0  0  0  0  0  0  0  0  0  0  0  0
   -4.2905   -1.0576   -0.1771 O   0  0  0  0  0  0  0  0  0  0  0  0
   -2.7282    0.7034   -0.2858 C   0  0  0  0  0  0  0  0  0  0  0  0
   -2.1263    1.6405   -1.1319 C   0  0  0  0  0  0  0  0  0  0  0  0
   -0.9026    2.2200   -0.7794 C   0  0  0  0  0  0  0  0  0  0  0  0
   -0.2536    1.8633    0.4127 C   0  0  0  0  0  0  0  0  0  0  0  0
    1.0790    2.4884    0.7865 C   0  0  0  0  0  0  0  0  0  0  0  0
    2.2005    1.5442    0.7040 N   0  0  0  0  0  0  0  0  0  0  0  0
    2.8946    1.3245   -0.5038 C   0  0  0  0  0  0  0  0  0  0  0  0
    2.6308    2.0894   -1.9773 S   0  0  0  0  0  0  0  0  0  0  0  0
    3.9121    0.3934   -0.4927 N   0  0  0  0  0  0  0  0  0  0  0  0
    4.2651   -0.2887    0.6397 C   0  0  0  0  0  0  0  0  0  0  0  0
    3.5972   -0.0381    1.7997 C   0  0  0  0  0  0  0  0  0  0  0  0
    4.1350   -0.8313    2.7740 N   0  0  0  0  0  0  0  0  0  0  0  0
    5.1533   -1.5958    2.2395 C   0  0  0  0  0  0  0  0  0  0  0  0
    5.9828   -2.5411    2.8478 C   0  0  0  0  0  0  0  0  0  0  0  0
    6.9408   -3.1668    2.0428 C   0  0  0  0  0  0  0  0  0  0  0  0
    7.0713   -2.8674    0.6848 C   0  0  0  0  0  0  0  0  0  0  0  0
    8.0573   -3.5698    0.0439 O   0  0  0  0  0  0  0  0  0  0  0  0
    8.2250   -3.3241   -1.3465 C   0  0  0  0  0  0  0  0  0  0  0  0
    6.2309   -1.9164    0.0935 C   0  0  0  0  0  0  0  0  0  0  0  0
    5.2551   -1.2692    0.8821 C   0  0  0  0  0  0  0  0  0  0  0  0
    2.5297    0.9027    1.9171 C   0  0  0  0  0  0  0  0  0  0  0  0
    1.9775    1.1170    2.9928 O   0  0  0  0  0  0  0  0  0  0  0  0
   -0.8643    0.9189    1.2514 C   0  0  0  0  0  0  0  0  0  0  0  0
   -2.0868    0.3384    0.9020 C   0  0  0  0  0  0  0  0  0  0  0  0
   -9.3614    1.7633   -1.9189 H   0  0  0  0  0  0  0  0  0  0  0  0
   -8.8111    0.4338   -2.9595 H   0  0  0  0  0  0  0  0  0  0  0  0
  -10.3425    0.2984   -2.0903 H   0  0  0  0  0  0  0  0  0  0  0  0
   -9.2198    0.2141    0.0666 H   0  0  0  0  0  0  0  0  0  0  0  0
   -8.5536   -1.0413   -0.9719 H   0  0  0  0  0  0  0  0  0  0  0  0
   -6.8330    0.1889    0.3596 H   0  0  0  0  0  0  0  0  0  0  0  0
   -7.2730    1.6951   -0.4249 H   0  0  0  0  0  0  0  0  0  0  0  0
   -6.5296    0.8013   -2.6353 H   0  0  0  0  0  0  0  0  0  0  0  0
   -6.1784   -0.7721   -1.8930 H   0  0  0  0  0  0  0  0  0  0  0  0
   -4.7103    1.7738   -1.5470 H   0  0  0  0  0  0  0  0  0  0  0  0
   -2.5770    1.9102   -2.0826 H   0  0  0  0  0  0  0  0  0  0  0  0
   -0.4550    2.9463   -1.4556 H   0  0  0  0  0  0  0  0  0  0  0  0
    1.2794    3.3590    0.1524 H   0  0  0  0  0  0  0  0  0  0  0  0
    0.9930    2.8945    1.8022 H   0  0  0  0  0  0  0  0  0  0  0  0
    4.4137    0.2164   -1.3547 H   0  0  0  0  0  0  0  0  0  0  0  0
    3.8282   -0.8508    3.7382 H   0  0  0  0  0  0  0  0  0  0  0  0
    5.8953   -2.7875    3.9010 H   0  0  0  0  0  0  0  0  0  0  0  0
    7.6016   -3.9083    2.4881 H   0  0  0  0  0  0  0  0  0  0  0  0
    8.5159   -2.2847   -1.5310 H   0  0  0  0  0  0  0  0  0  0  0  0
    7.3217   -3.5881   -1.9062 H   0  0  0  0  0  0  0  0  0  0  0  0
    9.0368   -3.9650   -1.7036 H   0  0  0  0  0  0  0  0  0  0  0  0
    6.3046   -1.6596   -0.9556 H   0  0  0  0  0  0  0  0  0  0  0  0
   -0.3984    0.6247    2.1899 H   0  0  0  0  0  0  0  0  0  0  0  0
   -2.5400   -0.3986    1.5627 H   0  0  0  0  0  0  0  0  0  0  0  0
  1  2  1  0
  2  3  1  0
  3  4  1  0
  4  5  1  0
  5  6  1  0
  6  7  2  0
  6  8  1  0
  8  9  2  0
  9 10  1  0
 10 11  2  0
 11 12  1  0
 12 13  1  0
 13 14  1  0
 14 15  2  0
 14 16  1  0
 16 17  1  0
 17 18  2  0
 18 19  1  0
 19 20  1  0
 20 21  2  0
 21 22  1  0
 22 23  2  0
 23 24  1  0
 24 25  1  0
 23 26  1  0
 26 27  2  0
 18 28  1  0
 28 29  2  0
 11 30  1  0
 30 31  2  0
 31  8  1  0
 28 13  1  0
 27 17  1  0
 27 20  1  0
  1 32  1  0
  1 33  1  0
  1 34  1  0
  2 35  1  0
  2 36  1  0
  3 37  1  0
  3 38  1  0
  4 39  1  0
  4 40  1  0
  5 41  1  0
  9 42  1  0
 10 43  1  0
 12 44  1  0
 12 45  1  0
 16 46  1  0
 19 47  1  0
 21 48  1  0
 22 49  1  0
 25 50  1  0
 25 51  1  0
 25 52  1  0
 26 53  1  0
 30 54  1  0
 31 55  1  0
M  END
$$$$
