
     RDKit          3D

 55 57  0  0  0  0  0  0  0  0999 V2000
    0.6059    2.7650    0.0459 O   0  0  0  0  0  0  0  0  0  0  0  0
    0.8794    1.5714    0.1166 C   0  0  0  0  0  0  0  0  0  0  0  0
    2.0107    1.0044    0.6703 N   0  0  0  0  0  0  0  0  0  0  0  0
    3.0743    1.6657    1.3179 C   0  0  0  0  0  0  0  0  0  0  0  0
    4.1376    0.8729    1.7707 C   0  0  0  0  0  0  0  0  0  0  0  0
    5.2299    1.4489    2.4249 C   0  0  0  0  0  0  0  0  0  0  0  0
    5.2692    2.8243    2.6333 C   0  0  0  0  0  0  0  0  0  0  0  0
    4.2168    3.6204    2.1881 C   0  0  0  0  0  0  0  0  0  0  0  0
    3.1231    3.0439    1.5335 C   0  0  0  0  0  0  0  0  0  0  0  0
   -0.0565    0.5580   -0.4878 C   0  0  0  0  0  0  0  0  0  0  0  0
   -0.3976   -0.5372    0.2132 C   0  0  0  0  0  0  0  0  0  0  0  0
   -1.3258   -1.5824   -0.3401 C   0  0  0  0  0  0  0  0  0  0  0  0
   -0.8282   -2.9930   -0.0587 C   0  0  0  0  0  0  0  0  0  0  0  0
    0.4157   -3.4426   -0.5296 C   0  0  0  0  0  0  0  0  0  0  0  0
    0.8550   -4.7407   -0.2572 C   0  0  0  0  0  0  0  0  0  0  0  0
    0.0645   -5.6183    0.4982 C   0  0  0  0  0  0  0  0  0  0  0  0
    0.5369   -7.0250    0.7715 C   0  0  0  0  0  0  0  0  0  0  0  0
    0.3247   -7.8574   -0.2848 F   0  0  0  0  0  0  0  0  0  0  0  0
   -0.0822   -7.6061    1.8369 F   0  0  0  0  0  0  0  0  0  0  0  0
    1.8716   -7.0911    1.0374 F   0  0  0  0  0  0  0  0  0  0  0  0
   -1.1809   -5.1740    0.9627 C   0  0  0  0  0  0  0  0  0  0  0  0
   -1.6204   -3.8757    0.6899 C   0  0  0  0  0  0  0  0  0  0  0  0
   -1.5676   -1.3616   -1.8387 C   0  0  0  0  0  0  0  0  0  0  0  0
   -1.7419    0.1289   -2.1201 C   0  0  0  0  0  0  0  0  0  0  0  0
   -2.9328    0.5846   -1.4697 O   0  0  0  0  0  0  0  0  0  0  0  0
   -3.5676    1.6833   -2.1221 C   0  0  0  0  0  0  0  0  0  0  0  0
   -2.8563    3.0201   -1.9270 C   0  0  0  0  0  0  0  0  0  0  0  0
   -2.7276    3.4010   -0.4497 C   0  0  0  0  0  0  0  0  0  0  0  0
   -2.0876    4.7726   -0.2606 C   0  0  0  0  0  0  0  0  0  0  0  0
   -0.8253    4.8532   -0.9035 O   0  0  0  0  0  0  0  0  0  0  0  0
   -0.5789    0.8657   -1.7286 O   0  0  0  0  0  0  0  0  0  0  0  0
    2.1124    0.0032    0.5706 H   0  0  0  0  0  0  0  0  0  0  0  0
    4.1336   -0.2034    1.6214 H   0  0  0  0  0  0  0  0  0  0  0  0
    6.0492    0.8237    2.7705 H   0  0  0  0  0  0  0  0  0  0  0  0
    6.1172    3.2768    3.1406 H   0  0  0  0  0  0  0  0  0  0  0  0
    4.2422    4.6957    2.3468 H   0  0  0  0  0  0  0  0  0  0  0  0
    2.3272    3.7039    1.2042 H   0  0  0  0  0  0  0  0  0  0  0  0
   -0.0329   -0.6878    1.2263 H   0  0  0  0  0  0  0  0  0  0  0  0
   -2.2829   -1.4475    0.1834 H   0  0  0  0  0  0  0  0  0  0  0  0
    1.0538   -2.7858   -1.1178 H   0  0  0  0  0  0  0  0  0  0  0  0
    1.8215   -5.0680   -0.6389 H   0  0  0  0  0  0  0  0  0  0  0  0
   -1.8189   -5.8395    1.5432 H   0  0  0  0  0  0  0  0  0  0  0  0
   -2.5916   -3.5601    1.0676 H   0  0  0  0  0  0  0  0  0  0  0  0
   -0.7205   -1.7316   -2.4301 H   0  0  0  0  0  0  0  0  0  0  0  0
   -2.4579   -1.9206   -2.1518 H   0  0  0  0  0  0  0  0  0  0  0  0
   -1.8484    0.2495   -3.2050 H   0  0  0  0  0  0  0  0  0  0  0  0
   -4.5776    1.7540   -1.7025 H   0  0  0  0  0  0  0  0  0  0  0  0
   -3.6908    1.4642   -3.1895 H   0  0  0  0  0  0  0  0  0  0  0  0
   -1.8636    2.9817   -2.3869 H   0  0  0  0  0  0  0  0  0  0  0  0
   -3.4212    3.7976   -2.4550 H   0  0  0  0  0  0  0  0  0  0  0  0
   -2.1241    2.6486    0.0674 H   0  0  0  0  0  0  0  0  0  0  0  0
   -3.7160    3.4011    0.0243 H   0  0  0  0  0  0  0  0  0  0  0  0
   -1.9503    4.9873    0.8040 H   0  0  0  0  0  0  0  0  0  0  0  0
   -2.7283    5.5546   -0.6804 H   0  0  0  0  0  0  0  0  0  0  0  0
   -0.2698    4.1235   -0.5454 H   0  0  0  0  0  0  0  0  0  0  0  0
  1  2  2  0
  2  3  1  0
  3  4  1  0
  4  5  2  0
  5  6  1  0
  6  7  2  0
  7  8  1  0
  8  9  2  0
  2 10  1  0
 10 11  2  0
 11 12  1  0
 12 13  1  0
 13 14  2  0
 14 15  1  0
 15 16  2  0
 16 17  1  0
 17 18  1  0
 17 19  1  0
 17 20  1  0
 16 21  1  0
 21 22  2  0
 12 23  1  0
 23 24  1  0
 24 25  1  0
 25 26  1  0
 26 27  1  0
 27 28  1  0
 28 29  1  0
 29 30  1  0
 24 31  1  0
  9  4  1  0
 31 10  1  0
 22 13  1  0
  3 32  1  0
  5 33  1  0
  6 34  1  0
  7 35  1  0
  8 36  1  0
  9 37  1  0
 11 38  1  0
 12 39  1  0
 14 40  1  0
 15 41  1  0
 21 42  1  0
 22 43  1  0
 23 44  1  0
 23 45  1  0
 24 46  1  0
 26 47  1  0
 26 48  1  0
 27 49  1  0
 27 50  1  0
 28 51  1  0
 28 52  1  0
 29 53  1  0
 29 54  1  0
 30 55  1  0
M  END
$$$$
