
     RDKit          3D

 43 44  0  0  0  0  0  0  0  0999 V2000
    7.5993   -0.7758    0.8939 C   0  0  0  0  0  0  0  0  0  0  0  0
    6.5115   -0.2708    0.1181 O   0  0  0  0  0  0  0  0  0  0  0  0
    5.3228   -0.2692    0.7728 C   0  0  0  0  0  0  0  0  0  0  0  0
    5.1392   -0.6547    1.9164 O   0  0  0  0  0  0  0  0  0  0  0  0
    4.2436    0.2655   -0.1010 C   0  0  0  0  0  0  0  0  0  0  0  0
    4.4878    0.7214   -1.4030 C   0  0  0  0  0  0  0  0  0  0  0  0
    3.4406    1.2232   -2.1820 C   0  0  0  0  0  0  0  0  0  0  0  0
    2.1328    1.2432   -1.6892 C   0  0  0  0  0  0  0  0  0  0  0  0
    1.1241    1.8764   -2.4378 N   0  0  0  0  0  0  0  0  0  0  0  0
    1.8916    0.8102   -0.3646 C   0  0  0  0  0  0  0  0  0  0  0  0
    0.5969    0.8703    0.1863 N   0  0  0  0  0  0  0  0  0  0  0  0
   -0.1814   -0.1194   -0.1162 C   0  0  0  0  0  0  0  0  0  0  0  0
   -1.6201   -0.1060    0.3167 C   0  0  0  0  0  0  0  0  0  0  0  0
   -2.5207    0.3215   -0.8147 C   0  0  0  0  0  0  0  0  0  0  0  0
   -2.0758    0.7098   -1.8970 O   0  0  0  0  0  0  0  0  0  0  0  0
   -4.0176    0.3136   -0.5651 C   0  0  0  0  0  0  0  0  0  0  0  0
   -4.4646   -0.6324    0.5715 C   0  0  0  0  0  0  0  0  0  0  0  0
   -4.5580    0.1254    1.9112 C   0  0  0  0  0  0  0  0  0  0  0  0
   -5.8772   -1.1625    0.2472 C   0  0  0  0  0  0  0  0  0  0  0  0
   -3.5106   -1.8355    0.6905 C   0  0  0  0  0  0  0  0  0  0  0  0
   -2.0591   -1.4356    0.8748 C   0  0  0  0  0  0  0  0  0  0  0  0
   -1.2745   -2.1973    1.4409 O   0  0  0  0  0  0  0  0  0  0  0  0
    2.9437    0.3214    0.4154 C   0  0  0  0  0  0  0  0  0  0  0  0
    8.4988   -0.7500    0.2728 H   0  0  0  0  0  0  0  0  0  0  0  0
    7.7670   -0.1461    1.7734 H   0  0  0  0  0  0  0  0  0  0  0  0
    7.4125   -1.8133    1.1885 H   0  0  0  0  0  0  0  0  0  0  0  0
    5.4916    0.7125   -1.8201 H   0  0  0  0  0  0  0  0  0  0  0  0
    3.6552    1.6125   -3.1738 H   0  0  0  0  0  0  0  0  0  0  0  0
    1.2066    1.7738   -3.4418 H   0  0  0  0  0  0  0  0  0  0  0  0
    0.1856    1.6730   -2.0924 H   0  0  0  0  0  0  0  0  0  0  0  0
    0.1503   -0.9655   -0.7477 H   0  0  0  0  0  0  0  0  0  0  0  0
   -1.7187    0.6452    1.1082 H   0  0  0  0  0  0  0  0  0  0  0  0
   -4.3361    1.3438   -0.3691 H   0  0  0  0  0  0  0  0  0  0  0  0
   -4.4768    0.0000   -1.5115 H   0  0  0  0  0  0  0  0  0  0  0  0
   -4.8820   -0.5423    2.7179 H   0  0  0  0  0  0  0  0  0  0  0  0
   -3.6047    0.5643    2.2152 H   0  0  0  0  0  0  0  0  0  0  0  0
   -5.2861    0.9425    1.8497 H   0  0  0  0  0  0  0  0  0  0  0  0
   -5.8822   -1.7402   -0.6840 H   0  0  0  0  0  0  0  0  0  0  0  0
   -6.5914   -0.3390    0.1319 H   0  0  0  0  0  0  0  0  0  0  0  0
   -6.2473   -1.8175    1.0439 H   0  0  0  0  0  0  0  0  0  0  0  0
   -3.5574   -2.4506   -0.2167 H   0  0  0  0  0  0  0  0  0  0  0  0
   -3.8001   -2.4679    1.5384 H   0  0  0  0  0  0  0  0  0  0  0  0
    2.7407   -0.0075    1.4322 H   0  0  0  0  0  0  0  0  0  0  0  0
  1  2  1  0
  2  3  1  0
  3  4  2  0
  3  5  1  0
  5  6  2  0
  6  7  1  0
  7  8  2  0
  8  9  1  0
  8 10  1  0
 10 11  1  0
 11 12  2  3
 12 13  1  0
 13 14  1  0
 14 15  2  0
 14 16  1  0
 16 17  1  0
 17 18  1  0
 17 19  1  0
 17 20  1  0
 20 21  1  0
 21 22  2  0
 10 23  2  0
 23  5  1  0
 21 13  1  0
  1 24  1  0
  1 25  1  0
  1 26  1  0
  6 27  1  0
  7 28  1  0
  9 29  1  0
  9 30  1  0
 12 31  1  0
 13 32  1  0
 16 33  1  0
 16 34  1  0
 18 35  1  0
 18 36  1  0
 18 37  1  0
 19 38  1  0
 19 39  1  0
 19 40  1  0
 20 41  1  0
 20 42  1  0
 23 43  1  0
M  END
$$$$
