
     RDKit          3D

 44 47  0  0  0  0  0  0  0  0999 V2000
    6.3757   -0.5402    0.9682 C   0  0  0  0  0  0  0  0  0  0  0  0
    5.5687   -0.8379   -0.2863 C   0  0  0  0  0  0  0  0  0  0  0  0
    4.0999   -0.6408   -0.0595 C   0  0  0  0  0  0  0  0  0  0  0  0
    3.1835   -1.5461    0.4387 C   0  0  0  0  0  0  0  0  0  0  0  0
    1.8715   -0.9922    0.5103 C   0  0  0  0  0  0  0  0  0  0  0  0
    0.6437   -1.6016    0.9712 C   0  0  0  0  0  0  0  0  0  0  0  0
    0.6333   -2.7535    1.3974 O   0  0  0  0  0  0  0  0  0  0  0  0
   -0.4860   -0.7770    0.8889 N   0  0  0  0  0  0  0  0  0  0  0  0
   -1.7488   -1.3817    1.3275 C   0  0  0  0  0  0  0  0  0  0  0  0
   -2.5752   -1.9337    0.1821 C   0  0  0  0  0  0  0  0  0  0  0  0
   -2.1064   -3.0037   -0.5956 C   0  0  0  0  0  0  0  0  0  0  0  0
   -2.8763   -3.5146   -1.6429 C   0  0  0  0  0  0  0  0  0  0  0  0
   -4.1270   -2.9698   -1.9210 C   0  0  0  0  0  0  0  0  0  0  0  0
   -4.6118   -1.9160   -1.1499 C   0  0  0  0  0  0  0  0  0  0  0  0
   -3.8437   -1.4048   -0.1016 C   0  0  0  0  0  0  0  0  0  0  0  0
   -0.3713    0.5370    0.4255 C   0  0  0  0  0  0  0  0  0  0  0  0
   -1.8192    1.5323    0.3825 S   0  0  0  0  0  0  0  0  0  0  0  0
   -1.0956    3.1993    0.2524 C   0  0  0  0  0  0  0  0  0  0  0  0
   -0.7772    3.6064   -1.1712 C   0  0  0  0  0  0  0  0  0  0  0  0
   -2.0553    4.2510   -1.6424 C   0  0  0  0  0  0  0  0  0  0  0  0
   -2.6304    4.8450   -0.4802 O   0  0  0  0  0  0  0  0  0  0  0  0
   -2.1387    4.2212    0.6337 C   0  0  0  0  0  0  0  0  0  0  0  0
   -2.5165    4.4678    1.7691 O   0  0  0  0  0  0  0  0  0  0  0  0
    0.7293    1.0908    0.0186 N   0  0  0  0  0  0  0  0  0  0  0  0
    1.8251    0.3036    0.0677 C   0  0  0  0  0  0  0  0  0  0  0  0
    3.3558    0.8587   -0.4347 S   0  0  0  0  0  0  0  0  0  0  0  0
    6.2392    0.4967    1.2931 H   0  0  0  0  0  0  0  0  0  0  0  0
    6.0772   -1.1930    1.7952 H   0  0  0  0  0  0  0  0  0  0  0  0
    7.4418   -0.6997    0.7786 H   0  0  0  0  0  0  0  0  0  0  0  0
    5.7495   -1.8762   -0.5919 H   0  0  0  0  0  0  0  0  0  0  0  0
    5.9226   -0.2067   -1.1102 H   0  0  0  0  0  0  0  0  0  0  0  0
    3.4362   -2.5565    0.7404 H   0  0  0  0  0  0  0  0  0  0  0  0
   -1.5585   -2.2017    2.0313 H   0  0  0  0  0  0  0  0  0  0  0  0
   -2.3260   -0.6484    1.9015 H   0  0  0  0  0  0  0  0  0  0  0  0
   -1.1409   -3.4605   -0.3890 H   0  0  0  0  0  0  0  0  0  0  0  0
   -2.5005   -4.3433   -2.2377 H   0  0  0  0  0  0  0  0  0  0  0  0
   -4.7265   -3.3698   -2.7346 H   0  0  0  0  0  0  0  0  0  0  0  0
   -5.5913   -1.4944   -1.3605 H   0  0  0  0  0  0  0  0  0  0  0  0
   -4.2483   -0.5863    0.4906 H   0  0  0  0  0  0  0  0  0  0  0  0
   -0.2284    3.3206    0.9096 H   0  0  0  0  0  0  0  0  0  0  0  0
    0.0153    4.3660   -1.1502 H   0  0  0  0  0  0  0  0  0  0  0  0
   -0.4372    2.8035   -1.8315 H   0  0  0  0  0  0  0  0  0  0  0  0
   -1.8668    5.0242   -2.3932 H   0  0  0  0  0  0  0  0  0  0  0  0
   -2.7647    3.5260   -2.0554 H   0  0  0  0  0  0  0  0  0  0  0  0
  1  2  1  0
  2  3  1  0
  3  4  2  0
  4  5  1  0
  5  6  1  0
  6  7  2  0
  6  8  1  0
  8  9  1  0
  9 10  1  0
 10 11  2  0
 11 12  1  0
 12 13  2  0
 13 14  1  0
 14 15  2  0
  8 16  1  0
 16 17  1  0
 17 18  1  0
 18 19  1  0
 19 20  1  0
 20 21  1  0
 21 22  1  0
 22 23  2  0
 16 24  2  0
 24 25  1  0
 25 26  1  0
 26  3  1  0
 25  5  2  0
 15 10  1  0
 22 18  1  0
  1 27  1  0
  1 28  1  0
  1 29  1  0
  2 30  1  0
  2 31  1  0
  4 32  1  0
  9 33  1  0
  9 34  1  0
 11 35  1  0
 12 36  1  0
 13 37  1  0
 14 38  1  0
 15 39  1  0
 18 40  1  0
 19 41  1  0
 19 42  1  0
 20 43  1  0
 20 44  1  0
M  END
$$$$
