
     RDKit          3D

 35 36  0  0  0  0  0  0  0  0999 V2000
    1.7610   -1.9762   -0.2973 O   0  0  0  0  0  0  0  0  0  0  0  0
    2.3008   -0.8800   -0.4014 C   0  0  0  0  0  0  0  0  0  0  0  0
    1.7255    0.1892   -1.0596 N   0  0  0  0  0  0  0  0  0  0  0  0
    0.4019    0.0830   -1.6436 C   0  0  0  0  0  0  0  0  0  0  0  0
   -0.6929    0.2680   -0.5987 C   0  0  0  0  0  0  0  0  0  0  0  0
   -2.0747    0.1247   -1.2275 C   0  0  0  0  0  0  0  0  0  0  0  0
   -3.1267    0.3577   -0.2562 N   0  0  0  0  0  0  0  0  0  0  0  0
   -3.6474   -0.6819    0.5939 C   0  0  0  0  0  0  0  0  0  0  0  0
   -4.3807    0.0864    1.6764 C   0  0  0  0  0  0  0  0  0  0  0  0
   -4.8276    1.3689    0.9834 C   0  0  0  0  0  0  0  0  0  0  0  0
   -3.7664    1.5721   -0.0691 C   0  0  0  0  0  0  0  0  0  0  0  0
   -3.5476    2.6126   -0.6664 O   0  0  0  0  0  0  0  0  0  0  0  0
    3.6182   -0.6454    0.2332 C   0  0  0  0  0  0  0  0  0  0  0  0
    4.0008   -1.4123    1.3358 C   0  0  0  0  0  0  0  0  0  0  0  0
    5.2424   -1.1924    1.9282 C   0  0  0  0  0  0  0  0  0  0  0  0
    6.0633   -0.2139    1.3898 C   0  0  0  0  0  0  0  0  0  0  0  0
    5.7319    0.5362    0.3154 N   0  0  0  0  0  0  0  0  0  0  0  0
    4.5204    0.2951   -0.2453 C   0  0  0  0  0  0  0  0  0  0  0  0
    2.0963    1.1208   -0.9246 H   0  0  0  0  0  0  0  0  0  0  0  0
    0.3080   -0.8954   -2.1282 H   0  0  0  0  0  0  0  0  0  0  0  0
    0.3307    0.8550   -2.4170 H   0  0  0  0  0  0  0  0  0  0  0  0
   -0.5932    1.2556   -0.1303 H   0  0  0  0  0  0  0  0  0  0  0  0
   -0.5751   -0.4643    0.2094 H   0  0  0  0  0  0  0  0  0  0  0  0
   -2.2161   -0.8740   -1.6552 H   0  0  0  0  0  0  0  0  0  0  0  0
   -2.1860    0.8556   -2.0367 H   0  0  0  0  0  0  0  0  0  0  0  0
   -2.8392   -1.2956    1.0013 H   0  0  0  0  0  0  0  0  0  0  0  0
   -4.3260   -1.3042    0.0017 H   0  0  0  0  0  0  0  0  0  0  0  0
   -3.6853    0.3358    2.4878 H   0  0  0  0  0  0  0  0  0  0  0  0
   -5.2117   -0.4771    2.1095 H   0  0  0  0  0  0  0  0  0  0  0  0
   -5.7967    1.2442    0.4908 H   0  0  0  0  0  0  0  0  0  0  0  0
   -4.8593    2.2121    1.6775 H   0  0  0  0  0  0  0  0  0  0  0  0
    3.3353   -2.1762    1.7314 H   0  0  0  0  0  0  0  0  0  0  0  0
    5.5617   -1.7723    2.7872 H   0  0  0  0  0  0  0  0  0  0  0  0
    7.0401   -0.0049    1.8178 H   0  0  0  0  0  0  0  0  0  0  0  0
    4.3145    0.8931   -1.1275 H   0  0  0  0  0  0  0  0  0  0  0  0
  1  2  2  0
  2  3  1  0
  3  4  1  0
  4  5  1  0
  5  6  1  0
  6  7  1  0
  7  8  1  0
  8  9  1  0
  9 10  1  0
 10 11  1  0
 11 12  2  0
  2 13  1  0
 13 14  2  0
 14 15  1  0
 15 16  2  0
 16 17  1  0
 17 18  2  0
 11  7  1  0
 18 13  1  0
  3 19  1  0
  4 20  1  0
  4 21  1  0
  5 22  1  0
  5 23  1  0
  6 24  1  0
  6 25  1  0
  8 26  1  0
  8 27  1  0
  9 28  1  0
  9 29  1  0
 10 30  1  0
 10 31  1  0
 14 32  1  0
 15 33  1  0
 16 34  1  0
 18 35  1  0
M  END
$$$$
