
     RDKit          3D

 49 53  0  0  0  0  0  0  0  0999 V2000
    7.5937    0.5972    0.8934 C   0  0  0  0  0  0  0  0  0  0  0  0
    6.4981   -0.1152    0.2778 N   0  0  0  0  0  0  0  0  0  0  0  0
    6.5904   -1.1464   -0.6060 C   0  0  0  0  0  0  0  0  0  0  0  0
    5.2889   -1.4965   -0.8988 C   0  0  0  0  0  0  0  0  0  0  0  0
    4.8885   -2.5568   -1.7585 N   0  0  0  0  0  4  0  0  0  0  0  0
    4.2563   -3.4827   -1.2394 O   0  0  0  0  0  0  0  0  0  0  0  0
    5.2870   -2.4960   -2.9283 O   0  0  0  0  0  1  0  0  0  0  0  0
    4.4714   -0.6045   -0.1731 C   0  0  0  0  0  0  0  0  0  0  0  0
    3.0021   -0.5074   -0.1910 C   0  0  0  0  0  0  0  0  0  0  0  0
    2.3397   -1.1733   -0.9737 O   0  0  0  0  0  0  0  0  0  0  0  0
    2.5588    0.4117    0.7333 N   0  0  0  0  0  0  0  0  0  0  0  0
    1.2514    0.7518    0.9729 C   0  0  0  0  0  0  0  0  0  0  0  0
    0.8516    1.7147    1.9260 C   0  0  0  0  0  0  0  0  0  0  0  0
   -0.5210    1.7535    1.8533 C   0  0  0  0  0  0  0  0  0  0  0  0
   -0.8755    0.8446    0.8958 N   0  0  0  0  0  0  0  0  0  0  0  0
   -2.2191    0.4798    0.4218 C   0  0  0  0  0  0  0  0  0  0  0  0
   -3.3474    1.2899    1.1253 C   0  0  0  0  0  0  0  0  0  0  0  0
   -4.7346    0.8786    0.6032 C   0  0  0  0  0  0  0  0  0  0  0  0
   -4.9531   -0.6177    0.8737 C   0  0  0  0  0  0  0  0  0  0  0  0
   -3.8704   -1.4423    0.1614 C   0  0  0  0  0  0  0  0  0  0  0  0
   -3.9389   -1.1719   -1.3507 C   0  0  0  0  0  0  0  0  0  0  0  0
   -3.7203    0.3242   -1.6308 C   0  0  0  0  0  0  0  0  0  0  0  0
   -4.8036    1.1394   -0.9090 C   0  0  0  0  0  0  0  0  0  0  0  0
   -2.3354    0.7410   -1.1063 C   0  0  0  0  0  0  0  0  0  0  0  0
   -2.4855   -1.0282    0.6882 C   0  0  0  0  0  0  0  0  0  0  0  0
    0.1954    0.2315    0.3547 N   0  0  0  0  0  0  0  0  0  0  0  0
    5.2295    0.2345    0.5759 N   0  0  0  0  0  0  0  0  0  0  0  0
    8.5410    0.1759    0.5482 H   0  0  0  0  0  0  0  0  0  0  0  0
    7.5087    0.4881    1.9774 H   0  0  0  0  0  0  0  0  0  0  0  0
    7.5243    1.6488    0.6049 H   0  0  0  0  0  0  0  0  0  0  0  0
    7.5379   -1.5469   -0.9405 H   0  0  0  0  0  0  0  0  0  0  0  0
    3.2797    0.8835    1.2664 H   0  0  0  0  0  0  0  0  0  0  0  0
    1.4769    2.3042    2.5801 H   0  0  0  0  0  0  0  0  0  0  0  0
   -1.2434    2.3436    2.3977 H   0  0  0  0  0  0  0  0  0  0  0  0
   -3.2051    2.3660    0.9592 H   0  0  0  0  0  0  0  0  0  0  0  0
   -3.3119    1.1305    2.2113 H   0  0  0  0  0  0  0  0  0  0  0  0
   -5.5088    1.4624    1.1137 H   0  0  0  0  0  0  0  0  0  0  0  0
   -4.9239   -0.8124    1.9528 H   0  0  0  0  0  0  0  0  0  0  0  0
   -5.9470   -0.9208    0.5224 H   0  0  0  0  0  0  0  0  0  0  0  0
   -4.0334   -2.5087    0.3533 H   0  0  0  0  0  0  0  0  0  0  0  0
   -3.1789   -1.7662   -1.8728 H   0  0  0  0  0  0  0  0  0  0  0  0
   -4.9137   -1.4870   -1.7430 H   0  0  0  0  0  0  0  0  0  0  0  0
   -3.7766    0.5096   -2.7093 H   0  0  0  0  0  0  0  0  0  0  0  0
   -5.7950    0.8671   -1.2915 H   0  0  0  0  0  0  0  0  0  0  0  0
   -4.6667    2.2087   -1.1125 H   0  0  0  0  0  0  0  0  0  0  0  0
   -1.5646    0.1844   -1.6554 H   0  0  0  0  0  0  0  0  0  0  0  0
   -2.1595    1.8034   -1.3216 H   0  0  0  0  0  0  0  0  0  0  0  0
   -1.7197   -1.6489    0.2048 H   0  0  0  0  0  0  0  0  0  0  0  0
   -2.4179   -1.2387    1.7640 H   0  0  0  0  0  0  0  0  0  0  0  0
  1  2  1  0
  2  3  1  0
  3  4  2  0
  4  5  1  0
  5  6  2  0
  5  7  1  0
  4  8  1  0
  8  9  1  0
  9 10  2  0
  9 11  1  0
 11 12  1  0
 12 13  1  0
 13 14  2  0
 14 15  1  0
 15 16  1  0
 16 17  1  0
 17 18  1  0
 18 19  1  0
 19 20  1  0
 20 21  1  0
 21 22  1  0
 22 23  1  0
 22 24  1  0
 20 25  1  0
 15 26  1  0
  8 27  2  0
 27  2  1  0
 26 12  2  0
 24 16  1  0
 25 16  1  0
 23 18  1  0
  1 28  1  0
  1 29  1  0
  1 30  1  0
  3 31  1  0
 11 32  1  0
 13 33  1  0
 14 34  1  0
 17 35  1  0
 17 36  1  0
 18 37  1  0
 19 38  1  0
 19 39  1  0
 20 40  1  0
 21 41  1  0
 21 42  1  0
 22 43  1  0
 23 44  1  0
 23 45  1  0
 24 46  1  0
 24 47  1  0
 25 48  1  0
 25 49  1  0
M  CHG  2   5   1   7  -1
M  END
$$$$
