
     RDKit          3D

 36 38  0  0  0  0  0  0  0  0999 V2000
    2.6313   -2.7891   -1.9237 C   0  0  0  0  0  0  0  0  0  0  0  0
    2.4065   -1.2991   -1.6896 C   0  0  0  0  0  0  0  0  0  0  0  0
    3.3685   -0.8725   -0.7392 O   0  0  0  0  0  0  0  0  0  0  0  0
    3.0984    0.3672   -0.2248 C   0  0  0  0  0  0  0  0  0  0  0  0
    4.1941    1.0260    0.3396 C   0  0  0  0  0  0  0  0  0  0  0  0
    4.0308    2.2761    0.9279 C   0  0  0  0  0  0  0  0  0  0  0  0
    2.7675    2.8572    0.9659 C   0  0  0  0  0  0  0  0  0  0  0  0
    1.6663    2.1901    0.4159 C   0  0  0  0  0  0  0  0  0  0  0  0
    1.8151    0.9361   -0.1934 C   0  0  0  0  0  0  0  0  0  0  0  0
    0.7154    0.2104   -0.7360 N   0  0  0  0  0  0  0  0  0  0  0  0
   -0.6699    0.6186   -0.5246 C   0  0  0  0  0  0  0  0  0  0  0  0
   -1.2130    0.1404    0.8222 C   0  0  0  0  0  0  0  0  0  0  0  0
   -0.5021   -0.0163    1.8144 O   0  0  0  0  0  0  0  0  0  0  0  0
   -2.6811   -0.1015    0.9553 C   0  0  0  0  0  0  0  0  0  0  0  0
   -3.6156    0.4285    0.0540 C   0  0  0  0  0  0  0  0  0  0  0  0
   -4.9793    0.1762    0.2330 C   0  0  0  0  0  0  0  0  0  0  0  0
   -5.4045   -0.5958    1.3088 C   0  0  0  0  0  0  0  0  0  0  0  0
   -6.7120   -0.8313    1.4745 F   0  0  0  0  0  0  0  0  0  0  0  0
   -4.4926   -1.1208    2.2153 C   0  0  0  0  0  0  0  0  0  0  0  0
   -3.1298   -0.8717    2.0408 C   0  0  0  0  0  0  0  0  0  0  0  0
    0.9367   -1.0203   -1.3481 C   0  0  0  0  0  0  0  0  0  0  0  0
    0.0196   -1.7710   -1.6854 O   0  0  0  0  0  0  0  0  0  0  0  0
    3.6754   -2.9847   -2.1909 H   0  0  0  0  0  0  0  0  0  0  0  0
    2.4231   -3.3597   -1.0115 H   0  0  0  0  0  0  0  0  0  0  0  0
    1.9897   -3.1752   -2.7222 H   0  0  0  0  0  0  0  0  0  0  0  0
    2.6123   -0.7772   -2.6347 H   0  0  0  0  0  0  0  0  0  0  0  0
    5.1747    0.5576    0.3224 H   0  0  0  0  0  0  0  0  0  0  0  0
    4.8830    2.7878    1.3672 H   0  0  0  0  0  0  0  0  0  0  0  0
    2.6314    3.8265    1.4398 H   0  0  0  0  0  0  0  0  0  0  0  0
    0.7026    2.6791    0.5009 H   0  0  0  0  0  0  0  0  0  0  0  0
   -0.7775    1.7033   -0.6069 H   0  0  0  0  0  0  0  0  0  0  0  0
   -1.2730    0.1820   -1.3281 H   0  0  0  0  0  0  0  0  0  0  0  0
   -3.3164    1.0474   -0.7866 H   0  0  0  0  0  0  0  0  0  0  0  0
   -5.7144    0.5786   -0.4578 H   0  0  0  0  0  0  0  0  0  0  0  0
   -4.8443   -1.7187    3.0504 H   0  0  0  0  0  0  0  0  0  0  0  0
   -2.4169   -1.2841    2.7536 H   0  0  0  0  0  0  0  0  0  0  0  0
  1  2  1  0
  2  3  1  0
  3  4  1  0
  4  5  2  0
  5  6  1  0
  6  7  2  0
  7  8  1  0
  8  9  2  0
  9 10  1  0
 10 11  1  0
 11 12  1  0
 12 13  2  0
 12 14  1  0
 14 15  2  0
 15 16  1  0
 16 17  2  0
 17 18  1  0
 17 19  1  0
 19 20  2  0
 10 21  1  0
 21 22  2  0
 21  2  1  0
  9  4  1  0
 20 14  1  0
  1 23  1  0
  1 24  1  0
  1 25  1  0
  2 26  1  0
  5 27  1  0
  6 28  1  0
  7 29  1  0
  8 30  1  0
 11 31  1  0
 11 32  1  0
 15 33  1  0
 16 34  1  0
 19 35  1  0
 20 36  1  0
M  END
$$$$
