
     RDKit          3D

 58 61  0  0  0  0  0  0  0  0999 V2000
    1.4969   -0.2645   -1.3591 S   0  0  0  0  0  0  0  0  0  0  0  0
    1.3166   -0.0464    0.2920 C   0  0  0  0  0  0  0  0  0  0  0  0
    2.3421    0.5663    0.9626 N   0  0  0  0  0  0  0  0  0  0  0  0
    2.8252    0.1559    2.2767 C   0  0  0  0  0  0  0  0  0  0  0  0
    3.9586   -0.8688    2.1743 C   0  0  0  0  0  0  0  0  0  0  0  0
    5.3172   -0.2478    1.8109 C   0  0  0  0  0  0  0  0  0  0  0  0
    5.3540    0.4294    0.5054 N   0  0  0  0  0  0  0  0  0  0  0  0
    6.5365    1.3252    0.4389 C   0  0  0  0  0  0  0  0  0  0  0  0
    7.0149    1.5633   -1.0006 C   0  0  0  0  0  0  0  0  0  0  0  0
    7.4809    0.3581   -1.6226 O   0  0  0  0  0  0  0  0  0  0  0  0
    6.7901   -0.8143   -1.1668 C   0  0  0  0  0  0  0  0  0  0  0  0
    5.3776   -0.5199   -0.6351 C   0  0  0  0  0  0  0  0  0  0  0  0
    0.2210   -0.4281    1.0473 N   0  0  0  0  0  0  0  0  0  0  0  0
   -0.3693    0.5252    1.9996 C   0  0  0  0  0  0  0  0  0  0  0  0
   -1.5799    1.2634    1.3845 C   0  0  0  0  0  0  0  0  0  0  0  0
   -2.5734    0.3128    0.8412 N   0  0  0  0  0  0  0  0  0  0  0  0
   -3.8220    0.7632    0.4922 C   0  0  0  0  0  0  0  0  0  0  0  0
   -4.5921    0.1377   -0.3740 N   0  0  0  0  0  0  0  0  0  0  0  0
   -5.8116    0.7747   -0.5481 C   0  0  0  0  0  0  0  0  0  0  0  0
   -6.8106    0.2378   -1.4721 C   0  0  0  0  0  0  0  0  0  0  0  0
   -6.4356   -0.7656   -2.3799 C   0  0  0  0  0  0  0  0  0  0  0  0
   -7.3616   -1.3114   -3.2735 C   0  0  0  0  0  0  0  0  0  0  0  0
   -8.6791   -0.8617   -3.2714 C   0  0  0  0  0  0  0  0  0  0  0  0
   -9.0708    0.1307   -2.3755 C   0  0  0  0  0  0  0  0  0  0  0  0
   -8.1435    0.6765   -1.4805 C   0  0  0  0  0  0  0  0  0  0  0  0
   -5.9602    1.9197    0.2043 C   0  0  0  0  0  0  0  0  0  0  0  0
   -4.5692    2.1761    1.1647 S   0  0  0  0  0  0  0  0  0  0  0  0
   -1.9967   -0.7065   -0.0717 C   0  0  0  0  0  0  0  0  0  0  0  0
   -0.7790   -1.3962    0.5687 C   0  0  0  0  0  0  0  0  0  0  0  0
    3.1029    0.8460    0.3450 H   0  0  0  0  0  0  0  0  0  0  0  0
    3.1582    1.0580    2.7993 H   0  0  0  0  0  0  0  0  0  0  0  0
    2.0129   -0.2928    2.8537 H   0  0  0  0  0  0  0  0  0  0  0  0
    3.6902   -1.6686    1.4755 H   0  0  0  0  0  0  0  0  0  0  0  0
    4.0731   -1.3436    3.1567 H   0  0  0  0  0  0  0  0  0  0  0  0
    5.5544    0.4795    2.5994 H   0  0  0  0  0  0  0  0  0  0  0  0
    6.0930   -1.0227    1.8629 H   0  0  0  0  0  0  0  0  0  0  0  0
    7.3740    0.8888    0.9994 H   0  0  0  0  0  0  0  0  0  0  0  0
    6.2813    2.2820    0.9068 H   0  0  0  0  0  0  0  0  0  0  0  0
    6.2162    1.9907   -1.6193 H   0  0  0  0  0  0  0  0  0  0  0  0
    7.8473    2.2746   -1.0072 H   0  0  0  0  0  0  0  0  0  0  0  0
    7.4052   -1.2912   -0.3939 H   0  0  0  0  0  0  0  0  0  0  0  0
    6.7342   -1.5092   -2.0107 H   0  0  0  0  0  0  0  0  0  0  0  0
    4.8666   -1.4586   -0.4003 H   0  0  0  0  0  0  0  0  0  0  0  0
    4.8053   -0.0518   -1.4458 H   0  0  0  0  0  0  0  0  0  0  0  0
    0.3587    1.2734    2.3256 H   0  0  0  0  0  0  0  0  0  0  0  0
   -0.6839   -0.0503    2.8793 H   0  0  0  0  0  0  0  0  0  0  0  0
   -2.0105    1.8818    2.1798 H   0  0  0  0  0  0  0  0  0  0  0  0
   -1.2357    1.9294    0.5814 H   0  0  0  0  0  0  0  0  0  0  0  0
   -5.4103   -1.1317   -2.3954 H   0  0  0  0  0  0  0  0  0  0  0  0
   -7.0502   -2.0882   -3.9669 H   0  0  0  0  0  0  0  0  0  0  0  0
   -9.4009   -1.2873   -3.9638 H   0  0  0  0  0  0  0  0  0  0  0  0
  -10.1010    0.4788   -2.3687 H   0  0  0  0  0  0  0  0  0  0  0  0
   -8.4917    1.4375   -0.7883 H   0  0  0  0  0  0  0  0  0  0  0  0
   -6.7883    2.6094    0.2514 H   0  0  0  0  0  0  0  0  0  0  0  0
   -1.7113   -0.2241   -1.0146 H   0  0  0  0  0  0  0  0  0  0  0  0
   -2.7320   -1.4877   -0.3007 H   0  0  0  0  0  0  0  0  0  0  0  0
   -1.1061   -1.9635    1.4485 H   0  0  0  0  0  0  0  0  0  0  0  0
   -0.3287   -2.1150   -0.1214 H   0  0  0  0  0  0  0  0  0  0  0  0
  1  2  2  0
  2  3  1  0
  3  4  1  0
  4  5  1  0
  5  6  1  0
  6  7  1  0
  7  8  1  0
  8  9  1  0
  9 10  1  0
 10 11  1  0
 11 12  1  0
  2 13  1  0
 13 14  1  0
 14 15  1  0
 15 16  1  0
 16 17  1  0
 17 18  2  0
 18 19  1  0
 19 20  1  0
 20 21  2  0
 21 22  1  0
 22 23  2  0
 23 24  1  0
 24 25  2  0
 19 26  2  0
 26 27  1  0
 16 28  1  0
 28 29  1  0
 12  7  1  0
 29 13  1  0
 27 17  1  0
 25 20  1  0
  3 30  1  0
  4 31  1  0
  4 32  1  0
  5 33  1  0
  5 34  1  0
  6 35  1  0
  6 36  1  0
  8 37  1  0
  8 38  1  0
  9 39  1  0
  9 40  1  0
 11 41  1  0
 11 42  1  0
 12 43  1  0
 12 44  1  0
 14 45  1  0
 14 46  1  0
 15 47  1  0
 15 48  1  0
 21 49  1  0
 22 50  1  0
 23 51  1  0
 24 52  1  0
 25 53  1  0
 26 54  1  0
 28 55  1  0
 28 56  1  0
 29 57  1  0
 29 58  1  0
M  END
$$$$
