
     RDKit          3D

 45 47  0  0  0  0  0  0  0  0999 V2000
   -5.9991   -0.8833    0.3802 C   0  0  0  0  0  0  0  0  0  0  0  0
   -5.3831   -0.5061   -0.9605 C   0  0  0  0  0  0  0  0  0  0  0  0
   -4.2395    0.4011   -0.7959 N   0  0  0  0  0  0  0  0  0  0  0  0
   -4.4296    1.7855   -1.2486 C   0  0  0  0  0  0  0  0  0  0  0  0
   -5.0439    2.6449   -0.1542 C   0  0  0  0  0  0  0  0  0  0  0  0
   -3.0138   -0.0339   -0.3004 C   0  0  0  0  0  0  0  0  0  0  0  0
   -2.6876   -1.3956   -0.1915 C   0  0  0  0  0  0  0  0  0  0  0  0
   -1.4503   -1.8379    0.3039 C   0  0  0  0  0  0  0  0  0  0  0  0
   -0.4768   -0.9256    0.7070 C   0  0  0  0  0  0  0  0  0  0  0  0
    0.7815   -1.4273    1.2661 C   0  0  0  0  0  0  0  0  0  0  0  0
    2.0260   -1.0627    0.9293 C   0  0  0  0  0  0  0  0  0  0  0  0
    3.2056   -1.6893    1.5892 C   0  0  0  0  0  0  0  0  0  0  0  0
    3.2228   -2.5333    2.4602 O   0  0  0  0  0  0  0  0  0  0  0  0
    4.3792   -1.0721    0.9628 C   0  0  0  0  0  0  0  0  0  0  0  0
    5.7139   -1.3166    1.2310 C   0  0  0  0  0  0  0  0  0  0  0  0
    6.6646   -0.5975    0.4961 C   0  0  0  0  0  0  0  0  0  0  0  0
    6.2675    0.3436   -0.4842 C   0  0  0  0  0  0  0  0  0  0  0  0
    7.2609    1.1148   -1.2716 C   0  0  0  0  0  0  0  0  0  0  0  0
    7.0024    1.9422   -2.1243 O   0  0  0  0  0  0  0  0  0  0  0  0
    8.5291    0.8095   -0.9499 O   0  0  0  0  0  0  0  0  0  0  0  0
    4.9067    0.5736   -0.7380 C   0  0  0  0  0  0  0  0  0  0  0  0
    3.9840   -0.1481    0.0000 C   0  0  0  0  0  0  0  0  0  0  0  0
    2.5188   -0.0856   -0.0806 C   0  0  0  0  0  0  0  0  0  0  0  0
    1.8969    0.6340   -0.8308 O   0  0  0  0  0  0  0  0  0  0  0  0
   -0.7798    0.4302    0.6331 C   0  0  0  0  0  0  0  0  0  0  0  0
   -2.0196    0.8601    0.1319 C   0  0  0  0  0  0  0  0  0  0  0  0
   -5.2973   -1.4329    1.0141 H   0  0  0  0  0  0  0  0  0  0  0  0
   -6.3185    0.0058    0.9328 H   0  0  0  0  0  0  0  0  0  0  0  0
   -6.8771   -1.5183    0.2247 H   0  0  0  0  0  0  0  0  0  0  0  0
   -6.1647   -0.0224   -1.5598 H   0  0  0  0  0  0  0  0  0  0  0  0
   -5.1037   -1.3997   -1.5294 H   0  0  0  0  0  0  0  0  0  0  0  0
   -5.0930    1.8017   -2.1226 H   0  0  0  0  0  0  0  0  0  0  0  0
   -3.4940    2.2304   -1.6068 H   0  0  0  0  0  0  0  0  0  0  0  0
   -6.0427    2.2863    0.1136 H   0  0  0  0  0  0  0  0  0  0  0  0
   -4.4338    2.6424    0.7541 H   0  0  0  0  0  0  0  0  0  0  0  0
   -5.1411    3.6798   -0.4972 H   0  0  0  0  0  0  0  0  0  0  0  0
   -3.3883   -2.1633   -0.5033 H   0  0  0  0  0  0  0  0  0  0  0  0
   -1.2634   -2.9078    0.3601 H   0  0  0  0  0  0  0  0  0  0  0  0
    0.6507   -2.1997    2.0245 H   0  0  0  0  0  0  0  0  0  0  0  0
    6.0116   -2.0403    1.9844 H   0  0  0  0  0  0  0  0  0  0  0  0
    7.7219   -0.7736    0.6904 H   0  0  0  0  0  0  0  0  0  0  0  0
    9.0675    1.3821   -1.5370 H   0  0  0  0  0  0  0  0  0  0  0  0
    4.5796    1.2914   -1.4867 H   0  0  0  0  0  0  0  0  0  0  0  0
   -0.0640    1.1808    0.9583 H   0  0  0  0  0  0  0  0  0  0  0  0
   -2.1865    1.9326    0.1104 H   0  0  0  0  0  0  0  0  0  0  0  0
  1  2  1  0
  2  3  1  0
  3  4  1  0
  4  5  1  0
  3  6  1  0
  6  7  2  0
  7  8  1  0
  8  9  2  0
  9 10  1  0
 10 11  2  3
 11 12  1  0
 12 13  2  0
 12 14  1  0
 14 15  2  0
 15 16  1  0
 16 17  2  0
 17 18  1  0
 18 19  2  0
 18 20  1  0
 17 21  1  0
 21 22  2  0
 22 23  1  0
 23 24  2  0
  9 25  1  0
 25 26  2  0
 26  6  1  0
 23 11  1  0
 22 14  1  0
  1 27  1  0
  1 28  1  0
  1 29  1  0
  2 30  1  0
  2 31  1  0
  4 32  1  0
  4 33  1  0
  5 34  1  0
  5 35  1  0
  5 36  1  0
  7 37  1  0
  8 38  1  0
 10 39  1  0
 15 40  1  0
 16 41  1  0
 20 42  1  0
 21 43  1  0
 25 44  1  0
 26 45  1  0
M  END
$$$$
