
     RDKit          3D

 47 50  0  0  0  0  0  0  0  0999 V2000
    3.5426   -1.8677    1.0912 C   0  0  0  0  0  0  0  0  0  0  0  0
    3.0672   -0.5125    0.9260 N   0  0  0  0  0  0  0  0  0  0  0  0
    3.8371    0.6362    0.9562 C   0  0  0  0  0  0  0  0  0  0  0  0
    5.2681    0.7063    1.2252 C   0  0  0  0  0  0  0  0  0  0  0  0
    5.7900    0.2599    2.4460 C   0  0  0  0  0  0  0  0  0  0  0  0
    7.1616    0.3358    2.6982 C   0  0  0  0  0  0  0  0  0  0  0  0
    8.0196    0.8630    1.7342 C   0  0  0  0  0  0  0  0  0  0  0  0
    7.5077    1.3195    0.5208 C   0  0  0  0  0  0  0  0  0  0  0  0
    6.1362    1.2441    0.2680 C   0  0  0  0  0  0  0  0  0  0  0  0
    2.9412    1.6485    0.6610 C   0  0  0  0  0  0  0  0  0  0  0  0
    1.6700    1.1671    0.4964 N   0  0  0  0  0  0  0  0  0  0  0  0
    1.7725   -0.1285    0.6787 C   0  0  0  0  0  0  0  0  0  0  0  0
    0.4486   -1.2443    0.6243 S   0  0  0  0  0  0  0  0  0  0  0  0
   -0.9298   -0.0836    0.3753 C   0  0  0  0  0  0  0  0  0  0  0  0
   -2.2749   -0.8082    0.2905 C   0  0  0  0  0  0  0  0  0  0  0  0
   -2.4540   -1.8712    0.8893 O   0  0  0  0  0  0  0  0  0  0  0  0
   -3.2689   -0.1571   -0.4748 N   0  0  0  0  0  0  0  0  0  0  0  0
   -3.1639    1.2806   -0.7567 C   0  0  0  0  0  0  0  0  0  0  0  0
   -4.5084    1.9836   -0.7529 C   0  0  0  0  0  0  0  0  0  0  0  0
   -5.3896    1.3717   -1.8202 C   0  0  0  0  0  0  0  0  0  0  0  0
   -5.4333   -0.1266   -1.6842 C   0  0  0  0  0  0  0  0  0  0  0  0
   -6.5226   -0.8004   -2.2697 C   0  0  0  0  0  0  0  0  0  0  0  0
   -6.6192   -2.1858   -2.2067 C   0  0  0  0  0  0  0  0  0  0  0  0
   -5.6204   -2.9090   -1.5719 C   0  0  0  0  0  0  0  0  0  0  0  0
   -4.5264   -2.2488   -1.0002 C   0  0  0  0  0  0  0  0  0  0  0  0
   -4.4076   -0.8504   -1.0340 C   0  0  0  0  0  0  0  0  0  0  0  0
    3.3284   -2.1824    2.1156 H   0  0  0  0  0  0  0  0  0  0  0  0
    3.0423   -2.5207    0.3720 H   0  0  0  0  0  0  0  0  0  0  0  0
    4.6164   -1.9150    0.8974 H   0  0  0  0  0  0  0  0  0  0  0  0
    5.1309   -0.1343    3.2151 H   0  0  0  0  0  0  0  0  0  0  0  0
    7.5591   -0.0102    3.6489 H   0  0  0  0  0  0  0  0  0  0  0  0
    9.0868    0.9241    1.9316 H   0  0  0  0  0  0  0  0  0  0  0  0
    8.1752    1.7371   -0.2288 H   0  0  0  0  0  0  0  0  0  0  0  0
    5.7502    1.6047   -0.6836 H   0  0  0  0  0  0  0  0  0  0  0  0
    3.1538    2.7064    0.5754 H   0  0  0  0  0  0  0  0  0  0  0  0
   -0.7352    0.4507   -0.5590 H   0  0  0  0  0  0  0  0  0  0  0  0
   -0.9724    0.6202    1.2124 H   0  0  0  0  0  0  0  0  0  0  0  0
   -2.5386    1.7655   -0.0005 H   0  0  0  0  0  0  0  0  0  0  0  0
   -2.6615    1.3935   -1.7254 H   0  0  0  0  0  0  0  0  0  0  0  0
   -4.9795    1.8776    0.2330 H   0  0  0  0  0  0  0  0  0  0  0  0
   -4.3795    3.0552   -0.9411 H   0  0  0  0  0  0  0  0  0  0  0  0
   -5.0053    1.6207   -2.8175 H   0  0  0  0  0  0  0  0  0  0  0  0
   -6.3983    1.7944   -1.7355 H   0  0  0  0  0  0  0  0  0  0  0  0
   -7.3040   -0.2392   -2.7781 H   0  0  0  0  0  0  0  0  0  0  0  0
   -7.4657   -2.6980   -2.6554 H   0  0  0  0  0  0  0  0  0  0  0  0
   -5.6784   -3.9934   -1.5220 H   0  0  0  0  0  0  0  0  0  0  0  0
   -3.7681   -2.8792   -0.5473 H   0  0  0  0  0  0  0  0  0  0  0  0
  1  2  1  0
  2  3  1  0
  3  4  1  0
  4  5  2  0
  5  6  1  0
  6  7  2  0
  7  8  1  0
  8  9  2  0
  3 10  2  0
 10 11  1  0
 11 12  2  0
 12 13  1  0
 13 14  1  0
 14 15  1  0
 15 16  2  0
 15 17  1  0
 17 18  1  0
 18 19  1  0
 19 20  1  0
 20 21  1  0
 21 22  2  0
 22 23  1  0
 23 24  2  0
 24 25  1  0
 25 26  2  0
 12  2  1  0
 26 17  1  0
  9  4  1  0
 26 21  1  0
  1 27  1  0
  1 28  1  0
  1 29  1  0
  5 30  1  0
  6 31  1  0
  7 32  1  0
  8 33  1  0
  9 34  1  0
 10 35  1  0
 14 36  1  0
 14 37  1  0
 18 38  1  0
 18 39  1  0
 19 40  1  0
 19 41  1  0
 20 42  1  0
 20 43  1  0
 22 44  1  0
 23 45  1  0
 24 46  1  0
 25 47  1  0
M  END
$$$$
