
     RDKit          3D

 61 65  0  0  0  0  0  0  0  0999 V2000
   -9.8219    2.9619    0.2476 C   0  0  0  0  0  0  0  0  0  0  0  0
   -9.6728    1.6226   -0.2061 O   0  0  0  0  0  0  0  0  0  0  0  0
   -8.4036    1.1152   -0.2209 C   0  0  0  0  0  0  0  0  0  0  0  0
   -8.3045   -0.2062   -0.6533 C   0  0  0  0  0  0  0  0  0  0  0  0
   -7.0629   -0.8517   -0.7189 C   0  0  0  0  0  0  0  0  0  0  0  0
   -5.8899   -0.1827   -0.3495 C   0  0  0  0  0  0  0  0  0  0  0  0
   -4.6073   -0.8324   -0.4157 N   0  0  0  0  0  0  0  0  0  0  0  0
   -4.2664   -1.9522   -1.1893 C   0  0  0  0  0  0  0  0  0  0  0  0
   -5.1221   -2.5563   -2.0128 O   0  0  0  0  0  0  0  0  0  0  0  0
   -2.9332   -2.2440   -0.9842 C   0  0  0  0  0  0  0  0  0  0  0  0
   -2.4111   -1.2865   -0.0985 C   0  0  0  0  0  0  0  0  0  0  0  0
   -1.1266   -1.1846    0.3560 N   0  0  0  0  0  0  0  0  0  0  0  0
   -0.4554    0.1406    0.3252 C   0  0  0  0  0  0  0  0  0  0  0  0
    0.9608    0.0872   -0.2929 C   0  0  0  0  0  0  0  0  0  0  0  0
    1.8188   -0.8874    0.4034 N   0  0  0  0  0  0  0  0  0  0  0  0
    3.2006   -0.8120    0.3651 C   0  0  0  0  0  0  0  0  0  0  0  0
    3.9998   -1.5254    1.2746 C   0  0  0  0  0  0  0  0  0  0  0  0
    5.3986   -1.4533    1.2524 C   0  0  0  0  0  0  0  0  0  0  0  0
    6.0412   -0.6427    0.3192 C   0  0  0  0  0  0  0  0  0  0  0  0
    7.5237   -0.5984    0.3153 C   0  0  0  0  0  0  0  0  0  0  0  0
    8.1544   -1.6171    0.5830 O   0  0  0  0  0  0  0  0  0  0  0  0
    8.2617    0.6427    0.0005 C   0  0  0  0  0  0  0  0  0  0  0  0
    7.7894    1.9142    0.3328 C   0  0  0  0  0  0  0  0  0  0  0  0
    8.5568    3.0316    0.0088 C   0  0  0  0  0  0  0  0  0  0  0  0
    9.7726    2.8358   -0.6281 C   0  0  0  0  0  0  0  0  0  0  0  0
   10.2636    1.6192   -0.9484 N   0  0  0  0  0  0  0  0  0  0  0  0
    9.5030    0.5468   -0.6149 C   0  0  0  0  0  0  0  0  0  0  0  0
    5.2789    0.0657   -0.6086 C   0  0  0  0  0  0  0  0  0  0  0  0
    3.8794   -0.0167   -0.5732 C   0  0  0  0  0  0  0  0  0  0  0  0
    1.1394   -2.0837    0.9412 C   0  0  0  0  0  0  0  0  0  0  0  0
   -0.2120   -2.3402    0.2371 C   0  0  0  0  0  0  0  0  0  0  0  0
   -3.4548   -0.4731    0.2949 C   0  0  0  0  0  0  0  0  0  0  0  0
   -3.4491    0.4521    1.2572 O   0  0  0  0  0  0  0  0  0  0  0  0
   -5.9984    1.1474    0.0826 C   0  0  0  0  0  0  0  0  0  0  0  0
   -7.2437    1.7906    0.1466 C   0  0  0  0  0  0  0  0  0  0  0  0
   -9.5002    3.0638    1.2893 H   0  0  0  0  0  0  0  0  0  0  0  0
  -10.8857    3.2142    0.2014 H   0  0  0  0  0  0  0  0  0  0  0  0
   -9.2860    3.6614   -0.4026 H   0  0  0  0  0  0  0  0  0  0  0  0
   -9.2031   -0.7473   -0.9389 H   0  0  0  0  0  0  0  0  0  0  0  0
   -7.0598   -1.8906   -1.0313 H   0  0  0  0  0  0  0  0  0  0  0  0
   -4.6420   -3.2701   -2.4678 H   0  0  0  0  0  0  0  0  0  0  0  0
   -2.3944   -3.0464   -1.4668 H   0  0  0  0  0  0  0  0  0  0  0  0
   -1.0452    0.8728   -0.2404 H   0  0  0  0  0  0  0  0  0  0  0  0
   -0.3810    0.5043    1.3576 H   0  0  0  0  0  0  0  0  0  0  0  0
    0.8918   -0.1822   -1.3541 H   0  0  0  0  0  0  0  0  0  0  0  0
    1.3851    1.0960   -0.2224 H   0  0  0  0  0  0  0  0  0  0  0  0
    3.5433   -2.1448    2.0422 H   0  0  0  0  0  0  0  0  0  0  0  0
    5.9782   -2.0288    1.9714 H   0  0  0  0  0  0  0  0  0  0  0  0
    6.8468    2.0492    0.8554 H   0  0  0  0  0  0  0  0  0  0  0  0
    8.2194    4.0327    0.2549 H   0  0  0  0  0  0  0  0  0  0  0  0
   10.4056    3.6764   -0.8994 H   0  0  0  0  0  0  0  0  0  0  0  0
    9.9334   -0.4187   -0.8703 H   0  0  0  0  0  0  0  0  0  0  0  0
    5.7480    0.6686   -1.3816 H   0  0  0  0  0  0  0  0  0  0  0  0
    3.3281    0.5380   -1.3277 H   0  0  0  0  0  0  0  0  0  0  0  0
    0.9757   -1.9432    2.0163 H   0  0  0  0  0  0  0  0  0  0  0  0
    1.7535   -2.9815    0.8020 H   0  0  0  0  0  0  0  0  0  0  0  0
   -0.6764   -3.2260    0.6871 H   0  0  0  0  0  0  0  0  0  0  0  0
   -0.0276   -2.5566   -0.8233 H   0  0  0  0  0  0  0  0  0  0  0  0
   -2.6284    0.2792    1.7548 H   0  0  0  0  0  0  0  0  0  0  0  0
   -5.1230    1.7315    0.3499 H   0  0  0  0  0  0  0  0  0  0  0  0
   -7.2629    2.8214    0.4837 H   0  0  0  0  0  0  0  0  0  0  0  0
  1  2  1  0
  2  3  1  0
  3  4  2  0
  4  5  1  0
  5  6  2  0
  6  7  1  0
  7  8  1  0
  8  9  1  0
  8 10  2  0
 10 11  1  0
 11 12  1  0
 12 13  1  0
 13 14  1  0
 14 15  1  0
 15 16  1  0
 16 17  2  0
 17 18  1  0
 18 19  2  0
 19 20  1  0
 20 21  2  0
 20 22  1  0
 22 23  2  0
 23 24  1  0
 24 25  2  0
 25 26  1  0
 26 27  2  0
 19 28  1  0
 28 29  2  0
 15 30  1  0
 30 31  1  0
 11 32  2  0
 32 33  1  0
  6 34  1  0
 34 35  2  0
 35  3  1  0
 32  7  1  0
 31 12  1  0
 29 16  1  0
 27 22  1  0
  1 36  1  0
  1 37  1  0
  1 38  1  0
  4 39  1  0
  5 40  1  0
  9 41  1  0
 10 42  1  0
 13 43  1  0
 13 44  1  0
 14 45  1  0
 14 46  1  0
 17 47  1  0
 18 48  1  0
 23 49  1  0
 24 50  1  0
 25 51  1  0
 27 52  1  0
 28 53  1  0
 29 54  1  0
 30 55  1  0
 30 56  1  0
 31 57  1  0
 31 58  1  0
 33 59  1  0
 34 60  1  0
 35 61  1  0
M  END
$$$$
