
     RDKit          3D

 48 51  0  0  0  0  0  0  0  0999 V2000
    4.3415   -4.1717    0.6917 C   0  0  0  0  0  0  0  0  0  0  0  0
    4.0590   -2.6893    0.8493 C   0  0  0  0  0  0  0  0  0  0  0  0
    2.8507   -2.3684    0.1526 O   0  0  0  0  0  0  0  0  0  0  0  0
    2.9944   -1.3912   -0.8014 C   0  0  0  0  0  0  0  0  0  0  0  0
    3.9116   -1.5629   -1.8486 C   0  0  0  0  0  0  0  0  0  0  0  0
    4.0039   -0.6169   -2.8678 C   0  0  0  0  0  0  0  0  0  0  0  0
    3.1652    0.4916   -2.8598 C   0  0  0  0  0  0  0  0  0  0  0  0
    2.2311    0.6496   -1.8329 C   0  0  0  0  0  0  0  0  0  0  0  0
    2.1224   -0.2855   -0.7814 C   0  0  0  0  0  0  0  0  0  0  0  0
    1.1196   -0.0785    0.2732 C   0  0  0  0  0  0  0  0  0  0  0  0
    1.5001   -0.2572    1.5587 N   0  0  0  0  0  0  0  0  0  0  0  0
    0.5530   -0.0277    2.5016 C   0  0  0  0  0  0  0  0  0  0  0  0
    0.9569   -0.2175    3.9224 C   0  0  0  0  0  0  0  0  0  0  0  0
    2.2544   -0.6057    4.1190 N   0  0  0  0  0  0  0  0  0  0  0  0
    0.1867   -0.0353    4.8570 O   0  0  0  0  0  0  0  0  0  0  0  0
   -0.7080    0.3753    2.1778 C   0  0  0  0  0  0  0  0  0  0  0  0
   -1.8189    0.6894    2.9435 N   0  0  0  0  0  0  0  0  0  0  0  0
   -2.8581    1.0769    2.0868 C   0  0  0  0  0  0  0  0  0  0  0  0
   -3.9613    1.4082    2.4892 O   0  0  0  0  0  0  0  0  0  0  0  0
   -2.3451    0.9814    0.7563 N   0  0  0  0  0  0  0  0  0  0  0  0
   -3.0338    1.2795   -0.4517 C   0  0  0  0  0  0  0  0  0  0  0  0
   -2.5211    0.9645   -1.7193 C   0  0  0  0  0  0  0  0  0  0  0  0
   -3.2249    1.2632   -2.8928 C   0  0  0  0  0  0  0  0  0  0  0  0
   -4.4638    1.8892   -2.8289 C   0  0  0  0  0  0  0  0  0  0  0  0
   -5.0041    2.2274   -1.5896 C   0  0  0  0  0  0  0  0  0  0  0  0
   -6.3573    2.8699   -1.4976 C   0  0  0  0  0  0  0  0  0  0  0  0
   -4.2925    1.9069   -0.4184 C   0  0  0  0  0  0  0  0  0  0  0  0
   -0.9983    0.5433    0.8459 C   0  0  0  0  0  0  0  0  0  0  0  0
   -0.1026    0.3429   -0.1254 N   0  0  0  0  0  0  0  0  0  0  0  0
    3.4922   -4.7655    1.0456 H   0  0  0  0  0  0  0  0  0  0  0  0
    5.2326   -4.4600    1.2564 H   0  0  0  0  0  0  0  0  0  0  0  0
    4.4935   -4.4299   -0.3610 H   0  0  0  0  0  0  0  0  0  0  0  0
    4.9226   -2.0930    0.5305 H   0  0  0  0  0  0  0  0  0  0  0  0
    3.8904   -2.4661    1.9083 H   0  0  0  0  0  0  0  0  0  0  0  0
    4.5423   -2.4461   -1.8915 H   0  0  0  0  0  0  0  0  0  0  0  0
    4.7178   -0.7547   -3.6759 H   0  0  0  0  0  0  0  0  0  0  0  0
    3.2257    1.2284   -3.6570 H   0  0  0  0  0  0  0  0  0  0  0  0
    1.5736    1.5184   -1.8540 H   0  0  0  0  0  0  0  0  0  0  0  0
    2.8692   -0.7379    3.3240 H   0  0  0  0  0  0  0  0  0  0  0  0
    2.5969   -0.7457    5.0588 H   0  0  0  0  0  0  0  0  0  0  0  0
   -1.8733    0.6550    3.9548 H   0  0  0  0  0  0  0  0  0  0  0  0
   -1.5748    0.4515   -1.8472 H   0  0  0  0  0  0  0  0  0  0  0  0
   -2.8019    0.9937   -3.8574 H   0  0  0  0  0  0  0  0  0  0  0  0
   -5.0036    2.1071   -3.7471 H   0  0  0  0  0  0  0  0  0  0  0  0
   -6.4083    3.5512   -0.6418 H   0  0  0  0  0  0  0  0  0  0  0  0
   -7.1289    2.1016   -1.3870 H   0  0  0  0  0  0  0  0  0  0  0  0
   -6.5729    3.4602   -2.3946 H   0  0  0  0  0  0  0  0  0  0  0  0
   -4.7536    2.1804    0.5268 H   0  0  0  0  0  0  0  0  0  0  0  0
  1  2  1  0
  2  3  1  0
  3  4  1  0
  4  5  2  0
  5  6  1  0
  6  7  2  0
  7  8  1  0
  8  9  2  0
  9 10  1  0
 10 11  2  0
 11 12  1  0
 12 13  1  0
 13 14  1  0
 13 15  2  0
 12 16  2  0
 16 17  1  0
 17 18  1  0
 18 19  2  0
 18 20  1  0
 20 21  1  0
 21 22  2  0
 22 23  1  0
 23 24  2  0
 24 25  1  0
 25 26  1  0
 25 27  2  0
 20 28  1  0
 28 29  2  0
  9  4  1  0
 29 10  1  0
 28 16  1  0
 27 21  1  0
  1 30  1  0
  1 31  1  0
  1 32  1  0
  2 33  1  0
  2 34  1  0
  5 35  1  0
  6 36  1  0
  7 37  1  0
  8 38  1  0
 14 39  1  0
 14 40  1  0
 17 41  1  0
 22 42  1  0
 23 43  1  0
 24 44  1  0
 26 45  1  0
 26 46  1  0
 26 47  1  0
 27 48  1  0
M  END
$$$$
