
     RDKit          3D

 36 38  0  0  0  0  0  0  0  0999 V2000
   -0.3950    3.4899    2.7461 N   0  0  0  0  0  0  0  0  0  0  0  0
   -0.2599    2.4895    2.1703 C   0  0  0  0  0  0  0  0  0  0  0  0
   -0.1308    1.2531    1.4729 C   0  0  0  0  0  0  0  0  0  0  0  0
    1.0722    0.8795    0.9124 N   0  0  0  0  0  0  0  0  0  0  0  0
    0.7953   -0.2815    0.3518 C   0  0  0  0  0  0  0  0  0  0  0  0
    1.6909   -1.1831   -0.4222 C   0  0  0  0  0  0  0  0  0  0  0  0
    1.6072   -0.7775   -1.7968 O   0  0  0  0  0  0  0  0  0  0  0  0
    2.8487   -0.5337   -2.3203 C   0  0  0  0  0  0  0  0  0  0  0  0
    3.2499    0.7996   -2.4208 C   0  0  0  0  0  0  0  0  0  0  0  0
    4.4926    1.1082   -2.9753 C   0  0  0  0  0  0  0  0  0  0  0  0
    5.3185    0.0834   -3.4384 C   0  0  0  0  0  0  0  0  0  0  0  0
    6.8499    0.4684   -4.1220 Cl  0  0  0  0  0  0  0  0  0  0  0  0
    4.9145   -1.2488   -3.3577 C   0  0  0  0  0  0  0  0  0  0  0  0
    3.6723   -1.5578   -2.8028 C   0  0  0  0  0  0  0  0  0  0  0  0
    3.1875   -3.2120   -2.7327 Cl  0  0  0  0  0  0  0  0  0  0  0  0
   -0.4976   -0.6955    0.5149 O   0  0  0  0  0  0  0  0  0  0  0  0
   -1.1057    0.2988    1.2395 C   0  0  0  0  0  0  0  0  0  0  0  0
   -2.4169    0.1231    1.5441 N   0  0  0  0  0  0  0  0  0  0  0  0
   -3.2121   -0.9320    0.8976 C   0  0  0  0  0  0  0  0  0  0  0  0
   -4.6538   -0.4449    0.6785 C   0  0  0  0  0  0  0  0  0  0  0  0
   -5.3308   -0.0591    1.8828 O   0  0  0  0  0  0  0  0  0  0  0  0
   -4.4476    0.3992    2.9152 C   0  0  0  0  0  0  0  0  0  0  0  0
   -3.1636    1.0627    2.3894 C   0  0  0  0  0  0  0  0  0  0  0  0
    2.7085   -1.1283   -0.0136 H   0  0  0  0  0  0  0  0  0  0  0  0
    1.3454   -2.2197   -0.3473 H   0  0  0  0  0  0  0  0  0  0  0  0
    2.5987    1.5950   -2.0655 H   0  0  0  0  0  0  0  0  0  0  0  0
    4.8079    2.1464   -3.0468 H   0  0  0  0  0  0  0  0  0  0  0  0
    5.5609   -2.0387   -3.7305 H   0  0  0  0  0  0  0  0  0  0  0  0
   -3.2102   -1.8160    1.5457 H   0  0  0  0  0  0  0  0  0  0  0  0
   -2.7963   -1.2184   -0.0752 H   0  0  0  0  0  0  0  0  0  0  0  0
   -5.2494   -1.2317    0.2046 H   0  0  0  0  0  0  0  0  0  0  0  0
   -4.6618    0.4206    0.0054 H   0  0  0  0  0  0  0  0  0  0  0  0
   -5.0073    1.1039    3.5384 H   0  0  0  0  0  0  0  0  0  0  0  0
   -4.1978   -0.4641    3.5435 H   0  0  0  0  0  0  0  0  0  0  0  0
   -3.4197    1.9492    1.7977 H   0  0  0  0  0  0  0  0  0  0  0  0
   -2.5644    1.3726    3.2519 H   0  0  0  0  0  0  0  0  0  0  0  0
  1  2  3  0
  2  3  1  0
  3  4  1  0
  4  5  2  0
  5  6  1  0
  6  7  1  0
  7  8  1  0
  8  9  2  0
  9 10  1  0
 10 11  2  0
 11 12  1  0
 11 13  1  0
 13 14  2  0
 14 15  1  0
  5 16  1  0
 16 17  1  0
 17 18  1  0
 18 19  1  0
 19 20  1  0
 20 21  1  0
 21 22  1  0
 22 23  1  0
 17  3  2  0
 23 18  1  0
 14  8  1  0
  6 24  1  0
  6 25  1  0
  9 26  1  0
 10 27  1  0
 13 28  1  0
 19 29  1  0
 19 30  1  0
 20 31  1  0
 20 32  1  0
 22 33  1  0
 22 34  1  0
 23 35  1  0
 23 36  1  0
M  END
$$$$
