
     RDKit          3D

 50 53  0  0  0  0  0  0  0  0999 V2000
    0.8978    3.8482    1.2919 C   0  0  0  0  0  0  0  0  0  0  0  0
    0.9627    3.4874   -0.1846 C   0  0  0  0  0  0  0  0  0  0  0  0
    0.5275    2.0630   -0.4359 C   0  0  0  0  0  0  0  0  0  0  0  0
    1.5017    1.0492   -0.4091 C   0  0  0  0  0  0  0  0  0  0  0  0
    1.1687   -0.2887   -0.6524 C   0  0  0  0  0  0  0  0  0  0  0  0
    2.1776   -1.3603   -0.6330 C   0  0  0  0  0  0  0  0  0  0  0  0
    3.6187   -1.1845   -0.3696 C   0  0  0  0  0  0  0  0  0  0  0  0
    4.5030   -0.9320   -1.4259 C   0  0  0  0  0  0  0  0  0  0  0  0
    5.8658   -0.7644   -1.1749 C   0  0  0  0  0  0  0  0  0  0  0  0
    6.3509   -0.8485    0.1298 C   0  0  0  0  0  0  0  0  0  0  0  0
    5.4756   -1.0999    1.1858 C   0  0  0  0  0  0  0  0  0  0  0  0
    4.1122   -1.2680    0.9385 C   0  0  0  0  0  0  0  0  0  0  0  0
    1.7727   -2.6170   -0.8722 C   0  0  0  0  0  0  0  0  0  0  0  0
    0.3768   -2.9729   -1.1518 C   0  0  0  0  0  0  0  0  0  0  0  0
    0.0545   -4.1375   -1.3549 O   0  0  0  0  0  0  0  0  0  0  0  0
   -0.5404   -1.9384   -1.1712 O   0  0  0  0  0  0  0  0  0  0  0  0
   -0.1657   -0.5995   -0.9197 C   0  0  0  0  0  0  0  0  0  0  0  0
   -1.1775    0.3754   -0.9428 C   0  0  0  0  0  0  0  0  0  0  0  0
   -2.6231    0.0040   -1.2046 C   0  0  0  0  0  0  0  0  0  0  0  0
   -3.4368   -0.0960    0.0231 N   0  0  0  0  0  0  0  0  0  0  0  0
   -4.8731   -0.1220   -0.3264 C   0  0  0  0  0  0  0  0  0  0  0  0
   -5.7513   -0.2784    0.9241 C   0  0  0  0  0  0  0  0  0  0  0  0
   -5.4226   -1.4752    1.6409 O   0  0  0  0  0  0  0  0  0  0  0  0
   -4.0418   -1.4492    2.0252 C   0  0  0  0  0  0  0  0  0  0  0  0
   -3.1201   -1.3120    0.8019 C   0  0  0  0  0  0  0  0  0  0  0  0
   -0.8063    1.7063   -0.6928 C   0  0  0  0  0  0  0  0  0  0  0  0
   -1.7895    2.6584   -0.7304 O   0  0  0  0  0  0  0  0  0  0  0  0
   -0.1192    3.7483    1.6852 H   0  0  0  0  0  0  0  0  0  0  0  0
    1.2191    4.8837    1.4423 H   0  0  0  0  0  0  0  0  0  0  0  0
    1.5514    3.2012    1.8870 H   0  0  0  0  0  0  0  0  0  0  0  0
    1.9883    3.6278   -0.5488 H   0  0  0  0  0  0  0  0  0  0  0  0
    0.3496    4.1812   -0.7715 H   0  0  0  0  0  0  0  0  0  0  0  0
    2.5354    1.3214   -0.2003 H   0  0  0  0  0  0  0  0  0  0  0  0
    4.1362   -0.8625   -2.4476 H   0  0  0  0  0  0  0  0  0  0  0  0
    6.5495   -0.5690   -1.9973 H   0  0  0  0  0  0  0  0  0  0  0  0
    7.4129   -0.7190    0.3236 H   0  0  0  0  0  0  0  0  0  0  0  0
    5.8555   -1.1660    2.2023 H   0  0  0  0  0  0  0  0  0  0  0  0
    3.4391   -1.4621    1.7706 H   0  0  0  0  0  0  0  0  0  0  0  0
    2.4591   -3.4575   -0.8733 H   0  0  0  0  0  0  0  0  0  0  0  0
   -3.0400    0.7801   -1.8614 H   0  0  0  0  0  0  0  0  0  0  0  0
   -2.6896   -0.9182   -1.7968 H   0  0  0  0  0  0  0  0  0  0  0  0
   -5.0765   -0.9562   -1.0108 H   0  0  0  0  0  0  0  0  0  0  0  0
   -5.1520    0.8089   -0.8333 H   0  0  0  0  0  0  0  0  0  0  0  0
   -6.8037   -0.3479    0.6309 H   0  0  0  0  0  0  0  0  0  0  0  0
   -5.6489    0.5845    1.5933 H   0  0  0  0  0  0  0  0  0  0  0  0
   -3.8269   -2.3879    2.5460 H   0  0  0  0  0  0  0  0  0  0  0  0
   -3.8805   -0.6304    2.7370 H   0  0  0  0  0  0  0  0  0  0  0  0
   -3.2355   -2.2028    0.1708 H   0  0  0  0  0  0  0  0  0  0  0  0
   -2.0870   -1.2793    1.1629 H   0  0  0  0  0  0  0  0  0  0  0  0
   -1.5545    3.3740   -0.1197 H   0  0  0  0  0  0  0  0  0  0  0  0
  1  2  1  0
  2  3  1  0
  3  4  2  0
  4  5  1  0
  5  6  1  0
  6  7  1  0
  7  8  2  0
  8  9  1  0
  9 10  2  0
 10 11  1  0
 11 12  2  0
  6 13  2  0
 13 14  1  0
 14 15  2  0
 14 16  1  0
 16 17  1  0
 17 18  1  0
 18 19  1  0
 19 20  1  0
 20 21  1  0
 21 22  1  0
 22 23  1  0
 23 24  1  0
 24 25  1  0
 18 26  2  0
 26 27  1  0
 26  3  1  0
 17  5  2  0
 25 20  1  0
 12  7  1  0
  1 28  1  0
  1 29  1  0
  1 30  1  0
  2 31  1  0
  2 32  1  0
  4 33  1  0
  8 34  1  0
  9 35  1  0
 10 36  1  0
 11 37  1  0
 12 38  1  0
 13 39  1  0
 19 40  1  0
 19 41  1  0
 21 42  1  0
 21 43  1  0
 22 44  1  0
 22 45  1  0
 24 46  1  0
 24 47  1  0
 25 48  1  0
 25 49  1  0
 27 50  1  0
M  END
$$$$
