
     RDKit          3D

 60 61  0  0  0  0  0  0  0  0999 V2000
    1.2010   -5.3843   -2.1691 C   0  0  0  0  0  0  0  0  0  0  0  0
    0.4006   -4.3918   -1.5422 O   0  0  0  0  0  0  0  0  0  0  0  0
    0.9358   -3.1388   -1.3892 C   0  0  0  0  0  0  0  0  0  0  0  0
    2.1958   -2.7608   -1.8656 C   0  0  0  0  0  0  0  0  0  0  0  0
    2.6758   -1.4621   -1.6651 C   0  0  0  0  0  0  0  0  0  0  0  0
    1.8984   -0.5186   -0.9856 C   0  0  0  0  0  0  0  0  0  0  0  0
    2.3929    0.8664   -0.7473 C   0  0  0  0  0  0  0  0  0  0  0  0
    1.8945    1.5220    0.1632 O   0  0  0  0  0  0  0  0  0  0  0  0
    3.4137    1.4297   -1.6767 C   0  0  0  0  0  0  0  0  0  0  0  0
    4.2693    2.4208   -1.3805 C   0  0  0  0  0  0  0  0  0  0  0  0
    4.4072    3.1021   -0.0929 C   0  0  0  0  0  0  0  0  0  0  0  0
    5.3789    2.6770    0.8220 C   0  0  0  0  0  0  0  0  0  0  0  0
    5.5332    3.3392    2.0415 C   0  0  0  0  0  0  0  0  0  0  0  0
    4.7157    4.4242    2.3412 C   0  0  0  0  0  0  0  0  0  0  0  0
    4.8344    5.0976    3.5221 O   0  0  0  0  0  0  0  0  0  0  0  0
    3.7472    4.8564    1.4429 C   0  0  0  0  0  0  0  0  0  0  0  0
    3.5924    4.1948    0.2234 C   0  0  0  0  0  0  0  0  0  0  0  0
    0.6406   -0.9049   -0.4859 C   0  0  0  0  0  0  0  0  0  0  0  0
   -0.1381   -0.0287    0.2323 O   0  0  0  0  0  0  0  0  0  0  0  0
    0.1384   -2.2048   -0.6934 C   0  0  0  0  0  0  0  0  0  0  0  0
   -1.2280   -2.5983   -0.1619 C   0  0  0  0  0  0  0  0  0  0  0  0
   -2.2864   -2.7066   -1.2319 C   0  0  0  0  0  0  0  0  0  0  0  0
   -3.3603   -1.9120   -1.4162 C   0  0  0  0  0  0  0  0  0  0  0  0
   -4.3559   -2.2052   -2.5075 C   0  0  0  0  0  0  0  0  0  0  0  0
   -3.6507   -0.6678   -0.6056 C   0  0  0  0  0  0  0  0  0  0  0  0
   -4.4407   -0.9573    0.6739 C   0  0  0  0  0  0  0  0  0  0  0  0
   -4.8315    0.3128    1.3883 C   0  0  0  0  0  0  0  0  0  0  0  0
   -4.0843    1.0139    2.2635 C   0  0  0  0  0  0  0  0  0  0  0  0
   -2.6843    0.6508    2.6775 C   0  0  0  0  0  0  0  0  0  0  0  0
   -4.6077    2.2777    2.8922 C   0  0  0  0  0  0  0  0  0  0  0  0
    1.4085   -5.1225   -3.2118 H   0  0  0  0  0  0  0  0  0  0  0  0
    0.6340   -6.3230   -2.1674 H   0  0  0  0  0  0  0  0  0  0  0  0
    2.1277   -5.5569   -1.6088 H   0  0  0  0  0  0  0  0  0  0  0  0
    2.8370   -3.4583   -2.3951 H   0  0  0  0  0  0  0  0  0  0  0  0
    3.6701   -1.2219   -2.0294 H   0  0  0  0  0  0  0  0  0  0  0  0
    3.4393    1.0057   -2.6753 H   0  0  0  0  0  0  0  0  0  0  0  0
    4.9657    2.7662   -2.1417 H   0  0  0  0  0  0  0  0  0  0  0  0
    6.0242    1.8337    0.5897 H   0  0  0  0  0  0  0  0  0  0  0  0
    6.2941    3.0011    2.7375 H   0  0  0  0  0  0  0  0  0  0  0  0
    5.5241    4.6704    4.0542 H   0  0  0  0  0  0  0  0  0  0  0  0
    3.1130    5.7019    1.6910 H   0  0  0  0  0  0  0  0  0  0  0  0
    2.8314    4.5363   -0.4724 H   0  0  0  0  0  0  0  0  0  0  0  0
    0.4045    0.7619    0.4538 H   0  0  0  0  0  0  0  0  0  0  0  0
   -1.5418   -1.9214    0.6376 H   0  0  0  0  0  0  0  0  0  0  0  0
   -1.1443   -3.5710    0.3408 H   0  0  0  0  0  0  0  0  0  0  0  0
   -2.1603   -3.5675   -1.8867 H   0  0  0  0  0  0  0  0  0  0  0  0
   -4.1122   -3.1186   -3.0609 H   0  0  0  0  0  0  0  0  0  0  0  0
   -5.3580   -2.3334   -2.0825 H   0  0  0  0  0  0  0  0  0  0  0  0
   -4.3841   -1.3807   -3.2266 H   0  0  0  0  0  0  0  0  0  0  0  0
   -4.2146    0.0348   -1.2323 H   0  0  0  0  0  0  0  0  0  0  0  0
   -2.7210   -0.1486   -0.3711 H   0  0  0  0  0  0  0  0  0  0  0  0
   -5.3611   -1.4992    0.4245 H   0  0  0  0  0  0  0  0  0  0  0  0
   -3.8811   -1.6230    1.3397 H   0  0  0  0  0  0  0  0  0  0  0  0
   -5.8300    0.6754    1.1458 H   0  0  0  0  0  0  0  0  0  0  0  0
   -2.3447   -0.3001    2.2603 H   0  0  0  0  0  0  0  0  0  0  0  0
   -1.9823    1.4270    2.3497 H   0  0  0  0  0  0  0  0  0  0  0  0
   -2.6230    0.5697    3.7669 H   0  0  0  0  0  0  0  0  0  0  0  0
   -5.6360    2.4965    2.5876 H   0  0  0  0  0  0  0  0  0  0  0  0
   -3.9813    3.1302    2.6056 H   0  0  0  0  0  0  0  0  0  0  0  0
   -4.5958    2.1916    3.9815 H   0  0  0  0  0  0  0  0  0  0  0  0
  1  2  1  0
  2  3  1  0
  3  4  2  0
  4  5  1  0
  5  6  2  0
  6  7  1  0
  7  8  2  0
  7  9  1  0
  9 10  2  3
 10 11  1  0
 11 12  2  0
 12 13  1  0
 13 14  2  0
 14 15  1  0
 14 16  1  0
 16 17  2  0
  6 18  1  0
 18 19  1  0
 18 20  2  0
 20 21  1  0
 21 22  1  0
 22 23  2  3
 23 24  1  0
 23 25  1  0
 25 26  1  0
 26 27  1  0
 27 28  2  3
 28 29  1  0
 28 30  1  0
 20  3  1  0
 17 11  1  0
  1 31  1  0
  1 32  1  0
  1 33  1  0
  4 34  1  0
  5 35  1  0
  9 36  1  0
 10 37  1  0
 12 38  1  0
 13 39  1  0
 15 40  1  0
 16 41  1  0
 17 42  1  0
 19 43  1  0
 21 44  1  0
 21 45  1  0
 22 46  1  0
 24 47  1  0
 24 48  1  0
 24 49  1  0
 25 50  1  0
 25 51  1  0
 26 52  1  0
 26 53  1  0
 27 54  1  0
 29 55  1  0
 29 56  1  0
 29 57  1  0
 30 58  1  0
 30 59  1  0
 30 60  1  0
M  END
$$$$
