
     RDKit          3D

 68 70  0  0  0  0  0  0  0  0999 V2000
    5.8673    1.0840   -1.5064 C   0  0  0  0  0  0  0  0  0  0  0  0
    6.0376    0.9550    0.0001 C   0  0  0  0  0  0  0  0  0  0  0  0
    4.9719    1.7139    0.7063 N   0  0  0  0  0  0  0  0  0  0  0  0
    5.1966    3.1784    0.7970 C   0  0  0  0  0  0  0  0  0  0  0  0
    4.0366    3.8927    0.1105 C   0  0  0  0  0  0  0  0  0  0  0  0
    4.3317    0.9682    2.1032 S   0  0  0  0  0  6  0  0  0  0  0  0
    5.4092    0.2694    2.7773 O   0  0  0  0  0  0  0  0  0  0  0  0
    3.4940    1.9134    2.8108 O   0  0  0  0  0  0  0  0  0  0  0  0
    3.2493   -0.2406    1.3789 C   0  0  0  0  0  0  0  0  0  0  0  0
    3.5705   -1.5983    1.4094 C   0  0  0  0  0  0  0  0  0  0  0  0
    2.6890   -2.5236    0.8467 C   0  0  0  0  0  0  0  0  0  0  0  0
    1.4776   -2.1014    0.2773 C   0  0  0  0  0  0  0  0  0  0  0  0
    0.5526   -3.0011   -0.3072 N   0  0  0  0  0  0  0  0  0  0  0  0
    0.0781   -4.0924    0.5781 C   0  0  0  0  0  0  0  0  0  0  0  0
    0.5414   -5.4734    0.0905 C   0  0  0  0  0  0  0  0  0  0  0  0
    0.1561   -5.7736   -1.2577 O   0  0  0  0  0  0  0  0  0  0  0  0
    0.1012   -4.6201   -2.1087 C   0  0  0  0  0  0  0  0  0  0  0  0
    1.0069   -3.4705   -1.6410 C   0  0  0  0  0  0  0  0  0  0  0  0
    1.1602   -0.7209    0.2822 C   0  0  0  0  0  0  0  0  0  0  0  0
   -0.1045   -0.3807   -0.2476 N   0  0  0  0  0  0  0  0  0  0  0  0
   -0.7301    0.8492   -0.2290 C   0  0  0  0  0  0  0  0  0  0  0  0
   -0.2321    1.9091    0.1393 O   0  0  0  0  0  0  0  0  0  0  0  0
   -2.1594    0.7869   -0.7479 C   0  0  0  0  0  0  0  0  0  0  0  0
   -3.0722    1.6854    0.0923 C   0  0  0  0  0  0  0  0  0  0  0  0
   -4.5363    1.7231   -0.3946 C   0  0  0  0  0  0  0  0  0  0  0  0
   -5.3166    2.7649    0.4273 C   0  0  0  0  0  0  0  0  0  0  0  0
   -6.7920    2.8193    0.0401 C   0  0  0  0  0  0  0  0  0  0  0  0
   -7.4487    1.4465    0.1419 C   0  0  0  0  0  0  0  0  0  0  0  0
   -6.6993    0.4160   -0.6922 C   0  0  0  0  0  0  0  0  0  0  0  0
   -5.2220    0.3485   -0.3079 C   0  0  0  0  0  0  0  0  0  0  0  0
    2.0496    0.2040    0.8202 C   0  0  0  0  0  0  0  0  0  0  0  0
    6.6183    0.4766   -2.0245 H   0  0  0  0  0  0  0  0  0  0  0  0
    5.9817    2.1239   -1.8320 H   0  0  0  0  0  0  0  0  0  0  0  0
    4.8774    0.7402   -1.8246 H   0  0  0  0  0  0  0  0  0  0  0  0
    5.9931   -0.1122    0.2533 H   0  0  0  0  0  0  0  0  0  0  0  0
    7.0233    1.3164    0.3115 H   0  0  0  0  0  0  0  0  0  0  0  0
    6.1324    3.4569    0.3004 H   0  0  0  0  0  0  0  0  0  0  0  0
    5.2951    3.5152    1.8392 H   0  0  0  0  0  0  0  0  0  0  0  0
    4.1976    4.9761    0.0875 H   0  0  0  0  0  0  0  0  0  0  0  0
    3.9249    3.5315   -0.9203 H   0  0  0  0  0  0  0  0  0  0  0  0
    3.0895    3.7034    0.6241 H   0  0  0  0  0  0  0  0  0  0  0  0
    4.4953   -1.9413    1.8662 H   0  0  0  0  0  0  0  0  0  0  0  0
    2.9581   -3.5778    0.8650 H   0  0  0  0  0  0  0  0  0  0  0  0
   -1.0193   -4.0631    0.5509 H   0  0  0  0  0  0  0  0  0  0  0  0
    0.3817   -3.9449    1.6225 H   0  0  0  0  0  0  0  0  0  0  0  0
    1.6289   -5.5727    0.1627 H   0  0  0  0  0  0  0  0  0  0  0  0
    0.1115   -6.2528    0.7273 H   0  0  0  0  0  0  0  0  0  0  0  0
    0.3879   -4.9388   -3.1164 H   0  0  0  0  0  0  0  0  0  0  0  0
   -0.9414   -4.2881   -2.1578 H   0  0  0  0  0  0  0  0  0  0  0  0
    0.9486   -2.6419   -2.3601 H   0  0  0  0  0  0  0  0  0  0  0  0
    2.0469   -3.8267   -1.6034 H   0  0  0  0  0  0  0  0  0  0  0  0
   -0.6325   -1.2058   -0.5047 H   0  0  0  0  0  0  0  0  0  0  0  0
   -2.5168   -0.2474   -0.7324 H   0  0  0  0  0  0  0  0  0  0  0  0
   -2.1497    1.1266   -1.7902 H   0  0  0  0  0  0  0  0  0  0  0  0
   -2.6738    2.7072    0.0760 H   0  0  0  0  0  0  0  0  0  0  0  0
   -3.0363    1.3675    1.1413 H   0  0  0  0  0  0  0  0  0  0  0  0
   -4.5416    2.0470   -1.4463 H   0  0  0  0  0  0  0  0  0  0  0  0
   -5.2351    2.5275    1.4969 H   0  0  0  0  0  0  0  0  0  0  0  0
   -4.8734    3.7589    0.2901 H   0  0  0  0  0  0  0  0  0  0  0  0
   -7.3142    3.5333    0.6851 H   0  0  0  0  0  0  0  0  0  0  0  0
   -6.8809    3.1965   -0.9852 H   0  0  0  0  0  0  0  0  0  0  0  0
   -8.4909    1.5051   -0.1941 H   0  0  0  0  0  0  0  0  0  0  0  0
   -7.4689    1.1230    1.1900 H   0  0  0  0  0  0  0  0  0  0  0  0
   -7.1618   -0.5695   -0.5661 H   0  0  0  0  0  0  0  0  0  0  0  0
   -6.7838    0.6742   -1.7563 H   0  0  0  0  0  0  0  0  0  0  0  0
   -5.1349   -0.0505    0.7120 H   0  0  0  0  0  0  0  0  0  0  0  0
   -4.7288   -0.3690   -0.9718 H   0  0  0  0  0  0  0  0  0  0  0  0
    1.8283    1.2644    0.8328 H   0  0  0  0  0  0  0  0  0  0  0  0
  1  2  1  0
  2  3  1  0
  3  4  1  0
  4  5  1  0
  3  6  1  0
  6  7  2  0
  6  8  2  0
  6  9  1  0
  9 10  2  0
 10 11  1  0
 11 12  2  0
 12 13  1  0
 13 14  1  0
 14 15  1  0
 15 16  1  0
 16 17  1  0
 17 18  1  0
 12 19  1  0
 19 20  1  0
 20 21  1  0
 21 22  2  0
 21 23  1  0
 23 24  1  0
 24 25  1  0
 25 26  1  0
 26 27  1  0
 27 28  1  0
 28 29  1  0
 29 30  1  0
 19 31  2  0
 31  9  1  0
 18 13  1  0
 30 25  1  0
  1 32  1  0
  1 33  1  0
  1 34  1  0
  2 35  1  0
  2 36  1  0
  4 37  1  0
  4 38  1  0
  5 39  1  0
  5 40  1  0
  5 41  1  0
 10 42  1  0
 11 43  1  0
 14 44  1  0
 14 45  1  0
 15 46  1  0
 15 47  1  0
 17 48  1  0
 17 49  1  0
 18 50  1  0
 18 51  1  0
 20 52  1  0
 23 53  1  0
 23 54  1  0
 24 55  1  0
 24 56  1  0
 25 57  1  0
 26 58  1  0
 26 59  1  0
 27 60  1  0
 27 61  1  0
 28 62  1  0
 28 63  1  0
 29 64  1  0
 29 65  1  0
 30 66  1  0
 30 67  1  0
 31 68  1  0
M  END
$$$$
