
     RDKit          3D

 56 59  0  0  0  0  0  0  0  0999 V2000
   -2.8648    1.9501   -4.3791 C   0  0  0  0  0  0  0  0  0  0  0  0
   -2.9999    1.6556   -2.9940 O   0  0  0  0  0  0  0  0  0  0  0  0
   -2.7558    0.3643   -2.6079 C   0  0  0  0  0  0  0  0  0  0  0  0
   -2.7518   -0.7318   -3.4781 C   0  0  0  0  0  0  0  0  0  0  0  0
   -2.4950   -2.0235   -3.0017 C   0  0  0  0  0  0  0  0  0  0  0  0
   -2.2619   -2.2358   -1.6421 C   0  0  0  0  0  0  0  0  0  0  0  0
   -1.9401   -3.5825   -1.0837 C   0  0  0  0  0  0  0  0  0  0  0  0
   -1.6362   -4.7109   -2.0335 C   0  0  0  0  0  0  0  0  0  0  0  0
   -1.9245   -3.7528    0.1344 O   0  0  0  0  0  0  0  0  0  0  0  0
   -2.3076   -1.1465   -0.7650 C   0  0  0  0  0  0  0  0  0  0  0  0
   -2.5272    0.1622   -1.2360 C   0  0  0  0  0  0  0  0  0  0  0  0
   -2.4539    1.3160   -0.2625 C   0  0  0  0  0  0  0  0  0  0  0  0
   -0.8655    2.2075   -0.2814 S   0  0  0  0  0  0  0  0  0  0  0  0
    0.1382    1.0220    0.5246 C   0  0  0  0  0  0  0  0  0  0  0  0
    0.5056    0.0133   -0.1934 N   0  0  0  0  0  0  0  0  0  0  0  0
    1.2249   -1.0173    0.4061 C   0  0  0  0  0  0  0  0  0  0  0  0
    1.5362   -2.1453   -0.3551 C   0  0  0  0  0  0  0  0  0  0  0  0
    2.2061   -3.2303    0.2223 C   0  0  0  0  0  0  0  0  0  0  0  0
    2.4636   -4.4192   -0.6239 C   0  0  0  0  0  0  0  0  0  0  0  0
    2.0663   -4.5835   -1.7627 O   0  0  0  0  0  0  0  0  0  0  0  0
    3.2136   -5.3454   -0.0019 O   0  0  0  0  0  0  0  0  0  0  0  0
    2.5873   -3.1740    1.5691 C   0  0  0  0  0  0  0  0  0  0  0  0
    2.2814   -2.0449    2.3327 C   0  0  0  0  0  0  0  0  0  0  0  0
    1.5920   -0.9778    1.7451 C   0  0  0  0  0  0  0  0  0  0  0  0
    1.2038    0.2115    2.5234 C   0  0  0  0  0  0  0  0  0  0  0  0
    1.5264    0.2672    3.7084 O   0  0  0  0  0  0  0  0  0  0  0  0
    0.4725    1.1954    1.8574 N   0  0  0  0  0  0  0  0  0  0  0  0
    0.1196    2.3849    2.6407 C   0  0  0  0  0  0  0  0  0  0  0  0
    1.1047    3.5242    2.4674 C   0  0  0  0  0  0  0  0  0  0  0  0
    2.4045    3.4332    2.9888 C   0  0  0  0  0  0  0  0  0  0  0  0
    3.3121    4.4822    2.8300 C   0  0  0  0  0  0  0  0  0  0  0  0
    2.9318    5.6375    2.1519 C   0  0  0  0  0  0  0  0  0  0  0  0
    1.6425    5.7466    1.6365 C   0  0  0  0  0  0  0  0  0  0  0  0
    0.7334    4.6986    1.7958 C   0  0  0  0  0  0  0  0  0  0  0  0
   -1.8961    1.6174   -4.7677 H   0  0  0  0  0  0  0  0  0  0  0  0
   -2.9149    3.0370   -4.4955 H   0  0  0  0  0  0  0  0  0  0  0  0
   -3.6909    1.5164   -4.9516 H   0  0  0  0  0  0  0  0  0  0  0  0
   -2.9439   -0.6127   -4.5399 H   0  0  0  0  0  0  0  0  0  0  0  0
   -2.4860   -2.8432   -3.7141 H   0  0  0  0  0  0  0  0  0  0  0  0
   -0.8790   -4.4075   -2.7615 H   0  0  0  0  0  0  0  0  0  0  0  0
   -2.5508   -5.0353   -2.5355 H   0  0  0  0  0  0  0  0  0  0  0  0
   -1.2303   -5.5553   -1.4677 H   0  0  0  0  0  0  0  0  0  0  0  0
   -2.1199   -1.3126    0.2952 H   0  0  0  0  0  0  0  0  0  0  0  0
   -3.2517    2.0338   -0.4844 H   0  0  0  0  0  0  0  0  0  0  0  0
   -2.6520    0.9676    0.7582 H   0  0  0  0  0  0  0  0  0  0  0  0
    1.2327   -2.1785   -1.3994 H   0  0  0  0  0  0  0  0  0  0  0  0
    3.3018   -6.0637   -0.6628 H   0  0  0  0  0  0  0  0  0  0  0  0
    3.1062   -4.0081    2.0361 H   0  0  0  0  0  0  0  0  0  0  0  0
    2.5631   -2.0072    3.3829 H   0  0  0  0  0  0  0  0  0  0  0  0
   -0.8933    2.7125    2.3833 H   0  0  0  0  0  0  0  0  0  0  0  0
    0.0714    2.1359    3.7083 H   0  0  0  0  0  0  0  0  0  0  0  0
    2.7210    2.5448    3.5321 H   0  0  0  0  0  0  0  0  0  0  0  0
    4.3159    4.3962    3.2381 H   0  0  0  0  0  0  0  0  0  0  0  0
    3.6389    6.4530    2.0272 H   0  0  0  0  0  0  0  0  0  0  0  0
    1.3434    6.6483    1.1084 H   0  0  0  0  0  0  0  0  0  0  0  0
   -0.2681    4.8105    1.3861 H   0  0  0  0  0  0  0  0  0  0  0  0
  1  2  1  0
  2  3  1  0
  3  4  2  0
  4  5  1  0
  5  6  2  0
  6  7  1  0
  7  8  1  0
  7  9  2  0
  6 10  1  0
 10 11  2  0
 11 12  1  0
 12 13  1  0
 13 14  1  0
 14 15  2  0
 15 16  1  0
 16 17  2  0
 17 18  1  0
 18 19  1  0
 19 20  2  0
 19 21  1  0
 18 22  2  0
 22 23  1  0
 23 24  2  0
 24 25  1  0
 25 26  2  0
 25 27  1  0
 27 28  1  0
 28 29  1  0
 29 30  2  0
 30 31  1  0
 31 32  2  0
 32 33  1  0
 33 34  2  0
 11  3  1  0
 27 14  1  0
 34 29  1  0
 24 16  1  0
  1 35  1  0
  1 36  1  0
  1 37  1  0
  4 38  1  0
  5 39  1  0
  8 40  1  0
  8 41  1  0
  8 42  1  0
 10 43  1  0
 12 44  1  0
 12 45  1  0
 17 46  1  0
 21 47  1  0
 22 48  1  0
 23 49  1  0
 28 50  1  0
 28 51  1  0
 30 52  1  0
 31 53  1  0
 32 54  1  0
 33 55  1  0
 34 56  1  0
M  END
$$$$
