
     RDKit          3D

 55 56  0  0  0  0  0  0  0  0999 V2000
   -5.7866   -0.0732    2.6212 C   0  0  0  0  0  0  0  0  0  0  0  0
   -5.2294    1.2223    2.0277 C   0  0  0  0  0  0  0  0  0  0  0  0
   -3.9792    0.9505    1.3356 N   0  0  0  0  0  0  0  0  0  0  0  0
   -2.8769    1.7656    1.4788 C   0  0  0  0  0  0  0  0  0  0  0  0
   -2.8269    2.7114    2.2575 O   0  0  0  0  0  0  0  0  0  0  0  0
   -1.7504    1.4204    0.5241 C   0  0  0  0  0  0  0  0  0  0  0  0
   -0.3757    1.7487    1.0946 C   0  0  0  0  0  0  0  0  0  0  0  0
    0.1939    0.5028    2.3099 S   0  0  0  0  0  0  0  0  0  0  0  0
    0.7690   -0.8147    1.1822 C   0  0  0  0  0  0  0  0  0  0  0  0
    2.1836   -0.5395    0.6900 C   0  0  0  0  0  0  0  0  0  0  0  0
    2.6384   -1.6146   -0.2744 C   0  0  0  0  0  0  0  0  0  0  0  0
    1.9106   -2.5148   -0.6767 O   0  0  0  0  0  0  0  0  0  0  0  0
    3.9465   -1.4606   -0.6705 N   0  0  0  0  0  0  0  0  0  0  0  0
    4.5926   -2.3780   -1.5949 C   0  0  0  0  0  0  0  0  0  0  0  0
    4.1329   -2.1335   -3.0357 C   0  0  0  0  0  0  0  0  0  0  0  0
    6.0994   -2.2747   -1.4360 C   0  0  0  0  0  0  0  0  0  0  0  0
    6.8241   -1.1749   -1.9245 C   0  0  0  0  0  0  0  0  0  0  0  0
    8.2067   -1.0950   -1.7444 C   0  0  0  0  0  0  0  0  0  0  0  0
    8.8824   -2.1071   -1.0673 C   0  0  0  0  0  0  0  0  0  0  0  0
    8.1768   -3.1980   -0.5658 C   0  0  0  0  0  0  0  0  0  0  0  0
    6.7945   -3.2799   -0.7450 C   0  0  0  0  0  0  0  0  0  0  0  0
   -6.1802    1.9327    1.0780 C   0  0  0  0  0  0  0  0  0  0  0  0
   -7.0254    1.2441    0.1938 C   0  0  0  0  0  0  0  0  0  0  0  0
   -7.8609    1.9414   -0.6829 C   0  0  0  0  0  0  0  0  0  0  0  0
   -7.8558    3.3340   -0.6970 C   0  0  0  0  0  0  0  0  0  0  0  0
   -7.0123    4.0329    0.1625 C   0  0  0  0  0  0  0  0  0  0  0  0
   -6.1780    3.3378    1.0393 C   0  0  0  0  0  0  0  0  0  0  0  0
   -6.7541    0.0978    3.1059 H   0  0  0  0  0  0  0  0  0  0  0  0
   -5.0967   -0.4729    3.3733 H   0  0  0  0  0  0  0  0  0  0  0  0
   -5.9148   -0.8542    1.8635 H   0  0  0  0  0  0  0  0  0  0  0  0
   -5.0311    1.8903    2.8759 H   0  0  0  0  0  0  0  0  0  0  0  0
   -4.0290    0.3494    0.5248 H   0  0  0  0  0  0  0  0  0  0  0  0
   -1.8183    0.3743    0.2078 H   0  0  0  0  0  0  0  0  0  0  0  0
   -1.9166    2.0345   -0.3703 H   0  0  0  0  0  0  0  0  0  0  0  0
    0.3590    1.8124    0.2863 H   0  0  0  0  0  0  0  0  0  0  0  0
   -0.3785    2.7218    1.5965 H   0  0  0  0  0  0  0  0  0  0  0  0
    0.7508   -1.7559    1.7431 H   0  0  0  0  0  0  0  0  0  0  0  0
    0.0669   -0.9291    0.3507 H   0  0  0  0  0  0  0  0  0  0  0  0
    2.2396    0.4203    0.1641 H   0  0  0  0  0  0  0  0  0  0  0  0
    2.8827   -0.5161    1.5345 H   0  0  0  0  0  0  0  0  0  0  0  0
    4.5064   -0.7191   -0.2688 H   0  0  0  0  0  0  0  0  0  0  0  0
    4.2746   -3.3934   -1.3252 H   0  0  0  0  0  0  0  0  0  0  0  0
    4.6703   -2.7820   -3.7357 H   0  0  0  0  0  0  0  0  0  0  0  0
    4.2890   -1.0945   -3.3452 H   0  0  0  0  0  0  0  0  0  0  0  0
    3.0626   -2.3391   -3.1440 H   0  0  0  0  0  0  0  0  0  0  0  0
    6.3195   -0.3673   -2.4493 H   0  0  0  0  0  0  0  0  0  0  0  0
    8.7569   -0.2415   -2.1323 H   0  0  0  0  0  0  0  0  0  0  0  0
    9.9585   -2.0447   -0.9279 H   0  0  0  0  0  0  0  0  0  0  0  0
    8.7021   -3.9864   -0.0328 H   0  0  0  0  0  0  0  0  0  0  0  0
    6.2612   -4.1376   -0.3391 H   0  0  0  0  0  0  0  0  0  0  0  0
   -7.0448    0.1581    0.1695 H   0  0  0  0  0  0  0  0  0  0  0  0
   -8.5140    1.3957   -1.3594 H   0  0  0  0  0  0  0  0  0  0  0  0
   -8.5051    3.8746   -1.3802 H   0  0  0  0  0  0  0  0  0  0  0  0
   -6.9984    5.1194    0.1494 H   0  0  0  0  0  0  0  0  0  0  0  0
   -5.5125    3.8993    1.6950 H   0  0  0  0  0  0  0  0  0  0  0  0
  1  2  1  0
  2  3  1  0
  3  4  1  0
  4  5  2  0
  4  6  1  0
  6  7  1  0
  7  8  1  0
  8  9  1  0
  9 10  1  0
 10 11  1  0
 11 12  2  0
 11 13  1  0
 13 14  1  0
 14 15  1  0
 14 16  1  0
 16 17  2  0
 17 18  1  0
 18 19  2  0
 19 20  1  0
 20 21  2  0
  2 22  1  0
 22 23  2  0
 23 24  1  0
 24 25  2  0
 25 26  1  0
 26 27  2  0
 21 16  1  0
 27 22  1  0
  1 28  1  0
  1 29  1  0
  1 30  1  0
  2 31  1  0
  3 32  1  0
  6 33  1  0
  6 34  1  0
  7 35  1  0
  7 36  1  0
  9 37  1  0
  9 38  1  0
 10 39  1  0
 10 40  1  0
 13 41  1  0
 14 42  1  0
 15 43  1  0
 15 44  1  0
 15 45  1  0
 17 46  1  0
 18 47  1  0
 19 48  1  0
 20 49  1  0
 21 50  1  0
 23 51  1  0
 24 52  1  0
 25 53  1  0
 26 54  1  0
 27 55  1  0
M  END
$$$$
