
     RDKit          3D

 53 56  0  0  0  0  0  0  0  0999 V2000
   -6.7353    0.2814    1.0594 C   0  0  0  0  0  0  0  0  0  0  0  0
   -5.8535    1.1421    0.1277 C   0  0  0  0  0  0  0  0  0  0  0  0
   -5.9825    2.6256    0.5345 C   0  0  0  0  0  0  0  0  0  0  0  0
   -6.4311    1.0044   -1.2992 C   0  0  0  0  0  0  0  0  0  0  0  0
   -4.3837    0.7045    0.2483 C   0  0  0  0  0  0  0  0  0  0  0  0
   -3.7392    0.7291    1.4969 C   0  0  0  0  0  0  0  0  0  0  0  0
   -2.4022    0.3387    1.6392 C   0  0  0  0  0  0  0  0  0  0  0  0
   -1.6589   -0.1003    0.5348 C   0  0  0  0  0  0  0  0  0  0  0  0
   -0.2977   -0.4903    0.7306 N   0  0  0  0  0  0  0  0  0  0  0  0
    0.3009   -0.2185    1.9292 N   0  0  0  0  0  0  0  0  0  0  0  0
    1.5657   -0.6087    1.7946 C   0  0  0  0  0  0  0  0  0  0  0  0
    1.8196   -1.1687    0.5386 C   0  0  0  0  0  0  0  0  0  0  0  0
    0.5986   -1.1341   -0.1133 C   0  0  0  0  0  0  0  0  0  0  0  0
    0.3560   -1.7366   -1.4549 C   0  0  0  0  0  0  0  0  0  0  0  0
    1.4973   -2.7082   -1.8171 C   0  0  0  0  0  0  0  0  0  0  0  0
    2.8811   -2.1078   -1.5205 C   0  0  0  0  0  0  0  0  0  0  0  0
    3.0592   -1.7813   -0.0198 C   0  0  0  0  0  0  0  0  0  0  0  0
    4.1547   -0.8615    0.1780 N   0  0  0  0  0  0  0  0  0  0  0  0
    5.4703   -1.2692    0.1780 C   0  0  0  0  0  0  0  0  0  0  0  0
    5.8264   -2.4397    0.1215 O   0  0  0  0  0  0  0  0  0  0  0  0
    6.4588   -0.1574    0.2438 C   0  0  0  0  0  0  0  0  0  0  0  0
    7.8162   -0.4329    0.3007 C   0  0  0  0  0  0  0  0  0  0  0  0
    8.7501    0.5513    0.3607 N   0  0  0  0  0  0  0  0  0  0  0  0
    8.2622    1.8140    0.3623 C   0  0  0  0  0  0  0  0  0  0  0  0
    6.9036    2.0885    0.3035 C   0  0  0  0  0  0  0  0  0  0  0  0
    5.9642    1.1160    0.2405 N   0  0  0  0  0  0  0  0  0  0  0  0
   -2.2802   -0.1112   -0.7140 C   0  0  0  0  0  0  0  0  0  0  0  0
   -3.6221    0.2822   -0.8514 C   0  0  0  0  0  0  0  0  0  0  0  0
   -6.6309   -0.7856    0.8276 H   0  0  0  0  0  0  0  0  0  0  0  0
   -6.4772    0.4159    2.1158 H   0  0  0  0  0  0  0  0  0  0  0  0
   -7.7945    0.5441    0.9547 H   0  0  0  0  0  0  0  0  0  0  0  0
   -5.3526    3.2641   -0.0968 H   0  0  0  0  0  0  0  0  0  0  0  0
   -7.0172    2.9741    0.4344 H   0  0  0  0  0  0  0  0  0  0  0  0
   -5.6849    2.7966    1.5750 H   0  0  0  0  0  0  0  0  0  0  0  0
   -6.3911   -0.0328   -1.6520 H   0  0  0  0  0  0  0  0  0  0  0  0
   -5.8886    1.6306   -2.0175 H   0  0  0  0  0  0  0  0  0  0  0  0
   -7.4817    1.3170   -1.3319 H   0  0  0  0  0  0  0  0  0  0  0  0
   -4.2687    1.0576    2.3887 H   0  0  0  0  0  0  0  0  0  0  0  0
   -1.9585    0.3757    2.6330 H   0  0  0  0  0  0  0  0  0  0  0  0
    2.2471   -0.4782    2.6259 H   0  0  0  0  0  0  0  0  0  0  0  0
    0.3187   -0.9415   -2.2086 H   0  0  0  0  0  0  0  0  0  0  0  0
   -0.5871   -2.2918   -1.4777 H   0  0  0  0  0  0  0  0  0  0  0  0
    1.3824   -3.6385   -1.2461 H   0  0  0  0  0  0  0  0  0  0  0  0
    1.4250   -2.9739   -2.8778 H   0  0  0  0  0  0  0  0  0  0  0  0
    3.6659   -2.8026   -1.8427 H   0  0  0  0  0  0  0  0  0  0  0  0
    3.0066   -1.1982   -2.1241 H   0  0  0  0  0  0  0  0  0  0  0  0
    3.2734   -2.7101    0.5236 H   0  0  0  0  0  0  0  0  0  0  0  0
    3.9913    0.1406    0.1160 H   0  0  0  0  0  0  0  0  0  0  0  0
    8.1953   -1.4492    0.3017 H   0  0  0  0  0  0  0  0  0  0  0  0
    8.9997    2.6078    0.4139 H   0  0  0  0  0  0  0  0  0  0  0  0
    6.5350    3.1085    0.3062 H   0  0  0  0  0  0  0  0  0  0  0  0
   -1.7592   -0.3820   -1.6224 H   0  0  0  0  0  0  0  0  0  0  0  0
   -4.0464    0.2545   -1.8517 H   0  0  0  0  0  0  0  0  0  0  0  0
  1  2  1  0
  2  3  1  0
  2  4  1  0
  2  5  1  0
  5  6  2  0
  6  7  1  0
  7  8  2  0
  8  9  1  0
  9 10  1  0
 10 11  2  0
 11 12  1  0
 12 13  2  0
 13 14  1  0
 14 15  1  0
 15 16  1  0
 16 17  1  0
 17 18  1  0
 18 19  1  0
 19 20  2  0
 19 21  1  0
 21 22  2  0
 22 23  1  0
 23 24  2  0
 24 25  1  0
 25 26  2  0
  8 27  1  0
 27 28  2  0
 28  5  1  0
 13  9  1  0
 26 21  1  0
 17 12  1  0
  1 29  1  0
  1 30  1  0
  1 31  1  0
  3 32  1  0
  3 33  1  0
  3 34  1  0
  4 35  1  0
  4 36  1  0
  4 37  1  0
  6 38  1  0
  7 39  1  0
 11 40  1  0
 14 41  1  0
 14 42  1  0
 15 43  1  0
 15 44  1  0
 16 45  1  0
 16 46  1  0
 17 47  1  0
 18 48  1  0
 22 49  1  0
 24 50  1  0
 25 51  1  0
 27 52  1  0
 28 53  1  0
M  END
$$$$
