
     RDKit          3D

 61 64  0  0  0  0  0  0  0  0999 V2000
    7.5376   -3.1733    4.8593 C   0  0  0  0  0  0  0  0  0  0  0  0
    6.6363   -3.1275    3.6503 C   0  0  0  0  0  0  0  0  0  0  0  0
    6.1781   -4.1585    3.1714 O   0  0  0  0  0  0  0  0  0  0  0  0
    6.3965   -1.8339    3.2236 N   0  0  0  0  0  0  0  0  0  0  0  0
    5.6141   -1.4239    2.1246 C   0  0  0  0  0  0  0  0  0  0  0  0
    5.4759   -0.0429    1.9201 C   0  0  0  0  0  0  0  0  0  0  0  0
    4.7158    0.4488    0.8560 C   0  0  0  0  0  0  0  0  0  0  0  0
    4.0876   -0.4471   -0.0103 C   0  0  0  0  0  0  0  0  0  0  0  0
    3.1272    0.1890   -1.3604 S   0  0  0  0  0  6  0  0  0  0  0  0
    3.8620    1.3010   -1.9238 O   0  0  0  0  0  0  0  0  0  0  0  0
    2.6968   -0.9178   -2.1879 O   0  0  0  0  0  0  0  0  0  0  0  0
    1.7454    0.8067   -0.5713 N   0  0  0  0  0  0  0  0  0  0  0  0
    0.9472   -0.2105    0.1997 C   0  0  0  0  0  0  0  0  0  0  0  0
   -0.4980    0.2571    0.4419 C   0  0  0  0  0  0  0  0  0  0  0  0
   -1.2428    0.4539   -0.8321 N   0  0  0  0  0  0  0  0  0  0  0  0
   -2.3381    1.2516   -0.6837 C   0  0  0  0  0  0  0  0  0  0  0  0
   -2.3694    2.5616   -0.7578 N   0  0  0  0  0  0  0  0  0  0  0  0
   -3.6624    2.9154   -0.4765 C   0  0  0  0  0  0  0  0  0  0  0  0
   -4.2338    4.1940   -0.3915 C   0  0  0  0  0  0  0  0  0  0  0  0
   -5.5902    4.3079   -0.0673 C   0  0  0  0  0  0  0  0  0  0  0  0
   -6.3627    3.1705    0.1702 C   0  0  0  0  0  0  0  0  0  0  0  0
   -5.8105    1.8868    0.0872 C   0  0  0  0  0  0  0  0  0  0  0  0
   -4.4526    1.7926   -0.2457 C   0  0  0  0  0  0  0  0  0  0  0  0
   -3.5916    0.7323   -0.4382 N   0  0  0  0  0  0  0  0  0  0  0  0
   -3.9392   -0.6718   -0.3452 C   0  0  0  0  0  0  0  0  0  0  0  0
   -4.3721   -1.3636   -1.6546 C   0  0  0  0  0  0  0  0  0  0  0  0
   -5.6492   -0.7722   -2.2501 C   0  0  0  0  0  0  0  0  0  0  0  0
   -3.2659   -1.4004   -2.7084 C   0  0  0  0  0  0  0  0  0  0  0  0
   -0.3567    0.8666   -1.9570 C   0  0  0  0  0  0  0  0  0  0  0  0
    0.8718    1.6488   -1.4689 C   0  0  0  0  0  0  0  0  0  0  0  0
    4.2283   -1.8232    0.1681 C   0  0  0  0  0  0  0  0  0  0  0  0
    4.9879   -2.3066    1.2392 C   0  0  0  0  0  0  0  0  0  0  0  0
    8.0455   -4.1417    4.8965 H   0  0  0  0  0  0  0  0  0  0  0  0
    6.9367   -3.0427    5.7630 H   0  0  0  0  0  0  0  0  0  0  0  0
    8.3019   -2.3923    4.8094 H   0  0  0  0  0  0  0  0  0  0  0  0
    6.8158   -1.0918    3.7696 H   0  0  0  0  0  0  0  0  0  0  0  0
    5.9574    0.6707    2.5844 H   0  0  0  0  0  0  0  0  0  0  0  0
    4.6174    1.5220    0.7059 H   0  0  0  0  0  0  0  0  0  0  0  0
    0.9260   -1.1669   -0.3345 H   0  0  0  0  0  0  0  0  0  0  0  0
    1.4335   -0.3663    1.1689 H   0  0  0  0  0  0  0  0  0  0  0  0
   -1.0183   -0.4952    1.0458 H   0  0  0  0  0  0  0  0  0  0  0  0
   -0.4759    1.1893    1.0239 H   0  0  0  0  0  0  0  0  0  0  0  0
   -3.6249    5.0728   -0.5718 H   0  0  0  0  0  0  0  0  0  0  0  0
   -6.0426    5.2942    0.0011 H   0  0  0  0  0  0  0  0  0  0  0  0
   -7.4153    3.2824    0.4222 H   0  0  0  0  0  0  0  0  0  0  0  0
   -6.4208    1.0096    0.2703 H   0  0  0  0  0  0  0  0  0  0  0  0
   -3.0826   -1.2027    0.0843 H   0  0  0  0  0  0  0  0  0  0  0  0
   -4.7408   -0.7591    0.3984 H   0  0  0  0  0  0  0  0  0  0  0  0
   -4.5959   -2.4065   -1.3919 H   0  0  0  0  0  0  0  0  0  0  0  0
   -5.4977    0.2536   -2.6002 H   0  0  0  0  0  0  0  0  0  0  0  0
   -5.9833   -1.3661   -3.1075 H   0  0  0  0  0  0  0  0  0  0  0  0
   -6.4597   -0.7736   -1.5147 H   0  0  0  0  0  0  0  0  0  0  0  0
   -3.5690   -2.0185   -3.5605 H   0  0  0  0  0  0  0  0  0  0  0  0
   -2.3487   -1.8344   -2.2980 H   0  0  0  0  0  0  0  0  0  0  0  0
   -3.0386   -0.4014   -3.0931 H   0  0  0  0  0  0  0  0  0  0  0  0
   -0.9054    1.4590   -2.7008 H   0  0  0  0  0  0  0  0  0  0  0  0
   -0.0330   -0.0449   -2.4744 H   0  0  0  0  0  0  0  0  0  0  0  0
    0.5700    2.5353   -0.8984 H   0  0  0  0  0  0  0  0  0  0  0  0
    1.4371    2.0156   -2.3317 H   0  0  0  0  0  0  0  0  0  0  0  0
    3.7588   -2.5281   -0.5147 H   0  0  0  0  0  0  0  0  0  0  0  0
    5.0789   -3.3835    1.3481 H   0  0  0  0  0  0  0  0  0  0  0  0
  1  2  1  0
  2  3  2  0
  2  4  1  0
  4  5  1  0
  5  6  2  0
  6  7  1  0
  7  8  2  0
  8  9  1  0
  9 10  2  0
  9 11  2  0
  9 12  1  0
 12 13  1  0
 13 14  1  0
 14 15  1  0
 15 16  1  0
 16 17  2  0
 17 18  1  0
 18 19  2  0
 19 20  1  0
 20 21  2  0
 21 22  1  0
 22 23  2  0
 23 24  1  0
 24 25  1  0
 25 26  1  0
 26 27  1  0
 26 28  1  0
 15 29  1  0
 29 30  1  0
  8 31  1  0
 31 32  2  0
 32  5  1  0
 30 12  1  0
 24 16  1  0
 23 18  1  0
  1 33  1  0
  1 34  1  0
  1 35  1  0
  4 36  1  0
  6 37  1  0
  7 38  1  0
 13 39  1  0
 13 40  1  0
 14 41  1  0
 14 42  1  0
 19 43  1  0
 20 44  1  0
 21 45  1  0
 22 46  1  0
 25 47  1  0
 25 48  1  0
 26 49  1  0
 27 50  1  0
 27 51  1  0
 27 52  1  0
 28 53  1  0
 28 54  1  0
 28 55  1  0
 29 56  1  0
 29 57  1  0
 30 58  1  0
 30 59  1  0
 31 60  1  0
 32 61  1  0
M  END
$$$$
