
     RDKit          3D

 41 42  0  0  0  0  0  0  0  0999 V2000
   -1.8566    0.5982   -3.4488 O   0  0  0  0  0  0  0  0  0  0  0  0
   -1.2810    0.5307   -2.3645 C   0  0  0  0  0  0  0  0  0  0  0  0
    0.1768    0.0899   -2.2492 C   0  0  0  0  0  0  0  0  0  0  0  0
    0.6362    0.1072   -0.8998 O   0  0  0  0  0  0  0  0  0  0  0  0
    1.9715   -0.3267   -0.8765 N   0  0  0  0  0  0  0  0  0  0  0  0
    2.4219   -0.2439    0.3340 C   0  0  0  0  0  0  0  0  0  0  0  0
    3.8032   -0.6292    0.6791 C   0  0  0  0  0  0  0  0  0  0  0  0
    4.2255   -0.4913    2.0061 C   0  0  0  0  0  0  0  0  0  0  0  0
    5.5286   -0.8421    2.3649 C   0  0  0  0  0  0  0  0  0  0  0  0
    6.4103   -1.3311    1.4010 C   0  0  0  0  0  0  0  0  0  0  0  0
    5.9782   -1.4738    0.0729 C   0  0  0  0  0  0  0  0  0  0  0  0
    6.9044   -1.9995   -0.9384 N   0  0  0  0  0  4  0  0  0  0  0  0
    6.4883   -2.1155   -2.0990 O   0  0  0  0  0  0  0  0  0  0  0  0
    8.0491   -2.2965   -0.5688 O   0  0  0  0  0  1  0  0  0  0  0  0
    4.6745   -1.1224   -0.2964 C   0  0  0  0  0  0  0  0  0  0  0  0
   -1.8908    0.8413   -1.1659 N   0  0  0  0  0  0  0  0  0  0  0  0
   -3.3105    1.1536   -1.0690 C   0  0  0  0  0  0  0  0  0  0  0  0
   -4.1574   -0.1315   -1.0327 C   0  0  0  0  0  0  0  0  0  0  0  0
   -4.4458   -0.5800    0.3958 C   0  0  0  0  0  0  0  0  0  0  0  0
   -5.2220    0.4795    1.1800 C   0  0  0  0  0  0  0  0  0  0  0  0
   -4.9680    1.9071    0.6948 C   0  0  0  0  0  0  0  0  0  0  0  0
   -3.5580    2.0671    0.1428 C   0  0  0  0  0  0  0  0  0  0  0  0
    0.2508   -0.9291   -2.6443 H   0  0  0  0  0  0  0  0  0  0  0  0
    0.7856    0.7747   -2.8491 H   0  0  0  0  0  0  0  0  0  0  0  0
    1.7797    0.1228    1.1560 H   0  0  0  0  0  0  0  0  0  0  0  0
    3.5521   -0.1039    2.7680 H   0  0  0  0  0  0  0  0  0  0  0  0
    5.8596   -0.7305    3.3949 H   0  0  0  0  0  0  0  0  0  0  0  0
    7.4231   -1.5988    1.6971 H   0  0  0  0  0  0  0  0  0  0  0  0
    4.3345   -1.2278   -1.3253 H   0  0  0  0  0  0  0  0  0  0  0  0
   -1.3797    0.5948   -0.3262 H   0  0  0  0  0  0  0  0  0  0  0  0
   -3.5844    1.6987   -1.9807 H   0  0  0  0  0  0  0  0  0  0  0  0
   -3.6716   -0.9431   -1.5861 H   0  0  0  0  0  0  0  0  0  0  0  0
   -5.1150    0.0568   -1.5352 H   0  0  0  0  0  0  0  0  0  0  0  0
   -3.4971   -0.7889    0.9075 H   0  0  0  0  0  0  0  0  0  0  0  0
   -5.0100   -1.5194    0.3915 H   0  0  0  0  0  0  0  0  0  0  0  0
   -6.2983    0.2739    1.1205 H   0  0  0  0  0  0  0  0  0  0  0  0
   -4.9546    0.3957    2.2400 H   0  0  0  0  0  0  0  0  0  0  0  0
   -5.1371    2.6094    1.5182 H   0  0  0  0  0  0  0  0  0  0  0  0
   -5.6935    2.1632   -0.0868 H   0  0  0  0  0  0  0  0  0  0  0  0
   -2.8396    1.8515    0.9444 H   0  0  0  0  0  0  0  0  0  0  0  0
   -3.3829    3.1090   -0.1464 H   0  0  0  0  0  0  0  0  0  0  0  0
  1  2  2  0
  2  3  1  0
  3  4  1  0
  4  5  1  0
  5  6  2  3
  6  7  1  0
  7  8  2  0
  8  9  1  0
  9 10  2  0
 10 11  1  0
 11 12  1  0
 12 13  2  0
 12 14  1  0
 11 15  2  0
  2 16  1  0
 16 17  1  0
 17 18  1  0
 18 19  1  0
 19 20  1  0
 20 21  1  0
 21 22  1  0
 15  7  1  0
 22 17  1  0
  3 23  1  0
  3 24  1  0
  6 25  1  0
  8 26  1  0
  9 27  1  0
 10 28  1  0
 15 29  1  0
 16 30  1  0
 17 31  1  0
 18 32  1  0
 18 33  1  0
 19 34  1  0
 19 35  1  0
 20 36  1  0
 20 37  1  0
 21 38  1  0
 21 39  1  0
 22 40  1  0
 22 41  1  0
M  CHG  2  12   1  14  -1
M  END
$$$$
