
     RDKit          3D

 62 65  0  0  0  0  0  0  0  0999 V2000
   -1.6086   -0.1447   -2.7020 O   0  0  0  0  0  0  0  0  0  0  0  0
   -1.8828   -0.0188   -1.5125 C   0  0  0  0  0  0  0  0  0  0  0  0
   -2.9683    0.7107   -1.0697 N   0  0  0  0  0  0  0  0  0  0  0  0
   -3.8884    1.3096   -2.0188 C   0  0  0  0  0  0  0  0  0  0  0  0
   -4.8745    2.2735   -1.3442 C   0  0  0  0  0  0  0  0  0  0  0  0
   -5.8166    1.6073   -0.3573 C   0  0  0  0  0  0  0  0  0  0  0  0
   -5.8405    1.9497    0.9457 C   0  0  0  0  0  0  0  0  0  0  0  0
   -6.7709    1.3399    1.9541 C   0  0  0  0  0  0  0  0  0  0  0  0
   -7.4979    0.0936    1.4434 C   0  0  0  0  0  0  0  0  0  0  0  0
   -7.9471    0.2655   -0.0008 C   0  0  0  0  0  0  0  0  0  0  0  0
   -6.7604    0.5674   -0.9178 C   0  0  0  0  0  0  0  0  0  0  0  0
   -1.0623   -0.6274   -0.3716 C   0  0  0  0  0  0  0  0  0  0  0  0
   -0.4844    0.5057    0.4986 C   0  0  0  0  0  0  0  0  0  0  0  0
    0.8285    0.1124    1.1604 C   0  0  0  0  0  0  0  0  0  0  0  0
    1.9242   -0.2127    0.1240 C   0  0  0  0  0  0  0  0  0  0  0  0
    3.0188   -1.0562    0.8069 C   0  0  0  0  0  0  0  0  0  0  0  0
    4.1709   -1.2949   -0.0676 N   0  0  0  0  0  0  0  0  0  0  0  0
    5.3642   -0.5923    0.0566 C   0  0  0  0  0  0  0  0  0  0  0  0
    5.3020    0.7727    0.0033 N   0  0  0  0  0  0  0  0  0  0  0  0
    6.3662    1.6299    0.0749 C   0  0  0  0  0  0  0  0  0  0  0  0
    6.0583    3.2736   -0.0628 S   0  0  0  0  0  0  0  0  0  0  0  0
    7.6129    1.1032    0.2641 N   0  0  0  0  0  0  0  0  0  0  0  0
    7.7157   -0.1863    0.3260 C   0  0  0  0  0  0  0  0  0  0  0  0
    9.0655   -0.7815    0.5492 C   0  0  0  0  0  0  0  0  0  0  0  0
    9.2223   -2.1070    0.6709 C   0  0  0  0  0  0  0  0  0  0  0  0
    8.1152   -3.0234    0.5559 C   0  0  0  0  0  0  0  0  0  0  0  0
    6.8677   -2.5856    0.3233 C   0  0  0  0  0  0  0  0  0  0  0  0
    6.5797   -1.1637    0.2123 C   0  0  0  0  0  0  0  0  0  0  0  0
    1.3457   -0.8754   -1.1473 C   0  0  0  0  0  0  0  0  0  0  0  0
    0.0244   -1.5912   -0.8809 C   0  0  0  0  0  0  0  0  0  0  0  0
   -3.3282    0.4957   -0.1469 H   0  0  0  0  0  0  0  0  0  0  0  0
   -3.2957    1.8546   -2.7630 H   0  0  0  0  0  0  0  0  0  0  0  0
   -4.4065    0.4990   -2.5448 H   0  0  0  0  0  0  0  0  0  0  0  0
   -4.3035    3.0706   -0.8483 H   0  0  0  0  0  0  0  0  0  0  0  0
   -5.4776    2.7685   -2.1157 H   0  0  0  0  0  0  0  0  0  0  0  0
   -5.1748    2.7278    1.3188 H   0  0  0  0  0  0  0  0  0  0  0  0
   -7.5072    2.1002    2.2461 H   0  0  0  0  0  0  0  0  0  0  0  0
   -6.2113    1.0815    2.8601 H   0  0  0  0  0  0  0  0  0  0  0  0
   -8.3633   -0.1165    2.0823 H   0  0  0  0  0  0  0  0  0  0  0  0
   -6.8323   -0.7741    1.5193 H   0  0  0  0  0  0  0  0  0  0  0  0
   -8.6724    1.0860   -0.0608 H   0  0  0  0  0  0  0  0  0  0  0  0
   -8.4586   -0.6417   -0.3454 H   0  0  0  0  0  0  0  0  0  0  0  0
   -6.1980   -0.3570   -1.0924 H   0  0  0  0  0  0  0  0  0  0  0  0
   -7.1482    0.8974   -1.8876 H   0  0  0  0  0  0  0  0  0  0  0  0
   -1.7608   -1.2258    0.2302 H   0  0  0  0  0  0  0  0  0  0  0  0
   -0.3242    1.4115   -0.1036 H   0  0  0  0  0  0  0  0  0  0  0  0
   -1.2164    0.7787    1.2706 H   0  0  0  0  0  0  0  0  0  0  0  0
    1.1748    0.9263    1.8093 H   0  0  0  0  0  0  0  0  0  0  0  0
    0.6485   -0.7498    1.8186 H   0  0  0  0  0  0  0  0  0  0  0  0
    2.3697    0.7392   -0.1937 H   0  0  0  0  0  0  0  0  0  0  0  0
    2.6068   -2.0299    1.0986 H   0  0  0  0  0  0  0  0  0  0  0  0
    3.3482   -0.5696    1.7324 H   0  0  0  0  0  0  0  0  0  0  0  0
    4.3231   -2.2930   -0.1864 H   0  0  0  0  0  0  0  0  0  0  0  0
    4.4064    1.1983   -0.1840 H   0  0  0  0  0  0  0  0  0  0  0  0
    9.8963   -0.0915    0.6319 H   0  0  0  0  0  0  0  0  0  0  0  0
   10.2088   -2.5273    0.8521 H   0  0  0  0  0  0  0  0  0  0  0  0
    8.3262   -4.0844    0.6512 H   0  0  0  0  0  0  0  0  0  0  0  0
    6.0656   -3.3089    0.2422 H   0  0  0  0  0  0  0  0  0  0  0  0
    2.0586   -1.5763   -1.5948 H   0  0  0  0  0  0  0  0  0  0  0  0
    1.1766   -0.0973   -1.9036 H   0  0  0  0  0  0  0  0  0  0  0  0
    0.1936   -2.3687   -0.1237 H   0  0  0  0  0  0  0  0  0  0  0  0
   -0.3035   -2.1164   -1.7851 H   0  0  0  0  0  0  0  0  0  0  0  0
  1  2  2  0
  2  3  1  0
  3  4  1  0
  4  5  1  0
  5  6  1  0
  6  7  2  0
  7  8  1  0
  8  9  1  0
  9 10  1  0
 10 11  1  0
  2 12  1  0
 12 13  1  0
 13 14  1  0
 14 15  1  0
 15 16  1  0
 16 17  1  0
 17 18  1  0
 18 19  1  0
 19 20  1  0
 20 21  2  0
 20 22  1  0
 22 23  2  0
 23 24  1  0
 24 25  2  0
 25 26  1  0
 26 27  2  0
 27 28  1  0
 15 29  1  0
 29 30  1  0
 11  6  1  0
 30 12  1  0
 28 18  2  0
 28 23  1  0
  3 31  1  0
  4 32  1  0
  4 33  1  0
  5 34  1  0
  5 35  1  0
  7 36  1  0
  8 37  1  0
  8 38  1  0
  9 39  1  0
  9 40  1  0
 10 41  1  0
 10 42  1  0
 11 43  1  0
 11 44  1  0
 12 45  1  0
 13 46  1  0
 13 47  1  0
 14 48  1  0
 14 49  1  0
 15 50  1  0
 16 51  1  0
 16 52  1  0
 17 53  1  0
 19 54  1  0
 24 55  1  0
 25 56  1  0
 26 57  1  0
 27 58  1  0
 29 59  1  0
 29 60  1  0
 30 61  1  0
 30 62  1  0
M  END
$$$$
