
     RDKit          3D

 49 51  0  0  0  0  0  0  0  0999 V2000
   -0.6769    3.1471    3.0295 N   0  0  0  0  0  0  0  0  0  0  0  0
   -0.0631    2.0899    2.4674 C   0  0  0  0  0  0  0  0  0  0  0  0
    0.3083    1.0457    3.1422 N   0  0  0  0  0  0  0  0  0  0  0  0
    0.9329    0.1516    2.1245 C   0  0  0  0  0  0  0  0  0  0  0  0
    0.8533    0.8789    0.7631 C   0  0  0  0  0  0  0  0  0  0  0  0
    2.2306    1.1554    0.1461 C   0  0  0  0  0  0  0  0  0  0  0  0
    2.8410   -0.0798   -0.4752 C   0  0  0  0  0  0  0  0  0  0  0  0
    3.8876   -0.7575    0.1639 C   0  0  0  0  0  0  0  0  0  0  0  0
    4.4343   -1.9083   -0.4062 C   0  0  0  0  0  0  0  0  0  0  0  0
    3.9385   -2.3830   -1.6142 C   0  0  0  0  0  0  0  0  0  0  0  0
    4.5031   -3.5099   -2.1337 O   0  0  0  0  0  0  0  0  0  0  0  0
    2.9013   -1.7252   -2.2660 C   0  0  0  0  0  0  0  0  0  0  0  0
    2.3540   -0.5737   -1.6960 C   0  0  0  0  0  0  0  0  0  0  0  0
    0.1907    2.1301    1.1354 N   0  0  0  0  0  0  0  0  0  0  0  0
   -0.6216    2.8311    0.1452 C   0  0  0  0  0  0  0  0  0  0  0  0
   -2.1042    2.4182    0.1392 C   0  0  0  0  0  0  0  0  0  0  0  0
   -2.3543    0.9939   -0.3014 C   0  0  0  0  0  0  0  0  0  0  0  0
   -2.6528    0.0059    0.6477 C   0  0  0  0  0  0  0  0  0  0  0  0
   -2.8396   -1.3307    0.2660 C   0  0  0  0  0  0  0  0  0  0  0  0
   -3.1218   -2.3902    1.3058 C   0  0  0  0  0  0  0  0  0  0  0  0
   -3.8369   -3.4388    0.8092 F   0  0  0  0  0  0  0  0  0  0  0  0
   -3.8353   -1.9262    2.3679 F   0  0  0  0  0  0  0  0  0  0  0  0
   -1.9810   -2.9266    1.8176 F   0  0  0  0  0  0  0  0  0  0  0  0
   -2.7089   -1.6734   -1.0898 C   0  0  0  0  0  0  0  0  0  0  0  0
   -2.4206   -0.6985   -2.0587 C   0  0  0  0  0  0  0  0  0  0  0  0
   -2.2432   -1.0778   -3.5095 C   0  0  0  0  0  0  0  0  0  0  0  0
   -2.7028   -0.1253   -4.3676 F   0  0  0  0  0  0  0  0  0  0  0  0
   -2.8834   -2.2294   -3.8502 F   0  0  0  0  0  0  0  0  0  0  0  0
   -0.9325   -1.2668   -3.8298 F   0  0  0  0  0  0  0  0  0  0  0  0
   -2.2457    0.6334   -1.6514 C   0  0  0  0  0  0  0  0  0  0  0  0
   -0.2690    4.0260    2.7389 H   0  0  0  0  0  0  0  0  0  0  0  0
   -0.6505    3.0595    4.0408 H   0  0  0  0  0  0  0  0  0  0  0  0
    1.9598   -0.0727    2.4291 H   0  0  0  0  0  0  0  0  0  0  0  0
    0.3749   -0.7907    2.0895 H   0  0  0  0  0  0  0  0  0  0  0  0
    0.2393    0.2901    0.0762 H   0  0  0  0  0  0  0  0  0  0  0  0
    2.9106    1.5839    0.8939 H   0  0  0  0  0  0  0  0  0  0  0  0
    2.1477    1.9194   -0.6383 H   0  0  0  0  0  0  0  0  0  0  0  0
    4.2862   -0.3973    1.1098 H   0  0  0  0  0  0  0  0  0  0  0  0
    5.2450   -2.4330    0.0918 H   0  0  0  0  0  0  0  0  0  0  0  0
    4.0695   -3.7122   -2.9788 H   0  0  0  0  0  0  0  0  0  0  0  0
    2.5081   -2.0888   -3.2101 H   0  0  0  0  0  0  0  0  0  0  0  0
    1.5437   -0.0639   -2.2127 H   0  0  0  0  0  0  0  0  0  0  0  0
   -0.5623    3.9075    0.3467 H   0  0  0  0  0  0  0  0  0  0  0  0
   -0.1893    2.6905   -0.8530 H   0  0  0  0  0  0  0  0  0  0  0  0
   -2.6492    3.0826   -0.5444 H   0  0  0  0  0  0  0  0  0  0  0  0
   -2.5564    2.5837    1.1241 H   0  0  0  0  0  0  0  0  0  0  0  0
   -2.7163    0.2762    1.7039 H   0  0  0  0  0  0  0  0  0  0  0  0
   -2.8322   -2.7148   -1.3930 H   0  0  0  0  0  0  0  0  0  0  0  0
   -2.0105    1.3937   -2.3964 H   0  0  0  0  0  0  0  0  0  0  0  0
  1  2  1  0
  2  3  2  0
  3  4  1  0
  4  5  1  0
  5  6  1  0
  6  7  1  0
  7  8  2  0
  8  9  1  0
  9 10  2  0
 10 11  1  0
 10 12  1  0
 12 13  2  0
  5 14  1  0
 14 15  1  0
 15 16  1  0
 16 17  1  0
 17 18  2  0
 18 19  1  0
 19 20  1  0
 20 21  1  0
 20 22  1  0
 20 23  1  0
 19 24  2  0
 24 25  1  0
 25 26  1  0
 26 27  1  0
 26 28  1  0
 26 29  1  0
 25 30  2  0
 14  2  1  0
 30 17  1  0
 13  7  1  0
  1 31  1  0
  1 32  1  0
  4 33  1  0
  4 34  1  0
  5 35  1  0
  6 36  1  0
  6 37  1  0
  8 38  1  0
  9 39  1  0
 11 40  1  0
 12 41  1  0
 13 42  1  0
 15 43  1  0
 15 44  1  0
 16 45  1  0
 16 46  1  0
 18 47  1  0
 24 48  1  0
 30 49  1  0
M  END
$$$$
