
     RDKit          3D

 58 62  0  0  0  0  0  0  0  0999 V2000
   -5.4826    3.5278   -1.2088 C   0  0  0  0  0  0  0  0  0  0  0  0
   -5.4759    2.9701    0.0991 O   0  0  0  0  0  0  0  0  0  0  0  0
   -4.4067    2.1838    0.4300 C   0  0  0  0  0  0  0  0  0  0  0  0
   -3.3746    1.8012   -0.4289 C   0  0  0  0  0  0  0  0  0  0  0  0
   -2.3374    0.9861    0.0379 C   0  0  0  0  0  0  0  0  0  0  0  0
   -2.3368    0.5420    1.3654 C   0  0  0  0  0  0  0  0  0  0  0  0
   -1.2329   -0.3136    1.8761 C   0  0  0  0  0  0  0  0  0  0  0  0
   -0.7310   -0.0473    3.0340 N   0  0  0  0  0  0  0  0  0  0  0  0
    0.4150   -0.8321    3.4849 C   0  0  0  0  0  0  0  0  0  0  0  0
    1.6455   -0.4919    2.6428 C   0  0  0  0  0  0  0  0  0  0  0  0
    2.5530    0.2011    3.1146 O   0  0  0  0  0  0  0  0  0  0  0  0
    1.7324   -1.0656    1.3693 N   0  0  0  0  0  0  0  0  0  0  0  0
    2.9824   -0.8317    0.6423 C   0  0  0  0  0  0  0  0  0  0  0  0
    2.8813    0.4207   -0.2389 C   0  0  0  0  0  0  0  0  0  0  0  0
    1.8212    0.9067   -0.6289 O   0  0  0  0  0  0  0  0  0  0  0  0
    4.1058    0.9331   -0.6117 N   0  0  0  0  0  0  0  0  0  0  0  0
    4.1944    2.0528   -1.5179 C   0  0  0  0  0  0  0  0  0  0  0  0
    5.5957    2.5342   -1.5384 C   0  0  0  0  0  0  0  0  0  0  0  0
    6.2045    3.7003   -1.1218 C   0  0  0  0  0  0  0  0  0  0  0  0
    7.5839    3.5539   -1.4045 C   0  0  0  0  0  0  0  0  0  0  0  0
    7.7302    2.3087   -1.9694 C   0  0  0  0  0  0  0  0  0  0  0  0
    6.5299    1.6795   -2.0517 O   0  0  0  0  0  0  0  0  0  0  0  0
    0.5958   -1.6495    0.7965 C   0  0  0  0  0  0  0  0  0  0  0  0
    0.8376   -2.8441   -0.3992 S   0  0  0  0  0  0  0  0  0  0  0  0
   -0.8186   -3.1778   -0.5026 C   0  0  0  0  0  0  0  0  0  0  0  0
   -1.5768   -2.3517    0.3040 C   0  0  0  0  0  0  0  0  0  0  0  0
   -0.7506   -1.4074    1.0293 C   0  0  0  0  0  0  0  0  0  0  0  0
   -3.0759   -2.4779    0.3532 C   0  0  0  0  0  0  0  0  0  0  0  0
   -3.5531   -3.8348   -0.1877 C   0  0  0  0  0  0  0  0  0  0  0  0
   -2.8704   -4.1739   -1.5192 C   0  0  0  0  0  0  0  0  0  0  0  0
   -1.3472   -4.2841   -1.3636 C   0  0  0  0  0  0  0  0  0  0  0  0
   -3.3555    0.9414    2.2335 C   0  0  0  0  0  0  0  0  0  0  0  0
   -4.3904    1.7509    1.7596 C   0  0  0  0  0  0  0  0  0  0  0  0
   -5.5563    2.7441   -1.9696 H   0  0  0  0  0  0  0  0  0  0  0  0
   -4.6036    4.1592   -1.3744 H   0  0  0  0  0  0  0  0  0  0  0  0
   -6.3697    4.1621   -1.2972 H   0  0  0  0  0  0  0  0  0  0  0  0
   -3.3404    2.1239   -1.4641 H   0  0  0  0  0  0  0  0  0  0  0  0
   -1.5257    0.7193   -0.6367 H   0  0  0  0  0  0  0  0  0  0  0  0
    0.6359   -0.5563    4.5225 H   0  0  0  0  0  0  0  0  0  0  0  0
    0.2214   -1.9110    3.4954 H   0  0  0  0  0  0  0  0  0  0  0  0
    3.2458   -1.6870    0.0138 H   0  0  0  0  0  0  0  0  0  0  0  0
    3.8084   -0.6986    1.3508 H   0  0  0  0  0  0  0  0  0  0  0  0
    4.9564    0.4224   -0.4133 H   0  0  0  0  0  0  0  0  0  0  0  0
    3.8826    1.7167   -2.5124 H   0  0  0  0  0  0  0  0  0  0  0  0
    3.5070    2.8395   -1.1889 H   0  0  0  0  0  0  0  0  0  0  0  0
    5.7114    4.5488   -0.6662 H   0  0  0  0  0  0  0  0  0  0  0  0
    8.3757    4.2659   -1.2166 H   0  0  0  0  0  0  0  0  0  0  0  0
    8.5772    1.7520   -2.3460 H   0  0  0  0  0  0  0  0  0  0  0  0
   -3.5200   -1.6829   -0.2569 H   0  0  0  0  0  0  0  0  0  0  0  0
   -3.4362   -2.3529    1.3805 H   0  0  0  0  0  0  0  0  0  0  0  0
   -3.3324   -4.6231    0.5435 H   0  0  0  0  0  0  0  0  0  0  0  0
   -4.6409   -3.8133   -0.3193 H   0  0  0  0  0  0  0  0  0  0  0  0
   -3.2667   -5.1154   -1.9158 H   0  0  0  0  0  0  0  0  0  0  0  0
   -3.1088   -3.3932   -2.2530 H   0  0  0  0  0  0  0  0  0  0  0  0
   -1.1020   -5.2444   -0.8937 H   0  0  0  0  0  0  0  0  0  0  0  0
   -0.8787   -4.2707   -2.3546 H   0  0  0  0  0  0  0  0  0  0  0  0
   -3.3472    0.6267    3.2741 H   0  0  0  0  0  0  0  0  0  0  0  0
   -5.1857    2.0570    2.4352 H   0  0  0  0  0  0  0  0  0  0  0  0
  1  2  1  0
  2  3  1  0
  3  4  2  0
  4  5  1  0
  5  6  2  0
  6  7  1  0
  7  8  2  0
  8  9  1  0
  9 10  1  0
 10 11  2  0
 10 12  1  0
 12 13  1  0
 13 14  1  0
 14 15  2  0
 14 16  1  0
 16 17  1  0
 17 18  1  0
 18 19  2  0
 19 20  1  0
 20 21  2  0
 21 22  1  0
 12 23  1  0
 23 24  1  0
 24 25  1  0
 25 26  2  0
 26 27  1  0
 26 28  1  0
 28 29  1  0
 29 30  1  0
 30 31  1  0
  6 32  1  0
 32 33  2  0
 33  3  1  0
 27  7  1  0
 22 18  1  0
 27 23  2  0
 31 25  1  0
  1 34  1  0
  1 35  1  0
  1 36  1  0
  4 37  1  0
  5 38  1  0
  9 39  1  0
  9 40  1  0
 13 41  1  0
 13 42  1  0
 16 43  1  0
 17 44  1  0
 17 45  1  0
 19 46  1  0
 20 47  1  0
 21 48  1  0
 28 49  1  0
 28 50  1  0
 29 51  1  0
 29 52  1  0
 30 53  1  0
 30 54  1  0
 31 55  1  0
 31 56  1  0
 32 57  1  0
 33 58  1  0
M  END
$$$$
