
     RDKit          3D

 42 45  0  0  0  0  0  0  0  0999 V2000
    5.3887   -0.8519    1.5934 C   0  0  0  0  0  0  0  0  0  0  0  0
    5.4190    0.1850    0.5755 N   0  0  0  0  0  0  0  0  0  0  0  0
    5.1878    1.5432    1.0404 C   0  0  0  0  0  0  0  0  0  0  0  0
    5.2824   -0.0683   -0.7920 C   0  0  0  0  0  0  0  0  0  0  0  0
    5.1859    0.8550   -1.6060 O   0  0  0  0  0  0  0  0  0  0  0  0
    5.3123   -1.5273   -1.2512 C   0  0  0  0  0  0  0  0  0  0  0  0
    4.2631   -1.7961   -2.7131 S   0  0  0  0  0  0  0  0  0  0  0  0
    2.6973   -1.3979   -2.0360 C   0  0  0  0  0  0  0  0  0  0  0  0
    2.4706   -1.4644   -0.7439 N   0  0  0  0  0  0  0  0  0  0  0  0
    1.1643   -1.0896   -0.4859 C   0  0  0  0  0  0  0  0  0  0  0  0
    0.5578   -1.0176    0.7773 C   0  0  0  0  0  0  0  0  0  0  0  0
   -0.7854   -0.6183    0.8874 C   0  0  0  0  0  0  0  0  0  0  0  0
   -1.5639   -0.2835   -0.2308 C   0  0  0  0  0  0  0  0  0  0  0  0
   -2.9331    0.1212   -0.0931 N   0  0  0  0  0  0  0  0  0  0  0  0
   -3.6002    0.2774    1.1086 C   0  0  0  0  0  0  0  0  0  0  0  0
   -3.2462    0.1353    2.2657 O   0  0  0  0  0  0  0  0  0  0  0  0
   -4.9628    0.6961    0.7992 C   0  0  0  0  0  0  0  0  0  0  0  0
   -6.0240    0.9823    1.6386 C   0  0  0  0  0  0  0  0  0  0  0  0
   -7.2297    1.3640    1.0424 C   0  0  0  0  0  0  0  0  0  0  0  0
   -7.3444    1.4488   -0.3595 C   0  0  0  0  0  0  0  0  0  0  0  0
   -6.2551    1.1527   -1.1847 C   0  0  0  0  0  0  0  0  0  0  0  0
   -5.0750    0.7785   -0.5688 C   0  0  0  0  0  0  0  0  0  0  0  0
   -3.7861    0.4096   -1.1430 C   0  0  0  0  0  0  0  0  0  0  0  0
   -3.6316    0.3910   -2.3510 O   0  0  0  0  0  0  0  0  0  0  0  0
   -0.9486   -0.3600   -1.4954 C   0  0  0  0  0  0  0  0  0  0  0  0
    0.4005   -0.7591   -1.6017 C   0  0  0  0  0  0  0  0  0  0  0  0
    1.3745   -0.9292   -3.0126 S   0  0  0  0  0  0  0  0  0  0  0  0
    5.9991   -1.7060    1.2907 H   0  0  0  0  0  0  0  0  0  0  0  0
    5.7947   -0.4642    2.5323 H   0  0  0  0  0  0  0  0  0  0  0  0
    4.3529   -1.1706    1.7428 H   0  0  0  0  0  0  0  0  0  0  0  0
    5.3492    2.2809    0.2499 H   0  0  0  0  0  0  0  0  0  0  0  0
    5.8730    1.7636    1.8645 H   0  0  0  0  0  0  0  0  0  0  0  0
    4.1537    1.6208    1.3903 H   0  0  0  0  0  0  0  0  0  0  0  0
    4.9768   -2.2212   -0.4799 H   0  0  0  0  0  0  0  0  0  0  0  0
    6.3467   -1.7755   -1.5082 H   0  0  0  0  0  0  0  0  0  0  0  0
    1.1290   -1.2704    1.6652 H   0  0  0  0  0  0  0  0  0  0  0  0
   -1.1869   -0.5888    1.8965 H   0  0  0  0  0  0  0  0  0  0  0  0
   -5.9217    0.9112    2.7171 H   0  0  0  0  0  0  0  0  0  0  0  0
   -8.0908    1.5977    1.6665 H   0  0  0  0  0  0  0  0  0  0  0  0
   -8.2927    1.7472   -0.8035 H   0  0  0  0  0  0  0  0  0  0  0  0
   -6.3296    1.2117   -2.2662 H   0  0  0  0  0  0  0  0  0  0  0  0
   -1.4716   -0.1131   -2.4121 H   0  0  0  0  0  0  0  0  0  0  0  0
  1  2  1  0
  2  3  1  0
  2  4  1  0
  4  5  2  0
  4  6  1  0
  6  7  1  0
  7  8  1  0
  8  9  2  0
  9 10  1  0
 10 11  2  0
 11 12  1  0
 12 13  2  0
 13 14  1  0
 14 15  1  0
 15 16  2  0
 15 17  1  0
 17 18  2  0
 18 19  1  0
 19 20  2  0
 20 21  1  0
 21 22  2  0
 22 23  1  0
 23 24  2  0
 13 25  1  0
 25 26  2  0
 26 27  1  0
 27  8  1  0
 26 10  1  0
 23 14  1  0
 22 17  1  0
  1 28  1  0
  1 29  1  0
  1 30  1  0
  3 31  1  0
  3 32  1  0
  3 33  1  0
  6 34  1  0
  6 35  1  0
 11 36  1  0
 12 37  1  0
 18 38  1  0
 19 39  1  0
 20 40  1  0
 21 41  1  0
 25 42  1  0
M  END
$$$$
