
     RDKit          3D

 55 58  0  0  0  0  0  0  0  0999 V2000
   -8.3012    1.7571   -1.6788 C   0  0  0  0  0  0  0  0  0  0  0  0
   -7.5605    1.7548   -0.3507 C   0  0  0  0  0  0  0  0  0  0  0  0
   -7.4068    0.3599    0.2631 C   0  0  0  0  0  0  0  0  0  0  0  0
   -6.6016   -0.6290   -0.5814 C   0  0  0  0  0  0  0  0  0  0  0  0
   -5.2493   -0.1777   -0.8381 N   0  0  0  0  0  0  0  0  0  0  0  0
   -4.2538   -0.3140    0.1085 C   0  0  0  0  0  0  0  0  0  0  0  0
   -4.4200   -0.8629    1.1918 O   0  0  0  0  0  0  0  0  0  0  0  0
   -2.9349    0.2892   -0.2300 C   0  0  0  0  0  0  0  0  0  0  0  0
   -2.4927    0.4195   -1.5506 C   0  0  0  0  0  0  0  0  0  0  0  0
   -1.2456    0.9937   -1.8194 C   0  0  0  0  0  0  0  0  0  0  0  0
   -0.4147    1.4320   -0.7768 C   0  0  0  0  0  0  0  0  0  0  0  0
    0.9411    2.0484   -1.0734 C   0  0  0  0  0  0  0  0  0  0  0  0
    2.0635    1.1868   -0.6812 N   0  0  0  0  0  0  0  0  0  0  0  0
    2.5743    0.1980   -1.5475 C   0  0  0  0  0  0  0  0  0  0  0  0
    2.0693   -0.1331   -3.1163 S   0  0  0  0  0  0  0  0  0  0  0  0
    3.6089   -0.5850   -1.0798 N   0  0  0  0  0  0  0  0  0  0  0  0
    4.1485   -0.4137    0.1659 C   0  0  0  0  0  0  0  0  0  0  0  0
    3.6554    0.5662    0.9728 C   0  0  0  0  0  0  0  0  0  0  0  0
    4.3574    0.5379    2.1451 N   0  0  0  0  0  0  0  0  0  0  0  0
    5.3062   -0.4641    2.0930 C   0  0  0  0  0  0  0  0  0  0  0  0
    6.2459   -0.8637    3.0465 C   0  0  0  0  0  0  0  0  0  0  0  0
    7.0907   -1.9265    2.7088 C   0  0  0  0  0  0  0  0  0  0  0  0
    7.0068   -2.5701    1.4720 C   0  0  0  0  0  0  0  0  0  0  0  0
    7.9065   -3.5893    1.3036 O   0  0  0  0  0  0  0  0  0  0  0  0
    7.8598   -4.2939    0.0695 C   0  0  0  0  0  0  0  0  0  0  0  0
    6.0585   -2.1549    0.5294 C   0  0  0  0  0  0  0  0  0  0  0  0
    5.1930   -1.0847    0.8434 C   0  0  0  0  0  0  0  0  0  0  0  0
    2.5903    1.4420    0.6029 C   0  0  0  0  0  0  0  0  0  0  0  0
    2.2004    2.3323    1.3533 O   0  0  0  0  0  0  0  0  0  0  0  0
   -0.8659    1.2908    0.5440 C   0  0  0  0  0  0  0  0  0  0  0  0
   -2.1115    0.7178    0.8157 C   0  0  0  0  0  0  0  0  0  0  0  0
   -7.7277    1.2481   -2.4590 H   0  0  0  0  0  0  0  0  0  0  0  0
   -8.4709    2.7862   -2.0118 H   0  0  0  0  0  0  0  0  0  0  0  0
   -9.2750    1.2662   -1.5869 H   0  0  0  0  0  0  0  0  0  0  0  0
   -8.1140    2.3831    0.3575 H   0  0  0  0  0  0  0  0  0  0  0  0
   -6.5782    2.2233   -0.4802 H   0  0  0  0  0  0  0  0  0  0  0  0
   -8.4021   -0.0637    0.4447 H   0  0  0  0  0  0  0  0  0  0  0  0
   -6.9309    0.4699    1.2453 H   0  0  0  0  0  0  0  0  0  0  0  0
   -7.0783   -0.8024   -1.5509 H   0  0  0  0  0  0  0  0  0  0  0  0
   -6.5546   -1.5927   -0.0614 H   0  0  0  0  0  0  0  0  0  0  0  0
   -5.1083    0.4605   -1.6086 H   0  0  0  0  0  0  0  0  0  0  0  0
   -3.0892    0.0542   -2.3816 H   0  0  0  0  0  0  0  0  0  0  0  0
   -0.9249    1.0839   -2.8558 H   0  0  0  0  0  0  0  0  0  0  0  0
    0.9986    3.0134   -0.5542 H   0  0  0  0  0  0  0  0  0  0  0  0
    1.0185    2.2977   -2.1374 H   0  0  0  0  0  0  0  0  0  0  0  0
    3.9805   -1.3062   -1.6862 H   0  0  0  0  0  0  0  0  0  0  0  0
    4.2002    1.1596    2.9280 H   0  0  0  0  0  0  0  0  0  0  0  0
    6.3250   -0.3764    4.0128 H   0  0  0  0  0  0  0  0  0  0  0  0
    7.8330   -2.2609    3.4312 H   0  0  0  0  0  0  0  0  0  0  0  0
    8.0883   -3.6314   -0.7719 H   0  0  0  0  0  0  0  0  0  0  0  0
    6.8922   -4.7882   -0.0669 H   0  0  0  0  0  0  0  0  0  0  0  0
    8.6292   -5.0714    0.0991 H   0  0  0  0  0  0  0  0  0  0  0  0
    5.9659   -2.6307   -0.4386 H   0  0  0  0  0  0  0  0  0  0  0  0
   -0.2556    1.6286    1.3794 H   0  0  0  0  0  0  0  0  0  0  0  0
   -2.4401    0.6107    1.8480 H   0  0  0  0  0  0  0  0  0  0  0  0
  1  2  1  0
  2  3  1  0
  3  4  1  0
  4  5  1  0
  5  6  1  0
  6  7  2  0
  6  8  1  0
  8  9  2  0
  9 10  1  0
 10 11  2  0
 11 12  1  0
 12 13  1  0
 13 14  1  0
 14 15  2  0
 14 16  1  0
 16 17  1  0
 17 18  2  0
 18 19  1  0
 19 20  1  0
 20 21  2  0
 21 22  1  0
 22 23  2  0
 23 24  1  0
 24 25  1  0
 23 26  1  0
 26 27  2  0
 18 28  1  0
 28 29  2  0
 11 30  1  0
 30 31  2  0
 31  8  1  0
 28 13  1  0
 27 17  1  0
 27 20  1  0
  1 32  1  0
  1 33  1  0
  1 34  1  0
  2 35  1  0
  2 36  1  0
  3 37  1  0
  3 38  1  0
  4 39  1  0
  4 40  1  0
  5 41  1  0
  9 42  1  0
 10 43  1  0
 12 44  1  0
 12 45  1  0
 16 46  1  0
 19 47  1  0
 21 48  1  0
 22 49  1  0
 25 50  1  0
 25 51  1  0
 25 52  1  0
 26 53  1  0
 30 54  1  0
 31 55  1  0
M  END
$$$$
