
     RDKit          3D

 39 41  0  0  0  0  0  0  0  0999 V2000
    4.2974    0.2946   -2.4584 C   0  0  0  0  0  0  0  0  0  0  0  0
    4.5346    0.0432   -1.0145 C   0  0  0  0  0  0  0  0  0  0  0  0
    5.7644    0.2018   -0.5040 N   0  0  0  0  0  0  0  0  0  0  0  0
    5.6196   -0.0936    0.7967 N   0  0  0  0  0  0  0  0  0  0  0  0
    6.7643   -0.0185    1.6714 C   0  0  0  0  0  0  0  0  0  0  0  0
    4.3480   -0.4432    1.1362 C   0  0  0  0  0  0  0  0  0  0  0  0
    3.6005   -0.3672   -0.0229 C   0  0  0  0  0  0  0  0  0  0  0  0
    2.1876   -0.6559   -0.1157 C   0  0  0  0  0  0  0  0  0  0  0  0
    1.5986   -0.5635   -1.2642 N   0  0  0  0  0  0  0  0  0  0  0  0
    0.2461   -0.8085   -1.3300 N   0  0  0  0  0  0  0  0  0  0  0  0
   -0.6858   -0.4886   -0.3437 C   0  0  0  0  0  0  0  0  0  0  0  0
   -0.4011   -0.0227    0.7561 O   0  0  0  0  0  0  0  0  0  0  0  0
   -2.0850   -0.7235   -0.7384 C   0  0  0  0  0  0  0  0  0  0  0  0
   -2.4877   -1.6447   -1.6944 C   0  0  0  0  0  0  0  0  0  0  0  0
   -4.1824   -1.6980   -1.9136 S   0  0  0  0  0  0  0  0  0  0  0  0
   -4.4230   -0.5182   -0.7186 C   0  0  0  0  0  0  0  0  0  0  0  0
   -3.2390   -0.0671   -0.1643 C   0  0  0  0  0  0  0  0  0  0  0  0
   -3.2281    0.9727    0.9241 C   0  0  0  0  0  0  0  0  0  0  0  0
   -4.5729    1.7084    1.0338 C   0  0  0  0  0  0  0  0  0  0  0  0
   -5.7581    0.7365    0.9724 C   0  0  0  0  0  0  0  0  0  0  0  0
   -5.7922   -0.0278   -0.3588 C   0  0  0  0  0  0  0  0  0  0  0  0
    3.5540    1.0867   -2.5931 H   0  0  0  0  0  0  0  0  0  0  0  0
    5.2151    0.6082   -2.9670 H   0  0  0  0  0  0  0  0  0  0  0  0
    3.9366   -0.6135   -2.9516 H   0  0  0  0  0  0  0  0  0  0  0  0
    7.1465    1.0052    1.6523 H   0  0  0  0  0  0  0  0  0  0  0  0
    7.5211   -0.7191    1.3095 H   0  0  0  0  0  0  0  0  0  0  0  0
    6.4640   -0.2856    2.6876 H   0  0  0  0  0  0  0  0  0  0  0  0
    4.0800   -0.7077    2.1495 H   0  0  0  0  0  0  0  0  0  0  0  0
    1.6895   -0.9790    0.8133 H   0  0  0  0  0  0  0  0  0  0  0  0
   -0.0965   -0.8765   -2.2826 H   0  0  0  0  0  0  0  0  0  0  0  0
   -1.8752   -2.3194   -2.2767 H   0  0  0  0  0  0  0  0  0  0  0  0
   -2.4362    1.7080    0.7435 H   0  0  0  0  0  0  0  0  0  0  0  0
   -3.0095    0.4753    1.8771 H   0  0  0  0  0  0  0  0  0  0  0  0
   -4.6617    2.4343    0.2153 H   0  0  0  0  0  0  0  0  0  0  0  0
   -4.6021    2.2771    1.9701 H   0  0  0  0  0  0  0  0  0  0  0  0
   -5.6820    0.0246    1.8045 H   0  0  0  0  0  0  0  0  0  0  0  0
   -6.6987    1.2831    1.1040 H   0  0  0  0  0  0  0  0  0  0  0  0
   -6.1489    0.6410   -1.1519 H   0  0  0  0  0  0  0  0  0  0  0  0
   -6.5020   -0.8593   -0.2821 H   0  0  0  0  0  0  0  0  0  0  0  0
  1  2  1  0
  2  3  2  0
  3  4  1  0
  4  5  1  0
  4  6  1  0
  6  7  2  0
  7  8  1  0
  8  9  2  3
  9 10  1  0
 10 11  1  0
 11 12  2  0
 11 13  1  0
 13 14  2  0
 14 15  1  0
 15 16  1  0
 16 17  2  0
 17 18  1  0
 18 19  1  0
 19 20  1  0
 20 21  1  0
  7  2  1  0
 17 13  1  0
 21 16  1  0
  1 22  1  0
  1 23  1  0
  1 24  1  0
  5 25  1  0
  5 26  1  0
  5 27  1  0
  6 28  1  0
  8 29  1  0
 10 30  1  0
 14 31  1  0
 18 32  1  0
 18 33  1  0
 19 34  1  0
 19 35  1  0
 20 36  1  0
 20 37  1  0
 21 38  1  0
 21 39  1  0
M  END
$$$$
