
     RDKit          3D

 46 49  0  0  0  0  0  0  0  0999 V2000
    6.4473   -0.1125    1.8664 N   0  0  0  0  0  0  0  0  0  0  0  0
    6.0565   -0.3399    0.2420 S   0  0  0  0  0  6  0  0  0  0  0  0
    6.5719    0.7862   -0.4996 O   0  0  0  0  0  0  0  0  0  0  0  0
    6.4277   -1.7045   -0.0550 O   0  0  0  0  0  0  0  0  0  0  0  0
    4.2903   -0.2266    0.2896 C   0  0  0  0  0  0  0  0  0  0  0  0
    3.6794    1.0227    0.1979 C   0  0  0  0  0  0  0  0  0  0  0  0
    2.2827    1.1145    0.2409 C   0  0  0  0  0  0  0  0  0  0  0  0
    1.4707   -0.0252    0.3686 C   0  0  0  0  0  0  0  0  0  0  0  0
    0.0798    0.0477    0.4153 N   0  0  0  0  0  0  0  0  0  0  0  0
   -0.6742   -1.0801    0.5745 N   0  0  0  0  0  0  0  0  0  0  0  0
   -1.9045   -0.6998    0.7444 C   0  0  0  0  0  0  0  0  0  0  0  0
   -3.0282   -1.6485    0.9247 C   0  0  0  0  0  0  0  0  0  0  0  0
   -4.3178   -1.2040    1.2375 C   0  0  0  0  0  0  0  0  0  0  0  0
   -5.3549   -2.1263    1.4004 C   0  0  0  0  0  0  0  0  0  0  0  0
   -5.1092   -3.4909    1.2525 C   0  0  0  0  0  0  0  0  0  0  0  0
   -3.8264   -3.9386    0.9418 C   0  0  0  0  0  0  0  0  0  0  0  0
   -2.7876   -3.0204    0.7788 C   0  0  0  0  0  0  0  0  0  0  0  0
   -2.1121    0.7889    0.7802 C   0  0  0  0  0  0  0  0  0  0  0  0
   -0.7240    1.2716    0.3551 C   0  0  0  0  0  0  0  0  0  0  0  0
   -0.7703    1.9065   -1.0270 C   0  0  0  0  0  0  0  0  0  0  0  0
   -0.8984    3.3014   -1.1413 C   0  0  0  0  0  0  0  0  0  0  0  0
   -0.9671    3.9110   -2.3957 C   0  0  0  0  0  0  0  0  0  0  0  0
   -0.9148    3.1359   -3.5518 C   0  0  0  0  0  0  0  0  0  0  0  0
   -0.7960    1.7516   -3.4557 C   0  0  0  0  0  0  0  0  0  0  0  0
   -0.7284    1.1401   -2.2028 C   0  0  0  0  0  0  0  0  0  0  0  0
    2.1265   -1.2696    0.4432 C   0  0  0  0  0  0  0  0  0  0  0  0
    3.5203   -1.3805    0.4003 C   0  0  0  0  0  0  0  0  0  0  0  0
    6.8787   -0.9689    2.2183 H   0  0  0  0  0  0  0  0  0  0  0  0
    5.6462    0.1652    2.4322 H   0  0  0  0  0  0  0  0  0  0  0  0
    4.2746    1.9268    0.0849 H   0  0  0  0  0  0  0  0  0  0  0  0
    1.8425    2.1041    0.1584 H   0  0  0  0  0  0  0  0  0  0  0  0
   -4.5408   -0.1491    1.3631 H   0  0  0  0  0  0  0  0  0  0  0  0
   -6.3566   -1.7806    1.6440 H   0  0  0  0  0  0  0  0  0  0  0  0
   -5.9178   -4.2066    1.3795 H   0  0  0  0  0  0  0  0  0  0  0  0
   -3.6330   -5.0019    0.8253 H   0  0  0  0  0  0  0  0  0  0  0  0
   -1.7908   -3.3823    0.5349 H   0  0  0  0  0  0  0  0  0  0  0  0
   -2.9208    1.1062    0.1161 H   0  0  0  0  0  0  0  0  0  0  0  0
   -2.3332    1.0891    1.8101 H   0  0  0  0  0  0  0  0  0  0  0  0
   -0.3554    2.0022    1.0868 H   0  0  0  0  0  0  0  0  0  0  0  0
   -0.9430    3.9267   -0.2520 H   0  0  0  0  0  0  0  0  0  0  0  0
   -1.0597    4.9914   -2.4720 H   0  0  0  0  0  0  0  0  0  0  0  0
   -0.9642    3.6102   -4.5285 H   0  0  0  0  0  0  0  0  0  0  0  0
   -0.7515    1.1444   -4.3564 H   0  0  0  0  0  0  0  0  0  0  0  0
   -0.6311    0.0565   -2.1493 H   0  0  0  0  0  0  0  0  0  0  0  0
    1.5358   -2.1804    0.5299 H   0  0  0  0  0  0  0  0  0  0  0  0
    3.9806   -2.3640    0.4497 H   0  0  0  0  0  0  0  0  0  0  0  0
  1  2  1  0
  2  3  2  0
  2  4  2  0
  2  5  1  0
  5  6  2  0
  6  7  1  0
  7  8  2  0
  8  9  1  0
  9 10  1  0
 10 11  2  0
 11 12  1  0
 12 13  2  0
 13 14  1  0
 14 15  2  0
 15 16  1  0
 16 17  2  0
 11 18  1  0
 18 19  1  0
 19 20  1  0
 20 21  2  0
 21 22  1  0
 22 23  2  0
 23 24  1  0
 24 25  2  0
  8 26  1  0
 26 27  2  0
 27  5  1  0
 19  9  1  0
 25 20  1  0
 17 12  1  0
  1 28  1  0
  1 29  1  0
  6 30  1  0
  7 31  1  0
 13 32  1  0
 14 33  1  0
 15 34  1  0
 16 35  1  0
 17 36  1  0
 18 37  1  0
 18 38  1  0
 19 39  1  0
 21 40  1  0
 22 41  1  0
 23 42  1  0
 24 43  1  0
 25 44  1  0
 26 45  1  0
 27 46  1  0
M  END
$$$$
