
     RDKit          3D

 37 37  0  0  0  0  0  0  0  0999 V2000
    5.1546    0.2416    2.4786 C   0  0  0  0  0  0  0  0  0  0  0  0
    4.3339    0.4952    1.2232 C   0  0  0  0  0  0  0  0  0  0  0  0
    2.8723    0.7887    1.5630 C   0  0  0  0  0  0  0  0  0  0  0  0
    2.0251    1.1647    0.3433 C   0  0  0  0  0  0  0  0  0  0  0  0
    1.8808    0.0247   -0.6701 C   0  0  0  0  0  0  0  0  0  0  0  0
    0.9083    0.3601   -1.8072 C   0  0  0  0  0  0  0  0  0  0  0  0
   -0.5008   -0.2154   -1.6291 C   0  0  0  0  0  0  0  0  0  0  0  0
   -1.2571    0.3413   -0.4224 C   0  0  0  0  0  0  0  0  0  0  0  0
   -2.6467   -0.1481   -0.4174 N   0  0  0  0  0  0  0  0  0  0  0  0
   -3.6581    0.5591   -1.0563 C   0  0  0  0  0  0  0  0  0  0  0  0
   -4.9354    0.1628   -1.1182 C   0  0  0  0  0  0  0  0  0  0  0  0
   -5.3040   -1.1187   -0.4684 C   0  0  0  0  0  0  0  0  0  0  0  0
   -6.5300   -1.5301   -0.5035 N   0  0  0  0  0  0  0  0  0  0  0  0
   -4.2147   -1.8783    0.2010 C   0  0  0  0  0  0  0  0  0  0  0  0
   -2.9811   -1.3563    0.1817 C   0  0  0  0  0  0  0  0  0  0  0  0
    6.1954    0.0298    2.2145 H   0  0  0  0  0  0  0  0  0  0  0  0
    4.7639   -0.6160    3.0357 H   0  0  0  0  0  0  0  0  0  0  0  0
    5.1430    1.1149    3.1386 H   0  0  0  0  0  0  0  0  0  0  0  0
    4.7667    1.3403    0.6757 H   0  0  0  0  0  0  0  0  0  0  0  0
    4.4051   -0.3851    0.5755 H   0  0  0  0  0  0  0  0  0  0  0  0
    2.4271   -0.0789    2.0652 H   0  0  0  0  0  0  0  0  0  0  0  0
    2.8309    1.6210    2.2767 H   0  0  0  0  0  0  0  0  0  0  0  0
    1.0385    1.4753    0.7017 H   0  0  0  0  0  0  0  0  0  0  0  0
    2.4649    2.0397   -0.1510 H   0  0  0  0  0  0  0  0  0  0  0  0
    2.8640   -0.1639   -1.1177 H   0  0  0  0  0  0  0  0  0  0  0  0
    1.5811   -0.9024   -0.1679 H   0  0  0  0  0  0  0  0  0  0  0  0
    1.3129   -0.0689   -2.7332 H   0  0  0  0  0  0  0  0  0  0  0  0
    0.8555    1.4432   -1.9691 H   0  0  0  0  0  0  0  0  0  0  0  0
   -1.0705   -0.0044   -2.5433 H   0  0  0  0  0  0  0  0  0  0  0  0
   -0.4410   -1.3087   -1.5552 H   0  0  0  0  0  0  0  0  0  0  0  0
   -1.2471    1.4383   -0.4436 H   0  0  0  0  0  0  0  0  0  0  0  0
   -0.7636    0.0417    0.5095 H   0  0  0  0  0  0  0  0  0  0  0  0
   -3.3446    1.4887   -1.5223 H   0  0  0  0  0  0  0  0  0  0  0  0
   -5.7119    0.7247   -1.6177 H   0  0  0  0  0  0  0  0  0  0  0  0
   -6.6245   -2.4245   -0.0149 H   0  0  0  0  0  0  0  0  0  0  0  0
   -4.4411   -2.8205    0.6775 H   0  0  0  0  0  0  0  0  0  0  0  0
   -2.1518   -1.8757    0.6532 H   0  0  0  0  0  0  0  0  0  0  0  0
  1  2  1  0
  2  3  1  0
  3  4  1  0
  4  5  1  0
  5  6  1  0
  6  7  1  0
  7  8  1  0
  8  9  1  0
  9 10  1  0
 10 11  2  0
 11 12  1  0
 12 13  2  3
 12 14  1  0
 14 15  2  0
 15  9  1  0
  1 16  1  0
  1 17  1  0
  1 18  1  0
  2 19  1  0
  2 20  1  0
  3 21  1  0
  3 22  1  0
  4 23  1  0
  4 24  1  0
  5 25  1  0
  5 26  1  0
  6 27  1  0
  6 28  1  0
  7 29  1  0
  7 30  1  0
  8 31  1  0
  8 32  1  0
 10 33  1  0
 11 34  1  0
 13 35  1  0
 14 36  1  0
 15 37  1  0
M  END
$$$$
