
     RDKit          3D

 45 47  0  0  0  0  0  0  0  0999 V2000
   -6.0465   -2.4306   -0.6234 N   0  0  0  0  0  0  0  0  0  0  0  0
   -6.4606   -0.8747   -0.1471 S   0  0  0  0  0  6  0  0  0  0  0  0
   -6.7385   -0.9524    1.2678 O   0  0  0  0  0  0  0  0  0  0  0  0
   -7.4371   -0.4137   -1.1060 O   0  0  0  0  0  0  0  0  0  0  0  0
   -4.9425   -0.0022   -0.3960 C   0  0  0  0  0  0  0  0  0  0  0  0
   -4.0110    0.0747    0.6408 C   0  0  0  0  0  0  0  0  0  0  0  0
   -2.8225    0.7873    0.4520 C   0  0  0  0  0  0  0  0  0  0  0  0
   -2.5583    1.4188   -0.7673 C   0  0  0  0  0  0  0  0  0  0  0  0
   -1.3929    2.1743   -1.0243 N   0  0  0  0  0  0  0  0  0  0  0  0
   -0.2684    2.3507   -0.2646 C   0  0  0  0  0  0  0  0  0  0  0  0
    0.4818    3.8476   -0.3997 S   0  0  0  0  0  0  0  0  0  0  0  0
    0.1931    1.2919    0.4967 N   0  0  0  0  0  0  0  0  0  0  0  0
    1.1652    1.4622    1.5942 C   0  0  0  0  0  0  0  0  0  0  0  0
    2.6074    1.1571    1.1414 C   0  0  0  0  0  0  0  0  0  0  0  0
    2.6772   -0.2004    0.5493 N   0  0  0  0  0  0  0  0  0  0  0  0
    3.9506   -0.7281    0.2736 C   0  0  0  0  0  0  0  0  0  0  0  0
    4.0925   -2.1116    0.0674 C   0  0  0  0  0  0  0  0  0  0  0  0
    5.3353   -2.6933   -0.2028 C   0  0  0  0  0  0  0  0  0  0  0  0
    6.4738   -1.8988   -0.2672 C   0  0  0  0  0  0  0  0  0  0  0  0
    6.3657   -0.5286   -0.0546 C   0  0  0  0  0  0  0  0  0  0  0  0
    5.1183    0.0470    0.2176 C   0  0  0  0  0  0  0  0  0  0  0  0
    1.7085   -0.3917   -0.5620 C   0  0  0  0  0  0  0  0  0  0  0  0
    0.2724   -0.0585   -0.0966 C   0  0  0  0  0  0  0  0  0  0  0  0
   -3.5191    1.3628   -1.7860 C   0  0  0  0  0  0  0  0  0  0  0  0
   -4.7091    0.6518   -1.6065 C   0  0  0  0  0  0  0  0  0  0  0  0
   -6.1331   -3.0676    0.1692 H   0  0  0  0  0  0  0  0  0  0  0  0
   -6.6065   -2.7037   -1.4317 H   0  0  0  0  0  0  0  0  0  0  0  0
   -4.2038   -0.4029    1.5991 H   0  0  0  0  0  0  0  0  0  0  0  0
   -2.1326    0.8626    1.2872 H   0  0  0  0  0  0  0  0  0  0  0  0
   -1.4951    2.8826   -1.7441 H   0  0  0  0  0  0  0  0  0  0  0  0
    1.0978    2.4669    2.0221 H   0  0  0  0  0  0  0  0  0  0  0  0
    0.8716    0.7582    2.3831 H   0  0  0  0  0  0  0  0  0  0  0  0
    2.9298    1.9045    0.4070 H   0  0  0  0  0  0  0  0  0  0  0  0
    3.2616    1.2229    2.0190 H   0  0  0  0  0  0  0  0  0  0  0  0
    3.2239   -2.7607    0.1452 H   0  0  0  0  0  0  0  0  0  0  0  0
    5.4095   -3.7668   -0.3525 H   0  0  0  0  0  0  0  0  0  0  0  0
    7.4420   -2.3454   -0.4752 H   0  0  0  0  0  0  0  0  0  0  0  0
    7.2514    0.0996   -0.0994 H   0  0  0  0  0  0  0  0  0  0  0  0
    5.0864    1.1216    0.3666 H   0  0  0  0  0  0  0  0  0  0  0  0
    1.7075   -1.4240   -0.9291 H   0  0  0  0  0  0  0  0  0  0  0  0
    1.9845    0.2619   -1.4000 H   0  0  0  0  0  0  0  0  0  0  0  0
   -0.0455   -0.7710    0.6737 H   0  0  0  0  0  0  0  0  0  0  0  0
   -0.3939   -0.1610   -0.9565 H   0  0  0  0  0  0  0  0  0  0  0  0
   -3.3484    1.8638   -2.7362 H   0  0  0  0  0  0  0  0  0  0  0  0
   -5.4425    0.6171   -2.4091 H   0  0  0  0  0  0  0  0  0  0  0  0
  1  2  1  0
  2  3  2  0
  2  4  2  0
  2  5  1  0
  5  6  2  0
  6  7  1  0
  7  8  2  0
  8  9  1  0
  9 10  1  0
 10 11  2  0
 10 12  1  0
 12 13  1  0
 13 14  1  0
 14 15  1  0
 15 16  1  0
 16 17  2  0
 17 18  1  0
 18 19  2  0
 19 20  1  0
 20 21  2  0
 15 22  1  0
 22 23  1  0
  8 24  1  0
 24 25  2  0
 25  5  1  0
 23 12  1  0
 21 16  1  0
  1 26  1  0
  1 27  1  0
  6 28  1  0
  7 29  1  0
  9 30  1  0
 13 31  1  0
 13 32  1  0
 14 33  1  0
 14 34  1  0
 17 35  1  0
 18 36  1  0
 19 37  1  0
 20 38  1  0
 21 39  1  0
 22 40  1  0
 22 41  1  0
 23 42  1  0
 23 43  1  0
 24 44  1  0
 25 45  1  0
M  END
$$$$
