
     RDKit          3D

 37 38  0  0  0  0  0  0  0  0999 V2000
   -3.1428    2.8768   -0.2741 C   0  0  0  0  0  0  0  0  0  0  0  0
   -2.1384    1.9489   -0.6611 O   0  0  0  0  0  0  0  0  0  0  0  0
   -2.2679    0.6548   -0.2255 C   0  0  0  0  0  0  0  0  0  0  0  0
   -3.3079    0.1944    0.5952 C   0  0  0  0  0  0  0  0  0  0  0  0
   -3.3558   -1.1353    1.0296 C   0  0  0  0  0  0  0  0  0  0  0  0
   -4.4611   -1.6024    1.7546 N   0  0  0  0  0  0  0  0  0  0  0  0
   -2.4057   -2.0332    0.5480 C   0  0  0  0  0  0  0  0  0  0  0  0
   -1.3639   -1.5913   -0.2678 C   0  0  0  0  0  0  0  0  0  0  0  0
   -1.2778   -0.2452   -0.6586 C   0  0  0  0  0  0  0  0  0  0  0  0
   -0.1185    0.1888   -1.5341 C   0  0  0  0  0  0  0  0  0  0  0  0
    1.1678    0.4205   -0.7656 C   0  0  0  0  0  0  0  0  0  0  0  0
    1.3371    1.6340   -0.0795 C   0  0  0  0  0  0  0  0  0  0  0  0
    2.4984    1.8857    0.6515 C   0  0  0  0  0  0  0  0  0  0  0  0
    3.4934    0.9159    0.7531 C   0  0  0  0  0  0  0  0  0  0  0  0
    4.7042    1.2151    1.3935 N   0  0  0  0  0  0  0  0  0  0  0  0
    3.3556   -0.2706    0.0234 C   0  0  0  0  0  0  0  0  0  0  0  0
    2.1951   -0.5388   -0.7171 C   0  0  0  0  0  0  0  0  0  0  0  0
    1.9772   -1.6920   -1.4269 O   0  0  0  0  0  0  0  0  0  0  0  0
    3.0111   -2.6670   -1.4315 C   0  0  0  0  0  0  0  0  0  0  0  0
   -3.1680    3.0008    0.8135 H   0  0  0  0  0  0  0  0  0  0  0  0
   -4.1231    2.5844   -0.6645 H   0  0  0  0  0  0  0  0  0  0  0  0
   -2.8874    3.8466   -0.7121 H   0  0  0  0  0  0  0  0  0  0  0  0
   -4.1004    0.8606    0.9163 H   0  0  0  0  0  0  0  0  0  0  0  0
   -4.9038   -0.8923    2.3287 H   0  0  0  0  0  0  0  0  0  0  0  0
   -4.2738   -2.4544    2.2741 H   0  0  0  0  0  0  0  0  0  0  0  0
   -2.4618   -3.0866    0.8075 H   0  0  0  0  0  0  0  0  0  0  0  0
   -0.6171   -2.3054   -0.6085 H   0  0  0  0  0  0  0  0  0  0  0  0
    0.0267   -0.5581   -2.3254 H   0  0  0  0  0  0  0  0  0  0  0  0
   -0.3677    1.1015   -2.0907 H   0  0  0  0  0  0  0  0  0  0  0  0
    0.5607    2.3952   -0.1211 H   0  0  0  0  0  0  0  0  0  0  0  0
    2.6126    2.8463    1.1456 H   0  0  0  0  0  0  0  0  0  0  0  0
    5.2154    0.3959    1.7057 H   0  0  0  0  0  0  0  0  0  0  0  0
    4.6135    1.9132    2.1252 H   0  0  0  0  0  0  0  0  0  0  0  0
    4.1751   -0.9796    0.0508 H   0  0  0  0  0  0  0  0  0  0  0  0
    3.9264   -2.2709   -1.8835 H   0  0  0  0  0  0  0  0  0  0  0  0
    2.6744   -3.5071   -2.0464 H   0  0  0  0  0  0  0  0  0  0  0  0
    3.1982   -3.0489   -0.4225 H   0  0  0  0  0  0  0  0  0  0  0  0
  1  2  1  0
  2  3  1  0
  3  4  2  0
  4  5  1  0
  5  6  1  0
  5  7  2  0
  7  8  1  0
  8  9  2  0
  9 10  1  0
 10 11  1  0
 11 12  2  0
 12 13  1  0
 13 14  2  0
 14 15  1  0
 14 16  1  0
 16 17  2  0
 17 18  1  0
 18 19  1  0
  9  3  1  0
 17 11  1  0
  1 20  1  0
  1 21  1  0
  1 22  1  0
  4 23  1  0
  6 24  1  0
  6 25  1  0
  7 26  1  0
  8 27  1  0
 10 28  1  0
 10 29  1  0
 12 30  1  0
 13 31  1  0
 15 32  1  0
 15 33  1  0
 16 34  1  0
 19 35  1  0
 19 36  1  0
 19 37  1  0
M  END
$$$$
