
     RDKit          3D

 47 49  0  0  0  0  0  0  0  0999 V2000
    6.8618    1.1351    1.4697 C   0  0  0  0  0  0  0  0  0  0  0  0
    6.1969    0.3441    0.3485 C   0  0  0  0  0  0  0  0  0  0  0  0
    6.9156   -0.9834    0.1200 C   0  0  0  0  0  0  0  0  0  0  0  0
    4.7966    0.1194    0.6581 N   0  0  0  0  0  0  0  0  0  0  0  0
    3.8507   -0.1077   -0.3182 C   0  0  0  0  0  0  0  0  0  0  0  0
    4.0247   -0.0296   -1.5252 O   0  0  0  0  0  0  0  0  0  0  0  0
    2.4693   -0.4989    0.2418 C   0  0  0  0  0  0  0  0  0  0  0  0
    2.2897   -0.6056    1.4497 O   0  0  0  0  0  0  0  0  0  0  0  0
    1.5124   -0.6952   -0.7305 N   0  0  0  0  0  0  0  0  0  0  0  0
    0.1688   -0.7787   -0.3319 N   0  0  0  0  0  0  0  0  0  0  0  0
   -0.7594   -0.0818   -1.0832 C   0  0  0  0  0  0  0  0  0  0  0  0
   -0.4589    0.4380   -2.1575 O   0  0  0  0  0  0  0  0  0  0  0  0
   -2.1680   -0.0075   -0.4759 C   0  0  0  0  0  0  0  0  0  0  0  0
   -2.7346   -1.4252   -0.2214 C   0  0  0  0  0  0  0  0  0  0  0  0
   -4.1515   -1.3411    0.3733 C   0  0  0  0  0  0  0  0  0  0  0  0
   -4.0975   -0.5636    1.6996 C   0  0  0  0  0  0  0  0  0  0  0  0
   -3.5627    0.8584    1.4579 C   0  0  0  0  0  0  0  0  0  0  0  0
   -4.4877    1.5856    0.4690 C   0  0  0  0  0  0  0  0  0  0  0  0
   -4.5416    0.8181   -0.8616 C   0  0  0  0  0  0  0  0  0  0  0  0
   -5.0728   -0.6019   -0.6099 C   0  0  0  0  0  0  0  0  0  0  0  0
   -3.1240    0.7296   -1.4495 C   0  0  0  0  0  0  0  0  0  0  0  0
   -2.1465    0.7713    0.8617 C   0  0  0  0  0  0  0  0  0  0  0  0
    7.9113    1.3406    1.2350 H   0  0  0  0  0  0  0  0  0  0  0  0
    6.8240    0.5892    2.4190 H   0  0  0  0  0  0  0  0  0  0  0  0
    6.3540    2.0940    1.6208 H   0  0  0  0  0  0  0  0  0  0  0  0
    6.2487    0.9303   -0.5769 H   0  0  0  0  0  0  0  0  0  0  0  0
    7.9700   -0.8197   -0.1255 H   0  0  0  0  0  0  0  0  0  0  0  0
    6.4598   -1.5396   -0.7062 H   0  0  0  0  0  0  0  0  0  0  0  0
    6.8660   -1.6191    1.0111 H   0  0  0  0  0  0  0  0  0  0  0  0
    4.5161   -0.1018    1.6106 H   0  0  0  0  0  0  0  0  0  0  0  0
    1.6967   -0.3702   -1.6838 H   0  0  0  0  0  0  0  0  0  0  0  0
    0.0142   -0.9788    0.6545 H   0  0  0  0  0  0  0  0  0  0  0  0
   -2.0898   -1.9867    0.4662 H   0  0  0  0  0  0  0  0  0  0  0  0
   -2.7545   -1.9972   -1.1583 H   0  0  0  0  0  0  0  0  0  0  0  0
   -4.5369   -2.3511    0.5524 H   0  0  0  0  0  0  0  0  0  0  0  0
   -3.4542   -1.0890    2.4162 H   0  0  0  0  0  0  0  0  0  0  0  0
   -5.0984   -0.5158    2.1461 H   0  0  0  0  0  0  0  0  0  0  0  0
   -3.5309    1.4075    2.4056 H   0  0  0  0  0  0  0  0  0  0  0  0
   -5.4957    1.6718    0.8928 H   0  0  0  0  0  0  0  0  0  0  0  0
   -4.1255    2.6069    0.2986 H   0  0  0  0  0  0  0  0  0  0  0  0
   -5.2013    1.3407   -1.5632 H   0  0  0  0  0  0  0  0  0  0  0  0
   -6.0914   -0.5546   -0.2055 H   0  0  0  0  0  0  0  0  0  0  0  0
   -5.1313   -1.1538   -1.5561 H   0  0  0  0  0  0  0  0  0  0  0  0
   -2.7493    1.7405   -1.6583 H   0  0  0  0  0  0  0  0  0  0  0  0
   -3.1576    0.2082   -2.4154 H   0  0  0  0  0  0  0  0  0  0  0  0
   -1.7434    1.7803    0.7038 H   0  0  0  0  0  0  0  0  0  0  0  0
   -1.4819    0.2878    1.5881 H   0  0  0  0  0  0  0  0  0  0  0  0
  1  2  1  0
  2  3  1  0
  2  4  1  0
  4  5  1  0
  5  6  2  0
  5  7  1  0
  7  8  2  0
  7  9  1  0
  9 10  1  0
 10 11  1  0
 11 12  2  0
 11 13  1  0
 13 14  1  0
 14 15  1  0
 15 16  1  0
 16 17  1  0
 17 18  1  0
 18 19  1  0
 19 20  1  0
 19 21  1  0
 17 22  1  0
 21 13  1  0
 22 13  1  0
 20 15  1  0
  1 23  1  0
  1 24  1  0
  1 25  1  0
  2 26  1  0
  3 27  1  0
  3 28  1  0
  3 29  1  0
  4 30  1  0
  9 31  1  0
 10 32  1  0
 14 33  1  0
 14 34  1  0
 15 35  1  0
 16 36  1  0
 16 37  1  0
 17 38  1  0
 18 39  1  0
 18 40  1  0
 19 41  1  0
 20 42  1  0
 20 43  1  0
 21 44  1  0
 21 45  1  0
 22 46  1  0
 22 47  1  0
M  END
$$$$
