
     RDKit          3D

 49 51  0  0  0  0  0  0  0  0999 V2000
    8.0543   -0.4694   -1.8039 C   0  0  0  0  0  0  0  0  0  0  0  0
    6.9608   -0.5305   -0.7783 C   0  0  0  0  0  0  0  0  0  0  0  0
    7.2433   -0.4052    0.5870 C   0  0  0  0  0  0  0  0  0  0  0  0
    6.2186   -0.4741    1.5351 C   0  0  0  0  0  0  0  0  0  0  0  0
    4.8995   -0.6560    1.1210 C   0  0  0  0  0  0  0  0  0  0  0  0
    3.9077   -0.7581    2.0545 O   0  0  0  0  0  0  0  0  0  0  0  0
    4.5967   -0.7524   -0.2408 C   0  0  0  0  0  0  0  0  0  0  0  0
    3.2170   -0.9488   -0.7441 C   0  0  0  0  0  0  0  0  0  0  0  0
    3.0242   -1.7705   -1.6389 O   0  0  0  0  0  0  0  0  0  0  0  0
    2.0699   -0.1610   -0.2383 C   0  0  0  0  0  0  0  0  0  0  0  0
    2.2109    1.1163    0.2885 C   0  0  0  0  0  0  0  0  0  0  0  0
    1.1740    1.8761    0.7243 N   0  0  0  0  0  0  0  0  0  0  0  0
   -0.0556    1.3319    0.6288 C   0  0  0  0  0  0  0  0  0  0  0  0
   -0.3075    0.0789    0.1003 C   0  0  0  0  0  0  0  0  0  0  0  0
    0.7773   -0.6768   -0.3524 C   0  0  0  0  0  0  0  0  0  0  0  0
   -1.7199   -0.3700   -0.0543 C   0  0  0  0  0  0  0  0  0  0  0  0
   -2.6533    0.3549    0.7935 N   0  0  0  0  0  0  0  0  0  0  0  0
   -4.0232   -0.1468    0.8756 C   0  0  0  0  0  0  0  0  0  0  0  0
   -4.8838    0.2979   -0.3120 C   0  0  0  0  0  0  0  0  0  0  0  0
   -6.2941   -0.3199   -0.3097 C   0  0  0  0  0  0  0  0  0  0  0  0
   -7.1172    0.1063    0.9067 C   0  0  0  0  0  0  0  0  0  0  0  0
   -7.0323    0.0669   -1.5935 C   0  0  0  0  0  0  0  0  0  0  0  0
   -2.3966    1.6468    1.2112 C   0  0  0  0  0  0  0  0  0  0  0  0
   -3.2503    2.3814    1.7050 O   0  0  0  0  0  0  0  0  0  0  0  0
   -1.1165    2.0868    1.0880 N   0  0  0  0  0  0  0  0  0  0  0  0
    5.6316   -0.7071   -1.1853 C   0  0  0  0  0  0  0  0  0  0  0  0
    7.9338    0.4210   -2.4292 H   0  0  0  0  0  0  0  0  0  0  0  0
    8.0284   -1.3615   -2.4379 H   0  0  0  0  0  0  0  0  0  0  0  0
    9.0426   -0.4237   -1.3347 H   0  0  0  0  0  0  0  0  0  0  0  0
    8.2686   -0.2647    0.9241 H   0  0  0  0  0  0  0  0  0  0  0  0
    6.4718   -0.3898    2.5882 H   0  0  0  0  0  0  0  0  0  0  0  0
    4.2969   -0.7412    2.9456 H   0  0  0  0  0  0  0  0  0  0  0  0
    3.1794    1.5996    0.3732 H   0  0  0  0  0  0  0  0  0  0  0  0
    0.6214   -1.6573   -0.7974 H   0  0  0  0  0  0  0  0  0  0  0  0
   -1.7953   -1.4333    0.2004 H   0  0  0  0  0  0  0  0  0  0  0  0
   -2.0286   -0.2307   -1.0963 H   0  0  0  0  0  0  0  0  0  0  0  0
   -4.4607    0.2177    1.8114 H   0  0  0  0  0  0  0  0  0  0  0  0
   -3.9853   -1.2400    0.9411 H   0  0  0  0  0  0  0  0  0  0  0  0
   -4.9568    1.3929   -0.3252 H   0  0  0  0  0  0  0  0  0  0  0  0
   -4.3789    0.0161   -1.2446 H   0  0  0  0  0  0  0  0  0  0  0  0
   -6.1987   -1.4129   -0.2939 H   0  0  0  0  0  0  0  0  0  0  0  0
   -7.1796    1.1970    0.9817 H   0  0  0  0  0  0  0  0  0  0  0  0
   -6.6827   -0.2760    1.8351 H   0  0  0  0  0  0  0  0  0  0  0  0
   -8.1377   -0.2869    0.8423 H   0  0  0  0  0  0  0  0  0  0  0  0
   -8.0228   -0.3991   -1.6283 H   0  0  0  0  0  0  0  0  0  0  0  0
   -6.4779   -0.2654   -2.4775 H   0  0  0  0  0  0  0  0  0  0  0  0
   -7.1656    1.1519   -1.6641 H   0  0  0  0  0  0  0  0  0  0  0  0
   -0.9048    3.0022    1.4543 H   0  0  0  0  0  0  0  0  0  0  0  0
    5.3972   -0.8132   -2.2439 H   0  0  0  0  0  0  0  0  0  0  0  0
  1  2  1  0
  2  3  2  0
  3  4  1  0
  4  5  2  0
  5  6  1  0
  5  7  1  0
  7  8  1  0
  8  9  2  0
  8 10  1  0
 10 11  2  0
 11 12  1  0
 12 13  2  0
 13 14  1  0
 14 15  2  0
 14 16  1  0
 16 17  1  0
 17 18  1  0
 18 19  1  0
 19 20  1  0
 20 21  1  0
 20 22  1  0
 17 23  1  0
 23 24  2  0
 23 25  1  0
  7 26  2  0
 26  2  1  0
 15 10  1  0
 25 13  1  0
  1 27  1  0
  1 28  1  0
  1 29  1  0
  3 30  1  0
  4 31  1  0
  6 32  1  0
 11 33  1  0
 15 34  1  0
 16 35  1  0
 16 36  1  0
 18 37  1  0
 18 38  1  0
 19 39  1  0
 19 40  1  0
 20 41  1  0
 21 42  1  0
 21 43  1  0
 21 44  1  0
 22 45  1  0
 22 46  1  0
 22 47  1  0
 25 48  1  0
 26 49  1  0
M  END
$$$$
