
     RDKit          3D

 45 48  0  0  0  0  0  0  0  0999 V2000
   -5.5472    0.3956   -2.0801 C   0  0  0  0  0  0  0  0  0  0  0  0
   -5.1512    0.9731   -0.8347 O   0  0  0  0  0  0  0  0  0  0  0  0
   -4.6729   -0.0074    0.0059 C   0  0  0  0  0  0  0  0  0  0  0  0
   -5.5405   -0.4037    1.0307 C   0  0  0  0  0  0  0  0  0  0  0  0
   -5.1569   -1.4024    1.9177 C   0  0  0  0  0  0  0  0  0  0  0  0
   -3.9042   -1.9907    1.7845 C   0  0  0  0  0  0  0  0  0  0  0  0
   -3.0293   -1.5734    0.7719 C   0  0  0  0  0  0  0  0  0  0  0  0
   -3.3778   -0.5607   -0.1384 C   0  0  0  0  0  0  0  0  0  0  0  0
   -2.4880   -0.0984   -1.1255 N   0  0  0  0  0  0  0  0  0  0  0  0
   -2.1653    1.3461   -0.9794 C   0  0  0  0  0  0  0  0  0  0  0  0
   -0.8233    1.7179   -1.6378 C   0  0  0  0  0  0  0  0  0  0  0  0
    0.2856    0.8823   -1.1619 N   0  0  0  0  0  0  0  0  0  0  0  0
    1.5465    1.4665   -1.0058 C   0  0  0  0  0  0  0  0  0  0  0  0
    1.7406    2.6314   -1.3638 O   0  0  0  0  0  0  0  0  0  0  0  0
    2.6638    0.7092   -0.4120 C   0  0  0  0  0  0  0  0  0  0  0  0
    4.0138    1.1564   -0.3494 C   0  0  0  0  0  0  0  0  0  0  0  0
    4.7161    0.1667    0.3046 C   0  0  0  0  0  0  0  0  0  0  0  0
    6.1090    0.0804    0.6488 C   0  0  0  0  0  0  0  0  0  0  0  0
    6.7240   -0.9587    1.3228 C   0  0  0  0  0  0  0  0  0  0  0  0
    8.1206   -0.7405    1.5130 C   0  0  0  0  0  0  0  0  0  0  0  0
    8.5303    0.4588    0.9756 C   0  0  0  0  0  0  0  0  0  0  0  0
    7.2368    1.3099    0.2515 S   0  0  0  0  0  0  0  0  0  0  0  0
    3.8212   -0.8215    0.6188 O   0  0  0  0  0  0  0  0  0  0  0  0
    2.5567   -0.4859    0.1880 N   0  0  0  0  0  0  0  0  0  0  0  0
   -0.0320   -0.5390   -0.9570 C   0  0  0  0  0  0  0  0  0  0  0  0
   -1.3771   -0.9531   -1.5806 C   0  0  0  0  0  0  0  0  0  0  0  0
   -4.6890    0.0239   -2.6494 H   0  0  0  0  0  0  0  0  0  0  0  0
   -6.2809   -0.4054   -1.9323 H   0  0  0  0  0  0  0  0  0  0  0  0
   -6.0246    1.1832   -2.6717 H   0  0  0  0  0  0  0  0  0  0  0  0
   -6.5172    0.0628    1.1224 H   0  0  0  0  0  0  0  0  0  0  0  0
   -5.8304   -1.7188    2.7094 H   0  0  0  0  0  0  0  0  0  0  0  0
   -3.5942   -2.7688    2.4776 H   0  0  0  0  0  0  0  0  0  0  0  0
   -2.0512   -2.0423    0.7417 H   0  0  0  0  0  0  0  0  0  0  0  0
   -2.1037    1.6121    0.0850 H   0  0  0  0  0  0  0  0  0  0  0  0
   -2.9496    1.9562   -1.4398 H   0  0  0  0  0  0  0  0  0  0  0  0
   -0.6151    2.7774   -1.4543 H   0  0  0  0  0  0  0  0  0  0  0  0
   -0.8822    1.5807   -2.7245 H   0  0  0  0  0  0  0  0  0  0  0  0
    4.3997    2.0900   -0.7349 H   0  0  0  0  0  0  0  0  0  0  0  0
    6.1959   -1.8410    1.6682 H   0  0  0  0  0  0  0  0  0  0  0  0
    8.7883   -1.4287    2.0172 H   0  0  0  0  0  0  0  0  0  0  0  0
    9.5274    0.8789    0.9730 H   0  0  0  0  0  0  0  0  0  0  0  0
    0.7596   -1.1490   -1.4032 H   0  0  0  0  0  0  0  0  0  0  0  0
   -0.0543   -0.7125    0.1241 H   0  0  0  0  0  0  0  0  0  0  0  0
   -1.5718   -2.0193   -1.4190 H   0  0  0  0  0  0  0  0  0  0  0  0
   -1.3062   -0.8382   -2.6702 H   0  0  0  0  0  0  0  0  0  0  0  0
  1  2  1  0
  2  3  1  0
  3  4  2  0
  4  5  1  0
  5  6  2  0
  6  7  1  0
  7  8  2  0
  8  9  1  0
  9 10  1  0
 10 11  1  0
 11 12  1  0
 12 13  1  0
 13 14  2  0
 13 15  1  0
 15 16  1  0
 16 17  2  0
 17 18  1  0
 18 19  2  0
 19 20  1  0
 20 21  2  0
 21 22  1  0
 17 23  1  0
 23 24  1  0
 12 25  1  0
 25 26  1  0
  8  3  1  0
 26  9  1  0
 24 15  2  0
 22 18  1  0
  1 27  1  0
  1 28  1  0
  1 29  1  0
  4 30  1  0
  5 31  1  0
  6 32  1  0
  7 33  1  0
 10 34  1  0
 10 35  1  0
 11 36  1  0
 11 37  1  0
 16 38  1  0
 19 39  1  0
 20 40  1  0
 21 41  1  0
 25 42  1  0
 25 43  1  0
 26 44  1  0
 26 45  1  0
M  END
$$$$
