
     RDKit          3D

 48 51  0  0  0  0  0  0  0  0999 V2000
    7.0390   -1.4565   -1.5698 C   0  0  0  0  0  0  0  0  0  0  0  0
    5.8267   -0.7081   -1.1024 C   0  0  0  0  0  0  0  0  0  0  0  0
    5.6725    0.6481   -1.3918 C   0  0  0  0  0  0  0  0  0  0  0  0
    4.5522    1.3452   -0.9263 C   0  0  0  0  0  0  0  0  0  0  0  0
    3.5721    0.7282   -0.1622 C   0  0  0  0  0  0  0  0  0  0  0  0
    2.5171    1.4434    0.2591 N   0  0  0  0  0  0  0  0  0  0  0  0
    1.5678    0.8244    1.0012 C   0  0  0  0  0  0  0  0  0  0  0  0
    0.2241    1.8848    1.5045 S   0  0  0  0  0  0  0  0  0  0  0  0
   -0.5252    2.1529   -0.1344 C   0  0  0  0  0  0  0  0  0  0  0  0
   -1.2590    0.8939   -0.5815 C   0  0  0  0  0  0  0  0  0  0  0  0
   -0.6691    0.0782   -1.2952 O   0  0  0  0  0  0  0  0  0  0  0  0
   -2.5503    0.7116   -0.1053 N   0  0  0  0  0  0  0  0  0  0  0  0
   -3.3051   -0.4752   -0.2457 C   0  0  0  0  0  0  0  0  0  0  0  0
   -3.0142   -1.6237   -0.9624 C   0  0  0  0  0  0  0  0  0  0  0  0
   -3.9335   -2.6781   -0.9403 C   0  0  0  0  0  0  0  0  0  0  0  0
   -5.1190   -2.5799   -0.1980 C   0  0  0  0  0  0  0  0  0  0  0  0
   -5.3990   -1.4279    0.5366 C   0  0  0  0  0  0  0  0  0  0  0  0
   -4.4846   -0.3857    0.4983 C   0  0  0  0  0  0  0  0  0  0  0  0
   -4.5384    0.8953    1.2683 C   0  0  0  0  0  0  0  0  0  0  0  0
   -3.4032    1.7034    0.6043 C   0  0  0  0  0  0  0  0  0  0  0  0
   -3.9857    2.7264   -0.3800 C   0  0  0  0  0  0  0  0  0  0  0  0
    1.6364   -0.5190    1.3717 C   0  0  0  0  0  0  0  0  0  0  0  0
    0.5784   -1.1961    2.1910 C   0  0  0  0  0  0  0  0  0  0  0  0
    2.7426   -1.2486    0.9241 C   0  0  0  0  0  0  0  0  0  0  0  0
    3.7316   -0.6348    0.1458 C   0  0  0  0  0  0  0  0  0  0  0  0
    4.8559   -1.3421   -0.3201 C   0  0  0  0  0  0  0  0  0  0  0  0
    7.4154   -1.0425   -2.5112 H   0  0  0  0  0  0  0  0  0  0  0  0
    7.8298   -1.3961   -0.8159 H   0  0  0  0  0  0  0  0  0  0  0  0
    6.8013   -2.5100   -1.7509 H   0  0  0  0  0  0  0  0  0  0  0  0
    6.4174    1.1764   -1.9825 H   0  0  0  0  0  0  0  0  0  0  0  0
    4.4423    2.4001   -1.1656 H   0  0  0  0  0  0  0  0  0  0  0  0
    0.2345    2.4085   -0.8808 H   0  0  0  0  0  0  0  0  0  0  0  0
   -1.1951    3.0108   -0.0779 H   0  0  0  0  0  0  0  0  0  0  0  0
   -2.1052   -1.7241   -1.5449 H   0  0  0  0  0  0  0  0  0  0  0  0
   -3.7231   -3.5838   -1.5043 H   0  0  0  0  0  0  0  0  0  0  0  0
   -5.8184   -3.4126   -0.1888 H   0  0  0  0  0  0  0  0  0  0  0  0
   -6.3052   -1.3588    1.1297 H   0  0  0  0  0  0  0  0  0  0  0  0
   -5.5135    1.3866    1.2022 H   0  0  0  0  0  0  0  0  0  0  0  0
   -4.3004    0.6935    2.3187 H   0  0  0  0  0  0  0  0  0  0  0  0
   -2.8198    2.2308    1.3652 H   0  0  0  0  0  0  0  0  0  0  0  0
   -3.2018    3.2750   -0.9091 H   0  0  0  0  0  0  0  0  0  0  0  0
   -4.6080    3.4558    0.1490 H   0  0  0  0  0  0  0  0  0  0  0  0
   -4.6062    2.2403   -1.1415 H   0  0  0  0  0  0  0  0  0  0  0  0
    0.4620   -0.6977    3.1587 H   0  0  0  0  0  0  0  0  0  0  0  0
    0.8380   -2.2405    2.3954 H   0  0  0  0  0  0  0  0  0  0  0  0
   -0.3784   -1.1962    1.6595 H   0  0  0  0  0  0  0  0  0  0  0  0
    2.8324   -2.3026    1.1775 H   0  0  0  0  0  0  0  0  0  0  0  0
    4.9720   -2.3954   -0.0721 H   0  0  0  0  0  0  0  0  0  0  0  0
  1  2  1  0
  2  3  2  0
  3  4  1  0
  4  5  2  0
  5  6  1  0
  6  7  2  0
  7  8  1  0
  8  9  1  0
  9 10  1  0
 10 11  2  0
 10 12  1  0
 12 13  1  0
 13 14  2  0
 14 15  1  0
 15 16  2  0
 16 17  1  0
 17 18  2  0
 18 19  1  0
 19 20  1  0
 20 21  1  0
  7 22  1  0
 22 23  1  0
 22 24  2  0
 24 25  1  0
 25 26  2  0
 26  2  1  0
 25  5  1  0
 20 12  1  0
 18 13  1  0
  1 27  1  0
  1 28  1  0
  1 29  1  0
  3 30  1  0
  4 31  1  0
  9 32  1  0
  9 33  1  0
 14 34  1  0
 15 35  1  0
 16 36  1  0
 17 37  1  0
 19 38  1  0
 19 39  1  0
 20 40  1  0
 21 41  1  0
 21 42  1  0
 21 43  1  0
 23 44  1  0
 23 45  1  0
 23 46  1  0
 24 47  1  0
 26 48  1  0
M  END
$$$$
