
     RDKit          3D

 35 36  0  0  0  0  0  0  0  0999 V2000
   -6.0972    0.9180    0.5027 N   0  0  0  0  0  0  0  0  0  0  0  0
   -4.9755    0.4635   -0.1339 C   0  0  0  0  0  0  0  0  0  0  0  0
   -4.7410   -0.9902   -0.2507 C   0  0  0  0  0  0  0  0  0  0  0  0
   -3.6383   -1.3489   -0.9053 C   0  0  0  0  0  0  0  0  0  0  0  0
   -2.7871   -0.4012   -1.4217 N   0  0  0  0  0  0  0  0  0  0  0  0
   -1.5708   -0.8132   -2.1137 C   0  0  0  0  0  0  0  0  0  0  0  0
   -0.4043   -0.8526   -1.1288 C   0  0  0  0  0  0  0  0  0  0  0  0
   -0.0674   -1.8846   -0.5522 O   0  0  0  0  0  0  0  0  0  0  0  0
    0.1950    0.3717   -0.9122 N   0  0  0  0  0  0  0  0  0  0  0  0
    1.2161    0.5481    0.1044 C   0  0  0  0  0  0  0  0  0  0  0  0
    2.5693   -0.0181   -0.3203 C   0  0  0  0  0  0  0  0  0  0  0  0
    3.5782    0.1225    0.7879 C   0  0  0  0  0  0  0  0  0  0  0  0
    3.7927   -0.9227    1.6834 C   0  0  0  0  0  0  0  0  0  0  0  0
    4.7182   -0.7496    2.7084 C   0  0  0  0  0  0  0  0  0  0  0  0
    5.3986    0.4569    2.8147 C   0  0  0  0  0  0  0  0  0  0  0  0
    5.1212    1.4466    1.8874 C   0  0  0  0  0  0  0  0  0  0  0  0
    4.2272    1.3084    0.8837 N   0  0  0  0  0  0  0  0  0  0  0  0
   -3.0138    0.9649   -1.2425 C   0  0  0  0  0  0  0  0  0  0  0  0
   -2.1873    1.7904   -1.6326 O   0  0  0  0  0  0  0  0  0  0  0  0
   -4.1619    1.3582   -0.6009 N   0  0  0  0  0  0  0  0  0  0  0  0
   -6.4312    0.3706    1.2861 H   0  0  0  0  0  0  0  0  0  0  0  0
   -6.0350    1.9101    0.7134 H   0  0  0  0  0  0  0  0  0  0  0  0
   -5.4452   -1.6941    0.1670 H   0  0  0  0  0  0  0  0  0  0  0  0
   -3.3768   -2.3935   -1.0470 H   0  0  0  0  0  0  0  0  0  0  0  0
   -1.6987   -1.8052   -2.5618 H   0  0  0  0  0  0  0  0  0  0  0  0
   -1.3405   -0.1160   -2.9277 H   0  0  0  0  0  0  0  0  0  0  0  0
   -0.3252    1.1993   -1.2106 H   0  0  0  0  0  0  0  0  0  0  0  0
    0.8638    0.0701    1.0265 H   0  0  0  0  0  0  0  0  0  0  0  0
    1.2939    1.6240    0.2980 H   0  0  0  0  0  0  0  0  0  0  0  0
    2.4859   -1.0708   -0.6153 H   0  0  0  0  0  0  0  0  0  0  0  0
    2.9322    0.5145   -1.2086 H   0  0  0  0  0  0  0  0  0  0  0  0
    3.2483   -1.8574    1.5876 H   0  0  0  0  0  0  0  0  0  0  0  0
    4.9052   -1.5505    3.4179 H   0  0  0  0  0  0  0  0  0  0  0  0
    6.1261    0.6231    3.6007 H   0  0  0  0  0  0  0  0  0  0  0  0
    5.6250    2.4080    1.9277 H   0  0  0  0  0  0  0  0  0  0  0  0
  1  2  1  0
  2  3  1  0
  3  4  2  0
  4  5  1  0
  5  6  1  0
  6  7  1  0
  7  8  2  0
  7  9  1  0
  9 10  1  0
 10 11  1  0
 11 12  1  0
 12 13  2  0
 13 14  1  0
 14 15  2  0
 15 16  1  0
 16 17  2  0
  5 18  1  0
 18 19  2  0
 18 20  1  0
 20  2  2  0
 17 12  1  0
  1 21  1  0
  1 22  1  0
  3 23  1  0
  4 24  1  0
  6 25  1  0
  6 26  1  0
  9 27  1  0
 10 28  1  0
 10 29  1  0
 11 30  1  0
 11 31  1  0
 13 32  1  0
 14 33  1  0
 15 34  1  0
 16 35  1  0
M  END
$$$$
