
     RDKit          3D

 39 41  0  0  0  0  0  0  0  0999 V2000
    3.9779   -1.7124    2.0035 C   0  0  0  0  0  0  0  0  0  0  0  0
    4.4033   -0.8517    0.8715 C   0  0  0  0  0  0  0  0  0  0  0  0
    5.6806   -0.4612    0.7678 N   0  0  0  0  0  0  0  0  0  0  0  0
    5.7003    0.2961   -0.3423 N   0  0  0  0  0  0  0  0  0  0  0  0
    6.9387    0.9028   -0.7649 C   0  0  0  0  0  0  0  0  0  0  0  0
    4.4885    0.3958   -0.9529 C   0  0  0  0  0  0  0  0  0  0  0  0
    3.6064   -0.3440   -0.1908 C   0  0  0  0  0  0  0  0  0  0  0  0
    2.1956   -0.5457   -0.4300 C   0  0  0  0  0  0  0  0  0  0  0  0
    1.6490    0.0127   -1.4626 N   0  0  0  0  0  0  0  0  0  0  0  0
    0.2974   -0.1566   -1.6612 N   0  0  0  0  0  0  0  0  0  0  0  0
   -0.6661   -0.2495   -0.6579 C   0  0  0  0  0  0  0  0  0  0  0  0
   -0.4166   -0.2815    0.5441 O   0  0  0  0  0  0  0  0  0  0  0  0
   -2.0524   -0.2736   -1.1542 C   0  0  0  0  0  0  0  0  0  0  0  0
   -2.4282   -0.7126   -2.4154 C   0  0  0  0  0  0  0  0  0  0  0  0
   -4.1149   -0.6379   -2.6851 S   0  0  0  0  0  0  0  0  0  0  0  0
   -4.3885   -0.0490   -1.1180 C   0  0  0  0  0  0  0  0  0  0  0  0
   -3.2211    0.1118   -0.3940 C   0  0  0  0  0  0  0  0  0  0  0  0
   -3.2405    0.6124    1.0256 C   0  0  0  0  0  0  0  0  0  0  0  0
   -4.5842    1.2626    1.3907 C   0  0  0  0  0  0  0  0  0  0  0  0
   -5.7721    0.4244    0.9014 C   0  0  0  0  0  0  0  0  0  0  0  0
   -5.7661    0.2764   -0.6268 C   0  0  0  0  0  0  0  0  0  0  0  0
    3.1901   -1.2194    2.5819 H   0  0  0  0  0  0  0  0  0  0  0  0
    3.5894   -2.6658    1.6314 H   0  0  0  0  0  0  0  0  0  0  0  0
    4.8101   -1.9279    2.6817 H   0  0  0  0  0  0  0  0  0  0  0  0
    7.6650    0.1083   -0.9538 H   0  0  0  0  0  0  0  0  0  0  0  0
    7.2889    1.5631    0.0323 H   0  0  0  0  0  0  0  0  0  0  0  0
    6.7693    1.4782   -1.6784 H   0  0  0  0  0  0  0  0  0  0  0  0
    4.3431    0.9697   -1.8576 H   0  0  0  0  0  0  0  0  0  0  0  0
    1.6634   -1.2031    0.2760 H   0  0  0  0  0  0  0  0  0  0  0  0
   -0.0115    0.1759   -2.5685 H   0  0  0  0  0  0  0  0  0  0  0  0
   -1.8006   -1.1005   -3.2060 H   0  0  0  0  0  0  0  0  0  0  0  0
   -3.0561   -0.2365    1.6955 H   0  0  0  0  0  0  0  0  0  0  0  0
   -2.4392    1.3425    1.1850 H   0  0  0  0  0  0  0  0  0  0  0  0
   -4.6415    1.3962    2.4769 H   0  0  0  0  0  0  0  0  0  0  0  0
   -4.6420    2.2625    0.9417 H   0  0  0  0  0  0  0  0  0  0  0  0
   -5.7274   -0.5682    1.3680 H   0  0  0  0  0  0  0  0  0  0  0  0
   -6.7136    0.8857    1.2200 H   0  0  0  0  0  0  0  0  0  0  0  0
   -6.4830   -0.4992   -0.9195 H   0  0  0  0  0  0  0  0  0  0  0  0
   -6.0918    1.2190   -1.0839 H   0  0  0  0  0  0  0  0  0  0  0  0
  1  2  1  0
  2  3  2  0
  3  4  1  0
  4  5  1  0
  4  6  1  0
  6  7  2  0
  7  8  1  0
  8  9  2  3
  9 10  1  0
 10 11  1  0
 11 12  2  0
 11 13  1  0
 13 14  2  0
 14 15  1  0
 15 16  1  0
 16 17  2  0
 17 18  1  0
 18 19  1  0
 19 20  1  0
 20 21  1  0
  7  2  1  0
 17 13  1  0
 21 16  1  0
  1 22  1  0
  1 23  1  0
  1 24  1  0
  5 25  1  0
  5 26  1  0
  5 27  1  0
  6 28  1  0
  8 29  1  0
 10 30  1  0
 14 31  1  0
 18 32  1  0
 18 33  1  0
 19 34  1  0
 19 35  1  0
 20 36  1  0
 20 37  1  0
 21 38  1  0
 21 39  1  0
M  END
$$$$
