
     RDKit          3D

 60 62  0  0  0  0  0  0  0  0999 V2000
    5.2296    1.2841   -5.7441 C   0  0  0  0  0  0  0  0  0  0  0  0
    3.9441    0.7823   -5.4005 O   0  0  0  0  0  0  0  0  0  0  0  0
    3.6846    0.6075   -4.0694 C   0  0  0  0  0  0  0  0  0  0  0  0
    2.3805    0.1916   -3.7809 C   0  0  0  0  0  0  0  0  0  0  0  0
    1.9738   -0.0279   -2.4627 C   0  0  0  0  0  0  0  0  0  0  0  0
    2.8810    0.1856   -1.4238 C   0  0  0  0  0  0  0  0  0  0  0  0
    2.5021   -0.0505   -0.0141 C   0  0  0  0  0  0  0  0  0  0  0  0
    3.1339   -0.9002    0.6133 O   0  0  0  0  0  0  0  0  0  0  0  0
    1.3598    0.7013    0.6179 C   0  0  0  0  0  0  0  0  0  0  0  0
    0.7825    1.8309   -0.1717 C   0  0  0  0  0  0  0  0  0  0  0  0
    1.3669    2.8376   -0.5283 O   0  0  0  0  0  0  0  0  0  0  0  0
   -0.6588    1.5138   -0.5417 C   0  0  0  0  0  0  0  0  0  0  0  0
   -1.3508    2.1825   -1.2790 O   0  0  0  0  0  0  0  0  0  0  0  0
   -0.9607    0.3189    0.0629 N   0  0  0  0  0  0  0  0  0  0  0  0
   -2.2006   -0.4085   -0.1820 C   0  0  0  0  0  0  0  0  0  0  0  0
   -2.1374   -1.2475   -1.4735 C   0  0  0  0  0  0  0  0  0  0  0  0
   -3.2954   -2.1396   -1.6639 N   0  0  0  0  0  0  0  0  0  0  0  0
   -4.5300   -1.3850   -1.8985 C   0  0  0  0  0  0  0  0  0  0  0  0
   -3.0516   -3.0418   -2.7937 C   0  0  0  0  0  0  0  0  0  0  0  0
    0.1588   -0.2449    0.8071 C   0  0  0  0  0  0  0  0  0  0  0  0
   -0.1784   -0.4820    2.2705 C   0  0  0  0  0  0  0  0  0  0  0  0
   -0.0666   -1.7831    2.7859 C   0  0  0  0  0  0  0  0  0  0  0  0
   -0.3589   -2.0459    4.1224 C   0  0  0  0  0  0  0  0  0  0  0  0
   -0.7510   -1.0124    4.9739 C   0  0  0  0  0  0  0  0  0  0  0  0
   -0.8593    0.2969    4.4970 C   0  0  0  0  0  0  0  0  0  0  0  0
   -1.1919    1.3738    5.2760 O   0  0  0  0  0  0  0  0  0  0  0  0
   -1.3055    1.1653    6.6775 C   0  0  0  0  0  0  0  0  0  0  0  0
   -0.5987    0.5507    3.1348 C   0  0  0  0  0  0  0  0  0  0  0  0
   -0.6548    1.8173    2.5989 O   0  0  0  0  0  0  0  0  0  0  0  0
   -1.9390    2.4279    2.7436 C   0  0  0  0  0  0  0  0  0  0  0  0
    4.1934    0.5758   -1.7021 C   0  0  0  0  0  0  0  0  0  0  0  0
    4.5922    0.7930   -3.0249 C   0  0  0  0  0  0  0  0  0  0  0  0
    5.4062    2.2655   -5.2917 H   0  0  0  0  0  0  0  0  0  0  0  0
    6.0155    0.5737   -5.4680 H   0  0  0  0  0  0  0  0  0  0  0  0
    5.2602    1.4082   -6.8307 H   0  0  0  0  0  0  0  0  0  0  0  0
    1.6773    0.0358   -4.5964 H   0  0  0  0  0  0  0  0  0  0  0  0
    0.9634   -0.3773   -2.2788 H   0  0  0  0  0  0  0  0  0  0  0  0
    1.7321    1.1183    1.5612 H   0  0  0  0  0  0  0  0  0  0  0  0
   -3.0004    0.3358   -0.2635 H   0  0  0  0  0  0  0  0  0  0  0  0
   -2.4173   -1.0400    0.6858 H   0  0  0  0  0  0  0  0  0  0  0  0
   -2.0058   -0.5852   -2.3397 H   0  0  0  0  0  0  0  0  0  0  0  0
   -1.2300   -1.8633   -1.4181 H   0  0  0  0  0  0  0  0  0  0  0  0
   -4.8013   -0.7885   -1.0222 H   0  0  0  0  0  0  0  0  0  0  0  0
   -4.4488   -0.7179   -2.7641 H   0  0  0  0  0  0  0  0  0  0  0  0
   -5.3703   -2.0677   -2.0697 H   0  0  0  0  0  0  0  0  0  0  0  0
   -2.9138   -2.4978   -3.7352 H   0  0  0  0  0  0  0  0  0  0  0  0
   -2.1601   -3.6527   -2.6135 H   0  0  0  0  0  0  0  0  0  0  0  0
   -3.8871   -3.7402   -2.9163 H   0  0  0  0  0  0  0  0  0  0  0  0
    0.3663   -1.2143    0.3343 H   0  0  0  0  0  0  0  0  0  0  0  0
    0.2562   -2.6068    2.1510 H   0  0  0  0  0  0  0  0  0  0  0  0
   -0.2687   -3.0594    4.5071 H   0  0  0  0  0  0  0  0  0  0  0  0
   -0.9557   -1.2638    6.0094 H   0  0  0  0  0  0  0  0  0  0  0  0
   -0.3728    0.7768    7.0991 H   0  0  0  0  0  0  0  0  0  0  0  0
   -2.1502    0.5087    6.9091 H   0  0  0  0  0  0  0  0  0  0  0  0
   -1.5019    2.1351    7.1442 H   0  0  0  0  0  0  0  0  0  0  0  0
   -1.9537    3.0722    3.6270 H   0  0  0  0  0  0  0  0  0  0  0  0
   -2.7553    1.6969    2.7819 H   0  0  0  0  0  0  0  0  0  0  0  0
   -2.1030    3.0647    1.8688 H   0  0  0  0  0  0  0  0  0  0  0  0
    4.9084    0.7139   -0.8936 H   0  0  0  0  0  0  0  0  0  0  0  0
    5.6169    1.1019   -3.2043 H   0  0  0  0  0  0  0  0  0  0  0  0
  1  2  1  0
  2  3  1  0
  3  4  2  0
  4  5  1  0
  5  6  2  0
  6  7  1  0
  7  8  2  0
  7  9  1  0
  9 10  1  0
 10 11  2  0
 10 12  1  0
 12 13  2  0
 12 14  1  0
 14 15  1  0
 15 16  1  0
 16 17  1  0
 17 18  1  0
 17 19  1  0
 14 20  1  0
 20 21  1  0
 21 22  2  0
 22 23  1  0
 23 24  2  0
 24 25  1  0
 25 26  1  0
 26 27  1  0
 25 28  2  0
 28 29  1  0
 29 30  1  0
  6 31  1  0
 31 32  2  0
 32  3  1  0
 20  9  1  0
 28 21  1  0
  1 33  1  0
  1 34  1  0
  1 35  1  0
  4 36  1  0
  5 37  1  0
  9 38  1  0
 15 39  1  0
 15 40  1  0
 16 41  1  0
 16 42  1  0
 18 43  1  0
 18 44  1  0
 18 45  1  0
 19 46  1  0
 19 47  1  0
 19 48  1  0
 20 49  1  0
 22 50  1  0
 23 51  1  0
 24 52  1  0
 27 53  1  0
 27 54  1  0
 27 55  1  0
 30 56  1  0
 30 57  1  0
 30 58  1  0
 31 59  1  0
 32 60  1  0
M  END
$$$$
