
     RDKit          3D

 56 59  0  0  0  0  0  0  0  0999 V2000
   -2.4719    4.3962    2.7707 C   0  0  0  0  0  0  0  0  0  0  0  0
   -3.4226    4.0868    1.6299 C   0  0  0  0  0  0  0  0  0  0  0  0
   -3.4373    2.6791    1.3528 O   0  0  0  0  0  0  0  0  0  0  0  0
   -2.4371    2.2121    0.5538 C   0  0  0  0  0  0  0  0  0  0  0  0
   -1.5480    2.9181    0.0831 O   0  0  0  0  0  0  0  0  0  0  0  0
   -2.4965    0.7638    0.3281 C   0  0  0  0  0  0  0  0  0  0  0  0
   -1.4557    0.0854   -0.3019 C   0  0  0  0  0  0  0  0  0  0  0  0
   -0.2985    0.6625   -0.8090 N   0  0  0  0  0  0  0  0  0  0  0  0
    0.8281    0.0144   -1.3045 C   0  0  0  0  0  0  0  0  0  0  0  0
    0.9985   -1.1993   -1.3857 O   0  0  0  0  0  0  0  0  0  0  0  0
    1.8769    1.0247   -1.7921 C   0  0  0  0  0  0  0  0  0  0  0  0
    3.2112    0.4407   -1.7706 N   0  0  0  0  0  0  0  0  0  0  0  0
    3.8802    0.5007   -0.5676 N   0  0  0  0  0  0  0  0  0  0  0  0
    5.0284   -0.1008   -0.4670 C   0  0  0  0  0  0  0  0  0  0  0  0
    5.7366    0.0034    0.8729 C   0  0  0  0  0  0  0  0  0  0  0  0
    5.8940   -0.9223    1.6425 O   0  0  0  0  0  0  0  0  0  0  0  0
    6.2052    1.2363    1.0958 O   0  0  0  0  0  0  0  0  0  0  0  0
    5.6624   -0.8538   -1.5567 C   0  0  0  0  0  0  0  0  0  0  0  0
    6.8902   -1.5132   -1.4164 C   0  0  0  0  0  0  0  0  0  0  0  0
    7.4358   -2.2046   -2.5015 C   0  0  0  0  0  0  0  0  0  0  0  0
    6.7622   -2.2374   -3.7230 C   0  0  0  0  0  0  0  0  0  0  0  0
    5.5386   -1.5816   -3.8611 C   0  0  0  0  0  0  0  0  0  0  0  0
    4.9895   -0.8894   -2.7735 C   0  0  0  0  0  0  0  0  0  0  0  0
    3.6937   -0.1972   -2.9101 C   0  0  0  0  0  0  0  0  0  0  0  0
    3.1204   -0.1941   -3.9959 O   0  0  0  0  0  0  0  0  0  0  0  0
   -1.7348   -1.5821   -0.4137 S   0  0  0  0  0  0  0  0  0  0  0  0
   -3.2358   -1.4578    0.3606 C   0  0  0  0  0  0  0  0  0  0  0  0
   -3.5544   -0.1559    0.7007 C   0  0  0  0  0  0  0  0  0  0  0  0
   -4.8459    0.1692    1.4006 C   0  0  0  0  0  0  0  0  0  0  0  0
   -5.8455   -0.9986    1.3619 C   0  0  0  0  0  0  0  0  0  0  0  0
   -5.1980   -2.3714    1.6337 C   0  0  0  0  0  0  0  0  0  0  0  0
   -4.6676   -2.4769    3.0667 C   0  0  0  0  0  0  0  0  0  0  0  0
   -4.0926   -2.6651    0.5971 C   0  0  0  0  0  0  0  0  0  0  0  0
   -2.7246    3.8045    3.6563 H   0  0  0  0  0  0  0  0  0  0  0  0
   -2.5119    5.4582    3.0303 H   0  0  0  0  0  0  0  0  0  0  0  0
   -1.4406    4.1425    2.5047 H   0  0  0  0  0  0  0  0  0  0  0  0
   -4.4421    4.3640    1.9183 H   0  0  0  0  0  0  0  0  0  0  0  0
   -3.1753    4.6627    0.7317 H   0  0  0  0  0  0  0  0  0  0  0  0
   -0.2627    1.6774   -0.7225 H   0  0  0  0  0  0  0  0  0  0  0  0
    1.8824    1.9152   -1.1520 H   0  0  0  0  0  0  0  0  0  0  0  0
    1.6074    1.3279   -2.8103 H   0  0  0  0  0  0  0  0  0  0  0  0
    6.5873    1.1953    1.9964 H   0  0  0  0  0  0  0  0  0  0  0  0
    7.4357   -1.5143   -0.4760 H   0  0  0  0  0  0  0  0  0  0  0  0
    8.3864   -2.7233   -2.3933 H   0  0  0  0  0  0  0  0  0  0  0  0
    7.1853   -2.7795   -4.5665 H   0  0  0  0  0  0  0  0  0  0  0  0
    5.0117   -1.6144   -4.8129 H   0  0  0  0  0  0  0  0  0  0  0  0
   -5.3201    1.0403    0.9350 H   0  0  0  0  0  0  0  0  0  0  0  0
   -4.6263    0.4285    2.4432 H   0  0  0  0  0  0  0  0  0  0  0  0
   -6.3129   -1.0284    0.3679 H   0  0  0  0  0  0  0  0  0  0  0  0
   -6.6544   -0.8094    2.0781 H   0  0  0  0  0  0  0  0  0  0  0  0
   -5.9737   -3.1406    1.5242 H   0  0  0  0  0  0  0  0  0  0  0  0
   -5.4632   -2.2635    3.7886 H   0  0  0  0  0  0  0  0  0  0  0  0
   -3.8427   -1.7835    3.2583 H   0  0  0  0  0  0  0  0  0  0  0  0
   -4.3017   -3.4898    3.2655 H   0  0  0  0  0  0  0  0  0  0  0  0
   -4.5647   -2.9396   -0.3549 H   0  0  0  0  0  0  0  0  0  0  0  0
   -3.4891   -3.5218    0.9178 H   0  0  0  0  0  0  0  0  0  0  0  0
  1  2  1  0
  2  3  1  0
  3  4  1  0
  4  5  2  0
  4  6  1  0
  6  7  2  0
  7  8  1  0
  8  9  1  0
  9 10  2  0
  9 11  1  0
 11 12  1  0
 12 13  1  0
 13 14  2  0
 14 15  1  0
 15 16  2  0
 15 17  1  0
 14 18  1  0
 18 19  2  0
 19 20  1  0
 20 21  2  0
 21 22  1  0
 22 23  2  0
 23 24  1  0
 24 25  2  0
  7 26  1  0
 26 27  1  0
 27 28  2  0
 28 29  1  0
 29 30  1  0
 30 31  1  0
 31 32  1  0
 31 33  1  0
 28  6  1  0
 24 12  1  0
 33 27  1  0
 23 18  1  0
  1 34  1  0
  1 35  1  0
  1 36  1  0
  2 37  1  0
  2 38  1  0
  8 39  1  0
 11 40  1  0
 11 41  1  0
 17 42  1  0
 19 43  1  0
 20 44  1  0
 21 45  1  0
 22 46  1  0
 29 47  1  0
 29 48  1  0
 30 49  1  0
 30 50  1  0
 31 51  1  0
 32 52  1  0
 32 53  1  0
 32 54  1  0
 33 55  1  0
 33 56  1  0
M  END
$$$$
