
     RDKit          3D

 60 63  0  0  0  0  0  0  0  0999 V2000
   -7.8131    1.7121   -0.1150 C   0  0  0  0  0  0  0  0  0  0  0  0
   -7.4983    0.4508   -0.9145 C   0  0  0  0  0  0  0  0  0  0  0  0
   -8.4942    0.2998   -2.0627 C   0  0  0  0  0  0  0  0  0  0  0  0
   -6.2006    0.5623   -1.5086 O   0  0  0  0  0  0  0  0  0  0  0  0
   -5.1123    0.1124   -0.8180 C   0  0  0  0  0  0  0  0  0  0  0  0
   -5.0823   -0.2948    0.5113 C   0  0  0  0  0  0  0  0  0  0  0  0
   -3.8800   -0.7275    1.0892 C   0  0  0  0  0  0  0  0  0  0  0  0
   -2.6748   -0.7591    0.3640 C   0  0  0  0  0  0  0  0  0  0  0  0
   -1.4214   -1.2126    1.0035 C   0  0  0  0  0  0  0  0  0  0  0  0
   -0.1732   -0.7316    0.6467 C   0  0  0  0  0  0  0  0  0  0  0  0
    0.9512   -1.2254    1.3137 C   0  0  0  0  0  0  0  0  0  0  0  0
    2.2735   -0.6903    0.9105 C   0  0  0  0  0  0  0  0  0  0  0  0
    3.1862   -1.4403    0.5930 O   0  0  0  0  0  0  0  0  0  0  0  0
    2.3749    0.6848    0.9244 N   0  0  0  0  0  0  0  0  0  0  0  0
    3.6308    1.3507    0.6231 C   0  0  0  0  0  0  0  0  0  0  0  0
    3.9594    1.3358   -0.8827 C   0  0  0  0  0  0  0  0  0  0  0  0
    5.1710    2.1072   -1.2105 N   0  0  0  0  0  0  0  0  0  0  0  0
    6.4167    1.4089   -0.8136 C   0  0  0  0  0  0  0  0  0  0  0  0
    7.1476    0.7293   -1.9840 C   0  0  0  0  0  0  0  0  0  0  0  0
    7.5178    1.6447   -3.0238 O   0  0  0  0  0  0  0  0  0  0  0  0
    6.6200    2.7572   -3.1379 C   0  0  0  0  0  0  0  0  0  0  0  0
    5.2003    2.4257   -2.6563 C   0  0  0  0  0  0  0  0  0  0  0  0
    0.8288   -2.2040    2.3227 C   0  0  0  0  0  0  0  0  0  0  0  0
    1.9079   -2.7671    3.0512 C   0  0  0  0  0  0  0  0  0  0  0  0
    1.6882   -3.7212    4.0428 C   0  0  0  0  0  0  0  0  0  0  0  0
    0.3919   -4.1248    4.3250 C   0  0  0  0  0  0  0  0  0  0  0  0
   -0.6740   -3.5706    3.6129 C   0  0  0  0  0  0  0  0  0  0  0  0
   -0.4814   -2.6192    2.6196 C   0  0  0  0  0  0  0  0  0  0  0  0
   -1.5640   -2.1321    1.9890 N   0  0  0  0  0  0  0  0  0  0  0  0
   -2.7290   -0.3474   -0.9779 C   0  0  0  0  0  0  0  0  0  0  0  0
   -3.9288    0.0862   -1.5558 C   0  0  0  0  0  0  0  0  0  0  0  0
   -8.8232    1.6721    0.3045 H   0  0  0  0  0  0  0  0  0  0  0  0
   -7.7303    2.6049   -0.7449 H   0  0  0  0  0  0  0  0  0  0  0  0
   -7.1051    1.8468    0.7083 H   0  0  0  0  0  0  0  0  0  0  0  0
   -7.5858   -0.4458   -0.2901 H   0  0  0  0  0  0  0  0  0  0  0  0
   -9.5202    0.2138   -1.6913 H   0  0  0  0  0  0  0  0  0  0  0  0
   -8.4380    1.1529   -2.7483 H   0  0  0  0  0  0  0  0  0  0  0  0
   -8.2612   -0.5936   -2.6531 H   0  0  0  0  0  0  0  0  0  0  0  0
   -5.9672   -0.2860    1.1378 H   0  0  0  0  0  0  0  0  0  0  0  0
   -3.8888   -1.0430    2.1323 H   0  0  0  0  0  0  0  0  0  0  0  0
   -0.0622    0.0112   -0.1357 H   0  0  0  0  0  0  0  0  0  0  0  0
    1.6264    1.2380    1.3231 H   0  0  0  0  0  0  0  0  0  0  0  0
    4.4169    0.8636    1.2091 H   0  0  0  0  0  0  0  0  0  0  0  0
    3.5348    2.3831    0.9773 H   0  0  0  0  0  0  0  0  0  0  0  0
    3.0986    1.7820   -1.3996 H   0  0  0  0  0  0  0  0  0  0  0  0
    4.0406    0.3069   -1.2553 H   0  0  0  0  0  0  0  0  0  0  0  0
    7.0828    2.1728   -0.3929 H   0  0  0  0  0  0  0  0  0  0  0  0
    6.2472    0.6770   -0.0174 H   0  0  0  0  0  0  0  0  0  0  0  0
    8.0667    0.2542   -1.6262 H   0  0  0  0  0  0  0  0  0  0  0  0
    6.5259   -0.0584   -2.4253 H   0  0  0  0  0  0  0  0  0  0  0  0
    7.0398    3.5964   -2.5709 H   0  0  0  0  0  0  0  0  0  0  0  0
    6.6005    3.0544   -4.1913 H   0  0  0  0  0  0  0  0  0  0  0  0
    4.5402    3.2792   -2.8457 H   0  0  0  0  0  0  0  0  0  0  0  0
    4.8288    1.5749   -3.2430 H   0  0  0  0  0  0  0  0  0  0  0  0
    2.9344   -2.4693    2.8435 H   0  0  0  0  0  0  0  0  0  0  0  0
    2.5278   -4.1470    4.5865 H   0  0  0  0  0  0  0  0  0  0  0  0
    0.2035   -4.8697    5.0937 H   0  0  0  0  0  0  0  0  0  0  0  0
   -1.6882   -3.8930    3.8395 H   0  0  0  0  0  0  0  0  0  0  0  0
   -1.8429   -0.3747   -1.6078 H   0  0  0  0  0  0  0  0  0  0  0  0
   -3.9406    0.3965   -2.5982 H   0  0  0  0  0  0  0  0  0  0  0  0
  1  2  1  0
  2  3  1  0
  2  4  1  0
  4  5  1  0
  5  6  2  0
  6  7  1  0
  7  8  2  0
  8  9  1  0
  9 10  2  0
 10 11  1  0
 11 12  1  0
 12 13  2  0
 12 14  1  0
 14 15  1  0
 15 16  1  0
 16 17  1  0
 17 18  1  0
 18 19  1  0
 19 20  1  0
 20 21  1  0
 21 22  1  0
 11 23  2  0
 23 24  1  0
 24 25  2  0
 25 26  1  0
 26 27  2  0
 27 28  1  0
 28 29  2  0
  8 30  1  0
 30 31  2  0
 31  5  1  0
 29  9  1  0
 22 17  1  0
 28 23  1  0
  1 32  1  0
  1 33  1  0
  1 34  1  0
  2 35  1  0
  3 36  1  0
  3 37  1  0
  3 38  1  0
  6 39  1  0
  7 40  1  0
 10 41  1  0
 14 42  1  0
 15 43  1  0
 15 44  1  0
 16 45  1  0
 16 46  1  0
 18 47  1  0
 18 48  1  0
 19 49  1  0
 19 50  1  0
 21 51  1  0
 21 52  1  0
 22 53  1  0
 22 54  1  0
 24 55  1  0
 25 56  1  0
 26 57  1  0
 27 58  1  0
 30 59  1  0
 31 60  1  0
M  END
$$$$
