
     RDKit          3D

 57 61  0  0  0  0  0  0  0  0999 V2000
    6.3323    0.8967   -1.2696 C   0  0  0  0  0  0  0  0  0  0  0  0
    5.1609    0.5635   -0.3441 C   0  0  0  0  0  0  0  0  0  0  0  0
    5.5242    0.9072    1.0997 C   0  0  0  0  0  0  0  0  0  0  0  0
    3.9099    1.3421   -0.7596 C   0  0  0  0  0  0  0  0  0  0  0  0
    4.0126    2.4428   -1.3057 O   0  0  0  0  0  0  0  0  0  0  0  0
    2.6664    0.7923   -0.4530 N   0  0  0  0  0  0  0  0  0  0  0  0
    2.4715   -0.5346    0.1253 C   0  0  0  0  0  0  0  0  0  0  0  0
    1.0449   -0.7381    0.6267 C   0  0  0  0  0  0  0  0  0  0  0  0
    0.0197   -0.5903   -0.5269 C   0  0  0  0  0  0  0  0  0  0  0  0
    0.4109    0.6020   -1.4527 C   0  0  0  0  0  0  0  0  0  0  0  0
    1.4656    1.5244   -0.8476 C   0  0  0  0  0  0  0  0  0  0  0  0
    0.1611   -1.7532   -1.3952 O   0  0  0  0  0  0  0  0  0  0  0  0
   -0.4840   -2.9018   -1.0423 C   0  0  0  0  0  0  0  0  0  0  0  0
   -0.1391   -4.0450   -1.7629 C   0  0  0  0  0  0  0  0  0  0  0  0
   -0.7257   -5.2742   -1.4502 C   0  0  0  0  0  0  0  0  0  0  0  0
   -1.6591   -5.3561   -0.4164 C   0  0  0  0  0  0  0  0  0  0  0  0
   -2.3701   -6.8732   -0.0289 Cl  0  0  0  0  0  0  0  0  0  0  0  0
   -2.0191   -4.2189    0.3013 C   0  0  0  0  0  0  0  0  0  0  0  0
   -1.4339   -2.9930   -0.0294 C   0  0  0  0  0  0  0  0  0  0  0  0
   -1.8045   -1.7682    0.6910 C   0  0  0  0  0  0  0  0  0  0  0  0
   -2.3519   -1.8424    1.7874 O   0  0  0  0  0  0  0  0  0  0  0  0
   -1.4395   -0.4623   -0.0036 C   0  0  0  0  0  0  0  0  0  0  0  0
   -1.7103    0.7402    0.8871 C   0  0  0  0  0  0  0  0  0  0  0  0
   -3.0930    1.0564    0.4243 C   0  0  0  0  0  0  0  0  0  0  0  0
   -3.9871    1.9712    1.1721 C   0  0  0  0  0  0  0  0  0  0  0  0
   -5.3068    2.1384    0.7309 C   0  0  0  0  0  0  0  0  0  0  0  0
   -6.1762    2.9950    1.4118 C   0  0  0  0  0  0  0  0  0  0  0  0
   -5.7266    3.6864    2.5337 C   0  0  0  0  0  0  0  0  0  0  0  0
   -6.7936    4.7417    3.3737 Cl  0  0  0  0  0  0  0  0  0  0  0  0
   -4.4150    3.5287    2.9800 C   0  0  0  0  0  0  0  0  0  0  0  0
   -3.5429    2.6716    2.3002 C   0  0  0  0  0  0  0  0  0  0  0  0
   -3.4295    0.4957   -0.6936 N   0  0  0  0  0  0  0  0  0  0  0  0
   -2.3456   -0.3080   -1.1098 O   0  0  0  0  0  0  0  0  0  0  0  0
    6.6119    1.9542   -1.2057 H   0  0  0  0  0  0  0  0  0  0  0  0
    6.0739    0.6853   -2.3127 H   0  0  0  0  0  0  0  0  0  0  0  0
    7.2124    0.2992   -1.0107 H   0  0  0  0  0  0  0  0  0  0  0  0
    4.9756   -0.5112   -0.4354 H   0  0  0  0  0  0  0  0  0  0  0  0
    6.3890    0.3227    1.4310 H   0  0  0  0  0  0  0  0  0  0  0  0
    4.6980    0.7082    1.7891 H   0  0  0  0  0  0  0  0  0  0  0  0
    5.7753    1.9698    1.1996 H   0  0  0  0  0  0  0  0  0  0  0  0
    2.7226   -1.2721   -0.6459 H   0  0  0  0  0  0  0  0  0  0  0  0
    3.1670   -0.6789    0.9558 H   0  0  0  0  0  0  0  0  0  0  0  0
    0.9858   -1.7324    1.0834 H   0  0  0  0  0  0  0  0  0  0  0  0
    0.8420   -0.0087    1.4200 H   0  0  0  0  0  0  0  0  0  0  0  0
    0.8040    0.2205   -2.4051 H   0  0  0  0  0  0  0  0  0  0  0  0
   -0.4633    1.2058   -1.7200 H   0  0  0  0  0  0  0  0  0  0  0  0
    1.0836    2.0205    0.0514 H   0  0  0  0  0  0  0  0  0  0  0  0
    1.7046    2.3152   -1.5662 H   0  0  0  0  0  0  0  0  0  0  0  0
    0.5910   -3.9827   -2.5668 H   0  0  0  0  0  0  0  0  0  0  0  0
   -0.4499   -6.1618   -2.0148 H   0  0  0  0  0  0  0  0  0  0  0  0
   -2.7540   -4.2796    1.1006 H   0  0  0  0  0  0  0  0  0  0  0  0
   -1.6565    0.5268    1.9568 H   0  0  0  0  0  0  0  0  0  0  0  0
   -1.0803    1.6021    0.6548 H   0  0  0  0  0  0  0  0  0  0  0  0
   -5.6686    1.6019   -0.1448 H   0  0  0  0  0  0  0  0  0  0  0  0
   -7.1979    3.1151    1.0611 H   0  0  0  0  0  0  0  0  0  0  0  0
   -4.0656    4.0704    3.8554 H   0  0  0  0  0  0  0  0  0  0  0  0
   -2.5267    2.5729    2.6697 H   0  0  0  0  0  0  0  0  0  0  0  0
  1  2  1  0
  2  3  1  0
  2  4  1  0
  4  5  2  0
  4  6  1  0
  6  7  1  0
  7  8  1  0
  8  9  1  0
  9 10  1  0
 10 11  1  0
  9 12  1  0
 12 13  1  0
 13 14  2  0
 14 15  1  0
 15 16  2  0
 16 17  1  0
 16 18  1  0
 18 19  2  0
 19 20  1  0
 20 21  2  0
 20 22  1  0
 22 23  1  0
 23 24  1  0
 24 25  1  0
 25 26  2  0
 26 27  1  0
 27 28  2  0
 28 29  1  0
 28 30  1  0
 30 31  2  0
 24 32  2  0
 32 33  1  0
 11  6  1  0
 19 13  1  0
 33 22  1  0
 22  9  1  0
 31 25  1  0
  1 34  1  0
  1 35  1  0
  1 36  1  0
  2 37  1  0
  3 38  1  0
  3 39  1  0
  3 40  1  0
  7 41  1  0
  7 42  1  0
  8 43  1  0
  8 44  1  0
 10 45  1  0
 10 46  1  0
 11 47  1  0
 11 48  1  0
 14 49  1  0
 15 50  1  0
 18 51  1  0
 23 52  1  0
 23 53  1  0
 26 54  1  0
 27 55  1  0
 30 56  1  0
 31 57  1  0
M  END
$$$$
