
     RDKit          3D

 52 54  0  0  0  0  0  0  0  0999 V2000
    3.3302   -1.0124    1.0266 O   0  0  0  0  0  0  0  0  0  0  0  0
    2.3523   -1.1161    0.2966 C   0  0  0  0  0  0  0  0  0  0  0  0
    2.0452   -2.1645   -0.5471 N   0  0  0  0  0  0  0  0  0  0  0  0
    2.7753   -3.3469   -0.7656 C   0  0  0  0  0  0  0  0  0  0  0  0
    2.2434   -4.2680   -1.6773 C   0  0  0  0  0  0  0  0  0  0  0  0
    2.9084   -5.4660   -1.9517 C   0  0  0  0  0  0  0  0  0  0  0  0
    4.1128   -5.7540   -1.3157 C   0  0  0  0  0  0  0  0  0  0  0  0
    4.6488   -4.8445   -0.4073 C   0  0  0  0  0  0  0  0  0  0  0  0
    3.9828   -3.6455   -0.1326 C   0  0  0  0  0  0  0  0  0  0  0  0
    1.2999   -0.0341    0.2252 C   0  0  0  0  0  0  0  0  0  0  0  0
    1.4101    1.0289    1.0398 C   0  0  0  0  0  0  0  0  0  0  0  0
    0.4348    2.1702    1.0136 C   0  0  0  0  0  0  0  0  0  0  0  0
    1.1071    3.5318    1.1118 C   0  0  0  0  0  0  0  0  0  0  0  0
    2.1562    3.8984    0.2513 C   0  0  0  0  0  0  0  0  0  0  0  0
    2.7509    5.1587    0.3478 C   0  0  0  0  0  0  0  0  0  0  0  0
    2.2992    6.0643    1.3040 C   0  0  0  0  0  0  0  0  0  0  0  0
    3.1022    7.7706    1.4348 Br  0  0  0  0  0  0  0  0  0  0  0  0
    1.2592    5.7218    2.1644 C   0  0  0  0  0  0  0  0  0  0  0  0
    0.6651    4.4610    2.0674 C   0  0  0  0  0  0  0  0  0  0  0  0
   -0.4528    2.0959   -0.2350 C   0  0  0  0  0  0  0  0  0  0  0  0
   -0.8693    0.6492   -0.4846 C   0  0  0  0  0  0  0  0  0  0  0  0
   -1.6718    0.1543    0.5900 O   0  0  0  0  0  0  0  0  0  0  0  0
   -3.0714    0.3555    0.4122 C   0  0  0  0  0  0  0  0  0  0  0  0
   -3.6748   -0.8035   -0.3771 C   0  0  0  0  0  0  0  0  0  0  0  0
   -5.1853   -0.6560   -0.5218 C   0  0  0  0  0  0  0  0  0  0  0  0
   -5.7887   -1.8110   -1.3091 C   0  0  0  0  0  0  0  0  0  0  0  0
   -7.1878   -1.6111   -1.4516 O   0  0  0  0  0  0  0  0  0  0  0  0
    0.2687   -0.2022   -0.6858 O   0  0  0  0  0  0  0  0  0  0  0  0
    1.1784   -2.0566   -1.0617 H   0  0  0  0  0  0  0  0  0  0  0  0
    1.3047   -4.0663   -2.1863 H   0  0  0  0  0  0  0  0  0  0  0  0
    2.4862   -6.1723   -2.6613 H   0  0  0  0  0  0  0  0  0  0  0  0
    4.6336   -6.6842   -1.5263 H   0  0  0  0  0  0  0  0  0  0  0  0
    5.5891   -5.0634    0.0926 H   0  0  0  0  0  0  0  0  0  0  0  0
    4.4351   -2.9650    0.5818 H   0  0  0  0  0  0  0  0  0  0  0  0
    2.2283    1.0851    1.7559 H   0  0  0  0  0  0  0  0  0  0  0  0
   -0.2020    2.0422    1.9004 H   0  0  0  0  0  0  0  0  0  0  0  0
    2.5236    3.2011   -0.4994 H   0  0  0  0  0  0  0  0  0  0  0  0
    3.5644    5.4201   -0.3239 H   0  0  0  0  0  0  0  0  0  0  0  0
    0.9050    6.4252    2.9133 H   0  0  0  0  0  0  0  0  0  0  0  0
   -0.1455    4.2089    2.7483 H   0  0  0  0  0  0  0  0  0  0  0  0
    0.0908    2.4607   -1.1164 H   0  0  0  0  0  0  0  0  0  0  0  0
   -1.3291    2.7408   -0.1002 H   0  0  0  0  0  0  0  0  0  0  0  0
   -1.4353    0.6028   -1.4221 H   0  0  0  0  0  0  0  0  0  0  0  0
   -3.5175    0.3844    1.4122 H   0  0  0  0  0  0  0  0  0  0  0  0
   -3.2748    1.3213   -0.0642 H   0  0  0  0  0  0  0  0  0  0  0  0
   -3.4324   -1.7477    0.1264 H   0  0  0  0  0  0  0  0  0  0  0  0
   -3.2088   -0.8654   -1.3673 H   0  0  0  0  0  0  0  0  0  0  0  0
   -5.6585   -0.6026    0.4665 H   0  0  0  0  0  0  0  0  0  0  0  0
   -5.4279    0.2899   -1.0220 H   0  0  0  0  0  0  0  0  0  0  0  0
   -5.6212   -2.7694   -0.8071 H   0  0  0  0  0  0  0  0  0  0  0  0
   -5.3534   -1.8680   -2.3116 H   0  0  0  0  0  0  0  0  0  0  0  0
   -7.5831   -1.6465   -0.5635 H   0  0  0  0  0  0  0  0  0  0  0  0
  1  2  2  0
  2  3  1  0
  3  4  1  0
  4  5  2  0
  5  6  1  0
  6  7  2  0
  7  8  1  0
  8  9  2  0
  2 10  1  0
 10 11  2  0
 11 12  1  0
 12 13  1  0
 13 14  2  0
 14 15  1  0
 15 16  2  0
 16 17  1  0
 16 18  1  0
 18 19  2  0
 12 20  1  0
 20 21  1  0
 21 22  1  0
 22 23  1  0
 23 24  1  0
 24 25  1  0
 25 26  1  0
 26 27  1  0
 21 28  1  0
  9  4  1  0
 28 10  1  0
 19 13  1  0
  3 29  1  0
  5 30  1  0
  6 31  1  0
  7 32  1  0
  8 33  1  0
  9 34  1  0
 11 35  1  0
 12 36  1  0
 14 37  1  0
 15 38  1  0
 18 39  1  0
 19 40  1  0
 20 41  1  0
 20 42  1  0
 21 43  1  0
 23 44  1  0
 23 45  1  0
 24 46  1  0
 24 47  1  0
 25 48  1  0
 25 49  1  0
 26 50  1  0
 26 51  1  0
 27 52  1  0
M  END
$$$$
