
     RDKit          3D

 39 42  0  0  0  0  0  0  0  0999 V2000
    5.5060   -3.1945    0.0235 C   0  0  0  0  0  0  0  0  0  0  0  0
    4.8223   -2.0172   -0.4078 O   0  0  0  0  0  0  0  0  0  0  0  0
    4.0021   -1.4820    0.5314 C   0  0  0  0  0  0  0  0  0  0  0  0
    3.8245   -1.9218    1.6566 O   0  0  0  0  0  0  0  0  0  0  0  0
    3.3294   -0.2611    0.0091 C   0  0  0  0  0  0  0  0  0  0  0  0
    3.5426    0.2188   -1.2891 C   0  0  0  0  0  0  0  0  0  0  0  0
    2.8823    1.3692   -1.7316 C   0  0  0  0  0  0  0  0  0  0  0  0
    2.0012    2.0585   -0.8852 C   0  0  0  0  0  0  0  0  0  0  0  0
    1.2748    3.2905   -1.3710 C   0  0  0  0  0  0  0  0  0  0  0  0
   -0.0862    2.9119   -2.5145 S   0  0  0  0  0  0  0  0  0  0  0  0
   -1.1927    2.1109   -1.3765 C   0  0  0  0  0  0  0  0  0  0  0  0
   -1.4516    2.7458   -0.1984 N   0  0  0  0  0  0  0  0  0  0  0  0
   -2.2567    2.1995    0.7148 N   0  0  0  0  0  0  0  0  0  0  0  0
   -2.7986    0.9992    0.3925 C   0  0  0  0  0  0  0  0  0  0  0  0
   -2.5046    0.4162   -0.8265 C   0  0  0  0  0  0  0  0  0  0  0  0
   -1.7023    0.9253   -1.7755 N   0  0  0  0  0  0  0  0  0  0  0  0
   -3.1734   -0.7719   -0.8932 N   0  0  0  0  0  0  0  0  0  0  0  0
   -3.8987   -0.9748    0.2629 C   0  0  0  0  0  0  0  0  0  0  0  0
   -4.7242   -2.0418    0.6356 C   0  0  0  0  0  0  0  0  0  0  0  0
   -5.3407   -1.9749    1.8891 C   0  0  0  0  0  0  0  0  0  0  0  0
   -5.1400   -0.8856    2.7348 C   0  0  0  0  0  0  0  0  0  0  0  0
   -4.3120    0.1745    2.3496 C   0  0  0  0  0  0  0  0  0  0  0  0
   -3.6782    0.1324    1.0918 C   0  0  0  0  0  0  0  0  0  0  0  0
    1.7919    1.5741    0.4139 C   0  0  0  0  0  0  0  0  0  0  0  0
    2.4500    0.4237    0.8570 C   0  0  0  0  0  0  0  0  0  0  0  0
    4.7903   -3.9852    0.2699 H   0  0  0  0  0  0  0  0  0  0  0  0
    6.1498   -2.9722    0.8803 H   0  0  0  0  0  0  0  0  0  0  0  0
    6.1349   -3.5419   -0.8009 H   0  0  0  0  0  0  0  0  0  0  0  0
    4.2166   -0.2936   -1.9712 H   0  0  0  0  0  0  0  0  0  0  0  0
    3.0552    1.7211   -2.7474 H   0  0  0  0  0  0  0  0  0  0  0  0
    1.9898    3.9297   -1.9024 H   0  0  0  0  0  0  0  0  0  0  0  0
    0.9117    3.8910   -0.5292 H   0  0  0  0  0  0  0  0  0  0  0  0
   -3.1312   -1.4019   -1.6804 H   0  0  0  0  0  0  0  0  0  0  0  0
   -4.8854   -2.8943   -0.0170 H   0  0  0  0  0  0  0  0  0  0  0  0
   -5.9884   -2.7886    2.2095 H   0  0  0  0  0  0  0  0  0  0  0  0
   -5.6307   -0.8572    3.7051 H   0  0  0  0  0  0  0  0  0  0  0  0
   -4.1588    1.0215    3.0132 H   0  0  0  0  0  0  0  0  0  0  0  0
    1.1087    2.0840    1.0920 H   0  0  0  0  0  0  0  0  0  0  0  0
    2.2700    0.0628    1.8684 H   0  0  0  0  0  0  0  0  0  0  0  0
  1  2  1  0
  2  3  1  0
  3  4  2  0
  3  5  1  0
  5  6  2  0
  6  7  1  0
  7  8  2  0
  8  9  1  0
  9 10  1  0
 10 11  1  0
 11 12  2  0
 12 13  1  0
 13 14  2  0
 14 15  1  0
 15 16  2  0
 15 17  1  0
 17 18  1  0
 18 19  2  0
 19 20  1  0
 20 21  2  0
 21 22  1  0
 22 23  2  0
  8 24  1  0
 24 25  2  0
 25  5  1  0
 16 11  1  0
 23 18  1  0
 23 14  1  0
  1 26  1  0
  1 27  1  0
  1 28  1  0
  6 29  1  0
  7 30  1  0
  9 31  1  0
  9 32  1  0
 17 33  1  0
 19 34  1  0
 20 35  1  0
 21 36  1  0
 22 37  1  0
 24 38  1  0
 25 39  1  0
M  END
$$$$
