
     RDKit          3D

 52 56  0  0  0  0  0  0  0  0999 V2000
   -1.9892   -0.6835   -2.5950 O   0  0  0  0  0  0  0  0  0  0  0  0
   -2.5005   -1.4907   -1.8367 C   0  0  0  0  0  0  0  0  0  0  0  0
   -3.2256   -2.5666   -2.2728 O   0  0  0  0  0  0  0  0  0  0  0  0
   -3.4678   -3.4185   -1.1492 C   0  0  0  0  0  0  0  0  0  0  0  0
   -3.2827   -2.5302    0.0497 C   0  0  0  0  0  0  0  0  0  0  0  0
   -2.4421   -1.4882   -0.4543 N   0  0  0  0  0  0  0  0  0  0  0  0
   -1.8679   -0.5561    0.4052 C   0  0  0  0  0  0  0  0  0  0  0  0
   -2.1182   -0.6147    1.6135 O   0  0  0  0  0  0  0  0  0  0  0  0
   -0.9526    0.5218   -0.2215 C   0  0  0  0  0  0  0  0  0  0  0  0
    0.3847   -0.0255   -0.7765 C   0  0  0  0  0  0  0  0  0  0  0  0
    0.7614   -1.4484   -0.3936 C   0  0  0  0  0  0  0  0  0  0  0  0
    1.0188   -1.8070    0.9415 C   0  0  0  0  0  0  0  0  0  0  0  0
    1.3389   -3.1242    1.2721 C   0  0  0  0  0  0  0  0  0  0  0  0
    1.4050   -4.0857    0.2726 C   0  0  0  0  0  0  0  0  0  0  0  0
    1.7053   -5.3513    0.5913 F   0  0  0  0  0  0  0  0  0  0  0  0
    1.1565   -3.7556   -1.0536 C   0  0  0  0  0  0  0  0  0  0  0  0
    0.8344   -2.4399   -1.3878 C   0  0  0  0  0  0  0  0  0  0  0  0
    1.3387    0.9977   -0.1961 C   0  0  0  0  0  0  0  0  0  0  0  0
    2.7773    1.0620   -0.5679 C   0  0  0  0  0  0  0  0  0  0  0  0
    3.6390    1.8397    0.2196 C   0  0  0  0  0  0  0  0  0  0  0  0
    4.9979    1.9265   -0.0898 C   0  0  0  0  0  0  0  0  0  0  0  0
    5.5038    1.2389   -1.1911 C   0  0  0  0  0  0  0  0  0  0  0  0
    4.6469    0.4724   -1.9787 C   0  0  0  0  0  0  0  0  0  0  0  0
    5.2715   -0.3712   -3.3434 Cl  0  0  0  0  0  0  0  0  0  0  0  0
    3.2871    0.3816   -1.6774 C   0  0  0  0  0  0  0  0  0  0  0  0
    0.8151    1.8199    0.6604 N   0  0  0  0  0  0  0  0  0  0  0  0
   -0.5182    1.5263    0.7749 N   0  0  0  0  0  0  0  0  0  0  0  0
   -1.3628    2.5365    1.2652 C   0  0  0  0  0  0  0  0  0  0  0  0
   -2.7424    2.5813    1.0077 C   0  0  0  0  0  0  0  0  0  0  0  0
   -3.5544    3.6024    1.5199 C   0  0  0  0  0  0  0  0  0  0  0  0
   -3.0047    4.6052    2.3107 C   0  0  0  0  0  0  0  0  0  0  0  0
   -1.6446    4.5844    2.5924 C   0  0  0  0  0  0  0  0  0  0  0  0
   -0.8411    3.5615    2.0773 C   0  0  0  0  0  0  0  0  0  0  0  0
   -2.7380   -4.2349   -1.1752 H   0  0  0  0  0  0  0  0  0  0  0  0
   -4.4755   -3.8398   -1.2041 H   0  0  0  0  0  0  0  0  0  0  0  0
   -2.8367   -3.0453    0.9058 H   0  0  0  0  0  0  0  0  0  0  0  0
   -4.2303   -2.0790    0.3656 H   0  0  0  0  0  0  0  0  0  0  0  0
   -1.4935    1.0481   -1.0166 H   0  0  0  0  0  0  0  0  0  0  0  0
    0.3922    0.0885   -1.8671 H   0  0  0  0  0  0  0  0  0  0  0  0
    0.9598   -1.0649    1.7393 H   0  0  0  0  0  0  0  0  0  0  0  0
    1.5338   -3.4030    2.3031 H   0  0  0  0  0  0  0  0  0  0  0  0
    1.2180   -4.5240   -1.8181 H   0  0  0  0  0  0  0  0  0  0  0  0
    0.6393   -2.1958   -2.4315 H   0  0  0  0  0  0  0  0  0  0  0  0
    3.2564    2.3812    1.0837 H   0  0  0  0  0  0  0  0  0  0  0  0
    5.6580    2.5299    0.5287 H   0  0  0  0  0  0  0  0  0  0  0  0
    6.5618    1.3067   -1.4309 H   0  0  0  0  0  0  0  0  0  0  0  0
    2.6494   -0.2137   -2.3211 H   0  0  0  0  0  0  0  0  0  0  0  0
   -3.2275    1.8233    0.4034 H   0  0  0  0  0  0  0  0  0  0  0  0
   -4.6189    3.6072    1.3011 H   0  0  0  0  0  0  0  0  0  0  0  0
   -3.6338    5.3955    2.7100 H   0  0  0  0  0  0  0  0  0  0  0  0
   -1.2013    5.3566    3.2145 H   0  0  0  0  0  0  0  0  0  0  0  0
    0.2190    3.5626    2.3216 H   0  0  0  0  0  0  0  0  0  0  0  0
  1  2  2  0
  2  3  1  0
  3  4  1  0
  4  5  1  0
  5  6  1  0
  6  7  1  0
  7  8  2  0
  7  9  1  0
  9 10  1  0
 10 11  1  0
 11 12  2  0
 12 13  1  0
 13 14  2  0
 14 15  1  0
 14 16  1  0
 16 17  2  0
 10 18  1  0
 18 19  1  0
 19 20  2  0
 20 21  1  0
 21 22  2  0
 22 23  1  0
 23 24  1  0
 23 25  2  0
 18 26  2  0
 26 27  1  0
 27 28  1  0
 28 29  2  0
 29 30  1  0
 30 31  2  0
 31 32  1  0
 32 33  2  0
  6  2  1  0
 27  9  1  0
 33 28  1  0
 17 11  1  0
 25 19  1  0
  4 34  1  0
  4 35  1  0
  5 36  1  0
  5 37  1  0
  9 38  1  0
 10 39  1  0
 12 40  1  0
 13 41  1  0
 16 42  1  0
 17 43  1  0
 20 44  1  0
 21 45  1  0
 22 46  1  0
 25 47  1  0
 29 48  1  0
 30 49  1  0
 31 50  1  0
 32 51  1  0
 33 52  1  0
M  END
$$$$
