
     RDKit          3D

 51 53  0  0  0  0  0  0  0  0999 V2000
   -2.1534    6.2484   -1.8548 C   0  0  0  0  0  0  0  0  0  0  0  0
   -2.1608    5.6822   -0.4405 C   0  0  0  0  0  0  0  0  0  0  0  0
   -1.4892    4.3133   -0.3208 C   0  0  0  0  0  0  0  0  0  0  0  0
   -2.4484    3.0049   -1.1601 S   0  0  0  0  0  0  0  0  0  0  0  0
   -1.4258    1.5760   -0.8265 C   0  0  0  0  0  0  0  0  0  0  0  0
   -1.8594    0.3417   -1.2616 C   0  0  0  0  0  0  0  0  0  0  0  0
   -1.0567   -0.7485   -0.9935 C   0  0  0  0  0  0  0  0  0  0  0  0
   -1.4118   -2.0239   -1.4137 N   0  0  0  0  0  0  0  0  0  0  0  0
   -0.4145   -3.0884   -1.2231 C   0  0  0  0  0  0  0  0  0  0  0  0
   -0.8892   -4.3970   -1.8956 C   0  0  0  0  0  0  0  0  0  0  0  0
   -2.2042   -4.9035   -1.4420 N   0  0  0  0  0  0  0  0  0  0  0  0
   -2.0670   -6.0799   -0.5879 C   0  0  0  0  0  0  0  0  0  0  0  0
   -2.9829   -3.8515   -0.7570 C   0  0  0  0  0  0  0  0  0  0  0  0
   -2.8241   -2.4438   -1.3792 C   0  0  0  0  0  0  0  0  0  0  0  0
    0.1147   -0.5833   -0.3552 N   0  0  0  0  0  0  0  0  0  0  0  0
    0.4668    0.6558    0.0369 C   0  0  0  0  0  0  0  0  0  0  0  0
    1.7547    0.8142    0.7447 C   0  0  0  0  0  0  0  0  0  0  0  0
    2.2009    2.0708    1.1913 C   0  0  0  0  0  0  0  0  0  0  0  0
    3.4226    2.2172    1.8598 C   0  0  0  0  0  0  0  0  0  0  0  0
    4.2380    1.1132    2.1039 C   0  0  0  0  0  0  0  0  0  0  0  0
    5.4022    1.3938    2.7631 O   0  0  0  0  0  0  0  0  0  0  0  0
    6.2710    0.2993    3.0255 C   0  0  0  0  0  0  0  0  0  0  0  0
    3.8187   -0.1425    1.6737 C   0  0  0  0  0  0  0  0  0  0  0  0
    2.5944   -0.2860    1.0037 C   0  0  0  0  0  0  0  0  0  0  0  0
   -0.2721    1.7552   -0.1706 N   0  0  0  0  0  0  0  0  0  0  0  0
   -1.1362    6.2833   -2.2585 H   0  0  0  0  0  0  0  0  0  0  0  0
   -2.5487    7.2691   -1.8512 H   0  0  0  0  0  0  0  0  0  0  0  0
   -2.7742    5.6557   -2.5334 H   0  0  0  0  0  0  0  0  0  0  0  0
   -1.6190    6.3835    0.2065 H   0  0  0  0  0  0  0  0  0  0  0  0
   -3.1891    5.6426   -0.0614 H   0  0  0  0  0  0  0  0  0  0  0  0
   -1.4047    4.0564    0.7409 H   0  0  0  0  0  0  0  0  0  0  0  0
   -0.4798    4.3590   -0.7443 H   0  0  0  0  0  0  0  0  0  0  0  0
   -2.7833    0.2429   -1.8154 H   0  0  0  0  0  0  0  0  0  0  0  0
    0.5401   -2.7995   -1.6804 H   0  0  0  0  0  0  0  0  0  0  0  0
   -0.2411   -3.2667   -0.1539 H   0  0  0  0  0  0  0  0  0  0  0  0
   -0.9821   -4.2080   -2.9733 H   0  0  0  0  0  0  0  0  0  0  0  0
   -0.1080   -5.1610   -1.7954 H   0  0  0  0  0  0  0  0  0  0  0  0
   -3.0518   -6.4535   -0.2858 H   0  0  0  0  0  0  0  0  0  0  0  0
   -1.5762   -6.8948   -1.1321 H   0  0  0  0  0  0  0  0  0  0  0  0
   -1.4848   -5.8689    0.3162 H   0  0  0  0  0  0  0  0  0  0  0  0
   -2.6865   -3.7857    0.2998 H   0  0  0  0  0  0  0  0  0  0  0  0
   -4.0439   -4.1285   -0.7756 H   0  0  0  0  0  0  0  0  0  0  0  0
   -3.4418   -1.7555   -0.7896 H   0  0  0  0  0  0  0  0  0  0  0  0
   -3.2148   -2.4445   -2.4040 H   0  0  0  0  0  0  0  0  0  0  0  0
    1.5949    2.9588    1.0197 H   0  0  0  0  0  0  0  0  0  0  0  0
    3.7380    3.2041    2.1905 H   0  0  0  0  0  0  0  0  0  0  0  0
    6.6137   -0.1650    2.0949 H   0  0  0  0  0  0  0  0  0  0  0  0
    5.7931   -0.4354    3.6823 H   0  0  0  0  0  0  0  0  0  0  0  0
    7.1507    0.6887    3.5468 H   0  0  0  0  0  0  0  0  0  0  0  0
    4.4145   -1.0336    1.8384 H   0  0  0  0  0  0  0  0  0  0  0  0
    2.2962   -1.2816    0.6784 H   0  0  0  0  0  0  0  0  0  0  0  0
  1  2  1  0
  2  3  1  0
  3  4  1  0
  4  5  1  0
  5  6  2  0
  6  7  1  0
  7  8  1  0
  8  9  1  0
  9 10  1  0
 10 11  1  0
 11 12  1  0
 11 13  1  0
 13 14  1  0
  7 15  2  0
 15 16  1  0
 16 17  1  0
 17 18  2  0
 18 19  1  0
 19 20  2  0
 20 21  1  0
 21 22  1  0
 20 23  1  0
 23 24  2  0
 16 25  2  0
 25  5  1  0
 14  8  1  0
 24 17  1  0
  1 26  1  0
  1 27  1  0
  1 28  1  0
  2 29  1  0
  2 30  1  0
  3 31  1  0
  3 32  1  0
  6 33  1  0
  9 34  1  0
  9 35  1  0
 10 36  1  0
 10 37  1  0
 12 38  1  0
 12 39  1  0
 12 40  1  0
 13 41  1  0
 13 42  1  0
 14 43  1  0
 14 44  1  0
 18 45  1  0
 19 46  1  0
 22 47  1  0
 22 48  1  0
 22 49  1  0
 23 50  1  0
 24 51  1  0
M  END
$$$$
