
     RDKit          3D

 69 73  0  0  0  0  0  0  0  0999 V2000
    0.0543   -5.3421   -2.4528 C   0  0  0  0  0  0  0  0  0  0  0  0
   -0.6439   -4.2568   -1.8578 O   0  0  0  0  0  0  0  0  0  0  0  0
   -0.8320   -4.3103   -0.5036 C   0  0  0  0  0  0  0  0  0  0  0  0
   -0.4620   -5.3618    0.3350 C   0  0  0  0  0  0  0  0  0  0  0  0
   -0.7144   -5.2864    1.7076 C   0  0  0  0  0  0  0  0  0  0  0  0
   -1.3378   -4.1607    2.2471 C   0  0  0  0  0  0  0  0  0  0  0  0
   -1.7173   -3.0995    1.4173 C   0  0  0  0  0  0  0  0  0  0  0  0
   -2.3545   -1.9017    1.9748 C   0  0  0  0  0  0  0  0  0  0  0  0
   -3.9280   -2.0415    2.6292 S   0  0  0  0  0  0  0  0  0  0  0  0
   -4.0117   -0.3702    3.0226 C   0  0  0  0  0  0  0  0  0  0  0  0
   -5.0931    0.2960    3.6354 C   0  0  0  0  0  0  0  0  0  0  0  0
   -4.9949    1.6692    3.8924 C   0  0  0  0  0  0  0  0  0  0  0  0
   -5.9886    2.4138    4.4830 O   0  0  0  0  0  0  0  0  0  0  0  0
   -7.1823    1.7432    4.8597 C   0  0  0  0  0  0  0  0  0  0  0  0
   -3.8296    2.3687    3.5447 C   0  0  0  0  0  0  0  0  0  0  0  0
   -3.8212    3.7114    3.8367 O   0  0  0  0  0  0  0  0  0  0  0  0
   -2.6406    4.4444    3.5422 C   0  0  0  0  0  0  0  0  0  0  0  0
   -2.7658    1.6903    2.9340 C   0  0  0  0  0  0  0  0  0  0  0  0
   -2.8449    0.2989    2.6599 C   0  0  0  0  0  0  0  0  0  0  0  0
   -1.8896   -0.5985    2.0490 C   0  0  0  0  0  0  0  0  0  0  0  0
   -0.5684   -0.2289    1.5562 C   0  0  0  0  0  0  0  0  0  0  0  0
   -0.4405    0.4593    0.3454 C   0  0  0  0  0  0  0  0  0  0  0  0
    0.8258    0.8090   -0.1386 C   0  0  0  0  0  0  0  0  0  0  0  0
    1.9705    0.4812    0.5890 C   0  0  0  0  0  0  0  0  0  0  0  0
    3.2628    0.7531    0.2385 O   0  0  0  0  0  0  0  0  0  0  0  0
    3.5235    1.3588   -1.0313 C   0  0  0  0  0  0  0  0  0  0  0  0
    3.5715    0.2995   -2.1489 C   0  0  0  0  0  0  0  0  0  0  0  0
    3.8629    0.7633   -3.5157 N   0  0  0  0  0  0  0  0  0  0  0  0
    2.8113    1.6288   -4.0582 C   0  0  0  0  0  0  0  0  0  0  0  0
    3.0652    1.9301   -5.5369 C   0  0  0  0  0  0  0  0  0  0  0  0
    4.4470    2.5379   -5.7501 C   0  0  0  0  0  0  0  0  0  0  0  0
    5.5189    1.6659   -5.1049 C   0  0  0  0  0  0  0  0  0  0  0  0
    5.1906    1.3735   -3.6396 C   0  0  0  0  0  0  0  0  0  0  0  0
    1.8357   -0.1952    1.8053 C   0  0  0  0  0  0  0  0  0  0  0  0
    0.5754   -0.5520    2.2897 C   0  0  0  0  0  0  0  0  0  0  0  0
   -1.4597   -3.1868    0.0425 C   0  0  0  0  0  0  0  0  0  0  0  0
    1.0634   -5.4382   -2.0392 H   0  0  0  0  0  0  0  0  0  0  0  0
   -0.5070   -6.2758   -2.3478 H   0  0  0  0  0  0  0  0  0  0  0  0
    0.1516   -5.1307   -3.5218 H   0  0  0  0  0  0  0  0  0  0  0  0
    0.0234   -6.2537   -0.0464 H   0  0  0  0  0  0  0  0  0  0  0  0
   -0.4224   -6.1068    2.3585 H   0  0  0  0  0  0  0  0  0  0  0  0
   -1.5198   -4.1138    3.3183 H   0  0  0  0  0  0  0  0  0  0  0  0
   -5.9766   -0.2757    3.8946 H   0  0  0  0  0  0  0  0  0  0  0  0
   -6.9818    0.9753    5.6140 H   0  0  0  0  0  0  0  0  0  0  0  0
   -7.6908    1.3204    3.9870 H   0  0  0  0  0  0  0  0  0  0  0  0
   -7.8538    2.4817    5.3087 H   0  0  0  0  0  0  0  0  0  0  0  0
   -2.4381    4.4515    2.4661 H   0  0  0  0  0  0  0  0  0  0  0  0
   -1.7843    4.0581    4.1050 H   0  0  0  0  0  0  0  0  0  0  0  0
   -2.8033    5.4805    3.8550 H   0  0  0  0  0  0  0  0  0  0  0  0
   -1.8537    2.2061    2.6545 H   0  0  0  0  0  0  0  0  0  0  0  0
   -1.3246    0.7154   -0.2353 H   0  0  0  0  0  0  0  0  0  0  0  0
    0.8755    1.3277   -1.0898 H   0  0  0  0  0  0  0  0  0  0  0  0
    4.5112    1.8233   -0.9359 H   0  0  0  0  0  0  0  0  0  0  0  0
    2.8281    2.1788   -1.2369 H   0  0  0  0  0  0  0  0  0  0  0  0
    2.6272   -0.2592   -2.1667 H   0  0  0  0  0  0  0  0  0  0  0  0
    4.3151   -0.4598   -1.8705 H   0  0  0  0  0  0  0  0  0  0  0  0
    1.8371    1.1329   -3.9730 H   0  0  0  0  0  0  0  0  0  0  0  0
    2.7481    2.5727   -3.5033 H   0  0  0  0  0  0  0  0  0  0  0  0
    2.9800    1.0047   -6.1201 H   0  0  0  0  0  0  0  0  0  0  0  0
    2.2976    2.6162   -5.9119 H   0  0  0  0  0  0  0  0  0  0  0  0
    4.4775    3.5413   -5.3092 H   0  0  0  0  0  0  0  0  0  0  0  0
    4.6479    2.6498   -6.8212 H   0  0  0  0  0  0  0  0  0  0  0  0
    6.4912    2.1658   -5.1724 H   0  0  0  0  0  0  0  0  0  0  0  0
    5.6048    0.7224   -5.6583 H   0  0  0  0  0  0  0  0  0  0  0  0
    5.9549    0.6917   -3.2472 H   0  0  0  0  0  0  0  0  0  0  0  0
    5.2547    2.3051   -3.0639 H   0  0  0  0  0  0  0  0  0  0  0  0
    2.7234   -0.4547    2.3779 H   0  0  0  0  0  0  0  0  0  0  0  0
    0.4965   -1.0843    3.2343 H   0  0  0  0  0  0  0  0  0  0  0  0
   -1.7477   -2.3723   -0.6180 H   0  0  0  0  0  0  0  0  0  0  0  0
  1  2  1  0
  2  3  1  0
  3  4  2  0
  4  5  1  0
  5  6  2  0
  6  7  1  0
  7  8  1  0
  8  9  1  0
  9 10  1  0
 10 11  2  0
 11 12  1  0
 12 13  1  0
 13 14  1  0
 12 15  2  0
 15 16  1  0
 16 17  1  0
 15 18  1  0
 18 19  2  0
 19 20  1  0
 20 21  1  0
 21 22  2  0
 22 23  1  0
 23 24  2  0
 24 25  1  0
 25 26  1  0
 26 27  1  0
 27 28  1  0
 28 29  1  0
 29 30  1  0
 30 31  1  0
 31 32  1  0
 32 33  1  0
 24 34  1  0
 34 35  2  0
  7 36  2  0
 36  3  1  0
 20  8  2  0
 35 21  1  0
 19 10  1  0
 33 28  1  0
  1 37  1  0
  1 38  1  0
  1 39  1  0
  4 40  1  0
  5 41  1  0
  6 42  1  0
 11 43  1  0
 14 44  1  0
 14 45  1  0
 14 46  1  0
 17 47  1  0
 17 48  1  0
 17 49  1  0
 18 50  1  0
 22 51  1  0
 23 52  1  0
 26 53  1  0
 26 54  1  0
 27 55  1  0
 27 56  1  0
 29 57  1  0
 29 58  1  0
 30 59  1  0
 30 60  1  0
 31 61  1  0
 31 62  1  0
 32 63  1  0
 32 64  1  0
 33 65  1  0
 33 66  1  0
 34 67  1  0
 35 68  1  0
 36 69  1  0
M  END
$$$$
