
     RDKit          3D

 47 48  0  0  0  0  0  0  0  0999 V2000
    0.8880    3.2415   -1.5015 C   0  0  0  0  0  0  0  0  0  0  0  0
    1.1334    2.0418   -0.7815 O   0  0  0  0  0  0  0  0  0  0  0  0
    2.4294    1.6267   -0.6490 C   0  0  0  0  0  0  0  0  0  0  0  0
    3.5421    2.3088   -1.1507 C   0  0  0  0  0  0  0  0  0  0  0  0
    4.8343    1.8152   -0.9339 C   0  0  0  0  0  0  0  0  0  0  0  0
    5.0311    0.6438   -0.2044 C   0  0  0  0  0  0  0  0  0  0  0  0
    3.9331   -0.0475    0.3008 C   0  0  0  0  0  0  0  0  0  0  0  0
    2.6385    0.4281    0.0526 C   0  0  0  0  0  0  0  0  0  0  0  0
    1.5096   -0.3091    0.6419 C   0  0  0  0  0  0  0  0  0  0  0  0
    1.4447   -0.3615    1.8742 O   0  0  0  0  0  0  0  0  0  0  0  0
    0.5498   -0.9246   -0.1765 N   0  0  0  0  0  0  0  0  0  0  0  0
   -0.5322   -1.4612    0.6036 N   0  0  0  0  0  0  0  0  0  0  0  0
   -1.6994   -0.7214    0.6460 C   0  0  0  0  0  0  0  0  0  0  0  0
   -2.0639    0.0786   -0.2077 O   0  0  0  0  0  0  0  0  0  0  0  0
   -2.3893   -1.0429    1.8072 O   0  0  0  0  0  0  0  0  0  0  0  0
   -3.5609   -0.3061    1.9959 C   0  0  0  0  0  0  0  0  0  0  0  0
   -3.4912    1.0075    2.4578 C   0  0  0  0  0  0  0  0  0  0  0  0
   -4.6731    1.7088    2.6919 C   0  0  0  0  0  0  0  0  0  0  0  0
   -5.9071    1.0898    2.4773 C   0  0  0  0  0  0  0  0  0  0  0  0
   -5.9633   -0.2334    2.0322 C   0  0  0  0  0  0  0  0  0  0  0  0
   -4.7850   -0.9405    1.7960 C   0  0  0  0  0  0  0  0  0  0  0  0
    0.7927   -1.7109   -1.4368 C   0  0  0  0  0  0  0  0  0  0  0  0
   -0.5287   -2.2412   -2.0533 C   0  0  0  0  0  0  0  0  0  0  0  0
    1.6884   -2.9249   -1.1193 C   0  0  0  0  0  0  0  0  0  0  0  0
    1.4616   -0.8779   -2.5469 C   0  0  0  0  0  0  0  0  0  0  0  0
    1.3537    4.1002   -1.0070 H   0  0  0  0  0  0  0  0  0  0  0  0
   -0.1932    3.4093   -1.5132 H   0  0  0  0  0  0  0  0  0  0  0  0
    1.2228    3.1532   -2.5402 H   0  0  0  0  0  0  0  0  0  0  0  0
    3.4410    3.2351   -1.7073 H   0  0  0  0  0  0  0  0  0  0  0  0
    5.6919    2.3589   -1.3244 H   0  0  0  0  0  0  0  0  0  0  0  0
    6.0382    0.2776   -0.0208 H   0  0  0  0  0  0  0  0  0  0  0  0
    4.0810   -0.9488    0.8906 H   0  0  0  0  0  0  0  0  0  0  0  0
   -0.2388   -1.7755    1.5271 H   0  0  0  0  0  0  0  0  0  0  0  0
   -2.5293    1.4826    2.6262 H   0  0  0  0  0  0  0  0  0  0  0  0
   -4.6334    2.7372    3.0407 H   0  0  0  0  0  0  0  0  0  0  0  0
   -6.8271    1.6398    2.6588 H   0  0  0  0  0  0  0  0  0  0  0  0
   -6.9257   -0.7116    1.8707 H   0  0  0  0  0  0  0  0  0  0  0  0
   -4.8224   -1.9705    1.4563 H   0  0  0  0  0  0  0  0  0  0  0  0
   -0.3403   -2.7891   -2.9844 H   0  0  0  0  0  0  0  0  0  0  0  0
   -1.0490   -2.9349   -1.3837 H   0  0  0  0  0  0  0  0  0  0  0  0
   -1.2125   -1.4184   -2.2886 H   0  0  0  0  0  0  0  0  0  0  0  0
    1.2286   -3.5680   -0.3603 H   0  0  0  0  0  0  0  0  0  0  0  0
    2.6654   -2.6157   -0.7347 H   0  0  0  0  0  0  0  0  0  0  0  0
    1.8633   -3.5347   -2.0129 H   0  0  0  0  0  0  0  0  0  0  0  0
    2.5061   -0.6479   -2.3263 H   0  0  0  0  0  0  0  0  0  0  0  0
    1.4754   -1.4252   -3.4976 H   0  0  0  0  0  0  0  0  0  0  0  0
    0.9217    0.0590   -2.7182 H   0  0  0  0  0  0  0  0  0  0  0  0
  1  2  1  0
  2  3  1  0
  3  4  2  0
  4  5  1  0
  5  6  2  0
  6  7  1  0
  7  8  2  0
  8  9  1  0
  9 10  2  0
  9 11  1  0
 11 12  1  0
 12 13  1  0
 13 14  2  0
 13 15  1  0
 15 16  1  0
 16 17  2  0
 17 18  1  0
 18 19  2  0
 19 20  1  0
 20 21  2  0
 11 22  1  0
 22 23  1  0
 22 24  1  0
 22 25  1  0
  8  3  1  0
 21 16  1  0
  1 26  1  0
  1 27  1  0
  1 28  1  0
  4 29  1  0
  5 30  1  0
  6 31  1  0
  7 32  1  0
 12 33  1  0
 17 34  1  0
 18 35  1  0
 19 36  1  0
 20 37  1  0
 21 38  1  0
 23 39  1  0
 23 40  1  0
 23 41  1  0
 24 42  1  0
 24 43  1  0
 24 44  1  0
 25 45  1  0
 25 46  1  0
 25 47  1  0
M  END
$$$$
