
     RDKit          3D

 52 55  0  0  0  0  0  0  0  0999 V2000
    6.1553   -1.6749    3.6442 C   0  0  0  0  0  0  0  0  0  0  0  0
    4.9456   -1.1992    2.8976 C   0  0  0  0  0  0  0  0  0  0  0  0
    3.6693   -1.3334    3.4658 C   0  0  0  0  0  0  0  0  0  0  0  0
    2.5206   -0.9199    2.7849 C   0  0  0  0  0  0  0  0  0  0  0  0
    2.7096   -0.3845    1.5148 C   0  0  0  0  0  0  0  0  0  0  0  0
    1.7216    0.0560    0.6980 O   0  0  0  0  0  0  0  0  0  0  0  0
    2.3040    0.5208   -0.4496 C   0  0  0  0  0  0  0  0  0  0  0  0
    1.4688    0.9803   -1.5496 C   0  0  0  0  0  0  0  0  0  0  0  0
    1.8452    0.8688   -2.7187 O   0  0  0  0  0  0  0  0  0  0  0  0
    0.2033    1.5228   -1.2826 N   0  0  0  0  0  0  0  0  0  0  0  0
   -0.7269    1.6214   -2.3957 C   0  0  0  0  0  0  0  0  0  0  0  0
   -2.1235    2.0728   -1.9856 C   0  0  0  0  0  0  0  0  0  0  0  0
   -2.6413    1.4408   -0.6696 C   0  0  0  0  0  0  0  0  0  0  0  0
   -3.5697    2.4177   -0.1466 O   0  0  0  0  0  0  0  0  0  0  0  0
   -3.4246    0.1308   -0.8069 C   0  0  0  0  0  0  0  0  0  0  0  0
   -3.2994   -0.7286   -1.9038 C   0  0  0  0  0  0  0  0  0  0  0  0
   -4.0056   -1.9341   -1.9668 C   0  0  0  0  0  0  0  0  0  0  0  0
   -4.8606   -2.3025   -0.9297 C   0  0  0  0  0  0  0  0  0  0  0  0
   -5.0202   -1.4654    0.1817 C   0  0  0  0  0  0  0  0  0  0  0  0
   -5.9475   -1.8302    1.3127 C   0  0  0  0  0  0  0  0  0  0  0  0
   -6.7867   -0.8121    1.6437 F   0  0  0  0  0  0  0  0  0  0  0  0
   -6.7543   -2.8954    1.0343 F   0  0  0  0  0  0  0  0  0  0  0  0
   -5.2817   -2.1513    2.4547 F   0  0  0  0  0  0  0  0  0  0  0  0
   -4.2853   -0.2688    0.2366 C   0  0  0  0  0  0  0  0  0  0  0  0
   -1.5278    1.2666    0.3910 C   0  0  0  0  0  0  0  0  0  0  0  0
   -0.2692    2.0264    0.0037 C   0  0  0  0  0  0  0  0  0  0  0  0
    3.6824    0.3419   -0.3749 C   0  0  0  0  0  0  0  0  0  0  0  0
    4.6798    0.6773   -1.4223 C   0  0  0  0  0  0  0  0  0  0  0  0
    3.9422   -0.2395    0.9043 C   0  0  0  0  0  0  0  0  0  0  0  0
    5.0867   -0.6615    1.6059 C   0  0  0  0  0  0  0  0  0  0  0  0
    6.3491   -2.7235    3.4069 H   0  0  0  0  0  0  0  0  0  0  0  0
    7.0333   -1.0806    3.3775 H   0  0  0  0  0  0  0  0  0  0  0  0
    6.0153   -1.5739    4.7244 H   0  0  0  0  0  0  0  0  0  0  0  0
    3.5597   -1.7651    4.4569 H   0  0  0  0  0  0  0  0  0  0  0  0
    1.5310   -1.0133    3.2152 H   0  0  0  0  0  0  0  0  0  0  0  0
   -0.7579    0.6480   -2.8893 H   0  0  0  0  0  0  0  0  0  0  0  0
   -0.3139    2.3265   -3.1227 H   0  0  0  0  0  0  0  0  0  0  0  0
   -2.0881    3.1635   -1.8561 H   0  0  0  0  0  0  0  0  0  0  0  0
   -2.8303    1.9260   -2.8103 H   0  0  0  0  0  0  0  0  0  0  0  0
   -4.3910    2.3367   -0.6619 H   0  0  0  0  0  0  0  0  0  0  0  0
   -2.6420   -0.4969   -2.7302 H   0  0  0  0  0  0  0  0  0  0  0  0
   -3.8751   -2.5999   -2.8158 H   0  0  0  0  0  0  0  0  0  0  0  0
   -5.4012   -3.2463   -0.9920 H   0  0  0  0  0  0  0  0  0  0  0  0
   -4.3853    0.3661    1.1185 H   0  0  0  0  0  0  0  0  0  0  0  0
   -1.8728    1.5991    1.3766 H   0  0  0  0  0  0  0  0  0  0  0  0
   -1.2545    0.2087    0.4908 H   0  0  0  0  0  0  0  0  0  0  0  0
   -0.4778    3.0978   -0.1114 H   0  0  0  0  0  0  0  0  0  0  0  0
    0.4893    1.9593    0.7843 H   0  0  0  0  0  0  0  0  0  0  0  0
    5.6485    0.9300   -0.9809 H   0  0  0  0  0  0  0  0  0  0  0  0
    4.8238   -0.1759   -2.0904 H   0  0  0  0  0  0  0  0  0  0  0  0
    4.3597    1.5345   -2.0218 H   0  0  0  0  0  0  0  0  0  0  0  0
    6.0699   -0.5636    1.1513 H   0  0  0  0  0  0  0  0  0  0  0  0
  1  2  1  0
  2  3  2  0
  3  4  1  0
  4  5  2  0
  5  6  1  0
  6  7  1  0
  7  8  1  0
  8  9  2  0
  8 10  1  0
 10 11  1  0
 11 12  1  0
 12 13  1  0
 13 14  1  0
 13 15  1  0
 15 16  2  0
 16 17  1  0
 17 18  2  0
 18 19  1  0
 19 20  1  0
 20 21  1  0
 20 22  1  0
 20 23  1  0
 19 24  2  0
 13 25  1  0
 25 26  1  0
  7 27  2  0
 27 28  1  0
 27 29  1  0
 29 30  2  0
 30  2  1  0
 29  5  1  0
 26 10  1  0
 24 15  1  0
  1 31  1  0
  1 32  1  0
  1 33  1  0
  3 34  1  0
  4 35  1  0
 11 36  1  0
 11 37  1  0
 12 38  1  0
 12 39  1  0
 14 40  1  0
 16 41  1  0
 17 42  1  0
 18 43  1  0
 24 44  1  0
 25 45  1  0
 25 46  1  0
 26 47  1  0
 26 48  1  0
 28 49  1  0
 28 50  1  0
 28 51  1  0
 30 52  1  0
M  END
$$$$
