
     RDKit          3D

 42 43  0  0  0  0  0  0  0  0999 V2000
   -4.4853   -2.3538    3.2017 C   0  0  0  0  0  0  0  0  0  0  0  0
   -4.0467   -0.8941    3.3438 C   0  0  0  0  0  0  0  0  0  0  0  0
   -5.1996    0.0566    3.0121 C   0  0  0  0  0  0  0  0  0  0  0  0
   -2.8183   -0.5965    2.5025 C   0  0  0  0  0  0  0  0  0  0  0  0
   -2.8346   -0.7099    1.1064 C   0  0  0  0  0  0  0  0  0  0  0  0
   -1.6889   -0.4301    0.3566 C   0  0  0  0  0  0  0  0  0  0  0  0
   -0.5065   -0.0323    0.9820 C   0  0  0  0  0  0  0  0  0  0  0  0
    0.5370    0.2100    0.1321 O   0  0  0  0  0  0  0  0  0  0  0  0
    1.7667    0.6232    0.7252 C   0  0  0  0  0  0  0  0  0  0  0  0
    2.8326    0.8624   -0.3448 C   0  0  0  0  0  0  0  0  0  0  0  0
    4.0240    0.9705   -0.0655 O   0  0  0  0  0  0  0  0  0  0  0  0
    2.3361    0.9804   -1.6264 N   0  0  0  0  0  0  0  0  0  0  0  0
    3.2075    1.0734   -2.7746 C   0  0  0  0  0  0  0  0  0  0  0  0
    3.7893   -0.2815   -3.1935 C   0  0  0  0  0  0  0  0  0  0  0  0
    3.8529   -0.2609   -4.7223 C   0  0  0  0  0  0  0  0  0  0  0  0
    3.4034    1.1327   -5.1428 C   0  0  0  0  0  0  0  0  0  0  0  0
    2.4820    1.5735   -4.0185 C   0  0  0  0  0  0  0  0  0  0  0  0
   -0.4794    0.0832    2.3707 C   0  0  0  0  0  0  0  0  0  0  0  0
   -1.6265   -0.1967    3.1234 C   0  0  0  0  0  0  0  0  0  0  0  0
   -3.6643   -3.0354    3.4511 H   0  0  0  0  0  0  0  0  0  0  0  0
   -4.8139   -2.5859    2.1828 H   0  0  0  0  0  0  0  0  0  0  0  0
   -5.3193   -2.5725    3.8775 H   0  0  0  0  0  0  0  0  0  0  0  0
   -3.7928   -0.7357    4.4004 H   0  0  0  0  0  0  0  0  0  0  0  0
   -4.8903    1.1017    3.1254 H   0  0  0  0  0  0  0  0  0  0  0  0
   -6.0469   -0.1168    3.6844 H   0  0  0  0  0  0  0  0  0  0  0  0
   -5.5579   -0.0759    1.9854 H   0  0  0  0  0  0  0  0  0  0  0  0
   -3.7388   -1.0176    0.5864 H   0  0  0  0  0  0  0  0  0  0  0  0
   -1.7233   -0.5252   -0.7257 H   0  0  0  0  0  0  0  0  0  0  0  0
    2.1458   -0.1637    1.3874 H   0  0  0  0  0  0  0  0  0  0  0  0
    1.6352    1.5680    1.2648 H   0  0  0  0  0  0  0  0  0  0  0  0
    1.3771    0.6690   -1.7528 H   0  0  0  0  0  0  0  0  0  0  0  0
    4.0322    1.7560   -2.5312 H   0  0  0  0  0  0  0  0  0  0  0  0
    4.7829   -0.4286   -2.7560 H   0  0  0  0  0  0  0  0  0  0  0  0
    3.1638   -1.1176   -2.8587 H   0  0  0  0  0  0  0  0  0  0  0  0
    3.1693   -1.0163   -5.1287 H   0  0  0  0  0  0  0  0  0  0  0  0
    4.8563   -0.4913   -5.0948 H   0  0  0  0  0  0  0  0  0  0  0  0
    4.2695    1.8024   -5.2051 H   0  0  0  0  0  0  0  0  0  0  0  0
    2.9047    1.1318   -6.1162 H   0  0  0  0  0  0  0  0  0  0  0  0
    1.4987    1.0977   -4.1236 H   0  0  0  0  0  0  0  0  0  0  0  0
    2.3310    2.6574   -4.0037 H   0  0  0  0  0  0  0  0  0  0  0  0
    0.4139    0.3873    2.9062 H   0  0  0  0  0  0  0  0  0  0  0  0
   -1.5783   -0.0990    4.2063 H   0  0  0  0  0  0  0  0  0  0  0  0
  1  2  1  0
  2  3  1  0
  2  4  1  0
  4  5  2  0
  5  6  1  0
  6  7  2  0
  7  8  1  0
  8  9  1  0
  9 10  1  0
 10 11  2  0
 10 12  1  0
 12 13  1  0
 13 14  1  0
 14 15  1  0
 15 16  1  0
 16 17  1  0
  7 18  1  0
 18 19  2  0
 19  4  1  0
 17 13  1  0
  1 20  1  0
  1 21  1  0
  1 22  1  0
  2 23  1  0
  3 24  1  0
  3 25  1  0
  3 26  1  0
  5 27  1  0
  6 28  1  0
  9 29  1  0
  9 30  1  0
 12 31  1  0
 13 32  1  0
 14 33  1  0
 14 34  1  0
 15 35  1  0
 15 36  1  0
 16 37  1  0
 16 38  1  0
 17 39  1  0
 17 40  1  0
 18 41  1  0
 19 42  1  0
M  END
$$$$
