
     RDKit          3D

 58 62  0  0  0  0  0  0  0  0999 V2000
   -3.6541    3.1676    0.3624 C   0  0  0  0  0  0  0  0  0  0  0  0
   -3.9421    2.4203   -0.8197 O   0  0  0  0  0  0  0  0  0  0  0  0
   -4.8695    1.4268   -0.6470 C   0  0  0  0  0  0  0  0  0  0  0  0
   -6.0367    1.6114    0.1032 C   0  0  0  0  0  0  0  0  0  0  0  0
   -6.9765    0.5849    0.2099 C   0  0  0  0  0  0  0  0  0  0  0  0
   -6.7626   -0.6251   -0.4439 C   0  0  0  0  0  0  0  0  0  0  0  0
   -5.6083   -0.8069   -1.2038 C   0  0  0  0  0  0  0  0  0  0  0  0
   -4.6474    0.2142   -1.3200 C   0  0  0  0  0  0  0  0  0  0  0  0
   -3.3944   -0.0264   -2.1388 C   0  0  0  0  0  0  0  0  0  0  0  0
   -2.4240   -0.8752   -1.4466 N   0  0  0  0  0  0  0  0  0  0  0  0
   -2.4595   -2.2494   -1.6337 C   0  0  0  0  0  0  0  0  0  0  0  0
   -3.2593   -2.8113   -2.3786 O   0  0  0  0  0  0  0  0  0  0  0  0
   -1.4623   -3.0833   -0.9035 C   0  0  0  0  0  0  0  0  0  0  0  0
   -1.4421   -4.4687   -1.1455 C   0  0  0  0  0  0  0  0  0  0  0  0
   -0.5000   -5.2782   -0.5144 C   0  0  0  0  0  0  0  0  0  0  0  0
    0.4258   -4.7073    0.3547 C   0  0  0  0  0  0  0  0  0  0  0  0
    0.4092   -3.3291    0.6092 C   0  0  0  0  0  0  0  0  0  0  0  0
   -0.5453   -2.5148   -0.0076 C   0  0  0  0  0  0  0  0  0  0  0  0
   -0.6238   -1.1209    0.1743 N   0  0  0  0  0  0  0  0  0  0  0  0
    0.0139   -0.2099    0.9937 C   0  0  0  0  0  0  0  0  0  0  0  0
    1.0080   -0.5532    2.3692 S   0  0  0  0  0  0  0  0  0  0  0  0
    2.4045    0.5582    2.0242 C   0  0  0  0  0  0  0  0  0  0  0  0
    3.2825    0.0566    0.8775 C   0  0  0  0  0  0  0  0  0  0  0  0
    3.0634   -1.0140    0.3067 O   0  0  0  0  0  0  0  0  0  0  0  0
    4.3666    0.8667    0.5126 N   0  0  0  0  0  0  0  0  0  0  0  0
    5.3479    0.2966   -0.4116 C   0  0  0  0  0  0  0  0  0  0  0  0
    6.0530    1.3554   -1.2528 C   0  0  0  0  0  0  0  0  0  0  0  0
    6.6264    2.4666   -0.3804 C   0  0  0  0  0  0  0  0  0  0  0  0
    5.5259    3.0623    0.4877 C   0  0  0  0  0  0  0  0  0  0  0  0
    4.8369    1.9892    1.3263 C   0  0  0  0  0  0  0  0  0  0  0  0
   -0.3271    1.0135    0.6599 N   0  0  0  0  0  0  0  0  0  0  0  0
   -1.2765    0.9322   -0.3198 N   0  0  0  0  0  0  0  0  0  0  0  0
   -1.4941   -0.3435   -0.5685 C   0  0  0  0  0  0  0  0  0  0  0  0
   -3.5535    2.5268    1.2450 H   0  0  0  0  0  0  0  0  0  0  0  0
   -2.6995    3.6739    0.2061 H   0  0  0  0  0  0  0  0  0  0  0  0
   -4.4203    3.9311    0.5278 H   0  0  0  0  0  0  0  0  0  0  0  0
   -6.2420    2.5569    0.5941 H   0  0  0  0  0  0  0  0  0  0  0  0
   -7.8800    0.7346    0.7926 H   0  0  0  0  0  0  0  0  0  0  0  0
   -7.4934   -1.4255   -0.3704 H   0  0  0  0  0  0  0  0  0  0  0  0
   -5.4607   -1.7565   -1.7137 H   0  0  0  0  0  0  0  0  0  0  0  0
   -2.9061    0.9134   -2.4271 H   0  0  0  0  0  0  0  0  0  0  0  0
   -3.6848   -0.4997   -3.0856 H   0  0  0  0  0  0  0  0  0  0  0  0
   -2.1534   -4.9226   -1.8377 H   0  0  0  0  0  0  0  0  0  0  0  0
   -0.4765   -6.3464   -0.7152 H   0  0  0  0  0  0  0  0  0  0  0  0
    1.1795   -5.3327    0.8290 H   0  0  0  0  0  0  0  0  0  0  0  0
    1.1852   -2.9438    1.2597 H   0  0  0  0  0  0  0  0  0  0  0  0
    2.0288    1.5614    1.8086 H   0  0  0  0  0  0  0  0  0  0  0  0
    3.0143    0.5906    2.9302 H   0  0  0  0  0  0  0  0  0  0  0  0
    4.8721   -0.4296   -1.0759 H   0  0  0  0  0  0  0  0  0  0  0  0
    6.0771   -0.2498    0.1962 H   0  0  0  0  0  0  0  0  0  0  0  0
    6.8538    0.8918   -1.8414 H   0  0  0  0  0  0  0  0  0  0  0  0
    5.3397    1.7913   -1.9664 H   0  0  0  0  0  0  0  0  0  0  0  0
    7.0723    3.2448   -1.0105 H   0  0  0  0  0  0  0  0  0  0  0  0
    7.4264    2.0673    0.2564 H   0  0  0  0  0  0  0  0  0  0  0  0
    4.7840    3.5468   -0.1574 H   0  0  0  0  0  0  0  0  0  0  0  0
    5.9414    3.8392    1.1377 H   0  0  0  0  0  0  0  0  0  0  0  0
    4.0098    2.4490    1.8688 H   0  0  0  0  0  0  0  0  0  0  0  0
    5.5277    1.5820    2.0714 H   0  0  0  0  0  0  0  0  0  0  0  0
  1  2  1  0
  2  3  1  0
  3  4  2  0
  4  5  1  0
  5  6  2  0
  6  7  1  0
  7  8  2  0
  8  9  1  0
  9 10  1  0
 10 11  1  0
 11 12  2  0
 11 13  1  0
 13 14  2  0
 14 15  1  0
 15 16  2  0
 16 17  1  0
 17 18  2  0
 18 19  1  0
 19 20  1  0
 20 21  1  0
 21 22  1  0
 22 23  1  0
 23 24  2  0
 23 25  1  0
 25 26  1  0
 26 27  1  0
 27 28  1  0
 28 29  1  0
 29 30  1  0
 20 31  2  0
 31 32  1  0
 32 33  2  0
  8  3  1  0
 33 10  1  0
 18 13  1  0
 33 19  1  0
 30 25  1  0
  1 34  1  0
  1 35  1  0
  1 36  1  0
  4 37  1  0
  5 38  1  0
  6 39  1  0
  7 40  1  0
  9 41  1  0
  9 42  1  0
 14 43  1  0
 15 44  1  0
 16 45  1  0
 17 46  1  0
 22 47  1  0
 22 48  1  0
 26 49  1  0
 26 50  1  0
 27 51  1  0
 27 52  1  0
 28 53  1  0
 28 54  1  0
 29 55  1  0
 29 56  1  0
 30 57  1  0
 30 58  1  0
M  END
$$$$
