
     RDKit          3D

 56 60  0  0  0  0  0  0  0  0999 V2000
    6.0094   -0.5430    2.3160 C   0  0  0  0  0  0  0  0  0  0  0  0
    5.5028    0.0899    1.0303 C   0  0  0  0  0  0  0  0  0  0  0  0
    4.3624   -0.6126    0.4947 N   0  0  0  0  0  0  0  0  0  0  0  0
    4.4289   -1.6630   -0.4135 C   0  0  0  0  0  0  0  0  0  0  0  0
    5.3984   -2.1565   -0.9546 O   0  0  0  0  0  0  0  0  0  0  0  0
    3.0292   -2.0977   -0.6025 C   0  0  0  0  0  0  0  0  0  0  0  0
    2.4909   -3.0861   -1.3976 C   0  0  0  0  0  0  0  0  0  0  0  0
    1.1041   -3.2579   -1.3503 C   0  0  0  0  0  0  0  0  0  0  0  0
    0.2948   -2.4499   -0.5154 C   0  0  0  0  0  0  0  0  0  0  0  0
    0.8508   -1.4271    0.3111 C   0  0  0  0  0  0  0  0  0  0  0  0
    0.2683   -0.4852    1.2129 C   0  0  0  0  0  0  0  0  0  0  0  0
   -1.4891   -0.4243    1.5273 S   0  0  0  0  0  6  0  0  0  0  0  0
   -1.6416    0.0509    2.8890 O   0  0  0  0  0  0  0  0  0  0  0  0
   -2.0945   -1.6853    1.1522 O   0  0  0  0  0  0  0  0  0  0  0  0
   -2.0406    0.7874    0.4660 N   0  0  0  0  0  0  0  0  0  0  0  0
   -2.1315    2.1405    0.8890 C   0  0  0  0  0  0  0  0  0  0  0  0
   -1.4474    3.0475    0.4307 O   0  0  0  0  0  0  0  0  0  0  0  0
   -3.1752    2.4447    1.8998 C   0  0  0  0  0  0  0  0  0  0  0  0
   -4.2570    1.6040    2.1788 C   0  0  0  0  0  0  0  0  0  0  0  0
   -5.1891    1.9845    3.1432 C   0  0  0  0  0  0  0  0  0  0  0  0
   -5.0146    3.1986    3.7883 C   0  0  0  0  0  0  0  0  0  0  0  0
   -3.9920    4.0423    3.5315 N   0  0  0  0  0  0  0  0  0  0  0  0
   -3.0962    3.6472    2.5925 C   0  0  0  0  0  0  0  0  0  0  0  0
   -1.8131    0.5590   -0.9358 C   0  0  0  0  0  0  0  0  0  0  0  0
   -2.6900   -0.2894   -1.6188 C   0  0  0  0  0  0  0  0  0  0  0  0
   -2.4737   -0.6070   -2.9647 C   0  0  0  0  0  0  0  0  0  0  0  0
   -1.3698   -0.0852   -3.6376 C   0  0  0  0  0  0  0  0  0  0  0  0
   -1.0387   -0.3177   -4.9429 O   0  0  0  0  0  0  0  0  0  0  0  0
   -1.9092   -1.1583   -5.6899 C   0  0  0  0  0  0  0  0  0  0  0  0
   -0.4886    0.7544   -2.9528 C   0  0  0  0  0  0  0  0  0  0  0  0
   -0.7030    1.0735   -1.6093 C   0  0  0  0  0  0  0  0  0  0  0  0
    1.0767    0.4421    1.9294 C   0  0  0  0  0  0  0  0  0  0  0  0
    2.4681    0.4808    1.7605 C   0  0  0  0  0  0  0  0  0  0  0  0
    3.0273   -0.4159    0.8778 C   0  0  0  0  0  0  0  0  0  0  0  0
    2.2383   -1.3153    0.2030 C   0  0  0  0  0  0  0  0  0  0  0  0
    6.2950   -1.5876    2.1530 H   0  0  0  0  0  0  0  0  0  0  0  0
    5.2408   -0.5254    3.0956 H   0  0  0  0  0  0  0  0  0  0  0  0
    6.8852   -0.0020    2.6871 H   0  0  0  0  0  0  0  0  0  0  0  0
    5.2407    1.1408    1.1916 H   0  0  0  0  0  0  0  0  0  0  0  0
    6.3040    0.0628    0.2827 H   0  0  0  0  0  0  0  0  0  0  0  0
    3.1215   -3.7000   -2.0317 H   0  0  0  0  0  0  0  0  0  0  0  0
    0.6358   -4.0248   -1.9648 H   0  0  0  0  0  0  0  0  0  0  0  0
   -0.7761   -2.6370   -0.5319 H   0  0  0  0  0  0  0  0  0  0  0  0
   -4.3919    0.6591    1.6605 H   0  0  0  0  0  0  0  0  0  0  0  0
   -6.0324    1.3472    3.3873 H   0  0  0  0  0  0  0  0  0  0  0  0
   -5.7143    3.5354    4.5485 H   0  0  0  0  0  0  0  0  0  0  0  0
   -2.2896    4.3547    2.4140 H   0  0  0  0  0  0  0  0  0  0  0  0
   -3.5474   -0.7200   -1.1060 H   0  0  0  0  0  0  0  0  0  0  0  0
   -3.1814   -1.2690   -3.4527 H   0  0  0  0  0  0  0  0  0  0  0  0
   -2.9128   -0.7258   -5.7588 H   0  0  0  0  0  0  0  0  0  0  0  0
   -1.9413   -2.1678   -5.2669 H   0  0  0  0  0  0  0  0  0  0  0  0
   -1.5093   -1.2355   -6.7056 H   0  0  0  0  0  0  0  0  0  0  0  0
    0.3775    1.1620   -3.4699 H   0  0  0  0  0  0  0  0  0  0  0  0
    0.0105    1.7221   -1.1074 H   0  0  0  0  0  0  0  0  0  0  0  0
    0.6202    1.1448    2.6264 H   0  0  0  0  0  0  0  0  0  0  0  0
    3.0695    1.1959    2.3107 H   0  0  0  0  0  0  0  0  0  0  0  0
  1  2  1  0
  2  3  1  0
  3  4  1  0
  4  5  2  0
  4  6  1  0
  6  7  2  0
  7  8  1  0
  8  9  2  0
  9 10  1  0
 10 11  2  0
 11 12  1  0
 12 13  2  0
 12 14  2  0
 12 15  1  0
 15 16  1  0
 16 17  2  0
 16 18  1  0
 18 19  2  0
 19 20  1  0
 20 21  2  0
 21 22  1  0
 22 23  2  0
 15 24  1  0
 24 25  2  0
 25 26  1  0
 26 27  2  0
 27 28  1  0
 28 29  1  0
 27 30  1  0
 30 31  2  0
 11 32  1  0
 32 33  2  0
 33 34  1  0
 34 35  2  0
 34  3  1  0
 35  6  1  0
 35 10  1  0
 23 18  1  0
 31 24  1  0
  1 36  1  0
  1 37  1  0
  1 38  1  0
  2 39  1  0
  2 40  1  0
  7 41  1  0
  8 42  1  0
  9 43  1  0
 19 44  1  0
 20 45  1  0
 21 46  1  0
 23 47  1  0
 25 48  1  0
 26 49  1  0
 29 50  1  0
 29 51  1  0
 29 52  1  0
 30 53  1  0
 31 54  1  0
 32 55  1  0
 33 56  1  0
M  END
$$$$
