
     RDKit          3D

 48 50  0  0  0  0  0  0  0  0999 V2000
   -3.9198    1.2736   -0.3759 C   0  0  0  0  0  0  0  0  0  0  0  0
   -2.6703    2.0409   -0.7648 C   0  0  0  0  0  0  0  0  0  0  0  0
   -1.5029    1.2348   -0.5358 O   0  0  0  0  0  0  0  0  0  0  0  0
   -0.9884    1.2693    0.7213 C   0  0  0  0  0  0  0  0  0  0  0  0
   -1.4073    1.9557    1.6422 O   0  0  0  0  0  0  0  0  0  0  0  0
    0.1971    0.3494    0.8316 C   0  0  0  0  0  0  0  0  0  0  0  0
    1.4028    0.9819    1.5027 C   0  0  0  0  0  0  0  0  0  0  0  0
    1.7352    2.4297    1.2288 C   0  0  0  0  0  0  0  0  0  0  0  0
    3.1057    2.6219    0.1173 S   0  0  0  0  0  6  0  0  0  0  0  0
    2.9290    3.8972   -0.5548 O   0  0  0  0  0  0  0  0  0  0  0  0
    4.3441    2.3366    0.8135 O   0  0  0  0  0  0  0  0  0  0  0  0
    2.8925    1.3633   -1.1208 C   0  0  0  0  0  0  0  0  0  0  0  0
    2.1550    1.6452   -2.2764 C   0  0  0  0  0  0  0  0  0  0  0  0
    1.9802    0.6491   -3.2361 C   0  0  0  0  0  0  0  0  0  0  0  0
    2.5438   -0.6139   -3.0433 C   0  0  0  0  0  0  0  0  0  0  0  0
    3.2975   -0.8822   -1.8973 C   0  0  0  0  0  0  0  0  0  0  0  0
    3.4847    0.1088   -0.9374 C   0  0  0  0  0  0  0  0  0  0  0  0
    2.2153    0.3178    2.2635 N   0  0  0  0  0  0  0  0  0  0  0  0
    2.0716   -1.0231    2.4820 C   0  0  0  0  0  0  0  0  0  0  0  0
    2.9171   -1.7035    3.0514 O   0  0  0  0  0  0  0  0  0  0  0  0
    0.9415   -1.6226    2.0210 N   0  0  0  0  0  0  0  0  0  0  0  0
   -0.2188   -0.8391    1.6919 C   0  0  0  0  0  0  0  0  0  0  0  0
   -1.2642   -1.7205    1.0349 C   0  0  0  0  0  0  0  0  0  0  0  0
   -2.5400   -1.8399    1.6071 C   0  0  0  0  0  0  0  0  0  0  0  0
   -3.5152   -2.6376    1.0076 C   0  0  0  0  0  0  0  0  0  0  0  0
   -3.2284   -3.3262   -0.1678 C   0  0  0  0  0  0  0  0  0  0  0  0
   -1.9649   -3.2211   -0.7450 C   0  0  0  0  0  0  0  0  0  0  0  0
   -0.9873   -2.4243   -0.1481 C   0  0  0  0  0  0  0  0  0  0  0  0
   -4.8175    1.8687   -0.5705 H   0  0  0  0  0  0  0  0  0  0  0  0
   -3.9020    1.0045    0.6857 H   0  0  0  0  0  0  0  0  0  0  0  0
   -3.9860    0.3366   -0.9412 H   0  0  0  0  0  0  0  0  0  0  0  0
   -2.6962    2.2706   -1.8356 H   0  0  0  0  0  0  0  0  0  0  0  0
   -2.6040    2.9965   -0.2308 H   0  0  0  0  0  0  0  0  0  0  0  0
    0.5153    0.0374   -0.1687 H   0  0  0  0  0  0  0  0  0  0  0  0
    2.0027    2.9309    2.1641 H   0  0  0  0  0  0  0  0  0  0  0  0
    0.8902    2.9583    0.7856 H   0  0  0  0  0  0  0  0  0  0  0  0
    1.7273    2.6310   -2.4445 H   0  0  0  0  0  0  0  0  0  0  0  0
    1.4171    0.8587   -4.1446 H   0  0  0  0  0  0  0  0  0  0  0  0
    2.4109   -1.3865   -3.7977 H   0  0  0  0  0  0  0  0  0  0  0  0
    3.7509   -1.8608   -1.7590 H   0  0  0  0  0  0  0  0  0  0  0  0
    4.0860   -0.1036   -0.0523 H   0  0  0  0  0  0  0  0  0  0  0  0
    0.8306   -2.5711    2.3589 H   0  0  0  0  0  0  0  0  0  0  0  0
   -0.6083   -0.4798    2.6558 H   0  0  0  0  0  0  0  0  0  0  0  0
   -2.7893   -1.3115    2.5252 H   0  0  0  0  0  0  0  0  0  0  0  0
   -4.5004   -2.7237    1.4595 H   0  0  0  0  0  0  0  0  0  0  0  0
   -3.9885   -3.9498   -0.6316 H   0  0  0  0  0  0  0  0  0  0  0  0
   -1.7394   -3.7641   -1.6592 H   0  0  0  0  0  0  0  0  0  0  0  0
   -0.0048   -2.3635   -0.6124 H   0  0  0  0  0  0  0  0  0  0  0  0
  1  2  1  0
  2  3  1  0
  3  4  1  0
  4  5  2  0
  4  6  1  0
  6  7  1  0
  7  8  1  0
  8  9  1  0
  9 10  2  0
  9 11  2  0
  9 12  1  0
 12 13  2  0
 13 14  1  0
 14 15  2  0
 15 16  1  0
 16 17  2  0
  7 18  2  0
 18 19  1  0
 19 20  2  0
 19 21  1  0
 21 22  1  0
 22 23  1  0
 23 24  2  0
 24 25  1  0
 25 26  2  0
 26 27  1  0
 27 28  2  0
 22  6  1  0
 28 23  1  0
 17 12  1  0
  1 29  1  0
  1 30  1  0
  1 31  1  0
  2 32  1  0
  2 33  1  0
  6 34  1  0
  8 35  1  0
  8 36  1  0
 13 37  1  0
 14 38  1  0
 15 39  1  0
 16 40  1  0
 17 41  1  0
 21 42  1  0
 22 43  1  0
 24 44  1  0
 25 45  1  0
 26 46  1  0
 27 47  1  0
 28 48  1  0
M  END
$$$$
