
     RDKit          3D

 52 55  0  0  0  0  0  0  0  0999 V2000
    7.8550   -2.4268   -0.3766 C   0  0  0  0  0  0  0  0  0  0  0  0
    6.9892   -2.5181    0.7479 O   0  0  0  0  0  0  0  0  0  0  0  0
    5.7793   -1.8903    0.6476 C   0  0  0  0  0  0  0  0  0  0  0  0
    5.3158   -1.1672   -0.4495 C   0  0  0  0  0  0  0  0  0  0  0  0
    4.0471   -0.5698   -0.4214 C   0  0  0  0  0  0  0  0  0  0  0  0
    3.2285   -0.6905    0.7018 C   0  0  0  0  0  0  0  0  0  0  0  0
    1.9472   -0.1187    0.8075 N   0  0  0  0  0  0  0  0  0  0  0  0
    1.2355    0.5625   -0.1673 C   0  0  0  0  0  0  0  0  0  0  0  0
    1.5810    0.7554   -1.3277 O   0  0  0  0  0  0  0  0  0  0  0  0
   -0.1235    1.0483    0.3683 C   0  0  0  0  0  0  0  0  0  0  0  0
   -0.8196   -0.0319    0.9878 O   0  0  0  0  0  0  0  0  0  0  0  0
   -1.3209   -0.9976    0.0626 C   0  0  0  0  0  0  0  0  0  0  0  0
   -2.1670   -1.8952    0.7794 O   0  0  0  0  0  0  0  0  0  0  0  0
   -3.4612   -1.2725    0.7467 C   0  0  0  0  0  0  0  0  0  0  0  0
   -3.7985   -0.7001    2.1182 C   0  0  0  0  0  0  0  0  0  0  0  0
   -4.4870   -2.3196    0.3272 C   0  0  0  0  0  0  0  0  0  0  0  0
   -3.4589   -0.2047   -0.2127 O   0  0  0  0  0  0  0  0  0  0  0  0
   -2.2585   -0.4081   -0.9708 C   0  0  0  0  0  0  0  0  0  0  0  0
   -1.6971    0.8483   -1.6313 C   0  0  0  0  0  0  0  0  0  0  0  0
   -2.7441    1.6704   -2.1718 O   0  0  0  0  0  0  0  0  0  0  0  0
   -2.8838    2.7724   -1.2569 C   0  0  0  0  0  0  0  0  0  0  0  0
   -2.5465    4.0596   -2.0128 C   0  0  0  0  0  0  0  0  0  0  0  0
   -4.3068    2.8505   -0.7186 C   0  0  0  0  0  0  0  0  0  0  0  0
   -1.9637    2.6049   -0.1639 O   0  0  0  0  0  0  0  0  0  0  0  0
   -0.9331    1.7673   -0.7076 C   0  0  0  0  0  0  0  0  0  0  0  0
    3.6987   -1.4135    1.8024 C   0  0  0  0  0  0  0  0  0  0  0  0
    4.9635   -2.0087    1.7728 C   0  0  0  0  0  0  0  0  0  0  0  0
    8.1344   -1.3870   -0.5762 H   0  0  0  0  0  0  0  0  0  0  0  0
    7.4058   -2.8928   -1.2599 H   0  0  0  0  0  0  0  0  0  0  0  0
    8.7704   -2.9774   -0.1392 H   0  0  0  0  0  0  0  0  0  0  0  0
    5.9125   -1.0430   -1.3472 H   0  0  0  0  0  0  0  0  0  0  0  0
    3.7343   -0.0113   -1.2980 H   0  0  0  0  0  0  0  0  0  0  0  0
    1.4466   -0.2836    1.6773 H   0  0  0  0  0  0  0  0  0  0  0  0
    0.0963    1.7674    1.1675 H   0  0  0  0  0  0  0  0  0  0  0  0
   -0.4910   -1.5567   -0.3807 H   0  0  0  0  0  0  0  0  0  0  0  0
   -4.7875   -0.2297    2.1186 H   0  0  0  0  0  0  0  0  0  0  0  0
   -3.0788    0.0736    2.4068 H   0  0  0  0  0  0  0  0  0  0  0  0
   -3.7677   -1.4754    2.8906 H   0  0  0  0  0  0  0  0  0  0  0  0
   -4.5108   -3.1574    1.0319 H   0  0  0  0  0  0  0  0  0  0  0  0
   -5.4892   -1.8853    0.2490 H   0  0  0  0  0  0  0  0  0  0  0  0
   -4.2363   -2.7331   -0.6564 H   0  0  0  0  0  0  0  0  0  0  0  0
   -2.5148   -1.1447   -1.7427 H   0  0  0  0  0  0  0  0  0  0  0  0
   -1.0424    0.5335   -2.4525 H   0  0  0  0  0  0  0  0  0  0  0  0
   -3.2417    4.2232   -2.8432 H   0  0  0  0  0  0  0  0  0  0  0  0
   -2.5708    4.9282   -1.3464 H   0  0  0  0  0  0  0  0  0  0  0  0
   -1.5416    4.0126   -2.4464 H   0  0  0  0  0  0  0  0  0  0  0  0
   -4.4353    3.7242   -0.0705 H   0  0  0  0  0  0  0  0  0  0  0  0
   -4.5542    1.9763   -0.1113 H   0  0  0  0  0  0  0  0  0  0  0  0
   -5.0373    2.8972   -1.5329 H   0  0  0  0  0  0  0  0  0  0  0  0
   -0.2797    2.4338   -1.2849 H   0  0  0  0  0  0  0  0  0  0  0  0
    3.0930   -1.5292    2.6974 H   0  0  0  0  0  0  0  0  0  0  0  0
    5.3152   -2.5699    2.6352 H   0  0  0  0  0  0  0  0  0  0  0  0
  1  2  1  0
  2  3  1  0
  3  4  2  0
  4  5  1  0
  5  6  2  0
  6  7  1  0
  7  8  1  0
  8  9  2  0
  8 10  1  0
 10 11  1  0
 11 12  1  0
 12 13  1  0
 13 14  1  0
 14 15  1  0
 14 16  1  0
 14 17  1  0
 17 18  1  0
 18 19  1  0
 19 20  1  0
 20 21  1  0
 21 22  1  0
 21 23  1  0
 21 24  1  0
 24 25  1  0
  6 26  1  0
 26 27  2  0
 27  3  1  0
 25 10  1  0
 18 12  1  0
 25 19  1  0
  1 28  1  0
  1 29  1  0
  1 30  1  0
  4 31  1  0
  5 32  1  0
  7 33  1  0
 10 34  1  0
 12 35  1  0
 15 36  1  0
 15 37  1  0
 15 38  1  0
 16 39  1  0
 16 40  1  0
 16 41  1  0
 18 42  1  0
 19 43  1  0
 22 44  1  0
 22 45  1  0
 22 46  1  0
 23 47  1  0
 23 48  1  0
 23 49  1  0
 25 50  1  0
 26 51  1  0
 27 52  1  0
M  END
$$$$
