
     RDKit          3D

 50 52  0  0  0  0  0  0  0  0999 V2000
    3.1789   -2.3968   -2.0714 O   0  0  0  0  0  0  0  0  0  0  0  0
    2.7847   -1.2521   -2.1825 C   0  0  0  0  0  0  0  0  0  0  0  0
    1.9510   -0.8803   -3.1684 O   0  0  0  0  0  0  0  0  0  0  0  0
    3.1263   -0.1267   -1.2826 C   0  0  0  0  0  0  0  0  0  0  0  0
    2.6166    1.1597   -1.4925 C   0  0  0  0  0  0  0  0  0  0  0  0
    2.9183    2.1821   -0.5911 C   0  0  0  0  0  0  0  0  0  0  0  0
    2.2912    3.4495   -0.7539 N   0  0  0  0  0  0  0  0  0  0  0  0
    1.0268    3.8644    0.2963 S   0  0  0  0  0  6  0  0  0  0  0  0
    1.5334    3.9294    1.6481 O   0  0  0  0  0  0  0  0  0  0  0  0
    0.3369    4.9790   -0.3145 O   0  0  0  0  0  0  0  0  0  0  0  0
   -0.0520    2.4532    0.1822 C   0  0  0  0  0  0  0  0  0  0  0  0
   -0.0189    1.4670    1.1697 C   0  0  0  0  0  0  0  0  0  0  0  0
   -0.8195    0.3233    1.0408 C   0  0  0  0  0  0  0  0  0  0  0  0
   -1.6827    0.1341   -0.0552 C   0  0  0  0  0  0  0  0  0  0  0  0
   -2.4624   -1.0154   -0.1583 N   0  0  0  0  0  0  0  0  0  0  0  0
   -3.9285   -0.8489   -0.2208 C   0  0  0  0  0  0  0  0  0  0  0  0
   -4.6348   -1.8518    0.6880 C   0  0  0  0  0  0  0  0  0  0  0  0
   -4.2635   -3.2970    0.3508 C   0  0  0  0  0  0  0  0  0  0  0  0
   -2.8307   -3.4329   -0.1670 C   0  0  0  0  0  0  0  0  0  0  0  0
   -1.9445   -2.2977    0.3380 C   0  0  0  0  0  0  0  0  0  0  0  0
   -1.6923    1.1719   -1.0124 C   0  0  0  0  0  0  0  0  0  0  0  0
   -2.4619    1.0339   -2.2306 N   0  0  0  0  0  4  0  0  0  0  0  0
   -3.5228    1.6720   -2.2973 O   0  0  0  0  0  0  0  0  0  0  0  0
   -1.9711    0.3454   -3.1370 O   0  0  0  0  0  1  0  0  0  0  0  0
   -0.9047    2.3290   -0.9107 C   0  0  0  0  0  0  0  0  0  0  0  0
    3.7379    1.9344    0.5086 C   0  0  0  0  0  0  0  0  0  0  0  0
    4.2706    0.6551    0.7087 C   0  0  0  0  0  0  0  0  0  0  0  0
    5.1425    0.4366    1.8873 C   0  0  0  0  0  0  0  0  0  0  0  0
    5.4265    1.2680    2.7277 O   0  0  0  0  0  0  0  0  0  0  0  0
    5.6183   -0.8179    1.9523 O   0  0  0  0  0  0  0  0  0  0  0  0
    3.9576   -0.3781   -0.1835 C   0  0  0  0  0  0  0  0  0  0  0  0
    1.7852   -1.7014   -3.6802 H   0  0  0  0  0  0  0  0  0  0  0  0
    1.9644    1.3548   -2.3404 H   0  0  0  0  0  0  0  0  0  0  0  0
    2.1186    3.7837   -1.7006 H   0  0  0  0  0  0  0  0  0  0  0  0
    0.6325    1.5674    2.0372 H   0  0  0  0  0  0  0  0  0  0  0  0
   -0.7691   -0.4163    1.8381 H   0  0  0  0  0  0  0  0  0  0  0  0
   -4.2290    0.1620    0.0839 H   0  0  0  0  0  0  0  0  0  0  0  0
   -4.2600   -0.9990   -1.2562 H   0  0  0  0  0  0  0  0  0  0  0  0
   -5.7218   -1.7238    0.6225 H   0  0  0  0  0  0  0  0  0  0  0  0
   -4.3581   -1.6457    1.7309 H   0  0  0  0  0  0  0  0  0  0  0  0
   -4.9558   -3.6996   -0.3997 H   0  0  0  0  0  0  0  0  0  0  0  0
   -4.3950   -3.9144    1.2488 H   0  0  0  0  0  0  0  0  0  0  0  0
   -2.4186   -4.4031    0.1320 H   0  0  0  0  0  0  0  0  0  0  0  0
   -2.8437   -3.4202   -1.2655 H   0  0  0  0  0  0  0  0  0  0  0  0
   -1.9137   -2.3149    1.4342 H   0  0  0  0  0  0  0  0  0  0  0  0
   -0.9239   -2.4559   -0.0348 H   0  0  0  0  0  0  0  0  0  0  0  0
   -0.9411    3.0955   -1.6830 H   0  0  0  0  0  0  0  0  0  0  0  0
    3.9644    2.7357    1.2125 H   0  0  0  0  0  0  0  0  0  0  0  0
    6.1855   -0.8166    2.7523 H   0  0  0  0  0  0  0  0  0  0  0  0
    4.3520   -1.3806   -0.0254 H   0  0  0  0  0  0  0  0  0  0  0  0
  1  2  2  0
  2  3  1  0
  2  4  1  0
  4  5  2  0
  5  6  1  0
  6  7  1  0
  7  8  1  0
  8  9  2  0
  8 10  2  0
  8 11  1  0
 11 12  2  0
 12 13  1  0
 13 14  2  0
 14 15  1  0
 15 16  1  0
 16 17  1  0
 17 18  1  0
 18 19  1  0
 19 20  1  0
 14 21  1  0
 21 22  1  0
 22 23  2  0
 22 24  1  0
 21 25  2  0
  6 26  2  0
 26 27  1  0
 27 28  1  0
 28 29  2  0
 28 30  1  0
 27 31  2  0
 31  4  1  0
 25 11  1  0
 20 15  1  0
  3 32  1  0
  5 33  1  0
  7 34  1  0
 12 35  1  0
 13 36  1  0
 16 37  1  0
 16 38  1  0
 17 39  1  0
 17 40  1  0
 18 41  1  0
 18 42  1  0
 19 43  1  0
 19 44  1  0
 20 45  1  0
 20 46  1  0
 25 47  1  0
 26 48  1  0
 30 49  1  0
 31 50  1  0
M  CHG  2  22   1  24  -1
M  END
$$$$
