
     RDKit          3D

 42 43  0  0  0  0  0  0  0  0999 V2000
   -2.6681   -0.9654    0.7823 C   0  0  0  0  0  0  0  0  0  0  0  0
   -2.9652    0.4792    0.3455 C   0  0  0  0  0  0  0  0  0  0  0  0
   -3.7093    1.1869    1.4968 C   0  0  0  0  0  0  0  0  0  0  0  0
   -3.8936    0.4487   -0.8790 C   0  0  0  0  0  0  0  0  0  0  0  0
   -1.6582    1.2719    0.0642 C   0  0  0  0  0  0  0  0  0  0  0  0
   -0.8417    0.6890   -0.9849 N   0  0  0  0  0  0  0  0  0  0  0  0
   -0.7205    1.0786   -2.2808 C   0  0  0  0  0  0  0  0  0  0  0  0
   -1.4634    2.0979   -2.7449 N   0  0  0  0  0  0  0  0  0  0  0  0
    0.1606    0.4657   -3.0208 N   0  0  0  0  0  0  0  0  0  0  0  0
    0.7088   -0.5825   -2.1075 C   0  0  0  0  0  0  0  0  0  0  0  0
    0.3155   -0.1534   -0.6756 C   0  0  0  0  0  0  0  0  0  0  0  0
    1.4443    0.6509    0.0015 C   0  0  0  0  0  0  0  0  0  0  0  0
    2.6004   -0.2134    0.4533 C   0  0  0  0  0  0  0  0  0  0  0  0
    2.4590   -1.0706    1.5544 C   0  0  0  0  0  0  0  0  0  0  0  0
    3.5241   -1.8728    1.9657 C   0  0  0  0  0  0  0  0  0  0  0  0
    4.7318   -1.8187    1.2814 C   0  0  0  0  0  0  0  0  0  0  0  0
    5.7453   -2.6198    1.7172 O   0  0  0  0  0  0  0  0  0  0  0  0
    4.8948   -0.9725    0.1900 C   0  0  0  0  0  0  0  0  0  0  0  0
    3.8288   -0.1696   -0.2219 C   0  0  0  0  0  0  0  0  0  0  0  0
   -1.9626   -0.9881    1.6202 H   0  0  0  0  0  0  0  0  0  0  0  0
   -2.2452   -1.5555   -0.0372 H   0  0  0  0  0  0  0  0  0  0  0  0
   -3.5827   -1.4758    1.1059 H   0  0  0  0  0  0  0  0  0  0  0  0
   -3.9521    2.2226    1.2335 H   0  0  0  0  0  0  0  0  0  0  0  0
   -4.6490    0.6766    1.7372 H   0  0  0  0  0  0  0  0  0  0  0  0
   -3.1005    1.2073    2.4080 H   0  0  0  0  0  0  0  0  0  0  0  0
   -3.4320   -0.0725   -1.7240 H   0  0  0  0  0  0  0  0  0  0  0  0
   -4.8296   -0.0738   -0.6494 H   0  0  0  0  0  0  0  0  0  0  0  0
   -4.1564    1.4617   -1.2019 H   0  0  0  0  0  0  0  0  0  0  0  0
   -1.0832    1.3288    0.9959 H   0  0  0  0  0  0  0  0  0  0  0  0
   -1.9039    2.3122   -0.1840 H   0  0  0  0  0  0  0  0  0  0  0  0
   -1.3482    2.1771   -3.7501 H   0  0  0  0  0  0  0  0  0  0  0  0
   -2.4399    2.0308   -2.5015 H   0  0  0  0  0  0  0  0  0  0  0  0
    0.2394   -1.5394   -2.3658 H   0  0  0  0  0  0  0  0  0  0  0  0
    1.7873   -0.6819   -2.2541 H   0  0  0  0  0  0  0  0  0  0  0  0
    0.0374   -1.0267   -0.0778 H   0  0  0  0  0  0  0  0  0  0  0  0
    1.8053    1.4433   -0.6676 H   0  0  0  0  0  0  0  0  0  0  0  0
    1.0694    1.1766    0.8877 H   0  0  0  0  0  0  0  0  0  0  0  0
    1.5211   -1.1172    2.1029 H   0  0  0  0  0  0  0  0  0  0  0  0
    3.4133   -2.5362    2.8187 H   0  0  0  0  0  0  0  0  0  0  0  0
    6.5222   -2.4666    1.1547 H   0  0  0  0  0  0  0  0  0  0  0  0
    5.8348   -0.9232   -0.3501 H   0  0  0  0  0  0  0  0  0  0  0  0
    3.9616    0.4898   -1.0779 H   0  0  0  0  0  0  0  0  0  0  0  0
  1  2  1  0
  2  3  1  0
  2  4  1  0
  2  5  1  0
  5  6  1  0
  6  7  1  0
  7  8  1  0
  7  9  2  0
  9 10  1  0
 10 11  1  0
 11 12  1  0
 12 13  1  0
 13 14  2  0
 14 15  1  0
 15 16  2  0
 16 17  1  0
 16 18  1  0
 18 19  2  0
 11  6  1  0
 19 13  1  0
  1 20  1  0
  1 21  1  0
  1 22  1  0
  3 23  1  0
  3 24  1  0
  3 25  1  0
  4 26  1  0
  4 27  1  0
  4 28  1  0
  5 29  1  0
  5 30  1  0
  8 31  1  0
  8 32  1  0
 10 33  1  0
 10 34  1  0
 11 35  1  0
 12 36  1  0
 12 37  1  0
 14 38  1  0
 15 39  1  0
 17 40  1  0
 18 41  1  0
 19 42  1  0
M  END
$$$$
