
     RDKit          3D

 43 46  0  0  0  0  0  0  0  0999 V2000
   -0.6962    1.7278    2.7529 O   0  0  0  0  0  0  0  0  0  0  0  0
   -0.7288    0.9370    1.4637 P   0  0  0  0  0  5  0  0  0  0  0  0
   -1.2502   -0.6480    1.4651 N   0  0  0  0  0  0  0  0  0  0  0  0
   -2.5651   -1.0119    1.0367 C   0  0  0  0  0  0  0  0  0  0  0  0
   -2.7203   -2.0665    0.1104 C   0  0  0  0  0  0  0  0  0  0  0  0
   -1.3402   -2.9351   -0.4773 Cl  0  0  0  0  0  0  0  0  0  0  0  0
   -3.9762   -2.4405   -0.3811 C   0  0  0  0  0  0  0  0  0  0  0  0
   -5.1155   -1.7750    0.0457 C   0  0  0  0  0  0  0  0  0  0  0  0
   -4.9962   -0.7526    0.9846 C   0  0  0  0  0  0  0  0  0  0  0  0
   -3.7404   -0.3772    1.4831 C   0  0  0  0  0  0  0  0  0  0  0  0
   -3.7422    0.8508    2.6981 Cl  0  0  0  0  0  0  0  0  0  0  0  0
   -1.1937    1.8623    0.0041 C   0  0  0  0  0  0  0  0  0  0  0  0
   -1.0202    1.3441   -1.2920 C   0  0  0  0  0  0  0  0  0  0  0  0
   -1.4115    2.0798   -2.4136 C   0  0  0  0  0  0  0  0  0  0  0  0
   -1.9948    3.3380   -2.2538 C   0  0  0  0  0  0  0  0  0  0  0  0
   -2.1860    3.8590   -0.9732 C   0  0  0  0  0  0  0  0  0  0  0  0
   -1.7866    3.1279    0.1484 C   0  0  0  0  0  0  0  0  0  0  0  0
    0.9358    0.3990    1.0446 C   0  0  0  0  0  0  0  0  0  0  0  0
    1.1898   -0.7194    0.3717 N   0  0  0  0  0  0  0  0  0  0  0  0
    2.5537   -0.8465    0.2086 C   0  0  0  0  0  0  0  0  0  0  0  0
    3.3138    0.1704    0.7526 C   0  0  0  0  0  0  0  0  0  0  0  0
    2.3127    1.3467    1.4669 S   0  0  0  0  0  0  0  0  0  0  0  0
    4.8005    0.2593    0.6919 C   0  0  0  0  0  0  0  0  0  0  0  0
    5.3972   -1.1100    0.3114 C   0  0  0  0  0  0  0  0  0  0  0  0
    4.6249   -1.7890   -0.8350 C   0  0  0  0  0  0  0  0  0  0  0  0
    3.1484   -2.0338   -0.4737 C   0  0  0  0  0  0  0  0  0  0  0  0
   -0.5793   -1.2776    1.0102 H   0  0  0  0  0  0  0  0  0  0  0  0
   -4.0652   -3.2478   -1.1022 H   0  0  0  0  0  0  0  0  0  0  0  0
   -6.0936   -2.0578   -0.3403 H   0  0  0  0  0  0  0  0  0  0  0  0
   -5.8942   -0.2499    1.3318 H   0  0  0  0  0  0  0  0  0  0  0  0
   -0.5795    0.3550   -1.4299 H   0  0  0  0  0  0  0  0  0  0  0  0
   -1.2667    1.6669   -3.4136 H   0  0  0  0  0  0  0  0  0  0  0  0
   -2.3029    3.9061   -3.1283 H   0  0  0  0  0  0  0  0  0  0  0  0
   -2.6495    4.8319   -0.8474 H   0  0  0  0  0  0  0  0  0  0  0  0
   -1.9451    3.5383    1.1475 H   0  0  0  0  0  0  0  0  0  0  0  0
    5.0859    1.0034   -0.0623 H   0  0  0  0  0  0  0  0  0  0  0  0
    5.2197    0.5793    1.6562 H   0  0  0  0  0  0  0  0  0  0  0  0
    6.4483   -0.9825    0.0362 H   0  0  0  0  0  0  0  0  0  0  0  0
    5.3736   -1.7721    1.1884 H   0  0  0  0  0  0  0  0  0  0  0  0
    5.0886   -2.7515   -1.0826 H   0  0  0  0  0  0  0  0  0  0  0  0
    4.6873   -1.1626   -1.7336 H   0  0  0  0  0  0  0  0  0  0  0  0
    2.5829   -2.2815   -1.3755 H   0  0  0  0  0  0  0  0  0  0  0  0
    3.0773   -2.8942    0.2046 H   0  0  0  0  0  0  0  0  0  0  0  0
  1  2  2  0
  2  3  1  0
  3  4  1  0
  4  5  2  0
  5  6  1  0
  5  7  1  0
  7  8  2  0
  8  9  1  0
  9 10  2  0
 10 11  1  0
  2 12  1  0
 12 13  2  0
 13 14  1  0
 14 15  2  0
 15 16  1  0
 16 17  2  0
  2 18  1  0
 18 19  2  0
 19 20  1  0
 20 21  2  0
 21 22  1  0
 21 23  1  0
 23 24  1  0
 24 25  1  0
 25 26  1  0
 10  4  1  0
 17 12  1  0
 22 18  1  0
 26 20  1  0
  3 27  1  0
  7 28  1  0
  8 29  1  0
  9 30  1  0
 13 31  1  0
 14 32  1  0
 15 33  1  0
 16 34  1  0
 17 35  1  0
 23 36  1  0
 23 37  1  0
 24 38  1  0
 24 39  1  0
 25 40  1  0
 25 41  1  0
 26 42  1  0
 26 43  1  0
M  END
$$$$
