
     RDKit          3D

 57 60  0  0  0  0  0  0  0  0999 V2000
   -4.4983   -1.9869    2.6253 C   0  0  0  0  0  0  0  0  0  0  0  0
   -4.0229   -1.3187    1.4537 O   0  0  0  0  0  0  0  0  0  0  0  0
   -2.7807   -1.7693    1.1048 C   0  0  0  0  0  0  0  0  0  0  0  0
   -2.6810   -3.0065    0.4558 C   0  0  0  0  0  0  0  0  0  0  0  0
   -1.4442   -3.4645   -0.0041 C   0  0  0  0  0  0  0  0  0  0  0  0
   -0.3056   -2.6741    0.1688 C   0  0  0  0  0  0  0  0  0  0  0  0
    0.9960   -3.1673   -0.3326 C   0  0  0  0  0  0  0  0  0  0  0  0
    1.3460   -4.2937    0.0087 O   0  0  0  0  0  0  0  0  0  0  0  0
    1.7514   -2.3401   -1.1553 N   0  0  0  0  0  0  0  0  0  0  0  0
    1.2008   -1.1953   -1.9045 C   0  0  0  0  0  0  0  0  0  0  0  0
    2.2085   -0.5660   -2.8873 C   0  0  0  0  0  0  0  0  0  0  0  0
    3.5314   -0.3924   -2.2467 N   0  0  0  0  0  0  0  0  0  0  0  0
    3.5489    0.7259   -1.3883 C   0  0  0  0  0  0  0  0  0  0  0  0
    3.4016    0.6436    0.0054 C   0  0  0  0  0  0  0  0  0  0  0  0
    3.3732    1.7947    0.8004 C   0  0  0  0  0  0  0  0  0  0  0  0
    3.4992    3.0516    0.2148 C   0  0  0  0  0  0  0  0  0  0  0  0
    3.6492    3.1577   -1.1650 C   0  0  0  0  0  0  0  0  0  0  0  0
    3.6669    2.0047   -1.9555 C   0  0  0  0  0  0  0  0  0  0  0  0
    4.1088   -1.6598   -1.7291 C   0  0  0  0  0  0  0  0  0  0  0  0
    3.0777   -2.7980   -1.5751 C   0  0  0  0  0  0  0  0  0  0  0  0
   -0.3936   -1.4514    0.8409 C   0  0  0  0  0  0  0  0  0  0  0  0
   -1.6405   -0.9815    1.2765 C   0  0  0  0  0  0  0  0  0  0  0  0
   -1.6922    0.6101    2.0609 S   0  0  0  0  0  6  0  0  0  0  0  0
   -0.3467    0.9085    2.5173 O   0  0  0  0  0  0  0  0  0  0  0  0
   -2.7975    0.6734    2.9911 O   0  0  0  0  0  0  0  0  0  0  0  0
   -2.0112    1.6482    0.7572 N   0  0  0  0  0  0  0  0  0  0  0  0
   -1.7652    3.0935    1.0103 C   0  0  0  0  0  0  0  0  0  0  0  0
   -2.9453    3.8267    0.3838 C   0  0  0  0  0  0  0  0  0  0  0  0
   -3.4747    2.8468   -0.6411 C   0  0  0  0  0  0  0  0  0  0  0  0
   -3.3194    1.5173    0.0751 C   0  0  0  0  0  0  0  0  0  0  0  0
   -4.8235   -3.0061    2.3832 H   0  0  0  0  0  0  0  0  0  0  0  0
   -3.7424   -2.0079    3.4195 H   0  0  0  0  0  0  0  0  0  0  0  0
   -5.3651   -1.4297    2.9966 H   0  0  0  0  0  0  0  0  0  0  0  0
   -3.5704   -3.6107    0.2907 H   0  0  0  0  0  0  0  0  0  0  0  0
   -1.3691   -4.4295   -0.4985 H   0  0  0  0  0  0  0  0  0  0  0  0
    0.3008   -1.5224   -2.4338 H   0  0  0  0  0  0  0  0  0  0  0  0
    0.9043   -0.4321   -1.1787 H   0  0  0  0  0  0  0  0  0  0  0  0
    1.8155    0.3798   -3.2796 H   0  0  0  0  0  0  0  0  0  0  0  0
    2.3394   -1.2235   -3.7549 H   0  0  0  0  0  0  0  0  0  0  0  0
    3.2704   -0.3171    0.4973 H   0  0  0  0  0  0  0  0  0  0  0  0
    3.2410    1.7042    1.8769 H   0  0  0  0  0  0  0  0  0  0  0  0
    3.4761    3.9447    0.8335 H   0  0  0  0  0  0  0  0  0  0  0  0
    3.7525    4.1354   -1.6299 H   0  0  0  0  0  0  0  0  0  0  0  0
    3.7872    2.1016   -3.0330 H   0  0  0  0  0  0  0  0  0  0  0  0
    4.8721   -1.9933   -2.4411 H   0  0  0  0  0  0  0  0  0  0  0  0
    4.6451   -1.5133   -0.7860 H   0  0  0  0  0  0  0  0  0  0  0  0
    2.9412   -3.3037   -2.5385 H   0  0  0  0  0  0  0  0  0  0  0  0
    3.4708   -3.5469   -0.8818 H   0  0  0  0  0  0  0  0  0  0  0  0
    0.5074   -0.8664    1.0174 H   0  0  0  0  0  0  0  0  0  0  0  0
   -0.8272    3.3732    0.5221 H   0  0  0  0  0  0  0  0  0  0  0  0
   -1.6864    3.3312    2.0764 H   0  0  0  0  0  0  0  0  0  0  0  0
   -3.7154    4.0211    1.1434 H   0  0  0  0  0  0  0  0  0  0  0  0
   -2.6568    4.7850   -0.0550 H   0  0  0  0  0  0  0  0  0  0  0  0
   -2.8501    2.8696   -1.5397 H   0  0  0  0  0  0  0  0  0  0  0  0
   -4.5094    3.0471   -0.9329 H   0  0  0  0  0  0  0  0  0  0  0  0
   -4.1281    1.3836    0.8009 H   0  0  0  0  0  0  0  0  0  0  0  0
   -3.3206    0.6892   -0.6399 H   0  0  0  0  0  0  0  0  0  0  0  0
  1  2  1  0
  2  3  1  0
  3  4  2  0
  4  5  1  0
  5  6  2  0
  6  7  1  0
  7  8  2  0
  7  9  1  0
  9 10  1  0
 10 11  1  0
 11 12  1  0
 12 13  1  0
 13 14  2  0
 14 15  1  0
 15 16  2  0
 16 17  1  0
 17 18  2  0
 12 19  1  0
 19 20  1  0
  6 21  1  0
 21 22  2  0
 22 23  1  0
 23 24  2  0
 23 25  2  0
 23 26  1  0
 26 27  1  0
 27 28  1  0
 28 29  1  0
 29 30  1  0
 22  3  1  0
 30 26  1  0
 20  9  1  0
 18 13  1  0
  1 31  1  0
  1 32  1  0
  1 33  1  0
  4 34  1  0
  5 35  1  0
 10 36  1  0
 10 37  1  0
 11 38  1  0
 11 39  1  0
 14 40  1  0
 15 41  1  0
 16 42  1  0
 17 43  1  0
 18 44  1  0
 19 45  1  0
 19 46  1  0
 20 47  1  0
 20 48  1  0
 21 49  1  0
 27 50  1  0
 27 51  1  0
 28 52  1  0
 28 53  1  0
 29 54  1  0
 29 55  1  0
 30 56  1  0
 30 57  1  0
M  END
$$$$
