
     RDKit          3D

 46 48  0  0  0  0  0  0  0  0999 V2000
   -0.4508   -1.3392   -1.5575 O   0  0  0  0  0  0  0  0  0  0  0  0
   -0.4683   -0.5255   -0.6415 C   0  0  0  0  0  0  0  0  0  0  0  0
    0.7822   -0.1570    0.1396 C   0  0  0  0  0  0  0  0  0  0  0  0
    2.0361   -0.7762   -0.4828 C   0  0  0  0  0  0  0  0  0  0  0  0
    3.2846   -0.3476    0.1856 N   0  0  0  0  0  0  0  0  0  0  0  0
    3.3427   -0.8206    1.5805 C   0  0  0  0  0  0  0  0  0  0  0  0
    4.7167   -0.7973    2.2604 C   0  0  0  0  0  0  0  0  0  0  0  0
    5.4499    0.5384    2.1848 C   0  0  0  0  0  0  0  0  0  0  0  0
    5.6020    1.1282    0.7829 C   0  0  0  0  0  0  0  0  0  0  0  0
    5.7195    0.0890   -0.3334 C   0  0  0  0  0  0  0  0  0  0  0  0
    4.4566   -0.7554   -0.6016 C   0  0  0  0  0  0  0  0  0  0  0  0
   -1.5796    0.1509   -0.1611 N   0  0  0  0  0  0  0  0  0  0  0  0
   -2.9100    0.0604   -0.6213 C   0  0  0  0  0  0  0  0  0  0  0  0
   -3.3193   -0.7619   -1.6744 C   0  0  0  0  0  0  0  0  0  0  0  0
   -4.6626   -0.8004   -2.0667 C   0  0  0  0  0  0  0  0  0  0  0  0
   -5.6049   -0.0192   -1.4063 C   0  0  0  0  0  0  0  0  0  0  0  0
   -5.2010    0.8260   -0.3714 C   0  0  0  0  0  0  0  0  0  0  0  0
   -3.8642    0.8546    0.0288 C   0  0  0  0  0  0  0  0  0  0  0  0
   -6.0636    1.6514    0.3052 O   0  0  0  0  0  0  0  0  0  0  0  0
   -7.3040    1.7956   -0.3975 C   0  0  0  0  0  0  0  0  0  0  0  0
   -7.8099    0.4452   -0.8774 C   0  0  0  0  0  0  0  0  0  0  0  0
   -6.9043   -0.1243   -1.8294 O   0  0  0  0  0  0  0  0  0  0  0  0
    0.8755    0.9358    0.1541 H   0  0  0  0  0  0  0  0  0  0  0  0
    0.6405   -0.5092    1.1675 H   0  0  0  0  0  0  0  0  0  0  0  0
    1.9596   -1.8717   -0.4906 H   0  0  0  0  0  0  0  0  0  0  0  0
    2.0681   -0.4581   -1.5335 H   0  0  0  0  0  0  0  0  0  0  0  0
    2.9722   -1.8524    1.6445 H   0  0  0  0  0  0  0  0  0  0  0  0
    2.6677   -0.2011    2.1830 H   0  0  0  0  0  0  0  0  0  0  0  0
    4.5845   -1.0605    3.3177 H   0  0  0  0  0  0  0  0  0  0  0  0
    5.3521   -1.5883    1.8429 H   0  0  0  0  0  0  0  0  0  0  0  0
    4.9475    1.2737    2.8251 H   0  0  0  0  0  0  0  0  0  0  0  0
    6.4495    0.3962    2.6151 H   0  0  0  0  0  0  0  0  0  0  0  0
    6.4944    1.7667    0.7720 H   0  0  0  0  0  0  0  0  0  0  0  0
    4.7610    1.8011    0.5728 H   0  0  0  0  0  0  0  0  0  0  0  0
    6.5644   -0.5789   -0.1248 H   0  0  0  0  0  0  0  0  0  0  0  0
    5.9753    0.6238   -1.2574 H   0  0  0  0  0  0  0  0  0  0  0  0
    4.6730   -1.8228   -0.4618 H   0  0  0  0  0  0  0  0  0  0  0  0
    4.2439   -0.6453   -1.6736 H   0  0  0  0  0  0  0  0  0  0  0  0
   -1.4214    0.7913    0.6074 H   0  0  0  0  0  0  0  0  0  0  0  0
   -2.6191   -1.3924   -2.2135 H   0  0  0  0  0  0  0  0  0  0  0  0
   -4.9687   -1.4505   -2.8818 H   0  0  0  0  0  0  0  0  0  0  0  0
   -3.5821    1.5126    0.8457 H   0  0  0  0  0  0  0  0  0  0  0  0
   -8.0247    2.2465    0.2919 H   0  0  0  0  0  0  0  0  0  0  0  0
   -7.1518    2.4883   -1.2345 H   0  0  0  0  0  0  0  0  0  0  0  0
   -7.9282   -0.2587   -0.0442 H   0  0  0  0  0  0  0  0  0  0  0  0
   -8.7810    0.5578   -1.3695 H   0  0  0  0  0  0  0  0  0  0  0  0
  1  2  2  0
  2  3  1  0
  3  4  1  0
  4  5  1  0
  5  6  1  0
  6  7  1  0
  7  8  1  0
  8  9  1  0
  9 10  1  0
 10 11  1  0
  2 12  1  0
 12 13  1  0
 13 14  2  0
 14 15  1  0
 15 16  2  0
 16 17  1  0
 17 18  2  0
 17 19  1  0
 19 20  1  0
 20 21  1  0
 21 22  1  0
 11  5  1  0
 18 13  1  0
 22 16  1  0
  3 23  1  0
  3 24  1  0
  4 25  1  0
  4 26  1  0
  6 27  1  0
  6 28  1  0
  7 29  1  0
  7 30  1  0
  8 31  1  0
  8 32  1  0
  9 33  1  0
  9 34  1  0
 10 35  1  0
 10 36  1  0
 11 37  1  0
 11 38  1  0
 12 39  1  0
 14 40  1  0
 15 41  1  0
 18 42  1  0
 20 43  1  0
 20 44  1  0
 21 45  1  0
 21 46  1  0
M  END
$$$$
