
     RDKit          3D

 57 61  0  0  0  0  0  0  0  0999 V2000
   -5.9273    2.8390    1.2503 C   0  0  0  0  0  0  0  0  0  0  0  0
   -5.6542    1.9137    2.3628 N   0  0  0  0  0  0  0  0  0  0  0  0
   -4.5475    2.3525    3.2306 C   0  0  0  0  0  0  0  0  0  0  0  0
   -5.7766    0.2517    2.0255 S   0  0  0  0  0  6  0  0  0  0  0  0
   -6.9749    0.0434    1.2395 O   0  0  0  0  0  0  0  0  0  0  0  0
   -5.5476   -0.4921    3.2442 O   0  0  0  0  0  0  0  0  0  0  0  0
   -4.3860   -0.0481    0.9517 C   0  0  0  0  0  0  0  0  0  0  0  0
   -4.5792   -0.1500   -0.4229 C   0  0  0  0  0  0  0  0  0  0  0  0
   -3.4868   -0.4058   -1.2564 C   0  0  0  0  0  0  0  0  0  0  0  0
   -2.1820   -0.5563   -0.7466 C   0  0  0  0  0  0  0  0  0  0  0  0
   -1.1023   -0.8548   -1.5899 N   0  0  0  0  0  0  0  0  0  0  0  0
   -1.0230   -0.2675   -2.9338 C   0  0  0  0  0  0  0  0  0  0  0  0
    0.0799   -1.0926   -3.5827 C   0  0  0  0  0  0  0  0  0  0  0  0
   -0.2349   -2.4984   -3.1004 C   0  0  0  0  0  0  0  0  0  0  0  0
   -0.8122   -2.3062   -1.6947 C   0  0  0  0  0  0  0  0  0  0  0  0
   -2.0067   -0.4480    0.6605 C   0  0  0  0  0  0  0  0  0  0  0  0
   -0.6675   -0.4958    1.3472 C   0  0  0  0  0  0  0  0  0  0  0  0
   -0.6419   -0.6942    2.5567 O   0  0  0  0  0  0  0  0  0  0  0  0
    0.4127   -0.2665    0.5336 N   0  0  0  0  0  0  0  0  0  0  0  0
    1.7379   -0.2316    0.8732 C   0  0  0  0  0  0  0  0  0  0  0  0
    2.6658   -0.0834   -0.0412 N   0  0  0  0  0  0  0  0  0  0  0  0
    3.9249   -0.0715    0.5564 C   0  0  0  0  0  0  0  0  0  0  0  0
    3.9106   -0.2128    1.9452 C   0  0  0  0  0  0  0  0  0  0  0  0
    5.0882   -0.2245    2.7089 C   0  0  0  0  0  0  0  0  0  0  0  0
    6.3141   -0.0881    2.0479 C   0  0  0  0  0  0  0  0  0  0  0  0
    6.3794    0.0535    0.6581 C   0  0  0  0  0  0  0  0  0  0  0  0
    7.6054    0.1828   -0.0122 C   0  0  0  0  0  0  0  0  0  0  0  0
    7.6478    0.3142   -1.4020 C   0  0  0  0  0  0  0  0  0  0  0  0
    6.4676    0.3237   -2.1437 C   0  0  0  0  0  0  0  0  0  0  0  0
    5.2377    0.2024   -1.4994 C   0  0  0  0  0  0  0  0  0  0  0  0
    5.1832    0.0637   -0.0998 C   0  0  0  0  0  0  0  0  0  0  0  0
    2.2812   -0.3569    2.4773 S   0  0  0  0  0  0  0  0  0  0  0  0
   -3.1150   -0.2238    1.4978 C   0  0  0  0  0  0  0  0  0  0  0  0
   -6.8618    2.5769    0.7441 H   0  0  0  0  0  0  0  0  0  0  0  0
   -5.1047    2.8406    0.5295 H   0  0  0  0  0  0  0  0  0  0  0  0
   -6.0510    3.8572    1.6352 H   0  0  0  0  0  0  0  0  0  0  0  0
   -4.7960    3.3204    3.6749 H   0  0  0  0  0  0  0  0  0  0  0  0
   -4.3858    1.6573    4.0571 H   0  0  0  0  0  0  0  0  0  0  0  0
   -3.6216    2.4637    2.6631 H   0  0  0  0  0  0  0  0  0  0  0  0
   -5.5736   -0.0530   -0.8562 H   0  0  0  0  0  0  0  0  0  0  0  0
   -3.6884   -0.5222   -2.3197 H   0  0  0  0  0  0  0  0  0  0  0  0
   -0.7666    0.7951   -2.8925 H   0  0  0  0  0  0  0  0  0  0  0  0
   -1.9450   -0.3959   -3.5095 H   0  0  0  0  0  0  0  0  0  0  0  0
    0.0822   -1.0111   -4.6734 H   0  0  0  0  0  0  0  0  0  0  0  0
    1.0654   -0.7817   -3.2091 H   0  0  0  0  0  0  0  0  0  0  0  0
   -0.9846   -2.9615   -3.7513 H   0  0  0  0  0  0  0  0  0  0  0  0
    0.6474   -3.1428   -3.0973 H   0  0  0  0  0  0  0  0  0  0  0  0
   -0.0815   -2.5991   -0.9340 H   0  0  0  0  0  0  0  0  0  0  0  0
   -1.7088   -2.9270   -1.5708 H   0  0  0  0  0  0  0  0  0  0  0  0
    0.2328   -0.1946   -0.4656 H   0  0  0  0  0  0  0  0  0  0  0  0
    5.0500   -0.3377    3.7883 H   0  0  0  0  0  0  0  0  0  0  0  0
    7.2275   -0.0993    2.6404 H   0  0  0  0  0  0  0  0  0  0  0  0
    8.5414    0.1771    0.5427 H   0  0  0  0  0  0  0  0  0  0  0  0
    8.6057    0.4060   -1.9065 H   0  0  0  0  0  0  0  0  0  0  0  0
    6.5052    0.4223   -3.2243 H   0  0  0  0  0  0  0  0  0  0  0  0
    4.3203    0.2106   -2.0836 H   0  0  0  0  0  0  0  0  0  0  0  0
   -2.9794   -0.1727    2.5769 H   0  0  0  0  0  0  0  0  0  0  0  0
  1  2  1  0
  2  3  1  0
  2  4  1  0
  4  5  2  0
  4  6  2  0
  4  7  1  0
  7  8  2  0
  8  9  1  0
  9 10  2  0
 10 11  1  0
 11 12  1  0
 12 13  1  0
 13 14  1  0
 14 15  1  0
 10 16  1  0
 16 17  1  0
 17 18  2  0
 17 19  1  0
 19 20  1  0
 20 21  2  0
 21 22  1  0
 22 23  2  0
 23 24  1  0
 24 25  2  0
 25 26  1  0
 26 27  2  0
 27 28  1  0
 28 29  2  0
 29 30  1  0
 30 31  2  0
 23 32  1  0
 16 33  2  0
 33  7  1  0
 15 11  1  0
 32 20  1  0
 31 22  1  0
 31 26  1  0
  1 34  1  0
  1 35  1  0
  1 36  1  0
  3 37  1  0
  3 38  1  0
  3 39  1  0
  8 40  1  0
  9 41  1  0
 12 42  1  0
 12 43  1  0
 13 44  1  0
 13 45  1  0
 14 46  1  0
 14 47  1  0
 15 48  1  0
 15 49  1  0
 19 50  1  0
 24 51  1  0
 25 52  1  0
 27 53  1  0
 28 54  1  0
 29 55  1  0
 30 56  1  0
 33 57  1  0
M  END
$$$$
