
     RDKit          3D

 36 39  0  0  0  0  0  0  0  0999 V2000
   -1.5273    3.0262    0.5842 C   0  0  0  0  0  0  0  0  0  0  0  0
   -0.7981    1.7544    0.3442 C   0  0  0  0  0  0  0  0  0  0  0  0
    0.5333    1.7279    0.4591 N   0  0  0  0  0  0  0  0  0  0  0  0
    0.8882    0.4542    0.1600 N   0  0  0  0  0  0  0  0  0  0  0  0
    2.1850   -0.0819    0.1380 C   0  0  0  0  0  0  0  0  0  0  0  0
    2.3468   -1.3756   -0.1973 C   0  0  0  0  0  0  0  0  0  0  0  0
    1.1057   -2.1335   -0.5075 C   0  0  0  0  0  0  0  0  0  0  0  0
   -0.1036   -1.6584   -0.4905 N   0  0  0  0  0  0  0  0  0  0  0  0
   -0.2270   -0.3349   -0.1520 C   0  0  0  0  0  0  0  0  0  0  0  0
   -1.3296    0.4911   -0.0215 C   0  0  0  0  0  0  0  0  0  0  0  0
   -2.7051    0.0717   -0.2336 C   0  0  0  0  0  0  0  0  0  0  0  0
   -3.6923    0.3855    0.7101 C   0  0  0  0  0  0  0  0  0  0  0  0
   -5.0195    0.0009    0.5025 C   0  0  0  0  0  0  0  0  0  0  0  0
   -5.3709   -0.7010   -0.6490 C   0  0  0  0  0  0  0  0  0  0  0  0
   -4.3963   -1.0224   -1.5917 C   0  0  0  0  0  0  0  0  0  0  0  0
   -3.0692   -0.6383   -1.3849 C   0  0  0  0  0  0  0  0  0  0  0  0
    3.6940   -1.9827   -0.2827 C   0  0  0  0  0  0  0  0  0  0  0  0
    3.8224   -3.1665   -0.5861 O   0  0  0  0  0  0  0  0  0  0  0  0
    4.8918   -1.0852   -0.0628 C   0  0  0  0  0  0  0  0  0  0  0  0
    4.5717    0.0253    0.9265 C   0  0  0  0  0  0  0  0  0  0  0  0
    3.3344    0.8179    0.5054 C   0  0  0  0  0  0  0  0  0  0  0  0
   -2.3456    3.1493   -0.1323 H   0  0  0  0  0  0  0  0  0  0  0  0
   -1.9447    3.0394    1.5958 H   0  0  0  0  0  0  0  0  0  0  0  0
   -0.8636    3.8911    0.4793 H   0  0  0  0  0  0  0  0  0  0  0  0
    1.2478   -3.1941   -0.7762 H   0  0  0  0  0  0  0  0  0  0  0  0
   -3.4367    0.9168    1.6233 H   0  0  0  0  0  0  0  0  0  0  0  0
   -5.7771    0.2440    1.2428 H   0  0  0  0  0  0  0  0  0  0  0  0
   -6.4025   -1.0035   -0.8090 H   0  0  0  0  0  0  0  0  0  0  0  0
   -4.6655   -1.5761   -2.4873 H   0  0  0  0  0  0  0  0  0  0  0  0
   -2.3203   -0.9007   -2.1290 H   0  0  0  0  0  0  0  0  0  0  0  0
    5.7157   -1.6916    0.3284 H   0  0  0  0  0  0  0  0  0  0  0  0
    5.1939   -0.6723   -1.0315 H   0  0  0  0  0  0  0  0  0  0  0  0
    4.3972   -0.4126    1.9183 H   0  0  0  0  0  0  0  0  0  0  0  0
    5.4298    0.7001    1.0232 H   0  0  0  0  0  0  0  0  0  0  0  0
    3.0614    1.4785    1.3370 H   0  0  0  0  0  0  0  0  0  0  0  0
    3.5756    1.4568   -0.3531 H   0  0  0  0  0  0  0  0  0  0  0  0
  1  2  1  0
  2  3  2  0
  3  4  1  0
  4  5  1  0
  5  6  2  0
  6  7  1  0
  7  8  2  0
  8  9  1  0
  9 10  2  0
 10 11  1  0
 11 12  2  0
 12 13  1  0
 13 14  2  0
 14 15  1  0
 15 16  2  0
  6 17  1  0
 17 18  2  0
 17 19  1  0
 19 20  1  0
 20 21  1  0
 10  2  1  0
 16 11  1  0
  9  4  1  0
 21  5  1  0
  1 22  1  0
  1 23  1  0
  1 24  1  0
  7 25  1  0
 12 26  1  0
 13 27  1  0
 14 28  1  0
 15 29  1  0
 16 30  1  0
 19 31  1  0
 19 32  1  0
 20 33  1  0
 20 34  1  0
 21 35  1  0
 21 36  1  0
M  END
$$$$
