
     RDKit          3D

 45 48  0  0  0  0  0  0  0  0999 V2000
   -4.2598   -3.4831    2.1410 C   0  0  0  0  0  0  0  0  0  0  0  0
   -4.4810   -1.9829    2.0919 C   0  0  0  0  0  0  0  0  0  0  0  0
   -3.4167   -1.3517    1.3650 O   0  0  0  0  0  0  0  0  0  0  0  0
   -2.3188   -1.0213    2.0934 C   0  0  0  0  0  0  0  0  0  0  0  0
   -2.1501   -1.2511    3.2818 O   0  0  0  0  0  0  0  0  0  0  0  0
   -1.3145   -0.3845    1.2092 C   0  0  0  0  0  0  0  0  0  0  0  0
   -1.8699    0.6841    0.3450 C   0  0  0  0  0  0  0  0  0  0  0  0
   -2.5704    1.5979    0.7561 O   0  0  0  0  0  0  0  0  0  0  0  0
   -1.6147    0.3922   -0.9601 O   0  0  0  0  0  0  0  0  0  0  0  0
   -2.2775    1.2208   -1.9258 C   0  0  0  0  0  0  0  0  0  0  0  0
   -1.4454    2.4475   -2.2450 C   0  0  0  0  0  0  0  0  0  0  0  0
   -0.0304   -0.8350    1.1675 C   0  0  0  0  0  0  0  0  0  0  0  0
    0.3193   -2.1762    1.7719 C   0  0  0  0  0  0  0  0  0  0  0  0
    1.4224   -2.8829    1.4148 C   0  0  0  0  0  0  0  0  0  0  0  0
    1.7749   -4.5716    2.1312 Br  0  0  0  0  0  0  0  0  0  0  0  0
    2.3588   -2.3174    0.4874 C   0  0  0  0  0  0  0  0  0  0  0  0
    3.5019   -2.7788   -0.0332 N   0  0  0  0  0  0  0  0  0  0  0  0
    4.0351   -1.7022   -0.7575 O   0  0  0  0  0  0  0  0  0  0  0  0
    3.2112   -0.6164   -0.6380 C   0  0  0  0  0  0  0  0  0  0  0  0
    3.3865    0.6889   -1.1139 C   0  0  0  0  0  0  0  0  0  0  0  0
    4.5132    1.0366   -1.8817 C   0  0  0  0  0  0  0  0  0  0  0  0
    4.6627    2.3496   -2.3154 C   0  0  0  0  0  0  0  0  0  0  0  0
    3.7011    3.3035   -1.9875 C   0  0  0  0  0  0  0  0  0  0  0  0
    2.5839    2.9550   -1.2159 C   0  0  0  0  0  0  0  0  0  0  0  0
    2.3920    1.6366   -0.7455 C   0  0  0  0  0  0  0  0  0  0  0  0
    1.2817    1.2132    0.0517 C   0  0  0  0  0  0  0  0  0  0  0  0
    0.4173    2.1403    0.5767 O   0  0  0  0  0  0  0  0  0  0  0  0
    1.0588   -0.1324    0.3961 C   0  0  0  0  0  0  0  0  0  0  0  0
    2.1112   -0.9956    0.0836 C   0  0  0  0  0  0  0  0  0  0  0  0
   -5.0935   -3.9819    2.6431 H   0  0  0  0  0  0  0  0  0  0  0  0
   -4.1615   -3.8903    1.1293 H   0  0  0  0  0  0  0  0  0  0  0  0
   -3.3348   -3.7270    2.6731 H   0  0  0  0  0  0  0  0  0  0  0  0
   -4.5829   -1.5589    3.0975 H   0  0  0  0  0  0  0  0  0  0  0  0
   -5.4094   -1.7644    1.5544 H   0  0  0  0  0  0  0  0  0  0  0  0
   -3.2834    1.4976   -1.5896 H   0  0  0  0  0  0  0  0  0  0  0  0
   -2.3993    0.6167   -2.8308 H   0  0  0  0  0  0  0  0  0  0  0  0
   -0.4419    2.1583   -2.5726 H   0  0  0  0  0  0  0  0  0  0  0  0
   -1.3271    3.0825   -1.3620 H   0  0  0  0  0  0  0  0  0  0  0  0
   -1.9163    3.0390   -3.0353 H   0  0  0  0  0  0  0  0  0  0  0  0
   -0.3694   -2.6292    2.4798 H   0  0  0  0  0  0  0  0  0  0  0  0
    5.2656    0.2945   -2.1392 H   0  0  0  0  0  0  0  0  0  0  0  0
    5.5267    2.6302   -2.9130 H   0  0  0  0  0  0  0  0  0  0  0  0
    3.8161    4.3267   -2.3391 H   0  0  0  0  0  0  0  0  0  0  0  0
    1.8505    3.7327   -1.0164 H   0  0  0  0  0  0  0  0  0  0  0  0
    0.8776    2.9900    0.6760 H   0  0  0  0  0  0  0  0  0  0  0  0
  1  2  1  0
  2  3  1  0
  3  4  1  0
  4  5  2  0
  4  6  1  0
  6  7  1  0
  7  8  2  0
  7  9  1  0
  9 10  1  0
 10 11  1  0
  6 12  2  3
 12 13  1  0
 13 14  2  0
 14 15  1  0
 14 16  1  0
 16 17  2  0
 17 18  1  0
 18 19  1  0
 19 20  1  0
 20 21  2  0
 21 22  1  0
 22 23  2  0
 23 24  1  0
 24 25  2  0
 25 26  1  0
 26 27  1  0
 26 28  2  0
 28 29  1  0
 28 12  1  0
 29 16  1  0
 29 19  2  0
 25 20  1  0
  1 30  1  0
  1 31  1  0
  1 32  1  0
  2 33  1  0
  2 34  1  0
 10 35  1  0
 10 36  1  0
 11 37  1  0
 11 38  1  0
 11 39  1  0
 13 40  1  0
 21 41  1  0
 22 42  1  0
 23 43  1  0
 24 44  1  0
 27 45  1  0
M  END
$$$$
