
     RDKit          3D

 54 56  0  0  0  0  0  0  0  0999 V2000
   -6.4275    1.2919    1.7038 C   0  0  0  0  0  0  0  0  0  0  0  0
   -5.9525    1.7095    0.3208 C   0  0  0  0  0  0  0  0  0  0  0  0
   -6.1450    0.6267   -0.7456 C   0  0  0  0  0  0  0  0  0  0  0  0
   -5.3687   -0.6668   -0.4946 C   0  0  0  0  0  0  0  0  0  0  0  0
   -3.9381   -0.4525   -0.4206 N   0  0  0  0  0  0  0  0  0  0  0  0
   -3.1619   -0.3384   -1.5512 C   0  0  0  0  0  0  0  0  0  0  0  0
   -3.6096   -0.4657   -2.6876 O   0  0  0  0  0  0  0  0  0  0  0  0
   -1.6901   -0.0233   -1.3085 C   0  0  0  0  0  0  0  0  0  0  0  0
   -1.0016   -1.1044   -0.4708 C   0  0  0  0  0  0  0  0  0  0  0  0
    0.4774   -0.7843   -0.2543 C   0  0  0  0  0  0  0  0  0  0  0  0
    0.6797    0.6071    0.3718 C   0  0  0  0  0  0  0  0  0  0  0  0
    2.1730    0.9608    0.5080 C   0  0  0  0  0  0  0  0  0  0  0  0
    2.8343    0.1117    1.4994 N   0  0  0  0  0  0  0  0  0  0  0  0
    3.8243   -0.8082    1.1880 C   0  0  0  0  0  0  0  0  0  0  0  0
    3.6190   -2.0959    1.6039 N   0  0  0  0  0  0  0  0  0  0  0  0
    4.4657   -3.1506    1.3805 C   0  0  0  0  0  0  0  0  0  0  0  0
    4.0073   -4.6522    1.9707 S   0  0  0  0  0  0  0  0  0  0  0  0
    5.6223   -2.9280    0.6891 N   0  0  0  0  0  0  0  0  0  0  0  0
    5.8645   -1.7165    0.3028 C   0  0  0  0  0  0  0  0  0  0  0  0
    7.1191   -1.4476   -0.4560 C   0  0  0  0  0  0  0  0  0  0  0  0
    7.4329   -0.2049   -0.8456 C   0  0  0  0  0  0  0  0  0  0  0  0
    6.5952    0.9289   -0.5400 C   0  0  0  0  0  0  0  0  0  0  0  0
    5.4368    0.7797    0.1172 C   0  0  0  0  0  0  0  0  0  0  0  0
    4.9788   -0.5301    0.5440 C   0  0  0  0  0  0  0  0  0  0  0  0
   -0.0336    1.6834   -0.4648 C   0  0  0  0  0  0  0  0  0  0  0  0
   -1.5112    1.3592   -0.6750 C   0  0  0  0  0  0  0  0  0  0  0  0
   -6.3607    2.1382    2.3951 H   0  0  0  0  0  0  0  0  0  0  0  0
   -5.8137    0.4834    2.1115 H   0  0  0  0  0  0  0  0  0  0  0  0
   -7.4694    0.9580    1.6775 H   0  0  0  0  0  0  0  0  0  0  0  0
   -6.5154    2.5992    0.0134 H   0  0  0  0  0  0  0  0  0  0  0  0
   -4.8997    2.0098    0.3721 H   0  0  0  0  0  0  0  0  0  0  0  0
   -7.2122    0.3861   -0.8246 H   0  0  0  0  0  0  0  0  0  0  0  0
   -5.8469    1.0459   -1.7147 H   0  0  0  0  0  0  0  0  0  0  0  0
   -5.5751   -1.3749   -1.3053 H   0  0  0  0  0  0  0  0  0  0  0  0
   -5.6786   -1.1409    0.4415 H   0  0  0  0  0  0  0  0  0  0  0  0
   -3.5385   -0.2387    0.4824 H   0  0  0  0  0  0  0  0  0  0  0  0
   -1.2128   -0.0089   -2.2987 H   0  0  0  0  0  0  0  0  0  0  0  0
   -1.0973   -2.0779   -0.9671 H   0  0  0  0  0  0  0  0  0  0  0  0
   -1.4887   -1.2076    0.5066 H   0  0  0  0  0  0  0  0  0  0  0  0
    0.9100   -1.5581    0.3891 H   0  0  0  0  0  0  0  0  0  0  0  0
    1.0032   -0.8397   -1.2160 H   0  0  0  0  0  0  0  0  0  0  0  0
    0.2259    0.6005    1.3726 H   0  0  0  0  0  0  0  0  0  0  0  0
    2.6578    0.8937   -0.4731 H   0  0  0  0  0  0  0  0  0  0  0  0
    2.2715    1.9983    0.8473 H   0  0  0  0  0  0  0  0  0  0  0  0
    2.1864   -0.2529    2.1911 H   0  0  0  0  0  0  0  0  0  0  0  0
    2.7720   -2.3250    2.1013 H   0  0  0  0  0  0  0  0  0  0  0  0
    7.7534   -2.2992   -0.6715 H   0  0  0  0  0  0  0  0  0  0  0  0
    8.3499   -0.0203   -1.3974 H   0  0  0  0  0  0  0  0  0  0  0  0
    6.9384    1.9132   -0.8455 H   0  0  0  0  0  0  0  0  0  0  0  0
    4.8387    1.6496    0.3632 H   0  0  0  0  0  0  0  0  0  0  0  0
    0.4568    1.7811   -1.4419 H   0  0  0  0  0  0  0  0  0  0  0  0
    0.0517    2.6579    0.0308 H   0  0  0  0  0  0  0  0  0  0  0  0
   -1.9673    2.1246   -1.3146 H   0  0  0  0  0  0  0  0  0  0  0  0
   -2.0299    1.4149    0.2898 H   0  0  0  0  0  0  0  0  0  0  0  0
  1  2  1  0
  2  3  1  0
  3  4  1  0
  4  5  1  0
  5  6  1  0
  6  7  2  0
  6  8  1  0
  8  9  1  0
  9 10  1  0
 10 11  1  0
 11 12  1  0
 12 13  1  0
 13 14  1  0
 14 15  1  0
 15 16  1  0
 16 17  2  0
 16 18  1  0
 18 19  2  0
 19 20  1  0
 20 21  2  0
 21 22  1  0
 22 23  2  0
 23 24  1  0
 11 25  1  0
 25 26  1  0
 26  8  1  0
 24 14  2  0
 24 19  1  0
  1 27  1  0
  1 28  1  0
  1 29  1  0
  2 30  1  0
  2 31  1  0
  3 32  1  0
  3 33  1  0
  4 34  1  0
  4 35  1  0
  5 36  1  0
  8 37  1  0
  9 38  1  0
  9 39  1  0
 10 40  1  0
 10 41  1  0
 11 42  1  0
 12 43  1  0
 12 44  1  0
 13 45  1  0
 15 46  1  0
 20 47  1  0
 21 48  1  0
 22 49  1  0
 23 50  1  0
 25 51  1  0
 25 52  1  0
 26 53  1  0
 26 54  1  0
M  END
$$$$
