
     RDKit          3D

 32 34  0  0  0  0  0  0  0  0999 V2000
    6.0217   -1.8993   -0.8639 C   0  0  0  0  0  0  0  0  0  0  0  0
    5.7167   -0.5099   -0.8719 O   0  0  0  0  0  0  0  0  0  0  0  0
    4.4111   -0.1583   -0.6546 C   0  0  0  0  0  0  0  0  0  0  0  0
    4.1768    1.2166   -0.6688 C   0  0  0  0  0  0  0  0  0  0  0  0
    2.8933    1.7353   -0.4622 C   0  0  0  0  0  0  0  0  0  0  0  0
    1.8188    0.8556   -0.2358 C   0  0  0  0  0  0  0  0  0  0  0  0
    0.4998    1.2183   -0.0175 N   0  0  0  0  0  0  0  0  0  0  0  0
   -0.2288    0.1438    0.1646 C   0  0  0  0  0  0  0  0  0  0  0  0
   -1.5764    0.2508    0.3881 N   0  0  0  0  0  0  0  0  0  0  0  0
   -2.4566   -0.7627    0.6764 C   0  0  0  0  0  0  0  0  0  0  0  0
   -2.1715   -1.9390    0.8633 O   0  0  0  0  0  0  0  0  0  0  0  0
   -3.8441   -0.3219    0.8163 C   0  0  0  0  0  0  0  0  0  0  0  0
   -4.8483   -0.9676    1.6028 C   0  0  0  0  0  0  0  0  0  0  0  0
   -6.0009   -0.2380    1.4569 C   0  0  0  0  0  0  0  0  0  0  0  0
   -5.7927    0.8025    0.6154 O   0  0  0  0  0  0  0  0  0  0  0  0
   -4.4929    0.7433    0.2054 C   0  0  0  0  0  0  0  0  0  0  0  0
   -4.1074    1.7739   -0.7850 C   0  0  0  0  0  0  0  0  0  0  0  0
    0.5875   -1.3431    0.0681 S   0  0  0  0  0  0  0  0  0  0  0  0
    2.0690   -0.5170   -0.2252 C   0  0  0  0  0  0  0  0  0  0  0  0
    3.3561   -1.0490   -0.4320 C   0  0  0  0  0  0  0  0  0  0  0  0
    5.4921   -2.4239   -1.6659 H   0  0  0  0  0  0  0  0  0  0  0  0
    7.0950   -2.0068   -1.0478 H   0  0  0  0  0  0  0  0  0  0  0  0
    5.8046   -2.3453    0.1123 H   0  0  0  0  0  0  0  0  0  0  0  0
    5.0051    1.9005   -0.8431 H   0  0  0  0  0  0  0  0  0  0  0  0
    2.7219    2.8069   -0.4749 H   0  0  0  0  0  0  0  0  0  0  0  0
   -1.8912    1.2076    0.4146 H   0  0  0  0  0  0  0  0  0  0  0  0
   -4.7248   -1.8571    2.2063 H   0  0  0  0  0  0  0  0  0  0  0  0
   -7.0020   -0.3276    1.8554 H   0  0  0  0  0  0  0  0  0  0  0  0
   -3.6088    2.6118   -0.2888 H   0  0  0  0  0  0  0  0  0  0  0  0
   -3.4311    1.3589   -1.5384 H   0  0  0  0  0  0  0  0  0  0  0  0
   -4.9860    2.1643   -1.3088 H   0  0  0  0  0  0  0  0  0  0  0  0
    3.4940   -2.1233   -0.4135 H   0  0  0  0  0  0  0  0  0  0  0  0
  1  2  1  0
  2  3  1  0
  3  4  2  0
  4  5  1  0
  5  6  2  0
  6  7  1  0
  7  8  2  0
  8  9  1  0
  9 10  1  0
 10 11  2  0
 10 12  1  0
 12 13  1  0
 13 14  2  0
 14 15  1  0
 15 16  1  0
 16 17  1  0
  8 18  1  0
 18 19  1  0
 19 20  2  0
 20  3  1  0
 19  6  1  0
 16 12  2  0
  1 21  1  0
  1 22  1  0
  1 23  1  0
  4 24  1  0
  5 25  1  0
  9 26  1  0
 13 27  1  0
 14 28  1  0
 17 29  1  0
 17 30  1  0
 17 31  1  0
 20 32  1  0
M  END
$$$$
