
     RDKit          3D

 38 41  0  0  0  0  0  0  0  0999 V2000
   -5.1914    2.4917    0.3796 C   0  0  0  0  0  0  0  0  0  0  0  0
   -4.0419    1.5307    0.2726 C   0  0  0  0  0  0  0  0  0  0  0  0
   -4.2981    0.1661    0.1922 C   0  0  0  0  0  0  0  0  0  0  0  0
   -3.2359   -0.7455    0.0921 C   0  0  0  0  0  0  0  0  0  0  0  0
   -3.5225   -2.2185    0.0073 C   0  0  0  0  0  0  0  0  0  0  0  0
   -1.9205   -0.2081    0.0784 C   0  0  0  0  0  0  0  0  0  0  0  0
   -1.8027    1.1712    0.1662 C   0  0  0  0  0  0  0  0  0  0  0  0
   -2.8062    2.0655    0.2616 N   0  0  0  0  0  0  0  0  0  0  0  0
   -0.1933    1.7086    0.1447 S   0  0  0  0  0  0  0  0  0  0  0  0
    0.4278    0.1073    0.0140 C   0  0  0  0  0  0  0  0  0  0  0  0
    1.7699   -0.3312   -0.0613 C   0  0  0  0  0  0  0  0  0  0  0  0
    2.8710    0.6377   -0.0310 C   0  0  0  0  0  0  0  0  0  0  0  0
    3.3203    1.2490   -1.2118 C   0  0  0  0  0  0  0  0  0  0  0  0
    4.3714    2.1678   -1.1824 C   0  0  0  0  0  0  0  0  0  0  0  0
    4.9860    2.4863    0.0266 C   0  0  0  0  0  0  0  0  0  0  0  0
    4.5507    1.8882    1.2071 C   0  0  0  0  0  0  0  0  0  0  0  0
    3.4994    0.9695    1.1793 C   0  0  0  0  0  0  0  0  0  0  0  0
    1.9735   -1.7202   -0.1605 C   0  0  0  0  0  0  0  0  0  0  0  0
    3.2994   -2.2603   -0.2436 C   0  0  0  0  0  0  0  0  0  0  0  0
    4.3650   -2.7120   -0.3402 N   0  0  0  0  0  0  0  0  0  0  0  0
    0.8737   -2.5756   -0.1900 C   0  0  0  0  0  0  0  0  0  0  0  0
    1.0101   -3.9638   -0.2452 N   0  0  0  0  0  0  0  0  0  0  0  0
   -0.3956   -2.1583   -0.1119 N   0  0  0  0  0  0  0  0  0  0  0  0
   -0.6160   -0.8184   -0.0118 C   0  0  0  0  0  0  0  0  0  0  0  0
   -4.8328    3.5248    0.4336 H   0  0  0  0  0  0  0  0  0  0  0  0
   -5.7732    2.2855    1.2834 H   0  0  0  0  0  0  0  0  0  0  0  0
   -5.8414    2.4022   -0.4963 H   0  0  0  0  0  0  0  0  0  0  0  0
   -5.3252   -0.1899    0.2080 H   0  0  0  0  0  0  0  0  0  0  0  0
   -4.5977   -2.4234    0.0345 H   0  0  0  0  0  0  0  0  0  0  0  0
   -3.0612   -2.7408    0.8513 H   0  0  0  0  0  0  0  0  0  0  0  0
   -3.1284   -2.6252   -0.9293 H   0  0  0  0  0  0  0  0  0  0  0  0
    2.8529    1.0153   -2.1662 H   0  0  0  0  0  0  0  0  0  0  0  0
    4.7111    2.6346   -2.1035 H   0  0  0  0  0  0  0  0  0  0  0  0
    5.8052    3.2004    0.0489 H   0  0  0  0  0  0  0  0  0  0  0  0
    5.0304    2.1360    2.1505 H   0  0  0  0  0  0  0  0  0  0  0  0
    3.1736    0.5148    2.1128 H   0  0  0  0  0  0  0  0  0  0  0  0
    0.0804   -4.3739   -0.2981 H   0  0  0  0  0  0  0  0  0  0  0  0
    1.6122   -4.2884   -0.9952 H   0  0  0  0  0  0  0  0  0  0  0  0
  1  2  1  0
  2  3  2  0
  3  4  1  0
  4  5  1  0
  4  6  2  0
  6  7  1  0
  7  8  2  0
  7  9  1  0
  9 10  1  0
 10 11  2  0
 11 12  1  0
 12 13  2  0
 13 14  1  0
 14 15  2  0
 15 16  1  0
 16 17  2  0
 11 18  1  0
 18 19  1  0
 19 20  3  0
 18 21  2  0
 21 22  1  0
 21 23  1  0
 23 24  2  0
  8  2  1  0
 24 10  1  0
 24  6  1  0
 17 12  1  0
  1 25  1  0
  1 26  1  0
  1 27  1  0
  3 28  1  0
  5 29  1  0
  5 30  1  0
  5 31  1  0
 13 32  1  0
 14 33  1  0
 15 34  1  0
 16 35  1  0
 17 36  1  0
 22 37  1  0
 22 38  1  0
M  END
$$$$
