
     RDKit          3D

 44 46  0  0  0  0  0  0  0  0999 V2000
    5.9993    1.2603    0.4726 C   0  0  0  0  0  0  0  0  0  0  0  0
    4.7402    0.6218   -0.1429 C   0  0  0  0  0  0  0  0  0  0  0  0
    5.1504   -0.6578   -0.8839 C   0  0  0  0  0  0  0  0  0  0  0  0
    4.1211    1.6277   -1.1215 C   0  0  0  0  0  0  0  0  0  0  0  0
    3.7507    0.2518    0.9842 C   0  0  0  0  0  0  0  0  0  0  0  0
    4.0891    0.2923    2.1720 O   0  0  0  0  0  0  0  0  0  0  0  0
    2.3522   -0.2065    0.6093 C   0  0  0  0  0  0  0  0  0  0  0  0
    1.1707    1.1475    0.8943 S   0  0  0  0  0  0  0  0  0  0  0  0
   -0.3751    0.3199    0.5148 C   0  0  0  0  0  0  0  0  0  0  0  0
   -0.2528   -0.8863   -0.1012 N   0  0  0  0  0  0  0  0  0  0  0  0
   -1.3940   -1.5159   -0.4116 C   0  0  0  0  0  0  0  0  0  0  0  0
   -2.6628   -1.0253   -0.1492 C   0  0  0  0  0  0  0  0  0  0  0  0
   -2.7969    0.2004    0.4894 C   0  0  0  0  0  0  0  0  0  0  0  0
   -4.1278    0.7318    0.7850 C   0  0  0  0  0  0  0  0  0  0  0  0
   -4.8609    1.6701    0.0865 C   0  0  0  0  0  0  0  0  0  0  0  0
   -6.1196    1.9366    0.7011 C   0  0  0  0  0  0  0  0  0  0  0  0
   -6.3027    1.1932    1.8457 C   0  0  0  0  0  0  0  0  0  0  0  0
   -4.9644    0.1807    2.1749 S   0  0  0  0  0  0  0  0  0  0  0  0
   -1.6190    0.9015    0.8213 C   0  0  0  0  0  0  0  0  0  0  0  0
   -1.6966    2.1840    1.4589 C   0  0  0  0  0  0  0  0  0  0  0  0
   -1.7804    3.2286    1.9591 N   0  0  0  0  0  0  0  0  0  0  0  0
   -3.7082   -1.9983   -0.5982 C   0  0  0  0  0  0  0  0  0  0  0  0
   -2.9031   -2.8845   -1.5606 C   0  0  0  0  0  0  0  0  0  0  0  0
   -1.4569   -2.8733   -1.0529 C   0  0  0  0  0  0  0  0  0  0  0  0
    6.7229    1.5410   -0.3011 H   0  0  0  0  0  0  0  0  0  0  0  0
    6.5018    0.5707    1.1609 H   0  0  0  0  0  0  0  0  0  0  0  0
    5.7472    2.1640    1.0396 H   0  0  0  0  0  0  0  0  0  0  0  0
    5.5510   -1.4045   -0.1886 H   0  0  0  0  0  0  0  0  0  0  0  0
    4.3020   -1.1192   -1.4003 H   0  0  0  0  0  0  0  0  0  0  0  0
    5.9196   -0.4510   -1.6364 H   0  0  0  0  0  0  0  0  0  0  0  0
    4.8508    1.9464   -1.8746 H   0  0  0  0  0  0  0  0  0  0  0  0
    3.7697    2.5233   -0.5970 H   0  0  0  0  0  0  0  0  0  0  0  0
    3.2672    1.2040   -1.6601 H   0  0  0  0  0  0  0  0  0  0  0  0
    2.3248   -0.5321   -0.4330 H   0  0  0  0  0  0  0  0  0  0  0  0
    2.1066   -1.0687    1.2389 H   0  0  0  0  0  0  0  0  0  0  0  0
   -4.5136    2.1516   -0.8201 H   0  0  0  0  0  0  0  0  0  0  0  0
   -6.8504    2.6429    0.3262 H   0  0  0  0  0  0  0  0  0  0  0  0
   -7.1565    1.1985    2.5096 H   0  0  0  0  0  0  0  0  0  0  0  0
   -4.5434   -1.5177   -1.1152 H   0  0  0  0  0  0  0  0  0  0  0  0
   -4.0764   -2.5786    0.2541 H   0  0  0  0  0  0  0  0  0  0  0  0
   -3.3121   -3.8966   -1.6385 H   0  0  0  0  0  0  0  0  0  0  0  0
   -2.9350   -2.4440   -2.5670 H   0  0  0  0  0  0  0  0  0  0  0  0
   -1.2932   -3.6487   -0.2979 H   0  0  0  0  0  0  0  0  0  0  0  0
   -0.7356   -2.9818   -1.8670 H   0  0  0  0  0  0  0  0  0  0  0  0
  1  2  1  0
  2  3  1  0
  2  4  1  0
  2  5  1  0
  5  6  2  0
  5  7  1  0
  7  8  1  0
  8  9  1  0
  9 10  2  0
 10 11  1  0
 11 12  2  0
 12 13  1  0
 13 14  1  0
 14 15  2  0
 15 16  1  0
 16 17  2  0
 17 18  1  0
 13 19  2  0
 19 20  1  0
 20 21  3  0
 12 22  1  0
 22 23  1  0
 23 24  1  0
 19  9  1  0
 24 11  1  0
 18 14  1  0
  1 25  1  0
  1 26  1  0
  1 27  1  0
  3 28  1  0
  3 29  1  0
  3 30  1  0
  4 31  1  0
  4 32  1  0
  4 33  1  0
  7 34  1  0
  7 35  1  0
 15 36  1  0
 16 37  1  0
 17 38  1  0
 22 39  1  0
 22 40  1  0
 23 41  1  0
 23 42  1  0
 24 43  1  0
 24 44  1  0
M  END
$$$$
