
     RDKit          3D

 49 51  0  0  0  0  0  0  0  0999 V2000
   -3.8442   -2.8473    3.3731 C   0  0  0  0  0  0  0  0  0  0  0  0
   -3.2377   -2.0397    2.2531 C   0  0  0  0  0  0  0  0  0  0  0  0
   -3.7477   -2.2954    0.8780 C   0  0  0  0  0  0  0  0  0  0  0  0
   -3.1998   -1.5334   -0.0787 C   0  0  0  0  0  0  0  0  0  0  0  0
   -3.5472   -1.6921   -1.5283 C   0  0  0  0  0  0  0  0  0  0  0  0
   -2.2593   -0.5805    0.2573 N   0  0  0  0  0  0  0  0  0  0  0  0
   -1.7594   -0.4552    1.5327 C   0  0  0  0  0  0  0  0  0  0  0  0
   -0.7925    0.3129    1.9185 N   0  0  0  0  0  0  0  0  0  0  0  0
   -0.2592    1.2108    1.0463 C   0  0  0  0  0  0  0  0  0  0  0  0
    0.6886    0.9126    0.2216 N   0  0  0  0  0  0  0  0  0  0  0  0
    1.3138   -0.5706    0.1037 S   0  0  0  0  0  6  0  0  0  0  0  0
    0.3909   -1.3582   -0.6972 O   0  0  0  0  0  0  0  0  0  0  0  0
    1.7985   -1.0313    1.3887 O   0  0  0  0  0  0  0  0  0  0  0  0
    2.7420   -0.1916   -0.9120 C   0  0  0  0  0  0  0  0  0  0  0  0
    3.4815   -1.4584   -1.2559 C   0  0  0  0  0  0  0  0  0  0  0  0
    4.4537   -1.9740   -0.3865 C   0  0  0  0  0  0  0  0  0  0  0  0
    5.1375   -3.1480   -0.7051 C   0  0  0  0  0  0  0  0  0  0  0  0
    4.8572   -3.8191   -1.8934 C   0  0  0  0  0  0  0  0  0  0  0  0
    3.8898   -3.3195   -2.7627 C   0  0  0  0  0  0  0  0  0  0  0  0
    3.2037   -2.1459   -2.4463 C   0  0  0  0  0  0  0  0  0  0  0  0
   -0.7944    2.4668    1.1624 N   0  0  0  0  0  0  0  0  0  0  0  0
   -0.5393    3.6737    0.4878 C   0  0  0  0  0  0  0  0  0  0  0  0
    0.2695    3.7654   -0.6524 C   0  0  0  0  0  0  0  0  0  0  0  0
    0.4891    4.9900   -1.2959 C   0  0  0  0  0  0  0  0  0  0  0  0
   -0.1010    6.1536   -0.8139 C   0  0  0  0  0  0  0  0  0  0  0  0
   -0.9162    6.0949    0.3115 C   0  0  0  0  0  0  0  0  0  0  0  0
   -1.1330    4.8690    0.9504 C   0  0  0  0  0  0  0  0  0  0  0  0
   -2.2678    4.8681    2.4808 Br  0  0  0  0  0  0  0  0  0  0  0  0
   -2.3116   -1.1853    2.5580 N   0  0  0  0  0  0  0  0  0  0  0  0
   -4.6409   -3.5025    3.0119 H   0  0  0  0  0  0  0  0  0  0  0  0
   -3.0656   -3.4593    3.8378 H   0  0  0  0  0  0  0  0  0  0  0  0
   -4.2596   -2.1685    4.1238 H   0  0  0  0  0  0  0  0  0  0  0  0
   -4.4807   -3.0687    0.7012 H   0  0  0  0  0  0  0  0  0  0  0  0
   -3.9529   -0.7562   -1.9263 H   0  0  0  0  0  0  0  0  0  0  0  0
   -2.6562   -1.9573   -2.1071 H   0  0  0  0  0  0  0  0  0  0  0  0
   -4.2954   -2.4759   -1.6873 H   0  0  0  0  0  0  0  0  0  0  0  0
   -1.6396   -0.3010   -0.4966 H   0  0  0  0  0  0  0  0  0  0  0  0
    2.3904    0.3137   -1.8175 H   0  0  0  0  0  0  0  0  0  0  0  0
    3.3842    0.4981   -0.3549 H   0  0  0  0  0  0  0  0  0  0  0  0
    4.6765   -1.4726    0.5541 H   0  0  0  0  0  0  0  0  0  0  0  0
    5.8838   -3.5431   -0.0206 H   0  0  0  0  0  0  0  0  0  0  0  0
    5.3869   -4.7361   -2.1375 H   0  0  0  0  0  0  0  0  0  0  0  0
    3.6643   -3.8486   -3.6849 H   0  0  0  0  0  0  0  0  0  0  0  0
    2.4433   -1.7792   -3.1329 H   0  0  0  0  0  0  0  0  0  0  0  0
   -1.4042    2.5594    1.9682 H   0  0  0  0  0  0  0  0  0  0  0  0
    0.7441    2.8885   -1.0784 H   0  0  0  0  0  0  0  0  0  0  0  0
    1.1234    5.0293   -2.1785 H   0  0  0  0  0  0  0  0  0  0  0  0
    0.0718    7.1026   -1.3150 H   0  0  0  0  0  0  0  0  0  0  0  0
   -1.3788    7.0051    0.6845 H   0  0  0  0  0  0  0  0  0  0  0  0
  1  2  1  0
  2  3  1  0
  3  4  2  0
  4  5  1  0
  4  6  1  0
  6  7  1  0
  7  8  2  3
  8  9  1  0
  9 10  2  3
 10 11  1  0
 11 12  2  0
 11 13  2  0
 11 14  1  0
 14 15  1  0
 15 16  2  0
 16 17  1  0
 17 18  2  0
 18 19  1  0
 19 20  2  0
  9 21  1  0
 21 22  1  0
 22 23  2  0
 23 24  1  0
 24 25  2  0
 25 26  1  0
 26 27  2  0
 27 28  1  0
  7 29  1  0
 29  2  2  0
 20 15  1  0
 27 22  1  0
  1 30  1  0
  1 31  1  0
  1 32  1  0
  3 33  1  0
  5 34  1  0
  5 35  1  0
  5 36  1  0
  6 37  1  0
 14 38  1  0
 14 39  1  0
 16 40  1  0
 17 41  1  0
 18 42  1  0
 19 43  1  0
 20 44  1  0
 21 45  1  0
 23 46  1  0
 24 47  1  0
 25 48  1  0
 26 49  1  0
M  END
$$$$
