
     RDKit          3D

 50 52  0  0  0  0  0  0  0  0999 V2000
    8.1370   -0.9046    2.5892 C   0  0  0  0  0  0  0  0  0  0  0  0
    7.5303   -1.8994    1.6121 C   0  0  0  0  0  0  0  0  0  0  0  0
    6.4622   -1.2678    0.7830 C   0  0  0  0  0  0  0  0  0  0  0  0
    5.2098   -1.1155    1.1644 N   0  0  0  0  0  0  0  0  0  0  0  0
    4.4461   -0.4890    0.1985 N   0  0  0  0  0  0  0  0  0  0  0  0
    5.1572   -0.1796   -0.8588 C   0  0  0  0  0  0  0  0  0  0  0  0
    4.5756    0.4464   -2.0232 N   0  0  0  0  0  0  0  0  0  0  0  0
    4.0672    2.0217   -1.7363 S   0  0  0  0  0  6  0  0  0  0  0  0
    4.2443    2.7083   -3.0014 O   0  0  0  0  0  0  0  0  0  0  0  0
    4.6721    2.5482   -0.5326 O   0  0  0  0  0  0  0  0  0  0  0  0
    2.3260    1.8151   -1.4773 C   0  0  0  0  0  0  0  0  0  0  0  0
    1.4459    1.9033   -2.5542 C   0  0  0  0  0  0  0  0  0  0  0  0
    0.0734    1.7572   -2.3307 C   0  0  0  0  0  0  0  0  0  0  0  0
   -0.4386    1.5396   -1.0393 C   0  0  0  0  0  0  0  0  0  0  0  0
   -1.8403    1.3970   -0.9505 N   0  0  0  0  0  0  0  0  0  0  0  0
   -2.7234    1.2735    0.0975 C   0  0  0  0  0  0  0  0  0  0  0  0
   -2.4572    1.3492    1.7444 S   0  0  0  0  0  0  0  0  0  0  0  0
   -4.0429    1.0677   -0.2844 N   0  0  0  0  0  0  0  0  0  0  0  0
   -4.5707    0.9237   -1.5504 C   0  0  0  0  0  0  0  0  0  0  0  0
   -3.9429    1.1223   -2.5876 O   0  0  0  0  0  0  0  0  0  0  0  0
   -6.0227    0.6144   -1.6183 C   0  0  0  0  0  0  0  0  0  0  0  0
   -6.7421   -0.1973   -0.8264 C   0  0  0  0  0  0  0  0  0  0  0  0
   -6.2465   -0.9975    0.2955 C   0  0  0  0  0  0  0  0  0  0  0  0
   -6.7726   -0.7838    1.5743 C   0  0  0  0  0  0  0  0  0  0  0  0
   -6.2947   -1.5171    2.6622 C   0  0  0  0  0  0  0  0  0  0  0  0
   -5.2969   -2.4729    2.4758 C   0  0  0  0  0  0  0  0  0  0  0  0
   -4.7815   -2.7035    1.2017 C   0  0  0  0  0  0  0  0  0  0  0  0
   -5.2574   -1.9715    0.1122 C   0  0  0  0  0  0  0  0  0  0  0  0
    0.4602    1.4632    0.0251 C   0  0  0  0  0  0  0  0  0  0  0  0
    1.8381    1.6075   -0.1874 C   0  0  0  0  0  0  0  0  0  0  0  0
    6.7890   -0.6756   -0.8001 S   0  0  0  0  0  0  0  0  0  0  0  0
    7.3764   -0.4998    3.2660 H   0  0  0  0  0  0  0  0  0  0  0  0
    8.5999   -0.0625    2.0633 H   0  0  0  0  0  0  0  0  0  0  0  0
    8.9072   -1.3913    3.1959 H   0  0  0  0  0  0  0  0  0  0  0  0
    7.0969   -2.7369    2.1719 H   0  0  0  0  0  0  0  0  0  0  0  0
    8.3197   -2.3207    0.9788 H   0  0  0  0  0  0  0  0  0  0  0  0
    5.1398    0.4054   -2.8679 H   0  0  0  0  0  0  0  0  0  0  0  0
    1.8095    2.0830   -3.5631 H   0  0  0  0  0  0  0  0  0  0  0  0
   -0.5982    1.8235   -3.1854 H   0  0  0  0  0  0  0  0  0  0  0  0
   -2.3121    1.4085   -1.8565 H   0  0  0  0  0  0  0  0  0  0  0  0
   -4.6656    0.9487    0.5037 H   0  0  0  0  0  0  0  0  0  0  0  0
   -6.5129    1.0912   -2.4641 H   0  0  0  0  0  0  0  0  0  0  0  0
   -7.8071   -0.3101   -1.0249 H   0  0  0  0  0  0  0  0  0  0  0  0
   -7.5495   -0.0399    1.7387 H   0  0  0  0  0  0  0  0  0  0  0  0
   -6.6975   -1.3410    3.6565 H   0  0  0  0  0  0  0  0  0  0  0  0
   -4.9216   -3.0400    3.3245 H   0  0  0  0  0  0  0  0  0  0  0  0
   -4.0051   -3.4511    1.0572 H   0  0  0  0  0  0  0  0  0  0  0  0
   -4.8449   -2.1672   -0.8756 H   0  0  0  0  0  0  0  0  0  0  0  0
    0.1436    1.2744    1.0425 H   0  0  0  0  0  0  0  0  0  0  0  0
    2.5176    1.5426    0.6613 H   0  0  0  0  0  0  0  0  0  0  0  0
  1  2  1  0
  2  3  1  0
  3  4  2  0
  4  5  1  0
  5  6  2  0
  6  7  1  0
  7  8  1  0
  8  9  2  0
  8 10  2  0
  8 11  1  0
 11 12  2  0
 12 13  1  0
 13 14  2  0
 14 15  1  0
 15 16  1  0
 16 17  2  0
 16 18  1  0
 18 19  1  0
 19 20  2  0
 19 21  1  0
 21 22  2  3
 22 23  1  0
 23 24  2  0
 24 25  1  0
 25 26  2  0
 26 27  1  0
 27 28  2  0
 14 29  1  0
 29 30  2  0
  6 31  1  0
 31  3  1  0
 30 11  1  0
 28 23  1  0
  1 32  1  0
  1 33  1  0
  1 34  1  0
  2 35  1  0
  2 36  1  0
  7 37  1  0
 12 38  1  0
 13 39  1  0
 15 40  1  0
 18 41  1  0
 21 42  1  0
 22 43  1  0
 24 44  1  0
 25 45  1  0
 26 46  1  0
 27 47  1  0
 28 48  1  0
 29 49  1  0
 30 50  1  0
M  END
$$$$
