
     RDKit          3D

 45 47  0  0  0  0  0  0  0  0999 V2000
   -4.8690   -0.8436   -1.7289 C   0  0  0  0  0  0  0  0  0  0  0  0
   -4.7991    0.1259   -0.5515 C   0  0  0  0  0  0  0  0  0  0  0  0
   -3.6363   -0.0112    0.3533 N   0  0  0  0  0  0  0  0  0  0  0  0
   -3.6486   -1.3296    1.0234 C   0  0  0  0  0  0  0  0  0  0  0  0
   -2.6974   -1.4406    2.2095 C   0  0  0  0  0  0  0  0  0  0  0  0
   -2.3662    0.2459   -0.3721 C   0  0  0  0  0  0  0  0  0  0  0  0
   -1.2958    0.9209    0.4680 C   0  0  0  0  0  0  0  0  0  0  0  0
   -1.6058    1.8564    1.4703 C   0  0  0  0  0  0  0  0  0  0  0  0
   -2.8985    2.1471    1.8106 O   0  0  0  0  0  0  0  0  0  0  0  0
   -0.6152    2.5289    2.1829 C   0  0  0  0  0  0  0  0  0  0  0  0
    0.7254    2.2791    1.9060 C   0  0  0  0  0  0  0  0  0  0  0  0
    1.0637    1.3620    0.9070 C   0  0  0  0  0  0  0  0  0  0  0  0
    2.4828    1.0983    0.5994 C   0  0  0  0  0  0  0  0  0  0  0  0
    3.3723    1.6609    1.2276 O   0  0  0  0  0  0  0  0  0  0  0  0
    2.7606    0.1306   -0.4975 C   0  0  0  0  0  0  0  0  0  0  0  0
    4.1297   -0.2397   -0.9028 C   0  0  0  0  0  0  0  0  0  0  0  0
    5.0779   -0.6196    0.0573 C   0  0  0  0  0  0  0  0  0  0  0  0
    6.3734   -0.9805   -0.3219 C   0  0  0  0  0  0  0  0  0  0  0  0
    6.7380   -0.9634   -1.6661 C   0  0  0  0  0  0  0  0  0  0  0  0
    5.8101   -0.5809   -2.6319 C   0  0  0  0  0  0  0  0  0  0  0  0
    4.5144   -0.2194   -2.2532 C   0  0  0  0  0  0  0  0  0  0  0  0
    1.6972   -0.4281   -1.0948 C   0  0  0  0  0  0  0  0  0  0  0  0
    0.3747   -0.1922   -0.8163 O   0  0  0  0  0  0  0  0  0  0  0  0
    0.0665    0.6961    0.1876 C   0  0  0  0  0  0  0  0  0  0  0  0
   -4.9618   -1.8812   -1.3950 H   0  0  0  0  0  0  0  0  0  0  0  0
   -5.7489   -0.6171   -2.3405 H   0  0  0  0  0  0  0  0  0  0  0  0
   -3.9899   -0.7637   -2.3753 H   0  0  0  0  0  0  0  0  0  0  0  0
   -4.8195    1.1527   -0.9389 H   0  0  0  0  0  0  0  0  0  0  0  0
   -5.7187    0.0302    0.0398 H   0  0  0  0  0  0  0  0  0  0  0  0
   -3.4302   -2.1391    0.3165 H   0  0  0  0  0  0  0  0  0  0  0  0
   -4.6569   -1.5147    1.4155 H   0  0  0  0  0  0  0  0  0  0  0  0
   -1.6502   -1.4309    1.8958 H   0  0  0  0  0  0  0  0  0  0  0  0
   -2.8615   -0.6322    2.9289 H   0  0  0  0  0  0  0  0  0  0  0  0
   -2.8687   -2.3875    2.7328 H   0  0  0  0  0  0  0  0  0  0  0  0
   -2.0002   -0.6866   -0.8183 H   0  0  0  0  0  0  0  0  0  0  0  0
   -2.5448    0.9407   -1.2044 H   0  0  0  0  0  0  0  0  0  0  0  0
   -3.4554    1.4475    1.4008 H   0  0  0  0  0  0  0  0  0  0  0  0
   -0.8920    3.2426    2.9545 H   0  0  0  0  0  0  0  0  0  0  0  0
    1.4999    2.8011    2.4635 H   0  0  0  0  0  0  0  0  0  0  0  0
    4.8187   -0.6304    1.1145 H   0  0  0  0  0  0  0  0  0  0  0  0
    7.0980   -1.2673    0.4358 H   0  0  0  0  0  0  0  0  0  0  0  0
    7.7476   -1.2396   -1.9590 H   0  0  0  0  0  0  0  0  0  0  0  0
    6.0965   -0.5565   -3.6801 H   0  0  0  0  0  0  0  0  0  0  0  0
    3.8136    0.0915   -3.0247 H   0  0  0  0  0  0  0  0  0  0  0  0
    1.7697   -1.1628   -1.8883 H   0  0  0  0  0  0  0  0  0  0  0  0
  1  2  1  0
  2  3  1  0
  3  4  1  0
  4  5  1  0
  3  6  1  0
  6  7  1  0
  7  8  2  0
  8  9  1  0
  8 10  1  0
 10 11  2  0
 11 12  1  0
 12 13  1  0
 13 14  2  0
 13 15  1  0
 15 16  1  0
 16 17  2  0
 17 18  1  0
 18 19  2  0
 19 20  1  0
 20 21  2  0
 15 22  2  0
 22 23  1  0
 23 24  1  0
 24  7  1  0
 24 12  2  0
 21 16  1  0
  1 25  1  0
  1 26  1  0
  1 27  1  0
  2 28  1  0
  2 29  1  0
  4 30  1  0
  4 31  1  0
  5 32  1  0
  5 33  1  0
  5 34  1  0
  6 35  1  0
  6 36  1  0
  9 37  1  0
 10 38  1  0
 11 39  1  0
 17 40  1  0
 18 41  1  0
 19 42  1  0
 20 43  1  0
 21 44  1  0
 22 45  1  0
M  END
$$$$
