
     RDKit          3D

 43 45  0  0  0  0  0  0  0  0999 V2000
    3.5010    0.1392    2.8927 C   0  0  0  0  0  0  0  0  0  0  0  0
    3.8071    0.1217    1.4238 C   0  0  0  0  0  0  0  0  0  0  0  0
    4.8700    0.8714    0.9146 C   0  0  0  0  0  0  0  0  0  0  0  0
    5.1255    0.8889   -0.4563 C   0  0  0  0  0  0  0  0  0  0  0  0
    4.3197    0.1596   -1.3417 C   0  0  0  0  0  0  0  0  0  0  0  0
    4.6093    0.1985   -2.8169 C   0  0  0  0  0  0  0  0  0  0  0  0
    3.2476   -0.5971   -0.8372 C   0  0  0  0  0  0  0  0  0  0  0  0
    2.5011   -1.2630   -1.7749 O   0  0  0  0  0  0  0  0  0  0  0  0
    1.6283   -2.3074   -1.3391 C   0  0  0  0  0  0  0  0  0  0  0  0
    0.2865   -1.7362   -1.0886 C   0  0  0  0  0  0  0  0  0  0  0  0
   -0.4878   -0.7854   -1.7044 C   0  0  0  0  0  0  0  0  0  0  0  0
   -1.6773   -0.7175   -0.9281 C   0  0  0  0  0  0  0  0  0  0  0  0
   -2.8390    0.1395   -1.2180 C   0  0  0  0  0  0  0  0  0  0  0  0
   -2.9878    0.5837   -2.3592 O   0  0  0  0  0  0  0  0  0  0  0  0
   -3.7684    0.4557   -0.2163 N   0  0  0  0  0  0  0  0  0  0  0  0
   -3.6840    0.0331    1.1830 C   0  0  0  0  0  0  0  0  0  0  0  0
   -4.4486    0.9801    2.1056 C   0  0  0  0  0  0  0  0  0  0  0  0
   -5.8133    1.1607    1.6778 N   0  0  0  0  0  0  0  0  0  0  0  0
   -6.1191    1.3616    0.3577 C   0  0  0  0  0  0  0  0  0  0  0  0
   -7.2219    1.8068    0.0466 O   0  0  0  0  0  0  0  0  0  0  0  0
   -5.0570    0.9822   -0.6845 C   0  0  0  0  0  0  0  0  0  0  0  0
   -1.6229   -1.6144    0.0724 N   0  0  0  0  0  0  0  0  0  0  0  0
   -0.3935   -2.2340   -0.0236 O   0  0  0  0  0  0  0  0  0  0  0  0
    2.9897   -0.5973    0.5386 C   0  0  0  0  0  0  0  0  0  0  0  0
    4.4101    0.3047    3.4804 H   0  0  0  0  0  0  0  0  0  0  0  0
    2.7858    0.9368    3.1162 H   0  0  0  0  0  0  0  0  0  0  0  0
    3.0773   -0.8182    3.2139 H   0  0  0  0  0  0  0  0  0  0  0  0
    5.5041    1.4521    1.5809 H   0  0  0  0  0  0  0  0  0  0  0  0
    5.9576    1.4810   -0.8308 H   0  0  0  0  0  0  0  0  0  0  0  0
    5.4833    0.8199   -3.0392 H   0  0  0  0  0  0  0  0  0  0  0  0
    3.7563    0.6188   -3.3594 H   0  0  0  0  0  0  0  0  0  0  0  0
    4.8171   -0.8099   -3.1894 H   0  0  0  0  0  0  0  0  0  0  0  0
    2.0329   -2.8624   -0.4851 H   0  0  0  0  0  0  0  0  0  0  0  0
    1.5541   -3.0236   -2.1652 H   0  0  0  0  0  0  0  0  0  0  0  0
   -0.2406   -0.2089   -2.5846 H   0  0  0  0  0  0  0  0  0  0  0  0
   -4.0998   -0.9791    1.2434 H   0  0  0  0  0  0  0  0  0  0  0  0
   -2.6422    0.0153    1.5116 H   0  0  0  0  0  0  0  0  0  0  0  0
   -4.4620    0.5979    3.1306 H   0  0  0  0  0  0  0  0  0  0  0  0
   -3.9777    1.9697    2.1088 H   0  0  0  0  0  0  0  0  0  0  0  0
   -6.5058    1.5210    2.3239 H   0  0  0  0  0  0  0  0  0  0  0  0
   -5.5019    0.2178   -1.3332 H   0  0  0  0  0  0  0  0  0  0  0  0
   -4.8589    1.8744   -1.2899 H   0  0  0  0  0  0  0  0  0  0  0  0
    2.1449   -1.1375    0.9542 H   0  0  0  0  0  0  0  0  0  0  0  0
  1  2  1  0
  2  3  2  0
  3  4  1  0
  4  5  2  0
  5  6  1  0
  5  7  1  0
  7  8  1  0
  8  9  1  0
  9 10  1  0
 10 11  2  0
 11 12  1  0
 12 13  1  0
 13 14  2  0
 13 15  1  0
 15 16  1  0
 16 17  1  0
 17 18  1  0
 18 19  1  0
 19 20  2  0
 19 21  1  0
 12 22  2  0
 22 23  1  0
  7 24  2  0
 24  2  1  0
 23 10  1  0
 21 15  1  0
  1 25  1  0
  1 26  1  0
  1 27  1  0
  3 28  1  0
  4 29  1  0
  6 30  1  0
  6 31  1  0
  6 32  1  0
  9 33  1  0
  9 34  1  0
 11 35  1  0
 16 36  1  0
 16 37  1  0
 17 38  1  0
 17 39  1  0
 18 40  1  0
 21 41  1  0
 21 42  1  0
 24 43  1  0
M  END
$$$$
