
     RDKit          3D

 39 42  0  0  0  0  0  0  0  0999 V2000
    0.9917   -3.9065    3.2044 N   0  0  0  0  0  0  0  0  0  0  0  0
    0.9168   -3.1226    2.3488 C   0  0  0  0  0  0  0  0  0  0  0  0
    0.8412   -2.1223    1.2783 C   0  0  0  0  0  0  0  0  0  0  0  0
   -0.8415   -1.9685    0.5915 S   0  0  0  0  0  0  0  0  0  0  0  0
   -0.6082   -0.5528   -0.4340 C   0  0  0  0  0  0  0  0  0  0  0  0
    0.6057   -0.3551   -0.8434 N   0  0  0  0  0  0  0  0  0  0  0  0
    0.8542    0.8004   -1.5078 C   0  0  0  0  0  0  0  0  0  0  0  0
   -0.0565    1.7302   -1.7752 C   0  0  0  0  0  0  0  0  0  0  0  0
    0.5765    3.1022   -2.5838 S   0  0  0  0  0  0  0  0  0  0  0  0
    2.2119    2.3952   -2.5399 C   0  0  0  0  0  0  0  0  0  0  0  0
    3.5496    3.1726   -3.1533 S   0  0  0  0  0  0  0  0  0  0  0  0
    2.1321    1.1463   -1.9172 N   0  0  0  0  0  0  0  0  0  0  0  0
    3.2747    0.2666   -1.6487 C   0  0  0  0  0  0  0  0  0  0  0  0
    3.6343    0.2831   -0.2025 C   0  0  0  0  0  0  0  0  0  0  0  0
    3.7084    1.2682    0.7640 C   0  0  0  0  0  0  0  0  0  0  0  0
    4.0928    0.6249    1.9644 C   0  0  0  0  0  0  0  0  0  0  0  0
    4.2633   -0.7030    1.6501 C   0  0  0  0  0  0  0  0  0  0  0  0
    3.9764   -0.9228    0.3420 O   0  0  0  0  0  0  0  0  0  0  0  0
   -1.4503    1.5292   -1.3579 C   0  0  0  0  0  0  0  0  0  0  0  0
   -2.3001    2.3768   -1.6191 O   0  0  0  0  0  0  0  0  0  0  0  0
   -1.6818    0.3136   -0.6904 N   0  0  0  0  0  0  0  0  0  0  0  0
   -3.0381    0.0146   -0.3253 C   0  0  0  0  0  0  0  0  0  0  0  0
   -3.6345   -1.2049   -0.6871 C   0  0  0  0  0  0  0  0  0  0  0  0
   -4.9556   -1.4861   -0.3310 C   0  0  0  0  0  0  0  0  0  0  0  0
   -5.6897   -0.5454    0.3751 C   0  0  0  0  0  0  0  0  0  0  0  0
   -6.9542   -0.8183    0.7187 F   0  0  0  0  0  0  0  0  0  0  0  0
   -5.1322    0.6769    0.7223 C   0  0  0  0  0  0  0  0  0  0  0  0
   -3.8121    0.9608    0.3655 C   0  0  0  0  0  0  0  0  0  0  0  0
    1.1476   -1.1511    1.6783 H   0  0  0  0  0  0  0  0  0  0  0  0
    1.5320   -2.4039    0.4747 H   0  0  0  0  0  0  0  0  0  0  0  0
    4.1445    0.5682   -2.2348 H   0  0  0  0  0  0  0  0  0  0  0  0
    3.0124   -0.7454   -1.9737 H   0  0  0  0  0  0  0  0  0  0  0  0
    3.5063    2.3212    0.6203 H   0  0  0  0  0  0  0  0  0  0  0  0
    4.2499    1.0767    2.9346 H   0  0  0  0  0  0  0  0  0  0  0  0
    4.5660   -1.5741    2.2162 H   0  0  0  0  0  0  0  0  0  0  0  0
   -3.0949   -1.9430   -1.2735 H   0  0  0  0  0  0  0  0  0  0  0  0
   -5.4168   -2.4294   -0.6065 H   0  0  0  0  0  0  0  0  0  0  0  0
   -5.7264    1.4027    1.2653 H   0  0  0  0  0  0  0  0  0  0  0  0
   -3.3955    1.9252    0.6476 H   0  0  0  0  0  0  0  0  0  0  0  0
  1  2  3  0
  2  3  1  0
  3  4  1  0
  4  5  1  0
  5  6  2  0
  6  7  1  0
  7  8  2  0
  8  9  1  0
  9 10  1  0
 10 11  2  0
 10 12  1  0
 12 13  1  0
 13 14  1  0
 14 15  2  0
 15 16  1  0
 16 17  2  0
 17 18  1  0
  8 19  1  0
 19 20  2  0
 19 21  1  0
 21 22  1  0
 22 23  2  0
 23 24  1  0
 24 25  2  0
 25 26  1  0
 25 27  1  0
 27 28  2  0
 21  5  1  0
 28 22  1  0
 12  7  1  0
 18 14  1  0
  3 29  1  0
  3 30  1  0
 13 31  1  0
 13 32  1  0
 15 33  1  0
 16 34  1  0
 17 35  1  0
 23 36  1  0
 24 37  1  0
 27 38  1  0
 28 39  1  0
M  END
$$$$
