
     RDKit          3D

 43 44  0  0  0  0  0  0  0  0999 V2000
   -4.9237    2.5737    0.5849 C   0  0  0  0  0  0  0  0  0  0  0  0
   -5.1128    1.7860   -0.5862 O   0  0  0  0  0  0  0  0  0  0  0  0
   -4.3819    0.6267   -0.6568 C   0  0  0  0  0  0  0  0  0  0  0  0
   -3.6042    0.0798    0.3648 C   0  0  0  0  0  0  0  0  0  0  0  0
   -2.8843   -1.1052    0.1540 C   0  0  0  0  0  0  0  0  0  0  0  0
   -2.0827   -1.7108    1.2229 C   0  0  0  0  0  0  0  0  0  0  0  0
   -1.0000   -1.1898    1.8184 C   0  0  0  0  0  0  0  0  0  0  0  0
   -0.3940    0.1326    1.5001 C   0  0  0  0  0  0  0  0  0  0  0  0
   -1.0503    1.1702    1.5503 O   0  0  0  0  0  0  0  0  0  0  0  0
    1.0763    0.1441    1.1838 C   0  0  0  0  0  0  0  0  0  0  0  0
    1.9030    0.4530    2.4033 C   0  0  0  0  0  0  0  0  0  0  0  0
    1.6580   -0.0449    3.5033 O   0  0  0  0  0  0  0  0  0  0  0  0
    3.0246    1.4237    2.2958 C   0  0  0  0  0  0  0  0  0  0  0  0
    3.9699    1.4407    1.3444 C   0  0  0  0  0  0  0  0  0  0  0  0
    4.1451    0.4554    0.2755 C   0  0  0  0  0  0  0  0  0  0  0  0
    4.0993    0.8646   -1.0619 C   0  0  0  0  0  0  0  0  0  0  0  0
    4.2844   -0.0632   -2.0911 C   0  0  0  0  0  0  0  0  0  0  0  0
    4.5161   -1.3979   -1.7745 C   0  0  0  0  0  0  0  0  0  0  0  0
    4.7037   -2.3364   -2.7447 O   0  0  0  0  0  0  0  0  0  0  0  0
    4.5667   -1.8187   -0.4510 C   0  0  0  0  0  0  0  0  0  0  0  0
    4.3858   -0.8917    0.5763 C   0  0  0  0  0  0  0  0  0  0  0  0
   -2.9710   -1.7585   -1.0829 C   0  0  0  0  0  0  0  0  0  0  0  0
   -3.7559   -1.2262   -2.1055 C   0  0  0  0  0  0  0  0  0  0  0  0
   -4.4523   -0.0471   -1.8814 C   0  0  0  0  0  0  0  0  0  0  0  0
   -5.2207    0.4554   -2.8985 O   0  0  0  0  0  0  0  0  0  0  0  0
   -5.2898    2.0483    1.4745 H   0  0  0  0  0  0  0  0  0  0  0  0
   -5.5164    3.4872    0.4733 H   0  0  0  0  0  0  0  0  0  0  0  0
   -3.8741    2.8653    0.6982 H   0  0  0  0  0  0  0  0  0  0  0  0
   -3.5368    0.5608    1.3370 H   0  0  0  0  0  0  0  0  0  0  0  0
   -2.4088   -2.7067    1.5189 H   0  0  0  0  0  0  0  0  0  0  0  0
   -0.4626   -1.7639    2.5680 H   0  0  0  0  0  0  0  0  0  0  0  0
    1.2313    0.8926    0.4001 H   0  0  0  0  0  0  0  0  0  0  0  0
    1.3792   -0.8271    0.7812 H   0  0  0  0  0  0  0  0  0  0  0  0
    3.0511    2.1535    3.0989 H   0  0  0  0  0  0  0  0  0  0  0  0
    4.7300    2.2223    1.3702 H   0  0  0  0  0  0  0  0  0  0  0  0
    3.9202    1.9075   -1.3140 H   0  0  0  0  0  0  0  0  0  0  0  0
    4.2512    0.2726   -3.1233 H   0  0  0  0  0  0  0  0  0  0  0  0
    4.7119   -1.8954   -3.6108 H   0  0  0  0  0  0  0  0  0  0  0  0
    4.7544   -2.8628   -0.2175 H   0  0  0  0  0  0  0  0  0  0  0  0
    4.4295   -1.2324    1.6102 H   0  0  0  0  0  0  0  0  0  0  0  0
   -2.4292   -2.6851   -1.2592 H   0  0  0  0  0  0  0  0  0  0  0  0
   -3.8271   -1.7245   -3.0674 H   0  0  0  0  0  0  0  0  0  0  0  0
   -5.6135    1.2722   -2.5325 H   0  0  0  0  0  0  0  0  0  0  0  0
  1  2  1  0
  2  3  1  0
  3  4  2  0
  4  5  1  0
  5  6  1  0
  6  7  2  3
  7  8  1  0
  8  9  2  0
  8 10  1  0
 10 11  1  0
 11 12  2  0
 11 13  1  0
 13 14  2  3
 14 15  1  0
 15 16  2  0
 16 17  1  0
 17 18  2  0
 18 19  1  0
 18 20  1  0
 20 21  2  0
  5 22  2  0
 22 23  1  0
 23 24  2  0
 24 25  1  0
 24  3  1  0
 21 15  1  0
  1 26  1  0
  1 27  1  0
  1 28  1  0
  4 29  1  0
  6 30  1  0
  7 31  1  0
 10 32  1  0
 10 33  1  0
 13 34  1  0
 14 35  1  0
 16 36  1  0
 17 37  1  0
 19 38  1  0
 20 39  1  0
 21 40  1  0
 22 41  1  0
 23 42  1  0
 25 43  1  0
M  END
$$$$
