
     RDKit          3D

 32 34  0  0  0  0  0  0  0  0999 V2000
    5.9760    0.4094    0.5300 C   0  0  0  0  0  0  0  0  0  0  0  0
    4.6779    0.1209   -0.1672 C   0  0  0  0  0  0  0  0  0  0  0  0
    4.6769   -0.3977   -1.4710 C   0  0  0  0  0  0  0  0  0  0  0  0
    3.4860   -0.7069   -2.1413 C   0  0  0  0  0  0  0  0  0  0  0  0
    2.2997   -0.4838   -1.4421 C   0  0  0  0  0  0  0  0  0  0  0  0
    0.9819   -0.6681   -1.7755 N   0  0  0  0  0  0  0  0  0  0  0  0
    0.1963   -0.2892   -0.7034 C   0  0  0  0  0  0  0  0  0  0  0  0
   -1.2315   -0.3821   -0.7830 C   0  0  0  0  0  0  0  0  0  0  0  0
   -1.8487   -0.9039   -1.9583 C   0  0  0  0  0  0  0  0  0  0  0  0
   -2.2913   -1.3436   -2.9369 N   0  0  0  0  0  0  0  0  0  0  0  0
   -1.9336    0.0636    0.2791 C   0  0  0  0  0  0  0  0  0  0  0  0
   -3.3526    0.0753    0.4238 C   0  0  0  0  0  0  0  0  0  0  0  0
   -4.3669   -0.7127   -0.1234 C   0  0  0  0  0  0  0  0  0  0  0  0
   -5.6130   -0.2632    0.3866 C   0  0  0  0  0  0  0  0  0  0  0  0
   -5.2977    0.7660    1.2317 C   0  0  0  0  0  0  0  0  0  0  0  0
   -6.1097    1.6134    2.0457 N   0  0  0  0  0  4  0  0  0  0  0  0
   -5.5458    2.4819    2.7229 O   0  0  0  0  0  0  0  0  0  0  0  0
   -7.3301    1.4044    2.0044 O   0  0  0  0  0  1  0  0  0  0  0  0
   -3.9606    0.9788    1.2777 O   0  0  0  0  0  0  0  0  0  0  0  0
    0.9636    0.1251    0.2903 N   0  0  0  0  0  0  0  0  0  0  0  0
    2.2597    0.0138   -0.1484 C   0  0  0  0  0  0  0  0  0  0  0  0
    3.4606    0.3180    0.5088 C   0  0  0  0  0  0  0  0  0  0  0  0
    5.8576    1.2195    1.2573 H   0  0  0  0  0  0  0  0  0  0  0  0
    6.3271   -0.4862    1.0516 H   0  0  0  0  0  0  0  0  0  0  0  0
    6.7415    0.7261   -0.1862 H   0  0  0  0  0  0  0  0  0  0  0  0
    5.6226   -0.5666   -1.9846 H   0  0  0  0  0  0  0  0  0  0  0  0
    3.4968   -1.1022   -3.1512 H   0  0  0  0  0  0  0  0  0  0  0  0
    0.6578   -1.0233   -2.6647 H   0  0  0  0  0  0  0  0  0  0  0  0
   -1.3932    0.4987    1.1210 H   0  0  0  0  0  0  0  0  0  0  0  0
   -4.2378   -1.5391   -0.8104 H   0  0  0  0  0  0  0  0  0  0  0  0
   -6.6010   -0.6472    0.1712 H   0  0  0  0  0  0  0  0  0  0  0  0
    3.4317    0.7009    1.5234 H   0  0  0  0  0  0  0  0  0  0  0  0
  1  2  1  0
  2  3  2  0
  3  4  1  0
  4  5  2  0
  5  6  1  0
  6  7  1  0
  7  8  1  0
  8  9  1  0
  9 10  3  0
  8 11  2  3
 11 12  1  0
 12 13  2  0
 13 14  1  0
 14 15  2  0
 15 16  1  0
 16 17  2  0
 16 18  1  0
 15 19  1  0
  7 20  2  0
 20 21  1  0
 21 22  2  0
 22  2  1  0
 21  5  1  0
 19 12  1  0
  1 23  1  0
  1 24  1  0
  1 25  1  0
  3 26  1  0
  4 27  1  0
  6 28  1  0
 11 29  1  0
 13 30  1  0
 14 31  1  0
 22 32  1  0
M  CHG  2  16   1  18  -1
M  END
$$$$
