
     RDKit          3D

 35 36  0  0  0  0  0  0  0  0999 V2000
   -5.8656   -0.0893   -0.3693 C   0  0  0  0  0  0  0  0  0  0  0  0
   -4.3861   -0.0621   -0.1265 C   0  0  0  0  0  0  0  0  0  0  0  0
   -3.8657   -0.4601    1.1080 C   0  0  0  0  0  0  0  0  0  0  0  0
   -2.4847   -0.4699    1.3249 C   0  0  0  0  0  0  0  0  0  0  0  0
   -1.5970   -0.0753    0.3105 C   0  0  0  0  0  0  0  0  0  0  0  0
   -0.1910   -0.1113    0.5662 N   0  0  0  0  0  0  0  0  0  0  0  0
    0.2613   -0.8256    1.6318 N   0  0  0  0  0  0  0  0  0  0  0  0
    1.5819   -0.8862    1.4725 C   0  0  0  0  0  0  0  0  0  0  0  0
    2.3986   -1.6959    2.4109 C   0  0  0  0  0  0  0  0  0  0  0  0
    2.0188   -0.1139    0.3670 C   0  0  0  0  0  0  0  0  0  0  0  0
    3.3424    0.0232   -0.0235 N   0  0  0  0  0  0  0  0  0  0  0  0
    3.8170    0.4659   -1.2439 C   0  0  0  0  0  0  0  0  0  0  0  0
    3.1370    0.8030   -2.2101 O   0  0  0  0  0  0  0  0  0  0  0  0
    5.3321    0.5715   -1.3128 C   0  0  0  0  0  0  0  0  0  0  0  0
    6.1255   -0.7146   -0.3713 Cl  0  0  0  0  0  0  0  0  0  0  0  0
    0.8696    0.4917   -0.1112 C   0  0  0  0  0  0  0  0  0  0  0  0
    0.7019    1.6323   -1.0520 C   0  0  0  0  0  0  0  0  0  0  0  0
   -2.1182    0.2858   -0.9365 C   0  0  0  0  0  0  0  0  0  0  0  0
   -3.5019    0.2940   -1.1501 C   0  0  0  0  0  0  0  0  0  0  0  0
   -6.1769   -1.0940   -0.6730 H   0  0  0  0  0  0  0  0  0  0  0  0
   -6.4123    0.1954    0.5362 H   0  0  0  0  0  0  0  0  0  0  0  0
   -6.1479    0.6202   -1.1551 H   0  0  0  0  0  0  0  0  0  0  0  0
   -4.5305   -0.7740    1.9104 H   0  0  0  0  0  0  0  0  0  0  0  0
   -2.1141   -0.7836    2.2995 H   0  0  0  0  0  0  0  0  0  0  0  0
    3.1505   -1.0698    2.9010 H   0  0  0  0  0  0  0  0  0  0  0  0
    1.7828   -2.1550    3.1907 H   0  0  0  0  0  0  0  0  0  0  0  0
    2.9139   -2.4971    1.8720 H   0  0  0  0  0  0  0  0  0  0  0  0
    4.0263   -0.4395    0.5682 H   0  0  0  0  0  0  0  0  0  0  0  0
    5.6463    1.5410   -0.9173 H   0  0  0  0  0  0  0  0  0  0  0  0
    5.6584    0.4699   -2.3513 H   0  0  0  0  0  0  0  0  0  0  0  0
   -0.1702    2.2432   -0.7980 H   0  0  0  0  0  0  0  0  0  0  0  0
    1.5580    2.3125   -0.9920 H   0  0  0  0  0  0  0  0  0  0  0  0
    0.6056    1.2840   -2.0841 H   0  0  0  0  0  0  0  0  0  0  0  0
   -1.4823    0.5167   -1.7834 H   0  0  0  0  0  0  0  0  0  0  0  0
   -3.8834    0.5670   -2.1321 H   0  0  0  0  0  0  0  0  0  0  0  0
  1  2  1  0
  2  3  2  0
  3  4  1  0
  4  5  2  0
  5  6  1  0
  6  7  1  0
  7  8  2  0
  8  9  1  0
  8 10  1  0
 10 11  1  0
 11 12  1  0
 12 13  2  0
 12 14  1  0
 14 15  1  0
 10 16  2  0
 16 17  1  0
  5 18  1  0
 18 19  2  0
 19  2  1  0
 16  6  1  0
  1 20  1  0
  1 21  1  0
  1 22  1  0
  3 23  1  0
  4 24  1  0
  9 25  1  0
  9 26  1  0
  9 27  1  0
 11 28  1  0
 14 29  1  0
 14 30  1  0
 17 31  1  0
 17 32  1  0
 17 33  1  0
 18 34  1  0
 19 35  1  0
M  END
$$$$
