
     RDKit          3D

 45 47  0  0  0  0  0  0  0  0999 V2000
   -8.2159    0.5611   -0.1672 N   0  0  0  0  0  0  0  0  0  0  0  0
   -7.3264    0.9241    1.2082 S   0  0  0  0  0  6  0  0  0  0  0  0
   -7.5353    2.3314    1.4575 O   0  0  0  0  0  0  0  0  0  0  0  0
   -7.6600   -0.0914    2.1791 O   0  0  0  0  0  0  0  0  0  0  0  0
   -5.6680    0.6741    0.6491 C   0  0  0  0  0  0  0  0  0  0  0  0
   -4.9433    1.7465    0.1277 C   0  0  0  0  0  0  0  0  0  0  0  0
   -3.6212    1.5492   -0.2814 C   0  0  0  0  0  0  0  0  0  0  0  0
   -3.0197    0.2862   -0.1823 C   0  0  0  0  0  0  0  0  0  0  0  0
   -1.6696    0.1831   -0.5807 N   0  0  0  0  0  0  0  0  0  0  0  0
   -0.9129   -0.9163   -0.9694 C   0  0  0  0  0  0  0  0  0  0  0  0
   -1.5436   -2.3463   -1.5900 S   0  0  0  0  0  0  0  0  0  0  0  0
    0.4702   -0.6717   -0.8484 N   0  0  0  0  0  0  0  0  0  0  0  0
    1.0081    0.3561    0.0643 C   0  0  0  0  0  0  0  0  0  0  0  0
    2.3792   -0.0063    0.6669 C   0  0  0  0  0  0  0  0  0  0  0  0
    3.3645   -0.2870   -0.3856 N   0  0  0  0  0  0  0  0  0  0  0  0
    4.7280   -0.1750   -0.1560 C   0  0  0  0  0  0  0  0  0  0  0  0
    5.2652   -0.1082    1.1403 C   0  0  0  0  0  0  0  0  0  0  0  0
    6.6422    0.0112    1.3693 C   0  0  0  0  0  0  0  0  0  0  0  0
    7.5248    0.0731    0.2987 C   0  0  0  0  0  0  0  0  0  0  0  0
    7.0275    0.0151   -0.9967 C   0  0  0  0  0  0  0  0  0  0  0  0
    5.6494   -0.1071   -1.2150 C   0  0  0  0  0  0  0  0  0  0  0  0
    2.8593   -0.8919   -1.6304 C   0  0  0  0  0  0  0  0  0  0  0  0
    1.4888   -1.5682   -1.4321 C   0  0  0  0  0  0  0  0  0  0  0  0
   -3.7470   -0.7667    0.3789 C   0  0  0  0  0  0  0  0  0  0  0  0
   -5.0708   -0.5788    0.7911 C   0  0  0  0  0  0  0  0  0  0  0  0
   -8.8015   -0.2565    0.0045 H   0  0  0  0  0  0  0  0  0  0  0  0
   -8.7353    1.3838   -0.4738 H   0  0  0  0  0  0  0  0  0  0  0  0
   -5.3943    2.7325    0.0388 H   0  0  0  0  0  0  0  0  0  0  0  0
   -3.0725    2.3954   -0.6879 H   0  0  0  0  0  0  0  0  0  0  0  0
   -1.2243    1.0623   -0.8087 H   0  0  0  0  0  0  0  0  0  0  0  0
    0.3003    0.5398    0.8796 H   0  0  0  0  0  0  0  0  0  0  0  0
    1.0961    1.2782   -0.5234 H   0  0  0  0  0  0  0  0  0  0  0  0
    2.2791   -0.8858    1.3148 H   0  0  0  0  0  0  0  0  0  0  0  0
    2.6976    0.8418    1.2847 H   0  0  0  0  0  0  0  0  0  0  0  0
    4.6205   -0.1718    2.0119 H   0  0  0  0  0  0  0  0  0  0  0  0
    7.0184    0.0520    2.3879 H   0  0  0  0  0  0  0  0  0  0  0  0
    8.5927    0.1671    0.4728 H   0  0  0  0  0  0  0  0  0  0  0  0
    7.7058    0.0701   -1.8436 H   0  0  0  0  0  0  0  0  0  0  0  0
    5.3057   -0.1234   -2.2457 H   0  0  0  0  0  0  0  0  0  0  0  0
    2.7708   -0.1066   -2.3910 H   0  0  0  0  0  0  0  0  0  0  0  0
    3.5492   -1.6569   -2.0071 H   0  0  0  0  0  0  0  0  0  0  0  0
    1.5919   -2.4219   -0.7503 H   0  0  0  0  0  0  0  0  0  0  0  0
    1.1422   -1.9448   -2.3994 H   0  0  0  0  0  0  0  0  0  0  0  0
   -3.2984   -1.7410    0.5452 H   0  0  0  0  0  0  0  0  0  0  0  0
   -5.6172   -1.4106    1.2302 H   0  0  0  0  0  0  0  0  0  0  0  0
  1  2  1  0
  2  3  2  0
  2  4  2  0
  2  5  1  0
  5  6  2  0
  6  7  1  0
  7  8  2  0
  8  9  1  0
  9 10  1  0
 10 11  2  0
 10 12  1  0
 12 13  1  0
 13 14  1  0
 14 15  1  0
 15 16  1  0
 16 17  2  0
 17 18  1  0
 18 19  2  0
 19 20  1  0
 20 21  2  0
 15 22  1  0
 22 23  1  0
  8 24  1  0
 24 25  2  0
 25  5  1  0
 23 12  1  0
 21 16  1  0
  1 26  1  0
  1 27  1  0
  6 28  1  0
  7 29  1  0
  9 30  1  0
 13 31  1  0
 13 32  1  0
 14 33  1  0
 14 34  1  0
 17 35  1  0
 18 36  1  0
 19 37  1  0
 20 38  1  0
 21 39  1  0
 22 40  1  0
 22 41  1  0
 23 42  1  0
 23 43  1  0
 24 44  1  0
 25 45  1  0
M  END
$$$$
