
     RDKit          3D

 48 50  0  0  0  0  0  0  0  0999 V2000
    2.4975   -2.4560   -2.5915 C   0  0  0  0  0  0  0  0  0  0  0  0
    2.7569   -1.5471   -1.4006 C   0  0  0  0  0  0  0  0  0  0  0  0
    3.0991   -0.1319   -1.8554 C   0  0  0  0  0  0  0  0  0  0  0  0
    3.2835    1.0356   -0.5177 S   0  0  0  0  0  6  0  0  0  0  0  0
    3.9441    0.3947    0.6071 O   0  0  0  0  0  0  0  0  0  0  0  0
    3.7760    2.2866   -1.0795 O   0  0  0  0  0  0  0  0  0  0  0  0
    1.6184    1.3496    0.0117 C   0  0  0  0  0  0  0  0  0  0  0  0
    0.5909    0.5598   -0.2013 N   0  0  0  0  0  0  0  0  0  0  0  0
   -0.5427    1.1212    0.3875 C   0  0  0  0  0  0  0  0  0  0  0  0
   -2.0578    0.2491    0.3703 S   0  0  0  0  0  6  0  0  0  0  0  0
   -3.0607    1.2233   -0.0211 O   0  0  0  0  0  0  0  0  0  0  0  0
   -2.1083   -0.4327    1.6498 O   0  0  0  0  0  0  0  0  0  0  0  0
   -1.8960   -0.9578   -0.9139 C   0  0  0  0  0  0  0  0  0  0  0  0
   -2.3818   -0.6799   -2.1932 C   0  0  0  0  0  0  0  0  0  0  0  0
   -2.2513   -1.6392   -3.1982 C   0  0  0  0  0  0  0  0  0  0  0  0
   -1.6383   -2.8725   -2.9298 C   0  0  0  0  0  0  0  0  0  0  0  0
   -1.5238   -3.9061   -4.0122 C   0  0  0  0  0  0  0  0  0  0  0  0
   -1.1890   -3.1514   -1.6313 C   0  0  0  0  0  0  0  0  0  0  0  0
   -1.3168   -2.1984   -0.6215 C   0  0  0  0  0  0  0  0  0  0  0  0
   -0.3629    2.3606    1.0053 C   0  0  0  0  0  0  0  0  0  0  0  0
   -1.2945    3.1718    1.5924 N   0  0  0  0  0  0  0  0  0  0  0  0
   -0.9750    3.9903    2.7598 C   0  0  0  0  0  0  0  0  0  0  0  0
   -0.7237    3.2109    4.0032 C   0  0  0  0  0  0  0  0  0  0  0  0
    0.4182    2.8925    4.7139 C   0  0  0  0  0  0  0  0  0  0  0  0
    0.0028    2.0709    5.7892 C   0  0  0  0  0  0  0  0  0  0  0  0
   -1.3608    1.9393    5.6695 C   0  0  0  0  0  0  0  0  0  0  0  0
   -1.8153    2.6404    4.5911 O   0  0  0  0  0  0  0  0  0  0  0  0
    1.3127    2.7814    0.8884 S   0  0  0  0  0  0  0  0  0  0  0  0
    1.6465   -2.0961   -3.1803 H   0  0  0  0  0  0  0  0  0  0  0  0
    3.3720   -2.5023   -3.2462 H   0  0  0  0  0  0  0  0  0  0  0  0
    2.2714   -3.4765   -2.2525 H   0  0  0  0  0  0  0  0  0  0  0  0
    3.5816   -1.9593   -0.8046 H   0  0  0  0  0  0  0  0  0  0  0  0
    1.8759   -1.5540   -0.7498 H   0  0  0  0  0  0  0  0  0  0  0  0
    4.0617   -0.1356   -2.3806 H   0  0  0  0  0  0  0  0  0  0  0  0
    2.3481    0.2750   -2.5449 H   0  0  0  0  0  0  0  0  0  0  0  0
   -2.8644    0.2677   -2.4154 H   0  0  0  0  0  0  0  0  0  0  0  0
   -2.6360   -1.4224   -4.1946 H   0  0  0  0  0  0  0  0  0  0  0  0
   -0.6975   -4.5987   -3.8056 H   0  0  0  0  0  0  0  0  0  0  0  0
   -2.4569   -4.4783   -4.0809 H   0  0  0  0  0  0  0  0  0  0  0  0
   -1.3215   -3.4299   -4.9808 H   0  0  0  0  0  0  0  0  0  0  0  0
   -0.7371   -4.1152   -1.3984 H   0  0  0  0  0  0  0  0  0  0  0  0
   -0.9589   -2.4276    0.3811 H   0  0  0  0  0  0  0  0  0  0  0  0
   -2.2474    2.8031    1.6709 H   0  0  0  0  0  0  0  0  0  0  0  0
   -1.8343    4.6544    2.9408 H   0  0  0  0  0  0  0  0  0  0  0  0
   -0.1321    4.6563    2.5490 H   0  0  0  0  0  0  0  0  0  0  0  0
    1.4266    3.2023    4.4721 H   0  0  0  0  0  0  0  0  0  0  0  0
    0.6181    1.6218    6.5521 H   0  0  0  0  0  0  0  0  0  0  0  0
   -2.1175    1.4099    6.2341 H   0  0  0  0  0  0  0  0  0  0  0  0
  1  2  1  0
  2  3  1  0
  3  4  1  0
  4  5  2  0
  4  6  2  0
  4  7  1  0
  7  8  2  0
  8  9  1  0
  9 10  1  0
 10 11  2  0
 10 12  2  0
 10 13  1  0
 13 14  2  0
 14 15  1  0
 15 16  2  0
 16 17  1  0
 16 18  1  0
 18 19  2  0
  9 20  2  0
 20 21  1  0
 21 22  1  0
 22 23  1  0
 23 24  2  0
 24 25  1  0
 25 26  2  0
 26 27  1  0
 20 28  1  0
 28  7  1  0
 19 13  1  0
 27 23  1  0
  1 29  1  0
  1 30  1  0
  1 31  1  0
  2 32  1  0
  2 33  1  0
  3 34  1  0
  3 35  1  0
 14 36  1  0
 15 37  1  0
 17 38  1  0
 17 39  1  0
 17 40  1  0
 18 41  1  0
 19 42  1  0
 21 43  1  0
 22 44  1  0
 22 45  1  0
 24 46  1  0
 25 47  1  0
 26 48  1  0
M  END
$$$$
