
     RDKit          3D

 66 70  0  0  0  0  0  0  0  0999 V2000
    4.1543    2.2337    0.7369 C   0  0  0  0  0  0  0  0  0  0  0  0
    3.8292    1.4857   -0.5045 C   0  0  0  0  0  0  0  0  0  0  0  0
    2.5828    1.0803   -0.9497 C   0  0  0  0  0  0  0  0  0  0  0  0
    1.2269    1.2641   -0.3315 C   0  0  0  0  0  0  0  0  0  0  0  0
    0.8886    0.1422    0.6520 C   0  0  0  0  0  0  0  0  0  0  0  0
   -0.4192    0.3345    1.2105 O   0  0  0  0  0  0  0  0  0  0  0  0
   -1.4513   -0.1065    0.4261 C   0  0  0  0  0  0  0  0  0  0  0  0
   -1.2998   -0.5862   -0.6855 O   0  0  0  0  0  0  0  0  0  0  0  0
   -2.7614    0.1207    1.1535 C   0  0  0  0  0  0  0  0  0  0  0  0
   -4.0542   -0.2870    0.4122 C   0  0  0  0  0  0  0  0  0  0  0  0
   -4.0956   -1.8062    0.1130 C   0  0  0  0  0  0  0  0  0  0  0  0
   -5.4208   -2.1896   -0.5669 C   0  0  0  0  0  0  0  0  0  0  0  0
   -6.5912   -1.8413    0.3637 C   0  0  0  0  0  0  0  0  0  0  0  0
   -6.5913   -0.3359    0.6624 C   0  0  0  0  0  0  0  0  0  0  0  0
   -6.7392    0.4448   -0.6519 C   0  0  0  0  0  0  0  0  0  0  0  0
   -5.5689    0.1168   -1.6051 C   0  0  0  0  0  0  0  0  0  0  0  0
   -5.7219    0.8924   -2.9171 C   0  0  0  0  0  0  0  0  0  0  0  0
   -5.5639   -1.4043   -1.8812 C   0  0  0  0  0  0  0  0  0  0  0  0
   -4.2398    0.4996   -0.9107 C   0  0  0  0  0  0  0  0  0  0  0  0
   -5.2630    0.0471    1.3329 C   0  0  0  0  0  0  0  0  0  0  0  0
    2.7313    0.2601   -2.4519 S   0  0  0  0  0  0  0  0  0  0  0  0
    4.4255    0.4583   -2.4608 C   0  0  0  0  0  0  0  0  0  0  0  0
    4.8445    1.0905   -1.3766 N   0  0  0  0  0  4  0  0  0  0  0  0
    6.2774    1.3625   -1.1888 C   0  0  0  0  0  0  0  0  0  0  0  0
    6.8546    0.4891   -0.0954 C   0  0  0  0  0  0  0  0  0  0  0  0
    7.4939    1.0771    1.0131 C   0  0  0  0  0  0  0  0  0  0  0  0
    8.0424    0.2850    2.0262 C   0  0  0  0  0  0  0  0  0  0  0  0
    7.9672   -1.1093    1.9315 C   0  0  0  0  0  0  0  0  0  0  0  0
    8.5520   -1.9453    2.9878 N   0  0  0  0  0  4  0  0  0  0  0  0
    8.6489   -3.1606    2.7669 O   0  0  0  0  0  0  0  0  0  0  0  0
    8.9084   -1.3794    4.0291 O   0  0  0  0  0  1  0  0  0  0  0  0
    7.3446   -1.7109    0.8321 C   0  0  0  0  0  0  0  0  0  0  0  0
    6.7939   -0.9126   -0.1767 C   0  0  0  0  0  0  0  0  0  0  0  0
    4.5821    1.5632    1.4876 H   0  0  0  0  0  0  0  0  0  0  0  0
    4.8539    3.0511    0.5425 H   0  0  0  0  0  0  0  0  0  0  0  0
    3.2585    2.6843    1.1764 H   0  0  0  0  0  0  0  0  0  0  0  0
    0.4586    1.3331   -1.1109 H   0  0  0  0  0  0  0  0  0  0  0  0
    1.1779    2.2281    0.1893 H   0  0  0  0  0  0  0  0  0  0  0  0
    1.5960    0.1513    1.4891 H   0  0  0  0  0  0  0  0  0  0  0  0
    0.9712   -0.8503    0.1921 H   0  0  0  0  0  0  0  0  0  0  0  0
   -2.8109    1.1908    1.3927 H   0  0  0  0  0  0  0  0  0  0  0  0
   -2.7005   -0.4326    2.0992 H   0  0  0  0  0  0  0  0  0  0  0  0
   -3.2672   -2.1028   -0.5394 H   0  0  0  0  0  0  0  0  0  0  0  0
   -3.9803   -2.3767    1.0436 H   0  0  0  0  0  0  0  0  0  0  0  0
   -5.4268   -3.2649   -0.7780 H   0  0  0  0  0  0  0  0  0  0  0  0
   -7.5403   -2.1318   -0.1031 H   0  0  0  0  0  0  0  0  0  0  0  0
   -6.5090   -2.4090    1.2986 H   0  0  0  0  0  0  0  0  0  0  0  0
   -7.4253   -0.0927    1.3303 H   0  0  0  0  0  0  0  0  0  0  0  0
   -7.6972    0.1926   -1.1249 H   0  0  0  0  0  0  0  0  0  0  0  0
   -6.7666    1.5212   -0.4398 H   0  0  0  0  0  0  0  0  0  0  0  0
   -4.8986    0.6708   -3.6047 H   0  0  0  0  0  0  0  0  0  0  0  0
   -5.7273    1.9730   -2.7390 H   0  0  0  0  0  0  0  0  0  0  0  0
   -6.6584    0.6332   -3.4231 H   0  0  0  0  0  0  0  0  0  0  0  0
   -6.4925   -1.6999   -2.3864 H   0  0  0  0  0  0  0  0  0  0  0  0
   -4.7407   -1.6651   -2.5590 H   0  0  0  0  0  0  0  0  0  0  0  0
   -4.2225    1.5789   -0.7070 H   0  0  0  0  0  0  0  0  0  0  0  0
   -3.4105    0.3019   -1.5991 H   0  0  0  0  0  0  0  0  0  0  0  0
   -5.1694   -0.4865    2.2877 H   0  0  0  0  0  0  0  0  0  0  0  0
   -5.2707    1.1184    1.5730 H   0  0  0  0  0  0  0  0  0  0  0  0
    5.0601    0.0963   -3.2610 H   0  0  0  0  0  0  0  0  0  0  0  0
    6.4073    2.4274   -0.9684 H   0  0  0  0  0  0  0  0  0  0  0  0
    6.8248    1.1720   -2.1197 H   0  0  0  0  0  0  0  0  0  0  0  0
    7.5804    2.1605    1.1072 H   0  0  0  0  0  0  0  0  0  0  0  0
    8.5339    0.7639    2.8730 H   0  0  0  0  0  0  0  0  0  0  0  0
    7.2919   -2.7965    0.7439 H   0  0  0  0  0  0  0  0  0  0  0  0
    6.3333   -1.4127   -1.0275 H   0  0  0  0  0  0  0  0  0  0  0  0
  1  2  1  0
  2  3  2  0
  3  4  1  0
  4  5  1  0
  5  6  1  0
  6  7  1  0
  7  8  2  0
  7  9  1  0
  9 10  1  0
 10 11  1  0
 11 12  1  0
 12 13  1  0
 13 14  1  0
 14 15  1  0
 15 16  1  0
 16 17  1  0
 16 18  1  0
 16 19  1  0
 14 20  1  0
  3 21  1  0
 21 22  1  0
 22 23  2  0
 23 24  1  0
 24 25  1  0
 25 26  2  0
 26 27  1  0
 27 28  2  0
 28 29  1  0
 29 30  2  0
 29 31  1  0
 28 32  1  0
 32 33  2  0
 23  2  1  0
 33 25  1  0
 19 10  1  0
 20 10  1  0
 18 12  1  0
  1 34  1  0
  1 35  1  0
  1 36  1  0
  4 37  1  0
  4 38  1  0
  5 39  1  0
  5 40  1  0
  9 41  1  0
  9 42  1  0
 11 43  1  0
 11 44  1  0
 12 45  1  0
 13 46  1  0
 13 47  1  0
 14 48  1  0
 15 49  1  0
 15 50  1  0
 17 51  1  0
 17 52  1  0
 17 53  1  0
 18 54  1  0
 18 55  1  0
 19 56  1  0
 19 57  1  0
 20 58  1  0
 20 59  1  0
 22 60  1  0
 24 61  1  0
 24 62  1  0
 26 63  1  0
 27 64  1  0
 32 65  1  0
 33 66  1  0
M  CHG  3  23   1  29   1  31  -1
M  END
$$$$
