
     RDKit          3D

 33 36  0  0  0  0  0  0  0  0999 V2000
   -1.2541    2.3570   -0.4876 O   0  0  0  0  0  0  0  0  0  0  0  0
   -0.7337    1.2992   -0.1358 C   0  0  0  0  0  0  0  0  0  0  0  0
    0.7307    1.3372    0.0955 C   0  0  0  0  0  0  0  0  0  0  0  0
    1.3717    2.5831    0.1534 C   0  0  0  0  0  0  0  0  0  0  0  0
    2.7476    2.6553    0.3191 C   0  0  0  0  0  0  0  0  0  0  0  0
    3.4918    1.4824    0.4212 C   0  0  0  0  0  0  0  0  0  0  0  0
    2.8756    0.2062    0.3710 C   0  0  0  0  0  0  0  0  0  0  0  0
    3.5686   -1.0297    0.4574 C   0  0  0  0  0  0  0  0  0  0  0  0
    5.0115   -1.0645    0.6305 N   0  0  0  0  0  4  0  0  0  0  0  0
    5.6684   -1.6186   -0.2601 O   0  0  0  0  0  0  0  0  0  0  0  0
    5.4721   -0.5592    1.6620 O   0  0  0  0  0  1  0  0  0  0  0  0
    2.9186   -2.2652    0.3782 C   0  0  0  0  0  0  0  0  0  0  0  0
    1.5373   -2.2876    0.2311 C   0  0  0  0  0  0  0  0  0  0  0  0
    0.8106   -1.0867    0.1522 C   0  0  0  0  0  0  0  0  0  0  0  0
    1.4619    0.1515    0.2085 C   0  0  0  0  0  0  0  0  0  0  0  0
   -0.6700   -1.1549    0.0542 C   0  0  0  0  0  0  0  0  0  0  0  0
   -1.1661   -2.2793    0.1070 O   0  0  0  0  0  0  0  0  0  0  0  0
   -1.3669    0.0527   -0.0390 N   0  0  0  0  0  0  0  0  0  0  0  0
   -2.8051    0.0488   -0.0517 C   0  0  0  0  0  0  0  0  0  0  0  0
   -3.5407   -1.0089   -0.5912 C   0  0  0  0  0  0  0  0  0  0  0  0
   -4.9367   -0.9740   -0.5648 C   0  0  0  0  0  0  0  0  0  0  0  0
   -5.5809    0.1154   -0.0021 C   0  0  0  0  0  0  0  0  0  0  0  0
   -4.7964    1.1276    0.5113 C   0  0  0  0  0  0  0  0  0  0  0  0
   -3.4456    1.1091    0.5010 N   0  0  0  0  0  0  0  0  0  0  0  0
    0.7967    3.5042    0.0621 H   0  0  0  0  0  0  0  0  0  0  0  0
    3.2420    3.6236    0.3622 H   0  0  0  0  0  0  0  0  0  0  0  0
    4.5701    1.5860    0.5428 H   0  0  0  0  0  0  0  0  0  0  0  0
    3.4733   -3.1998    0.4397 H   0  0  0  0  0  0  0  0  0  0  0  0
    1.0240   -3.2483    0.1874 H   0  0  0  0  0  0  0  0  0  0  0  0
   -3.0633   -1.8575   -1.0685 H   0  0  0  0  0  0  0  0  0  0  0  0
   -5.5099   -1.7935   -0.9894 H   0  0  0  0  0  0  0  0  0  0  0  0
   -6.6624    0.1770    0.0309 H   0  0  0  0  0  0  0  0  0  0  0  0
   -5.2409    2.0113    0.9600 H   0  0  0  0  0  0  0  0  0  0  0  0
  1  2  2  0
  2  3  1  0
  3  4  1  0
  4  5  2  0
  5  6  1  0
  6  7  2  0
  7  8  1  0
  8  9  1  0
  9 10  2  0
  9 11  1  0
  8 12  2  0
 12 13  1  0
 13 14  2  0
 14 15  1  0
 14 16  1  0
 16 17  2  0
 16 18  1  0
 18 19  1  0
 19 20  2  0
 20 21  1  0
 21 22  2  0
 22 23  1  0
 23 24  2  0
 18  2  1  0
 24 19  1  0
 15  3  2  0
 15  7  1  0
  4 25  1  0
  5 26  1  0
  6 27  1  0
 12 28  1  0
 13 29  1  0
 20 30  1  0
 21 31  1  0
 22 32  1  0
 23 33  1  0
M  CHG  2   9   1  11  -1
M  END
$$$$
