
     RDKit          3D

 43 44  0  0  0  0  0  0  0  0999 V2000
    0.3918    2.7546    1.3253 C   0  0  0  0  0  0  0  0  0  0  0  0
   -0.8988    2.5017    0.5718 C   0  0  0  0  0  0  0  0  0  0  0  0
   -1.0590    1.0840    0.4211 O   0  0  0  0  0  0  0  0  0  0  0  0
   -2.2414    0.7183   -0.1705 C   0  0  0  0  0  0  0  0  0  0  0  0
   -3.0586    1.5320   -0.5852 O   0  0  0  0  0  0  0  0  0  0  0  0
   -2.4355   -0.7383   -0.2450 C   0  0  0  0  0  0  0  0  0  0  0  0
   -1.5115   -1.6885    0.1759 C   0  0  0  0  0  0  0  0  0  0  0  0
   -0.2495   -1.4528    0.7010 N   0  0  0  0  0  0  0  0  0  0  0  0
    0.6700   -2.3793    1.1700 C   0  0  0  0  0  0  0  0  0  0  0  0
    0.5283   -3.5930    1.2738 O   0  0  0  0  0  0  0  0  0  0  0  0
    1.9600   -1.7082    1.6384 C   0  0  0  0  0  0  0  0  0  0  0  0
    2.3378   -0.6836    0.7126 O   0  0  0  0  0  0  0  0  0  0  0  0
    3.4678   -0.0237    1.0630 C   0  0  0  0  0  0  0  0  0  0  0  0
    4.0912   -0.1786    2.0996 O   0  0  0  0  0  0  0  0  0  0  0  0
    3.8456    0.9557    0.0135 C   0  0  0  0  0  0  0  0  0  0  0  0
    3.2309    0.9814   -1.2402 C   0  0  0  0  0  0  0  0  0  0  0  0
    3.6483    1.9396   -2.1457 C   0  0  0  0  0  0  0  0  0  0  0  0
    4.6130    2.8465   -1.8839 N   0  0  0  0  0  0  0  0  0  0  0  0
    5.1988    2.7927   -0.6687 C   0  0  0  0  0  0  0  0  0  0  0  0
    4.8545    1.8749    0.3054 C   0  0  0  0  0  0  0  0  0  0  0  0
   -2.0711   -3.2730   -0.0360 S   0  0  0  0  0  0  0  0  0  0  0  0
   -3.5517   -2.7630   -0.6975 C   0  0  0  0  0  0  0  0  0  0  0  0
   -4.5579   -3.7851   -1.1181 C   0  0  0  0  0  0  0  0  0  0  0  0
   -3.6388   -1.3819   -0.7684 C   0  0  0  0  0  0  0  0  0  0  0  0
   -4.8246   -0.6389   -1.3097 C   0  0  0  0  0  0  0  0  0  0  0  0
    0.5444    3.8247    1.4916 H   0  0  0  0  0  0  0  0  0  0  0  0
    0.3834    2.2419    2.2931 H   0  0  0  0  0  0  0  0  0  0  0  0
    1.2445    2.3609    0.7657 H   0  0  0  0  0  0  0  0  0  0  0  0
   -0.8508    2.9730   -0.4161 H   0  0  0  0  0  0  0  0  0  0  0  0
   -1.7407    2.9137    1.1396 H   0  0  0  0  0  0  0  0  0  0  0  0
    0.0323   -0.4768    0.7412 H   0  0  0  0  0  0  0  0  0  0  0  0
    2.7482   -2.4684    1.6820 H   0  0  0  0  0  0  0  0  0  0  0  0
    1.7806   -1.2827    2.6324 H   0  0  0  0  0  0  0  0  0  0  0  0
    2.4529    0.2798   -1.5194 H   0  0  0  0  0  0  0  0  0  0  0  0
    3.2078    2.0064   -3.1370 H   0  0  0  0  0  0  0  0  0  0  0  0
    5.9768    3.5313   -0.4952 H   0  0  0  0  0  0  0  0  0  0  0  0
    5.3603    1.8783    1.2660 H   0  0  0  0  0  0  0  0  0  0  0  0
   -4.2472   -4.8061   -0.8739 H   0  0  0  0  0  0  0  0  0  0  0  0
   -5.5148   -3.6026   -0.6183 H   0  0  0  0  0  0  0  0  0  0  0  0
   -4.7178   -3.7329   -2.2001 H   0  0  0  0  0  0  0  0  0  0  0  0
   -5.2497    0.0133   -0.5400 H   0  0  0  0  0  0  0  0  0  0  0  0
   -5.6180   -1.3163   -1.6399 H   0  0  0  0  0  0  0  0  0  0  0  0
   -4.5318   -0.0313   -2.1721 H   0  0  0  0  0  0  0  0  0  0  0  0
  1  2  1  0
  2  3  1  0
  3  4  1  0
  4  5  2  0
  4  6  1  0
  6  7  2  0
  7  8  1  0
  8  9  1  0
  9 10  2  0
  9 11  1  0
 11 12  1  0
 12 13  1  0
 13 14  2  0
 13 15  1  0
 15 16  2  0
 16 17  1  0
 17 18  2  0
 18 19  1  0
 19 20  2  0
  7 21  1  0
 21 22  1  0
 22 23  1  0
 22 24  2  0
 24 25  1  0
 24  6  1  0
 20 15  1  0
  1 26  1  0
  1 27  1  0
  1 28  1  0
  2 29  1  0
  2 30  1  0
  8 31  1  0
 11 32  1  0
 11 33  1  0
 16 34  1  0
 17 35  1  0
 19 36  1  0
 20 37  1  0
 23 38  1  0
 23 39  1  0
 23 40  1  0
 25 41  1  0
 25 42  1  0
 25 43  1  0
M  END
$$$$
