
     RDKit          3D

 49 52  0  0  0  0  0  0  0  0999 V2000
    0.1823   -2.3363    1.9432 C   0  0  0  0  0  0  0  0  0  0  0  0
    0.3451   -0.9519    1.3196 C   0  0  0  0  0  0  0  0  0  0  0  0
    1.7077   -0.7487    0.8637 N   0  0  0  0  0  0  0  0  0  0  0  0
    2.7204   -0.4173    1.7133 C   0  0  0  0  0  0  0  0  0  0  0  0
    2.5787   -0.2578    2.9206 O   0  0  0  0  0  0  0  0  0  0  0  0
    4.0450   -0.1860    1.0901 C   0  0  0  0  0  0  0  0  0  0  0  0
    4.4674   -0.8130   -0.0169 C   0  0  0  0  0  0  0  0  0  0  0  0
    5.7585   -0.5977   -0.5749 C   0  0  0  0  0  0  0  0  0  0  0  0
    6.8077    0.2338   -0.1926 C   0  0  0  0  0  0  0  0  0  0  0  0
    7.8707    0.0527   -1.1100 C   0  0  0  0  0  0  0  0  0  0  0  0
    7.4287   -0.8782   -2.0125 C   0  0  0  0  0  0  0  0  0  0  0  0
    6.1712   -1.2734   -1.7045 O   0  0  0  0  0  0  0  0  0  0  0  0
   -0.5441   -0.8047    0.1114 C   0  0  0  0  0  0  0  0  0  0  0  0
   -0.1397   -0.9964   -1.1336 N   0  0  0  0  0  0  0  0  0  0  0  0
   -1.2473   -0.8296   -1.9183 C   0  0  0  0  0  0  0  0  0  0  0  0
   -1.3680   -0.9508   -3.3108 C   0  0  0  0  0  0  0  0  0  0  0  0
   -2.6221   -0.7633   -3.8999 C   0  0  0  0  0  0  0  0  0  0  0  0
   -3.7349   -0.4651   -3.1154 C   0  0  0  0  0  0  0  0  0  0  0  0
   -3.6309   -0.3367   -1.7248 C   0  0  0  0  0  0  0  0  0  0  0  0
   -2.3649   -0.5152   -1.1499 C   0  0  0  0  0  0  0  0  0  0  0  0
   -1.8828   -0.4496    0.1435 N   0  0  0  0  0  0  0  0  0  0  0  0
   -2.6695   -0.1668    1.3443 C   0  0  0  0  0  0  0  0  0  0  0  0
   -3.4196    1.1488    1.3096 C   0  0  0  0  0  0  0  0  0  0  0  0
   -2.7477    2.3841    1.2046 C   0  0  0  0  0  0  0  0  0  0  0  0
   -1.0238    2.5030    1.1626 Cl  0  0  0  0  0  0  0  0  0  0  0  0
   -3.4504    3.5956    1.1659 C   0  0  0  0  0  0  0  0  0  0  0  0
   -4.8375    3.6084    1.2512 C   0  0  0  0  0  0  0  0  0  0  0  0
   -5.5227    2.4076    1.3909 C   0  0  0  0  0  0  0  0  0  0  0  0
   -4.8246    1.1934    1.4288 C   0  0  0  0  0  0  0  0  0  0  0  0
   -5.7858   -0.2314    1.6399 Cl  0  0  0  0  0  0  0  0  0  0  0  0
   -0.8486   -2.5049    2.2724 H   0  0  0  0  0  0  0  0  0  0  0  0
    0.4378   -3.1284    1.2293 H   0  0  0  0  0  0  0  0  0  0  0  0
    0.8362   -2.4563    2.8134 H   0  0  0  0  0  0  0  0  0  0  0  0
    0.1298   -0.1824    2.0668 H   0  0  0  0  0  0  0  0  0  0  0  0
    1.8344   -0.7560   -0.1430 H   0  0  0  0  0  0  0  0  0  0  0  0
    4.6727    0.4937    1.6548 H   0  0  0  0  0  0  0  0  0  0  0  0
    3.8408   -1.5356   -0.5309 H   0  0  0  0  0  0  0  0  0  0  0  0
    6.8082    0.9012    0.6580 H   0  0  0  0  0  0  0  0  0  0  0  0
    8.8350    0.5404   -1.1108 H   0  0  0  0  0  0  0  0  0  0  0  0
    7.8639   -1.3426   -2.8863 H   0  0  0  0  0  0  0  0  0  0  0  0
   -0.4981   -1.1940   -3.9106 H   0  0  0  0  0  0  0  0  0  0  0  0
   -2.7277   -0.8579   -4.9778 H   0  0  0  0  0  0  0  0  0  0  0  0
   -4.7039   -0.3298   -3.5919 H   0  0  0  0  0  0  0  0  0  0  0  0
   -4.5107   -0.1095   -1.1365 H   0  0  0  0  0  0  0  0  0  0  0  0
   -3.3202   -1.0380    1.4593 H   0  0  0  0  0  0  0  0  0  0  0  0
   -2.0153   -0.1677    2.2203 H   0  0  0  0  0  0  0  0  0  0  0  0
   -2.9140    4.5385    1.0768 H   0  0  0  0  0  0  0  0  0  0  0  0
   -5.3797    4.5503    1.2224 H   0  0  0  0  0  0  0  0  0  0  0  0
   -6.6077    2.4217    1.4751 H   0  0  0  0  0  0  0  0  0  0  0  0
  1  2  1  0
  2  3  1  0
  3  4  1  0
  4  5  2  0
  4  6  1  0
  6  7  2  3
  7  8  1  0
  8  9  2  0
  9 10  1  0
 10 11  2  0
 11 12  1  0
  2 13  1  0
 13 14  2  0
 14 15  1  0
 15 16  2  0
 16 17  1  0
 17 18  2  0
 18 19  1  0
 19 20  2  0
 20 21  1  0
 21 22  1  0
 22 23  1  0
 23 24  2  0
 24 25  1  0
 24 26  1  0
 26 27  2  0
 27 28  1  0
 28 29  2  0
 29 30  1  0
 12  8  1  0
 21 13  1  0
 29 23  1  0
 20 15  1  0
  1 31  1  0
  1 32  1  0
  1 33  1  0
  2 34  1  0
  3 35  1  0
  6 36  1  0
  7 37  1  0
  9 38  1  0
 10 39  1  0
 11 40  1  0
 16 41  1  0
 17 42  1  0
 18 43  1  0
 19 44  1  0
 22 45  1  0
 22 46  1  0
 26 47  1  0
 27 48  1  0
 28 49  1  0
M  END
$$$$
