
     RDKit          3D

 43 44  0  0  0  0  0  0  0  0999 V2000
   -6.5115   -0.1939   -1.0306 C   0  0  0  0  0  0  0  0  0  0  0  0
   -5.9766    1.1940   -0.7039 C   0  0  0  0  0  0  0  0  0  0  0  0
   -4.4548    1.2913   -0.8114 C   0  0  0  0  0  0  0  0  0  0  0  0
   -3.7594    0.5107    0.2379 C   0  0  0  0  0  0  0  0  0  0  0  0
   -3.1761   -0.6669    0.1617 N   0  0  0  0  0  0  0  0  0  0  0  0
   -2.6946   -0.9361    1.4225 N   0  0  0  0  0  0  0  0  0  0  0  0
   -2.9939    0.1042    2.1772 C   0  0  0  0  0  0  0  0  0  0  0  0
   -2.5484    0.2686    3.8450 S   0  0  0  0  0  0  0  0  0  0  0  0
   -1.3364   -1.0728    4.0086 C   0  0  0  0  0  0  0  0  0  0  0  0
   -0.0184   -0.6971    3.3451 C   0  0  0  0  0  0  0  0  0  0  0  0
    0.8571   -0.1143    3.9798 O   0  0  0  0  0  0  0  0  0  0  0  0
    0.0527   -1.0730    2.0138 N   0  0  0  0  0  0  0  0  0  0  0  0
    1.1268   -0.8896    1.1215 C   0  0  0  0  0  0  0  0  0  0  0  0
    0.9031   -1.2291   -0.2187 C   0  0  0  0  0  0  0  0  0  0  0  0
    1.9159   -1.0798   -1.1718 C   0  0  0  0  0  0  0  0  0  0  0  0
    3.1719   -0.5900   -0.7967 C   0  0  0  0  0  0  0  0  0  0  0  0
    4.2157   -0.4479   -1.8481 C   0  0  0  0  0  0  0  0  0  0  0  0
    4.0266   -0.7214   -3.0229 O   0  0  0  0  0  0  0  0  0  0  0  0
    5.3708    0.0203   -1.3140 O   0  0  0  0  0  0  0  0  0  0  0  0
    6.4579    0.1967   -2.2341 C   0  0  0  0  0  0  0  0  0  0  0  0
    6.3813    1.5686   -2.8772 C   0  0  0  0  0  0  0  0  0  0  0  0
    3.3984   -0.2533    0.5428 C   0  0  0  0  0  0  0  0  0  0  0  0
    2.3807   -0.4038    1.4946 C   0  0  0  0  0  0  0  0  0  0  0  0
   -3.6851    1.0632    1.4872 O   0  0  0  0  0  0  0  0  0  0  0  0
   -7.6058   -0.1910   -1.0026 H   0  0  0  0  0  0  0  0  0  0  0  0
   -6.1614   -0.9387   -0.3094 H   0  0  0  0  0  0  0  0  0  0  0  0
   -6.1996   -0.5090   -2.0314 H   0  0  0  0  0  0  0  0  0  0  0  0
   -6.4224    1.9098   -1.4049 H   0  0  0  0  0  0  0  0  0  0  0  0
   -6.3086    1.4822    0.3008 H   0  0  0  0  0  0  0  0  0  0  0  0
   -4.1574    2.3432   -0.7253 H   0  0  0  0  0  0  0  0  0  0  0  0
   -4.1257    0.9514   -1.8002 H   0  0  0  0  0  0  0  0  0  0  0  0
   -1.7224   -2.0168    3.6102 H   0  0  0  0  0  0  0  0  0  0  0  0
   -1.1407   -1.2386    5.0735 H   0  0  0  0  0  0  0  0  0  0  0  0
   -0.8062   -1.4280    1.5945 H   0  0  0  0  0  0  0  0  0  0  0  0
   -0.0646   -1.6078   -0.5429 H   0  0  0  0  0  0  0  0  0  0  0  0
    1.7177   -1.3471   -2.2082 H   0  0  0  0  0  0  0  0  0  0  0  0
    6.4762   -0.5992   -2.9875 H   0  0  0  0  0  0  0  0  0  0  0  0
    7.3835    0.1129   -1.6552 H   0  0  0  0  0  0  0  0  0  0  0  0
    7.2379    1.7365   -3.5360 H   0  0  0  0  0  0  0  0  0  0  0  0
    5.4632    1.6773   -3.4632 H   0  0  0  0  0  0  0  0  0  0  0  0
    6.3650    2.3516   -2.1119 H   0  0  0  0  0  0  0  0  0  0  0  0
    4.3625    0.1295    0.8692 H   0  0  0  0  0  0  0  0  0  0  0  0
    2.6055   -0.1346    2.5223 H   0  0  0  0  0  0  0  0  0  0  0  0
  1  2  1  0
  2  3  1  0
  3  4  1  0
  4  5  2  0
  5  6  1  0
  6  7  2  0
  7  8  1  0
  8  9  1  0
  9 10  1  0
 10 11  2  0
 10 12  1  0
 12 13  1  0
 13 14  2  0
 14 15  1  0
 15 16  2  0
 16 17  1  0
 17 18  2  0
 17 19  1  0
 19 20  1  0
 20 21  1  0
 16 22  1  0
 22 23  2  0
  7 24  1  0
 24  4  1  0
 23 13  1  0
  1 25  1  0
  1 26  1  0
  1 27  1  0
  2 28  1  0
  2 29  1  0
  3 30  1  0
  3 31  1  0
  9 32  1  0
  9 33  1  0
 12 34  1  0
 14 35  1  0
 15 36  1  0
 20 37  1  0
 20 38  1  0
 21 39  1  0
 21 40  1  0
 21 41  1  0
 22 42  1  0
 23 43  1  0
M  END
$$$$
