
     RDKit          3D

 48 50  0  0  0  0  0  0  0  0999 V2000
   -3.6054    2.5511   -0.9168 C   0  0  0  0  0  0  0  0  0  0  0  0
   -4.3784    1.6194    0.0105 C   0  0  0  0  0  0  0  0  0  0  0  0
   -4.2219    0.1307   -0.3624 C   0  0  0  0  0  0  0  0  0  0  0  0
   -2.8770   -0.3411   -0.0987 N   0  0  0  0  0  0  0  0  0  0  0  0
   -1.9202   -0.4881   -1.0775 C   0  0  0  0  0  0  0  0  0  0  0  0
   -2.1212   -0.2449   -2.2636 O   0  0  0  0  0  0  0  0  0  0  0  0
   -0.6271   -0.9647   -0.5816 C   0  0  0  0  0  0  0  0  0  0  0  0
    0.5333   -1.2489   -1.3435 C   0  0  0  0  0  0  0  0  0  0  0  0
    1.4651   -1.6570   -0.4208 C   0  0  0  0  0  0  0  0  0  0  0  0
    2.8736   -2.1050   -0.4979 C   0  0  0  0  0  0  0  0  0  0  0  0
    3.5475   -1.2681   -1.4445 O   0  0  0  0  0  0  0  0  0  0  0  0
    4.5084   -0.4583   -0.8968 C   0  0  0  0  0  0  0  0  0  0  0  0
    4.2130    0.4236    0.1448 C   0  0  0  0  0  0  0  0  0  0  0  0
    5.2037    1.2734    0.6520 C   0  0  0  0  0  0  0  0  0  0  0  0
    6.4883    1.2604    0.1082 C   0  0  0  0  0  0  0  0  0  0  0  0
    7.5389    2.0391    0.5090 O   0  0  0  0  0  0  0  0  0  0  0  0
    7.3000    2.9473    1.5777 C   0  0  0  0  0  0  0  0  0  0  0  0
    6.7753    0.3951   -0.9502 C   0  0  0  0  0  0  0  0  0  0  0  0
    5.7895   -0.4545   -1.4567 C   0  0  0  0  0  0  0  0  0  0  0  0
    6.1981   -1.5044   -2.7659 Cl  0  0  0  0  0  0  0  0  0  0  0  0
    0.9072   -1.6235    0.8190 O   0  0  0  0  0  0  0  0  0  0  0  0
   -0.4027   -1.1888    0.7275 N   0  0  0  0  0  0  0  0  0  0  0  0
   -5.2044   -0.7693    0.3666 C   0  0  0  0  0  0  0  0  0  0  0  0
   -5.4786   -0.6354    1.7332 C   0  0  0  0  0  0  0  0  0  0  0  0
   -6.3728   -1.5161    2.3260 C   0  0  0  0  0  0  0  0  0  0  0  0
   -6.9993   -2.5125    1.6653 N   0  0  0  0  0  0  0  0  0  0  0  0
   -6.7125   -2.6400    0.3534 C   0  0  0  0  0  0  0  0  0  0  0  0
   -5.8350   -1.8099   -0.3283 C   0  0  0  0  0  0  0  0  0  0  0  0
   -2.5267    2.3873   -0.8377 H   0  0  0  0  0  0  0  0  0  0  0  0
   -3.8043    3.5955   -0.6500 H   0  0  0  0  0  0  0  0  0  0  0  0
   -3.9041    2.4061   -1.9609 H   0  0  0  0  0  0  0  0  0  0  0  0
   -4.0423    1.8010    1.0391 H   0  0  0  0  0  0  0  0  0  0  0  0
   -5.4389    1.8991   -0.0338 H   0  0  0  0  0  0  0  0  0  0  0  0
   -4.4196    0.0440   -1.4389 H   0  0  0  0  0  0  0  0  0  0  0  0
   -2.6048   -0.5819    0.8489 H   0  0  0  0  0  0  0  0  0  0  0  0
    0.6624   -1.1610   -2.4134 H   0  0  0  0  0  0  0  0  0  0  0  0
    3.3585   -2.1217    0.4864 H   0  0  0  0  0  0  0  0  0  0  0  0
    2.9049   -3.1283   -0.8883 H   0  0  0  0  0  0  0  0  0  0  0  0
    3.2105    0.4784    0.5613 H   0  0  0  0  0  0  0  0  0  0  0  0
    4.9342    1.9404    1.4655 H   0  0  0  0  0  0  0  0  0  0  0  0
    8.2291    3.4943    1.7658 H   0  0  0  0  0  0  0  0  0  0  0  0
    7.0365    2.4118    2.4966 H   0  0  0  0  0  0  0  0  0  0  0  0
    6.5303    3.6793    1.3105 H   0  0  0  0  0  0  0  0  0  0  0  0
    7.7746    0.3924   -1.3817 H   0  0  0  0  0  0  0  0  0  0  0  0
   -5.0083    0.1314    2.3403 H   0  0  0  0  0  0  0  0  0  0  0  0
   -6.6108   -1.4432    3.3835 H   0  0  0  0  0  0  0  0  0  0  0  0
   -7.2205   -3.4559   -0.1548 H   0  0  0  0  0  0  0  0  0  0  0  0
   -5.6459   -1.9788   -1.3842 H   0  0  0  0  0  0  0  0  0  0  0  0
  1  2  1  0
  2  3  1  0
  3  4  1  0
  4  5  1  0
  5  6  2  0
  5  7  1  0
  7  8  1  0
  8  9  2  0
  9 10  1  0
 10 11  1  0
 11 12  1  0
 12 13  2  0
 13 14  1  0
 14 15  2  0
 15 16  1  0
 16 17  1  0
 15 18  1  0
 18 19  2  0
 19 20  1  0
  9 21  1  0
 21 22  1  0
  3 23  1  0
 23 24  2  0
 24 25  1  0
 25 26  2  0
 26 27  1  0
 27 28  2  0
 22  7  2  0
 28 23  1  0
 19 12  1  0
  1 29  1  0
  1 30  1  0
  1 31  1  0
  2 32  1  0
  2 33  1  0
  3 34  1  0
  4 35  1  0
  8 36  1  0
 10 37  1  0
 10 38  1  0
 13 39  1  0
 14 40  1  0
 17 41  1  0
 17 42  1  0
 17 43  1  0
 18 44  1  0
 24 45  1  0
 25 46  1  0
 27 47  1  0
 28 48  1  0
M  END
$$$$
