
     RDKit          3D

 60 64  0  0  0  0  0  0  0  0999 V2000
   -8.6567   -3.9566   -0.3619 C   0  0  0  0  0  0  0  0  0  0  0  0
   -7.6343   -2.8663   -0.2450 C   0  0  0  0  0  0  0  0  0  0  0  0
   -7.9837   -1.6101    0.2503 C   0  0  0  0  0  0  0  0  0  0  0  0
   -7.0148   -0.6096    0.3863 C   0  0  0  0  0  0  0  0  0  0  0  0
   -5.6716   -0.8359    0.0465 C   0  0  0  0  0  0  0  0  0  0  0  0
   -4.7553    0.2048    0.2212 N   0  0  0  0  0  0  0  0  0  0  0  0
   -3.3715    0.3107    0.0946 C   0  0  0  0  0  0  0  0  0  0  0  0
   -2.6283   -0.7066   -0.3067 N   0  0  0  0  0  0  0  0  0  0  0  0
   -1.3274   -0.4652   -0.3478 C   0  0  0  0  0  0  0  0  0  0  0  0
   -0.5564   -1.5383   -0.7660 O   0  0  0  0  0  0  0  0  0  0  0  0
    0.7851   -1.4453   -0.4988 C   0  0  0  0  0  0  0  0  0  0  0  0
    1.2669   -1.5028    0.8010 C   0  0  0  0  0  0  0  0  0  0  0  0
    2.6432   -1.4628    0.9926 C   0  0  0  0  0  0  0  0  0  0  0  0
    3.4585   -1.3865   -0.1199 C   0  0  0  0  0  0  0  0  0  0  0  0
    4.8172   -1.3324    0.1057 O   0  0  0  0  0  0  0  0  0  0  0  0
    5.5806   -1.2897   -1.1009 C   0  0  0  0  0  0  0  0  0  0  0  0
    7.0484   -1.2142   -0.7466 C   0  0  0  0  0  0  0  0  0  0  0  0
    7.8712   -0.2403   -1.3289 C   0  0  0  0  0  0  0  0  0  0  0  0
    9.2317   -0.1831   -1.0196 C   0  0  0  0  0  0  0  0  0  0  0  0
    9.7850   -1.1025   -0.1305 C   0  0  0  0  0  0  0  0  0  0  0  0
    8.9795   -2.0802    0.4498 C   0  0  0  0  0  0  0  0  0  0  0  0
    7.6198   -2.1386    0.1399 C   0  0  0  0  0  0  0  0  0  0  0  0
    2.9631   -1.3608   -1.3768 N   0  0  0  0  0  0  0  0  0  0  0  0
    1.6088   -1.4046   -1.5702 N   0  0  0  0  0  0  0  0  0  0  0  0
   -0.7410    0.6843   -0.0319 N   0  0  0  0  0  0  0  0  0  0  0  0
   -1.5528    1.6567    0.3501 C   0  0  0  0  0  0  0  0  0  0  0  0
   -1.0055    2.8644    0.7251 N   0  0  0  0  0  0  0  0  0  0  0  0
    0.3639    3.2016    0.3186 C   0  0  0  0  0  0  0  0  0  0  0  0
    0.4019    4.6223   -0.2703 C   0  0  0  0  0  0  0  0  0  0  0  0
   -0.0730    5.6390    0.6269 O   0  0  0  0  0  0  0  0  0  0  0  0
   -1.0794    5.1737    1.5397 C   0  0  0  0  0  0  0  0  0  0  0  0
   -1.9000    3.9876    1.0091 C   0  0  0  0  0  0  0  0  0  0  0  0
   -2.8712    1.4991    0.4287 N   0  0  0  0  0  0  0  0  0  0  0  0
   -5.3348   -2.1014   -0.4382 C   0  0  0  0  0  0  0  0  0  0  0  0
   -6.2996   -3.1065   -0.5789 C   0  0  0  0  0  0  0  0  0  0  0  0
   -8.4482   -4.5929   -1.2305 H   0  0  0  0  0  0  0  0  0  0  0  0
   -9.6618   -3.5408   -0.4951 H   0  0  0  0  0  0  0  0  0  0  0  0
   -8.6496   -4.5758    0.5417 H   0  0  0  0  0  0  0  0  0  0  0  0
   -9.0111   -1.3966    0.5353 H   0  0  0  0  0  0  0  0  0  0  0  0
   -7.3266    0.3583    0.7731 H   0  0  0  0  0  0  0  0  0  0  0  0
   -5.1260    1.0800    0.5616 H   0  0  0  0  0  0  0  0  0  0  0  0
    0.5910   -1.5735    1.6450 H   0  0  0  0  0  0  0  0  0  0  0  0
    3.0696   -1.4893    1.9876 H   0  0  0  0  0  0  0  0  0  0  0  0
    5.4167   -2.1943   -1.6996 H   0  0  0  0  0  0  0  0  0  0  0  0
    5.2993   -0.4047   -1.6864 H   0  0  0  0  0  0  0  0  0  0  0  0
    7.4582    0.4834   -2.0278 H   0  0  0  0  0  0  0  0  0  0  0  0
    9.8602    0.5788   -1.4754 H   0  0  0  0  0  0  0  0  0  0  0  0
   10.8439   -1.0565    0.1101 H   0  0  0  0  0  0  0  0  0  0  0  0
    9.4099   -2.7972    1.1440 H   0  0  0  0  0  0  0  0  0  0  0  0
    7.0024   -2.9063    0.5983 H   0  0  0  0  0  0  0  0  0  0  0  0
    1.0014    3.1580    1.2107 H   0  0  0  0  0  0  0  0  0  0  0  0
    0.7769    2.5114   -0.4263 H   0  0  0  0  0  0  0  0  0  0  0  0
   -0.2117    4.6733   -1.1768 H   0  0  0  0  0  0  0  0  0  0  0  0
    1.4257    4.8875   -0.5533 H   0  0  0  0  0  0  0  0  0  0  0  0
   -0.5747    4.8964    2.4736 H   0  0  0  0  0  0  0  0  0  0  0  0
   -1.7376    6.0200    1.7634 H   0  0  0  0  0  0  0  0  0  0  0  0
   -2.6448    3.7128    1.7663 H   0  0  0  0  0  0  0  0  0  0  0  0
   -2.4223    4.2850    0.0914 H   0  0  0  0  0  0  0  0  0  0  0  0
   -4.3151   -2.3407   -0.7226 H   0  0  0  0  0  0  0  0  0  0  0  0
   -5.9931   -4.0787   -0.9554 H   0  0  0  0  0  0  0  0  0  0  0  0
  1  2  1  0
  2  3  2  0
  3  4  1  0
  4  5  2  0
  5  6  1  0
  6  7  1  0
  7  8  2  0
  8  9  1  0
  9 10  1  0
 10 11  1  0
 11 12  2  0
 12 13  1  0
 13 14  2  0
 14 15  1  0
 15 16  1  0
 16 17  1  0
 17 18  2  0
 18 19  1  0
 19 20  2  0
 20 21  1  0
 21 22  2  0
 14 23  1  0
 23 24  2  0
  9 25  2  0
 25 26  1  0
 26 27  1  0
 27 28  1  0
 28 29  1  0
 29 30  1  0
 30 31  1  0
 31 32  1  0
 26 33  2  0
  5 34  1  0
 34 35  2  0
 35  2  1  0
 33  7  1  0
 24 11  1  0
 32 27  1  0
 22 17  1  0
  1 36  1  0
  1 37  1  0
  1 38  1  0
  3 39  1  0
  4 40  1  0
  6 41  1  0
 12 42  1  0
 13 43  1  0
 16 44  1  0
 16 45  1  0
 18 46  1  0
 19 47  1  0
 20 48  1  0
 21 49  1  0
 22 50  1  0
 28 51  1  0
 28 52  1  0
 29 53  1  0
 29 54  1  0
 31 55  1  0
 31 56  1  0
 32 57  1  0
 32 58  1  0
 34 59  1  0
 35 60  1  0
M  END
$$$$
