
     RDKit          3D

 73 78  0  0  0  0  0  0  0  0999 V2000
   -8.5176   -2.9550   -1.4700 C   0  0  0  0  0  0  0  0  0  0  0  0
   -8.1781   -1.4996   -1.3451 C   0  0  0  0  0  0  0  0  0  0  0  0
   -9.0293   -0.5262   -1.8636 C   0  0  0  0  0  0  0  0  0  0  0  0
   -8.7178    0.8233   -1.7137 C   0  0  0  0  0  0  0  0  0  0  0  0
   -7.5576    1.2262   -1.0285 C   0  0  0  0  0  0  0  0  0  0  0  0
   -7.3002    2.7018   -0.8738 C   0  0  0  0  0  0  0  0  0  0  0  0
   -6.6756    0.2565   -0.5000 C   0  0  0  0  0  0  0  0  0  0  0  0
   -5.4995    0.6421    0.1506 N   0  0  0  0  0  0  0  0  0  0  0  0
   -5.0239   -0.1416    1.3034 C   0  0  0  0  0  0  0  0  0  0  0  0
   -3.7605    0.5011    1.9011 C   0  0  0  0  0  0  0  0  0  0  0  0
   -2.6625    0.5820    0.9248 N   0  0  0  0  0  0  0  0  0  0  0  0
   -1.3600    0.4511    1.3855 C   0  0  0  0  0  0  0  0  0  0  0  0
   -1.1139    0.3457    2.5891 O   0  0  0  0  0  0  0  0  0  0  0  0
   -0.2303    0.5001    0.3633 C   0  0  0  0  0  0  0  0  0  0  0  0
    0.1343    1.9546    0.0479 C   0  0  0  0  0  0  0  0  0  0  0  0
    1.2919    1.9999   -0.9431 C   0  0  0  0  0  0  0  0  0  0  0  0
    2.5054    1.2171   -0.4370 C   0  0  0  0  0  0  0  0  0  0  0  0
    2.1128   -0.1463   -0.0615 N   0  0  0  0  0  0  0  0  0  0  0  0
    3.1721   -1.0231    0.2691 C   0  0  0  0  0  0  0  0  0  0  0  0
    2.8468   -2.2791    0.7111 N   0  0  0  0  0  0  0  0  0  0  0  0
    3.8180   -3.1613    1.0177 C   0  0  0  0  0  0  0  0  0  0  0  0
    5.1470   -2.9876    0.9523 N   0  0  0  0  0  0  0  0  0  0  0  0
    5.4450   -1.7539    0.5146 C   0  0  0  0  0  0  0  0  0  0  0  0
    4.5632   -0.7445    0.1632 C   0  0  0  0  0  0  0  0  0  0  0  0
    5.2749    0.3816   -0.2123 N   0  0  0  0  0  0  0  0  0  0  0  0
    6.5534    0.0720   -0.0931 C   0  0  0  0  0  0  0  0  0  0  0  0
    6.7004   -1.2309    0.3287 N   0  0  0  0  0  0  0  0  0  0  0  0
    7.9225   -1.9629    0.5982 C   0  0  0  0  0  0  0  0  0  0  0  0
    9.1290   -1.5446   -0.2350 C   0  0  0  0  0  0  0  0  0  0  0  0
    9.7944   -0.2558    0.2471 C   0  0  0  0  0  0  0  0  0  0  0  0
    8.8428    0.8926    0.5845 C   0  0  0  0  0  0  0  0  0  0  0  0
    7.6736    1.0193   -0.3842 C   0  0  0  0  0  0  0  0  0  0  0  0
    1.0006   -0.2385    0.9060 C   0  0  0  0  0  0  0  0  0  0  0  0
   -3.0705    0.6010   -0.4895 C   0  0  0  0  0  0  0  0  0  0  0  0
   -4.4586    1.2322   -0.7178 C   0  0  0  0  0  0  0  0  0  0  0  0
   -7.0207   -1.0981   -0.6589 C   0  0  0  0  0  0  0  0  0  0  0  0
   -7.6102   -3.5591   -1.5738 H   0  0  0  0  0  0  0  0  0  0  0  0
   -9.0667   -3.2878   -0.5836 H   0  0  0  0  0  0  0  0  0  0  0  0
   -9.1334   -3.1407   -2.3565 H   0  0  0  0  0  0  0  0  0  0  0  0
   -9.9407   -0.8088   -2.3850 H   0  0  0  0  0  0  0  0  0  0  0  0
   -9.3972    1.5673   -2.1240 H   0  0  0  0  0  0  0  0  0  0  0  0
   -8.2193    3.2816   -1.0143 H   0  0  0  0  0  0  0  0  0  0  0  0
   -6.5719    3.0373   -1.6182 H   0  0  0  0  0  0  0  0  0  0  0  0
   -6.9344    2.9339    0.1310 H   0  0  0  0  0  0  0  0  0  0  0  0
   -5.8053   -0.1811    2.0713 H   0  0  0  0  0  0  0  0  0  0  0  0
   -4.7786   -1.1680    1.0066 H   0  0  0  0  0  0  0  0  0  0  0  0
   -3.9728    1.5293    2.2190 H   0  0  0  0  0  0  0  0  0  0  0  0
   -3.4459   -0.0643    2.7849 H   0  0  0  0  0  0  0  0  0  0  0  0
   -0.5426   -0.0168   -0.5517 H   0  0  0  0  0  0  0  0  0  0  0  0
   -0.7218    2.4993   -0.3636 H   0  0  0  0  0  0  0  0  0  0  0  0
    0.4162    2.4803    0.9698 H   0  0  0  0  0  0  0  0  0  0  0  0
    0.9604    1.5787   -1.9009 H   0  0  0  0  0  0  0  0  0  0  0  0
    1.5791    3.0402   -1.1333 H   0  0  0  0  0  0  0  0  0  0  0  0
    3.2292    1.2024   -1.2595 H   0  0  0  0  0  0  0  0  0  0  0  0
    2.9486    1.7406    0.4196 H   0  0  0  0  0  0  0  0  0  0  0  0
    3.4797   -4.1336    1.3617 H   0  0  0  0  0  0  0  0  0  0  0  0
    7.7153   -3.0185    0.3819 H   0  0  0  0  0  0  0  0  0  0  0  0
    8.1237   -1.8737    1.6723 H   0  0  0  0  0  0  0  0  0  0  0  0
    9.8802   -2.3433   -0.1964 H   0  0  0  0  0  0  0  0  0  0  0  0
    8.8428   -1.4454   -1.2895 H   0  0  0  0  0  0  0  0  0  0  0  0
   10.4026   -0.4711    1.1349 H   0  0  0  0  0  0  0  0  0  0  0  0
   10.4977    0.0754   -0.5279 H   0  0  0  0  0  0  0  0  0  0  0  0
    8.4747    0.7781    1.6125 H   0  0  0  0  0  0  0  0  0  0  0  0
    9.4233    1.8238    0.5713 H   0  0  0  0  0  0  0  0  0  0  0  0
    8.0045    0.8963   -1.4219 H   0  0  0  0  0  0  0  0  0  0  0  0
    7.2741    2.0385   -0.3045 H   0  0  0  0  0  0  0  0  0  0  0  0
    1.3200    0.1799    1.8705 H   0  0  0  0  0  0  0  0  0  0  0  0
    0.7034   -1.2799    1.0847 H   0  0  0  0  0  0  0  0  0  0  0  0
   -2.3329    1.1334   -1.0934 H   0  0  0  0  0  0  0  0  0  0  0  0
   -3.0772   -0.4432   -0.8250 H   0  0  0  0  0  0  0  0  0  0  0  0
   -4.3963    2.3023   -0.4868 H   0  0  0  0  0  0  0  0  0  0  0  0
   -4.7113    1.1393   -1.7814 H   0  0  0  0  0  0  0  0  0  0  0  0
   -6.3682   -1.8738   -0.2703 H   0  0  0  0  0  0  0  0  0  0  0  0
  1  2  1  0
  2  3  2  0
  3  4  1  0
  4  5  2  0
  5  6  1  0
  5  7  1  0
  7  8  1  0
  8  9  1  0
  9 10  1  0
 10 11  1  0
 11 12  1  0
 12 13  2  0
 12 14  1  0
 14 15  1  0
 15 16  1  0
 16 17  1  0
 17 18  1  0
 18 19  1  0
 19 20  2  0
 20 21  1  0
 21 22  2  0
 22 23  1  0
 23 24  2  0
 24 25  1  0
 25 26  2  0
 26 27  1  0
 27 28  1  0
 28 29  1  0
 29 30  1  0
 30 31  1  0
 31 32  1  0
 18 33  1  0
 11 34  1  0
 34 35  1  0
  7 36  2  0
 36  2  1  0
 35  8  1  0
 33 14  1  0
 24 19  1  0
 32 26  1  0
 27 23  1  0
  1 37  1  0
  1 38  1  0
  1 39  1  0
  3 40  1  0
  4 41  1  0
  6 42  1  0
  6 43  1  0
  6 44  1  0
  9 45  1  0
  9 46  1  0
 10 47  1  0
 10 48  1  0
 14 49  1  0
 15 50  1  0
 15 51  1  0
 16 52  1  0
 16 53  1  0
 17 54  1  0
 17 55  1  0
 21 56  1  0
 28 57  1  0
 28 58  1  0
 29 59  1  0
 29 60  1  0
 30 61  1  0
 30 62  1  0
 31 63  1  0
 31 64  1  0
 32 65  1  0
 32 66  1  0
 33 67  1  0
 33 68  1  0
 34 69  1  0
 34 70  1  0
 35 71  1  0
 35 72  1  0
 36 73  1  0
M  END
$$$$
