
     RDKit          3D

 41 42  0  0  0  0  0  0  0  0999 V2000
   -7.4178   -2.2642    2.1666 C   0  0  0  0  0  0  0  0  0  0  0  0
   -6.7379   -1.1571    2.7443 O   0  0  0  0  0  0  0  0  0  0  0  0
   -5.7136   -0.6157    2.0172 C   0  0  0  0  0  0  0  0  0  0  0  0
   -5.0349    0.4270    2.6508 C   0  0  0  0  0  0  0  0  0  0  0  0
   -3.9658    1.0708    2.0225 C   0  0  0  0  0  0  0  0  0  0  0  0
   -3.5632    0.6824    0.7395 C   0  0  0  0  0  0  0  0  0  0  0  0
   -2.4108    1.3741    0.0505 C   0  0  0  0  0  0  0  0  0  0  0  0
   -1.1149    0.5895    0.0430 C   0  0  0  0  0  0  0  0  0  0  0  0
   -0.9765   -0.5701    0.4114 O   0  0  0  0  0  0  0  0  0  0  0  0
   -0.1340    1.4139   -0.4712 O   0  0  0  0  0  0  0  0  0  0  0  0
    1.0794    0.7087   -0.5763 N   0  0  0  0  0  0  0  0  0  0  0  0
    2.0367    1.4623   -1.0306 C   0  0  0  0  0  0  0  0  0  0  0  0
    1.8689    2.7949   -1.3377 N   0  0  0  0  0  0  0  0  0  0  0  0
    3.3907    0.8413   -1.2072 C   0  0  0  0  0  0  0  0  0  0  0  0
    4.3529    1.4406   -2.0260 C   0  0  0  0  0  0  0  0  0  0  0  0
    5.6120    0.8499   -2.1708 C   0  0  0  0  0  0  0  0  0  0  0  0
    5.9241   -0.3414   -1.5098 C   0  0  0  0  0  0  0  0  0  0  0  0
    7.1891   -0.8068   -1.7395 O   0  0  0  0  0  0  0  0  0  0  0  0
    7.5449   -2.0340   -1.1146 C   0  0  0  0  0  0  0  0  0  0  0  0
    4.9613   -0.9449   -0.7009 C   0  0  0  0  0  0  0  0  0  0  0  0
    3.6989   -0.3574   -0.5524 C   0  0  0  0  0  0  0  0  0  0  0  0
   -4.2445   -0.3665    0.1076 C   0  0  0  0  0  0  0  0  0  0  0  0
   -5.3129   -1.0110    0.7417 C   0  0  0  0  0  0  0  0  0  0  0  0
   -8.1825   -2.5942    2.8765 H   0  0  0  0  0  0  0  0  0  0  0  0
   -6.7355   -3.1041    1.9983 H   0  0  0  0  0  0  0  0  0  0  0  0
   -7.9262   -1.9751    1.2409 H   0  0  0  0  0  0  0  0  0  0  0  0
   -5.3388    0.7370    3.6477 H   0  0  0  0  0  0  0  0  0  0  0  0
   -3.4541    1.8733    2.5482 H   0  0  0  0  0  0  0  0  0  0  0  0
   -2.6936    1.5826   -0.9885 H   0  0  0  0  0  0  0  0  0  0  0  0
   -2.2246    2.3380    0.5403 H   0  0  0  0  0  0  0  0  0  0  0  0
    1.0067    3.1681   -0.9569 H   0  0  0  0  0  0  0  0  0  0  0  0
    2.6625    3.3898   -1.1252 H   0  0  0  0  0  0  0  0  0  0  0  0
    4.1341    2.3501   -2.5772 H   0  0  0  0  0  0  0  0  0  0  0  0
    6.3554    1.3171   -2.8126 H   0  0  0  0  0  0  0  0  0  0  0  0
    7.5198   -1.9428   -0.0236 H   0  0  0  0  0  0  0  0  0  0  0  0
    6.9045   -2.8529   -1.4587 H   0  0  0  0  0  0  0  0  0  0  0  0
    8.5729   -2.2710   -1.4049 H   0  0  0  0  0  0  0  0  0  0  0  0
    5.1538   -1.8726   -0.1722 H   0  0  0  0  0  0  0  0  0  0  0  0
    2.9584   -0.8440    0.0802 H   0  0  0  0  0  0  0  0  0  0  0  0
   -3.9402   -0.7011   -0.8824 H   0  0  0  0  0  0  0  0  0  0  0  0
   -5.8045   -1.8198    0.2120 H   0  0  0  0  0  0  0  0  0  0  0  0
  1  2  1  0
  2  3  1  0
  3  4  2  0
  4  5  1  0
  5  6  2  0
  6  7  1  0
  7  8  1  0
  8  9  2  0
  8 10  1  0
 10 11  1  0
 11 12  2  3
 12 13  1  0
 12 14  1  0
 14 15  2  0
 15 16  1  0
 16 17  2  0
 17 18  1  0
 18 19  1  0
 17 20  1  0
 20 21  2  0
  6 22  1  0
 22 23  2  0
 23  3  1  0
 21 14  1  0
  1 24  1  0
  1 25  1  0
  1 26  1  0
  4 27  1  0
  5 28  1  0
  7 29  1  0
  7 30  1  0
 13 31  1  0
 13 32  1  0
 15 33  1  0
 16 34  1  0
 19 35  1  0
 19 36  1  0
 19 37  1  0
 20 38  1  0
 21 39  1  0
 22 40  1  0
 23 41  1  0
M  END
$$$$
