
     RDKit          3D

 33 34  0  0  0  0  0  0  0  0999 V2000
   -3.8308   -2.9599    2.8594 C   0  0  0  0  0  0  0  0  0  0  0  0
   -2.5669   -1.7866    2.3227 S   0  0  0  0  0  0  0  0  0  0  0  0
   -3.0099   -1.5102    0.6355 C   0  0  0  0  0  0  0  0  0  0  0  0
   -4.1963   -1.9265    0.2019 N   0  0  0  0  0  0  0  0  0  0  0  0
   -4.3759   -1.4769   -1.3726 S   0  0  0  0  0  0  0  0  0  0  0  0
   -2.8475   -0.7207   -1.5228 C   0  0  0  0  0  0  0  0  0  0  0  0
   -2.3187    0.0079   -3.0315 S   0  0  0  0  0  0  0  0  0  0  0  0
   -1.8963   -1.4765   -3.9775 C   0  0  0  0  0  0  0  0  0  0  0  0
   -2.1817   -0.7939   -0.3041 C   0  0  0  0  0  0  0  0  0  0  0  0
   -0.8501   -0.2655   -0.0330 C   0  0  0  0  0  0  0  0  0  0  0  0
   -0.0164   -0.8856    0.6240 O   0  0  0  0  0  0  0  0  0  0  0  0
   -0.5987    0.9951   -0.5444 N   0  0  0  0  0  0  0  0  0  0  0  0
    0.5755    1.7136   -0.5253 C   0  0  0  0  0  0  0  0  0  0  0  0
    0.6243    2.7581   -1.1684 O   0  0  0  0  0  0  0  0  0  0  0  0
    1.5898    1.1732    0.2181 N   0  0  0  0  0  0  0  0  0  0  0  0
    2.8836    1.6933    0.4113 C   0  0  0  0  0  0  0  0  0  0  0  0
    3.7638    0.9585    1.2091 C   0  0  0  0  0  0  0  0  0  0  0  0
    5.0570    1.4267    1.4344 C   0  0  0  0  0  0  0  0  0  0  0  0
    5.4328    2.6237    0.8504 C   0  0  0  0  0  0  0  0  0  0  0  0
    4.6156    3.3640    0.0740 N   0  0  0  0  0  0  0  0  0  0  0  0
    3.3601    2.8845   -0.1284 C   0  0  0  0  0  0  0  0  0  0  0  0
   -3.8159   -3.8598    2.2379 H   0  0  0  0  0  0  0  0  0  0  0  0
   -4.8244   -2.5047    2.8260 H   0  0  0  0  0  0  0  0  0  0  0  0
   -3.6266   -3.2546    3.8925 H   0  0  0  0  0  0  0  0  0  0  0  0
   -1.4857   -1.1805   -4.9466 H   0  0  0  0  0  0  0  0  0  0  0  0
   -2.7837   -2.0912   -4.1506 H   0  0  0  0  0  0  0  0  0  0  0  0
   -1.1444   -2.0668   -3.4464 H   0  0  0  0  0  0  0  0  0  0  0  0
   -1.3021    1.4314   -1.1251 H   0  0  0  0  0  0  0  0  0  0  0  0
    1.3797    0.2855    0.6714 H   0  0  0  0  0  0  0  0  0  0  0  0
    3.4558    0.0199    1.6620 H   0  0  0  0  0  0  0  0  0  0  0  0
    5.7536    0.8700    2.0511 H   0  0  0  0  0  0  0  0  0  0  0  0
    6.4293    3.0311    0.9951 H   0  0  0  0  0  0  0  0  0  0  0  0
    2.7513    3.5235   -0.7588 H   0  0  0  0  0  0  0  0  0  0  0  0
  1  2  1  0
  2  3  1  0
  3  4  2  0
  4  5  1  0
  5  6  1  0
  6  7  1  0
  7  8  1  0
  6  9  2  0
  9 10  1  0
 10 11  2  0
 10 12  1  0
 12 13  1  0
 13 14  2  0
 13 15  1  0
 15 16  1  0
 16 17  2  0
 17 18  1  0
 18 19  2  0
 19 20  1  0
 20 21  2  0
  9  3  1  0
 21 16  1  0
  1 22  1  0
  1 23  1  0
  1 24  1  0
  8 25  1  0
  8 26  1  0
  8 27  1  0
 12 28  1  0
 15 29  1  0
 17 30  1  0
 18 31  1  0
 19 32  1  0
 21 33  1  0
M  END
$$$$
