
     RDKit          3D

 46 48  0  0  0  0  0  0  0  0999 V2000
   -3.7723    4.2985   -0.7090 C   0  0  0  0  0  0  0  0  0  0  0  0
   -2.8317    3.6719   -1.7195 C   0  0  0  0  0  0  0  0  0  0  0  0
   -1.6002    3.3718   -1.0573 O   0  0  0  0  0  0  0  0  0  0  0  0
   -0.6801    2.7896   -1.8477 C   0  0  0  0  0  0  0  0  0  0  0  0
   -0.7748    2.4807   -3.0224 O   0  0  0  0  0  0  0  0  0  0  0  0
    0.5544    2.4740   -1.0523 C   0  0  0  0  0  0  0  0  0  0  0  0
    1.2273    3.3630   -0.3850 N   0  0  0  0  0  0  0  0  0  0  0  0
    2.3160    2.7117    0.1300 N   0  0  0  0  0  0  0  0  0  0  0  0
    2.3485    1.2875   -0.2271 C   0  0  0  0  0  0  0  0  0  0  0  0
    2.6148    0.4377    1.0193 C   0  0  0  0  0  0  0  0  0  0  0  0
    2.6682    0.9314    2.1474 O   0  0  0  0  0  0  0  0  0  0  0  0
    2.8276   -1.0316    0.8597 C   0  0  0  0  0  0  0  0  0  0  0  0
    2.6047   -1.8555    1.9710 C   0  0  0  0  0  0  0  0  0  0  0  0
    2.7710   -3.2372    1.8687 C   0  0  0  0  0  0  0  0  0  0  0  0
    3.1678   -3.8026    0.6586 C   0  0  0  0  0  0  0  0  0  0  0  0
    3.4018   -2.9883   -0.4488 C   0  0  0  0  0  0  0  0  0  0  0  0
    3.2344   -1.6041   -0.3519 C   0  0  0  0  0  0  0  0  0  0  0  0
    1.0350    1.0535   -0.9879 C   0  0  0  0  0  0  0  0  0  0  0  0
    0.0061    0.1357   -0.3634 C   0  0  0  0  0  0  0  0  0  0  0  0
   -0.5709    0.4124    0.8843 C   0  0  0  0  0  0  0  0  0  0  0  0
   -1.5082   -0.4605    1.4407 C   0  0  0  0  0  0  0  0  0  0  0  0
   -1.8916   -1.6208    0.7674 C   0  0  0  0  0  0  0  0  0  0  0  0
   -2.8137   -2.3863    1.4254 O   0  0  0  0  0  0  0  0  0  0  0  0
   -3.2237   -3.5892    0.7880 C   0  0  0  0  0  0  0  0  0  0  0  0
   -1.3295   -1.8998   -0.4768 C   0  0  0  0  0  0  0  0  0  0  0  0
   -0.3898   -1.0275   -1.0385 C   0  0  0  0  0  0  0  0  0  0  0  0
   -3.9485    3.6155    0.1286 H   0  0  0  0  0  0  0  0  0  0  0  0
   -4.7321    4.5465   -1.1706 H   0  0  0  0  0  0  0  0  0  0  0  0
   -3.3353    5.2107   -0.2894 H   0  0  0  0  0  0  0  0  0  0  0  0
   -3.2747    2.7506   -2.1146 H   0  0  0  0  0  0  0  0  0  0  0  0
   -2.6483    4.3737   -2.5408 H   0  0  0  0  0  0  0  0  0  0  0  0
    2.5901    2.9946    1.0761 H   0  0  0  0  0  0  0  0  0  0  0  0
    3.2118    1.2014   -0.8968 H   0  0  0  0  0  0  0  0  0  0  0  0
    2.2896   -1.4246    2.9200 H   0  0  0  0  0  0  0  0  0  0  0  0
    2.5899   -3.8700    2.7341 H   0  0  0  0  0  0  0  0  0  0  0  0
    3.2995   -4.8792    0.5808 H   0  0  0  0  0  0  0  0  0  0  0  0
    3.7206   -3.4342   -1.3882 H   0  0  0  0  0  0  0  0  0  0  0  0
    3.4411   -1.0034   -1.2316 H   0  0  0  0  0  0  0  0  0  0  0  0
    1.2602    0.7298   -2.0118 H   0  0  0  0  0  0  0  0  0  0  0  0
   -0.2937    1.3043    1.4468 H   0  0  0  0  0  0  0  0  0  0  0  0
   -1.9412   -0.2338    2.4124 H   0  0  0  0  0  0  0  0  0  0  0  0
   -3.9488   -4.0836    1.4417 H   0  0  0  0  0  0  0  0  0  0  0  0
   -3.7221   -3.3809   -0.1645 H   0  0  0  0  0  0  0  0  0  0  0  0
   -2.3786   -4.2721    0.6517 H   0  0  0  0  0  0  0  0  0  0  0  0
   -1.5993   -2.7879   -1.0386 H   0  0  0  0  0  0  0  0  0  0  0  0
    0.0290   -1.2737   -2.0128 H   0  0  0  0  0  0  0  0  0  0  0  0
  1  2  1  0
  2  3  1  0
  3  4  1  0
  4  5  2  0
  4  6  1  0
  6  7  2  0
  7  8  1  0
  8  9  1  0
  9 10  1  0
 10 11  2  0
 10 12  1  0
 12 13  2  0
 13 14  1  0
 14 15  2  0
 15 16  1  0
 16 17  2  0
  9 18  1  0
 18 19  1  0
 19 20  2  0
 20 21  1  0
 21 22  2  0
 22 23  1  0
 23 24  1  0
 22 25  1  0
 25 26  2  0
 18  6  1  0
 26 19  1  0
 17 12  1  0
  1 27  1  0
  1 28  1  0
  1 29  1  0
  2 30  1  0
  2 31  1  0
  8 32  1  0
  9 33  1  0
 13 34  1  0
 14 35  1  0
 15 36  1  0
 16 37  1  0
 17 38  1  0
 18 39  1  0
 20 40  1  0
 21 41  1  0
 24 42  1  0
 24 43  1  0
 24 44  1  0
 25 45  1  0
 26 46  1  0
M  END
$$$$
