
     RDKit          3D

 52 53  0  0  0  0  0  0  0  0999 V2000
    5.1017    1.0588    0.6016 C   0  0  0  0  0  0  0  0  0  0  0  0
    4.5432   -0.3374    0.2698 C   0  0  0  0  0  0  0  0  0  0  0  0
    5.2730   -0.8596   -0.9877 C   0  0  0  0  0  0  0  0  0  0  0  0
    4.9046   -1.2892    1.4317 C   0  0  0  0  0  0  0  0  0  0  0  0
    2.9859   -0.3302    0.0349 C   0  0  0  0  0  0  0  0  0  0  0  0
    2.1747    0.1134    1.2736 C   0  0  0  0  0  0  0  0  0  0  0  0
    0.6699    0.0392    1.0279 C   0  0  0  0  0  0  0  0  0  0  0  0
    0.2509    0.8677   -0.1845 C   0  0  0  0  0  0  0  0  0  0  0  0
   -1.1570    0.6289   -0.3971 O   0  0  0  0  0  0  0  0  0  0  0  0
   -1.8464    1.6063   -1.0441 C   0  0  0  0  0  0  0  0  0  0  0  0
   -1.3654    2.6548   -1.4509 O   0  0  0  0  0  0  0  0  0  0  0  0
   -3.3127    1.2302   -1.2525 C   0  0  0  0  0  0  0  0  0  0  0  0
   -4.0162    0.3539   -0.1591 N   0  0  0  0  0  4  0  0  0  0  0  0
   -3.9263    1.0486    1.1937 C   0  0  0  0  0  0  0  0  0  0  0  0
   -5.5003    0.1435   -0.5422 C   0  0  0  0  0  0  0  0  0  0  0  0
   -5.6020   -1.3173   -0.9333 C   0  0  0  0  0  0  0  0  0  0  0  0
   -4.6032   -1.9900   -0.0194 C   0  0  0  0  0  0  0  0  0  0  0  0
   -3.4069   -1.0619   -0.0911 C   0  0  0  0  0  0  0  0  0  0  0  0
    1.0375    0.4389   -1.4220 C   0  0  0  0  0  0  0  0  0  0  0  0
    2.5461    0.5065   -1.1889 C   0  0  0  0  0  0  0  0  0  0  0  0
    4.6696    1.4643    1.5210 H   0  0  0  0  0  0  0  0  0  0  0  0
    6.1882    1.0184    0.7486 H   0  0  0  0  0  0  0  0  0  0  0  0
    4.9151    1.7731   -0.2057 H   0  0  0  0  0  0  0  0  0  0  0  0
    5.2062   -0.1528   -1.8207 H   0  0  0  0  0  0  0  0  0  0  0  0
    4.8565   -1.8174   -1.3174 H   0  0  0  0  0  0  0  0  0  0  0  0
    6.3404   -1.0139   -0.7916 H   0  0  0  0  0  0  0  0  0  0  0  0
    5.9909   -1.3997    1.5303 H   0  0  0  0  0  0  0  0  0  0  0  0
    4.5389   -0.9194    2.3943 H   0  0  0  0  0  0  0  0  0  0  0  0
    4.4855   -2.2877    1.2673 H   0  0  0  0  0  0  0  0  0  0  0  0
    2.6951   -1.3708   -0.1755 H   0  0  0  0  0  0  0  0  0  0  0  0
    2.4048   -0.5199    2.1361 H   0  0  0  0  0  0  0  0  0  0  0  0
    2.4342    1.1421    1.5492 H   0  0  0  0  0  0  0  0  0  0  0  0
    0.3652   -1.0072    0.8898 H   0  0  0  0  0  0  0  0  0  0  0  0
    0.1283    0.3890    1.9159 H   0  0  0  0  0  0  0  0  0  0  0  0
    0.4275    1.9287    0.0366 H   0  0  0  0  0  0  0  0  0  0  0  0
   -3.4143    0.6964   -2.2031 H   0  0  0  0  0  0  0  0  0  0  0  0
   -3.8910    2.1614   -1.2919 H   0  0  0  0  0  0  0  0  0  0  0  0
   -2.8759    1.1615    1.4718 H   0  0  0  0  0  0  0  0  0  0  0  0
   -4.4087    2.0260    1.1082 H   0  0  0  0  0  0  0  0  0  0  0  0
   -4.4414    0.4290    1.9339 H   0  0  0  0  0  0  0  0  0  0  0  0
   -6.1135    0.3556    0.3400 H   0  0  0  0  0  0  0  0  0  0  0  0
   -5.7756    0.8256   -1.3510 H   0  0  0  0  0  0  0  0  0  0  0  0
   -6.6154   -1.7081   -0.8064 H   0  0  0  0  0  0  0  0  0  0  0  0
   -5.3141   -1.4523   -1.9823 H   0  0  0  0  0  0  0  0  0  0  0  0
   -4.3572   -3.0051   -0.3443 H   0  0  0  0  0  0  0  0  0  0  0  0
   -4.9905   -2.0426    1.0056 H   0  0  0  0  0  0  0  0  0  0  0  0
   -2.7463   -1.1414    0.7771 H   0  0  0  0  0  0  0  0  0  0  0  0
   -2.8457   -1.2358   -1.0158 H   0  0  0  0  0  0  0  0  0  0  0  0
    0.7689    1.0731   -2.2757 H   0  0  0  0  0  0  0  0  0  0  0  0
    0.7498   -0.5813   -1.7104 H   0  0  0  0  0  0  0  0  0  0  0  0
    3.0400    0.1497   -2.0990 H   0  0  0  0  0  0  0  0  0  0  0  0
    2.8336    1.5564   -1.0552 H   0  0  0  0  0  0  0  0  0  0  0  0
  1  2  1  0
  2  3  1  0
  2  4  1  0
  2  5  1  0
  5  6  1  0
  6  7  1  0
  7  8  1  0
  8  9  1  0
  9 10  1  0
 10 11  2  0
 10 12  1  0
 12 13  1  0
 13 14  1  0
 13 15  1  0
 15 16  1  0
 16 17  1  0
 17 18  1  0
  8 19  1  0
 19 20  1  0
 20  5  1  0
 18 13  1  0
  1 21  1  0
  1 22  1  0
  1 23  1  0
  3 24  1  0
  3 25  1  0
  3 26  1  0
  4 27  1  0
  4 28  1  0
  4 29  1  0
  5 30  1  0
  6 31  1  0
  6 32  1  0
  7 33  1  0
  7 34  1  0
  8 35  1  0
 12 36  1  0
 12 37  1  0
 14 38  1  0
 14 39  1  0
 14 40  1  0
 15 41  1  0
 15 42  1  0
 16 43  1  0
 16 44  1  0
 17 45  1  0
 17 46  1  0
 18 47  1  0
 18 48  1  0
 19 49  1  0
 19 50  1  0
 20 51  1  0
 20 52  1  0
M  CHG  1  13   1
M  END
$$$$
