
     RDKit          3D

 49 52  0  0  0  0  0  0  0  0999 V2000
    6.5864    0.0648    2.2281 C   0  0  0  0  0  0  0  0  0  0  0  0
    6.3360    0.1289    0.7493 C   0  0  0  0  0  0  0  0  0  0  0  0
    7.1535   -0.5849   -0.1390 C   0  0  0  0  0  0  0  0  0  0  0  0
    6.9228   -0.5217   -1.5151 C   0  0  0  0  0  0  0  0  0  0  0  0
    7.9385   -1.4011   -2.5907 Cl  0  0  0  0  0  0  0  0  0  0  0  0
    5.8815    0.2507   -2.0265 C   0  0  0  0  0  0  0  0  0  0  0  0
    5.0559    0.9589   -1.1542 C   0  0  0  0  0  0  0  0  0  0  0  0
    5.2713    0.8770    0.2255 C   0  0  0  0  0  0  0  0  0  0  0  0
    4.4651    1.5984    1.0716 O   0  0  0  0  0  0  0  0  0  0  0  0
    3.2314    1.1773    1.3809 C   0  0  0  0  0  0  0  0  0  0  0  0
    2.4267    1.9832    2.0399 N   0  0  0  0  0  0  0  0  0  0  0  0
    1.2168    1.3595    2.2707 C   0  0  0  0  0  0  0  0  0  0  0  0
    1.1051    0.0692    1.7947 C   0  0  0  0  0  0  0  0  0  0  0  0
   -0.0485   -0.8794    1.8910 C   0  0  0  0  0  0  0  0  0  0  0  0
   -1.2924   -0.2932    1.3657 N   0  0  0  0  0  0  0  0  0  0  0  0
   -1.2541   -0.1743   -0.1135 C   0  0  0  0  0  0  0  0  0  0  0  0
   -2.5757    0.3616   -0.7159 C   0  0  0  0  0  0  0  0  0  0  0  0
   -3.7204   -0.4767   -0.2862 N   0  0  0  0  0  0  0  0  0  0  0  0
   -4.9108   -0.1974   -0.9788 C   0  0  0  0  0  0  0  0  0  0  0  0
   -6.0872    0.2458   -0.3563 C   0  0  0  0  0  0  0  0  0  0  0  0
   -7.2523    0.5025   -1.0902 C   0  0  0  0  0  0  0  0  0  0  0  0
   -7.2692    0.3103   -2.4675 C   0  0  0  0  0  0  0  0  0  0  0  0
   -6.1229   -0.1433   -3.1090 C   0  0  0  0  0  0  0  0  0  0  0  0
   -4.9627   -0.3961   -2.3697 C   0  0  0  0  0  0  0  0  0  0  0  0
   -3.7882   -0.6049    1.1829 C   0  0  0  0  0  0  0  0  0  0  0  0
   -2.4491   -1.1426    1.7376 C   0  0  0  0  0  0  0  0  0  0  0  0
    2.5738   -0.3781    1.0342 S   0  0  0  0  0  0  0  0  0  0  0  0
    7.5373   -0.4303    2.4512 H   0  0  0  0  0  0  0  0  0  0  0  0
    5.7880   -0.4974    2.7223 H   0  0  0  0  0  0  0  0  0  0  0  0
    6.6365    1.0728    2.6524 H   0  0  0  0  0  0  0  0  0  0  0  0
    7.9760   -1.1873    0.2397 H   0  0  0  0  0  0  0  0  0  0  0  0
    5.7107    0.3070   -3.0981 H   0  0  0  0  0  0  0  0  0  0  0  0
    4.2487    1.5715   -1.5475 H   0  0  0  0  0  0  0  0  0  0  0  0
    0.4351    1.8959    2.7960 H   0  0  0  0  0  0  0  0  0  0  0  0
   -0.1771   -1.1053    2.9584 H   0  0  0  0  0  0  0  0  0  0  0  0
    0.1731   -1.8345    1.3968 H   0  0  0  0  0  0  0  0  0  0  0  0
   -0.4541    0.5117   -0.4144 H   0  0  0  0  0  0  0  0  0  0  0  0
   -1.0351   -1.1520   -0.5641 H   0  0  0  0  0  0  0  0  0  0  0  0
   -2.7343    1.3991   -0.3925 H   0  0  0  0  0  0  0  0  0  0  0  0
   -2.4624    0.3679   -1.8058 H   0  0  0  0  0  0  0  0  0  0  0  0
   -6.1236    0.4198    0.7143 H   0  0  0  0  0  0  0  0  0  0  0  0
   -8.1454    0.8530   -0.5797 H   0  0  0  0  0  0  0  0  0  0  0  0
   -8.1734    0.5067   -3.0365 H   0  0  0  0  0  0  0  0  0  0  0  0
   -6.1276   -0.3108   -4.1825 H   0  0  0  0  0  0  0  0  0  0  0  0
   -4.0915   -0.7825   -2.8926 H   0  0  0  0  0  0  0  0  0  0  0  0
   -4.0040    0.3672    1.6453 H   0  0  0  0  0  0  0  0  0  0  0  0
   -4.5792   -1.3095    1.4674 H   0  0  0  0  0  0  0  0  0  0  0  0
   -2.2986   -2.1684    1.3742 H   0  0  0  0  0  0  0  0  0  0  0  0
   -2.5304   -1.1891    2.8303 H   0  0  0  0  0  0  0  0  0  0  0  0
  1  2  1  0
  2  3  2  0
  3  4  1  0
  4  5  1  0
  4  6  2  0
  6  7  1  0
  7  8  2  0
  8  9  1  0
  9 10  1  0
 10 11  2  0
 11 12  1  0
 12 13  2  0
 13 14  1  0
 14 15  1  0
 15 16  1  0
 16 17  1  0
 17 18  1  0
 18 19  1  0
 19 20  2  0
 20 21  1  0
 21 22  2  0
 22 23  1  0
 23 24  2  0
 18 25  1  0
 25 26  1  0
 13 27  1  0
  8  2  1  0
 27 10  1  0
 26 15  1  0
 24 19  1  0
  1 28  1  0
  1 29  1  0
  1 30  1  0
  3 31  1  0
  6 32  1  0
  7 33  1  0
 12 34  1  0
 14 35  1  0
 14 36  1  0
 16 37  1  0
 16 38  1  0
 17 39  1  0
 17 40  1  0
 20 41  1  0
 21 42  1  0
 22 43  1  0
 23 44  1  0
 24 45  1  0
 25 46  1  0
 25 47  1  0
 26 48  1  0
 26 49  1  0
M  END
$$$$
