
     RDKit          3D

 43 44  0  0  0  0  0  0  0  0999 V2000
   -6.4735    3.1746    1.9080 C   0  0  0  0  0  0  0  0  0  0  0  0
   -7.5520    2.2674    1.3302 C   0  0  0  0  0  0  0  0  0  0  0  0
   -7.3323    0.7898    1.6551 C   0  0  0  0  0  0  0  0  0  0  0  0
   -6.1600    0.2222    0.9507 C   0  0  0  0  0  0  0  0  0  0  0  0
   -6.0598   -0.2337   -0.2788 N   0  0  0  0  0  0  0  0  0  0  0  0
   -4.7532   -0.6491   -0.4278 N   0  0  0  0  0  0  0  0  0  0  0  0
   -4.1477   -0.4199    0.7199 C   0  0  0  0  0  0  0  0  0  0  0  0
   -2.4756   -0.7478    1.0436 S   0  0  0  0  0  0  0  0  0  0  0  0
   -2.0725   -1.7611   -0.4072 C   0  0  0  0  0  0  0  0  0  0  0  0
   -0.6070   -2.1589   -0.3579 C   0  0  0  0  0  0  0  0  0  0  0  0
   -0.2762   -3.3091   -0.0863 O   0  0  0  0  0  0  0  0  0  0  0  0
    0.2460   -1.1073   -0.6627 N   0  0  0  0  0  0  0  0  0  0  0  0
    1.6527   -1.1356   -0.7427 C   0  0  0  0  0  0  0  0  0  0  0  0
    2.4230   -2.2869   -0.5758 C   0  0  0  0  0  0  0  0  0  0  0  0
    3.8194   -2.2289   -0.6744 C   0  0  0  0  0  0  0  0  0  0  0  0
    4.4651   -1.0174   -0.9447 C   0  0  0  0  0  0  0  0  0  0  0  0
    5.9509   -1.0135   -1.0372 C   0  0  0  0  0  0  0  0  0  0  0  0
    6.6406   -2.0024   -0.8459 O   0  0  0  0  0  0  0  0  0  0  0  0
    6.4033    0.2250   -1.3570 O   0  0  0  0  0  0  0  0  0  0  0  0
    7.8271    0.3551   -1.4814 C   0  0  0  0  0  0  0  0  0  0  0  0
    8.4452    0.6508   -0.1278 C   0  0  0  0  0  0  0  0  0  0  0  0
    3.6958    0.1387   -1.1146 C   0  0  0  0  0  0  0  0  0  0  0  0
    2.3006    0.0767   -1.0141 C   0  0  0  0  0  0  0  0  0  0  0  0
   -4.9857    0.1407    1.6474 O   0  0  0  0  0  0  0  0  0  0  0  0
   -6.3878    3.0412    2.9915 H   0  0  0  0  0  0  0  0  0  0  0  0
   -5.4971    2.9734    1.4570 H   0  0  0  0  0  0  0  0  0  0  0  0
   -6.7206    4.2233    1.7139 H   0  0  0  0  0  0  0  0  0  0  0  0
   -8.5193    2.5751    1.7447 H   0  0  0  0  0  0  0  0  0  0  0  0
   -7.6074    2.4176    0.2450 H   0  0  0  0  0  0  0  0  0  0  0  0
   -8.2226    0.2257    1.3523 H   0  0  0  0  0  0  0  0  0  0  0  0
   -7.2273    0.6527    2.7376 H   0  0  0  0  0  0  0  0  0  0  0  0
   -2.2603   -1.2096   -1.3350 H   0  0  0  0  0  0  0  0  0  0  0  0
   -2.6834   -2.6699   -0.4167 H   0  0  0  0  0  0  0  0  0  0  0  0
   -0.1882   -0.2011   -0.7925 H   0  0  0  0  0  0  0  0  0  0  0  0
    1.9730   -3.2529   -0.3678 H   0  0  0  0  0  0  0  0  0  0  0  0
    4.3977   -3.1414   -0.5380 H   0  0  0  0  0  0  0  0  0  0  0  0
    8.0126    1.1930   -2.1613 H   0  0  0  0  0  0  0  0  0  0  0  0
    8.2709   -0.5358   -1.9401 H   0  0  0  0  0  0  0  0  0  0  0  0
    7.9922    1.5442    0.3147 H   0  0  0  0  0  0  0  0  0  0  0  0
    9.5231    0.8109   -0.2202 H   0  0  0  0  0  0  0  0  0  0  0  0
    8.2726   -0.1734    0.5715 H   0  0  0  0  0  0  0  0  0  0  0  0
    4.1655    1.0964   -1.3251 H   0  0  0  0  0  0  0  0  0  0  0  0
    1.7325    0.9935   -1.1502 H   0  0  0  0  0  0  0  0  0  0  0  0
  1  2  1  0
  2  3  1  0
  3  4  1  0
  4  5  2  0
  5  6  1  0
  6  7  2  0
  7  8  1  0
  8  9  1  0
  9 10  1  0
 10 11  2  0
 10 12  1  0
 12 13  1  0
 13 14  2  0
 14 15  1  0
 15 16  2  0
 16 17  1  0
 17 18  2  0
 17 19  1  0
 19 20  1  0
 20 21  1  0
 16 22  1  0
 22 23  2  0
  7 24  1  0
 24  4  1  0
 23 13  1  0
  1 25  1  0
  1 26  1  0
  1 27  1  0
  2 28  1  0
  2 29  1  0
  3 30  1  0
  3 31  1  0
  9 32  1  0
  9 33  1  0
 12 34  1  0
 14 35  1  0
 15 36  1  0
 20 37  1  0
 20 38  1  0
 21 39  1  0
 21 40  1  0
 21 41  1  0
 22 42  1  0
 23 43  1  0
M  END
$$$$
