
     RDKit          3D

 60 64  0  0  0  0  0  0  0  0999 V2000
    8.1539   -0.6725    1.4663 C   0  0  0  0  0  0  0  0  0  0  0  0
    6.8335   -0.4511    0.9901 O   0  0  0  0  0  0  0  0  0  0  0  0
    6.5654   -0.8359   -0.2997 C   0  0  0  0  0  0  0  0  0  0  0  0
    7.5583   -0.9208   -1.2869 C   0  0  0  0  0  0  0  0  0  0  0  0
    7.2324   -1.2673   -2.5992 C   0  0  0  0  0  0  0  0  0  0  0  0
    5.9110   -1.5274   -2.9397 C   0  0  0  0  0  0  0  0  0  0  0  0
    4.9140   -1.4366   -1.9670 C   0  0  0  0  0  0  0  0  0  0  0  0
    5.2195   -1.0885   -0.6364 C   0  0  0  0  0  0  0  0  0  0  0  0
    4.1462   -1.0195    0.3596 C   0  0  0  0  0  0  0  0  0  0  0  0
    4.1887   -1.1437    1.6684 N   0  0  0  0  0  0  0  0  0  0  0  0
    2.8774   -0.9868    2.0560 C   0  0  0  0  0  0  0  0  0  0  0  0
    2.5235   -1.0793    3.4326 C   0  0  0  0  0  0  0  0  0  0  0  0
    2.2139   -1.1497    4.5503 N   0  0  0  0  0  0  0  0  0  0  0  0
    2.0569   -0.7717    0.9615 C   0  0  0  0  0  0  0  0  0  0  0  0
    0.7227   -0.5770    0.7227 N   0  0  0  0  0  0  0  0  0  0  0  0
   -0.1197   -0.0232    1.7988 C   0  0  0  0  0  0  0  0  0  0  0  0
   -1.6245   -0.1888    1.4847 C   0  0  0  0  0  0  0  0  0  0  0  0
   -2.0282    0.3838    0.1738 N   0  0  0  0  0  0  0  0  0  0  0  0
   -3.4801    0.1211   -0.0817 C   0  0  0  0  0  0  0  0  0  0  0  0
   -4.4140    0.7624    0.9553 C   0  0  0  0  0  0  0  0  0  0  0  0
   -4.1919    2.0551    1.4597 C   0  0  0  0  0  0  0  0  0  0  0  0
   -5.0706    2.6241    2.3822 C   0  0  0  0  0  0  0  0  0  0  0  0
   -6.1872    1.9102    2.8109 C   0  0  0  0  0  0  0  0  0  0  0  0
   -6.4291    0.6313    2.3170 C   0  0  0  0  0  0  0  0  0  0  0  0
   -5.5519    0.0627    1.3919 C   0  0  0  0  0  0  0  0  0  0  0  0
   -3.9344    0.5082   -1.4972 C   0  0  0  0  0  0  0  0  0  0  0  0
   -4.5168   -0.4629   -2.3353 C   0  0  0  0  0  0  0  0  0  0  0  0
   -4.9374   -0.1344   -3.6269 C   0  0  0  0  0  0  0  0  0  0  0  0
   -4.7851    1.1680   -4.0991 C   0  0  0  0  0  0  0  0  0  0  0  0
   -4.2110    2.1435   -3.2818 C   0  0  0  0  0  0  0  0  0  0  0  0
   -3.7869    1.8167   -1.9909 C   0  0  0  0  0  0  0  0  0  0  0  0
   -1.1784   -0.2530   -0.8680 C   0  0  0  0  0  0  0  0  0  0  0  0
    0.3357   -0.0775   -0.6151 C   0  0  0  0  0  0  0  0  0  0  0  0
    2.8840   -0.8067   -0.1347 O   0  0  0  0  0  0  0  0  0  0  0  0
    8.1412   -0.5478    2.5537 H   0  0  0  0  0  0  0  0  0  0  0  0
    8.4942   -1.6908    1.2491 H   0  0  0  0  0  0  0  0  0  0  0  0
    8.8451    0.0703    1.0556 H   0  0  0  0  0  0  0  0  0  0  0  0
    8.5969   -0.7024   -1.0644 H   0  0  0  0  0  0  0  0  0  0  0  0
    8.0117   -1.3248   -3.3560 H   0  0  0  0  0  0  0  0  0  0  0  0
    5.6530   -1.8001   -3.9600 H   0  0  0  0  0  0  0  0  0  0  0  0
    3.8866   -1.6510   -2.2556 H   0  0  0  0  0  0  0  0  0  0  0  0
    0.1192    1.0392    1.9433 H   0  0  0  0  0  0  0  0  0  0  0  0
    0.0604   -0.5424    2.7427 H   0  0  0  0  0  0  0  0  0  0  0  0
   -2.1672    0.3015    2.2995 H   0  0  0  0  0  0  0  0  0  0  0  0
   -1.8733   -1.2572    1.5234 H   0  0  0  0  0  0  0  0  0  0  0  0
   -3.6137   -0.9681    0.0107 H   0  0  0  0  0  0  0  0  0  0  0  0
   -3.3224    2.6215    1.1345 H   0  0  0  0  0  0  0  0  0  0  0  0
   -4.8855    3.6258    2.7614 H   0  0  0  0  0  0  0  0  0  0  0  0
   -6.8739    2.3538    3.5262 H   0  0  0  0  0  0  0  0  0  0  0  0
   -7.3066    0.0783    2.6447 H   0  0  0  0  0  0  0  0  0  0  0  0
   -5.7664   -0.9302    1.0045 H   0  0  0  0  0  0  0  0  0  0  0  0
   -4.6448   -1.4840   -1.9867 H   0  0  0  0  0  0  0  0  0  0  0  0
   -5.3861   -0.8956   -4.2640 H   0  0  0  0  0  0  0  0  0  0  0  0
   -5.1156    1.4246   -5.1038 H   0  0  0  0  0  0  0  0  0  0  0  0
   -4.0928    3.1605   -3.6481 H   0  0  0  0  0  0  0  0  0  0  0  0
   -3.3315    2.5894   -1.3704 H   0  0  0  0  0  0  0  0  0  0  0  0
   -1.4052   -1.3289   -0.9395 H   0  0  0  0  0  0  0  0  0  0  0  0
   -1.3812    0.1897   -1.8500 H   0  0  0  0  0  0  0  0  0  0  0  0
    0.6071    0.9832   -0.7007 H   0  0  0  0  0  0  0  0  0  0  0  0
    0.8610   -0.6272   -1.4092 H   0  0  0  0  0  0  0  0  0  0  0  0
  1  2  1  0
  2  3  1  0
  3  4  2  0
  4  5  1  0
  5  6  2  0
  6  7  1  0
  7  8  2  0
  8  9  1  0
  9 10  2  0
 10 11  1  0
 11 12  1  0
 12 13  3  0
 11 14  2  0
 14 15  1  0
 15 16  1  0
 16 17  1  0
 17 18  1  0
 18 19  1  0
 19 20  1  0
 20 21  2  0
 21 22  1  0
 22 23  2  0
 23 24  1  0
 24 25  2  0
 19 26  1  0
 26 27  2  0
 27 28  1  0
 28 29  2  0
 29 30  1  0
 30 31  2  0
 18 32  1  0
 32 33  1  0
 14 34  1  0
  8  3  1  0
 34  9  1  0
 33 15  1  0
 25 20  1  0
 31 26  1  0
  1 35  1  0
  1 36  1  0
  1 37  1  0
  4 38  1  0
  5 39  1  0
  6 40  1  0
  7 41  1  0
 16 42  1  0
 16 43  1  0
 17 44  1  0
 17 45  1  0
 19 46  1  0
 21 47  1  0
 22 48  1  0
 23 49  1  0
 24 50  1  0
 25 51  1  0
 27 52  1  0
 28 53  1  0
 29 54  1  0
 30 55  1  0
 31 56  1  0
 32 57  1  0
 32 58  1  0
 33 59  1  0
 33 60  1  0
M  END
$$$$
