
     RDKit          3D

 42 44  0  0  0  0  0  0  0  0999 V2000
   -4.8674    2.1772    0.0212 C   0  0  0  0  0  0  0  0  0  0  0  0
   -4.7280    0.6888   -0.3462 C   0  0  0  0  0  0  0  0  0  0  0  0
   -5.2865    0.4847   -1.7632 C   0  0  0  0  0  0  0  0  0  0  0  0
   -5.5377   -0.1385    0.6642 C   0  0  0  0  0  0  0  0  0  0  0  0
   -3.3067    0.3383   -0.2889 N   0  0  0  0  0  0  0  0  0  0  0  0
   -2.7674   -0.9083   -0.5535 C   0  0  0  0  0  0  0  0  0  0  0  0
   -3.4307   -1.8881   -0.8776 O   0  0  0  0  0  0  0  0  0  0  0  0
   -1.2954   -0.9273   -0.4007 C   0  0  0  0  0  0  0  0  0  0  0  0
   -0.5913    0.2020   -0.0347 N   0  0  0  0  0  0  0  0  0  0  0  0
    0.6574   -0.2013   -0.0021 C   0  0  0  0  0  0  0  0  0  0  0  0
    1.7754    0.5142    0.3060 N   0  0  0  0  0  0  0  0  0  0  0  0
    2.9124   -0.1200    0.2786 C   0  0  0  0  0  0  0  0  0  0  0  0
    4.1629    0.6204    0.6155 C   0  0  0  0  0  0  0  0  0  0  0  0
    4.2463    1.9785    0.2805 C   0  0  0  0  0  0  0  0  0  0  0  0
    5.3987    2.7073    0.5792 C   0  0  0  0  0  0  0  0  0  0  0  0
    6.4684    2.0870    1.2223 C   0  0  0  0  0  0  0  0  0  0  0  0
    6.3852    0.7405    1.5749 C   0  0  0  0  0  0  0  0  0  0  0  0
    5.2340    0.0064    1.2775 C   0  0  0  0  0  0  0  0  0  0  0  0
    3.0639   -1.5628   -0.0993 C   0  0  0  0  0  0  0  0  0  0  0  0
    1.9299   -2.2269   -0.3965 C   0  0  0  0  0  0  0  0  0  0  0  0
    1.8849   -3.6515   -0.7962 C   0  0  0  0  0  0  0  0  0  0  0  0
    1.3859   -3.8305   -2.0426 F   0  0  0  0  0  0  0  0  0  0  0  0
    1.1619   -4.4123    0.0602 F   0  0  0  0  0  0  0  0  0  0  0  0
    3.1348   -4.1957   -0.8128 F   0  0  0  0  0  0  0  0  0  0  0  0
    0.7165   -1.5569   -0.3459 N   0  0  0  0  0  0  0  0  0  0  0  0
   -0.5290   -2.0110   -0.5972 N   0  0  0  0  0  0  0  0  0  0  0  0
   -4.3026    2.8099   -0.6736 H   0  0  0  0  0  0  0  0  0  0  0  0
   -4.4791    2.3734    1.0276 H   0  0  0  0  0  0  0  0  0  0  0  0
   -5.9140    2.5005   -0.0043 H   0  0  0  0  0  0  0  0  0  0  0  0
   -6.3256    0.8263   -1.8318 H   0  0  0  0  0  0  0  0  0  0  0  0
   -5.2698   -0.5683   -2.0621 H   0  0  0  0  0  0  0  0  0  0  0  0
   -4.6991    1.0427   -2.5014 H   0  0  0  0  0  0  0  0  0  0  0  0
   -5.5258   -1.2061    0.4221 H   0  0  0  0  0  0  0  0  0  0  0  0
   -5.1320   -0.0291    1.6766 H   0  0  0  0  0  0  0  0  0  0  0  0
   -6.5864    0.1792    0.6856 H   0  0  0  0  0  0  0  0  0  0  0  0
   -2.6286    1.0509   -0.0282 H   0  0  0  0  0  0  0  0  0  0  0  0
    3.4157    2.4767   -0.2161 H   0  0  0  0  0  0  0  0  0  0  0  0
    5.4587    3.7602    0.3141 H   0  0  0  0  0  0  0  0  0  0  0  0
    7.3640    2.6570    1.4583 H   0  0  0  0  0  0  0  0  0  0  0  0
    7.2157    0.2652    2.0919 H   0  0  0  0  0  0  0  0  0  0  0  0
    5.1872   -1.0308    1.5957 H   0  0  0  0  0  0  0  0  0  0  0  0
    4.0432   -2.0221   -0.1537 H   0  0  0  0  0  0  0  0  0  0  0  0
  1  2  1  0
  2  3  1  0
  2  4  1  0
  2  5  1  0
  5  6  1  0
  6  7  2  0
  6  8  1  0
  8  9  1  0
  9 10  2  0
 10 11  1  0
 11 12  2  0
 12 13  1  0
 13 14  2  0
 14 15  1  0
 15 16  2  0
 16 17  1  0
 17 18  2  0
 12 19  1  0
 19 20  2  0
 20 21  1  0
 21 22  1  0
 21 23  1  0
 21 24  1  0
 20 25  1  0
 25 26  1  0
 26  8  2  0
 25 10  1  0
 18 13  1  0
  1 27  1  0
  1 28  1  0
  1 29  1  0
  3 30  1  0
  3 31  1  0
  3 32  1  0
  4 33  1  0
  4 34  1  0
  4 35  1  0
  5 36  1  0
 14 37  1  0
 15 38  1  0
 16 39  1  0
 17 40  1  0
 18 41  1  0
 19 42  1  0
M  END
$$$$
