
     RDKit          3D

 42 46  0  0  0  0  0  0  0  0999 V2000
   -3.0594    0.6962   -2.1918 O   0  0  0  0  0  0  0  0  0  0  0  0
   -2.3779    0.2390   -1.2678 C   0  0  0  0  0  0  0  0  0  0  0  0
   -2.8145   -1.0468   -0.6601 C   0  0  0  0  0  0  0  0  0  0  0  0
   -3.3259   -2.0404   -1.5045 C   0  0  0  0  0  0  0  0  0  0  0  0
   -3.7703   -3.2517   -0.9725 C   0  0  0  0  0  0  0  0  0  0  0  0
   -3.7177   -3.4688    0.4040 C   0  0  0  0  0  0  0  0  0  0  0  0
   -3.2280   -2.4742    1.2509 C   0  0  0  0  0  0  0  0  0  0  0  0
   -2.7819   -1.2607    0.7224 C   0  0  0  0  0  0  0  0  0  0  0  0
   -1.1844    1.0115   -0.6798 C   0  0  0  0  0  0  0  0  0  0  0  0
   -1.7378    1.9779    0.2261 O   0  0  0  0  0  0  0  0  0  0  0  0
   -0.7764    2.7814    0.7753 C   0  0  0  0  0  0  0  0  0  0  0  0
   -1.1034    4.1145    1.0069 C   0  0  0  0  0  0  0  0  0  0  0  0
   -0.1630    4.9630    1.5873 C   0  0  0  0  0  0  0  0  0  0  0  0
    1.0890    4.4684    1.9528 C   0  0  0  0  0  0  0  0  0  0  0  0
    1.4018    3.1228    1.7434 C   0  0  0  0  0  0  0  0  0  0  0  0
    0.4696    2.2665    1.1428 C   0  0  0  0  0  0  0  0  0  0  0  0
    0.7023    0.7943    0.9809 C   0  0  0  0  0  0  0  0  0  0  0  0
    2.0964    0.3674    0.5515 C   0  0  0  0  0  0  0  0  0  0  0  0
    1.7471   -0.7167   -0.4280 C   0  0  0  0  0  0  0  0  0  0  0  0
    2.7596   -1.5934   -0.9701 C   0  0  0  0  0  0  0  0  0  0  0  0
    4.1214   -1.5965   -0.7264 C   0  0  0  0  0  0  0  0  0  0  0  0
    4.8051   -2.6198   -1.4471 C   0  0  0  0  0  0  0  0  0  0  0  0
    3.9452   -3.3668   -2.2186 C   0  0  0  0  0  0  0  0  0  0  0  0
    2.3284   -2.8350   -2.0721 S   0  0  0  0  0  0  0  0  0  0  0  0
    0.4965   -0.7412   -0.7835 N   0  0  0  0  0  0  0  0  0  0  0  0
   -0.1757    0.1852   -0.0116 N   0  0  0  0  0  0  0  0  0  0  0  0
   -3.3754   -1.8719   -2.5781 H   0  0  0  0  0  0  0  0  0  0  0  0
   -4.1592   -4.0230   -1.6321 H   0  0  0  0  0  0  0  0  0  0  0  0
   -4.0647   -4.4123    0.8178 H   0  0  0  0  0  0  0  0  0  0  0  0
   -3.1979   -2.6419    2.3244 H   0  0  0  0  0  0  0  0  0  0  0  0
   -2.4235   -0.4910    1.3997 H   0  0  0  0  0  0  0  0  0  0  0  0
   -0.6890    1.5296   -1.5135 H   0  0  0  0  0  0  0  0  0  0  0  0
   -2.0841    4.4911    0.7293 H   0  0  0  0  0  0  0  0  0  0  0  0
   -0.4094    6.0073    1.7617 H   0  0  0  0  0  0  0  0  0  0  0  0
    1.8167    5.1303    2.4166 H   0  0  0  0  0  0  0  0  0  0  0  0
    2.3707    2.7533    2.0699 H   0  0  0  0  0  0  0  0  0  0  0  0
    0.4503    0.3090    1.9335 H   0  0  0  0  0  0  0  0  0  0  0  0
    2.6511    1.1507    0.0241 H   0  0  0  0  0  0  0  0  0  0  0  0
    2.6913   -0.0095    1.3878 H   0  0  0  0  0  0  0  0  0  0  0  0
    4.6186   -0.8986   -0.0639 H   0  0  0  0  0  0  0  0  0  0  0  0
    5.8728   -2.7982   -1.4028 H   0  0  0  0  0  0  0  0  0  0  0  0
    4.1855   -4.2008   -2.8639 H   0  0  0  0  0  0  0  0  0  0  0  0
  1  2  2  0
  2  3  1  0
  3  4  2  0
  4  5  1  0
  5  6  2  0
  6  7  1  0
  7  8  2  0
  2  9  1  0
  9 10  1  0
 10 11  1  0
 11 12  2  0
 12 13  1  0
 13 14  2  0
 14 15  1  0
 15 16  2  0
 16 17  1  0
 17 18  1  0
 18 19  1  0
 19 20  1  0
 20 21  2  0
 21 22  1  0
 22 23  2  0
 23 24  1  0
 19 25  2  0
 25 26  1  0
  8  3  1  0
 26  9  1  0
 16 11  1  0
 26 17  1  0
 24 20  1  0
  4 27  1  0
  5 28  1  0
  6 29  1  0
  7 30  1  0
  8 31  1  0
  9 32  1  0
 12 33  1  0
 13 34  1  0
 14 35  1  0
 15 36  1  0
 17 37  1  0
 18 38  1  0
 18 39  1  0
 21 40  1  0
 22 41  1  0
 23 42  1  0
M  END
$$$$
