
     RDKit          3D

 41 43  0  0  0  0  0  0  0  0999 V2000
   -1.2461    0.4141    2.1118 C   0  0  0  0  0  0  0  0  0  0  0  0
   -2.2090    0.1852    0.9747 C   0  0  0  0  0  0  0  0  0  0  0  0
   -3.4607    0.6801    1.0857 C   0  0  0  0  0  0  0  0  0  0  0  0
   -4.5475    0.5404    0.1088 C   0  0  0  0  0  0  0  0  0  0  0  0
   -5.6935   -0.1856    0.4496 C   0  0  0  0  0  0  0  0  0  0  0  0
   -6.7378   -0.3220   -0.4672 C   0  0  0  0  0  0  0  0  0  0  0  0
   -6.6442    0.2712   -1.7257 C   0  0  0  0  0  0  0  0  0  0  0  0
   -5.5084    1.0035   -2.0685 C   0  0  0  0  0  0  0  0  0  0  0  0
   -4.4633    1.1405   -1.1530 C   0  0  0  0  0  0  0  0  0  0  0  0
   -1.8113   -0.6790   -0.1330 C   0  0  0  0  0  0  0  0  0  0  0  0
   -0.6225   -0.8611   -0.7295 C   0  0  0  0  0  0  0  0  0  0  0  0
   -0.4327   -2.0404   -2.0012 S   0  0  0  0  0  0  0  0  0  0  0  0
    1.2897   -1.7402   -2.1837 C   0  0  0  0  0  0  0  0  0  0  0  0
    2.2469   -2.5244   -3.3021 S   0  0  0  0  0  0  0  0  0  0  0  0
    1.6527   -0.7528   -1.2959 N   0  0  0  0  0  0  0  0  0  0  0  0
    2.9797   -0.2907   -1.1795 N   0  0  0  0  0  0  0  0  0  0  0  0
    3.7496   -0.9113   -0.2092 C   0  0  0  0  0  0  0  0  0  0  0  0
    3.4028   -1.9260    0.3872 O   0  0  0  0  0  0  0  0  0  0  0  0
    5.0394   -0.2520    0.1210 C   0  0  0  0  0  0  0  0  0  0  0  0
    5.7238    0.5379   -0.8038 C   0  0  0  0  0  0  0  0  0  0  0  0
    6.9210    1.1056   -0.4051 C   0  0  0  0  0  0  0  0  0  0  0  0
    7.4587    0.9376    0.8212 N   0  0  0  0  0  0  0  0  0  0  0  0
    6.7838    0.1535    1.6889 C   0  0  0  0  0  0  0  0  0  0  0  0
    5.5835   -0.4613    1.3885 C   0  0  0  0  0  0  0  0  0  0  0  0
    0.6762   -0.1570   -0.5146 C   0  0  0  0  0  0  0  0  0  0  0  0
    0.8540    0.8402    0.1713 O   0  0  0  0  0  0  0  0  0  0  0  0
   -1.7767    0.5079    3.0670 H   0  0  0  0  0  0  0  0  0  0  0  0
   -0.6827    1.3395    1.9646 H   0  0  0  0  0  0  0  0  0  0  0  0
   -0.5496   -0.4227    2.2294 H   0  0  0  0  0  0  0  0  0  0  0  0
   -3.7375    1.2605    1.9648 H   0  0  0  0  0  0  0  0  0  0  0  0
   -5.7778   -0.6545    1.4271 H   0  0  0  0  0  0  0  0  0  0  0  0
   -7.6244   -0.8908   -0.1991 H   0  0  0  0  0  0  0  0  0  0  0  0
   -7.4581    0.1650   -2.4384 H   0  0  0  0  0  0  0  0  0  0  0  0
   -5.4373    1.4702   -3.0474 H   0  0  0  0  0  0  0  0  0  0  0  0
   -3.5852    1.7200   -1.4279 H   0  0  0  0  0  0  0  0  0  0  0  0
   -2.6426   -1.2759   -0.5177 H   0  0  0  0  0  0  0  0  0  0  0  0
    3.0803    0.7130   -1.2990 H   0  0  0  0  0  0  0  0  0  0  0  0
    5.3687    0.6933   -1.8155 H   0  0  0  0  0  0  0  0  0  0  0  0
    7.5031    1.7250   -1.0825 H   0  0  0  0  0  0  0  0  0  0  0  0
    7.2504    0.0285    2.6622 H   0  0  0  0  0  0  0  0  0  0  0  0
    5.0847   -1.0851    2.1234 H   0  0  0  0  0  0  0  0  0  0  0  0
  1  2  1  0
  2  3  2  3
  3  4  1  0
  4  5  2  0
  5  6  1  0
  6  7  2  0
  7  8  1  0
  8  9  2  0
  2 10  1  0
 10 11  2  3
 11 12  1  0
 12 13  1  0
 13 14  2  0
 13 15  1  0
 15 16  1  0
 16 17  1  0
 17 18  2  0
 17 19  1  0
 19 20  2  0
 20 21  1  0
 21 22  2  0
 22 23  1  0
 23 24  2  0
 15 25  1  0
 25 26  2  0
  9  4  1  0
 25 11  1  0
 24 19  1  0
  1 27  1  0
  1 28  1  0
  1 29  1  0
  3 30  1  0
  5 31  1  0
  6 32  1  0
  7 33  1  0
  8 34  1  0
  9 35  1  0
 10 36  1  0
 16 37  1  0
 20 38  1  0
 21 39  1  0
 23 40  1  0
 24 41  1  0
M  END
$$$$
