
     RDKit          3D

 33 34  0  0  0  0  0  0  0  0999 V2000
    7.3284    0.2483   -0.6210 C   0  0  0  0  0  0  0  0  0  0  0  0
    6.7258   -0.5633    0.5181 C   0  0  0  0  0  0  0  0  0  0  0  0
    5.2679   -0.2155    0.8209 C   0  0  0  0  0  0  0  0  0  0  0  0
    4.1487   -0.7220   -0.5213 S   0  0  0  0  0  0  0  0  0  0  0  0
    2.6081   -0.2047    0.1242 C   0  0  0  0  0  0  0  0  0  0  0  0
    2.4831    0.4002    1.2862 N   0  0  0  0  0  0  0  0  0  0  0  0
    1.1660    0.7081    1.5661 N   0  0  0  0  0  0  0  0  0  0  0  0
    0.3532    0.3093    0.6114 C   0  0  0  0  0  0  0  0  0  0  0  0
   -1.0003    0.5321    0.6750 N   0  0  0  0  0  0  0  0  0  0  0  0
   -1.9633    0.0128   -0.1667 C   0  0  0  0  0  0  0  0  0  0  0  0
   -1.7523   -0.7867   -1.0678 O   0  0  0  0  0  0  0  0  0  0  0  0
   -3.2111    0.5302    0.1583 N   0  0  0  0  0  0  0  0  0  0  0  0
   -4.4601    0.1867   -0.4023 C   0  0  0  0  0  0  0  0  0  0  0  0
   -5.5692    0.9462   -0.0045 C   0  0  0  0  0  0  0  0  0  0  0  0
   -6.8435    0.6670   -0.5058 C   0  0  0  0  0  0  0  0  0  0  0  0
   -7.0225   -0.3777   -1.4077 C   0  0  0  0  0  0  0  0  0  0  0  0
   -5.9281   -1.1419   -1.8044 C   0  0  0  0  0  0  0  0  0  0  0  0
   -4.6525   -0.8625   -1.3027 C   0  0  0  0  0  0  0  0  0  0  0  0
    1.1301   -0.4358   -0.7082 S   0  0  0  0  0  0  0  0  0  0  0  0
    7.2328    1.3221   -0.4306 H   0  0  0  0  0  0  0  0  0  0  0  0
    8.3938    0.0174   -0.7220 H   0  0  0  0  0  0  0  0  0  0  0  0
    6.8495    0.0232   -1.5783 H   0  0  0  0  0  0  0  0  0  0  0  0
    7.3167   -0.3683    1.4216 H   0  0  0  0  0  0  0  0  0  0  0  0
    6.8301   -1.6341    0.3051 H   0  0  0  0  0  0  0  0  0  0  0  0
    4.9659   -0.7331    1.7380 H   0  0  0  0  0  0  0  0  0  0  0  0
    5.1707    0.8622    0.9920 H   0  0  0  0  0  0  0  0  0  0  0  0
   -1.2899    0.9750    1.5318 H   0  0  0  0  0  0  0  0  0  0  0  0
   -3.2179    1.3217    0.7834 H   0  0  0  0  0  0  0  0  0  0  0  0
   -5.4602    1.7677    0.6984 H   0  0  0  0  0  0  0  0  0  0  0  0
   -7.6950    1.2652   -0.1922 H   0  0  0  0  0  0  0  0  0  0  0  0
   -8.0116   -0.5981   -1.8005 H   0  0  0  0  0  0  0  0  0  0  0  0
   -6.0618   -1.9613   -2.5065 H   0  0  0  0  0  0  0  0  0  0  0  0
   -3.8314   -1.4903   -1.6344 H   0  0  0  0  0  0  0  0  0  0  0  0
  1  2  1  0
  2  3  1  0
  3  4  1  0
  4  5  1  0
  5  6  2  0
  6  7  1  0
  7  8  2  0
  8  9  1  0
  9 10  1  0
 10 11  2  0
 10 12  1  0
 12 13  1  0
 13 14  2  0
 14 15  1  0
 15 16  2  0
 16 17  1  0
 17 18  2  0
  8 19  1  0
 19  5  1  0
 18 13  1  0
  1 20  1  0
  1 21  1  0
  1 22  1  0
  2 23  1  0
  2 24  1  0
  3 25  1  0
  3 26  1  0
  9 27  1  0
 12 28  1  0
 14 29  1  0
 15 30  1  0
 16 31  1  0
 17 32  1  0
 18 33  1  0
M  END
$$$$
