
     RDKit          3D

 62 66  0  0  0  0  0  0  0  0999 V2000
   -4.9605   -5.0755    0.7199 C   0  0  0  0  0  0  0  0  0  0  0  0
   -4.4383   -5.0110   -0.6011 O   0  0  0  0  0  0  0  0  0  0  0  0
   -4.0583   -3.7781   -1.0568 C   0  0  0  0  0  0  0  0  0  0  0  0
   -3.6125   -3.7586   -2.3802 C   0  0  0  0  0  0  0  0  0  0  0  0
   -3.1924   -2.5678   -2.9714 C   0  0  0  0  0  0  0  0  0  0  0  0
   -3.2156   -1.3831   -2.2373 C   0  0  0  0  0  0  0  0  0  0  0  0
   -3.6573   -1.3824   -0.9079 C   0  0  0  0  0  0  0  0  0  0  0  0
   -3.6592   -0.1344   -0.1315 C   0  0  0  0  0  0  0  0  0  0  0  0
   -5.1590    0.4713    0.4289 S   0  0  0  0  0  0  0  0  0  0  0  0
   -4.4367    1.8460    1.1590 C   0  0  0  0  0  0  0  0  0  0  0  0
   -5.0958    2.8724    1.8627 C   0  0  0  0  0  0  0  0  0  0  0  0
   -4.3464    3.9243    2.4015 C   0  0  0  0  0  0  0  0  0  0  0  0
   -2.9673    3.9598    2.2496 C   0  0  0  0  0  0  0  0  0  0  0  0
   -2.1291    4.9281    2.7310 O   0  0  0  0  0  0  0  0  0  0  0  0
   -2.7267    6.0026    3.4453 C   0  0  0  0  0  0  0  0  0  0  0  0
   -2.3248    2.9327    1.5477 C   0  0  0  0  0  0  0  0  0  0  0  0
   -3.0533    1.8531    0.9814 C   0  0  0  0  0  0  0  0  0  0  0  0
   -2.6100    0.7008    0.2250 C   0  0  0  0  0  0  0  0  0  0  0  0
   -1.2286    0.4055   -0.1464 C   0  0  0  0  0  0  0  0  0  0  0  0
   -0.5485    1.2455   -1.0328 C   0  0  0  0  0  0  0  0  0  0  0  0
    0.7706    0.9600   -1.3928 C   0  0  0  0  0  0  0  0  0  0  0  0
    1.4256   -0.1601   -0.8747 C   0  0  0  0  0  0  0  0  0  0  0  0
    2.7081   -0.3238   -1.3177 O   0  0  0  0  0  0  0  0  0  0  0  0
    3.4427   -1.4337   -0.7985 C   0  0  0  0  0  0  0  0  0  0  0  0
    4.8555   -1.4514   -1.4129 C   0  0  0  0  0  0  0  0  0  0  0  0
    5.7074   -0.3180   -1.0250 N   0  0  0  0  0  0  0  0  0  0  0  0
    6.0289   -0.2744    0.4010 C   0  0  0  0  0  0  0  0  0  0  0  0
    7.2350    0.6541    0.4740 C   0  0  0  0  0  0  0  0  0  0  0  0
    7.7991    0.6969   -0.9411 C   0  0  0  0  0  0  0  0  0  0  0  0
    6.9999   -0.3407   -1.7099 C   0  0  0  0  0  0  0  0  0  0  0  0
    0.7495   -0.9954    0.0148 C   0  0  0  0  0  0  0  0  0  0  0  0
   -0.5718   -0.7121    0.3801 C   0  0  0  0  0  0  0  0  0  0  0  0
   -4.0767   -2.5899   -0.3230 C   0  0  0  0  0  0  0  0  0  0  0  0
   -5.8598   -4.4587    0.8210 H   0  0  0  0  0  0  0  0  0  0  0  0
   -4.2017   -4.7937    1.4573 H   0  0  0  0  0  0  0  0  0  0  0  0
   -5.2454   -6.1137    0.9163 H   0  0  0  0  0  0  0  0  0  0  0  0
   -3.5932   -4.6812   -2.9554 H   0  0  0  0  0  0  0  0  0  0  0  0
   -2.8464   -2.5637   -4.0015 H   0  0  0  0  0  0  0  0  0  0  0  0
   -2.8850   -0.4599   -2.7082 H   0  0  0  0  0  0  0  0  0  0  0  0
   -6.1750    2.8499    1.9875 H   0  0  0  0  0  0  0  0  0  0  0  0
   -4.8824    4.7005    2.9381 H   0  0  0  0  0  0  0  0  0  0  0  0
   -3.4153    6.5662    2.8071 H   0  0  0  0  0  0  0  0  0  0  0  0
   -3.2287    5.6442    4.3501 H   0  0  0  0  0  0  0  0  0  0  0  0
   -1.9279    6.6831    3.7554 H   0  0  0  0  0  0  0  0  0  0  0  0
   -1.2427    2.9659    1.4383 H   0  0  0  0  0  0  0  0  0  0  0  0
   -1.0376    2.1212   -1.4526 H   0  0  0  0  0  0  0  0  0  0  0  0
    1.2950    1.6157   -2.0839 H   0  0  0  0  0  0  0  0  0  0  0  0
    2.9403   -2.3656   -1.0864 H   0  0  0  0  0  0  0  0  0  0  0  0
    3.5020   -1.3821    0.2947 H   0  0  0  0  0  0  0  0  0  0  0  0
    4.7420   -1.4329   -2.5044 H   0  0  0  0  0  0  0  0  0  0  0  0
    5.3416   -2.3993   -1.1489 H   0  0  0  0  0  0  0  0  0  0  0  0
    6.3051   -1.2652    0.7836 H   0  0  0  0  0  0  0  0  0  0  0  0
    5.1999    0.1119    1.0021 H   0  0  0  0  0  0  0  0  0  0  0  0
    7.9760    0.2789    1.1878 H   0  0  0  0  0  0  0  0  0  0  0  0
    6.9417    1.6613    0.7916 H   0  0  0  0  0  0  0  0  0  0  0  0
    7.6456    1.6948   -1.3694 H   0  0  0  0  0  0  0  0  0  0  0  0
    8.8726    0.4847   -0.9613 H   0  0  0  0  0  0  0  0  0  0  0  0
    6.9129   -0.0770   -2.7686 H   0  0  0  0  0  0  0  0  0  0  0  0
    7.4846   -1.3221   -1.6296 H   0  0  0  0  0  0  0  0  0  0  0  0
    1.2163   -1.8761    0.4418 H   0  0  0  0  0  0  0  0  0  0  0  0
   -1.0833   -1.3733    1.0756 H   0  0  0  0  0  0  0  0  0  0  0  0
   -4.4047   -2.5766    0.7113 H   0  0  0  0  0  0  0  0  0  0  0  0
  1  2  1  0
  2  3  1  0
  3  4  2  0
  4  5  1  0
  5  6  2  0
  6  7  1  0
  7  8  1  0
  8  9  1  0
  9 10  1  0
 10 11  2  0
 11 12  1  0
 12 13  2  0
 13 14  1  0
 14 15  1  0
 13 16  1  0
 16 17  2  0
 17 18  1  0
 18 19  1  0
 19 20  2  0
 20 21  1  0
 21 22  2  0
 22 23  1  0
 23 24  1  0
 24 25  1  0
 25 26  1  0
 26 27  1  0
 27 28  1  0
 28 29  1  0
 29 30  1  0
 22 31  1  0
 31 32  2  0
  7 33  2  0
 33  3  1  0
 18  8  2  0
 32 19  1  0
 17 10  1  0
 30 26  1  0
  1 34  1  0
  1 35  1  0
  1 36  1  0
  4 37  1  0
  5 38  1  0
  6 39  1  0
 11 40  1  0
 12 41  1  0
 15 42  1  0
 15 43  1  0
 15 44  1  0
 16 45  1  0
 20 46  1  0
 21 47  1  0
 24 48  1  0
 24 49  1  0
 25 50  1  0
 25 51  1  0
 27 52  1  0
 27 53  1  0
 28 54  1  0
 28 55  1  0
 29 56  1  0
 29 57  1  0
 30 58  1  0
 30 59  1  0
 31 60  1  0
 32 61  1  0
 33 62  1  0
M  END
$$$$
