
     RDKit          3D

 40 41  0  0  0  0  0  0  0  0999 V2000
    1.0918   -0.5741    4.1049 O   0  0  0  0  0  0  0  0  0  0  0  0
    0.7400    0.5576    3.8169 C   0  0  0  0  0  0  0  0  0  0  0  0
    0.3584    1.4166    4.7834 O   0  0  0  0  0  0  0  0  0  0  0  0
    0.7483    1.1969    2.4604 C   0  0  0  0  0  0  0  0  0  0  0  0
    0.6257    0.1593    1.3399 C   0  0  0  0  0  0  0  0  0  0  0  0
   -0.7000   -0.5110    1.1902 N   0  0  0  0  0  0  0  0  0  0  0  0
   -1.8256    0.3950    0.9343 C   0  0  0  0  0  0  0  0  0  0  0  0
   -2.4969    0.8223    2.1898 C   0  0  0  0  0  0  0  0  0  0  0  0
   -2.9060    0.1545    3.3267 C   0  0  0  0  0  0  0  0  0  0  0  0
   -3.4887    1.1262    4.1741 C   0  0  0  0  0  0  0  0  0  0  0  0
   -3.4024    2.3219    3.5010 C   0  0  0  0  0  0  0  0  0  0  0  0
   -2.8063    2.1473    2.2937 O   0  0  0  0  0  0  0  0  0  0  0  0
    1.1024    0.7551    0.0010 C   0  0  0  0  0  0  0  0  0  0  0  0
    1.6857    1.8220   -0.1321 O   0  0  0  0  0  0  0  0  0  0  0  0
    0.8108   -0.1006   -1.0270 O   0  0  0  0  0  0  0  0  0  0  0  0
    1.2327    0.3633   -2.3170 C   0  0  0  0  0  0  0  0  0  0  0  0
    0.8858   -0.6856   -3.3692 C   0  0  0  0  0  0  0  0  0  0  0  0
    1.5801   -2.0221   -3.1541 C   0  0  0  0  0  0  0  0  0  0  0  0
    1.5877   -2.5851   -4.5533 C   0  0  0  0  0  0  0  0  0  0  0  0
    1.8442   -1.3486   -5.3885 C   0  0  0  0  0  0  0  0  0  0  0  0
    1.2715   -0.2386   -4.6803 O   0  0  0  0  0  0  0  0  0  0  0  0
    0.3991    0.8838    5.6040 H   0  0  0  0  0  0  0  0  0  0  0  0
   -0.0350    1.9567    2.3924 H   0  0  0  0  0  0  0  0  0  0  0  0
    1.7048    1.7293    2.3856 H   0  0  0  0  0  0  0  0  0  0  0  0
    1.3450   -0.6450    1.5469 H   0  0  0  0  0  0  0  0  0  0  0  0
   -0.6176   -1.1394    0.3877 H   0  0  0  0  0  0  0  0  0  0  0  0
   -2.5698   -0.1538    0.3437 H   0  0  0  0  0  0  0  0  0  0  0  0
   -1.5310    1.2558    0.3237 H   0  0  0  0  0  0  0  0  0  0  0  0
   -2.7829   -0.9033    3.5147 H   0  0  0  0  0  0  0  0  0  0  0  0
   -3.9164    0.9760    5.1550 H   0  0  0  0  0  0  0  0  0  0  0  0
   -3.7016    3.3348    3.7314 H   0  0  0  0  0  0  0  0  0  0  0  0
    2.3134    0.5529   -2.3166 H   0  0  0  0  0  0  0  0  0  0  0  0
    0.7239    1.3049   -2.5574 H   0  0  0  0  0  0  0  0  0  0  0  0
   -0.2003   -0.8440   -3.3822 H   0  0  0  0  0  0  0  0  0  0  0  0
    1.0629   -2.6609   -2.4328 H   0  0  0  0  0  0  0  0  0  0  0  0
    2.6113   -1.8778   -2.8097 H   0  0  0  0  0  0  0  0  0  0  0  0
    2.3345   -3.3679   -4.7091 H   0  0  0  0  0  0  0  0  0  0  0  0
    0.6011   -2.9998   -4.7920 H   0  0  0  0  0  0  0  0  0  0  0  0
    2.9173   -1.1574   -5.4936 H   0  0  0  0  0  0  0  0  0  0  0  0
    1.4022   -1.4168   -6.3864 H   0  0  0  0  0  0  0  0  0  0  0  0
  1  2  2  0
  2  3  1  0
  2  4  1  0
  4  5  1  0
  5  6  1  0
  6  7  1  0
  7  8  1  0
  8  9  2  0
  9 10  1  0
 10 11  2  0
 11 12  1  0
  5 13  1  0
 13 14  2  0
 13 15  1  0
 15 16  1  0
 16 17  1  0
 17 18  1  0
 18 19  1  0
 19 20  1  0
 20 21  1  0
 12  8  1  0
 21 17  1  0
  3 22  1  0
  4 23  1  0
  4 24  1  0
  5 25  1  0
  6 26  1  0
  7 27  1  0
  7 28  1  0
  9 29  1  0
 10 30  1  0
 11 31  1  0
 16 32  1  0
 16 33  1  0
 17 34  1  0
 18 35  1  0
 18 36  1  0
 19 37  1  0
 19 38  1  0
 20 39  1  0
 20 40  1  0
M  END
$$$$
