
     RDKit          3D

 36 39  0  0  0  0  0  0  0  0999 V2000
   -1.7895   -0.2259    2.9284 C   0  0  0  0  0  0  0  0  0  0  0  0
   -0.9511   -0.1519    1.7044 C   0  0  0  0  0  0  0  0  0  0  0  0
    0.3801   -0.2003    1.8152 N   0  0  0  0  0  0  0  0  0  0  0  0
    0.8444   -0.0842    0.5468 N   0  0  0  0  0  0  0  0  0  0  0  0
    2.1849   -0.0817    0.1314 C   0  0  0  0  0  0  0  0  0  0  0  0
    2.4569    0.0292   -1.1823 C   0  0  0  0  0  0  0  0  0  0  0  0
    1.2839    0.1559   -2.0872 C   0  0  0  0  0  0  0  0  0  0  0  0
    0.0364    0.1630   -1.7238 N   0  0  0  0  0  0  0  0  0  0  0  0
   -0.2008    0.0353   -0.3789 C   0  0  0  0  0  0  0  0  0  0  0  0
   -1.3720   -0.0195    0.3562 C   0  0  0  0  0  0  0  0  0  0  0  0
   -2.7077    0.0497   -0.2129 C   0  0  0  0  0  0  0  0  0  0  0  0
   -3.6841   -0.8830    0.1619 C   0  0  0  0  0  0  0  0  0  0  0  0
   -4.9749   -0.8099   -0.3680 C   0  0  0  0  0  0  0  0  0  0  0  0
   -5.3004    0.1948   -1.2773 C   0  0  0  0  0  0  0  0  0  0  0  0
   -4.3359    1.1245   -1.6606 C   0  0  0  0  0  0  0  0  0  0  0  0
   -3.0451    1.0523   -1.1312 C   0  0  0  0  0  0  0  0  0  0  0  0
    3.8495   -0.0087   -1.6827 C   0  0  0  0  0  0  0  0  0  0  0  0
    4.0799    0.1059   -2.8842 O   0  0  0  0  0  0  0  0  0  0  0  0
    4.9551   -0.2667   -0.6830 C   0  0  0  0  0  0  0  0  0  0  0  0
    4.6087    0.3137    0.6798 C   0  0  0  0  0  0  0  0  0  0  0  0
    3.2567   -0.1925    1.1825 C   0  0  0  0  0  0  0  0  0  0  0  0
   -2.6429    0.4561    2.8599 H   0  0  0  0  0  0  0  0  0  0  0  0
   -1.2168    0.0505    3.8201 H   0  0  0  0  0  0  0  0  0  0  0  0
   -2.1668   -1.2435    3.0692 H   0  0  0  0  0  0  0  0  0  0  0  0
    1.5168    0.2517   -3.1613 H   0  0  0  0  0  0  0  0  0  0  0  0
   -3.4465   -1.6851    0.8560 H   0  0  0  0  0  0  0  0  0  0  0  0
   -5.7238   -1.5412   -0.0756 H   0  0  0  0  0  0  0  0  0  0  0  0
   -6.3034    0.2496   -1.6924 H   0  0  0  0  0  0  0  0  0  0  0  0
   -4.5842    1.9050   -2.3749 H   0  0  0  0  0  0  0  0  0  0  0  0
   -2.3031    1.7837   -1.4440 H   0  0  0  0  0  0  0  0  0  0  0  0
    5.1154   -1.3485   -0.6197 H   0  0  0  0  0  0  0  0  0  0  0  0
    5.8752    0.1996   -1.0514 H   0  0  0  0  0  0  0  0  0  0  0  0
    5.3917    0.0630    1.4042 H   0  0  0  0  0  0  0  0  0  0  0  0
    4.5783    1.4092    0.6096 H   0  0  0  0  0  0  0  0  0  0  0  0
    2.9910    0.3907    2.0723 H   0  0  0  0  0  0  0  0  0  0  0  0
    3.3440   -1.2408    1.4935 H   0  0  0  0  0  0  0  0  0  0  0  0
  1  2  1  0
  2  3  2  0
  3  4  1  0
  4  5  1  0
  5  6  2  0
  6  7  1  0
  7  8  2  0
  8  9  1  0
  9 10  2  0
 10 11  1  0
 11 12  2  0
 12 13  1  0
 13 14  2  0
 14 15  1  0
 15 16  2  0
  6 17  1  0
 17 18  2  0
 17 19  1  0
 19 20  1  0
 20 21  1  0
 10  2  1  0
 16 11  1  0
  9  4  1  0
 21  5  1  0
  1 22  1  0
  1 23  1  0
  1 24  1  0
  7 25  1  0
 12 26  1  0
 13 27  1  0
 14 28  1  0
 15 29  1  0
 16 30  1  0
 19 31  1  0
 19 32  1  0
 20 33  1  0
 20 34  1  0
 21 35  1  0
 21 36  1  0
M  END
$$$$
