
     RDKit          3D

 61 65  0  0  0  0  0  0  0  0999 V2000
    2.9889   -0.1737    0.3979 C   0  0  0  0  0  0  0  0  0  0  0  0
    3.2184    0.4913   -0.9107 C   0  0  0  0  0  0  0  0  0  0  0  0
    2.3139    0.7042   -1.9383 C   0  0  0  0  0  0  0  0  0  0  0  0
    0.8579    0.3457   -2.0266 C   0  0  0  0  0  0  0  0  0  0  0  0
   -0.0411    1.5201   -1.6261 C   0  0  0  0  0  0  0  0  0  0  0  0
   -1.3262    1.0579   -1.1855 O   0  0  0  0  0  0  0  0  0  0  0  0
   -1.3727    0.6295    0.1105 C   0  0  0  0  0  0  0  0  0  0  0  0
   -0.3882    0.5731    0.8391 O   0  0  0  0  0  0  0  0  0  0  0  0
   -2.7897    0.2300    0.5120 C   0  0  0  0  0  0  0  0  0  0  0  0
   -3.3225   -0.8831   -0.4186 C   0  0  0  0  0  0  0  0  0  0  0  0
   -4.7493   -1.2848   -0.0095 C   0  0  0  0  0  0  0  0  0  0  0  0
   -4.7376   -1.8024    1.4375 C   0  0  0  0  0  0  0  0  0  0  0  0
   -4.2233   -0.7057    2.3835 C   0  0  0  0  0  0  0  0  0  0  0  0
   -5.1454    0.5217    2.2897 C   0  0  0  0  0  0  0  0  0  0  0  0
   -5.1712    1.0670    0.8430 C   0  0  0  0  0  0  0  0  0  0  0  0
   -6.0947    2.2863    0.7529 C   0  0  0  0  0  0  0  0  0  0  0  0
   -5.6688   -0.0536   -0.1012 C   0  0  0  0  0  0  0  0  0  0  0  0
   -3.7303    1.4547    0.4337 C   0  0  0  0  0  0  0  0  0  0  0  0
   -2.8002   -0.3029    1.9653 C   0  0  0  0  0  0  0  0  0  0  0  0
    3.0818    1.5159   -3.2436 S   0  0  0  0  0  0  0  0  0  0  0  0
    4.5666    1.5830   -2.4045 C   0  0  0  0  0  0  0  0  0  0  0  0
    4.4796    1.0000   -1.2204 N   0  0  0  0  0  4  0  0  0  0  0  0
    5.6447    0.9687   -0.3235 C   0  0  0  0  0  0  0  0  0  0  0  0
    6.2365   -0.4177   -0.2308 C   0  0  0  0  0  0  0  0  0  0  0  0
    6.5978   -0.9327    1.0262 C   0  0  0  0  0  0  0  0  0  0  0  0
    7.1622   -2.2043    1.1381 C   0  0  0  0  0  0  0  0  0  0  0  0
    7.3832   -2.9727   -0.0013 C   0  0  0  0  0  0  0  0  0  0  0  0
    7.0493   -2.4685   -1.2553 C   0  0  0  0  0  0  0  0  0  0  0  0
    6.4859   -1.1961   -1.3731 C   0  0  0  0  0  0  0  0  0  0  0  0
    3.5890   -1.0835    0.4837 H   0  0  0  0  0  0  0  0  0  0  0  0
    3.2323    0.4971    1.2273 H   0  0  0  0  0  0  0  0  0  0  0  0
    1.9461   -0.4746    0.5190 H   0  0  0  0  0  0  0  0  0  0  0  0
    0.6577   -0.5315   -1.4006 H   0  0  0  0  0  0  0  0  0  0  0  0
    0.5993    0.0251   -3.0440 H   0  0  0  0  0  0  0  0  0  0  0  0
   -0.2100    2.1711   -2.4916 H   0  0  0  0  0  0  0  0  0  0  0  0
    0.4132    2.1529   -0.8521 H   0  0  0  0  0  0  0  0  0  0  0  0
   -2.6595   -1.7582   -0.3806 H   0  0  0  0  0  0  0  0  0  0  0  0
   -3.3267   -0.5474   -1.4641 H   0  0  0  0  0  0  0  0  0  0  0  0
   -5.1173   -2.0703   -0.6797 H   0  0  0  0  0  0  0  0  0  0  0  0
   -4.0998   -2.6921    1.5131 H   0  0  0  0  0  0  0  0  0  0  0  0
   -5.7481   -2.1098    1.7330 H   0  0  0  0  0  0  0  0  0  0  0  0
   -4.2126   -1.0816    3.4133 H   0  0  0  0  0  0  0  0  0  0  0  0
   -6.1589    0.2470    2.6097 H   0  0  0  0  0  0  0  0  0  0  0  0
   -4.7968    1.2995    2.9824 H   0  0  0  0  0  0  0  0  0  0  0  0
   -6.1201    2.6880   -0.2669 H   0  0  0  0  0  0  0  0  0  0  0  0
   -7.1211    2.0270    1.0354 H   0  0  0  0  0  0  0  0  0  0  0  0
   -5.7573    3.0883    1.4203 H   0  0  0  0  0  0  0  0  0  0  0  0
   -5.6984    0.3086   -1.1372 H   0  0  0  0  0  0  0  0  0  0  0  0
   -6.6952   -0.3413    0.1604 H   0  0  0  0  0  0  0  0  0  0  0  0
   -3.3540    2.2567    1.0837 H   0  0  0  0  0  0  0  0  0  0  0  0
   -3.7337    1.8669   -0.5844 H   0  0  0  0  0  0  0  0  0  0  0  0
   -2.1289   -1.1668    2.0582 H   0  0  0  0  0  0  0  0  0  0  0  0
   -2.4153    0.4603    2.6541 H   0  0  0  0  0  0  0  0  0  0  0  0
    5.4597    2.0433   -2.8104 H   0  0  0  0  0  0  0  0  0  0  0  0
    6.4179    1.6578   -0.6856 H   0  0  0  0  0  0  0  0  0  0  0  0
    5.3298    1.3397    0.6586 H   0  0  0  0  0  0  0  0  0  0  0  0
    6.4493   -0.3561    1.9385 H   0  0  0  0  0  0  0  0  0  0  0  0
    7.4369   -2.5975    2.1153 H   0  0  0  0  0  0  0  0  0  0  0  0
    7.8263   -3.9630    0.0881 H   0  0  0  0  0  0  0  0  0  0  0  0
    7.2363   -3.0702   -2.1433 H   0  0  0  0  0  0  0  0  0  0  0  0
    6.2546   -0.8364   -2.3728 H   0  0  0  0  0  0  0  0  0  0  0  0
  1  2  1  0
  2  3  2  0
  3  4  1  0
  4  5  1  0
  5  6  1  0
  6  7  1  0
  7  8  2  0
  7  9  1  0
  9 10  1  0
 10 11  1  0
 11 12  1  0
 12 13  1  0
 13 14  1  0
 14 15  1  0
 15 16  1  0
 15 17  1  0
 15 18  1  0
 13 19  1  0
  3 20  1  0
 20 21  1  0
 21 22  2  0
 22 23  1  0
 23 24  1  0
 24 25  2  0
 25 26  1  0
 26 27  2  0
 27 28  1  0
 28 29  2  0
 22  2  1  0
 29 24  1  0
 18  9  1  0
 19  9  1  0
 17 11  1  0
  1 30  1  0
  1 31  1  0
  1 32  1  0
  4 33  1  0
  4 34  1  0
  5 35  1  0
  5 36  1  0
 10 37  1  0
 10 38  1  0
 11 39  1  0
 12 40  1  0
 12 41  1  0
 13 42  1  0
 14 43  1  0
 14 44  1  0
 16 45  1  0
 16 46  1  0
 16 47  1  0
 17 48  1  0
 17 49  1  0
 18 50  1  0
 18 51  1  0
 19 52  1  0
 19 53  1  0
 21 54  1  0
 23 55  1  0
 23 56  1  0
 25 57  1  0
 26 58  1  0
 27 59  1  0
 28 60  1  0
 29 61  1  0
M  CHG  1  22   1
M  END
$$$$
