
     RDKit          3D

 48 51  0  0  0  0  0  0  0  0999 V2000
    5.8466    1.3317    0.1637 O   0  0  0  0  0  0  0  0  0  0  0  0
    5.8753    0.0957    0.9131 S   0  0  0  0  0  6  0  0  0  0  0  0
    7.0997   -0.3942    1.5104 O   0  0  0  0  0  0  0  0  0  0  0  0
    4.7380    0.1529    2.1572 N   0  0  0  0  0  0  0  0  0  0  0  0
    3.3606    0.3128    1.8492 C   0  0  0  0  0  0  0  0  0  0  0  0
    2.8929    1.4573    1.2135 C   0  0  0  0  0  0  0  0  0  0  0  0
    1.5386    1.5668    0.8791 C   0  0  0  0  0  0  0  0  0  0  0  0
    0.6185    0.5428    1.1755 C   0  0  0  0  0  0  0  0  0  0  0  0
   -0.8043    0.6801    0.8084 C   0  0  0  0  0  0  0  0  0  0  0  0
   -1.8492    0.0815    1.4949 C   0  0  0  0  0  0  0  0  0  0  0  0
   -3.1631    0.2775    1.0581 C   0  0  0  0  0  0  0  0  0  0  0  0
   -3.4277    1.0608   -0.0584 C   0  0  0  0  0  0  0  0  0  0  0  0
   -4.7324    1.2846   -0.4923 N   0  0  0  0  0  0  0  0  0  0  0  0
   -5.6697    0.1474   -0.5350 C   0  0  0  0  0  0  0  0  0  0  0  0
   -6.3106    0.0135   -1.9273 C   0  0  0  0  0  0  0  0  0  0  0  0
   -7.0034    1.1933   -2.3556 O   0  0  0  0  0  0  0  0  0  0  0  0
   -6.3653    2.4118   -1.9387 C   0  0  0  0  0  0  0  0  0  0  0  0
   -4.8758    2.2518   -1.5953 C   0  0  0  0  0  0  0  0  0  0  0  0
   -2.3866    1.6487   -0.6809 N   0  0  0  0  0  0  0  0  0  0  0  0
   -1.0784    1.4552   -0.2593 N   0  0  0  0  0  0  0  0  0  0  0  0
    1.1205   -0.6030    1.8206 C   0  0  0  0  0  0  0  0  0  0  0  0
    2.4754   -0.7171    2.1576 C   0  0  0  0  0  0  0  0  0  0  0  0
    5.2497   -1.1975   -0.1394 C   0  0  0  0  0  0  0  0  0  0  0  0
    5.6028   -2.5254    0.1171 C   0  0  0  0  0  0  0  0  0  0  0  0
    5.1160   -3.5367   -0.7132 C   0  0  0  0  0  0  0  0  0  0  0  0
    4.2883   -3.2216   -1.7975 C   0  0  0  0  0  0  0  0  0  0  0  0
    3.7156   -4.5277   -2.7725 Cl  0  0  0  0  0  0  0  0  0  0  0  0
    3.9543   -1.8858   -2.0585 C   0  0  0  0  0  0  0  0  0  0  0  0
    2.9407   -1.4288   -3.3802 Cl  0  0  0  0  0  0  0  0  0  0  0  0
    4.4428   -0.8696   -1.2337 C   0  0  0  0  0  0  0  0  0  0  0  0
    4.9939   -0.4353    2.9481 H   0  0  0  0  0  0  0  0  0  0  0  0
    3.5654    2.2780    0.9740 H   0  0  0  0  0  0  0  0  0  0  0  0
    1.2006    2.4753    0.3796 H   0  0  0  0  0  0  0  0  0  0  0  0
   -1.6733   -0.5163    2.3821 H   0  0  0  0  0  0  0  0  0  0  0  0
   -3.9758   -0.1659    1.6236 H   0  0  0  0  0  0  0  0  0  0  0  0
   -5.1892   -0.8060   -0.2878 H   0  0  0  0  0  0  0  0  0  0  0  0
   -6.4534    0.3344    0.2083 H   0  0  0  0  0  0  0  0  0  0  0  0
   -7.0330   -0.8091   -1.9285 H   0  0  0  0  0  0  0  0  0  0  0  0
   -5.5489   -0.2233   -2.6798 H   0  0  0  0  0  0  0  0  0  0  0  0
   -6.9164    2.7860   -1.0680 H   0  0  0  0  0  0  0  0  0  0  0  0
   -6.4918    3.1412   -2.7450 H   0  0  0  0  0  0  0  0  0  0  0  0
   -4.3355    1.8987   -2.4831 H   0  0  0  0  0  0  0  0  0  0  0  0
   -4.4727    3.2282   -1.3014 H   0  0  0  0  0  0  0  0  0  0  0  0
    0.4647   -1.4395    2.0531 H   0  0  0  0  0  0  0  0  0  0  0  0
    2.8236   -1.6235    2.6450 H   0  0  0  0  0  0  0  0  0  0  0  0
    6.2552   -2.7796    0.9503 H   0  0  0  0  0  0  0  0  0  0  0  0
    5.3889   -4.5712   -0.5144 H   0  0  0  0  0  0  0  0  0  0  0  0
    4.1881    0.1686   -1.4392 H   0  0  0  0  0  0  0  0  0  0  0  0
  1  2  2  0
  2  3  2  0
  2  4  1  0
  4  5  1  0
  5  6  2  0
  6  7  1  0
  7  8  2  0
  8  9  1  0
  9 10  2  0
 10 11  1  0
 11 12  2  0
 12 13  1  0
 13 14  1  0
 14 15  1  0
 15 16  1  0
 16 17  1  0
 17 18  1  0
 12 19  1  0
 19 20  2  0
  8 21  1  0
 21 22  2  0
  2 23  1  0
 23 24  2  0
 24 25  1  0
 25 26  2  0
 26 27  1  0
 26 28  1  0
 28 29  1  0
 28 30  2  0
 22  5  1  0
 30 23  1  0
 20  9  1  0
 18 13  1  0
  4 31  1  0
  6 32  1  0
  7 33  1  0
 10 34  1  0
 11 35  1  0
 14 36  1  0
 14 37  1  0
 15 38  1  0
 15 39  1  0
 17 40  1  0
 17 41  1  0
 18 42  1  0
 18 43  1  0
 21 44  1  0
 22 45  1  0
 24 46  1  0
 25 47  1  0
 30 48  1  0
M  END
$$$$
