
     RDKit          3D

 41 42  0  0  0  0  0  0  0  0999 V2000
   -5.7519   -0.8009    2.5448 C   0  0  0  0  0  0  0  0  0  0  0  0
   -6.3353    0.1823    1.5560 C   0  0  0  0  0  0  0  0  0  0  0  0
   -7.5284    0.4773    1.6580 O   0  0  0  0  0  0  0  0  0  0  0  0
   -5.5310    0.6638    0.5221 N   0  0  0  0  0  0  0  0  0  0  0  0
   -6.2093    1.2903   -0.6109 C   0  0  0  0  0  0  0  0  0  0  0  0
   -4.1031    0.6062    0.4783 C   0  0  0  0  0  0  0  0  0  0  0  0
   -3.4323    0.4595   -0.7395 C   0  0  0  0  0  0  0  0  0  0  0  0
   -2.0321    0.4182   -0.7915 C   0  0  0  0  0  0  0  0  0  0  0  0
   -1.2557    0.5411    0.3667 C   0  0  0  0  0  0  0  0  0  0  0  0
    0.1424    0.4744    0.1835 N   0  0  0  0  0  0  0  0  0  0  0  0
    1.2215    0.5399    1.0316 C   0  0  0  0  0  0  0  0  0  0  0  0
    1.2826    0.7567    2.6843 S   0  0  0  0  0  0  0  0  0  0  0  0
    2.4544    0.3909    0.4089 N   0  0  0  0  0  0  0  0  0  0  0  0
    2.7337    0.1813   -0.9268 C   0  0  0  0  0  0  0  0  0  0  0  0
    1.8962    0.2119   -1.8220 O   0  0  0  0  0  0  0  0  0  0  0  0
    4.1646   -0.0156   -1.2465 C   0  0  0  0  0  0  0  0  0  0  0  0
    4.9655   -0.7981   -0.5133 C   0  0  0  0  0  0  0  0  0  0  0  0
    6.3226   -0.9989   -0.8867 C   0  0  0  0  0  0  0  0  0  0  0  0
    7.2965   -1.7571   -0.2453 C   0  0  0  0  0  0  0  0  0  0  0  0
    8.4933   -1.6543   -0.9932 C   0  0  0  0  0  0  0  0  0  0  0  0
    8.1995   -0.8416   -2.0579 C   0  0  0  0  0  0  0  0  0  0  0  0
    6.9058   -0.4434   -2.0058 O   0  0  0  0  0  0  0  0  0  0  0  0
   -1.9193    0.7202    1.5750 C   0  0  0  0  0  0  0  0  0  0  0  0
   -3.3238    0.7593    1.6283 C   0  0  0  0  0  0  0  0  0  0  0  0
   -5.4163   -0.2750    3.4415 H   0  0  0  0  0  0  0  0  0  0  0  0
   -4.9443   -1.3947    2.1131 H   0  0  0  0  0  0  0  0  0  0  0  0
   -6.5379   -1.5057    2.8361 H   0  0  0  0  0  0  0  0  0  0  0  0
   -6.2568    0.5738   -1.4364 H   0  0  0  0  0  0  0  0  0  0  0  0
   -5.6716    2.1882   -0.9282 H   0  0  0  0  0  0  0  0  0  0  0  0
   -7.2354    1.5792   -0.3677 H   0  0  0  0  0  0  0  0  0  0  0  0
   -3.9769    0.3382   -1.6711 H   0  0  0  0  0  0  0  0  0  0  0  0
   -1.5581    0.2823   -1.7617 H   0  0  0  0  0  0  0  0  0  0  0  0
    0.4200    0.3583   -0.7928 H   0  0  0  0  0  0  0  0  0  0  0  0
    3.2305    0.4531    1.0517 H   0  0  0  0  0  0  0  0  0  0  0  0
    4.4937    0.4458   -2.1703 H   0  0  0  0  0  0  0  0  0  0  0  0
    4.6029   -1.3160    0.3661 H   0  0  0  0  0  0  0  0  0  0  0  0
    7.1534   -2.3233    0.6656 H   0  0  0  0  0  0  0  0  0  0  0  0
    9.4480   -2.1164   -0.7824 H   0  0  0  0  0  0  0  0  0  0  0  0
    8.7695   -0.4693   -2.8965 H   0  0  0  0  0  0  0  0  0  0  0  0
   -1.3960    0.8514    2.5117 H   0  0  0  0  0  0  0  0  0  0  0  0
   -3.7810    0.9668    2.5912 H   0  0  0  0  0  0  0  0  0  0  0  0
  1  2  1  0
  2  3  2  0
  2  4  1  0
  4  5  1  0
  4  6  1  0
  6  7  2  0
  7  8  1  0
  8  9  2  0
  9 10  1  0
 10 11  1  0
 11 12  2  0
 11 13  1  0
 13 14  1  0
 14 15  2  0
 14 16  1  0
 16 17  2  3
 17 18  1  0
 18 19  2  0
 19 20  1  0
 20 21  2  0
 21 22  1  0
  9 23  1  0
 23 24  2  0
 24  6  1  0
 22 18  1  0
  1 25  1  0
  1 26  1  0
  1 27  1  0
  5 28  1  0
  5 29  1  0
  5 30  1  0
  7 31  1  0
  8 32  1  0
 10 33  1  0
 13 34  1  0
 16 35  1  0
 17 36  1  0
 19 37  1  0
 20 38  1  0
 21 39  1  0
 23 40  1  0
 24 41  1  0
M  END
$$$$
