
     RDKit          3D

 36 37  0  0  0  0  0  0  0  0999 V2000
    5.3834    0.6794   -1.2380 C   0  0  0  0  0  0  0  0  0  0  0  0
    4.1430    1.3521   -1.0627 O   0  0  0  0  0  0  0  0  0  0  0  0
    3.1005    0.6221   -0.5615 C   0  0  0  0  0  0  0  0  0  0  0  0
    1.9148    1.3410   -0.4063 C   0  0  0  0  0  0  0  0  0  0  0  0
    0.7640    0.7260    0.0918 C   0  0  0  0  0  0  0  0  0  0  0  0
    0.7832   -0.6285    0.4248 C   0  0  0  0  0  0  0  0  0  0  0  0
   -0.3319   -1.3246    0.9451 N   0  0  0  0  0  0  0  0  0  0  0  0
   -1.6667   -1.0189    1.0192 C   0  0  0  0  0  0  0  0  0  0  0  0
   -2.5779   -1.9417    2.0789 S   0  0  0  0  0  0  0  0  0  0  0  0
   -2.1128   -0.0720    0.1335 N   0  0  0  0  0  0  0  0  0  0  0  0
   -3.3105    0.6717    0.0798 C   0  0  0  0  0  0  0  0  0  0  0  0
   -3.6424    1.2549   -1.1508 C   0  0  0  0  0  0  0  0  0  0  0  0
   -4.7961    2.0315   -1.2870 C   0  0  0  0  0  0  0  0  0  0  0  0
   -5.6224    2.2470   -0.1882 C   0  0  0  0  0  0  0  0  0  0  0  0
   -5.2878    1.6943    1.0453 C   0  0  0  0  0  0  0  0  0  0  0  0
   -4.1327    0.9165    1.1803 C   0  0  0  0  0  0  0  0  0  0  0  0
    1.9900   -1.3520    0.3047 C   0  0  0  0  0  0  0  0  0  0  0  0
    1.9245   -2.6687    0.7021 O   0  0  0  0  0  0  0  0  0  0  0  0
    3.1187   -3.4369    0.6287 C   0  0  0  0  0  0  0  0  0  0  0  0
    3.1386   -0.7255   -0.1983 C   0  0  0  0  0  0  0  0  0  0  0  0
    6.0996    1.3993   -1.6456 H   0  0  0  0  0  0  0  0  0  0  0  0
    5.2893   -0.1407   -1.9574 H   0  0  0  0  0  0  0  0  0  0  0  0
    5.7775    0.3231   -0.2805 H   0  0  0  0  0  0  0  0  0  0  0  0
    1.8902    2.3986   -0.6605 H   0  0  0  0  0  0  0  0  0  0  0  0
   -0.1111    1.3468    0.2538 H   0  0  0  0  0  0  0  0  0  0  0  0
   -0.0875   -2.2073    1.3900 H   0  0  0  0  0  0  0  0  0  0  0  0
   -1.5581   -0.0487   -0.7133 H   0  0  0  0  0  0  0  0  0  0  0  0
   -3.0152    1.1013   -2.0251 H   0  0  0  0  0  0  0  0  0  0  0  0
   -5.0481    2.4665   -2.2505 H   0  0  0  0  0  0  0  0  0  0  0  0
   -6.5206    2.8503   -0.2893 H   0  0  0  0  0  0  0  0  0  0  0  0
   -5.9204    1.8728    1.9112 H   0  0  0  0  0  0  0  0  0  0  0  0
   -3.8879    0.5445    2.1690 H   0  0  0  0  0  0  0  0  0  0  0  0
    2.8919   -4.4421    0.9967 H   0  0  0  0  0  0  0  0  0  0  0  0
    3.4629   -3.5318   -0.4063 H   0  0  0  0  0  0  0  0  0  0  0  0
    3.8995   -3.0161    1.2706 H   0  0  0  0  0  0  0  0  0  0  0  0
    4.0585   -1.2844   -0.3038 H   0  0  0  0  0  0  0  0  0  0  0  0
  1  2  1  0
  2  3  1  0
  3  4  2  0
  4  5  1  0
  5  6  2  0
  6  7  1  0
  7  8  1  0
  8  9  2  0
  8 10  1  0
 10 11  1  0
 11 12  2  0
 12 13  1  0
 13 14  2  0
 14 15  1  0
 15 16  2  0
  6 17  1  0
 17 18  1  0
 18 19  1  0
 17 20  2  0
 20  3  1  0
 16 11  1  0
  1 21  1  0
  1 22  1  0
  1 23  1  0
  4 24  1  0
  5 25  1  0
  7 26  1  0
 10 27  1  0
 12 28  1  0
 13 29  1  0
 14 30  1  0
 15 31  1  0
 16 32  1  0
 19 33  1  0
 19 34  1  0
 19 35  1  0
 20 36  1  0
M  END
$$$$
