
     RDKit          3D

 53 58  0  0  0  0  0  0  0  0999 V2000
   -0.9792    1.7743   -0.6893 O   0  0  0  0  0  0  0  0  0  0  0  0
   -1.3425    1.1225    0.2926 C   0  0  0  0  0  0  0  0  0  0  0  0
   -0.2688    0.7123    1.3258 C   0  0  0  0  0  0  0  0  0  0  0  0
    0.9754    0.3190    0.6356 N   0  0  0  0  0  4  0  0  0  0  0  0
    2.2223    0.9357    0.7239 C   0  0  0  0  0  0  0  0  0  0  0  0
    3.1025    0.3003   -0.1468 C   0  0  0  0  0  0  0  0  0  0  0  0
    4.6052    0.6875   -0.4013 C   0  0  0  0  0  0  0  0  0  0  0  0
    5.1793    1.7562    0.3000 C   0  0  0  0  0  0  0  0  0  0  0  0
    6.5101    2.1155    0.0705 C   0  0  0  0  0  0  0  0  0  0  0  0
    7.2720    1.4123   -0.8577 C   0  0  0  0  0  0  0  0  0  0  0  0
    6.7044    0.3503   -1.5590 C   0  0  0  0  0  0  0  0  0  0  0  0
    5.3744   -0.0142   -1.3312 C   0  0  0  0  0  0  0  0  0  0  0  0
    2.3282   -0.7007   -0.7083 N   0  0  0  0  0  0  0  0  0  0  0  0
    1.0717   -0.6400   -0.2796 C   0  0  0  0  0  0  0  0  0  0  0  0
    0.1822   -1.6370   -0.9205 C   0  0  0  0  0  0  0  0  0  0  0  0
    1.1929   -2.5651   -1.6199 C   0  0  0  0  0  0  0  0  0  0  0  0
    2.5087   -1.7415   -1.7083 C   0  0  0  0  0  0  0  0  0  0  0  0
   -2.6146    0.5541    0.4796 N   0  0  0  0  0  0  0  0  0  0  0  0
   -3.4564    0.2083   -0.6437 C   0  0  0  0  0  0  0  0  0  0  0  0
   -3.4079    0.9379   -1.8464 C   0  0  0  0  0  0  0  0  0  0  0  0
   -4.1952    0.5914   -2.9497 C   0  0  0  0  0  0  0  0  0  0  0  0
   -5.0564   -0.4954   -2.8777 C   0  0  0  0  0  0  0  0  0  0  0  0
   -5.1281   -1.2346   -1.7009 C   0  0  0  0  0  0  0  0  0  0  0  0
   -4.3378   -0.8910   -0.5917 C   0  0  0  0  0  0  0  0  0  0  0  0
   -4.4174   -1.9710    0.8181 S   0  0  0  0  0  0  0  0  0  0  0  0
   -3.9678   -0.8055    2.0722 C   0  0  0  0  0  0  0  0  0  0  0  0
   -4.4331   -1.0286    3.3763 C   0  0  0  0  0  0  0  0  0  0  0  0
   -4.1062   -0.1492    4.4066 C   0  0  0  0  0  0  0  0  0  0  0  0
   -3.3285    0.9690    4.1358 C   0  0  0  0  0  0  0  0  0  0  0  0
   -2.8566    1.1910    2.8399 C   0  0  0  0  0  0  0  0  0  0  0  0
   -3.1392    0.2906    1.7935 C   0  0  0  0  0  0  0  0  0  0  0  0
   -0.5691   -0.1551    1.9192 H   0  0  0  0  0  0  0  0  0  0  0  0
   -0.0606    1.5614    1.9836 H   0  0  0  0  0  0  0  0  0  0  0  0
    2.3224    1.7756    1.3910 H   0  0  0  0  0  0  0  0  0  0  0  0
    4.6216    2.3344    1.0292 H   0  0  0  0  0  0  0  0  0  0  0  0
    6.9553    2.9465    0.6139 H   0  0  0  0  0  0  0  0  0  0  0  0
    8.3082    1.6945   -1.0380 H   0  0  0  0  0  0  0  0  0  0  0  0
    7.3025   -0.1933   -2.2878 H   0  0  0  0  0  0  0  0  0  0  0  0
    4.9762   -0.8411   -1.9042 H   0  0  0  0  0  0  0  0  0  0  0  0
   -0.4443   -1.0923   -1.6316 H   0  0  0  0  0  0  0  0  0  0  0  0
   -0.4079   -2.1359   -0.1497 H   0  0  0  0  0  0  0  0  0  0  0  0
    1.3648   -3.4469   -0.9933 H   0  0  0  0  0  0  0  0  0  0  0  0
    0.8447   -2.9092   -2.5974 H   0  0  0  0  0  0  0  0  0  0  0  0
    3.3733   -2.3656   -1.4741 H   0  0  0  0  0  0  0  0  0  0  0  0
    2.6164   -1.2742   -2.6908 H   0  0  0  0  0  0  0  0  0  0  0  0
   -2.7937    1.8276   -1.9543 H   0  0  0  0  0  0  0  0  0  0  0  0
   -4.1428    1.1844   -3.8612 H   0  0  0  0  0  0  0  0  0  0  0  0
   -5.6740   -0.7644   -3.7316 H   0  0  0  0  0  0  0  0  0  0  0  0
   -5.8033   -2.0895   -1.6589 H   0  0  0  0  0  0  0  0  0  0  0  0
   -5.0664   -1.8881    3.5991 H   0  0  0  0  0  0  0  0  0  0  0  0
   -4.4848   -0.3243    5.4120 H   0  0  0  0  0  0  0  0  0  0  0  0
   -3.1115    1.6809    4.9299 H   0  0  0  0  0  0  0  0  0  0  0  0
   -2.3204    2.1199    2.6566 H   0  0  0  0  0  0  0  0  0  0  0  0
  1  2  2  0
  2  3  1  0
  3  4  1  0
  4  5  1  0
  5  6  2  0
  6  7  1  0
  7  8  2  0
  8  9  1  0
  9 10  2  0
 10 11  1  0
 11 12  2  0
  6 13  1  0
 13 14  1  0
 14 15  1  0
 15 16  1  0
 16 17  1  0
  2 18  1  0
 18 19  1  0
 19 20  2  0
 20 21  1  0
 21 22  2  0
 22 23  1  0
 23 24  2  0
 24 25  1  0
 25 26  1  0
 26 27  2  0
 27 28  1  0
 28 29  2  0
 29 30  1  0
 30 31  2  0
 14  4  2  0
 31 18  1  0
 12  7  1  0
 17 13  1  0
 24 19  1  0
 31 26  1  0
  3 32  1  0
  3 33  1  0
  5 34  1  0
  8 35  1  0
  9 36  1  0
 10 37  1  0
 11 38  1  0
 12 39  1  0
 15 40  1  0
 15 41  1  0
 16 42  1  0
 16 43  1  0
 17 44  1  0
 17 45  1  0
 20 46  1  0
 21 47  1  0
 22 48  1  0
 23 49  1  0
 27 50  1  0
 28 51  1  0
 29 52  1  0
 30 53  1  0
M  CHG  1   4   1
M  END
$$$$
