
     RDKit          3D

 36 39  0  0  0  0  0  0  0  0999 V2000
   -4.7156   -0.3938   -2.7033 C   0  0  0  0  0  0  0  0  0  0  0  0
   -3.6984   -0.1471   -1.6169 C   0  0  0  0  0  0  0  0  0  0  0  0
   -3.4331   -1.2636   -0.6628 C   0  0  0  0  0  0  0  0  0  0  0  0
   -2.5294   -1.0346    0.3088 C   0  0  0  0  0  0  0  0  0  0  0  0
   -2.2061   -2.1087    1.3005 C   0  0  0  0  0  0  0  0  0  0  0  0
   -1.9030    0.2264    0.3520 N   0  0  0  0  0  0  0  0  0  0  0  0
   -0.9610    0.7844    1.1966 C   0  0  0  0  0  0  0  0  0  0  0  0
   -0.1398    0.0376    2.7481 Br  0  0  0  0  0  0  0  0  0  0  0  0
   -0.6996    2.0510    0.7102 C   0  0  0  0  0  0  0  0  0  0  0  0
    0.2454    3.1013    1.1969 C   0  0  0  0  0  0  0  0  0  0  0  0
    1.5127    3.5257   -0.0367 S   0  0  0  0  0  0  0  0  0  0  0  0
    2.3815    2.0122   -0.1196 C   0  0  0  0  0  0  0  0  0  0  0  0
    2.6605    1.3241    0.9622 N   0  0  0  0  0  0  0  0  0  0  0  0
    3.3405    0.1696    0.6141 C   0  0  0  0  0  0  0  0  0  0  0  0
    3.7931   -0.8231    1.5068 C   0  0  0  0  0  0  0  0  0  0  0  0
    4.4673   -1.9457    1.0156 C   0  0  0  0  0  0  0  0  0  0  0  0
    4.6955   -2.0892   -0.3494 C   0  0  0  0  0  0  0  0  0  0  0  0
    4.2578   -1.1186   -1.2560 C   0  0  0  0  0  0  0  0  0  0  0  0
    3.5811    0.0043   -0.7516 C   0  0  0  0  0  0  0  0  0  0  0  0
    2.9296    1.3538   -1.5991 S   0  0  0  0  0  0  0  0  0  0  0  0
   -1.4979    2.3059   -0.3796 N   0  0  0  0  0  0  0  0  0  0  0  0
   -2.2044    1.2175   -0.5932 C   0  0  0  0  0  0  0  0  0  0  0  0
   -3.1213    1.0137   -1.5804 N   0  0  0  0  0  0  0  0  0  0  0  0
   -5.5245    0.3370   -2.6121 H   0  0  0  0  0  0  0  0  0  0  0  0
   -5.1394   -1.3991   -2.6385 H   0  0  0  0  0  0  0  0  0  0  0  0
   -4.2361   -0.2748   -3.6793 H   0  0  0  0  0  0  0  0  0  0  0  0
   -3.9658   -2.1977   -0.7842 H   0  0  0  0  0  0  0  0  0  0  0  0
   -2.4707   -1.7966    2.3152 H   0  0  0  0  0  0  0  0  0  0  0  0
   -1.1459   -2.3759    1.2564 H   0  0  0  0  0  0  0  0  0  0  0  0
   -2.7686   -3.0281    1.0992 H   0  0  0  0  0  0  0  0  0  0  0  0
   -0.3270    4.0124    1.4042 H   0  0  0  0  0  0  0  0  0  0  0  0
    0.7310    2.8208    2.1358 H   0  0  0  0  0  0  0  0  0  0  0  0
    3.6143   -0.7062    2.5712 H   0  0  0  0  0  0  0  0  0  0  0  0
    4.8163   -2.7084    1.7080 H   0  0  0  0  0  0  0  0  0  0  0  0
    5.2234   -2.9664   -0.7183 H   0  0  0  0  0  0  0  0  0  0  0  0
    4.4381   -1.2302   -2.3209 H   0  0  0  0  0  0  0  0  0  0  0  0
  1  2  1  0
  2  3  1  0
  3  4  2  0
  4  5  1  0
  4  6  1  0
  6  7  1  0
  7  8  1  0
  7  9  2  0
  9 10  1  0
 10 11  1  0
 11 12  1  0
 12 13  2  0
 13 14  1  0
 14 15  2  0
 15 16  1  0
 16 17  2  0
 17 18  1  0
 18 19  2  0
 19 20  1  0
  9 21  1  0
 21 22  2  0
 22 23  1  0
 23  2  2  0
 22  6  1  0
 20 12  1  0
 19 14  1  0
  1 24  1  0
  1 25  1  0
  1 26  1  0
  3 27  1  0
  5 28  1  0
  5 29  1  0
  5 30  1  0
 10 31  1  0
 10 32  1  0
 15 33  1  0
 16 34  1  0
 17 35  1  0
 18 36  1  0
M  END
$$$$
