
     RDKit          3D

 53 57  0  0  0  0  0  0  0  0999 V2000
    8.1574    1.3197    1.1158 C   0  0  0  0  0  0  0  0  0  0  0  0
    7.5719    0.4981    0.1135 O   0  0  0  0  0  0  0  0  0  0  0  0
    6.2068    0.4524    0.0738 C   0  0  0  0  0  0  0  0  0  0  0  0
    5.6760   -0.3695   -0.9180 C   0  0  0  0  0  0  0  0  0  0  0  0
    4.2909   -0.5097   -1.0724 C   0  0  0  0  0  0  0  0  0  0  0  0
    3.4022    0.1750   -0.2285 C   0  0  0  0  0  0  0  0  0  0  0  0
    1.9803    0.0284   -0.3935 N   0  0  0  0  0  0  0  0  0  0  0  0
    1.3712   -0.5890   -1.4749 C   0  0  0  0  0  0  0  0  0  0  0  0
    0.0020   -0.5473   -1.3256 C   0  0  0  0  0  0  0  0  0  0  0  0
   -0.8925   -1.0833   -2.3320 C   0  0  0  0  0  0  0  0  0  0  0  0
   -0.9243   -2.4587   -2.5881 C   0  0  0  0  0  0  0  0  0  0  0  0
   -1.8014   -2.9725   -3.5450 C   0  0  0  0  0  0  0  0  0  0  0  0
   -2.6470   -2.1154   -4.2488 C   0  0  0  0  0  0  0  0  0  0  0  0
   -2.6165   -0.7438   -3.9995 C   0  0  0  0  0  0  0  0  0  0  0  0
   -1.7400   -0.2268   -3.0442 C   0  0  0  0  0  0  0  0  0  0  0  0
   -0.2743    0.1050   -0.0914 C   0  0  0  0  0  0  0  0  0  0  0  0
   -1.4400    0.4354    0.6414 C   0  0  0  0  0  0  0  0  0  0  0  0
   -2.7313    0.0962    0.1727 N   0  0  0  0  0  0  0  0  0  0  0  0
   -3.9129    0.1207    0.9438 N   0  0  0  0  0  0  0  0  0  0  0  0
   -4.3239    1.4852    1.3092 C   0  0  0  0  0  0  0  0  0  0  0  0
   -5.6694    1.4362    2.0492 C   0  0  0  0  0  0  0  0  0  0  0  0
   -5.6020    0.6015    3.2158 O   0  0  0  0  0  0  0  0  0  0  0  0
   -5.2048   -0.7297    2.8541 C   0  0  0  0  0  0  0  0  0  0  0  0
   -3.8472   -0.7407    2.1349 C   0  0  0  0  0  0  0  0  0  0  0  0
   -1.2758    1.0960    1.8148 N   0  0  0  0  0  0  0  0  0  0  0  0
   -0.0395    1.3797    2.2404 C   0  0  0  0  0  0  0  0  0  0  0  0
    1.1173    1.0946    1.6381 N   0  0  0  0  0  0  0  0  0  0  0  0
    0.9583    0.4601    0.4595 C   0  0  0  0  0  0  0  0  0  0  0  0
    3.9459    0.9999    0.7648 C   0  0  0  0  0  0  0  0  0  0  0  0
    5.3351    1.1374    0.9144 C   0  0  0  0  0  0  0  0  0  0  0  0
    7.8894    0.9710    2.1187 H   0  0  0  0  0  0  0  0  0  0  0  0
    7.8826    2.3703    0.9751 H   0  0  0  0  0  0  0  0  0  0  0  0
    9.2446    1.2441    1.0168 H   0  0  0  0  0  0  0  0  0  0  0  0
    6.3473   -0.9133   -1.5789 H   0  0  0  0  0  0  0  0  0  0  0  0
    3.9544   -1.1834   -1.8535 H   0  0  0  0  0  0  0  0  0  0  0  0
    1.9468   -0.9822   -2.3001 H   0  0  0  0  0  0  0  0  0  0  0  0
   -0.2740   -3.1381   -2.0419 H   0  0  0  0  0  0  0  0  0  0  0  0
   -1.8258   -4.0415   -3.7412 H   0  0  0  0  0  0  0  0  0  0  0  0
   -3.3299   -2.5167   -4.9936 H   0  0  0  0  0  0  0  0  0  0  0  0
   -3.2751   -0.0761   -4.5494 H   0  0  0  0  0  0  0  0  0  0  0  0
   -1.7254    0.8457   -2.8599 H   0  0  0  0  0  0  0  0  0  0  0  0
   -2.7056   -0.6130   -0.5576 H   0  0  0  0  0  0  0  0  0  0  0  0
   -4.4333    2.1026    0.4102 H   0  0  0  0  0  0  0  0  0  0  0  0
   -3.5901    1.9660    1.9644 H   0  0  0  0  0  0  0  0  0  0  0  0
   -5.9462    2.4423    2.3804 H   0  0  0  0  0  0  0  0  0  0  0  0
   -6.4702    1.0716    1.3942 H   0  0  0  0  0  0  0  0  0  0  0  0
   -5.9877   -1.1800    2.2316 H   0  0  0  0  0  0  0  0  0  0  0  0
   -5.1392   -1.3155    3.7767 H   0  0  0  0  0  0  0  0  0  0  0  0
   -3.6042   -1.7698    1.8464 H   0  0  0  0  0  0  0  0  0  0  0  0
   -3.0812   -0.3944    2.8375 H   0  0  0  0  0  0  0  0  0  0  0  0
    0.0285    1.9018    3.1897 H   0  0  0  0  0  0  0  0  0  0  0  0
    3.3261    1.5793    1.4407 H   0  0  0  0  0  0  0  0  0  0  0  0
    5.6954    1.7941    1.6996 H   0  0  0  0  0  0  0  0  0  0  0  0
  1  2  1  0
  2  3  1  0
  3  4  2  0
  4  5  1  0
  5  6  2  0
  6  7  1  0
  7  8  1  0
  8  9  2  0
  9 10  1  0
 10 11  2  0
 11 12  1  0
 12 13  2  0
 13 14  1  0
 14 15  2  0
  9 16  1  0
 16 17  2  0
 17 18  1  0
 18 19  1  0
 19 20  1  0
 20 21  1  0
 21 22  1  0
 22 23  1  0
 23 24  1  0
 17 25  1  0
 25 26  2  0
 26 27  1  0
 27 28  2  0
  6 29  1  0
 29 30  2  0
 30  3  1  0
 28  7  1  0
 15 10  1  0
 28 16  1  0
 24 19  1  0
  1 31  1  0
  1 32  1  0
  1 33  1  0
  4 34  1  0
  5 35  1  0
  8 36  1  0
 11 37  1  0
 12 38  1  0
 13 39  1  0
 14 40  1  0
 15 41  1  0
 18 42  1  0
 20 43  1  0
 20 44  1  0
 21 45  1  0
 21 46  1  0
 23 47  1  0
 23 48  1  0
 24 49  1  0
 24 50  1  0
 26 51  1  0
 29 52  1  0
 30 53  1  0
M  END
$$$$
