
     RDKit          3D

 48 51  0  0  0  0  0  0  0  0999 V2000
    9.1462    0.6442   -0.4194 C   0  0  0  0  0  0  0  0  0  0  0  0
    8.2322   -0.3890   -0.0750 O   0  0  0  0  0  0  0  0  0  0  0  0
    6.9010   -0.0981   -0.1823 C   0  0  0  0  0  0  0  0  0  0  0  0
    6.3551    1.1112   -0.6053 C   0  0  0  0  0  0  0  0  0  0  0  0
    4.9628    1.2747   -0.6698 C   0  0  0  0  0  0  0  0  0  0  0  0
    4.0812    0.2370   -0.3178 C   0  0  0  0  0  0  0  0  0  0  0  0
    2.6134    0.3927   -0.3837 C   0  0  0  0  0  0  0  0  0  0  0  0
    1.9758    1.1849   -1.3331 C   0  0  0  0  0  0  0  0  0  0  0  0
    0.5833    1.2735   -1.3235 C   0  0  0  0  0  0  0  0  0  0  0  0
   -0.1651    0.5697   -0.3717 C   0  0  0  0  0  0  0  0  0  0  0  0
   -1.6180    0.6620   -0.3752 C   0  0  0  0  0  0  0  0  0  0  0  0
   -2.2824    1.7137   -0.8859 N   0  0  0  0  0  0  0  0  0  0  0  0
   -3.6229    1.3803   -0.7016 O   0  0  0  0  0  0  0  0  0  0  0  0
   -3.6487    0.1473   -0.1178 C   0  0  0  0  0  0  0  0  0  0  0  0
   -4.9455   -0.4456    0.2154 C   0  0  0  0  0  0  0  0  0  0  0  0
   -4.9373   -1.5858    1.0455 C   0  0  0  0  0  0  0  0  0  0  0  0
   -6.1205   -2.2190    1.4235 C   0  0  0  0  0  0  0  0  0  0  0  0
   -7.3371   -1.7236    0.9741 C   0  0  0  0  0  0  0  0  0  0  0  0
   -7.3714   -0.5996    0.1457 C   0  0  0  0  0  0  0  0  0  0  0  0
   -6.1871    0.0470   -0.2420 C   0  0  0  0  0  0  0  0  0  0  0  0
   -6.1635    1.1404   -1.0688 O   0  0  0  0  0  0  0  0  0  0  0  0
   -7.4029    1.6868   -1.4996 C   0  0  0  0  0  0  0  0  0  0  0  0
   -2.4423   -0.3331    0.0967 N   0  0  0  0  0  0  0  0  0  0  0  0
    0.5508   -0.1989    0.5438 C   0  0  0  0  0  0  0  0  0  0  0  0
   -0.1411   -0.8695    1.5327 O   0  0  0  0  0  0  0  0  0  0  0  0
    0.6857   -1.6445    2.3929 C   0  0  0  0  0  0  0  0  0  0  0  0
    1.9069   -0.2976    0.5449 N   0  0  0  0  0  0  0  0  0  0  0  0
    4.6558   -0.9703    0.1150 C   0  0  0  0  0  0  0  0  0  0  0  0
    6.0438   -1.1361    0.1785 C   0  0  0  0  0  0  0  0  0  0  0  0
    9.0429    0.9279   -1.4719 H   0  0  0  0  0  0  0  0  0  0  0  0
    9.0276    1.5118    0.2381 H   0  0  0  0  0  0  0  0  0  0  0  0
   10.1593    0.2554   -0.2776 H   0  0  0  0  0  0  0  0  0  0  0  0
    6.9793    1.9524   -0.8875 H   0  0  0  0  0  0  0  0  0  0  0  0
    4.5778    2.2426   -0.9838 H   0  0  0  0  0  0  0  0  0  0  0  0
    2.5378    1.7198   -2.0918 H   0  0  0  0  0  0  0  0  0  0  0  0
    0.0881    1.8893   -2.0721 H   0  0  0  0  0  0  0  0  0  0  0  0
   -3.9900   -1.9865    1.4073 H   0  0  0  0  0  0  0  0  0  0  0  0
   -6.0878   -3.0951    2.0661 H   0  0  0  0  0  0  0  0  0  0  0  0
   -8.2637   -2.2132    1.2641 H   0  0  0  0  0  0  0  0  0  0  0  0
   -8.3458   -0.2551   -0.1858 H   0  0  0  0  0  0  0  0  0  0  0  0
   -7.9539    0.9723   -2.1196 H   0  0  0  0  0  0  0  0  0  0  0  0
   -7.1843    2.5629   -2.1178 H   0  0  0  0  0  0  0  0  0  0  0  0
   -8.0046    2.0227   -0.6487 H   0  0  0  0  0  0  0  0  0  0  0  0
    1.3799   -1.0098    2.9543 H   0  0  0  0  0  0  0  0  0  0  0  0
    0.0354   -2.1452    3.1168 H   0  0  0  0  0  0  0  0  0  0  0  0
    1.2223   -2.4209    1.8365 H   0  0  0  0  0  0  0  0  0  0  0  0
    4.0159   -1.8019    0.4064 H   0  0  0  0  0  0  0  0  0  0  0  0
    6.4553   -2.0844    0.5153 H   0  0  0  0  0  0  0  0  0  0  0  0
  1  2  1  0
  2  3  1  0
  3  4  2  0
  4  5  1  0
  5  6  2  0
  6  7  1  0
  7  8  2  0
  8  9  1  0
  9 10  2  0
 10 11  1  0
 11 12  2  0
 12 13  1  0
 13 14  1  0
 14 15  1  0
 15 16  2  0
 16 17  1  0
 17 18  2  0
 18 19  1  0
 19 20  2  0
 20 21  1  0
 21 22  1  0
 14 23  2  0
 10 24  1  0
 24 25  1  0
 25 26  1  0
 24 27  2  0
  6 28  1  0
 28 29  2  0
 29  3  1  0
 27  7  1  0
 23 11  1  0
 20 15  1  0
  1 30  1  0
  1 31  1  0
  1 32  1  0
  4 33  1  0
  5 34  1  0
  8 35  1  0
  9 36  1  0
 16 37  1  0
 17 38  1  0
 18 39  1  0
 19 40  1  0
 22 41  1  0
 22 42  1  0
 22 43  1  0
 26 44  1  0
 26 45  1  0
 26 46  1  0
 28 47  1  0
 29 48  1  0
M  END
$$$$
