
     RDKit          3D

 56 60  0  0  0  0  0  0  0  0999 V2000
   -5.4148   -4.0440    0.7594 C   0  0  0  0  0  0  0  0  0  0  0  0
   -4.9700   -2.6115    0.8044 C   0  0  0  0  0  0  0  0  0  0  0  0
   -4.7736   -1.8934   -0.3833 C   0  0  0  0  0  0  0  0  0  0  0  0
   -4.3315   -0.5699   -0.3448 C   0  0  0  0  0  0  0  0  0  0  0  0
   -4.0633    0.0315    0.8890 C   0  0  0  0  0  0  0  0  0  0  0  0
   -3.5378    1.7353    0.9276 S   0  0  0  0  0  6  0  0  0  0  0  0
   -4.3858    2.4083   -0.0476 O   0  0  0  0  0  0  0  0  0  0  0  0
   -3.5757    2.1921    2.3068 O   0  0  0  0  0  0  0  0  0  0  0  0
   -1.9074    1.7007    0.3527 C   0  0  0  0  0  0  0  0  0  0  0  0
   -1.5618    2.4469   -0.7091 C   0  0  0  0  0  0  0  0  0  0  0  0
   -0.2063    2.4691   -1.2345 C   0  0  0  0  0  0  0  0  0  0  0  0
    0.0936    3.2681   -2.4571 C   0  0  0  0  0  0  0  0  0  0  0  0
   -0.8099    3.8885   -3.0209 O   0  0  0  0  0  0  0  0  0  0  0  0
    1.4077    3.2483   -2.8882 N   0  0  0  0  0  0  0  0  0  0  0  0
    1.7691    3.9740   -4.0186 C   0  0  0  0  0  0  0  0  0  0  0  0
    3.0260    3.9812   -4.4791 C   0  0  0  0  0  0  0  0  0  0  0  0
    4.0417    3.2231   -3.7991 C   0  0  0  0  0  0  0  0  0  0  0  0
    3.7376    2.5101   -2.7082 C   0  0  0  0  0  0  0  0  0  0  0  0
    2.3388    2.5008   -2.1928 C   0  0  0  0  0  0  0  0  0  0  0  0
    2.0742    1.8014   -1.1364 N   0  0  0  0  0  0  0  0  0  0  0  0
    0.7920    1.7813   -0.6347 C   0  0  0  0  0  0  0  0  0  0  0  0
    0.4950    1.0200    0.5292 N   0  0  0  0  0  0  0  0  0  0  0  0
    1.6051    0.3091    1.1943 C   0  0  0  0  0  0  0  0  0  0  0  0
    1.7554   -1.1059    0.6259 C   0  0  0  0  0  0  0  0  0  0  0  0
    2.8352   -1.8803    1.3393 C   0  0  0  0  0  0  0  0  0  0  0  0
    2.5127   -2.7480    2.3911 C   0  0  0  0  0  0  0  0  0  0  0  0
    3.5175   -3.4447    3.0638 C   0  0  0  0  0  0  0  0  0  0  0  0
    4.8510   -3.2787    2.6941 C   0  0  0  0  0  0  0  0  0  0  0  0
    5.1819   -2.4159    1.6510 C   0  0  0  0  0  0  0  0  0  0  0  0
    4.1793   -1.7181    0.9765 C   0  0  0  0  0  0  0  0  0  0  0  0
   -0.8243    0.9048    1.0040 C   0  0  0  0  0  0  0  0  0  0  0  0
   -1.1769    0.1283    1.9816 N   0  0  0  0  0  0  0  0  0  0  0  0
   -4.2590   -0.6703    2.0799 C   0  0  0  0  0  0  0  0  0  0  0  0
   -4.6997   -1.9940    2.0335 C   0  0  0  0  0  0  0  0  0  0  0  0
   -6.0502   -4.2287   -0.1132 H   0  0  0  0  0  0  0  0  0  0  0  0
   -4.5437   -4.7043    0.7090 H   0  0  0  0  0  0  0  0  0  0  0  0
   -6.0020   -4.2988    1.6479 H   0  0  0  0  0  0  0  0  0  0  0  0
   -4.9747   -2.3599   -1.3455 H   0  0  0  0  0  0  0  0  0  0  0  0
   -4.2108   -0.0166   -1.2730 H   0  0  0  0  0  0  0  0  0  0  0  0
   -2.2957    3.0690   -1.2194 H   0  0  0  0  0  0  0  0  0  0  0  0
    0.9846    4.5392   -4.5165 H   0  0  0  0  0  0  0  0  0  0  0  0
    3.2986    4.5510   -5.3618 H   0  0  0  0  0  0  0  0  0  0  0  0
    5.0538    3.2447   -4.1905 H   0  0  0  0  0  0  0  0  0  0  0  0
    4.4732    1.9277   -2.1679 H   0  0  0  0  0  0  0  0  0  0  0  0
    2.5464    0.8638    1.0837 H   0  0  0  0  0  0  0  0  0  0  0  0
    1.4490    0.2824    2.2799 H   0  0  0  0  0  0  0  0  0  0  0  0
    1.9878   -1.0666   -0.4461 H   0  0  0  0  0  0  0  0  0  0  0  0
    0.8059   -1.6515    0.6973 H   0  0  0  0  0  0  0  0  0  0  0  0
    1.4774   -2.8917    2.6930 H   0  0  0  0  0  0  0  0  0  0  0  0
    3.2599   -4.1187    3.8769 H   0  0  0  0  0  0  0  0  0  0  0  0
    5.6321   -3.8226    3.2186 H   0  0  0  0  0  0  0  0  0  0  0  0
    6.2219   -2.2871    1.3628 H   0  0  0  0  0  0  0  0  0  0  0  0
    4.4526   -1.0471    0.1649 H   0  0  0  0  0  0  0  0  0  0  0  0
   -0.3943   -0.3906    2.3739 H   0  0  0  0  0  0  0  0  0  0  0  0
   -4.0545   -0.2017    3.0401 H   0  0  0  0  0  0  0  0  0  0  0  0
   -4.8335   -2.5402    2.9649 H   0  0  0  0  0  0  0  0  0  0  0  0
  1  2  1  0
  2  3  2  0
  3  4  1  0
  4  5  2  0
  5  6  1  0
  6  7  2  0
  6  8  2  0
  6  9  1  0
  9 10  2  0
 10 11  1  0
 11 12  1  0
 12 13  2  0
 12 14  1  0
 14 15  1  0
 15 16  2  0
 16 17  1  0
 17 18  2  0
 18 19  1  0
 19 20  2  0
 20 21  1  0
 21 22  1  0
 22 23  1  0
 23 24  1  0
 24 25  1  0
 25 26  2  0
 26 27  1  0
 27 28  2  0
 28 29  1  0
 29 30  2  0
 22 31  1  0
 31 32  2  3
  5 33  1  0
 33 34  2  0
 34  2  1  0
 31  9  1  0
 21 11  2  0
 30 25  1  0
 19 14  1  0
  1 35  1  0
  1 36  1  0
  1 37  1  0
  3 38  1  0
  4 39  1  0
 10 40  1  0
 15 41  1  0
 16 42  1  0
 17 43  1  0
 18 44  1  0
 23 45  1  0
 23 46  1  0
 24 47  1  0
 24 48  1  0
 26 49  1  0
 27 50  1  0
 28 51  1  0
 29 52  1  0
 30 53  1  0
 32 54  1  0
 33 55  1  0
 34 56  1  0
M  END
$$$$
