
     RDKit          3D

 49 52  0  0  0  0  0  0  0  0999 V2000
   -7.2850   -0.3193    2.3211 C   0  0  0  0  0  0  0  0  0  0  0  0
   -6.3292   -0.0785    1.1890 C   0  0  0  0  0  0  0  0  0  0  0  0
   -6.5974   -0.5977   -0.0854 C   0  0  0  0  0  0  0  0  0  0  0  0
   -5.6985   -0.4005   -1.1345 C   0  0  0  0  0  0  0  0  0  0  0  0
   -4.5162    0.3038   -0.8999 C   0  0  0  0  0  0  0  0  0  0  0  0
   -3.3567    0.5562   -2.2129 S   0  0  0  0  0  6  0  0  0  0  0  0
   -3.8317   -0.1063   -3.4121 O   0  0  0  0  0  0  0  0  0  0  0  0
   -2.9774    1.9553   -2.2096 O   0  0  0  0  0  0  0  0  0  0  0  0
   -1.9418   -0.3328   -1.7380 C   0  0  0  0  0  0  0  0  0  0  0  0
   -0.7740    0.3220   -1.3441 N   0  0  0  0  0  0  0  0  0  0  0  0
    0.1615   -0.5416   -1.0190 C   0  0  0  0  0  0  0  0  0  0  0  0
    1.4127   -0.2729   -0.6039 N   0  0  0  0  0  0  0  0  0  0  0  0
    2.0770    0.9602   -0.4190 C   0  0  0  0  0  0  0  0  0  0  0  0
    1.5047    2.2125   -0.6597 C   0  0  0  0  0  0  0  0  0  0  0  0
    2.2376    3.3826   -0.4454 C   0  0  0  0  0  0  0  0  0  0  0  0
    3.5512    3.3154    0.0113 C   0  0  0  0  0  0  0  0  0  0  0  0
    4.1418    2.0761    0.2564 C   0  0  0  0  0  0  0  0  0  0  0  0
    3.4200    0.8916    0.0475 C   0  0  0  0  0  0  0  0  0  0  0  0
    3.9723   -0.4037    0.2732 N   0  0  0  0  0  0  0  0  0  0  0  0
    4.3891   -0.5989    1.6837 C   0  0  0  0  0  0  0  0  0  0  0  0
    4.9162   -2.0335    1.8566 C   0  0  0  0  0  0  0  0  0  0  0  0
    6.0128   -2.2994    0.9641 O   0  0  0  0  0  0  0  0  0  0  0  0
    5.6023   -2.1202   -0.4032 C   0  0  0  0  0  0  0  0  0  0  0  0
    5.0956   -0.6897   -0.6543 C   0  0  0  0  0  0  0  0  0  0  0  0
   -0.3321   -2.1964   -1.1417 S   0  0  0  0  0  0  0  0  0  0  0  0
   -1.8693   -1.7007   -1.6632 C   0  0  0  0  0  0  0  0  0  0  0  0
   -3.0548   -2.8980   -1.9851 Cl  0  0  0  0  0  0  0  0  0  0  0  0
   -4.2325    0.8259    0.3653 C   0  0  0  0  0  0  0  0  0  0  0  0
   -5.1370    0.6253    1.4084 C   0  0  0  0  0  0  0  0  0  0  0  0
   -8.3139   -0.3973    1.9542 H   0  0  0  0  0  0  0  0  0  0  0  0
   -7.2580    0.5085    3.0374 H   0  0  0  0  0  0  0  0  0  0  0  0
   -7.0231   -1.2462    2.8404 H   0  0  0  0  0  0  0  0  0  0  0  0
   -7.5136   -1.1562   -0.2683 H   0  0  0  0  0  0  0  0  0  0  0  0
   -5.9273   -0.8017   -2.1197 H   0  0  0  0  0  0  0  0  0  0  0  0
    2.0472   -1.0351   -0.3702 H   0  0  0  0  0  0  0  0  0  0  0  0
    0.4849    2.3056   -1.0206 H   0  0  0  0  0  0  0  0  0  0  0  0
    1.7764    4.3478   -0.6404 H   0  0  0  0  0  0  0  0  0  0  0  0
    4.1165    4.2294    0.1736 H   0  0  0  0  0  0  0  0  0  0  0  0
    5.1690    2.0465    0.6065 H   0  0  0  0  0  0  0  0  0  0  0  0
    3.5384   -0.4413    2.3569 H   0  0  0  0  0  0  0  0  0  0  0  0
    5.1873    0.1037    1.9531 H   0  0  0  0  0  0  0  0  0  0  0  0
    5.2793   -2.1762    2.8792 H   0  0  0  0  0  0  0  0  0  0  0  0
    4.1242   -2.7697    1.6745 H   0  0  0  0  0  0  0  0  0  0  0  0
    6.4691   -2.3254   -1.0391 H   0  0  0  0  0  0  0  0  0  0  0  0
    4.8281   -2.8598   -0.6403 H   0  0  0  0  0  0  0  0  0  0  0  0
    4.7628   -0.6010   -1.6951 H   0  0  0  0  0  0  0  0  0  0  0  0
    5.9219    0.0125   -0.4871 H   0  0  0  0  0  0  0  0  0  0  0  0
   -3.3194    1.3911    0.5448 H   0  0  0  0  0  0  0  0  0  0  0  0
   -4.9111    1.0279    2.3941 H   0  0  0  0  0  0  0  0  0  0  0  0
  1  2  1  0
  2  3  2  0
  3  4  1  0
  4  5  2  0
  5  6  1  0
  6  7  2  0
  6  8  2  0
  6  9  1  0
  9 10  1  0
 10 11  2  0
 11 12  1  0
 12 13  1  0
 13 14  2  0
 14 15  1  0
 15 16  2  0
 16 17  1  0
 17 18  2  0
 18 19  1  0
 19 20  1  0
 20 21  1  0
 21 22  1  0
 22 23  1  0
 23 24  1  0
 11 25  1  0
 25 26  1  0
 26 27  1  0
  5 28  1  0
 28 29  2  0
 29  2  1  0
 26  9  2  0
 18 13  1  0
 24 19  1  0
  1 30  1  0
  1 31  1  0
  1 32  1  0
  3 33  1  0
  4 34  1  0
 12 35  1  0
 14 36  1  0
 15 37  1  0
 16 38  1  0
 17 39  1  0
 20 40  1  0
 20 41  1  0
 21 42  1  0
 21 43  1  0
 23 44  1  0
 23 45  1  0
 24 46  1  0
 24 47  1  0
 28 48  1  0
 29 49  1  0
M  END
$$$$
