
     RDKit          3D

 56 59  0  0  0  0  0  0  0  0999 V2000
    8.0484    0.5631   -1.4659 C   0  0  0  0  0  0  0  0  0  0  0  0
    7.9407    0.7347   -0.0566 O   0  0  0  0  0  0  0  0  0  0  0  0
    6.6401    0.6769    0.4006 C   0  0  0  0  0  0  0  0  0  0  0  0
    6.4631    0.8327    1.7629 C   0  0  0  0  0  0  0  0  0  0  0  0
    5.1670    0.7815    2.2686 C   0  0  0  0  0  0  0  0  0  0  0  0
    4.0824    0.5757    1.4047 C   0  0  0  0  0  0  0  0  0  0  0  0
    2.7188    0.5284    2.0089 C   0  0  0  0  0  0  0  0  0  0  0  0
    2.5785    0.7238    3.2132 O   0  0  0  0  0  0  0  0  0  0  0  0
    1.6536    0.2651    1.1819 N   0  0  0  0  0  0  0  0  0  0  0  0
    0.2856    0.3114    1.6522 C   0  0  0  0  0  0  0  0  0  0  0  0
   -0.2157    1.7748    1.7296 C   0  0  0  0  0  0  0  0  0  0  0  0
   -1.7508    1.8689    1.8052 C   0  0  0  0  0  0  0  0  0  0  0  0
   -2.4297    1.2392    0.5736 C   0  0  0  0  0  0  0  0  0  0  0  0
   -1.8233   -0.0939    0.3007 C   0  0  0  0  0  0  0  0  0  0  0  0
   -0.5668   -0.4869    0.7233 C   0  0  0  0  0  0  0  0  0  0  0  0
   -0.3453   -1.7078    0.0688 C   0  0  0  0  0  0  0  0  0  0  0  0
   -1.3490   -2.0378   -0.7455 N   0  0  0  0  0  0  0  0  0  0  0  0
   -2.3119   -1.1052   -0.5045 N   0  0  0  0  0  0  0  0  0  0  0  0
   -3.5724   -1.2091   -1.1462 C   0  0  0  0  0  0  0  0  0  0  0  0
   -3.5533   -1.5087   -2.5188 C   0  0  0  0  0  0  0  0  0  0  0  0
   -4.7382   -1.5516   -3.2447 C   0  0  0  0  0  0  0  0  0  0  0  0
   -5.9495   -1.3092   -2.6045 C   0  0  0  0  0  0  0  0  0  0  0  0
   -5.9980   -1.0572   -1.2230 C   0  0  0  0  0  0  0  0  0  0  0  0
   -7.3475   -0.8742   -0.5773 C   0  0  0  0  0  0  0  0  0  0  0  0
   -4.8000   -1.0469   -0.4638 C   0  0  0  0  0  0  0  0  0  0  0  0
   -4.9002   -0.9985    1.0423 C   0  0  0  0  0  0  0  0  0  0  0  0
    4.3705    0.4306    0.0457 C   0  0  0  0  0  0  0  0  0  0  0  0
    3.3251    0.2396   -0.8396 O   0  0  0  0  0  0  0  0  0  0  0  0
    3.7394    0.0515   -2.1908 C   0  0  0  0  0  0  0  0  0  0  0  0
    5.6267    0.4791   -0.4670 N   0  0  0  0  0  0  0  0  0  0  0  0
    7.5270    1.3624   -2.0040 H   0  0  0  0  0  0  0  0  0  0  0  0
    7.6831   -0.4226   -1.7749 H   0  0  0  0  0  0  0  0  0  0  0  0
    9.1091    0.6221   -1.7287 H   0  0  0  0  0  0  0  0  0  0  0  0
    7.3132    0.9901    2.4176 H   0  0  0  0  0  0  0  0  0  0  0  0
    5.0065    0.9012    3.3384 H   0  0  0  0  0  0  0  0  0  0  0  0
    1.8124    0.2395    0.1794 H   0  0  0  0  0  0  0  0  0  0  0  0
    0.2360   -0.1379    2.6520 H   0  0  0  0  0  0  0  0  0  0  0  0
    0.1246    2.3351    0.8477 H   0  0  0  0  0  0  0  0  0  0  0  0
    0.2293    2.2718    2.6000 H   0  0  0  0  0  0  0  0  0  0  0  0
   -2.0534    2.9189    1.8892 H   0  0  0  0  0  0  0  0  0  0  0  0
   -2.0956    1.3609    2.7152 H   0  0  0  0  0  0  0  0  0  0  0  0
   -2.2622    1.8837   -0.2983 H   0  0  0  0  0  0  0  0  0  0  0  0
   -3.5051    1.2015    0.7402 H   0  0  0  0  0  0  0  0  0  0  0  0
    0.5238   -2.3519    0.1181 H   0  0  0  0  0  0  0  0  0  0  0  0
   -2.6097   -1.6809   -3.0343 H   0  0  0  0  0  0  0  0  0  0  0  0
   -4.7163   -1.7675   -4.3094 H   0  0  0  0  0  0  0  0  0  0  0  0
   -6.8669   -1.3431   -3.1891 H   0  0  0  0  0  0  0  0  0  0  0  0
   -8.1260   -0.6884   -1.3253 H   0  0  0  0  0  0  0  0  0  0  0  0
   -7.6233   -1.7730   -0.0172 H   0  0  0  0  0  0  0  0  0  0  0  0
   -7.3414   -0.0103    0.0947 H   0  0  0  0  0  0  0  0  0  0  0  0
   -3.9508   -1.2005    1.5432 H   0  0  0  0  0  0  0  0  0  0  0  0
   -5.2694   -0.0235    1.3738 H   0  0  0  0  0  0  0  0  0  0  0  0
   -5.5896   -1.7739    1.3947 H   0  0  0  0  0  0  0  0  0  0  0  0
    4.2429    0.9438   -2.5785 H   0  0  0  0  0  0  0  0  0  0  0  0
    2.8404   -0.1111   -2.7931 H   0  0  0  0  0  0  0  0  0  0  0  0
    4.3728   -0.8365   -2.2922 H   0  0  0  0  0  0  0  0  0  0  0  0
  1  2  1  0
  2  3  1  0
  3  4  2  0
  4  5  1  0
  5  6  2  0
  6  7  1  0
  7  8  2  0
  7  9  1  0
  9 10  1  0
 10 11  1  0
 11 12  1  0
 12 13  1  0
 13 14  1  0
 14 15  2  0
 15 16  1  0
 16 17  2  0
 17 18  1  0
 18 19  1  0
 19 20  2  0
 20 21  1  0
 21 22  2  0
 22 23  1  0
 23 24  1  0
 23 25  2  0
 25 26  1  0
  6 27  1  0
 27 28  1  0
 28 29  1  0
 27 30  2  0
 30  3  1  0
 15 10  1  0
 25 19  1  0
 18 14  1  0
  1 31  1  0
  1 32  1  0
  1 33  1  0
  4 34  1  0
  5 35  1  0
  9 36  1  0
 10 37  1  0
 11 38  1  0
 11 39  1  0
 12 40  1  0
 12 41  1  0
 13 42  1  0
 13 43  1  0
 16 44  1  0
 20 45  1  0
 21 46  1  0
 22 47  1  0
 24 48  1  0
 24 49  1  0
 24 50  1  0
 26 51  1  0
 26 52  1  0
 26 53  1  0
 29 54  1  0
 29 55  1  0
 29 56  1  0
M  END
$$$$
