
     RDKit          3D

 54 54  0  0  0  0  0  0  0  0999 V2000
   10.2326    0.0004   -1.1926 C   0  0  0  0  0  0  0  0  0  0  0  0
    8.9662   -0.1546   -1.6017 C   0  0  0  0  0  0  0  0  0  0  0  0
    7.7831    0.4985   -0.9641 C   0  0  0  0  0  0  0  0  0  0  0  0
    7.0105   -0.5436   -0.3305 N   0  0  0  0  0  0  0  0  0  0  0  0
    5.7678   -0.2191    0.1842 C   0  0  0  0  0  0  0  0  0  0  0  0
    5.2673    0.8886    0.0659 O   0  0  0  0  0  0  0  0  0  0  0  0
    5.2029   -1.3140    0.7985 N   0  0  0  0  0  0  0  0  0  0  0  0
    3.9488   -1.2800    1.3819 C   0  0  0  0  0  0  0  0  0  0  0  0
    3.4516   -0.3087    1.9448 O   0  0  0  0  0  0  0  0  0  0  0  0
    3.2596   -2.6492    1.3967 C   0  0  0  0  0  0  0  0  0  0  0  0
    1.8467   -2.5590    1.5696 O   0  0  0  0  0  0  0  0  0  0  0  0
    1.1922   -2.0588    0.4892 C   0  0  0  0  0  0  0  0  0  0  0  0
    1.7230   -1.8307   -0.5900 O   0  0  0  0  0  0  0  0  0  0  0  0
   -0.2471   -1.8484    0.7860 C   0  0  0  0  0  0  0  0  0  0  0  0
   -0.7794   -2.3236    2.0143 C   0  0  0  0  0  0  0  0  0  0  0  0
   -1.2105   -2.7454    3.0071 N   0  0  0  0  0  0  0  0  0  0  0  0
   -0.9690   -1.1942   -0.1456 C   0  0  0  0  0  0  0  0  0  0  0  0
   -2.3627   -0.8715   -0.1147 C   0  0  0  0  0  0  0  0  0  0  0  0
   -3.4253   -1.6510    0.3943 C   0  0  0  0  0  0  0  0  0  0  0  0
   -4.5994   -0.9521    0.2011 C   0  0  0  0  0  0  0  0  0  0  0  0
   -5.9854   -1.3618    0.5575 C   0  0  0  0  0  0  0  0  0  0  0  0
   -4.2742    0.2489   -0.3985 N   0  0  0  0  0  0  0  0  0  0  0  0
   -5.2287    1.2943   -0.7555 C   0  0  0  0  0  0  0  0  0  0  0  0
   -5.1674    2.5423    0.1439 C   0  0  0  0  0  0  0  0  0  0  0  0
   -6.0557    3.6427   -0.4404 C   0  0  0  0  0  0  0  0  0  0  0  0
   -5.5949    2.2415    1.5814 C   0  0  0  0  0  0  0  0  0  0  0  0
   -2.9092    0.2888   -0.6422 C   0  0  0  0  0  0  0  0  0  0  0  0
   -2.2323    1.4402   -1.3134 C   0  0  0  0  0  0  0  0  0  0  0  0
   10.4865    0.6247   -0.3408 H   0  0  0  0  0  0  0  0  0  0  0  0
   11.0489   -0.4932   -1.7119 H   0  0  0  0  0  0  0  0  0  0  0  0
    8.7652   -0.7776   -2.4709 H   0  0  0  0  0  0  0  0  0  0  0  0
    7.1726    1.0104   -1.7159 H   0  0  0  0  0  0  0  0  0  0  0  0
    8.0725    1.2278   -0.1991 H   0  0  0  0  0  0  0  0  0  0  0  0
    7.5480   -1.1674    0.2542 H   0  0  0  0  0  0  0  0  0  0  0  0
    5.4855   -2.1778    0.3643 H   0  0  0  0  0  0  0  0  0  0  0  0
    3.4969   -3.2226    0.4925 H   0  0  0  0  0  0  0  0  0  0  0  0
    3.6586   -3.2064    2.2514 H   0  0  0  0  0  0  0  0  0  0  0  0
   -0.4427   -0.8422   -1.0332 H   0  0  0  0  0  0  0  0  0  0  0  0
   -3.3681   -2.6321    0.8498 H   0  0  0  0  0  0  0  0  0  0  0  0
   -6.4480   -0.6381    1.2343 H   0  0  0  0  0  0  0  0  0  0  0  0
   -5.9868   -2.3341    1.0614 H   0  0  0  0  0  0  0  0  0  0  0  0
   -6.6052   -1.4523   -0.3406 H   0  0  0  0  0  0  0  0  0  0  0  0
   -6.2364    0.8657   -0.7429 H   0  0  0  0  0  0  0  0  0  0  0  0
   -5.0296    1.5553   -1.8015 H   0  0  0  0  0  0  0  0  0  0  0  0
   -4.1408    2.9250    0.1748 H   0  0  0  0  0  0  0  0  0  0  0  0
   -7.1026    3.3239   -0.4908 H   0  0  0  0  0  0  0  0  0  0  0  0
   -6.0068    4.5493    0.1721 H   0  0  0  0  0  0  0  0  0  0  0  0
   -5.7321    3.9070   -1.4528 H   0  0  0  0  0  0  0  0  0  0  0  0
   -5.5624    3.1498    2.1926 H   0  0  0  0  0  0  0  0  0  0  0  0
   -6.6166    1.8486    1.6187 H   0  0  0  0  0  0  0  0  0  0  0  0
   -4.9285    1.5098    2.0491 H   0  0  0  0  0  0  0  0  0  0  0  0
   -2.8759    1.9303   -2.0483 H   0  0  0  0  0  0  0  0  0  0  0  0
   -1.9257    2.1815   -0.5687 H   0  0  0  0  0  0  0  0  0  0  0  0
   -1.3377    1.1141   -1.8530 H   0  0  0  0  0  0  0  0  0  0  0  0
  1  2  2  0
  2  3  1  0
  3  4  1  0
  4  5  1  0
  5  6  2  0
  5  7  1  0
  7  8  1  0
  8  9  2  0
  8 10  1  0
 10 11  1  0
 11 12  1  0
 12 13  2  0
 12 14  1  0
 14 15  1  0
 15 16  3  0
 14 17  2  3
 17 18  1  0
 18 19  1  0
 19 20  2  0
 20 21  1  0
 20 22  1  0
 22 23  1  0
 23 24  1  0
 24 25  1  0
 24 26  1  0
 22 27  1  0
 27 28  1  0
 27 18  2  0
  1 29  1  0
  1 30  1  0
  2 31  1  0
  3 32  1  0
  3 33  1  0
  4 34  1  0
  7 35  1  0
 10 36  1  0
 10 37  1  0
 17 38  1  0
 19 39  1  0
 21 40  1  0
 21 41  1  0
 21 42  1  0
 23 43  1  0
 23 44  1  0
 24 45  1  0
 25 46  1  0
 25 47  1  0
 25 48  1  0
 26 49  1  0
 26 50  1  0
 26 51  1  0
 28 52  1  0
 28 53  1  0
 28 54  1  0
M  END
$$$$
