
     RDKit          3D

 49 52  0  0  0  0  0  0  0  0999 V2000
   -7.2629   -0.4807   -2.5705 C   0  0  0  0  0  0  0  0  0  0  0  0
   -6.4321   -0.2063   -1.3519 C   0  0  0  0  0  0  0  0  0  0  0  0
   -7.0336   -0.1094   -0.0930 C   0  0  0  0  0  0  0  0  0  0  0  0
   -6.2687    0.1851    1.0413 C   0  0  0  0  0  0  0  0  0  0  0  0
   -6.9107    0.2461    2.3965 C   0  0  0  0  0  0  0  0  0  0  0  0
   -4.8836    0.3699    0.9098 C   0  0  0  0  0  0  0  0  0  0  0  0
   -4.2678    0.2960   -0.3406 C   0  0  0  0  0  0  0  0  0  0  0  0
   -2.8841    0.4785   -0.5500 N   0  0  0  0  0  0  0  0  0  0  0  0
   -1.9332    0.8383    0.3862 C   0  0  0  0  0  0  0  0  0  0  0  0
   -2.1173    1.1296    1.5613 O   0  0  0  0  0  0  0  0  0  0  0  0
   -0.5409    0.8999   -0.1368 C   0  0  0  0  0  0  0  0  0  0  0  0
    0.2986    1.9254    0.3133 C   0  0  0  0  0  0  0  0  0  0  0  0
    1.6125    2.0076   -0.1537 C   0  0  0  0  0  0  0  0  0  0  0  0
    2.1062    1.0539   -1.0488 C   0  0  0  0  0  0  0  0  0  0  0  0
    3.4193    1.1237   -1.5249 N   0  0  0  0  0  0  0  0  0  0  0  0
    4.3729    0.7364   -0.7563 C   0  0  0  0  0  0  0  0  0  0  0  0
    4.3542    0.2161    0.5099 N   0  0  0  0  0  0  0  0  0  0  0  0
    5.5788   -0.4212    0.9578 C   0  0  0  0  0  0  0  0  0  0  0  0
    5.6335   -1.8829    0.5421 C   0  0  0  0  0  0  0  0  0  0  0  0
    7.3684   -2.2393    0.5053 S   0  0  0  0  0  6  0  0  0  0  0  0
    7.7715   -2.5811    1.8544 O   0  0  0  0  0  0  0  0  0  0  0  0
    7.6493   -3.0971   -0.6244 O   0  0  0  0  0  0  0  0  0  0  0  0
    7.9435   -0.5893    0.1610 C   0  0  0  0  0  0  0  0  0  0  0  0
    6.7293    0.3182    0.2540 C   0  0  0  0  0  0  0  0  0  0  0  0
    6.0282    0.8070   -1.3666 S   0  0  0  0  0  0  0  0  0  0  0  0
    1.2641    0.0315   -1.4953 C   0  0  0  0  0  0  0  0  0  0  0  0
   -0.0539   -0.0552   -1.0379 C   0  0  0  0  0  0  0  0  0  0  0  0
   -5.0521    0.0117   -1.4669 C   0  0  0  0  0  0  0  0  0  0  0  0
   -7.6122    0.4611   -3.0048 H   0  0  0  0  0  0  0  0  0  0  0  0
   -8.1315   -1.0991   -2.3207 H   0  0  0  0  0  0  0  0  0  0  0  0
   -6.6835   -1.0251   -3.3236 H   0  0  0  0  0  0  0  0  0  0  0  0
   -8.1064   -0.2642    0.0067 H   0  0  0  0  0  0  0  0  0  0  0  0
   -6.8705   -0.7378    2.8738 H   0  0  0  0  0  0  0  0  0  0  0  0
   -6.4007    0.9731    3.0374 H   0  0  0  0  0  0  0  0  0  0  0  0
   -7.9572    0.5595    2.3206 H   0  0  0  0  0  0  0  0  0  0  0  0
   -4.3055    0.5731    1.8062 H   0  0  0  0  0  0  0  0  0  0  0  0
   -2.5758    0.4008   -1.5104 H   0  0  0  0  0  0  0  0  0  0  0  0
   -0.0722    2.6658    1.0194 H   0  0  0  0  0  0  0  0  0  0  0  0
    2.2558    2.8176    0.1808 H   0  0  0  0  0  0  0  0  0  0  0  0
    3.4616   -0.1124    0.8626 H   0  0  0  0  0  0  0  0  0  0  0  0
    5.6839   -0.3315    2.0453 H   0  0  0  0  0  0  0  0  0  0  0  0
    5.1355   -2.5409    1.2583 H   0  0  0  0  0  0  0  0  0  0  0  0
    5.2249   -2.0652   -0.4565 H   0  0  0  0  0  0  0  0  0  0  0  0
    8.6718   -0.3404    0.9394 H   0  0  0  0  0  0  0  0  0  0  0  0
    8.4410   -0.5699   -0.8118 H   0  0  0  0  0  0  0  0  0  0  0  0
    6.9767    1.2505    0.7735 H   0  0  0  0  0  0  0  0  0  0  0  0
    1.6437   -0.7019   -2.2028 H   0  0  0  0  0  0  0  0  0  0  0  0
   -0.6758   -0.8807   -1.3734 H   0  0  0  0  0  0  0  0  0  0  0  0
   -4.5937   -0.0448   -2.4512 H   0  0  0  0  0  0  0  0  0  0  0  0
  1  2  1  0
  2  3  2  0
  3  4  1  0
  4  5  1  0
  4  6  2  0
  6  7  1  0
  7  8  1  0
  8  9  1  0
  9 10  2  0
  9 11  1  0
 11 12  2  0
 12 13  1  0
 13 14  2  0
 14 15  1  0
 15 16  2  3
 16 17  1  0
 17 18  1  0
 18 19  1  0
 19 20  1  0
 20 21  2  0
 20 22  2  0
 20 23  1  0
 23 24  1  0
 24 25  1  0
 14 26  1  0
 26 27  2  0
  7 28  2  0
 28  2  1  0
 27 11  1  0
 25 16  1  0
 24 18  1  0
  1 29  1  0
  1 30  1  0
  1 31  1  0
  3 32  1  0
  5 33  1  0
  5 34  1  0
  5 35  1  0
  6 36  1  0
  8 37  1  0
 12 38  1  0
 13 39  1  0
 17 40  1  0
 18 41  1  0
 19 42  1  0
 19 43  1  0
 23 44  1  0
 23 45  1  0
 24 46  1  0
 26 47  1  0
 27 48  1  0
 28 49  1  0
M  END
$$$$
