
     RDKit          3D

 48 51  0  0  0  0  0  0  0  0999 V2000
   -7.7115   -1.9324    0.8655 C   0  0  0  0  0  0  0  0  0  0  0  0
   -6.5099   -1.2040    0.3321 C   0  0  0  0  0  0  0  0  0  0  0  0
   -6.6392   -0.4123   -0.8019 C   0  0  0  0  0  0  0  0  0  0  0  0
   -5.5277    0.2758   -1.3200 C   0  0  0  0  0  0  0  0  0  0  0  0
   -5.7100    1.1130   -2.5548 C   0  0  0  0  0  0  0  0  0  0  0  0
   -4.2957    0.1377   -0.6209 C   0  0  0  0  0  0  0  0  0  0  0  0
   -2.9728    0.6857   -0.8018 C   0  0  0  0  0  0  0  0  0  0  0  0
   -2.6353    1.5556   -1.7837 N   0  0  0  0  0  0  0  0  0  0  0  0
   -2.0527    0.2324    0.1296 C   0  0  0  0  0  0  0  0  0  0  0  0
   -0.6430    0.5944    0.2413 C   0  0  0  0  0  0  0  0  0  0  0  0
   -0.1278    1.4924   -0.4293 O   0  0  0  0  0  0  0  0  0  0  0  0
    0.1010   -0.1403    1.1621 N   0  0  0  0  0  0  0  0  0  0  0  0
    1.5152   -0.1252    1.0352 N   0  0  0  0  0  0  0  0  0  0  0  0
    2.1618    0.9350    1.7944 C   0  0  0  0  0  0  0  0  0  0  0  0
    3.5982    1.1430    1.3104 C   0  0  0  0  0  0  0  0  0  0  0  0
    4.1902    2.1934    1.5561 O   0  0  0  0  0  0  0  0  0  0  0  0
    4.1909   -0.0015    0.7410 N   0  0  0  0  0  0  0  0  0  0  0  0
    5.4974    0.0836    0.1567 C   0  0  0  0  0  0  0  0  0  0  0  0
    6.4440   -0.9384    0.3270 C   0  0  0  0  0  0  0  0  0  0  0  0
    7.7153   -0.8453   -0.2550 C   0  0  0  0  0  0  0  0  0  0  0  0
    8.0559    0.2601   -1.0305 C   0  0  0  0  0  0  0  0  0  0  0  0
    7.1225    1.2733   -1.2293 C   0  0  0  0  0  0  0  0  0  0  0  0
    5.8595    1.1800   -0.6459 C   0  0  0  0  0  0  0  0  0  0  0  0
    4.9650    2.1336   -0.9481 F   0  0  0  0  0  0  0  0  0  0  0  0
    3.6479   -1.3067    1.1229 C   0  0  0  0  0  0  0  0  0  0  0  0
    2.1320   -1.3668    0.9598 C   0  0  0  0  0  0  0  0  0  0  0  0
    1.5056   -2.4233    0.8842 O   0  0  0  0  0  0  0  0  0  0  0  0
   -2.7854   -0.8434    1.2397 S   0  0  0  0  0  0  0  0  0  0  0  0
   -4.3037   -0.7014    0.4899 C   0  0  0  0  0  0  0  0  0  0  0  0
   -5.3535   -1.3780    0.9955 N   0  0  0  0  0  0  0  0  0  0  0  0
   -7.4785   -2.4276    1.8140 H   0  0  0  0  0  0  0  0  0  0  0  0
   -8.0370   -2.6947    0.1506 H   0  0  0  0  0  0  0  0  0  0  0  0
   -8.5327   -1.2299    1.0428 H   0  0  0  0  0  0  0  0  0  0  0  0
   -7.6077   -0.3308   -1.2898 H   0  0  0  0  0  0  0  0  0  0  0  0
   -6.6778    0.9231   -3.0302 H   0  0  0  0  0  0  0  0  0  0  0  0
   -5.6617    2.1744   -2.2957 H   0  0  0  0  0  0  0  0  0  0  0  0
   -4.9385    0.8767   -3.2936 H   0  0  0  0  0  0  0  0  0  0  0  0
   -3.3254    2.1246   -2.2603 H   0  0  0  0  0  0  0  0  0  0  0  0
   -1.7138    2.0060   -1.7592 H   0  0  0  0  0  0  0  0  0  0  0  0
   -0.2899   -1.0423    1.4401 H   0  0  0  0  0  0  0  0  0  0  0  0
    2.1867    0.6533    2.8530 H   0  0  0  0  0  0  0  0  0  0  0  0
    1.6111    1.8715    1.6590 H   0  0  0  0  0  0  0  0  0  0  0  0
    6.2379   -1.8067    0.9450 H   0  0  0  0  0  0  0  0  0  0  0  0
    8.4425   -1.6382   -0.0965 H   0  0  0  0  0  0  0  0  0  0  0  0
    9.0413    0.3308   -1.4836 H   0  0  0  0  0  0  0  0  0  0  0  0
    7.3580    2.1299   -1.8530 H   0  0  0  0  0  0  0  0  0  0  0  0
    3.8963   -1.5030    2.1701 H   0  0  0  0  0  0  0  0  0  0  0  0
    4.0553   -2.0869    0.4716 H   0  0  0  0  0  0  0  0  0  0  0  0
  1  2  1  0
  2  3  2  0
  3  4  1  0
  4  5  1  0
  4  6  2  0
  6  7  1  0
  7  8  1  0
  7  9  2  0
  9 10  1  0
 10 11  2  0
 10 12  1  0
 12 13  1  0
 13 14  1  0
 14 15  1  0
 15 16  2  0
 15 17  1  0
 17 18  1  0
 18 19  2  0
 19 20  1  0
 20 21  2  0
 21 22  1  0
 22 23  2  0
 23 24  1  0
 17 25  1  0
 25 26  1  0
 26 27  2  0
  9 28  1  0
 28 29  1  0
 29 30  2  0
 30  2  1  0
 29  6  1  0
 26 13  1  0
 23 18  1  0
  1 31  1  0
  1 32  1  0
  1 33  1  0
  3 34  1  0
  5 35  1  0
  5 36  1  0
  5 37  1  0
  8 38  1  0
  8 39  1  0
 12 40  1  0
 14 41  1  0
 14 42  1  0
 19 43  1  0
 20 44  1  0
 21 45  1  0
 22 46  1  0
 25 47  1  0
 25 48  1  0
M  END
$$$$
