
     RDKit          3D

 71 75  0  0  0  0  0  0  0  0999 V2000
   -0.6757    3.6850    4.7918 C   0  0  0  0  0  0  0  0  0  0  0  0
    0.0236    2.3748    5.1242 C   0  0  0  0  0  0  0  0  0  0  0  0
    0.2182    1.5600    3.9104 N   0  0  0  0  0  0  0  0  0  0  0  0
    1.4161    1.6131    3.2099 C   0  0  0  0  0  0  0  0  0  0  0  0
    1.7263    0.9430    2.0895 C   0  0  0  0  0  0  0  0  0  0  0  0
    3.0981    1.0994    1.5267 C   0  0  0  0  0  0  0  0  0  0  0  0
    3.9572    1.7671    2.1006 O   0  0  0  0  0  0  0  0  0  0  0  0
    3.3410    0.4232    0.3548 N   0  0  0  0  0  0  0  0  0  0  0  0
    4.6945    0.2365   -0.1237 C   0  0  0  0  0  0  0  0  0  0  0  0
    4.7342   -0.2861   -1.5559 C   0  0  0  0  0  0  0  0  0  0  0  0
    6.1782   -0.6054   -1.9618 C   0  0  0  0  0  0  0  0  0  0  0  0
    6.2576   -1.1496   -3.3287 N   0  0  0  0  0  0  0  0  0  0  0  0
    7.5751   -1.7608   -3.5837 C   0  0  0  0  0  0  0  0  0  0  0  0
    8.4988   -0.6188   -3.9790 C   0  0  0  0  0  0  0  0  0  0  0  0
    7.5745    0.4677   -4.5089 C   0  0  0  0  0  0  0  0  0  0  0  0
    6.1672   -0.0993   -4.3571 C   0  0  0  0  0  0  0  0  0  0  0  0
    0.6734    0.0662    1.5271 C   0  0  0  0  0  0  0  0  0  0  0  0
    0.8601   -0.5821    0.4994 O   0  0  0  0  0  0  0  0  0  0  0  0
   -0.6239   -0.0207    2.2485 C   0  0  0  0  0  0  0  0  0  0  0  0
   -1.6214   -0.8636    1.7326 C   0  0  0  0  0  0  0  0  0  0  0  0
   -2.8346   -0.9757    2.4071 C   0  0  0  0  0  0  0  0  0  0  0  0
   -4.0780   -2.0846    1.7914 S   0  0  0  0  0  6  0  0  0  0  0  0
   -5.0530   -2.2976    2.8408 O   0  0  0  0  0  0  0  0  0  0  0  0
   -3.3912   -3.1994    1.1746 O   0  0  0  0  0  0  0  0  0  0  0  0
   -4.8277   -1.1659    0.5683 N   0  0  0  0  0  0  0  0  0  0  0  0
   -5.6373   -0.0113    1.0448 C   0  0  0  0  0  0  0  0  0  0  0  0
   -5.9717    0.9017   -0.1348 C   0  0  0  0  0  0  0  0  0  0  0  0
   -6.6027    0.1484   -1.2758 C   0  0  0  0  0  0  0  0  0  0  0  0
   -7.3482    0.8371   -2.2427 C   0  0  0  0  0  0  0  0  0  0  0  0
   -7.8980    0.1555   -3.3265 C   0  0  0  0  0  0  0  0  0  0  0  0
   -7.6962   -1.2159   -3.4615 C   0  0  0  0  0  0  0  0  0  0  0  0
   -6.9531   -1.9104   -2.5054 C   0  0  0  0  0  0  0  0  0  0  0  0
   -6.3926   -1.2360   -1.4094 C   0  0  0  0  0  0  0  0  0  0  0  0
   -5.6195   -2.0175   -0.3653 C   0  0  0  0  0  0  0  0  0  0  0  0
   -3.0496   -0.2731    3.5917 C   0  0  0  0  0  0  0  0  0  0  0  0
   -2.0543    0.5769    4.0884 C   0  0  0  0  0  0  0  0  0  0  0  0
   -0.8179    0.7260    3.4348 C   0  0  0  0  0  0  0  0  0  0  0  0
   -1.6420    3.5242    4.2985 H   0  0  0  0  0  0  0  0  0  0  0  0
   -0.8510    4.2624    5.7055 H   0  0  0  0  0  0  0  0  0  0  0  0
   -0.0576    4.2958    4.1206 H   0  0  0  0  0  0  0  0  0  0  0  0
    0.9974    2.6079    5.5736 H   0  0  0  0  0  0  0  0  0  0  0  0
   -0.5128    1.8227    5.9033 H   0  0  0  0  0  0  0  0  0  0  0  0
    2.1519    2.2729    3.6677 H   0  0  0  0  0  0  0  0  0  0  0  0
    2.6147   -0.2161    0.0272 H   0  0  0  0  0  0  0  0  0  0  0  0
    5.1829   -0.4681    0.5600 H   0  0  0  0  0  0  0  0  0  0  0  0
    5.2299    1.1901   -0.0511 H   0  0  0  0  0  0  0  0  0  0  0  0
    4.2872    0.4590   -2.2239 H   0  0  0  0  0  0  0  0  0  0  0  0
    4.1176   -1.1897   -1.6370 H   0  0  0  0  0  0  0  0  0  0  0  0
    6.5470   -1.3640   -1.2588 H   0  0  0  0  0  0  0  0  0  0  0  0
    6.8146    0.2789   -1.8338 H   0  0  0  0  0  0  0  0  0  0  0  0
    7.9599   -2.3442   -2.7404 H   0  0  0  0  0  0  0  0  0  0  0  0
    7.4779   -2.4583   -4.4266 H   0  0  0  0  0  0  0  0  0  0  0  0
    9.2280   -0.9315   -4.7326 H   0  0  0  0  0  0  0  0  0  0  0  0
    9.0498   -0.2510   -3.1072 H   0  0  0  0  0  0  0  0  0  0  0  0
    7.7978    0.7146   -5.5511 H   0  0  0  0  0  0  0  0  0  0  0  0
    7.6952    1.3802   -3.9149 H   0  0  0  0  0  0  0  0  0  0  0  0
    5.4229    0.6777   -4.1448 H   0  0  0  0  0  0  0  0  0  0  0  0
    5.8650   -0.5699   -5.3024 H   0  0  0  0  0  0  0  0  0  0  0  0
   -1.4456   -1.4342    0.8213 H   0  0  0  0  0  0  0  0  0  0  0  0
   -5.0795    0.5780    1.7777 H   0  0  0  0  0  0  0  0  0  0  0  0
   -6.5562   -0.3707    1.5248 H   0  0  0  0  0  0  0  0  0  0  0  0
   -6.6456    1.6944    0.2126 H   0  0  0  0  0  0  0  0  0  0  0  0
   -5.0545    1.3755   -0.5059 H   0  0  0  0  0  0  0  0  0  0  0  0
   -7.5029    1.9108   -2.1593 H   0  0  0  0  0  0  0  0  0  0  0  0
   -8.4806    0.6958   -4.0692 H   0  0  0  0  0  0  0  0  0  0  0  0
   -8.1167   -1.7418   -4.3135 H   0  0  0  0  0  0  0  0  0  0  0  0
   -6.8088   -2.9824   -2.6227 H   0  0  0  0  0  0  0  0  0  0  0  0
   -4.9286   -2.6884   -0.8895 H   0  0  0  0  0  0  0  0  0  0  0  0
   -6.3378   -2.6184    0.2071 H   0  0  0  0  0  0  0  0  0  0  0  0
   -3.9853   -0.3764    4.1398 H   0  0  0  0  0  0  0  0  0  0  0  0
   -2.2815    1.1089    5.0078 H   0  0  0  0  0  0  0  0  0  0  0  0
  1  2  1  0
  2  3  1  0
  3  4  1  0
  4  5  2  0
  5  6  1  0
  6  7  2  0
  6  8  1  0
  8  9  1  0
  9 10  1  0
 10 11  1  0
 11 12  1  0
 12 13  1  0
 13 14  1  0
 14 15  1  0
 15 16  1  0
  5 17  1  0
 17 18  2  0
 17 19  1  0
 19 20  2  0
 20 21  1  0
 21 22  1  0
 22 23  2  0
 22 24  2  0
 22 25  1  0
 25 26  1  0
 26 27  1  0
 27 28  1  0
 28 29  2  0
 29 30  1  0
 30 31  2  0
 31 32  1  0
 32 33  2  0
 33 34  1  0
 21 35  2  0
 35 36  1  0
 36 37  2  0
 37  3  1  0
 16 12  1  0
 37 19  1  0
 34 25  1  0
 33 28  1  0
  1 38  1  0
  1 39  1  0
  1 40  1  0
  2 41  1  0
  2 42  1  0
  4 43  1  0
  8 44  1  0
  9 45  1  0
  9 46  1  0
 10 47  1  0
 10 48  1  0
 11 49  1  0
 11 50  1  0
 13 51  1  0
 13 52  1  0
 14 53  1  0
 14 54  1  0
 15 55  1  0
 15 56  1  0
 16 57  1  0
 16 58  1  0
 20 59  1  0
 26 60  1  0
 26 61  1  0
 27 62  1  0
 27 63  1  0
 29 64  1  0
 30 65  1  0
 31 66  1  0
 32 67  1  0
 34 68  1  0
 34 69  1  0
 35 70  1  0
 36 71  1  0
M  END
$$$$
