
     RDKit          3D

 49 51  0  0  0  0  0  0  0  0999 V2000
    6.8094    2.7351   -2.9147 C   0  0  0  0  0  0  0  0  0  0  0  0
    5.4936    2.0215   -2.6564 C   0  0  0  0  0  0  0  0  0  0  0  0
    4.6190    2.8161   -1.2760 S   0  0  0  0  0  0  0  0  0  0  0  0
    3.2015    1.7988   -1.1585 C   0  0  0  0  0  0  0  0  0  0  0  0
    2.9422    0.9186   -2.0640 N   0  0  0  0  0  0  0  0  0  0  0  0
    1.8042    0.1588   -1.9154 C   0  0  0  0  0  0  0  0  0  0  0  0
    1.4144   -0.6125   -2.7858 O   0  0  0  0  0  0  0  0  0  0  0  0
    1.0154    0.2909   -0.6535 C   0  0  0  0  0  0  0  0  0  0  0  0
    1.3461    1.2544    0.2273 C   0  0  0  0  0  0  0  0  0  0  0  0
    2.4340    2.0226   -0.0650 N   0  0  0  0  0  0  0  0  0  0  0  0
    0.6473    1.4366    1.3995 N   0  0  0  0  0  0  0  0  0  0  0  0
   -0.5510    0.9343    1.4973 C   0  0  0  0  0  0  0  0  0  0  0  0
   -1.3039    1.1580    2.7848 C   0  0  0  0  0  0  0  0  0  0  0  0
   -1.2227    0.2128    0.3482 C   0  0  0  0  0  0  0  0  0  0  0  0
   -2.4785   -0.5538    0.6862 C   0  0  0  0  0  0  0  0  0  0  0  0
   -2.5602   -1.7549    0.8842 O   0  0  0  0  0  0  0  0  0  0  0  0
   -3.5326    0.3126    0.7534 O   0  0  0  0  0  0  0  0  0  0  0  0
   -4.8216   -0.2671    1.0362 C   0  0  0  0  0  0  0  0  0  0  0  0
   -5.4478   -0.7621   -0.2620 C   0  0  0  0  0  0  0  0  0  0  0  0
   -5.6739    0.8269    1.6677 C   0  0  0  0  0  0  0  0  0  0  0  0
   -0.1776   -0.6031   -0.4400 C   0  0  0  0  0  0  0  0  0  0  0  0
    0.2665   -1.9443    0.1361 C   0  0  0  0  0  0  0  0  0  0  0  0
    0.2543   -3.0785   -0.6879 C   0  0  0  0  0  0  0  0  0  0  0  0
    0.6824   -4.2939   -0.1746 C   0  0  0  0  0  0  0  0  0  0  0  0
    1.1263   -4.4612    1.0875 N   0  0  0  0  0  0  0  0  0  0  0  0
    1.1438   -3.3614    1.8668 C   0  0  0  0  0  0  0  0  0  0  0  0
    0.7368   -2.1024    1.4452 C   0  0  0  0  0  0  0  0  0  0  0  0
    7.4533    2.7327   -2.0281 H   0  0  0  0  0  0  0  0  0  0  0  0
    6.6465    3.7738   -3.2239 H   0  0  0  0  0  0  0  0  0  0  0  0
    7.3524    2.2342   -3.7235 H   0  0  0  0  0  0  0  0  0  0  0  0
    4.8741    2.0611   -3.5581 H   0  0  0  0  0  0  0  0  0  0  0  0
    5.6882    0.9738   -2.4048 H   0  0  0  0  0  0  0  0  0  0  0  0
    2.7275    2.6824    0.6416 H   0  0  0  0  0  0  0  0  0  0  0  0
   -1.6326    0.1997    3.1945 H   0  0  0  0  0  0  0  0  0  0  0  0
   -2.1711    1.7952    2.5948 H   0  0  0  0  0  0  0  0  0  0  0  0
   -0.6622    1.6499    3.5215 H   0  0  0  0  0  0  0  0  0  0  0  0
   -1.5530    1.0191   -0.3293 H   0  0  0  0  0  0  0  0  0  0  0  0
   -4.7251   -1.0910    1.7560 H   0  0  0  0  0  0  0  0  0  0  0  0
   -4.8377   -1.5476   -0.7156 H   0  0  0  0  0  0  0  0  0  0  0  0
   -6.4519   -1.1620   -0.0910 H   0  0  0  0  0  0  0  0  0  0  0  0
   -5.5117    0.0483   -0.9983 H   0  0  0  0  0  0  0  0  0  0  0  0
   -5.2100    1.1809    2.5957 H   0  0  0  0  0  0  0  0  0  0  0  0
   -6.6802    0.4639    1.8975 H   0  0  0  0  0  0  0  0  0  0  0  0
   -5.7549    1.6970    1.0078 H   0  0  0  0  0  0  0  0  0  0  0  0
   -0.6528   -0.8038   -1.4112 H   0  0  0  0  0  0  0  0  0  0  0  0
   -0.0738   -3.0248   -1.7220 H   0  0  0  0  0  0  0  0  0  0  0  0
    0.6824   -5.1896   -0.7890 H   0  0  0  0  0  0  0  0  0  0  0  0
    1.5128   -3.5188    2.8763 H   0  0  0  0  0  0  0  0  0  0  0  0
    0.8122   -1.2775    2.1428 H   0  0  0  0  0  0  0  0  0  0  0  0
  1  2  1  0
  2  3  1  0
  3  4  1  0
  4  5  2  0
  5  6  1  0
  6  7  2  0
  6  8  1  0
  8  9  2  0
  9 10  1  0
  9 11  1  0
 11 12  2  0
 12 13  1  0
 12 14  1  0
 14 15  1  0
 15 16  2  0
 15 17  1  0
 17 18  1  0
 18 19  1  0
 18 20  1  0
 14 21  1  0
 21 22  1  0
 22 23  2  0
 23 24  1  0
 24 25  2  0
 25 26  1  0
 26 27  2  0
 10  4  1  0
 27 22  1  0
 21  8  1  0
  1 28  1  0
  1 29  1  0
  1 30  1  0
  2 31  1  0
  2 32  1  0
 10 33  1  0
 13 34  1  0
 13 35  1  0
 13 36  1  0
 14 37  1  0
 18 38  1  0
 19 39  1  0
 19 40  1  0
 19 41  1  0
 20 42  1  0
 20 43  1  0
 20 44  1  0
 21 45  1  0
 23 46  1  0
 24 47  1  0
 26 48  1  0
 27 49  1  0
M  END
$$$$
