
     RDKit          3D

 37 37  0  0  0  0  0  0  0  0999 V2000
    3.5743    1.2460    2.4777 C   0  0  0  0  0  0  0  0  0  0  0  0
    3.8529    0.0952    1.5233 C   0  0  0  0  0  0  0  0  0  0  0  0
    4.2680    0.5515    0.1253 C   0  0  0  0  0  0  0  0  0  0  0  0
    3.2327    1.3615   -0.6636 C   0  0  0  0  0  0  0  0  0  0  0  0
    1.9714    0.5821   -1.0533 C   0  0  0  0  0  0  0  0  0  0  0  0
    0.8020    0.7962   -0.0891 C   0  0  0  0  0  0  0  0  0  0  0  0
   -0.4436    0.0378   -0.5526 C   0  0  0  0  0  0  0  0  0  0  0  0
   -1.6146    0.2526    0.4088 C   0  0  0  0  0  0  0  0  0  0  0  0
   -2.8015   -0.4855   -0.0530 N   0  0  0  0  0  0  0  0  0  0  0  0
   -3.0210   -1.8025    0.3323 C   0  0  0  0  0  0  0  0  0  0  0  0
   -4.0592   -2.5456   -0.0707 C   0  0  0  0  0  0  0  0  0  0  0  0
   -5.0435   -1.9317   -0.9951 C   0  0  0  0  0  0  0  0  0  0  0  0
   -6.0622   -2.6183   -1.4008 N   0  0  0  0  0  0  0  0  0  0  0  0
   -4.7952   -0.5271   -1.4159 C   0  0  0  0  0  0  0  0  0  0  0  0
   -3.7112    0.0921   -0.9300 C   0  0  0  0  0  0  0  0  0  0  0  0
    3.3573    0.8592    3.4786 H   0  0  0  0  0  0  0  0  0  0  0  0
    2.7137    1.8395    2.1575 H   0  0  0  0  0  0  0  0  0  0  0  0
    4.4412    1.9102    2.5533 H   0  0  0  0  0  0  0  0  0  0  0  0
    4.6680   -0.5077    1.9424 H   0  0  0  0  0  0  0  0  0  0  0  0
    2.9832   -0.5669    1.4688 H   0  0  0  0  0  0  0  0  0  0  0  0
    4.5453   -0.3338   -0.4608 H   0  0  0  0  0  0  0  0  0  0  0  0
    5.1807    1.1550    0.2116 H   0  0  0  0  0  0  0  0  0  0  0  0
    2.9766    2.2874   -0.1372 H   0  0  0  0  0  0  0  0  0  0  0  0
    3.7251    1.6737   -1.5942 H   0  0  0  0  0  0  0  0  0  0  0  0
    2.1947   -0.4867   -1.1526 H   0  0  0  0  0  0  0  0  0  0  0  0
    1.6548    0.9269   -2.0463 H   0  0  0  0  0  0  0  0  0  0  0  0
    1.0689    0.4630    0.9176 H   0  0  0  0  0  0  0  0  0  0  0  0
    0.5734    1.8670   -0.0238 H   0  0  0  0  0  0  0  0  0  0  0  0
   -0.7250    0.3706   -1.5595 H   0  0  0  0  0  0  0  0  0  0  0  0
   -0.2160   -1.0329   -0.6265 H   0  0  0  0  0  0  0  0  0  0  0  0
   -1.8458    1.3226    0.4880 H   0  0  0  0  0  0  0  0  0  0  0  0
   -1.3382   -0.0761    1.4189 H   0  0  0  0  0  0  0  0  0  0  0  0
   -2.2748   -2.2142    1.0056 H   0  0  0  0  0  0  0  0  0  0  0  0
   -4.2177   -3.5688    0.2392 H   0  0  0  0  0  0  0  0  0  0  0  0
   -6.6455   -2.0605   -2.0303 H   0  0  0  0  0  0  0  0  0  0  0  0
   -5.4840   -0.0480   -2.0958 H   0  0  0  0  0  0  0  0  0  0  0  0
   -3.4850    1.1165   -1.2116 H   0  0  0  0  0  0  0  0  0  0  0  0
  1  2  1  0
  2  3  1  0
  3  4  1  0
  4  5  1  0
  5  6  1  0
  6  7  1  0
  7  8  1  0
  8  9  1  0
  9 10  1  0
 10 11  2  0
 11 12  1  0
 12 13  2  3
 12 14  1  0
 14 15  2  0
 15  9  1  0
  1 16  1  0
  1 17  1  0
  1 18  1  0
  2 19  1  0
  2 20  1  0
  3 21  1  0
  3 22  1  0
  4 23  1  0
  4 24  1  0
  5 25  1  0
  5 26  1  0
  6 27  1  0
  6 28  1  0
  7 29  1  0
  7 30  1  0
  8 31  1  0
  8 32  1  0
 10 33  1  0
 11 34  1  0
 13 35  1  0
 14 36  1  0
 15 37  1  0
M  END
$$$$
