
     RDKit          3D

 39 41  0  0  0  0  0  0  0  0999 V2000
   -0.4298    4.6611   -0.5559 C   0  0  0  0  0  0  0  0  0  0  0  0
    0.0380    4.0568   -1.8690 C   0  0  0  0  0  0  0  0  0  0  0  0
   -1.0876    2.7420   -2.4481 S   0  0  0  0  0  0  0  0  0  0  0  0
   -0.5711    1.3511   -1.4478 C   0  0  0  0  0  0  0  0  0  0  0  0
   -1.2425    0.1551   -1.5955 C   0  0  0  0  0  0  0  0  0  0  0  0
   -0.8383   -0.9071   -0.8141 C   0  0  0  0  0  0  0  0  0  0  0  0
   -1.4422   -2.1364   -0.8914 N   0  0  0  0  0  0  0  0  0  0  0  0
   -1.0010   -3.2327   -0.0384 C   0  0  0  0  0  0  0  0  0  0  0  0
   -1.8909   -4.3924   -0.4768 C   0  0  0  0  0  0  0  0  0  0  0  0
   -3.1992   -3.6996   -0.8243 C   0  0  0  0  0  0  0  0  0  0  0  0
   -2.7488   -2.3940   -1.4803 C   0  0  0  0  0  0  0  0  0  0  0  0
    0.1884   -0.7632    0.0409 N   0  0  0  0  0  0  0  0  0  0  0  0
    0.8038    0.4315    0.1064 C   0  0  0  0  0  0  0  0  0  0  0  0
    1.8857    0.5706    1.0884 C   0  0  0  0  0  0  0  0  0  0  0  0
    1.6931    0.0704    2.3956 C   0  0  0  0  0  0  0  0  0  0  0  0
    2.6764    0.1887    3.3814 C   0  0  0  0  0  0  0  0  0  0  0  0
    3.8841    0.8076    3.0826 C   0  0  0  0  0  0  0  0  0  0  0  0
    4.1082    1.2986    1.7978 C   0  0  0  0  0  0  0  0  0  0  0  0
    3.1222    1.1799    0.8065 C   0  0  0  0  0  0  0  0  0  0  0  0
    3.5420    1.7683   -0.7686 Cl  0  0  0  0  0  0  0  0  0  0  0  0
    0.4465    1.5136   -0.5946 N   0  0  0  0  0  0  0  0  0  0  0  0
    0.2435    5.4732   -0.2619 H   0  0  0  0  0  0  0  0  0  0  0  0
   -1.4357    5.0848   -0.6478 H   0  0  0  0  0  0  0  0  0  0  0  0
   -0.4365    3.9299    0.2579 H   0  0  0  0  0  0  0  0  0  0  0  0
    0.0370    4.8391   -2.6356 H   0  0  0  0  0  0  0  0  0  0  0  0
    1.0662    3.6905   -1.7963 H   0  0  0  0  0  0  0  0  0  0  0  0
   -2.0494    0.0610   -2.3086 H   0  0  0  0  0  0  0  0  0  0  0  0
   -1.1788   -2.9952    1.0174 H   0  0  0  0  0  0  0  0  0  0  0  0
    0.0567   -3.4781   -0.1821 H   0  0  0  0  0  0  0  0  0  0  0  0
   -2.0043   -5.1518    0.3016 H   0  0  0  0  0  0  0  0  0  0  0  0
   -1.4735   -4.8724   -1.3703 H   0  0  0  0  0  0  0  0  0  0  0  0
   -3.8379   -4.2983   -1.4796 H   0  0  0  0  0  0  0  0  0  0  0  0
   -3.7596   -3.4825    0.0933 H   0  0  0  0  0  0  0  0  0  0  0  0
   -3.4759   -1.6009   -1.2745 H   0  0  0  0  0  0  0  0  0  0  0  0
   -2.6503   -2.5192   -2.5642 H   0  0  0  0  0  0  0  0  0  0  0  0
    0.7518   -0.4172    2.6498 H   0  0  0  0  0  0  0  0  0  0  0  0
    2.4947   -0.2035    4.3791 H   0  0  0  0  0  0  0  0  0  0  0  0
    4.6538    0.9018    3.8443 H   0  0  0  0  0  0  0  0  0  0  0  0
    5.0614    1.7688    1.5671 H   0  0  0  0  0  0  0  0  0  0  0  0
  1  2  1  0
  2  3  1  0
  3  4  1  0
  4  5  2  0
  5  6  1  0
  6  7  1  0
  7  8  1  0
  8  9  1  0
  9 10  1  0
 10 11  1  0
  6 12  2  0
 12 13  1  0
 13 14  1  0
 14 15  2  0
 15 16  1  0
 16 17  2  0
 17 18  1  0
 18 19  2  0
 19 20  1  0
 13 21  2  0
 21  4  1  0
 11  7  1  0
 19 14  1  0
  1 22  1  0
  1 23  1  0
  1 24  1  0
  2 25  1  0
  2 26  1  0
  5 27  1  0
  8 28  1  0
  8 29  1  0
  9 30  1  0
  9 31  1  0
 10 32  1  0
 10 33  1  0
 11 34  1  0
 11 35  1  0
 15 36  1  0
 16 37  1  0
 17 38  1  0
 18 39  1  0
M  END
$$$$
