
     RDKit          3D

 55 57  0  0  0  0  0  0  0  0999 V2000
   -1.2390   -4.4432   -0.0386 C   0  0  0  0  0  0  0  0  0  0  0  0
   -0.7077   -3.1122   -0.5327 C   0  0  0  0  0  0  0  0  0  0  0  0
   -1.1098   -2.1015    0.3875 O   0  0  0  0  0  0  0  0  0  0  0  0
   -0.6537   -0.7968    0.0019 C   0  0  0  0  0  0  0  0  0  0  0  0
    0.7634   -0.7365    0.2112 O   0  0  0  0  0  0  0  0  0  0  0  0
    1.3257    0.5217    0.2733 C   0  0  0  0  0  0  0  0  0  0  0  0
    2.8334    0.6128    0.2152 C   0  0  0  0  0  0  0  0  0  0  0  0
    3.4096    1.6929    0.1932 O   0  0  0  0  0  0  0  0  0  0  0  0
    3.4050   -0.6435    0.1943 N   0  0  0  0  0  0  0  0  0  0  0  0
    4.7706   -0.9756    0.1332 C   0  0  0  0  0  0  0  0  0  0  0  0
    5.7989   -0.0348    0.0606 C   0  0  0  0  0  0  0  0  0  0  0  0
    7.1339   -0.4481    0.0009 C   0  0  0  0  0  0  0  0  0  0  0  0
    7.4507   -1.8044    0.0131 C   0  0  0  0  0  0  0  0  0  0  0  0
    6.4323   -2.7507    0.0850 C   0  0  0  0  0  0  0  0  0  0  0  0
    5.0987   -2.3377    0.1445 C   0  0  0  0  0  0  0  0  0  0  0  0
    0.6146    1.6529    0.3945 C   0  0  0  0  0  0  0  0  0  0  0  0
   -0.8832    1.6715    0.5187 C   0  0  0  0  0  0  0  0  0  0  0  0
   -1.5196    2.3667   -0.6821 C   0  0  0  0  0  0  0  0  0  0  0  0
   -1.2258    2.0039   -2.0069 C   0  0  0  0  0  0  0  0  0  0  0  0
   -1.8366    2.6546   -3.0820 C   0  0  0  0  0  0  0  0  0  0  0  0
   -2.7451    3.6837   -2.8526 C   0  0  0  0  0  0  0  0  0  0  0  0
   -3.0366    4.0702   -1.5482 C   0  0  0  0  0  0  0  0  0  0  0  0
   -2.4255    3.4212   -0.4731 C   0  0  0  0  0  0  0  0  0  0  0  0
   -1.4112    0.2475    0.8448 C   0  0  0  0  0  0  0  0  0  0  0  0
   -2.9459    0.0802    0.7512 C   0  0  0  0  0  0  0  0  0  0  0  0
   -3.7006    0.8583    1.8371 C   0  0  0  0  0  0  0  0  0  0  0  0
   -5.2141    0.7519    1.6736 C   0  0  0  0  0  0  0  0  0  0  0  0
   -5.6460   -0.5975    1.7694 O   0  0  0  0  0  0  0  0  0  0  0  0
   -0.9566   -5.2525   -0.7177 H   0  0  0  0  0  0  0  0  0  0  0  0
   -0.8490   -4.6671    0.9598 H   0  0  0  0  0  0  0  0  0  0  0  0
   -2.3305   -4.4158    0.0444 H   0  0  0  0  0  0  0  0  0  0  0  0
   -1.1188   -2.8956   -1.5247 H   0  0  0  0  0  0  0  0  0  0  0  0
    0.3849   -3.1516   -0.5967 H   0  0  0  0  0  0  0  0  0  0  0  0
   -0.8657   -0.6580   -1.0640 H   0  0  0  0  0  0  0  0  0  0  0  0
    2.7465   -1.4134    0.2428 H   0  0  0  0  0  0  0  0  0  0  0  0
    5.5961    1.0315    0.0480 H   0  0  0  0  0  0  0  0  0  0  0  0
    7.9247    0.2957   -0.0550 H   0  0  0  0  0  0  0  0  0  0  0  0
    8.4893   -2.1212   -0.0329 H   0  0  0  0  0  0  0  0  0  0  0  0
    6.6746   -3.8101    0.0958 H   0  0  0  0  0  0  0  0  0  0  0  0
    4.3220   -3.0956    0.2017 H   0  0  0  0  0  0  0  0  0  0  0  0
    1.1221    2.6160    0.4303 H   0  0  0  0  0  0  0  0  0  0  0  0
   -1.0954    2.2898    1.4029 H   0  0  0  0  0  0  0  0  0  0  0  0
   -0.5020    1.2244   -2.2280 H   0  0  0  0  0  0  0  0  0  0  0  0
   -1.5951    2.3623   -4.1009 H   0  0  0  0  0  0  0  0  0  0  0  0
   -3.2171    4.1907   -3.6900 H   0  0  0  0  0  0  0  0  0  0  0  0
   -3.7363    4.8819   -1.3662 H   0  0  0  0  0  0  0  0  0  0  0  0
   -2.6629    3.7545    0.5347 H   0  0  0  0  0  0  0  0  0  0  0  0
   -1.1394    0.0403    1.8925 H   0  0  0  0  0  0  0  0  0  0  0  0
   -3.2054   -0.9792    0.8632 H   0  0  0  0  0  0  0  0  0  0  0  0
   -3.3036    0.3710   -0.2430 H   0  0  0  0  0  0  0  0  0  0  0  0
   -3.4143    0.4550    2.8161 H   0  0  0  0  0  0  0  0  0  0  0  0
   -3.4224    1.9149    1.8280 H   0  0  0  0  0  0  0  0  0  0  0  0
   -5.7229    1.3305    2.4511 H   0  0  0  0  0  0  0  0  0  0  0  0
   -5.5285    1.1433    0.7010 H   0  0  0  0  0  0  0  0  0  0  0  0
   -5.3310   -0.9492    2.6195 H   0  0  0  0  0  0  0  0  0  0  0  0
  1  2  1  0
  2  3  1  0
  3  4  1  0
  4  5  1  0
  5  6  1  0
  6  7  1  0
  7  8  2  0
  7  9  1  0
  9 10  1  0
 10 11  2  0
 11 12  1  0
 12 13  2  0
 13 14  1  0
 14 15  2  0
  6 16  2  0
 16 17  1  0
 17 18  1  0
 18 19  2  0
 19 20  1  0
 20 21  2  0
 21 22  1  0
 22 23  2  0
 17 24  1  0
 24 25  1  0
 25 26  1  0
 26 27  1  0
 27 28  1  0
 24  4  1  0
 15 10  1  0
 23 18  1  0
  1 29  1  0
  1 30  1  0
  1 31  1  0
  2 32  1  0
  2 33  1  0
  4 34  1  0
  9 35  1  0
 11 36  1  0
 12 37  1  0
 13 38  1  0
 14 39  1  0
 15 40  1  0
 16 41  1  0
 17 42  1  0
 19 43  1  0
 20 44  1  0
 21 45  1  0
 22 46  1  0
 23 47  1  0
 24 48  1  0
 25 49  1  0
 25 50  1  0
 26 51  1  0
 26 52  1  0
 27 53  1  0
 27 54  1  0
 28 55  1  0
M  END
$$$$
