
     RDKit          3D

 46 49  0  0  0  0  0  0  0  0999 V2000
    3.0779   -2.2310    0.7869 C   0  0  0  0  0  0  0  0  0  0  0  0
    3.8928   -1.3719   -0.0666 N   0  0  0  0  0  0  0  0  0  0  0  0
    5.2790   -1.3229    0.4003 C   0  0  0  0  0  0  0  0  0  0  0  0
    5.8458   -0.1691   -0.3975 C   0  0  0  0  0  0  0  0  0  0  0  0
    4.6859    0.8080   -0.5220 C   0  0  0  0  0  0  0  0  0  0  0  0
    3.4345    0.0303   -0.0851 C   0  0  0  0  0  0  0  0  0  0  0  0
    2.2454    0.2526   -1.0305 C   0  0  0  0  0  0  0  0  0  0  0  0
    1.7312    1.6971   -1.0297 C   0  0  0  0  0  0  0  0  0  0  0  0
    1.0805    2.0576    0.2297 N   0  0  0  0  0  0  0  0  0  0  0  0
   -0.1705    1.5549    0.5819 C   0  0  0  0  0  0  0  0  0  0  0  0
   -0.5723    1.6306    1.9170 C   0  0  0  0  0  0  0  0  0  0  0  0
   -1.8383    1.1927    2.3229 C   0  0  0  0  0  0  0  0  0  0  0  0
   -2.7594    0.6909    1.3964 C   0  0  0  0  0  0  0  0  0  0  0  0
   -4.3263    0.1632    2.0300 S   0  0  0  0  0  0  0  0  0  0  0  0
   -5.2015   -0.3563    0.5797 C   0  0  0  0  0  0  0  0  0  0  0  0
   -6.5112   -0.8315    0.7675 C   0  0  0  0  0  0  0  0  0  0  0  0
   -7.2862   -1.2604   -0.3131 C   0  0  0  0  0  0  0  0  0  0  0  0
   -6.7619   -1.2189   -1.6002 C   0  0  0  0  0  0  0  0  0  0  0  0
   -5.4635   -0.7516   -1.7992 C   0  0  0  0  0  0  0  0  0  0  0  0
   -4.6767   -0.3195   -0.7134 C   0  0  0  0  0  0  0  0  0  0  0  0
   -3.3062    0.1609   -1.0046 C   0  0  0  0  0  0  0  0  0  0  0  0
   -2.9151    0.1549   -2.1697 O   0  0  0  0  0  0  0  0  0  0  0  0
   -2.3925    0.6476    0.0547 C   0  0  0  0  0  0  0  0  0  0  0  0
   -1.1104    1.0875   -0.3398 C   0  0  0  0  0  0  0  0  0  0  0  0
    3.0508   -1.8851    1.8240 H   0  0  0  0  0  0  0  0  0  0  0  0
    2.0436   -2.2876    0.4158 H   0  0  0  0  0  0  0  0  0  0  0  0
    3.4713   -3.2547    0.7774 H   0  0  0  0  0  0  0  0  0  0  0  0
    5.3347   -1.0972    1.4711 H   0  0  0  0  0  0  0  0  0  0  0  0
    5.8198   -2.2536    0.2072 H   0  0  0  0  0  0  0  0  0  0  0  0
    6.7172    0.2823    0.0814 H   0  0  0  0  0  0  0  0  0  0  0  0
    6.1491   -0.5113   -1.3912 H   0  0  0  0  0  0  0  0  0  0  0  0
    4.6247    1.1773   -1.5492 H   0  0  0  0  0  0  0  0  0  0  0  0
    4.8418    1.6724    0.1336 H   0  0  0  0  0  0  0  0  0  0  0  0
    3.1694    0.3457    0.9325 H   0  0  0  0  0  0  0  0  0  0  0  0
    1.4271   -0.4280   -0.7715 H   0  0  0  0  0  0  0  0  0  0  0  0
    2.5456   -0.0052   -2.0544 H   0  0  0  0  0  0  0  0  0  0  0  0
    2.5625    2.3931   -1.1882 H   0  0  0  0  0  0  0  0  0  0  0  0
    1.0580    1.8593   -1.8784 H   0  0  0  0  0  0  0  0  0  0  0  0
    1.7239    2.1144    1.0136 H   0  0  0  0  0  0  0  0  0  0  0  0
    0.1027    2.0335    2.6667 H   0  0  0  0  0  0  0  0  0  0  0  0
   -2.0968    1.2581    3.3780 H   0  0  0  0  0  0  0  0  0  0  0  0
   -6.9435   -0.8726    1.7672 H   0  0  0  0  0  0  0  0  0  0  0  0
   -8.2974   -1.6243   -0.1478 H   0  0  0  0  0  0  0  0  0  0  0  0
   -7.3581   -1.5487   -2.4490 H   0  0  0  0  0  0  0  0  0  0  0  0
   -5.0634   -0.7241   -2.8130 H   0  0  0  0  0  0  0  0  0  0  0  0
   -0.8641    1.0600   -1.3977 H   0  0  0  0  0  0  0  0  0  0  0  0
  1  2  1  0
  2  3  1  0
  3  4  1  0
  4  5  1  0
  5  6  1  0
  6  7  1  0
  7  8  1  0
  8  9  1  0
  9 10  1  0
 10 11  2  0
 11 12  1  0
 12 13  2  0
 13 14  1  0
 14 15  1  0
 15 16  2  0
 16 17  1  0
 17 18  2  0
 18 19  1  0
 19 20  2  0
 20 21  1  0
 21 22  2  0
 21 23  1  0
 23 24  2  0
  6  2  1  0
 24 10  1  0
 23 13  1  0
 20 15  1  0
  1 25  1  0
  1 26  1  0
  1 27  1  0
  3 28  1  0
  3 29  1  0
  4 30  1  0
  4 31  1  0
  5 32  1  0
  5 33  1  0
  6 34  1  0
  7 35  1  0
  7 36  1  0
  8 37  1  0
  8 38  1  0
  9 39  1  0
 11 40  1  0
 12 41  1  0
 16 42  1  0
 17 43  1  0
 18 44  1  0
 19 45  1  0
 24 46  1  0
M  END
$$$$
