
     RDKit          3D

 39 41  0  0  0  0  0  0  0  0999 V2000
   -2.8017   -1.3389    1.3592 C   0  0  0  0  0  0  0  0  0  0  0  0
   -2.8001   -0.4543    0.1636 C   0  0  0  0  0  0  0  0  0  0  0  0
   -3.9952   -0.0979   -0.4178 N   0  0  0  0  0  0  0  0  0  0  0  0
   -3.7961    0.7677   -1.4623 C   0  0  0  0  0  0  0  0  0  0  0  0
   -4.7245    1.3799   -2.3134 C   0  0  0  0  0  0  0  0  0  0  0  0
   -4.2320    2.2343   -3.3033 C   0  0  0  0  0  0  0  0  0  0  0  0
   -2.8658    2.4652   -3.4330 C   0  0  0  0  0  0  0  0  0  0  0  0
   -1.9541    1.8431   -2.5725 C   0  0  0  0  0  0  0  0  0  0  0  0
   -2.4229    0.9751   -1.5618 C   0  0  0  0  0  0  0  0  0  0  0  0
   -1.7829    0.1811   -0.5449 C   0  0  0  0  0  0  0  0  0  0  0  0
   -0.3293    0.1074   -0.3270 C   0  0  0  0  0  0  0  0  0  0  0  0
    0.3964    1.0614   -0.6236 O   0  0  0  0  0  0  0  0  0  0  0  0
    0.2973   -1.1898    0.2212 C   0  0  0  0  0  0  0  0  0  0  0  0
    0.2134   -2.2873   -0.8333 C   0  0  0  0  0  0  0  0  0  0  0  0
    1.6923   -1.0175    0.5215 O   0  0  0  0  0  0  0  0  0  0  0  0
    1.9408   -0.2391    1.6131 C   0  0  0  0  0  0  0  0  0  0  0  0
    1.0769    0.1805    2.3746 O   0  0  0  0  0  0  0  0  0  0  0  0
    3.3593   -0.0020    1.7511 C   0  0  0  0  0  0  0  0  0  0  0  0
    4.0569    0.7766    2.6628 C   0  0  0  0  0  0  0  0  0  0  0  0
    5.4345    0.6592    2.3473 C   0  0  0  0  0  0  0  0  0  0  0  0
    5.4871   -0.1882    1.2671 C   0  0  0  0  0  0  0  0  0  0  0  0
    6.5876   -0.6898    0.5056 N   0  0  0  0  0  4  0  0  0  0  0  0
    6.3437   -1.4748   -0.4191 O   0  0  0  0  0  0  0  0  0  0  0  0
    7.7117   -0.2957    0.8456 O   0  0  0  0  0  1  0  0  0  0  0  0
    4.2485   -0.6021    0.8917 O   0  0  0  0  0  0  0  0  0  0  0  0
   -2.4282   -2.3342    1.1007 H   0  0  0  0  0  0  0  0  0  0  0  0
   -3.8105   -1.4589    1.7688 H   0  0  0  0  0  0  0  0  0  0  0  0
   -2.1772   -0.9164    2.1524 H   0  0  0  0  0  0  0  0  0  0  0  0
   -4.9069   -0.4063   -0.1085 H   0  0  0  0  0  0  0  0  0  0  0  0
   -5.7905    1.2041   -2.2131 H   0  0  0  0  0  0  0  0  0  0  0  0
   -4.9263    2.7273   -3.9798 H   0  0  0  0  0  0  0  0  0  0  0  0
   -2.4995    3.1355   -4.2067 H   0  0  0  0  0  0  0  0  0  0  0  0
   -0.8896    2.0356   -2.6817 H   0  0  0  0  0  0  0  0  0  0  0  0
   -0.2102   -1.5192    1.1299 H   0  0  0  0  0  0  0  0  0  0  0  0
    0.7280   -1.9844   -1.7525 H   0  0  0  0  0  0  0  0  0  0  0  0
    0.7076   -3.1982   -0.4786 H   0  0  0  0  0  0  0  0  0  0  0  0
   -0.8219   -2.5311   -1.0890 H   0  0  0  0  0  0  0  0  0  0  0  0
    3.6081    1.3628    3.4551 H   0  0  0  0  0  0  0  0  0  0  0  0
    6.2750    1.1290    2.8402 H   0  0  0  0  0  0  0  0  0  0  0  0
  1  2  1  0
  2  3  1  0
  3  4  1  0
  4  5  2  0
  5  6  1  0
  6  7  2  0
  7  8  1  0
  8  9  2  0
  9 10  1  0
 10 11  1  0
 11 12  2  0
 11 13  1  0
 13 14  1  0
 13 15  1  0
 15 16  1  0
 16 17  2  0
 16 18  1  0
 18 19  2  0
 19 20  1  0
 20 21  2  0
 21 22  1  0
 22 23  2  0
 22 24  1  0
 21 25  1  0
 10  2  2  0
 25 18  1  0
  9  4  1  0
  1 26  1  0
  1 27  1  0
  1 28  1  0
  3 29  1  0
  5 30  1  0
  6 31  1  0
  7 32  1  0
  8 33  1  0
 13 34  1  0
 14 35  1  0
 14 36  1  0
 14 37  1  0
 19 38  1  0
 20 39  1  0
M  CHG  2  22   1  24  -1
M  END
$$$$
