
     RDKit          3D

 31 34  0  0  0  0  0  0  0  0999 V2000
   -0.5645   -0.8248   -3.5314 N   0  0  0  0  0  0  0  0  0  0  0  0
   -0.3851   -0.5296   -2.4226 C   0  0  0  0  0  0  0  0  0  0  0  0
   -0.1716   -0.1409   -1.0699 C   0  0  0  0  0  0  0  0  0  0  0  0
   -1.1440    0.4069   -0.3150 C   0  0  0  0  0  0  0  0  0  0  0  0
   -0.9508    0.8384    1.1228 C   0  0  0  0  0  0  0  0  0  0  0  0
    0.0603    0.8131    1.7945 O   0  0  0  0  0  0  0  0  0  0  0  0
   -2.1816    1.3172    1.5298 N   0  0  0  0  0  0  0  0  0  0  0  0
   -3.1183    1.2546    0.5075 C   0  0  0  0  0  0  0  0  0  0  0  0
   -4.4348    1.6656    0.5856 C   0  0  0  0  0  0  0  0  0  0  0  0
   -5.2190    1.5239   -0.5581 C   0  0  0  0  0  0  0  0  0  0  0  0
   -4.6731    0.9829   -1.7336 C   0  0  0  0  0  0  0  0  0  0  0  0
   -3.3334    0.5732   -1.7876 C   0  0  0  0  0  0  0  0  0  0  0  0
   -2.5511    0.7128   -0.6526 C   0  0  0  0  0  0  0  0  0  0  0  0
    1.1222   -0.4101   -0.5352 C   0  0  0  0  0  0  0  0  0  0  0  0
    1.4874   -1.5236    0.0681 N   0  0  0  0  0  0  0  0  0  0  0  0
    2.8155   -1.4532    0.4547 C   0  0  0  0  0  0  0  0  0  0  0  0
    3.5272   -2.4529    1.1485 C   0  0  0  0  0  0  0  0  0  0  0  0
    4.8733   -2.2526    1.4713 C   0  0  0  0  0  0  0  0  0  0  0  0
    5.5157   -1.0726    1.1103 C   0  0  0  0  0  0  0  0  0  0  0  0
    4.8321   -0.0666    0.4202 C   0  0  0  0  0  0  0  0  0  0  0  0
    3.4800   -0.2787    0.1023 C   0  0  0  0  0  0  0  0  0  0  0  0
    2.3879    0.7538   -0.7340 S   0  0  0  0  0  0  0  0  0  0  0  0
   -2.3421    1.6799    2.4576 H   0  0  0  0  0  0  0  0  0  0  0  0
   -4.8502    2.0825    1.4960 H   0  0  0  0  0  0  0  0  0  0  0  0
   -6.2619    1.8334   -0.5427 H   0  0  0  0  0  0  0  0  0  0  0  0
   -5.3010    0.8788   -2.6171 H   0  0  0  0  0  0  0  0  0  0  0  0
   -2.9551    0.1595   -2.7158 H   0  0  0  0  0  0  0  0  0  0  0  0
    3.0213   -3.3713    1.4291 H   0  0  0  0  0  0  0  0  0  0  0  0
    5.4175   -3.0255    2.0089 H   0  0  0  0  0  0  0  0  0  0  0  0
    6.5628   -0.9283    1.3685 H   0  0  0  0  0  0  0  0  0  0  0  0
    5.3342    0.8543    0.1400 H   0  0  0  0  0  0  0  0  0  0  0  0
  1  2  3  0
  2  3  1  0
  3  4  2  3
  4  5  1  0
  5  6  2  0
  5  7  1  0
  7  8  1  0
  8  9  2  0
  9 10  1  0
 10 11  2  0
 11 12  1  0
 12 13  2  0
  3 14  1  0
 14 15  2  0
 15 16  1  0
 16 17  2  0
 17 18  1  0
 18 19  2  0
 19 20  1  0
 20 21  2  0
 21 22  1  0
 13  4  1  0
 22 14  1  0
 13  8  1  0
 21 16  1  0
  7 23  1  0
  9 24  1  0
 10 25  1  0
 11 26  1  0
 12 27  1  0
 17 28  1  0
 18 29  1  0
 19 30  1  0
 20 31  1  0
M  END
$$$$
