
     RDKit          3D

 45 46  0  0  0  0  0  0  0  0999 V2000
   -3.2479    1.8592    3.6211 C   0  0  0  0  0  0  0  0  0  0  0  0
   -2.6357    1.9708    2.3345 O   0  0  0  0  0  0  0  0  0  0  0  0
   -2.1450    0.7926    1.8493 C   0  0  0  0  0  0  0  0  0  0  0  0
   -2.2334   -0.2894    2.4197 O   0  0  0  0  0  0  0  0  0  0  0  0
   -1.4909    1.0107    0.4779 C   0  0  0  0  0  0  0  0  0  0  0  0
   -2.5408    1.3198   -0.6032 C   0  0  0  0  0  0  0  0  0  0  0  0
   -3.4551    0.1665   -0.9570 C   0  0  0  0  0  0  0  0  0  0  0  0
   -3.1502   -0.6713   -2.0407 C   0  0  0  0  0  0  0  0  0  0  0  0
   -3.9776   -1.7497   -2.3567 C   0  0  0  0  0  0  0  0  0  0  0  0
   -5.1146   -2.0023   -1.5932 C   0  0  0  0  0  0  0  0  0  0  0  0
   -5.4298   -1.1749   -0.5166 C   0  0  0  0  0  0  0  0  0  0  0  0
   -4.6076   -0.0926   -0.2017 C   0  0  0  0  0  0  0  0  0  0  0  0
   -0.6622   -0.1551    0.1410 N   0  0  0  0  0  0  0  0  0  0  0  0
    0.6272   -0.2442    0.6243 C   0  0  0  0  0  0  0  0  0  0  0  0
    1.2045    0.6966    1.1596 O   0  0  0  0  0  0  0  0  0  0  0  0
    1.2580   -1.6035    0.3966 C   0  0  0  0  0  0  0  0  0  0  0  0
    2.6297   -1.7121    1.0512 C   0  0  0  0  0  0  0  0  0  0  0  0
    3.6099   -0.8686    0.4019 N   0  0  0  0  0  0  0  0  0  0  0  0
    4.6406   -1.3400   -0.3846 C   0  0  0  0  0  0  0  0  0  0  0  0
    4.8311   -2.5391   -0.5808 O   0  0  0  0  0  0  0  0  0  0  0  0
    5.4715   -0.2973   -0.9532 C   0  0  0  0  0  0  0  0  0  0  0  0
    6.5668   -0.3657   -1.8012 C   0  0  0  0  0  0  0  0  0  0  0  0
    6.9839    0.9684   -2.0300 C   0  0  0  0  0  0  0  0  0  0  0  0
    6.1339    1.7687   -1.3026 C   0  0  0  0  0  0  0  0  0  0  0  0
    5.2074    1.0182   -0.6508 O   0  0  0  0  0  0  0  0  0  0  0  0
   -2.5488    1.4342    4.3506 H   0  0  0  0  0  0  0  0  0  0  0  0
   -4.1571    1.2516    3.5552 H   0  0  0  0  0  0  0  0  0  0  0  0
   -3.5228    2.8652    3.9513 H   0  0  0  0  0  0  0  0  0  0  0  0
   -0.8255    1.8786    0.5796 H   0  0  0  0  0  0  0  0  0  0  0  0
   -3.1594    2.1749   -0.2990 H   0  0  0  0  0  0  0  0  0  0  0  0
   -2.0229    1.6428   -1.5163 H   0  0  0  0  0  0  0  0  0  0  0  0
   -2.2659   -0.4881   -2.6480 H   0  0  0  0  0  0  0  0  0  0  0  0
   -3.7342   -2.3924   -3.1998 H   0  0  0  0  0  0  0  0  0  0  0  0
   -5.7572   -2.8424   -1.8379 H   0  0  0  0  0  0  0  0  0  0  0  0
   -6.3183   -1.3713    0.0774 H   0  0  0  0  0  0  0  0  0  0  0  0
   -4.8759    0.5421    0.6403 H   0  0  0  0  0  0  0  0  0  0  0  0
   -1.1673   -1.0310    0.0456 H   0  0  0  0  0  0  0  0  0  0  0  0
    0.5953   -2.3634    0.8268 H   0  0  0  0  0  0  0  0  0  0  0  0
    1.3322   -1.7766   -0.6833 H   0  0  0  0  0  0  0  0  0  0  0  0
    2.9666   -2.7545    1.0200 H   0  0  0  0  0  0  0  0  0  0  0  0
    2.5902   -1.4051    2.1024 H   0  0  0  0  0  0  0  0  0  0  0  0
    3.5254    0.1399    0.5168 H   0  0  0  0  0  0  0  0  0  0  0  0
    6.9992   -1.2771   -2.1984 H   0  0  0  0  0  0  0  0  0  0  0  0
    7.8127    1.3019   -2.6408 H   0  0  0  0  0  0  0  0  0  0  0  0
    6.0598    2.8356   -1.1472 H   0  0  0  0  0  0  0  0  0  0  0  0
  1  2  1  0
  2  3  1  0
  3  4  2  0
  3  5  1  0
  5  6  1  0
  6  7  1  0
  7  8  2  0
  8  9  1  0
  9 10  2  0
 10 11  1  0
 11 12  2  0
  5 13  1  0
 13 14  1  0
 14 15  2  0
 14 16  1  0
 16 17  1  0
 17 18  1  0
 18 19  1  0
 19 20  2  0
 19 21  1  0
 21 22  2  0
 22 23  1  0
 23 24  2  0
 24 25  1  0
 12  7  1  0
 25 21  1  0
  1 26  1  0
  1 27  1  0
  1 28  1  0
  5 29  1  0
  6 30  1  0
  6 31  1  0
  8 32  1  0
  9 33  1  0
 10 34  1  0
 11 35  1  0
 12 36  1  0
 13 37  1  0
 16 38  1  0
 16 39  1  0
 17 40  1  0
 17 41  1  0
 18 42  1  0
 22 43  1  0
 23 44  1  0
 24 45  1  0
M  END
$$$$
