
     RDKit          3D

 45 48  0  0  0  0  0  0  0  0999 V2000
   -5.1267    2.3929    0.0254 C   0  0  0  0  0  0  0  0  0  0  0  0
   -4.1334    1.4312   -0.3321 O   0  0  0  0  0  0  0  0  0  0  0  0
   -4.5608    0.1452   -0.5840 C   0  0  0  0  0  0  0  0  0  0  0  0
   -5.8856   -0.1286   -0.9618 C   0  0  0  0  0  0  0  0  0  0  0  0
   -6.2837   -1.4233   -1.2798 C   0  0  0  0  0  0  0  0  0  0  0  0
   -5.3606   -2.4541   -1.2343 C   0  0  0  0  0  0  0  0  0  0  0  0
   -4.0393   -2.1879   -0.8684 C   0  0  0  0  0  0  0  0  0  0  0  0
   -3.5919   -0.8961   -0.5235 C   0  0  0  0  0  0  0  0  0  0  0  0
   -2.2651   -0.6973   -0.1433 N   0  0  0  0  0  0  0  0  0  0  0  0
   -1.9186    0.3332    0.8464 C   0  0  0  0  0  0  0  0  0  0  0  0
   -0.6957   -0.0730    1.6882 C   0  0  0  0  0  0  0  0  0  0  0  0
    0.4820   -0.3489    0.8592 N   0  0  0  0  0  0  0  0  0  0  0  0
    1.7118    0.1958    1.2598 C   0  0  0  0  0  0  0  0  0  0  0  0
    1.8079    0.7910    2.3375 O   0  0  0  0  0  0  0  0  0  0  0  0
    2.9061    0.1044    0.4066 C   0  0  0  0  0  0  0  0  0  0  0  0
    4.0996    0.8511    0.6111 C   0  0  0  0  0  0  0  0  0  0  0  0
    4.9900    0.4286   -0.3554 C   0  0  0  0  0  0  0  0  0  0  0  0
    6.3477    0.8165   -0.6052 C   0  0  0  0  0  0  0  0  0  0  0  0
    7.2232    0.2208   -1.4957 C   0  0  0  0  0  0  0  0  0  0  0  0
    8.5047    0.8408   -1.5044 C   0  0  0  0  0  0  0  0  0  0  0  0
    8.5645    1.8957   -0.6264 C   0  0  0  0  0  0  0  0  0  0  0  0
    7.0922    2.1203    0.2109 S   0  0  0  0  0  0  0  0  0  0  0  0
    4.3521   -0.5178   -1.1064 O   0  0  0  0  0  0  0  0  0  0  0  0
    3.0572   -0.7013   -0.6521 N   0  0  0  0  0  0  0  0  0  0  0  0
    0.2044   -1.0090   -0.4259 C   0  0  0  0  0  0  0  0  0  0  0  0
   -1.1998   -1.6443   -0.5177 C   0  0  0  0  0  0  0  0  0  0  0  0
   -5.7618    2.0368    0.8500 H   0  0  0  0  0  0  0  0  0  0  0  0
   -4.6160    3.2923    0.3851 H   0  0  0  0  0  0  0  0  0  0  0  0
   -5.7342    2.6765   -0.8512 H   0  0  0  0  0  0  0  0  0  0  0  0
   -6.6341    0.6559   -1.0377 H   0  0  0  0  0  0  0  0  0  0  0  0
   -7.3105   -1.6281   -1.5718 H   0  0  0  0  0  0  0  0  0  0  0  0
   -5.6573   -3.4697   -1.4816 H   0  0  0  0  0  0  0  0  0  0  0  0
   -3.3613   -3.0350   -0.8303 H   0  0  0  0  0  0  0  0  0  0  0  0
   -2.7455    0.5075    1.5414 H   0  0  0  0  0  0  0  0  0  0  0  0
   -1.6973    1.2692    0.3178 H   0  0  0  0  0  0  0  0  0  0  0  0
   -0.4847    0.7241    2.4195 H   0  0  0  0  0  0  0  0  0  0  0  0
   -0.9131   -0.9953    2.2548 H   0  0  0  0  0  0  0  0  0  0  0  0
    4.2660    1.5784    1.3873 H   0  0  0  0  0  0  0  0  0  0  0  0
    6.9628   -0.6283   -2.1116 H   0  0  0  0  0  0  0  0  0  0  0  0
    9.3337    0.5300   -2.1253 H   0  0  0  0  0  0  0  0  0  0  0  0
    9.3956    2.5462   -0.4286 H   0  0  0  0  0  0  0  0  0  0  0  0
    0.9455   -1.7984   -0.6016 H   0  0  0  0  0  0  0  0  0  0  0  0
    0.3107   -0.2386   -1.2088 H   0  0  0  0  0  0  0  0  0  0  0  0
   -1.2397   -2.5225    0.1429 H   0  0  0  0  0  0  0  0  0  0  0  0
   -1.3413   -1.9864   -1.5524 H   0  0  0  0  0  0  0  0  0  0  0  0
  1  2  1  0
  2  3  1  0
  3  4  2  0
  4  5  1  0
  5  6  2  0
  6  7  1  0
  7  8  2  0
  8  9  1  0
  9 10  1  0
 10 11  1  0
 11 12  1  0
 12 13  1  0
 13 14  2  0
 13 15  1  0
 15 16  1  0
 16 17  2  0
 17 18  1  0
 18 19  2  0
 19 20  1  0
 20 21  2  0
 21 22  1  0
 17 23  1  0
 23 24  1  0
 12 25  1  0
 25 26  1  0
  8  3  1  0
 26  9  1  0
 24 15  2  0
 22 18  1  0
  1 27  1  0
  1 28  1  0
  1 29  1  0
  4 30  1  0
  5 31  1  0
  6 32  1  0
  7 33  1  0
 10 34  1  0
 10 35  1  0
 11 36  1  0
 11 37  1  0
 16 38  1  0
 19 39  1  0
 20 40  1  0
 21 41  1  0
 25 42  1  0
 25 43  1  0
 26 44  1  0
 26 45  1  0
M  END
$$$$
