
     RDKit          3D

 39 42  0  0  0  0  0  0  0  0999 V2000
    5.6975   -3.0472   -1.1134 C   0  0  0  0  0  0  0  0  0  0  0  0
    5.0561   -1.8677   -0.6267 O   0  0  0  0  0  0  0  0  0  0  0  0
    3.9094   -1.5550   -1.2809 C   0  0  0  0  0  0  0  0  0  0  0  0
    3.4256   -2.1804   -2.2115 O   0  0  0  0  0  0  0  0  0  0  0  0
    3.2977   -0.3227   -0.7125 C   0  0  0  0  0  0  0  0  0  0  0  0
    3.8904    0.4008    0.3296 C   0  0  0  0  0  0  0  0  0  0  0  0
    3.2732    1.5531    0.8263 C   0  0  0  0  0  0  0  0  0  0  0  0
    2.0561    2.0001    0.2909 C   0  0  0  0  0  0  0  0  0  0  0  0
    1.3820    3.2361    0.8376 C   0  0  0  0  0  0  0  0  0  0  0  0
    0.6348    2.9844    2.4728 S   0  0  0  0  0  0  0  0  0  0  0  0
   -0.6657    1.8607    2.0176 C   0  0  0  0  0  0  0  0  0  0  0  0
   -0.7622    0.7186    2.7515 N   0  0  0  0  0  0  0  0  0  0  0  0
   -1.7083   -0.1869    2.4928 N   0  0  0  0  0  0  0  0  0  0  0  0
   -2.5571    0.1072    1.4785 C   0  0  0  0  0  0  0  0  0  0  0  0
   -2.4113    1.2919    0.7796 C   0  0  0  0  0  0  0  0  0  0  0  0
   -1.4746    2.2307    0.9968 N   0  0  0  0  0  0  0  0  0  0  0  0
   -3.3907    1.3381   -0.1706 N   0  0  0  0  0  0  0  0  0  0  0  0
   -4.1676    0.1995   -0.1095 C   0  0  0  0  0  0  0  0  0  0  0  0
   -5.2698   -0.1846   -0.8819 C   0  0  0  0  0  0  0  0  0  0  0  0
   -5.8684   -1.4138   -0.5876 C   0  0  0  0  0  0  0  0  0  0  0  0
   -5.3849   -2.2249    0.4374 C   0  0  0  0  0  0  0  0  0  0  0  0
   -4.2826   -1.8281    1.2023 C   0  0  0  0  0  0  0  0  0  0  0  0
   -3.6601   -0.5945    0.9264 C   0  0  0  0  0  0  0  0  0  0  0  0
    1.4673    1.2719   -0.7524 C   0  0  0  0  0  0  0  0  0  0  0  0
    2.0828    0.1204   -1.2501 C   0  0  0  0  0  0  0  0  0  0  0  0
    6.6014   -3.2105   -0.5200 H   0  0  0  0  0  0  0  0  0  0  0  0
    5.0435   -3.9167   -0.9945 H   0  0  0  0  0  0  0  0  0  0  0  0
    5.9891   -2.9206   -2.1608 H   0  0  0  0  0  0  0  0  0  0  0  0
    4.8310    0.0788    0.7696 H   0  0  0  0  0  0  0  0  0  0  0  0
    3.7465    2.0965    1.6426 H   0  0  0  0  0  0  0  0  0  0  0  0
    0.6345    3.6200    0.1340 H   0  0  0  0  0  0  0  0  0  0  0  0
    2.1337    4.0288    0.9312 H   0  0  0  0  0  0  0  0  0  0  0  0
   -3.5191    2.1013   -0.8178 H   0  0  0  0  0  0  0  0  0  0  0  0
   -5.6532    0.4411   -1.6819 H   0  0  0  0  0  0  0  0  0  0  0  0
   -6.7271   -1.7427   -1.1696 H   0  0  0  0  0  0  0  0  0  0  0  0
   -5.8676   -3.1768    0.6469 H   0  0  0  0  0  0  0  0  0  0  0  0
   -3.9091   -2.4644    2.0005 H   0  0  0  0  0  0  0  0  0  0  0  0
    0.5198    1.5909   -1.1826 H   0  0  0  0  0  0  0  0  0  0  0  0
    1.6071   -0.4332   -2.0578 H   0  0  0  0  0  0  0  0  0  0  0  0
  1  2  1  0
  2  3  1  0
  3  4  2  0
  3  5  1  0
  5  6  2  0
  6  7  1  0
  7  8  2  0
  8  9  1  0
  9 10  1  0
 10 11  1  0
 11 12  2  0
 12 13  1  0
 13 14  2  0
 14 15  1  0
 15 16  2  0
 15 17  1  0
 17 18  1  0
 18 19  2  0
 19 20  1  0
 20 21  2  0
 21 22  1  0
 22 23  2  0
  8 24  1  0
 24 25  2  0
 25  5  1  0
 16 11  1  0
 23 18  1  0
 23 14  1  0
  1 26  1  0
  1 27  1  0
  1 28  1  0
  6 29  1  0
  7 30  1  0
  9 31  1  0
  9 32  1  0
 17 33  1  0
 19 34  1  0
 20 35  1  0
 21 36  1  0
 22 37  1  0
 24 38  1  0
 25 39  1  0
M  END
$$$$
