
     RDKit          3D

 45 47  0  0  0  0  0  0  0  0999 V2000
    8.3432    0.4050    0.9947 C   0  0  0  0  0  0  0  0  0  0  0  0
    6.8952   -0.0509    0.9788 C   0  0  0  0  0  0  0  0  0  0  0  0
    6.1111    0.9954    0.4078 O   0  0  0  0  0  0  0  0  0  0  0  0
    4.7673    0.7722    0.2946 C   0  0  0  0  0  0  0  0  0  0  0  0
    4.0860   -0.3735    0.6997 C   0  0  0  0  0  0  0  0  0  0  0  0
    2.6980   -0.4726    0.5244 C   0  0  0  0  0  0  0  0  0  0  0  0
    1.9773    0.5690   -0.0605 C   0  0  0  0  0  0  0  0  0  0  0  0
    0.5836    0.5452   -0.2614 N   0  0  0  0  0  0  0  0  0  0  0  0
   -0.2783   -0.5113   -0.0641 C   0  0  0  0  0  0  0  0  0  0  0  0
    0.0204   -1.6547    0.2519 O   0  0  0  0  0  0  0  0  0  0  0  0
   -1.5816   -0.1210   -0.2912 N   0  0  0  0  0  0  0  0  0  0  0  0
   -2.6839   -1.0596   -0.1121 C   0  0  0  0  0  0  0  0  0  0  0  0
   -2.8035   -2.0078   -1.3164 C   0  0  0  0  0  0  0  0  0  0  0  0
   -3.3767   -1.2795   -2.5285 C   0  0  0  0  0  0  0  0  0  0  0  0
   -4.7877   -0.7769   -2.2358 C   0  0  0  0  0  0  0  0  0  0  0  0
   -4.9254   -0.1065   -0.8906 C   0  0  0  0  0  0  0  0  0  0  0  0
   -6.0771    0.6512   -0.6273 C   0  0  0  0  0  0  0  0  0  0  0  0
   -6.2692    1.2467    0.6191 C   0  0  0  0  0  0  0  0  0  0  0  0
   -5.3178    1.0848    1.6212 C   0  0  0  0  0  0  0  0  0  0  0  0
   -4.1730    0.3278    1.3765 C   0  0  0  0  0  0  0  0  0  0  0  0
   -3.9651   -0.2786    0.1245 C   0  0  0  0  0  0  0  0  0  0  0  0
    2.6642    1.7196   -0.4605 C   0  0  0  0  0  0  0  0  0  0  0  0
    4.0479    1.8176   -0.2847 C   0  0  0  0  0  0  0  0  0  0  0  0
    8.9897   -0.3648    1.4254 H   0  0  0  0  0  0  0  0  0  0  0  0
    8.6880    0.6293   -0.0202 H   0  0  0  0  0  0  0  0  0  0  0  0
    8.4513    1.3251    1.5787 H   0  0  0  0  0  0  0  0  0  0  0  0
    6.8138   -0.9615    0.3740 H   0  0  0  0  0  0  0  0  0  0  0  0
    6.5720   -0.2506    2.0069 H   0  0  0  0  0  0  0  0  0  0  0  0
    4.5968   -1.2136    1.1581 H   0  0  0  0  0  0  0  0  0  0  0  0
    2.2090   -1.3816    0.8616 H   0  0  0  0  0  0  0  0  0  0  0  0
    0.1814    1.3471   -0.7221 H   0  0  0  0  0  0  0  0  0  0  0  0
   -1.7920    0.8481   -0.1067 H   0  0  0  0  0  0  0  0  0  0  0  0
   -2.4736   -1.6686    0.7770 H   0  0  0  0  0  0  0  0  0  0  0  0
   -3.4639   -2.8462   -1.0583 H   0  0  0  0  0  0  0  0  0  0  0  0
   -1.8297   -2.4391   -1.5745 H   0  0  0  0  0  0  0  0  0  0  0  0
   -3.4001   -1.9507   -3.3946 H   0  0  0  0  0  0  0  0  0  0  0  0
   -2.7286   -0.4365   -2.7987 H   0  0  0  0  0  0  0  0  0  0  0  0
   -5.0862   -0.0827   -3.0305 H   0  0  0  0  0  0  0  0  0  0  0  0
   -5.4829   -1.6256   -2.2609 H   0  0  0  0  0  0  0  0  0  0  0  0
   -6.8368    0.7761   -1.3963 H   0  0  0  0  0  0  0  0  0  0  0  0
   -7.1657    1.8309    0.8092 H   0  0  0  0  0  0  0  0  0  0  0  0
   -5.4687    1.5443    2.5945 H   0  0  0  0  0  0  0  0  0  0  0  0
   -3.4375    0.2072    2.1701 H   0  0  0  0  0  0  0  0  0  0  0  0
    2.1394    2.5549   -0.9156 H   0  0  0  0  0  0  0  0  0  0  0  0
    4.5694    2.7169   -0.6030 H   0  0  0  0  0  0  0  0  0  0  0  0
  1  2  1  0
  2  3  1  0
  3  4  1  0
  4  5  2  0
  5  6  1  0
  6  7  2  0
  7  8  1  0
  8  9  1  0
  9 10  2  0
  9 11  1  0
 11 12  1  0
 12 13  1  0
 13 14  1  0
 14 15  1  0
 15 16  1  0
 16 17  2  0
 17 18  1  0
 18 19  2  0
 19 20  1  0
 20 21  2  0
  7 22  1  0
 22 23  2  0
 23  4  1  0
 21 12  1  0
 21 16  1  0
  1 24  1  0
  1 25  1  0
  1 26  1  0
  2 27  1  0
  2 28  1  0
  5 29  1  0
  6 30  1  0
  8 31  1  0
 11 32  1  0
 12 33  1  0
 13 34  1  0
 13 35  1  0
 14 36  1  0
 14 37  1  0
 15 38  1  0
 15 39  1  0
 17 40  1  0
 18 41  1  0
 19 42  1  0
 20 43  1  0
 22 44  1  0
 23 45  1  0
M  END
$$$$
