
     RDKit          3D

 52 55  0  0  0  0  0  0  0  0999 V2000
   -3.6816    0.7504   -1.6602 C   0  0  0  0  0  0  0  0  0  0  0  0
   -3.3814    0.8420   -0.2696 O   0  0  0  0  0  0  0  0  0  0  0  0
   -4.4763    1.1417    0.5195 C   0  0  0  0  0  0  0  0  0  0  0  0
   -5.6587    1.3796   -0.1062 N   0  0  0  0  0  0  0  0  0  0  0  0
   -6.7211    1.6859    0.6681 C   0  0  0  0  0  0  0  0  0  0  0  0
   -6.6649    1.7713    2.0462 C   0  0  0  0  0  0  0  0  0  0  0  0
   -5.4441    1.5260    2.6686 C   0  0  0  0  0  0  0  0  0  0  0  0
   -4.3134    1.2008    1.9047 C   0  0  0  0  0  0  0  0  0  0  0  0
   -3.0372    0.9492    2.6348 C   0  0  0  0  0  0  0  0  0  0  0  0
   -2.9840    1.1226    3.8496 O   0  0  0  0  0  0  0  0  0  0  0  0
   -1.9513    0.5239    1.9094 N   0  0  0  0  0  0  0  0  0  0  0  0
   -0.6425    0.3429    2.5052 C   0  0  0  0  0  0  0  0  0  0  0  0
    0.0890    1.6951    2.6702 C   0  0  0  0  0  0  0  0  0  0  0  0
    0.6085    2.2375    1.3249 C   0  0  0  0  0  0  0  0  0  0  0  0
    1.6120    1.2794    0.6523 C   0  0  0  0  0  0  0  0  0  0  0  0
    1.1471   -0.1333    0.7560 C   0  0  0  0  0  0  0  0  0  0  0  0
    0.1286   -0.5514    1.5959 C   0  0  0  0  0  0  0  0  0  0  0  0
   -0.0055   -1.9187    1.3449 C   0  0  0  0  0  0  0  0  0  0  0  0
    0.8436   -2.3458    0.4144 N   0  0  0  0  0  0  0  0  0  0  0  0
    1.6028   -1.2586    0.0778 N   0  0  0  0  0  0  0  0  0  0  0  0
    2.6737   -1.4297   -0.8565 C   0  0  0  0  0  0  0  0  0  0  0  0
    2.7753   -2.6511   -1.5487 C   0  0  0  0  0  0  0  0  0  0  0  0
    3.8067   -2.8833   -2.4694 C   0  0  0  0  0  0  0  0  0  0  0  0
    3.8734   -4.1815   -3.2184 C   0  0  0  0  0  0  0  0  0  0  0  0
    4.7374   -1.8710   -2.7175 C   0  0  0  0  0  0  0  0  0  0  0  0
    4.6586   -0.6492   -2.0403 C   0  0  0  0  0  0  0  0  0  0  0  0
    5.7000    0.4081   -2.2691 C   0  0  0  0  0  0  0  0  0  0  0  0
    3.6361   -0.4432   -1.0984 C   0  0  0  0  0  0  0  0  0  0  0  0
   -4.4118   -0.0418   -1.8580 H   0  0  0  0  0  0  0  0  0  0  0  0
   -2.7563    0.4865   -2.1815 H   0  0  0  0  0  0  0  0  0  0  0  0
   -4.0230    1.7130   -2.0560 H   0  0  0  0  0  0  0  0  0  0  0  0
   -7.6491    1.8676    0.1327 H   0  0  0  0  0  0  0  0  0  0  0  0
   -7.5469    2.0221    2.6253 H   0  0  0  0  0  0  0  0  0  0  0  0
   -5.3757    1.5874    3.7532 H   0  0  0  0  0  0  0  0  0  0  0  0
   -2.0257    0.4828    0.8973 H   0  0  0  0  0  0  0  0  0  0  0  0
   -0.7669   -0.1230    3.4898 H   0  0  0  0  0  0  0  0  0  0  0  0
   -0.5697    2.4381    3.1344 H   0  0  0  0  0  0  0  0  0  0  0  0
    0.9456    1.5613    3.3439 H   0  0  0  0  0  0  0  0  0  0  0  0
    1.0867    3.2119    1.4774 H   0  0  0  0  0  0  0  0  0  0  0  0
   -0.2418    2.4064    0.6516 H   0  0  0  0  0  0  0  0  0  0  0  0
    1.7281    1.5842   -0.3927 H   0  0  0  0  0  0  0  0  0  0  0  0
    2.5778    1.3785    1.1610 H   0  0  0  0  0  0  0  0  0  0  0  0
   -0.7018   -2.6217    1.7845 H   0  0  0  0  0  0  0  0  0  0  0  0
    2.0425   -3.4398   -1.3788 H   0  0  0  0  0  0  0  0  0  0  0  0
    3.2656   -4.1210   -4.1263 H   0  0  0  0  0  0  0  0  0  0  0  0
    4.9049   -4.4194   -3.4988 H   0  0  0  0  0  0  0  0  0  0  0  0
    3.5072   -5.0078   -2.6001 H   0  0  0  0  0  0  0  0  0  0  0  0
    5.5357   -2.0386   -3.4381 H   0  0  0  0  0  0  0  0  0  0  0  0
    5.2738    1.4089   -2.1422 H   0  0  0  0  0  0  0  0  0  0  0  0
    6.0975    0.3524   -3.2880 H   0  0  0  0  0  0  0  0  0  0  0  0
    6.5240    0.2806   -1.5604 H   0  0  0  0  0  0  0  0  0  0  0  0
    3.6485    0.4917   -0.5555 H   0  0  0  0  0  0  0  0  0  0  0  0
  1  2  1  0
  2  3  1  0
  3  4  2  0
  4  5  1  0
  5  6  2  0
  6  7  1  0
  7  8  2  0
  8  9  1  0
  9 10  2  0
  9 11  1  0
 11 12  1  0
 12 13  1  0
 13 14  1  0
 14 15  1  0
 15 16  1  0
 16 17  2  0
 17 18  1  0
 18 19  2  0
 19 20  1  0
 20 21  1  0
 21 22  2  0
 22 23  1  0
 23 24  1  0
 23 25  2  0
 25 26  1  0
 26 27  1  0
 26 28  2  0
  8  3  1  0
 17 12  1  0
 28 21  1  0
 20 16  1  0
  1 29  1  0
  1 30  1  0
  1 31  1  0
  5 32  1  0
  6 33  1  0
  7 34  1  0
 11 35  1  0
 12 36  1  0
 13 37  1  0
 13 38  1  0
 14 39  1  0
 14 40  1  0
 15 41  1  0
 15 42  1  0
 18 43  1  0
 22 44  1  0
 24 45  1  0
 24 46  1  0
 24 47  1  0
 25 48  1  0
 27 49  1  0
 27 50  1  0
 27 51  1  0
 28 52  1  0
M  END
$$$$
