
     RDKit          3D

 53 56  0  0  0  0  0  0  0  0999 V2000
    8.2638    0.4387    1.0064 C   0  0  0  0  0  0  0  0  0  0  0  0
    7.5967   -0.9171    0.8524 C   0  0  0  0  0  0  0  0  0  0  0  0
    6.3934   -0.9799    1.6164 O   0  0  0  0  0  0  0  0  0  0  0  0
    5.2214   -0.5931    1.0322 C   0  0  0  0  0  0  0  0  0  0  0  0
    4.0841   -0.8223    1.8065 C   0  0  0  0  0  0  0  0  0  0  0  0
    2.8110   -0.4733    1.3380 C   0  0  0  0  0  0  0  0  0  0  0  0
    2.6369    0.1246    0.0790 C   0  0  0  0  0  0  0  0  0  0  0  0
    1.3056    0.5048   -0.4417 C   0  0  0  0  0  0  0  0  0  0  0  0
    0.2473    0.8640    0.3741 C   0  0  0  0  0  0  0  0  0  0  0  0
   -0.9686    1.1882   -0.2259 C   0  0  0  0  0  0  0  0  0  0  0  0
   -2.0791    1.5425    0.6763 C   0  0  0  0  0  0  0  0  0  0  0  0
   -2.0276    2.6351    1.2334 O   0  0  0  0  0  0  0  0  0  0  0  0
   -3.1124    0.6238    0.8481 N   0  0  0  0  0  0  0  0  0  0  0  0
   -2.9866   -0.8053    0.5296 C   0  0  0  0  0  0  0  0  0  0  0  0
   -4.3533   -1.4752    0.2940 C   0  0  0  0  0  0  0  0  0  0  0  0
   -5.2913   -1.2337    1.4077 N   0  0  0  0  0  0  0  0  0  0  0  0
   -6.5806   -1.8701    1.1443 C   0  0  0  0  0  0  0  0  0  0  0  0
   -5.4596    0.2213    1.6021 C   0  0  0  0  0  0  0  0  0  0  0  0
   -4.1205    0.9334    1.8636 C   0  0  0  0  0  0  0  0  0  0  0  0
   -1.1224    1.2010   -1.6256 C   0  0  0  0  0  0  0  0  0  0  0  0
   -2.3123    1.5630   -2.3060 C   0  0  0  0  0  0  0  0  0  0  0  0
   -2.3762    1.5375   -3.6971 C   0  0  0  0  0  0  0  0  0  0  0  0
   -1.2574    1.1551   -4.4235 C   0  0  0  0  0  0  0  0  0  0  0  0
   -0.0819    0.8063   -3.7532 C   0  0  0  0  0  0  0  0  0  0  0  0
    0.0090    0.8257   -2.3675 C   0  0  0  0  0  0  0  0  0  0  0  0
    1.1762    0.4830   -1.7938 N   0  0  0  0  0  0  0  0  0  0  0  0
    3.7970    0.3455   -0.6860 C   0  0  0  0  0  0  0  0  0  0  0  0
    5.0725   -0.0033   -0.2183 C   0  0  0  0  0  0  0  0  0  0  0  0
    8.4409    0.6602    2.0642 H   0  0  0  0  0  0  0  0  0  0  0  0
    7.6328    1.2427    0.6162 H   0  0  0  0  0  0  0  0  0  0  0  0
    9.2213    0.4600    0.4779 H   0  0  0  0  0  0  0  0  0  0  0  0
    8.2659   -1.6795    1.2673 H   0  0  0  0  0  0  0  0  0  0  0  0
    7.4447   -1.1924   -0.1970 H   0  0  0  0  0  0  0  0  0  0  0  0
    4.1868   -1.2847    2.7855 H   0  0  0  0  0  0  0  0  0  0  0  0
    1.9584   -0.6952    1.9748 H   0  0  0  0  0  0  0  0  0  0  0  0
    0.3471    0.9122    1.4531 H   0  0  0  0  0  0  0  0  0  0  0  0
   -2.4741   -1.2776    1.3771 H   0  0  0  0  0  0  0  0  0  0  0  0
   -2.3591   -0.9572   -0.3518 H   0  0  0  0  0  0  0  0  0  0  0  0
   -4.1916   -2.5529    0.1727 H   0  0  0  0  0  0  0  0  0  0  0  0
   -4.7760   -1.0975   -0.6469 H   0  0  0  0  0  0  0  0  0  0  0  0
   -7.2636   -1.7159    1.9870 H   0  0  0  0  0  0  0  0  0  0  0  0
   -7.0588   -1.4823    0.2375 H   0  0  0  0  0  0  0  0  0  0  0  0
   -6.4577   -2.9531    1.0327 H   0  0  0  0  0  0  0  0  0  0  0  0
   -6.1212    0.4071    2.4566 H   0  0  0  0  0  0  0  0  0  0  0  0
   -5.9321    0.6684    0.7169 H   0  0  0  0  0  0  0  0  0  0  0  0
   -4.2876    2.0155    1.9068 H   0  0  0  0  0  0  0  0  0  0  0  0
   -3.7094    0.6254    2.8331 H   0  0  0  0  0  0  0  0  0  0  0  0
   -3.1948    1.8756   -1.7504 H   0  0  0  0  0  0  0  0  0  0  0  0
   -3.2928    1.8203   -4.2085 H   0  0  0  0  0  0  0  0  0  0  0  0
   -1.2895    1.1322   -5.5097 H   0  0  0  0  0  0  0  0  0  0  0  0
    0.7926    0.5137   -4.3306 H   0  0  0  0  0  0  0  0  0  0  0  0
    3.7128    0.8061   -1.6701 H   0  0  0  0  0  0  0  0  0  0  0  0
    5.9196    0.2108   -0.8601 H   0  0  0  0  0  0  0  0  0  0  0  0
  1  2  1  0
  2  3  1  0
  3  4  1  0
  4  5  2  0
  5  6  1  0
  6  7  2  0
  7  8  1  0
  8  9  2  0
  9 10  1  0
 10 11  1  0
 11 12  2  0
 11 13  1  0
 13 14  1  0
 14 15  1  0
 15 16  1  0
 16 17  1  0
 16 18  1  0
 18 19  1  0
 10 20  2  0
 20 21  1  0
 21 22  2  0
 22 23  1  0
 23 24  2  0
 24 25  1  0
 25 26  2  0
  7 27  1  0
 27 28  2  0
 28  4  1  0
 26  8  1  0
 19 13  1  0
 25 20  1  0
  1 29  1  0
  1 30  1  0
  1 31  1  0
  2 32  1  0
  2 33  1  0
  5 34  1  0
  6 35  1  0
  9 36  1  0
 14 37  1  0
 14 38  1  0
 15 39  1  0
 15 40  1  0
 17 41  1  0
 17 42  1  0
 17 43  1  0
 18 44  1  0
 18 45  1  0
 19 46  1  0
 19 47  1  0
 21 48  1  0
 22 49  1  0
 23 50  1  0
 24 51  1  0
 27 52  1  0
 28 53  1  0
M  END
$$$$
