
     RDKit          3D

 44 46  0  0  0  0  0  0  0  0999 V2000
   -4.4612   -2.1278    0.1282 C   0  0  0  0  0  0  0  0  0  0  0  0
   -5.4289   -0.9845   -0.0095 C   0  0  0  0  0  0  0  0  0  0  0  0
   -6.8087   -1.2389    0.0040 C   0  0  0  0  0  0  0  0  0  0  0  0
   -7.7226   -0.1946   -0.1221 C   0  0  0  0  0  0  0  0  0  0  0  0
   -7.2662    1.1122   -0.2628 C   0  0  0  0  0  0  0  0  0  0  0  0
   -5.8950    1.3797   -0.2779 C   0  0  0  0  0  0  0  0  0  0  0  0
   -4.9701    0.3383   -0.1520 C   0  0  0  0  0  0  0  0  0  0  0  0
   -3.6089    0.4942   -0.1548 O   0  0  0  0  0  0  0  0  0  0  0  0
   -3.0991    1.8172   -0.2966 C   0  0  0  0  0  0  0  0  0  0  0  0
   -1.5671    1.8159   -0.2800 C   0  0  0  0  0  0  0  0  0  0  0  0
   -0.9463    2.8693   -0.3906 O   0  0  0  0  0  0  0  0  0  0  0  0
   -1.0393    0.5546   -0.1338 N   0  0  0  0  0  0  0  0  0  0  0  0
    0.2816    0.1996   -0.0800 C   0  0  0  0  0  0  0  0  0  0  0  0
    0.6664   -1.0491    0.0633 N   0  0  0  0  0  0  0  0  0  0  0  0
    2.0409   -1.1718    0.0926 N   0  0  0  0  0  0  0  0  0  0  0  0
    2.6431   -0.0063   -0.0333 C   0  0  0  0  0  0  0  0  0  0  0  0
    4.1311    0.2019   -0.0351 C   0  0  0  0  0  0  0  0  0  0  0  0
    4.8205   -0.7388   -1.0304 C   0  0  0  0  0  0  0  0  0  0  0  0
    6.3239   -0.4638   -1.1239 C   0  0  0  0  0  0  0  0  0  0  0  0
    6.9301    0.0716    0.1744 C   0  0  0  0  0  0  0  0  0  0  0  0
    6.1718   -0.4206    1.3988 C   0  0  0  0  0  0  0  0  0  0  0  0
    4.7067    0.0250    1.3836 C   0  0  0  0  0  0  0  0  0  0  0  0
    1.5597    1.3186   -0.1904 S   0  0  0  0  0  0  0  0  0  0  0  0
   -3.8392   -1.9921    1.0189 H   0  0  0  0  0  0  0  0  0  0  0  0
   -3.8201   -2.1900   -0.7571 H   0  0  0  0  0  0  0  0  0  0  0  0
   -4.9816   -3.0860    0.2294 H   0  0  0  0  0  0  0  0  0  0  0  0
   -7.1799   -2.2557    0.1133 H   0  0  0  0  0  0  0  0  0  0  0  0
   -8.7897   -0.4013   -0.1105 H   0  0  0  0  0  0  0  0  0  0  0  0
   -7.9791    1.9272   -0.3613 H   0  0  0  0  0  0  0  0  0  0  0  0
   -5.5875    2.4142   -0.3899 H   0  0  0  0  0  0  0  0  0  0  0  0
   -3.4287    2.4423    0.5412 H   0  0  0  0  0  0  0  0  0  0  0  0
   -3.4094    2.2419   -1.2582 H   0  0  0  0  0  0  0  0  0  0  0  0
   -1.6903   -0.2193   -0.0547 H   0  0  0  0  0  0  0  0  0  0  0  0
    4.3466    1.2301   -0.3594 H   0  0  0  0  0  0  0  0  0  0  0  0
    4.6672   -1.7819   -0.7214 H   0  0  0  0  0  0  0  0  0  0  0  0
    4.3736   -0.6501   -2.0286 H   0  0  0  0  0  0  0  0  0  0  0  0
    6.5200    0.2576   -1.9264 H   0  0  0  0  0  0  0  0  0  0  0  0
    6.8321   -1.3907   -1.4164 H   0  0  0  0  0  0  0  0  0  0  0  0
    7.9842   -0.2218    0.2360 H   0  0  0  0  0  0  0  0  0  0  0  0
    6.9128    1.1687    0.1584 H   0  0  0  0  0  0  0  0  0  0  0  0
    6.2168   -1.5166    1.4320 H   0  0  0  0  0  0  0  0  0  0  0  0
    6.6549   -0.0613    2.3145 H   0  0  0  0  0  0  0  0  0  0  0  0
    4.6125    0.9802    1.9169 H   0  0  0  0  0  0  0  0  0  0  0  0
    4.1225   -0.6976    1.9682 H   0  0  0  0  0  0  0  0  0  0  0  0
  1  2  1  0
  2  3  2  0
  3  4  1  0
  4  5  2  0
  5  6  1  0
  6  7  2  0
  7  8  1  0
  8  9  1  0
  9 10  1  0
 10 11  2  0
 10 12  1  0
 12 13  1  0
 13 14  2  0
 14 15  1  0
 15 16  2  0
 16 17  1  0
 17 18  1  0
 18 19  1  0
 19 20  1  0
 20 21  1  0
 21 22  1  0
 16 23  1  0
  7  2  1  0
 23 13  1  0
 22 17  1  0
  1 24  1  0
  1 25  1  0
  1 26  1  0
  3 27  1  0
  4 28  1  0
  5 29  1  0
  6 30  1  0
  9 31  1  0
  9 32  1  0
 12 33  1  0
 17 34  1  0
 18 35  1  0
 18 36  1  0
 19 37  1  0
 19 38  1  0
 20 39  1  0
 20 40  1  0
 21 41  1  0
 21 42  1  0
 22 43  1  0
 22 44  1  0
M  END
$$$$
