
     RDKit          3D

 50 52  0  0  0  0  0  0  0  0999 V2000
   -6.9885    1.1971    1.0222 C   0  0  0  0  0  0  0  0  0  0  0  0
   -5.9791    0.1746    0.5059 C   0  0  0  0  0  0  0  0  0  0  0  0
   -5.8583    0.2481   -1.0211 C   0  0  0  0  0  0  0  0  0  0  0  0
   -4.8073   -0.7268   -1.5432 C   0  0  0  0  0  0  0  0  0  0  0  0
   -3.5196   -0.5500   -0.8747 N   0  0  0  0  0  0  0  0  0  0  0  0
   -2.3947   -0.9930   -1.5771 C   0  0  0  0  0  0  0  0  0  0  0  0
   -2.4358   -1.5264   -2.6830 O   0  0  0  0  0  0  0  0  0  0  0  0
   -1.0540   -0.7774   -0.9904 C   0  0  0  0  0  0  0  0  0  0  0  0
   -0.6624    0.4963   -0.5622 C   0  0  0  0  0  0  0  0  0  0  0  0
    0.6230    0.6977   -0.0515 C   0  0  0  0  0  0  0  0  0  0  0  0
    1.5352   -0.3688    0.0049 C   0  0  0  0  0  0  0  0  0  0  0  0
    3.1070   -0.0808    0.7968 S   0  0  0  0  0  6  0  0  0  0  0  0
    2.9177    1.1066    1.6121 O   0  0  0  0  0  0  0  0  0  0  0  0
    3.4826   -1.3300    1.4291 O   0  0  0  0  0  0  0  0  0  0  0  0
    4.2166    0.3064   -0.5574 C   0  0  0  0  0  0  0  0  0  0  0  0
    5.5513    0.6980    0.0101 C   0  0  0  0  0  0  0  0  0  0  0  0
    6.4978   -0.2692    0.3754 C   0  0  0  0  0  0  0  0  0  0  0  0
    7.7242    0.1168    0.9223 C   0  0  0  0  0  0  0  0  0  0  0  0
    8.0168    1.4681    1.1102 C   0  0  0  0  0  0  0  0  0  0  0  0
    7.0824    2.4366    0.7502 C   0  0  0  0  0  0  0  0  0  0  0  0
    5.8626    2.0458    0.2071 C   0  0  0  0  0  0  0  0  0  0  0  0
    4.9757    2.9893   -0.1416 F   0  0  0  0  0  0  0  0  0  0  0  0
    1.1348   -1.6324   -0.4421 C   0  0  0  0  0  0  0  0  0  0  0  0
    2.0417   -2.7621   -0.4769 N   0  0  0  0  0  4  0  0  0  0  0  0
    1.6868   -3.7909    0.1097 O   0  0  0  0  0  0  0  0  0  0  0  0
    3.0644   -2.6239   -1.1593 O   0  0  0  0  0  1  0  0  0  0  0  0
   -0.1542   -1.8442   -0.9514 C   0  0  0  0  0  0  0  0  0  0  0  0
   -3.5719   -0.5837    0.5901 C   0  0  0  0  0  0  0  0  0  0  0  0
   -4.6024    0.3949    1.1449 C   0  0  0  0  0  0  0  0  0  0  0  0
   -7.9769    1.0204    0.5852 H   0  0  0  0  0  0  0  0  0  0  0  0
   -7.0861    1.1302    2.1111 H   0  0  0  0  0  0  0  0  0  0  0  0
   -6.6856    2.2197    0.7711 H   0  0  0  0  0  0  0  0  0  0  0  0
   -6.3371   -0.8264    0.7812 H   0  0  0  0  0  0  0  0  0  0  0  0
   -6.8249    0.0284   -1.4891 H   0  0  0  0  0  0  0  0  0  0  0  0
   -5.5810    1.2677   -1.3194 H   0  0  0  0  0  0  0  0  0  0  0  0
   -4.6893   -0.5850   -2.6233 H   0  0  0  0  0  0  0  0  0  0  0  0
   -5.1268   -1.7633   -1.3817 H   0  0  0  0  0  0  0  0  0  0  0  0
   -1.3580    1.3317   -0.6224 H   0  0  0  0  0  0  0  0  0  0  0  0
    0.8955    1.6892    0.3100 H   0  0  0  0  0  0  0  0  0  0  0  0
    4.3219   -0.5575   -1.2145 H   0  0  0  0  0  0  0  0  0  0  0  0
    3.7723    1.1251   -1.1330 H   0  0  0  0  0  0  0  0  0  0  0  0
    6.2838   -1.3302    0.2500 H   0  0  0  0  0  0  0  0  0  0  0  0
    8.4501   -0.6405    1.2105 H   0  0  0  0  0  0  0  0  0  0  0  0
    8.9702    1.7640    1.5408 H   0  0  0  0  0  0  0  0  0  0  0  0
    7.2938    3.4914    0.8932 H   0  0  0  0  0  0  0  0  0  0  0  0
   -0.4581   -2.8215   -1.3249 H   0  0  0  0  0  0  0  0  0  0  0  0
   -2.5962   -0.3720    1.0324 H   0  0  0  0  0  0  0  0  0  0  0  0
   -3.8269   -1.6111    0.8788 H   0  0  0  0  0  0  0  0  0  0  0  0
   -4.2648    1.4218    0.9520 H   0  0  0  0  0  0  0  0  0  0  0  0
   -4.6684    0.2764    2.2332 H   0  0  0  0  0  0  0  0  0  0  0  0
  1  2  1  0
  2  3  1  0
  3  4  1  0
  4  5  1  0
  5  6  1  0
  6  7  2  0
  6  8  1  0
  8  9  2  0
  9 10  1  0
 10 11  2  0
 11 12  1  0
 12 13  2  0
 12 14  2  0
 12 15  1  0
 15 16  1  0
 16 17  2  0
 17 18  1  0
 18 19  2  0
 19 20  1  0
 20 21  2  0
 21 22  1  0
 11 23  1  0
 23 24  1  0
 24 25  2  0
 24 26  1  0
 23 27  2  0
  5 28  1  0
 28 29  1  0
 29  2  1  0
 27  8  1  0
 21 16  1  0
  1 30  1  0
  1 31  1  0
  1 32  1  0
  2 33  1  0
  3 34  1  0
  3 35  1  0
  4 36  1  0
  4 37  1  0
  9 38  1  0
 10 39  1  0
 15 40  1  0
 15 41  1  0
 17 42  1  0
 18 43  1  0
 19 44  1  0
 20 45  1  0
 27 46  1  0
 28 47  1  0
 28 48  1  0
 29 49  1  0
 29 50  1  0
M  CHG  2  24   1  26  -1
M  END
$$$$
