
     RDKit          3D

 51 54  0  0  0  0  0  0  0  0999 V2000
   -4.9352   -2.6548   -0.8435 C   0  0  0  0  0  0  0  0  0  0  0  0
   -4.4013   -2.1389    0.4935 C   0  0  0  0  0  0  0  0  0  0  0  0
   -3.8498   -3.2727    1.3578 C   0  0  0  0  0  0  0  0  0  0  0  0
   -3.4216   -1.0678    0.3067 N   0  0  0  0  0  0  0  0  0  0  0  0
   -2.2124   -1.2165   -0.3332 C   0  0  0  0  0  0  0  0  0  0  0  0
   -1.5755    0.0100   -0.3677 C   0  0  0  0  0  0  0  0  0  0  0  0
   -0.2872    0.2409   -0.9920 C   0  0  0  0  0  0  0  0  0  0  0  0
    0.1652    1.4466   -1.0694 N   0  0  0  0  0  0  0  0  0  0  0  0
    1.3822    1.5993   -1.6606 N   0  0  0  0  0  0  0  0  0  0  0  0
    1.9924    2.8465   -1.6304 C   0  0  0  0  0  0  0  0  0  0  0  0
    1.4829    3.8825   -1.2024 O   0  0  0  0  0  0  0  0  0  0  0  0
    3.3939    2.8547   -2.2450 C   0  0  0  0  0  0  0  0  0  0  0  0
    4.1569    1.6607   -2.1575 O   0  0  0  0  0  0  0  0  0  0  0  0
    4.3945    1.2066   -0.8802 C   0  0  0  0  0  0  0  0  0  0  0  0
    4.9600    2.0327    0.0992 C   0  0  0  0  0  0  0  0  0  0  0  0
    5.2067    1.5235    1.3672 C   0  0  0  0  0  0  0  0  0  0  0  0
    4.9176    0.1866    1.6433 C   0  0  0  0  0  0  0  0  0  0  0  0
    4.3613   -0.6474    0.6547 C   0  0  0  0  0  0  0  0  0  0  0  0
    4.0733   -1.9982    0.9105 C   0  0  0  0  0  0  0  0  0  0  0  0
    3.5199   -2.7948   -0.0854 C   0  0  0  0  0  0  0  0  0  0  0  0
    3.2459   -2.2057   -1.3022 C   0  0  0  0  0  0  0  0  0  0  0  0
    3.4892   -0.9008   -1.5809 N   0  0  0  0  0  0  0  0  0  0  0  0
    4.0774   -0.1370   -0.6284 C   0  0  0  0  0  0  0  0  0  0  0  0
   -2.4334    0.9390    0.3077 C   0  0  0  0  0  0  0  0  0  0  0  0
   -2.3405    2.3171    0.6090 C   0  0  0  0  0  0  0  0  0  0  0  0
   -3.3722    2.9597    1.3007 C   0  0  0  0  0  0  0  0  0  0  0  0
   -4.5004    2.2505    1.6964 C   0  0  0  0  0  0  0  0  0  0  0  0
   -4.6220    0.8862    1.4153 C   0  0  0  0  0  0  0  0  0  0  0  0
   -3.5776    0.2435    0.7207 C   0  0  0  0  0  0  0  0  0  0  0  0
   -5.3708   -1.8404   -1.4274 H   0  0  0  0  0  0  0  0  0  0  0  0
   -4.1473   -3.1124   -1.4443 H   0  0  0  0  0  0  0  0  0  0  0  0
   -5.7179   -3.4019   -0.6842 H   0  0  0  0  0  0  0  0  0  0  0  0
   -5.2549   -1.7064    1.0315 H   0  0  0  0  0  0  0  0  0  0  0  0
   -3.3856   -2.8903    2.2712 H   0  0  0  0  0  0  0  0  0  0  0  0
   -3.0930   -3.8549    0.8218 H   0  0  0  0  0  0  0  0  0  0  0  0
   -4.6560   -3.9515    1.6502 H   0  0  0  0  0  0  0  0  0  0  0  0
   -1.9107   -2.1789   -0.7317 H   0  0  0  0  0  0  0  0  0  0  0  0
    0.2596   -0.6306   -1.3896 H   0  0  0  0  0  0  0  0  0  0  0  0
    1.9259    0.7779   -1.9356 H   0  0  0  0  0  0  0  0  0  0  0  0
    3.9582    3.7039   -1.8414 H   0  0  0  0  0  0  0  0  0  0  0  0
    3.2545    3.0575   -3.3135 H   0  0  0  0  0  0  0  0  0  0  0  0
    5.2172    3.0618   -0.1098 H   0  0  0  0  0  0  0  0  0  0  0  0
    5.6309    2.1652    2.1407 H   0  0  0  0  0  0  0  0  0  0  0  0
    5.1245   -0.2001    2.6378 H   0  0  0  0  0  0  0  0  0  0  0  0
    4.2882   -2.4389    1.8830 H   0  0  0  0  0  0  0  0  0  0  0  0
    3.3150   -3.8492    0.0827 H   0  0  0  0  0  0  0  0  0  0  0  0
    2.8184   -2.7815   -2.1194 H   0  0  0  0  0  0  0  0  0  0  0  0
   -1.4619    2.8846    0.3062 H   0  0  0  0  0  0  0  0  0  0  0  0
   -3.2789    4.0203    1.5316 H   0  0  0  0  0  0  0  0  0  0  0  0
   -5.2967    2.7631    2.2328 H   0  0  0  0  0  0  0  0  0  0  0  0
   -5.5091    0.3508    1.7386 H   0  0  0  0  0  0  0  0  0  0  0  0
  1  2  1  0
  2  3  1  0
  2  4  1  0
  4  5  1  0
  5  6  2  0
  6  7  1  0
  7  8  2  3
  8  9  1  0
  9 10  1  0
 10 11  2  0
 10 12  1  0
 12 13  1  0
 13 14  1  0
 14 15  2  0
 15 16  1  0
 16 17  2  0
 17 18  1  0
 18 19  2  0
 19 20  1  0
 20 21  2  0
 21 22  1  0
 22 23  2  0
  6 24  1  0
 24 25  2  0
 25 26  1  0
 26 27  2  0
 27 28  1  0
 28 29  2  0
 29  4  1  0
 23 14  1  0
 29 24  1  0
 23 18  1  0
  1 30  1  0
  1 31  1  0
  1 32  1  0
  2 33  1  0
  3 34  1  0
  3 35  1  0
  3 36  1  0
  5 37  1  0
  7 38  1  0
  9 39  1  0
 12 40  1  0
 12 41  1  0
 15 42  1  0
 16 43  1  0
 17 44  1  0
 19 45  1  0
 20 46  1  0
 21 47  1  0
 25 48  1  0
 26 49  1  0
 27 50  1  0
 28 51  1  0
M  END
$$$$
