
     RDKit          3D

 41 43  0  0  0  0  0  0  0  0999 V2000
   -3.9218    0.2614    3.3530 C   0  0  0  0  0  0  0  0  0  0  0  0
   -4.8805    0.1446    2.3079 O   0  0  0  0  0  0  0  0  0  0  0  0
   -4.3993   -0.1182    1.0541 C   0  0  0  0  0  0  0  0  0  0  0  0
   -5.3820   -0.2374    0.0701 C   0  0  0  0  0  0  0  0  0  0  0  0
   -5.0386   -0.5023   -1.2577 C   0  0  0  0  0  0  0  0  0  0  0  0
   -3.6976   -0.6521   -1.6120 C   0  0  0  0  0  0  0  0  0  0  0  0
   -3.2418   -0.9131   -2.8841 O   0  0  0  0  0  0  0  0  0  0  0  0
   -4.2216   -1.0248   -3.9100 C   0  0  0  0  0  0  0  0  0  0  0  0
   -2.6980   -0.5367   -0.6220 C   0  0  0  0  0  0  0  0  0  0  0  0
   -1.3609   -0.6954   -1.0499 N   0  0  0  0  0  0  0  0  0  0  0  0
   -0.2159   -0.7175   -0.2943 C   0  0  0  0  0  0  0  0  0  0  0  0
   -0.1250   -0.6528    0.9288 O   0  0  0  0  0  0  0  0  0  0  0  0
    0.9158   -0.8548   -1.0891 N   0  0  0  0  0  0  0  0  0  0  0  0
    2.1567   -0.6903   -0.4120 N   0  0  0  0  0  0  0  0  0  0  0  0
    3.0410    0.2246   -0.9620 C   0  0  0  0  0  0  0  0  0  0  0  0
    2.8473    0.6996   -2.0808 O   0  0  0  0  0  0  0  0  0  0  0  0
    4.1670    0.5824   -0.1185 C   0  0  0  0  0  0  0  0  0  0  0  0
    5.0503    1.6423   -0.3299 C   0  0  0  0  0  0  0  0  0  0  0  0
    5.9521    1.5652    0.7393 C   0  0  0  0  0  0  0  0  0  0  0  0
    7.0400    2.2387    1.1911 O   0  0  0  0  0  0  0  0  0  0  0  0
    7.4115    1.5669    2.3203 C   0  0  0  0  0  0  0  0  0  0  0  0
    6.5984    0.4903    2.5999 C   0  0  0  0  0  0  0  0  0  0  0  0
    5.6626    0.5277    1.5470 C   0  0  0  0  0  0  0  0  0  0  0  0
    4.5650   -0.1007    1.0258 N   0  0  0  0  0  0  0  0  0  0  0  0
   -3.0558   -0.2665    0.7040 C   0  0  0  0  0  0  0  0  0  0  0  0
   -4.4642    0.4605    4.2823 H   0  0  0  0  0  0  0  0  0  0  0  0
   -3.2457    1.1043    3.1756 H   0  0  0  0  0  0  0  0  0  0  0  0
   -3.3662   -0.6728    3.4860 H   0  0  0  0  0  0  0  0  0  0  0  0
   -6.4288   -0.1212    0.3423 H   0  0  0  0  0  0  0  0  0  0  0  0
   -5.8417   -0.5841   -1.9817 H   0  0  0  0  0  0  0  0  0  0  0  0
   -3.6983   -1.2247   -4.8500 H   0  0  0  0  0  0  0  0  0  0  0  0
   -4.7756   -0.0881   -4.0307 H   0  0  0  0  0  0  0  0  0  0  0  0
   -4.8972   -1.8653   -3.7203 H   0  0  0  0  0  0  0  0  0  0  0  0
   -1.2686   -0.9052   -2.0371 H   0  0  0  0  0  0  0  0  0  0  0  0
    0.8952   -0.3807   -1.9925 H   0  0  0  0  0  0  0  0  0  0  0  0
    2.0663   -0.7361    0.6016 H   0  0  0  0  0  0  0  0  0  0  0  0
    5.0258    2.3560   -1.1417 H   0  0  0  0  0  0  0  0  0  0  0  0
    8.2801    1.9780    2.8175 H   0  0  0  0  0  0  0  0  0  0  0  0
    6.6805   -0.1970    3.4280 H   0  0  0  0  0  0  0  0  0  0  0  0
    4.1563   -0.9364    1.4259 H   0  0  0  0  0  0  0  0  0  0  0  0
   -2.2864   -0.1682    1.4582 H   0  0  0  0  0  0  0  0  0  0  0  0
  1  2  1  0
  2  3  1  0
  3  4  2  0
  4  5  1  0
  5  6  2  0
  6  7  1  0
  7  8  1  0
  6  9  1  0
  9 10  1  0
 10 11  1  0
 11 12  2  0
 11 13  1  0
 13 14  1  0
 14 15  1  0
 15 16  2  0
 15 17  1  0
 17 18  2  0
 18 19  1  0
 19 20  1  0
 20 21  1  0
 21 22  2  0
 22 23  1  0
 23 24  1  0
  9 25  2  0
 25  3  1  0
 24 17  1  0
 23 19  2  0
  1 26  1  0
  1 27  1  0
  1 28  1  0
  4 29  1  0
  5 30  1  0
  8 31  1  0
  8 32  1  0
  8 33  1  0
 10 34  1  0
 13 35  1  0
 14 36  1  0
 18 37  1  0
 21 38  1  0
 22 39  1  0
 24 40  1  0
 25 41  1  0
M  END
$$$$
