
     RDKit          3D

 46 49  0  0  0  0  0  0  0  0999 V2000
    5.3208   -0.5663   -1.8523 C   0  0  0  0  0  0  0  0  0  0  0  0
    4.3731   -1.4812   -1.5945 C   0  0  0  0  0  0  0  0  0  0  0  0
    2.8804   -1.2821   -1.4247 C   0  0  0  0  0  0  0  0  0  0  0  0
    2.3296    0.1734   -1.4931 C   0  0  0  0  0  0  0  0  0  0  0  0
    1.3010    0.4242   -0.4450 N   0  0  0  0  0  0  0  0  0  0  0  0
    1.9918    0.3667    0.8619 C   0  0  0  0  0  0  0  0  0  0  0  0
    2.7133   -0.9740    1.0708 C   0  0  0  0  0  0  0  0  0  0  0  0
    2.3795   -1.9187   -0.0970 C   0  0  0  0  0  0  0  0  0  0  0  0
    0.8416   -2.0180   -0.1700 C   0  0  0  0  0  0  0  0  0  0  0  0
    0.2677   -0.6356   -0.5540 C   0  0  0  0  0  0  0  0  0  0  0  0
   -0.9945   -0.2467    0.1732 C   0  0  0  0  0  0  0  0  0  0  0  0
   -1.2154   -0.5335    1.5001 N   0  0  0  0  0  0  0  0  0  0  0  0
   -2.4467   -0.0850    1.9089 C   0  0  0  0  0  0  0  0  0  0  0  0
   -3.0757   -0.1888    3.1555 C   0  0  0  0  0  0  0  0  0  0  0  0
   -4.3408    0.3894    3.2916 C   0  0  0  0  0  0  0  0  0  0  0  0
   -4.9419    1.0586    2.2244 C   0  0  0  0  0  0  0  0  0  0  0  0
   -4.2944    1.1548    0.9855 C   0  0  0  0  0  0  0  0  0  0  0  0
   -3.0237    0.5638    0.8183 C   0  0  0  0  0  0  0  0  0  0  0  0
   -2.1086    0.4554   -0.2810 C   0  0  0  0  0  0  0  0  0  0  0  0
   -2.3160    1.0204   -1.6520 C   0  0  0  0  0  0  0  0  0  0  0  0
   -1.6658    2.3918   -1.8365 C   0  0  0  0  0  0  0  0  0  0  0  0
   -1.9898    2.9159   -3.1260 O   0  0  0  0  0  0  0  0  0  0  0  0
    5.1190    0.4917   -1.9692 H   0  0  0  0  0  0  0  0  0  0  0  0
    6.3596   -0.8706   -1.9570 H   0  0  0  0  0  0  0  0  0  0  0  0
    4.7025   -2.5182   -1.5113 H   0  0  0  0  0  0  0  0  0  0  0  0
    2.4165   -1.8442   -2.2497 H   0  0  0  0  0  0  0  0  0  0  0  0
    1.8859    0.3449   -2.4823 H   0  0  0  0  0  0  0  0  0  0  0  0
    3.1111    0.9324   -1.3920 H   0  0  0  0  0  0  0  0  0  0  0  0
    1.2891    0.5513    1.6816 H   0  0  0  0  0  0  0  0  0  0  0  0
    2.7178    1.1888    0.9285 H   0  0  0  0  0  0  0  0  0  0  0  0
    3.7973   -0.8123    1.1363 H   0  0  0  0  0  0  0  0  0  0  0  0
    2.3951   -1.4227    2.0226 H   0  0  0  0  0  0  0  0  0  0  0  0
    2.8120   -2.9120    0.0671 H   0  0  0  0  0  0  0  0  0  0  0  0
    0.4574   -2.4000    0.7818 H   0  0  0  0  0  0  0  0  0  0  0  0
    0.5584   -2.7507   -0.9360 H   0  0  0  0  0  0  0  0  0  0  0  0
   -0.0203   -0.7040   -1.6143 H   0  0  0  0  0  0  0  0  0  0  0  0
   -0.5593   -0.9924    2.1115 H   0  0  0  0  0  0  0  0  0  0  0  0
   -2.6072   -0.7057    3.9894 H   0  0  0  0  0  0  0  0  0  0  0  0
   -4.8628    0.3167    4.2448 H   0  0  0  0  0  0  0  0  0  0  0  0
   -5.9244    1.5072    2.3516 H   0  0  0  0  0  0  0  0  0  0  0  0
   -4.7742    1.6781    0.1633 H   0  0  0  0  0  0  0  0  0  0  0  0
   -3.3924    1.0953   -1.8620 H   0  0  0  0  0  0  0  0  0  0  0  0
   -1.9355    0.3284   -2.4163 H   0  0  0  0  0  0  0  0  0  0  0  0
   -0.5769    2.3245   -1.7646 H   0  0  0  0  0  0  0  0  0  0  0  0
   -2.0065    3.1075   -1.0782 H   0  0  0  0  0  0  0  0  0  0  0  0
   -2.9477    3.0817   -3.1362 H   0  0  0  0  0  0  0  0  0  0  0  0
  1  2  2  0
  2  3  1  0
  3  4  1  0
  4  5  1  0
  5  6  1  0
  6  7  1  0
  7  8  1  0
  8  9  1  0
  9 10  1  0
 10 11  1  0
 11 12  1  0
 12 13  1  0
 13 14  2  0
 14 15  1  0
 15 16  2  0
 16 17  1  0
 17 18  2  0
 18 19  1  0
 19 20  1  0
 20 21  1  0
 21 22  1  0
  8  3  1  0
 19 11  2  0
 10  5  1  0
 18 13  1  0
  1 23  1  0
  1 24  1  0
  2 25  1  0
  3 26  1  0
  4 27  1  0
  4 28  1  0
  6 29  1  0
  6 30  1  0
  7 31  1  0
  7 32  1  0
  8 33  1  0
  9 34  1  0
  9 35  1  0
 10 36  1  0
 12 37  1  0
 14 38  1  0
 15 39  1  0
 16 40  1  0
 17 41  1  0
 20 42  1  0
 20 43  1  0
 21 44  1  0
 21 45  1  0
 22 46  1  0
M  END
$$$$
