
     RDKit          3D

 39 42  0  0  0  0  0  0  0  0999 V2000
    4.4775   -3.5671   -1.3407 C   0  0  0  0  0  0  0  0  0  0  0  0
    3.7796   -2.5268   -0.6549 O   0  0  0  0  0  0  0  0  0  0  0  0
    4.3764   -1.3116   -0.7460 C   0  0  0  0  0  0  0  0  0  0  0  0
    5.4175   -1.0711   -1.3371 O   0  0  0  0  0  0  0  0  0  0  0  0
    3.5876   -0.2815   -0.0162 C   0  0  0  0  0  0  0  0  0  0  0  0
    4.0463    1.0414   -0.0384 C   0  0  0  0  0  0  0  0  0  0  0  0
    3.3409    2.0457    0.6299 C   0  0  0  0  0  0  0  0  0  0  0  0
    2.1667    1.7435    1.3345 C   0  0  0  0  0  0  0  0  0  0  0  0
    1.3948    2.8310    2.0430 C   0  0  0  0  0  0  0  0  0  0  0  0
    0.4463    3.8882    0.9126 S   0  0  0  0  0  0  0  0  0  0  0  0
   -0.7766    2.7094    0.3888 C   0  0  0  0  0  0  0  0  0  0  0  0
   -0.9363    2.5567   -0.9541 N   0  0  0  0  0  0  0  0  0  0  0  0
   -1.8323    1.6985   -1.4470 N   0  0  0  0  0  0  0  0  0  0  0  0
   -2.5676    1.0131   -0.5385 C   0  0  0  0  0  0  0  0  0  0  0  0
   -2.3632    1.2237    0.8131 C   0  0  0  0  0  0  0  0  0  0  0  0
   -1.4705    2.0673    1.3582 N   0  0  0  0  0  0  0  0  0  0  0  0
   -3.2322    0.4218    1.4958 N   0  0  0  0  0  0  0  0  0  0  0  0
   -3.9921   -0.3172    0.6125 C   0  0  0  0  0  0  0  0  0  0  0  0
   -4.9951   -1.2627    0.8554 C   0  0  0  0  0  0  0  0  0  0  0  0
   -5.6030   -1.8594   -0.2538 C   0  0  0  0  0  0  0  0  0  0  0  0
   -5.2239   -1.5236   -1.5522 C   0  0  0  0  0  0  0  0  0  0  0  0
   -4.2201   -0.5760   -1.7805 C   0  0  0  0  0  0  0  0  0  0  0  0
   -3.5906    0.0400   -0.6807 C   0  0  0  0  0  0  0  0  0  0  0  0
    1.7114    0.4172    1.3549 C   0  0  0  0  0  0  0  0  0  0  0  0
    2.4146   -0.5884    0.6846 C   0  0  0  0  0  0  0  0  0  0  0  0
    4.5387   -3.3473   -2.4112 H   0  0  0  0  0  0  0  0  0  0  0  0
    3.9148   -4.4955   -1.2099 H   0  0  0  0  0  0  0  0  0  0  0  0
    5.4762   -3.7044   -0.9145 H   0  0  0  0  0  0  0  0  0  0  0  0
    4.9537    1.2981   -0.5825 H   0  0  0  0  0  0  0  0  0  0  0  0
    3.7113    3.0687    0.5895 H   0  0  0  0  0  0  0  0  0  0  0  0
    0.7388    2.4083    2.8125 H   0  0  0  0  0  0  0  0  0  0  0  0
    2.1059    3.4693    2.5808 H   0  0  0  0  0  0  0  0  0  0  0  0
   -3.3012    0.3855    2.5017 H   0  0  0  0  0  0  0  0  0  0  0  0
   -5.2978   -1.5291    1.8633 H   0  0  0  0  0  0  0  0  0  0  0  0
   -6.3870   -2.5984   -0.1001 H   0  0  0  0  0  0  0  0  0  0  0  0
   -5.7124   -2.0010   -2.3987 H   0  0  0  0  0  0  0  0  0  0  0  0
   -3.9286   -0.3168   -2.7951 H   0  0  0  0  0  0  0  0  0  0  0  0
    0.7989    0.1563    1.8881 H   0  0  0  0  0  0  0  0  0  0  0  0
    2.0325   -1.6058    0.7156 H   0  0  0  0  0  0  0  0  0  0  0  0
  1  2  1  0
  2  3  1  0
  3  4  2  0
  3  5  1  0
  5  6  2  0
  6  7  1  0
  7  8  2  0
  8  9  1  0
  9 10  1  0
 10 11  1  0
 11 12  2  0
 12 13  1  0
 13 14  2  0
 14 15  1  0
 15 16  2  0
 15 17  1  0
 17 18  1  0
 18 19  2  0
 19 20  1  0
 20 21  2  0
 21 22  1  0
 22 23  2  0
  8 24  1  0
 24 25  2  0
 25  5  1  0
 16 11  1  0
 23 18  1  0
 23 14  1  0
  1 26  1  0
  1 27  1  0
  1 28  1  0
  6 29  1  0
  7 30  1  0
  9 31  1  0
  9 32  1  0
 17 33  1  0
 19 34  1  0
 20 35  1  0
 21 36  1  0
 22 37  1  0
 24 38  1  0
 25 39  1  0
M  END
$$$$
