
     RDKit          3D

 57 60  0  0  0  0  0  0  0  0999 V2000
    6.5907    1.5502   -1.8579 C   0  0  0  0  0  0  0  0  0  0  0  0
    5.3189    0.9332   -1.7012 O   0  0  0  0  0  0  0  0  0  0  0  0
    5.1581    0.0738   -0.6430 C   0  0  0  0  0  0  0  0  0  0  0  0
    6.2176   -0.4332    0.1162 C   0  0  0  0  0  0  0  0  0  0  0  0
    5.9702   -1.2787    1.1969 C   0  0  0  0  0  0  0  0  0  0  0  0
    4.6606   -1.6139    1.5357 C   0  0  0  0  0  0  0  0  0  0  0  0
    3.5757   -1.1253    0.7885 C   0  0  0  0  0  0  0  0  0  0  0  0
    2.2099   -1.5305    1.2561 C   0  0  0  0  0  0  0  0  0  0  0  0
    2.0841   -2.3160    2.1922 O   0  0  0  0  0  0  0  0  0  0  0  0
    1.1278   -0.9759    0.6182 N   0  0  0  0  0  0  0  0  0  0  0  0
   -0.2240   -1.1562    1.0982 C   0  0  0  0  0  0  0  0  0  0  0  0
   -0.5221   -0.1802    2.2620 C   0  0  0  0  0  0  0  0  0  0  0  0
   -2.0395    0.0690    2.5081 C   0  0  0  0  0  0  0  0  0  0  0  0
   -2.1975    1.0995    3.6419 C   0  0  0  0  0  0  0  0  0  0  0  0
   -2.7374   -1.2330    2.9516 C   0  0  0  0  0  0  0  0  0  0  0  0
   -2.7135    0.6377    1.2191 C   0  0  0  0  0  0  0  0  0  0  0  0
   -2.2699   -0.1079    0.0039 C   0  0  0  0  0  0  0  0  0  0  0  0
   -1.1553   -0.9258   -0.0417 C   0  0  0  0  0  0  0  0  0  0  0  0
   -1.2022   -1.5182   -1.3081 C   0  0  0  0  0  0  0  0  0  0  0  0
   -2.2430   -1.0997   -2.0248 N   0  0  0  0  0  0  0  0  0  0  0  0
   -2.8800   -0.1813   -1.2408 N   0  0  0  0  0  0  0  0  0  0  0  0
   -4.0080    0.5154   -1.7716 C   0  0  0  0  0  0  0  0  0  0  0  0
   -4.6067    0.0371   -2.9543 C   0  0  0  0  0  0  0  0  0  0  0  0
   -5.7227    0.6757   -3.5046 C   0  0  0  0  0  0  0  0  0  0  0  0
   -6.2439    1.8088   -2.8885 C   0  0  0  0  0  0  0  0  0  0  0  0
   -5.6374    2.2960   -1.7374 C   0  0  0  0  0  0  0  0  0  0  0  0
   -6.1223    3.4011   -1.1574 F   0  0  0  0  0  0  0  0  0  0  0  0
   -4.5281    1.6672   -1.1743 C   0  0  0  0  0  0  0  0  0  0  0  0
    3.8335   -0.3053   -0.3275 C   0  0  0  0  0  0  0  0  0  0  0  0
    2.7689    0.1783   -1.0560 O   0  0  0  0  0  0  0  0  0  0  0  0
    2.8173   -0.2157   -2.4310 C   0  0  0  0  0  0  0  0  0  0  0  0
    7.3474    0.8179   -2.1573 H   0  0  0  0  0  0  0  0  0  0  0  0
    6.5065    2.2856   -2.6627 H   0  0  0  0  0  0  0  0  0  0  0  0
    6.8917    2.0831   -0.9495 H   0  0  0  0  0  0  0  0  0  0  0  0
    7.2511   -0.1906   -0.1085 H   0  0  0  0  0  0  0  0  0  0  0  0
    6.7975   -1.6704    1.7844 H   0  0  0  0  0  0  0  0  0  0  0  0
    4.4874   -2.2635    2.3932 H   0  0  0  0  0  0  0  0  0  0  0  0
    1.3056   -0.2254   -0.0421 H   0  0  0  0  0  0  0  0  0  0  0  0
   -0.3403   -2.1873    1.4524 H   0  0  0  0  0  0  0  0  0  0  0  0
   -0.0452   -0.5560    3.1766 H   0  0  0  0  0  0  0  0  0  0  0  0
   -0.0429    0.7889    2.0510 H   0  0  0  0  0  0  0  0  0  0  0  0
   -1.7159    2.0496    3.3874 H   0  0  0  0  0  0  0  0  0  0  0  0
   -1.7503    0.7357    4.5739 H   0  0  0  0  0  0  0  0  0  0  0  0
   -3.2553    1.3079    3.8401 H   0  0  0  0  0  0  0  0  0  0  0  0
   -2.6939   -2.0144    2.1867 H   0  0  0  0  0  0  0  0  0  0  0  0
   -2.2760   -1.6350    3.8598 H   0  0  0  0  0  0  0  0  0  0  0  0
   -3.7974   -1.0530    3.1715 H   0  0  0  0  0  0  0  0  0  0  0  0
   -2.4218    1.6895    1.0979 H   0  0  0  0  0  0  0  0  0  0  0  0
   -3.8021    0.5929    1.3332 H   0  0  0  0  0  0  0  0  0  0  0  0
   -0.5282   -2.2524   -1.7340 H   0  0  0  0  0  0  0  0  0  0  0  0
   -4.2222   -0.8534   -3.4530 H   0  0  0  0  0  0  0  0  0  0  0  0
   -6.1778    0.2860   -4.4118 H   0  0  0  0  0  0  0  0  0  0  0  0
   -7.1074    2.3193   -3.3014 H   0  0  0  0  0  0  0  0  0  0  0  0
   -4.0896    2.1365   -0.3054 H   0  0  0  0  0  0  0  0  0  0  0  0
    3.4363   -1.1036   -2.6053 H   0  0  0  0  0  0  0  0  0  0  0  0
    3.1662    0.6209   -3.0435 H   0  0  0  0  0  0  0  0  0  0  0  0
    1.7969   -0.4550   -2.7435 H   0  0  0  0  0  0  0  0  0  0  0  0
  1  2  1  0
  2  3  1  0
  3  4  2  0
  4  5  1  0
  5  6  2  0
  6  7  1  0
  7  8  1  0
  8  9  2  0
  8 10  1  0
 10 11  1  0
 11 12  1  0
 12 13  1  0
 13 14  1  0
 13 15  1  0
 13 16  1  0
 16 17  1  0
 17 18  2  0
 18 19  1  0
 19 20  2  0
 20 21  1  0
 21 22  1  0
 22 23  2  0
 23 24  1  0
 24 25  2  0
 25 26  1  0
 26 27  1  0
 26 28  2  0
  7 29  2  0
 29 30  1  0
 30 31  1  0
 29  3  1  0
 18 11  1  0
 28 22  1  0
 21 17  1  0
  1 32  1  0
  1 33  1  0
  1 34  1  0
  4 35  1  0
  5 36  1  0
  6 37  1  0
 10 38  1  0
 11 39  1  0
 12 40  1  0
 12 41  1  0
 14 42  1  0
 14 43  1  0
 14 44  1  0
 15 45  1  0
 15 46  1  0
 15 47  1  0
 16 48  1  0
 16 49  1  0
 19 50  1  0
 23 51  1  0
 24 52  1  0
 25 53  1  0
 28 54  1  0
 31 55  1  0
 31 56  1  0
 31 57  1  0
M  END
$$$$
