
     RDKit          3D

 59 62  0  0  0  0  0  0  0  0999 V2000
   -7.6214   -0.6450   -2.3284 C   0  0  0  0  0  0  0  0  0  0  0  0
   -8.0045   -0.6144   -0.9583 O   0  0  0  0  0  0  0  0  0  0  0  0
   -6.9971   -0.5449   -0.0359 C   0  0  0  0  0  0  0  0  0  0  0  0
   -7.4241   -0.5034    1.2900 C   0  0  0  0  0  0  0  0  0  0  0  0
   -6.4946   -0.4304    2.3252 C   0  0  0  0  0  0  0  0  0  0  0  0
   -5.1225   -0.3995    2.0334 C   0  0  0  0  0  0  0  0  0  0  0  0
   -4.1538   -0.3237    3.0373 C   0  0  0  0  0  0  0  0  0  0  0  0
   -2.7960   -0.2958    2.7000 C   0  0  0  0  0  0  0  0  0  0  0  0
   -1.8373   -0.2001    3.7557 C   0  0  0  0  0  0  0  0  0  0  0  0
   -1.0648   -0.1362    4.6203 N   0  0  0  0  0  0  0  0  0  0  0  0
   -2.4313   -0.3503    1.3513 C   0  0  0  0  0  0  0  0  0  0  0  0
   -1.1316   -0.3274    0.8677 N   0  0  0  0  0  0  0  0  0  0  0  0
   -0.5027    1.0010    0.8635 C   0  0  0  0  0  0  0  0  0  0  0  0
    0.8034    0.9649    0.0327 C   0  0  0  0  0  0  0  0  0  0  0  0
    1.7681   -0.1083    0.4013 N   0  0  0  0  0  0  0  0  0  0  0  0
    2.3955    0.1379    1.7130 C   0  0  0  0  0  0  0  0  0  0  0  0
    3.3145    1.3092    1.6937 C   0  0  0  0  0  0  0  0  0  0  0  0
    3.2030    2.4196    2.3970 N   0  0  0  0  0  0  0  0  0  0  0  0
    4.2782    3.2017    2.0552 N   0  0  0  0  0  0  0  0  0  0  0  0
    5.0414    2.5952    1.1579 N   0  0  0  0  0  0  0  0  0  0  0  0
    4.4378    1.4181    0.9201 N   0  0  0  0  0  0  0  0  0  0  0  0
    4.9974    0.4915   -0.0377 C   0  0  0  0  0  0  0  0  0  0  0  0
    4.6737    0.8845   -1.4801 C   0  0  0  0  0  0  0  0  0  0  0  0
    5.0647   -0.1952   -2.5048 C   0  0  0  0  0  0  0  0  0  0  0  0
    4.5877    0.2147   -3.9001 C   0  0  0  0  0  0  0  0  0  0  0  0
    6.5714   -0.4565   -2.5278 C   0  0  0  0  0  0  0  0  0  0  0  0
    1.0413   -1.4031    0.3893 C   0  0  0  0  0  0  0  0  0  0  0  0
   -0.2555   -1.4450    1.2348 C   0  0  0  0  0  0  0  0  0  0  0  0
   -3.3751   -0.4155    0.3812 N   0  0  0  0  0  0  0  0  0  0  0  0
   -4.6807   -0.4423    0.7004 C   0  0  0  0  0  0  0  0  0  0  0  0
   -5.6286   -0.5141   -0.3137 C   0  0  0  0  0  0  0  0  0  0  0  0
   -8.5345   -0.6918   -2.9296 H   0  0  0  0  0  0  0  0  0  0  0  0
   -7.0289   -1.5383   -2.5522 H   0  0  0  0  0  0  0  0  0  0  0  0
   -7.0848    0.2675   -2.6087 H   0  0  0  0  0  0  0  0  0  0  0  0
   -8.4876   -0.5270    1.5163 H   0  0  0  0  0  0  0  0  0  0  0  0
   -6.8489   -0.3976    3.3528 H   0  0  0  0  0  0  0  0  0  0  0  0
   -4.4544   -0.2823    4.0829 H   0  0  0  0  0  0  0  0  0  0  0  0
   -0.2868    1.3356    1.8845 H   0  0  0  0  0  0  0  0  0  0  0  0
   -1.1775    1.7385    0.4105 H   0  0  0  0  0  0  0  0  0  0  0  0
    1.2848    1.9490    0.0643 H   0  0  0  0  0  0  0  0  0  0  0  0
    0.5359    0.8113   -1.0217 H   0  0  0  0  0  0  0  0  0  0  0  0
    2.9909   -0.7379    2.0024 H   0  0  0  0  0  0  0  0  0  0  0  0
    1.6521    0.2755    2.5062 H   0  0  0  0  0  0  0  0  0  0  0  0
    6.0795    0.4756    0.1334 H   0  0  0  0  0  0  0  0  0  0  0  0
    4.6183   -0.5092    0.1916 H   0  0  0  0  0  0  0  0  0  0  0  0
    3.5981    1.0839   -1.5687 H   0  0  0  0  0  0  0  0  0  0  0  0
    5.1768    1.8298   -1.7232 H   0  0  0  0  0  0  0  0  0  0  0  0
    4.5575   -1.1316   -2.2391 H   0  0  0  0  0  0  0  0  0  0  0  0
    3.5031    0.3667   -3.9117 H   0  0  0  0  0  0  0  0  0  0  0  0
    4.8223   -0.5623   -4.6355 H   0  0  0  0  0  0  0  0  0  0  0  0
    5.0645    1.1454   -4.2262 H   0  0  0  0  0  0  0  0  0  0  0  0
    6.9192   -0.8661   -1.5745 H   0  0  0  0  0  0  0  0  0  0  0  0
    7.1309    0.4636   -2.7286 H   0  0  0  0  0  0  0  0  0  0  0  0
    6.8272   -1.1840   -3.3058 H   0  0  0  0  0  0  0  0  0  0  0  0
    0.7829   -1.6278   -0.6543 H   0  0  0  0  0  0  0  0  0  0  0  0
    1.7122   -2.2113    0.7053 H   0  0  0  0  0  0  0  0  0  0  0  0
   -0.7634   -2.3986    1.0444 H   0  0  0  0  0  0  0  0  0  0  0  0
    0.0111   -1.4182    2.2956 H   0  0  0  0  0  0  0  0  0  0  0  0
   -5.2569   -0.5456   -1.3330 H   0  0  0  0  0  0  0  0  0  0  0  0
  1  2  1  0
  2  3  1  0
  3  4  2  0
  4  5  1  0
  5  6  2  0
  6  7  1  0
  7  8  2  0
  8  9  1  0
  9 10  3  0
  8 11  1  0
 11 12  1  0
 12 13  1  0
 13 14  1  0
 14 15  1  0
 15 16  1  0
 16 17  1  0
 17 18  2  0
 18 19  1  0
 19 20  2  0
 20 21  1  0
 21 22  1  0
 22 23  1  0
 23 24  1  0
 24 25  1  0
 24 26  1  0
 15 27  1  0
 27 28  1  0
 11 29  2  0
 29 30  1  0
 30 31  2  0
 31  3  1  0
 30  6  1  0
 28 12  1  0
 21 17  1  0
  1 32  1  0
  1 33  1  0
  1 34  1  0
  4 35  1  0
  5 36  1  0
  7 37  1  0
 13 38  1  0
 13 39  1  0
 14 40  1  0
 14 41  1  0
 16 42  1  0
 16 43  1  0
 22 44  1  0
 22 45  1  0
 23 46  1  0
 23 47  1  0
 24 48  1  0
 25 49  1  0
 25 50  1  0
 25 51  1  0
 26 52  1  0
 26 53  1  0
 26 54  1  0
 27 55  1  0
 27 56  1  0
 28 57  1  0
 28 58  1  0
 31 59  1  0
M  END
$$$$
