
     RDKit          3D

 32 35  0  0  0  0  0  0  0  0999 V2000
   -5.1301    3.3118   -0.1546 C   0  0  0  0  0  0  0  0  0  0  0  0
   -3.9370    2.5430   -0.1082 O   0  0  0  0  0  0  0  0  0  0  0  0
   -4.0613    1.1795   -0.0212 C   0  0  0  0  0  0  0  0  0  0  0  0
   -5.2853    0.4917    0.0250 C   0  0  0  0  0  0  0  0  0  0  0  0
   -5.3278   -0.8989    0.1135 C   0  0  0  0  0  0  0  0  0  0  0  0
   -4.1540   -1.6505    0.1589 C   0  0  0  0  0  0  0  0  0  0  0  0
   -2.9306   -0.9658    0.1129 C   0  0  0  0  0  0  0  0  0  0  0  0
   -1.3387   -1.6106    0.1507 S   0  0  0  0  0  0  0  0  0  0  0  0
   -0.6690   -0.0284    0.0487 C   0  0  0  0  0  0  0  0  0  0  0  0
    0.6494    0.2665    0.0273 N   0  0  0  0  0  0  0  0  0  0  0  0
    1.7158   -0.5439    0.0767 C   0  0  0  0  0  0  0  0  0  0  0  0
    1.8414   -1.8500    0.1595 N   0  0  0  0  0  0  0  0  0  0  0  0
    3.1935   -2.1202    0.1739 N   0  0  0  0  0  0  0  0  0  0  0  0
    3.8164   -0.9583    0.0988 C   0  0  0  0  0  0  0  0  0  0  0  0
    5.2436   -0.8143    0.0868 C   0  0  0  0  0  0  0  0  0  0  0  0
    6.1833   -1.8265    0.1492 C   0  0  0  0  0  0  0  0  0  0  0  0
    7.5211   -1.3340    0.1152 C   0  0  0  0  0  0  0  0  0  0  0  0
    7.5602    0.0392    0.0278 C   0  0  0  0  0  0  0  0  0  0  0  0
    5.9932    0.7235   -0.0125 S   0  0  0  0  0  0  0  0  0  0  0  0
    2.9268    0.0887    0.0340 O   0  0  0  0  0  0  0  0  0  0  0  0
   -1.5627    0.9317   -0.0105 N   0  0  0  0  0  0  0  0  0  0  0  0
   -2.8586    0.4235    0.0244 C   0  0  0  0  0  0  0  0  0  0  0  0
   -5.7218    3.0698   -1.0436 H   0  0  0  0  0  0  0  0  0  0  0  0
   -4.8460    4.3665   -0.2223 H   0  0  0  0  0  0  0  0  0  0  0  0
   -5.7182    3.1845    0.7602 H   0  0  0  0  0  0  0  0  0  0  0  0
   -6.2323    1.0216   -0.0068 H   0  0  0  0  0  0  0  0  0  0  0  0
   -6.2897   -1.4070    0.1478 H   0  0  0  0  0  0  0  0  0  0  0  0
   -4.1871   -2.7338    0.2279 H   0  0  0  0  0  0  0  0  0  0  0  0
    0.8440    1.2575   -0.0361 H   0  0  0  0  0  0  0  0  0  0  0  0
    5.9210   -2.8768    0.2165 H   0  0  0  0  0  0  0  0  0  0  0  0
    8.4073   -1.9562    0.1530 H   0  0  0  0  0  0  0  0  0  0  0  0
    8.4333    0.6763   -0.0145 H   0  0  0  0  0  0  0  0  0  0  0  0
  1  2  1  0
  2  3  1  0
  3  4  2  0
  4  5  1  0
  5  6  2  0
  6  7  1  0
  7  8  1  0
  8  9  1  0
  9 10  1  0
 10 11  1  0
 11 12  2  0
 12 13  1  0
 13 14  2  0
 14 15  1  0
 15 16  2  0
 16 17  1  0
 17 18  2  0
 18 19  1  0
 14 20  1  0
  9 21  2  0
 21 22  1  0
 22  3  1  0
 22  7  2  0
 20 11  1  0
 19 15  1  0
  1 23  1  0
  1 24  1  0
  1 25  1  0
  4 26  1  0
  5 27  1  0
  6 28  1  0
 10 29  1  0
 16 30  1  0
 17 31  1  0
 18 32  1  0
M  END
$$$$
