
     RDKit          3D

 47 49  0  0  0  0  0  0  0  0999 V2000
    4.6227    1.8423   -3.6119 C   0  0  0  0  0  0  0  0  0  0  0  0
    3.6143    1.7221   -2.5021 C   0  0  0  0  0  0  0  0  0  0  0  0
    3.9017    0.9059   -1.3991 C   0  0  0  0  0  0  0  0  0  0  0  0
    2.9908    0.7712   -0.3499 C   0  0  0  0  0  0  0  0  0  0  0  0
    1.7699    1.4548   -0.3737 C   0  0  0  0  0  0  0  0  0  0  0  0
    0.7794    1.2730    0.7632 C   0  0  0  0  0  0  0  0  0  0  0  0
    0.3438    2.6122    1.3662 C   0  0  0  0  0  0  0  0  0  0  0  0
   -0.3582    0.5028    0.2877 N   0  0  0  0  0  0  0  0  0  0  0  0
   -1.2156   -0.1393    1.1531 C   0  0  0  0  0  0  0  0  0  0  0  0
   -1.1021   -0.0657    2.3708 O   0  0  0  0  0  0  0  0  0  0  0  0
   -2.2397   -0.9370    0.5106 C   0  0  0  0  0  0  0  0  0  0  0  0
   -2.8421   -2.1580    0.9548 C   0  0  0  0  0  0  0  0  0  0  0  0
   -2.5543   -2.9707    2.1381 C   0  0  0  0  0  0  0  0  0  0  0  0
   -1.2397   -3.1904    2.5709 C   0  0  0  0  0  0  0  0  0  0  0  0
   -0.9845   -3.9803    3.6958 C   0  0  0  0  0  0  0  0  0  0  0  0
   -2.0390   -4.5650    4.3943 C   0  0  0  0  0  0  0  0  0  0  0  0
   -3.3499   -4.3640    3.9688 C   0  0  0  0  0  0  0  0  0  0  0  0
   -3.6061   -3.5737    2.8456 C   0  0  0  0  0  0  0  0  0  0  0  0
   -3.7876   -2.5541    0.0847 N   0  0  0  0  0  0  0  0  0  0  0  0
   -3.8210   -1.6141   -0.9156 O   0  0  0  0  0  0  0  0  0  0  0  0
   -2.9116   -0.6420   -0.6609 C   0  0  0  0  0  0  0  0  0  0  0  0
   -2.8827    0.4700   -1.6319 C   0  0  0  0  0  0  0  0  0  0  0  0
    1.4782    2.2654   -1.4836 C   0  0  0  0  0  0  0  0  0  0  0  0
    2.3863    2.4091   -2.5465 C   0  0  0  0  0  0  0  0  0  0  0  0
    2.0272    3.2964   -3.7075 C   0  0  0  0  0  0  0  0  0  0  0  0
    4.1972    1.4799   -4.5530 H   0  0  0  0  0  0  0  0  0  0  0  0
    5.5202    1.2493   -3.4059 H   0  0  0  0  0  0  0  0  0  0  0  0
    4.9371    2.8841   -3.7293 H   0  0  0  0  0  0  0  0  0  0  0  0
    4.8443    0.3642   -1.3480 H   0  0  0  0  0  0  0  0  0  0  0  0
    3.2465    0.1254    0.4877 H   0  0  0  0  0  0  0  0  0  0  0  0
    1.2549    0.6918    1.5640 H   0  0  0  0  0  0  0  0  0  0  0  0
   -0.2798    2.4599    2.2534 H   0  0  0  0  0  0  0  0  0  0  0  0
   -0.2468    3.2068    0.6606 H   0  0  0  0  0  0  0  0  0  0  0  0
    1.2125    3.2078    1.6676 H   0  0  0  0  0  0  0  0  0  0  0  0
   -0.3524    0.2212   -0.6829 H   0  0  0  0  0  0  0  0  0  0  0  0
   -0.3968   -2.7551    2.0411 H   0  0  0  0  0  0  0  0  0  0  0  0
    0.0390   -4.1374    4.0261 H   0  0  0  0  0  0  0  0  0  0  0  0
   -1.8389   -5.1780    5.2692 H   0  0  0  0  0  0  0  0  0  0  0  0
   -4.1748   -4.8213    4.5088 H   0  0  0  0  0  0  0  0  0  0  0  0
   -4.6361   -3.4287    2.5250 H   0  0  0  0  0  0  0  0  0  0  0  0
   -2.0714    0.3269   -2.3520 H   0  0  0  0  0  0  0  0  0  0  0  0
   -2.7334    1.4284   -1.1253 H   0  0  0  0  0  0  0  0  0  0  0  0
   -3.8232    0.5327   -2.1887 H   0  0  0  0  0  0  0  0  0  0  0  0
    0.5274    2.7941   -1.5244 H   0  0  0  0  0  0  0  0  0  0  0  0
    1.0347    3.7421   -3.5817 H   0  0  0  0  0  0  0  0  0  0  0  0
    2.0124    2.7191   -4.6373 H   0  0  0  0  0  0  0  0  0  0  0  0
    2.7473    4.1159   -3.7965 H   0  0  0  0  0  0  0  0  0  0  0  0
  1  2  1  0
  2  3  2  0
  3  4  1  0
  4  5  2  0
  5  6  1  0
  6  7  1  0
  6  8  1  0
  8  9  1  0
  9 10  2  0
  9 11  1  0
 11 12  1  0
 12 13  1  0
 13 14  2  0
 14 15  1  0
 15 16  2  0
 16 17  1  0
 17 18  2  0
 12 19  2  0
 19 20  1  0
 20 21  1  0
 21 22  1  0
  5 23  1  0
 23 24  2  0
 24 25  1  0
 24  2  1  0
 21 11  2  0
 18 13  1  0
  1 26  1  0
  1 27  1  0
  1 28  1  0
  3 29  1  0
  4 30  1  0
  6 31  1  0
  7 32  1  0
  7 33  1  0
  7 34  1  0
  8 35  1  0
 14 36  1  0
 15 37  1  0
 16 38  1  0
 17 39  1  0
 18 40  1  0
 22 41  1  0
 22 42  1  0
 22 43  1  0
 23 44  1  0
 25 45  1  0
 25 46  1  0
 25 47  1  0
M  END
$$$$
