
     RDKit          3D

 72 76  0  0  0  0  0  0  0  0999 V2000
    9.6184   -1.0716   -1.9190 C   0  0  0  0  0  0  0  0  0  0  0  0
    9.1270    0.1053   -1.2892 O   0  0  0  0  0  0  0  0  0  0  0  0
    7.7736    0.1960   -1.1196 C   0  0  0  0  0  0  0  0  0  0  0  0
    7.3374    1.3936   -0.5499 C   0  0  0  0  0  0  0  0  0  0  0  0
    5.9769    1.6201   -0.3213 C   0  0  0  0  0  0  0  0  0  0  0  0
    5.0306    0.6403   -0.6451 C   0  0  0  0  0  0  0  0  0  0  0  0
    3.6036    0.8746   -0.3841 C   0  0  0  0  0  0  0  0  0  0  0  0
    3.0763    2.0678   -0.6838 N   0  0  0  0  0  0  0  0  0  0  0  0
    1.4718    2.0777   -0.3049 S   0  0  0  0  0  0  0  0  0  0  0  0
    1.3932    0.4750    0.2742 C   0  0  0  0  0  0  0  0  0  0  0  0
    0.1781   -0.1090    0.8194 C   0  0  0  0  0  0  0  0  0  0  0  0
    0.2168   -1.0069    1.6646 O   0  0  0  0  0  0  0  0  0  0  0  0
   -1.0680    0.3801    0.3808 N   0  0  0  0  0  0  0  0  0  0  0  0
   -1.4091    0.4033   -1.0246 C   0  0  0  0  0  0  0  0  0  0  0  0
   -2.5101    1.1182   -1.5152 C   0  0  0  0  0  0  0  0  0  0  0  0
   -2.8295    1.1164   -2.8795 C   0  0  0  0  0  0  0  0  0  0  0  0
   -2.0542    0.3923   -3.7696 C   0  0  0  0  0  0  0  0  0  0  0  0
   -2.3623    0.3900   -5.0720 F   0  0  0  0  0  0  0  0  0  0  0  0
   -0.9688   -0.3408   -3.3195 C   0  0  0  0  0  0  0  0  0  0  0  0
   -0.6511   -0.3363   -1.9573 C   0  0  0  0  0  0  0  0  0  0  0  0
   -2.1322    0.4100    1.4258 C   0  0  0  0  0  0  0  0  0  0  0  0
   -3.1163   -0.8018    1.4137 C   0  0  0  0  0  0  0  0  0  0  0  0
   -4.1195   -0.8550    2.1275 O   0  0  0  0  0  0  0  0  0  0  0  0
   -2.7505   -1.8688    0.6110 N   0  0  0  0  0  0  0  0  0  0  0  0
   -3.4640   -3.1261    0.6476 C   0  0  0  0  0  0  0  0  0  0  0  0
   -2.8888   -4.0926    1.6802 C   0  0  0  0  0  0  0  0  0  0  0  0
   -3.3476   -5.4734    1.2147 C   0  0  0  0  0  0  0  0  0  0  0  0
   -3.7423   -5.3219   -0.2561 C   0  0  0  0  0  0  0  0  0  0  0  0
   -3.3320   -3.9108   -0.6528 C   0  0  0  0  0  0  0  0  0  0  0  0
   -2.7350    1.8064    1.6338 C   0  0  0  0  0  0  0  0  0  0  0  0
   -4.1079    2.0786    1.5437 C   0  0  0  0  0  0  0  0  0  0  0  0
   -4.5977    3.3738    1.7422 C   0  0  0  0  0  0  0  0  0  0  0  0
   -3.7344    4.4285    2.0317 C   0  0  0  0  0  0  0  0  0  0  0  0
   -4.3418    5.6402    2.2003 O   0  0  0  0  0  0  0  0  0  0  0  0
   -3.4940    6.7794    2.2072 C   0  0  0  0  0  0  0  0  0  0  0  0
   -2.3707    4.1745    2.1443 C   0  0  0  0  0  0  0  0  0  0  0  0
   -1.8781    2.8784    1.9501 C   0  0  0  0  0  0  0  0  0  0  0  0
    2.6653   -0.0636    0.2070 C   0  0  0  0  0  0  0  0  0  0  0  0
    2.9694   -1.3131    0.6593 N   0  0  0  0  0  0  0  0  0  0  0  0
    5.4724   -0.5564   -1.2262 C   0  0  0  0  0  0  0  0  0  0  0  0
    6.8356   -0.7782   -1.4614 C   0  0  0  0  0  0  0  0  0  0  0  0
    9.2272   -1.1676   -2.9373 H   0  0  0  0  0  0  0  0  0  0  0  0
   10.7061   -0.9836   -1.9886 H   0  0  0  0  0  0  0  0  0  0  0  0
    9.3947   -1.9640   -1.3245 H   0  0  0  0  0  0  0  0  0  0  0  0
    8.0603    2.1610   -0.2872 H   0  0  0  0  0  0  0  0  0  0  0  0
    5.6584    2.5697    0.1087 H   0  0  0  0  0  0  0  0  0  0  0  0
   -3.1347    1.7291   -0.8777 H   0  0  0  0  0  0  0  0  0  0  0  0
   -3.6769    1.6888   -3.2491 H   0  0  0  0  0  0  0  0  0  0  0  0
   -0.3787   -0.9168   -4.0267 H   0  0  0  0  0  0  0  0  0  0  0  0
    0.1870   -0.9620   -1.6517 H   0  0  0  0  0  0  0  0  0  0  0  0
   -1.6229    0.2424    2.3897 H   0  0  0  0  0  0  0  0  0  0  0  0
   -1.7894   -1.8873    0.2891 H   0  0  0  0  0  0  0  0  0  0  0  0
   -4.5255   -2.9399    0.8661 H   0  0  0  0  0  0  0  0  0  0  0  0
   -1.7910   -4.0516    1.6796 H   0  0  0  0  0  0  0  0  0  0  0  0
   -3.2232   -3.8638    2.6979 H   0  0  0  0  0  0  0  0  0  0  0  0
   -2.5498   -6.2135    1.3411 H   0  0  0  0  0  0  0  0  0  0  0  0
   -4.2072   -5.8130    1.8037 H   0  0  0  0  0  0  0  0  0  0  0  0
   -3.2717   -6.0794   -0.8909 H   0  0  0  0  0  0  0  0  0  0  0  0
   -4.8280   -5.4395   -0.3566 H   0  0  0  0  0  0  0  0  0  0  0  0
   -2.2941   -3.9064   -1.0126 H   0  0  0  0  0  0  0  0  0  0  0  0
   -3.9615   -3.5022   -1.4496 H   0  0  0  0  0  0  0  0  0  0  0  0
   -4.8295    1.2975    1.3130 H   0  0  0  0  0  0  0  0  0  0  0  0
   -5.6671    3.5585    1.6659 H   0  0  0  0  0  0  0  0  0  0  0  0
   -4.1314    7.6699    2.2322 H   0  0  0  0  0  0  0  0  0  0  0  0
   -2.8667    6.7966    3.1023 H   0  0  0  0  0  0  0  0  0  0  0  0
   -2.8879    6.8300    1.2969 H   0  0  0  0  0  0  0  0  0  0  0  0
   -1.6637    4.9576    2.3940 H   0  0  0  0  0  0  0  0  0  0  0  0
   -0.8079    2.7128    2.0587 H   0  0  0  0  0  0  0  0  0  0  0  0
    2.3162   -1.7574    1.3141 H   0  0  0  0  0  0  0  0  0  0  0  0
    3.9326   -1.5120    0.9282 H   0  0  0  0  0  0  0  0  0  0  0  0
    4.7587   -1.3270   -1.5124 H   0  0  0  0  0  0  0  0  0  0  0  0
    7.1275   -1.7207   -1.9136 H   0  0  0  0  0  0  0  0  0  0  0  0
  1  2  1  0
  2  3  1  0
  3  4  2  0
  4  5  1  0
  5  6  2  0
  6  7  1  0
  7  8  2  0
  8  9  1  0
  9 10  1  0
 10 11  1  0
 11 12  2  0
 11 13  1  0
 13 14  1  0
 14 15  2  0
 15 16  1  0
 16 17  2  0
 17 18  1  0
 17 19  1  0
 19 20  2  0
 13 21  1  0
 21 22  1  0
 22 23  2  0
 22 24  1  0
 24 25  1  0
 25 26  1  0
 26 27  1  0
 27 28  1  0
 28 29  1  0
 21 30  1  0
 30 31  2  0
 31 32  1  0
 32 33  2  0
 33 34  1  0
 34 35  1  0
 33 36  1  0
 36 37  2  0
 10 38  2  0
 38 39  1  0
  6 40  1  0
 40 41  2  0
 41  3  1  0
 38  7  1  0
 20 14  1  0
 29 25  1  0
 37 30  1  0
  1 42  1  0
  1 43  1  0
  1 44  1  0
  4 45  1  0
  5 46  1  0
 15 47  1  0
 16 48  1  0
 19 49  1  0
 20 50  1  0
 21 51  1  0
 24 52  1  0
 25 53  1  0
 26 54  1  0
 26 55  1  0
 27 56  1  0
 27 57  1  0
 28 58  1  0
 28 59  1  0
 29 60  1  0
 29 61  1  0
 31 62  1  0
 32 63  1  0
 35 64  1  0
 35 65  1  0
 35 66  1  0
 36 67  1  0
 37 68  1  0
 39 69  1  0
 39 70  1  0
 40 71  1  0
 41 72  1  0
M  END
$$$$
