
     RDKit          3D

 61 63  0  0  0  0  0  0  0  0999 V2000
   -7.3514    0.3240   -1.3699 C   0  0  0  0  0  0  0  0  0  0  0  0
   -6.4977    1.3087   -0.5829 C   0  0  0  0  0  0  0  0  0  0  0  0
   -4.9891    1.0729   -0.7544 C   0  0  0  0  0  0  0  0  0  0  0  0
   -4.5578   -0.2820   -0.3687 N   0  0  0  0  0  0  0  0  0  0  0  0
   -4.5127   -0.4319    1.0958 C   0  0  0  0  0  0  0  0  0  0  0  0
   -4.2607   -1.8637    1.5902 C   0  0  0  0  0  0  0  0  0  0  0  0
   -5.3149   -2.8543    1.1177 C   0  0  0  0  0  0  0  0  0  0  0  0
   -3.3099   -0.6836   -1.0508 C   0  0  0  0  0  0  0  0  0  0  0  0
   -1.9735   -0.0418   -0.6182 C   0  0  0  0  0  0  0  0  0  0  0  0
   -1.9379    1.3863   -0.9350 N   0  0  0  0  0  0  0  0  0  0  0  0
   -1.1212    2.4538    0.0547 S   0  0  0  0  0  6  0  0  0  0  0  0
   -1.1542    3.7385   -0.6068 O   0  0  0  0  0  0  0  0  0  0  0  0
   -1.6072    2.2756    1.4048 O   0  0  0  0  0  0  0  0  0  0  0  0
    0.5455    1.8438   -0.0236 C   0  0  0  0  0  0  0  0  0  0  0  0
    1.2982    2.0678   -1.1890 C   0  0  0  0  0  0  0  0  0  0  0  0
    2.6100    1.5903   -1.2794 C   0  0  0  0  0  0  0  0  0  0  0  0
    3.1476    0.9102   -0.1974 C   0  0  0  0  0  0  0  0  0  0  0  0
    2.3961    0.7078    0.9635 C   0  0  0  0  0  0  0  0  0  0  0  0
    1.0912    1.1670    1.0714 C   0  0  0  0  0  0  0  0  0  0  0  0
    3.1694   -0.0582    1.9876 C   0  0  0  0  0  0  0  0  0  0  0  0
    4.5437   -0.1872    1.3199 C   0  0  0  0  0  0  0  0  0  0  0  0
    4.4294    0.3483   -0.0465 N   0  0  0  0  0  0  0  0  0  0  0  0
    5.4354    0.3310   -1.0086 C   0  0  0  0  0  0  0  0  0  0  0  0
    5.2851    0.7905   -2.1469 O   0  0  0  0  0  0  0  0  0  0  0  0
    6.7813   -0.3142   -0.5646 C   0  0  0  0  0  0  0  0  0  0  0  0
    7.9905   -0.2077   -1.5410 C   0  0  0  0  0  0  0  0  0  0  0  0
    8.3983   -1.6215   -1.0896 C   0  0  0  0  0  0  0  0  0  0  0  0
    6.9206   -1.8542   -0.7276 C   0  0  0  0  0  0  0  0  0  0  0  0
   -7.0884    0.3388   -2.4327 H   0  0  0  0  0  0  0  0  0  0  0  0
   -7.2292   -0.6978   -0.9972 H   0  0  0  0  0  0  0  0  0  0  0  0
   -8.4103    0.5876   -1.2797 H   0  0  0  0  0  0  0  0  0  0  0  0
   -6.7831    1.2750    0.4737 H   0  0  0  0  0  0  0  0  0  0  0  0
   -6.7276    2.3238   -0.9294 H   0  0  0  0  0  0  0  0  0  0  0  0
   -4.7649    1.2471   -1.8149 H   0  0  0  0  0  0  0  0  0  0  0  0
   -4.4450    1.8381   -0.1879 H   0  0  0  0  0  0  0  0  0  0  0  0
   -5.4718   -0.1216    1.5260 H   0  0  0  0  0  0  0  0  0  0  0  0
   -3.7591    0.2339    1.5327 H   0  0  0  0  0  0  0  0  0  0  0  0
   -4.2611   -1.8531    2.6871 H   0  0  0  0  0  0  0  0  0  0  0  0
   -3.2671   -2.2127    1.2896 H   0  0  0  0  0  0  0  0  0  0  0  0
   -5.1243   -3.8410    1.5514 H   0  0  0  0  0  0  0  0  0  0  0  0
   -5.3063   -2.9615    0.0292 H   0  0  0  0  0  0  0  0  0  0  0  0
   -6.3166   -2.5384    1.4258 H   0  0  0  0  0  0  0  0  0  0  0  0
   -3.2028   -1.7703   -0.9473 H   0  0  0  0  0  0  0  0  0  0  0  0
   -3.4388   -0.5324   -2.1311 H   0  0  0  0  0  0  0  0  0  0  0  0
   -1.7939   -0.2224    0.4454 H   0  0  0  0  0  0  0  0  0  0  0  0
   -1.1620   -0.5301   -1.1698 H   0  0  0  0  0  0  0  0  0  0  0  0
   -2.0732    1.6932   -1.8959 H   0  0  0  0  0  0  0  0  0  0  0  0
    0.8707    2.6163   -2.0259 H   0  0  0  0  0  0  0  0  0  0  0  0
    3.1803    1.7706   -2.1847 H   0  0  0  0  0  0  0  0  0  0  0  0
    0.5157    1.0029    1.9781 H   0  0  0  0  0  0  0  0  0  0  0  0
    2.7210   -1.0426    2.1533 H   0  0  0  0  0  0  0  0  0  0  0  0
    3.2371    0.4808    2.9370 H   0  0  0  0  0  0  0  0  0  0  0  0
    4.8769   -1.2291    1.2856 H   0  0  0  0  0  0  0  0  0  0  0  0
    5.2975    0.3976    1.8597 H   0  0  0  0  0  0  0  0  0  0  0  0
    7.0849    0.0229    0.4369 H   0  0  0  0  0  0  0  0  0  0  0  0
    7.7225   -0.1497   -2.6019 H   0  0  0  0  0  0  0  0  0  0  0  0
    8.7118    0.5819   -1.3157 H   0  0  0  0  0  0  0  0  0  0  0  0
    9.0708   -1.6314   -0.2247 H   0  0  0  0  0  0  0  0  0  0  0  0
    8.8066   -2.2713   -1.8673 H   0  0  0  0  0  0  0  0  0  0  0  0
    6.3248   -2.2749   -1.5457 H   0  0  0  0  0  0  0  0  0  0  0  0
    6.7510   -2.4462    0.1750 H   0  0  0  0  0  0  0  0  0  0  0  0
  1  2  1  0
  2  3  1  0
  3  4  1  0
  4  5  1  0
  5  6  1  0
  6  7  1  0
  4  8  1  0
  8  9  1  0
  9 10  1  0
 10 11  1  0
 11 12  2  0
 11 13  2  0
 11 14  1  0
 14 15  2  0
 15 16  1  0
 16 17  2  0
 17 18  1  0
 18 19  2  0
 18 20  1  0
 20 21  1  0
 21 22  1  0
 22 23  1  0
 23 24  2  0
 23 25  1  0
 25 26  1  0
 26 27  1  0
 27 28  1  0
 19 14  1  0
 28 25  1  0
 22 17  1  0
  1 29  1  0
  1 30  1  0
  1 31  1  0
  2 32  1  0
  2 33  1  0
  3 34  1  0
  3 35  1  0
  5 36  1  0
  5 37  1  0
  6 38  1  0
  6 39  1  0
  7 40  1  0
  7 41  1  0
  7 42  1  0
  8 43  1  0
  8 44  1  0
  9 45  1  0
  9 46  1  0
 10 47  1  0
 15 48  1  0
 16 49  1  0
 19 50  1  0
 20 51  1  0
 20 52  1  0
 21 53  1  0
 21 54  1  0
 25 55  1  0
 26 56  1  0
 26 57  1  0
 27 58  1  0
 27 59  1  0
 28 60  1  0
 28 61  1  0
M  END
$$$$
