
     RDKit          3D

 45 47  0  0  0  0  0  0  0  0999 V2000
    5.1009    3.4665    0.3348 C   0  0  0  0  0  0  0  0  0  0  0  0
    4.1335    2.3589    0.6309 C   0  0  0  0  0  0  0  0  0  0  0  0
    3.2340    2.4686    1.6928 C   0  0  0  0  0  0  0  0  0  0  0  0
    2.3513    1.4251    1.9789 C   0  0  0  0  0  0  0  0  0  0  0  0
    2.3603    0.2437    1.2193 C   0  0  0  0  0  0  0  0  0  0  0  0
    1.4103   -0.8130    1.5428 C   0  0  0  0  0  0  0  0  0  0  0  0
    1.2394   -1.3218    2.8148 C   0  0  0  0  0  0  0  0  0  0  0  0
    0.0408   -2.5465    2.7992 S   0  0  0  0  0  0  0  0  0  0  0  0
   -0.1660   -2.3124    1.1054 C   0  0  0  0  0  0  0  0  0  0  0  0
   -1.1807   -3.1108    0.3486 C   0  0  0  0  0  0  0  0  0  0  0  0
   -0.5179   -4.0267   -0.5828 C   0  0  0  0  0  0  0  0  0  0  0  0
   -0.0169   -4.7698   -1.3222 N   0  0  0  0  0  0  0  0  0  0  0  0
   -2.0252   -2.1310   -0.4205 C   0  0  0  0  0  0  0  0  0  0  0  0
   -3.2762   -1.9600   -0.1224 N   0  0  0  0  0  0  0  0  0  0  0  0
   -3.9533   -0.9665   -0.8554 C   0  0  0  0  0  0  0  0  0  0  0  0
   -4.6315   -1.3391   -2.0222 C   0  0  0  0  0  0  0  0  0  0  0  0
   -5.3373   -0.3952   -2.7692 C   0  0  0  0  0  0  0  0  0  0  0  0
   -5.3841    0.9312   -2.3475 C   0  0  0  0  0  0  0  0  0  0  0  0
   -4.7271    1.3161   -1.1777 C   0  0  0  0  0  0  0  0  0  0  0  0
   -4.0059    0.3768   -0.4266 C   0  0  0  0  0  0  0  0  0  0  0  0
   -3.1906    0.9107    1.0774 S   0  0  0  0  0  0  0  0  0  0  0  0
   -1.7611    1.6977    0.3363 C   0  0  0  0  0  0  0  0  0  0  0  0
   -1.1473    0.8993   -0.5668 F   0  0  0  0  0  0  0  0  0  0  0  0
   -2.1042    2.8437   -0.3015 F   0  0  0  0  0  0  0  0  0  0  0  0
   -0.8485    2.0271    1.2814 F   0  0  0  0  0  0  0  0  0  0  0  0
    0.6058   -1.3858    0.5735 N   0  0  0  0  0  0  0  0  0  0  0  0
    3.2781    0.1141    0.1575 C   0  0  0  0  0  0  0  0  0  0  0  0
    3.3393   -1.1180   -0.7061 C   0  0  0  0  0  0  0  0  0  0  0  0
    4.1542    1.1790   -0.1236 C   0  0  0  0  0  0  0  0  0  0  0  0
    5.3316    3.5078   -0.7349 H   0  0  0  0  0  0  0  0  0  0  0  0
    6.0297    3.3107    0.8920 H   0  0  0  0  0  0  0  0  0  0  0  0
    4.6802    4.4385    0.6132 H   0  0  0  0  0  0  0  0  0  0  0  0
    3.2041    3.3716    2.2983 H   0  0  0  0  0  0  0  0  0  0  0  0
    1.6388    1.5542    2.7910 H   0  0  0  0  0  0  0  0  0  0  0  0
    1.7506   -1.0491    3.7273 H   0  0  0  0  0  0  0  0  0  0  0  0
   -1.8301   -3.6758    1.0276 H   0  0  0  0  0  0  0  0  0  0  0  0
   -1.5280   -1.5486   -1.2216 H   0  0  0  0  0  0  0  0  0  0  0  0
   -4.6149   -2.3766   -2.3463 H   0  0  0  0  0  0  0  0  0  0  0  0
   -5.8582   -0.6984   -3.6742 H   0  0  0  0  0  0  0  0  0  0  0  0
   -5.9408    1.6659   -2.9248 H   0  0  0  0  0  0  0  0  0  0  0  0
   -4.7888    2.3545   -0.8583 H   0  0  0  0  0  0  0  0  0  0  0  0
    2.4894   -1.1402   -1.3952 H   0  0  0  0  0  0  0  0  0  0  0  0
    3.3427   -2.0256   -0.0939 H   0  0  0  0  0  0  0  0  0  0  0  0
    4.2569   -1.1387   -1.3041 H   0  0  0  0  0  0  0  0  0  0  0  0
    4.8628    1.0869   -0.9456 H   0  0  0  0  0  0  0  0  0  0  0  0
  1  2  1  0
  2  3  2  0
  3  4  1  0
  4  5  2  0
  5  6  1  0
  6  7  2  0
  7  8  1  0
  8  9  1  0
  9 10  1  0
 10 11  1  0
 11 12  3  0
 10 13  1  0
 13 14  2  3
 14 15  1  0
 15 16  2  0
 16 17  1  0
 17 18  2  0
 18 19  1  0
 19 20  2  0
 20 21  1  0
 21 22  1  0
 22 23  1  0
 22 24  1  0
 22 25  1  0
  9 26  2  0
  5 27  1  0
 27 28  1  0
 27 29  2  0
 29  2  1  0
 26  6  1  0
 20 15  1  0
  1 30  1  0
  1 31  1  0
  1 32  1  0
  3 33  1  0
  4 34  1  0
  7 35  1  0
 10 36  1  0
 13 37  1  0
 16 38  1  0
 17 39  1  0
 18 40  1  0
 19 41  1  0
 28 42  1  0
 28 43  1  0
 28 44  1  0
 29 45  1  0
M  END
$$$$
