
     RDKit          3D

 33 34  0  0  0  0  0  0  0  0999 V2000
    0.1881   -3.5956   -0.1692 O   0  0  0  0  0  0  0  0  0  0  0  0
    0.1774   -2.5789    0.5174 C   0  0  0  0  0  0  0  0  0  0  0  0
   -0.9829   -2.2817    1.4704 C   0  0  0  0  0  0  0  0  0  0  0  0
   -2.0530   -1.5516    0.8670 O   0  0  0  0  0  0  0  0  0  0  0  0
   -1.8071   -0.2388    0.6527 C   0  0  0  0  0  0  0  0  0  0  0  0
   -0.7579    0.3326    0.9106 O   0  0  0  0  0  0  0  0  0  0  0  0
   -2.9831    0.4257    0.0522 C   0  0  0  0  0  0  0  0  0  0  0  0
   -4.1364   -0.2548   -0.3500 C   0  0  0  0  0  0  0  0  0  0  0  0
   -5.1929    0.4626   -0.9127 C   0  0  0  0  0  0  0  0  0  0  0  0
   -5.0514    1.8338   -1.0501 C   0  0  0  0  0  0  0  0  0  0  0  0
   -6.3026    2.7859   -1.7304 Cl  0  0  0  0  0  0  0  0  0  0  0  0
   -3.9549    2.5244   -0.6748 N   0  0  0  0  0  0  0  0  0  0  0  0
   -2.9436    1.8033   -0.1323 C   0  0  0  0  0  0  0  0  0  0  0  0
    1.1204   -1.5670    0.4810 N   0  0  0  0  0  0  0  0  0  0  0  0
    2.3694   -1.6742   -0.0973 C   0  0  0  0  0  0  0  0  0  0  0  0
    2.9561   -2.7286   -0.3090 O   0  0  0  0  0  0  0  0  0  0  0  0
    3.0788   -0.3855   -0.3414 C   0  0  0  0  0  0  0  0  0  0  0  0
    4.4783   -0.3732   -0.2753 C   0  0  0  0  0  0  0  0  0  0  0  0
    5.1826    0.8116   -0.4959 C   0  0  0  0  0  0  0  0  0  0  0  0
    4.4935    1.9864   -0.7930 C   0  0  0  0  0  0  0  0  0  0  0  0
    3.1014    1.9777   -0.8788 C   0  0  0  0  0  0  0  0  0  0  0  0
    2.3921    0.7943   -0.6586 C   0  0  0  0  0  0  0  0  0  0  0  0
   -1.3881   -3.2408    1.8117 H   0  0  0  0  0  0  0  0  0  0  0  0
   -0.6204   -1.7658    2.3684 H   0  0  0  0  0  0  0  0  0  0  0  0
   -4.2252   -1.3327   -0.2378 H   0  0  0  0  0  0  0  0  0  0  0  0
   -6.0983   -0.0403   -1.2348 H   0  0  0  0  0  0  0  0  0  0  0  0
   -2.0760    2.3918    0.1586 H   0  0  0  0  0  0  0  0  0  0  0  0
    0.8192   -0.6583    0.8224 H   0  0  0  0  0  0  0  0  0  0  0  0
    5.0238   -1.2885   -0.0516 H   0  0  0  0  0  0  0  0  0  0  0  0
    6.2686    0.8150   -0.4411 H   0  0  0  0  0  0  0  0  0  0  0  0
    5.0435    2.9079   -0.9693 H   0  0  0  0  0  0  0  0  0  0  0  0
    2.5692    2.8928   -1.1283 H   0  0  0  0  0  0  0  0  0  0  0  0
    1.3116    0.8103   -0.7665 H   0  0  0  0  0  0  0  0  0  0  0  0
  1  2  2  0
  2  3  1  0
  3  4  1  0
  4  5  1  0
  5  6  2  0
  5  7  1  0
  7  8  2  0
  8  9  1  0
  9 10  2  0
 10 11  1  0
 10 12  1  0
 12 13  2  0
  2 14  1  0
 14 15  1  0
 15 16  2  0
 15 17  1  0
 17 18  2  0
 18 19  1  0
 19 20  2  0
 20 21  1  0
 21 22  2  0
 13  7  1  0
 22 17  1  0
  3 23  1  0
  3 24  1  0
  8 25  1  0
  9 26  1  0
 13 27  1  0
 14 28  1  0
 18 29  1  0
 19 30  1  0
 20 31  1  0
 21 32  1  0
 22 33  1  0
M  END
$$$$
