
     RDKit          3D

 39 41  0  0  0  0  0  0  0  0999 V2000
    4.9105   -3.1269   -0.2442 C   0  0  0  0  0  0  0  0  0  0  0  0
    4.8955   -1.6539   -0.0648 C   0  0  0  0  0  0  0  0  0  0  0  0
    6.0377   -0.9991    0.1803 N   0  0  0  0  0  0  0  0  0  0  0  0
    5.6604    0.2875    0.2848 N   0  0  0  0  0  0  0  0  0  0  0  0
    6.6519    1.3004    0.5522 C   0  0  0  0  0  0  0  0  0  0  0  0
    4.3238    0.4744    0.1161 C   0  0  0  0  0  0  0  0  0  0  0  0
    3.7809   -0.7733   -0.1159 C   0  0  0  0  0  0  0  0  0  0  0  0
    2.3927   -1.0852   -0.3534 C   0  0  0  0  0  0  0  0  0  0  0  0
    1.5207   -0.1305   -0.3611 N   0  0  0  0  0  0  0  0  0  0  0  0
    0.2250   -0.5046   -0.5923 N   0  0  0  0  0  0  0  0  0  0  0  0
   -0.7921    0.4430   -0.5489 C   0  0  0  0  0  0  0  0  0  0  0  0
   -0.6179    1.6326   -0.2998 O   0  0  0  0  0  0  0  0  0  0  0  0
   -2.1377   -0.1025   -0.7954 C   0  0  0  0  0  0  0  0  0  0  0  0
   -2.4053   -1.2275   -1.5613 C   0  0  0  0  0  0  0  0  0  0  0  0
   -4.0721   -1.5951   -1.6682 S   0  0  0  0  0  0  0  0  0  0  0  0
   -4.4801   -0.2424   -0.7294 C   0  0  0  0  0  0  0  0  0  0  0  0
   -3.3734    0.4763   -0.3160 C   0  0  0  0  0  0  0  0  0  0  0  0
   -3.5116    1.7235    0.5157 C   0  0  0  0  0  0  0  0  0  0  0  0
   -4.9090    1.8465    1.1433 C   0  0  0  0  0  0  0  0  0  0  0  0
   -6.0160    1.5228    0.1318 C   0  0  0  0  0  0  0  0  0  0  0  0
   -5.9021    0.0823   -0.3875 C   0  0  0  0  0  0  0  0  0  0  0  0
    4.2955   -3.6096    0.5219 H   0  0  0  0  0  0  0  0  0  0  0  0
    5.9246   -3.5331   -0.1692 H   0  0  0  0  0  0  0  0  0  0  0  0
    4.5117   -3.3949   -1.2278 H   0  0  0  0  0  0  0  0  0  0  0  0
    7.1252    1.0745    1.5109 H   0  0  0  0  0  0  0  0  0  0  0  0
    7.3889    1.2829   -0.2545 H   0  0  0  0  0  0  0  0  0  0  0  0
    6.1695    2.2799    0.5956 H   0  0  0  0  0  0  0  0  0  0  0  0
    3.8642    1.4525    0.1712 H   0  0  0  0  0  0  0  0  0  0  0  0
    2.1248   -2.1423   -0.5224 H   0  0  0  0  0  0  0  0  0  0  0  0
   -0.0007   -1.4868   -0.6762 H   0  0  0  0  0  0  0  0  0  0  0  0
   -1.7094   -1.8579   -2.0963 H   0  0  0  0  0  0  0  0  0  0  0  0
   -2.7619    1.7361    1.3146 H   0  0  0  0  0  0  0  0  0  0  0  0
   -3.3271    2.5923   -0.1282 H   0  0  0  0  0  0  0  0  0  0  0  0
   -5.0445    2.8606    1.5359 H   0  0  0  0  0  0  0  0  0  0  0  0
   -4.9902    1.1596    1.9956 H   0  0  0  0  0  0  0  0  0  0  0  0
   -6.9996    1.6682    0.5926 H   0  0  0  0  0  0  0  0  0  0  0  0
   -5.9495    2.2243   -0.7098 H   0  0  0  0  0  0  0  0  0  0  0  0
   -6.2471   -0.6117    0.3890 H   0  0  0  0  0  0  0  0  0  0  0  0
   -6.5560   -0.0427   -1.2581 H   0  0  0  0  0  0  0  0  0  0  0  0
  1  2  1  0
  2  3  2  0
  3  4  1  0
  4  5  1  0
  4  6  1  0
  6  7  2  0
  7  8  1  0
  8  9  2  3
  9 10  1  0
 10 11  1  0
 11 12  2  0
 11 13  1  0
 13 14  2  0
 14 15  1  0
 15 16  1  0
 16 17  2  0
 17 18  1  0
 18 19  1  0
 19 20  1  0
 20 21  1  0
  7  2  1  0
 17 13  1  0
 21 16  1  0
  1 22  1  0
  1 23  1  0
  1 24  1  0
  5 25  1  0
  5 26  1  0
  5 27  1  0
  6 28  1  0
  8 29  1  0
 10 30  1  0
 14 31  1  0
 18 32  1  0
 18 33  1  0
 19 34  1  0
 19 35  1  0
 20 36  1  0
 20 37  1  0
 21 38  1  0
 21 39  1  0
M  END
$$$$
