
     RDKit          3D

 45 48  0  0  0  0  0  0  0  0999 V2000
   -3.3334    0.4498    4.4835 C   0  0  0  0  0  0  0  0  0  0  0  0
   -3.8678    0.0602    3.1183 C   0  0  0  0  0  0  0  0  0  0  0  0
   -2.7817   -0.2387    2.2288 O   0  0  0  0  0  0  0  0  0  0  0  0
   -2.2463    0.8234    1.5737 C   0  0  0  0  0  0  0  0  0  0  0  0
   -2.5911    1.9897    1.6887 O   0  0  0  0  0  0  0  0  0  0  0  0
   -1.1313    0.3533    0.7153 C   0  0  0  0  0  0  0  0  0  0  0  0
   -1.4755   -0.7764   -0.1784 C   0  0  0  0  0  0  0  0  0  0  0  0
   -0.8173   -1.7990   -0.3098 O   0  0  0  0  0  0  0  0  0  0  0  0
   -2.6513   -0.5059   -0.8051 O   0  0  0  0  0  0  0  0  0  0  0  0
   -3.1128   -1.5419   -1.6793 C   0  0  0  0  0  0  0  0  0  0  0  0
   -4.3725   -1.0517   -2.3653 C   0  0  0  0  0  0  0  0  0  0  0  0
    0.1199    0.8735    0.8511 C   0  0  0  0  0  0  0  0  0  0  0  0
    0.4304    1.7571    2.0421 C   0  0  0  0  0  0  0  0  0  0  0  0
    1.6902    1.9863    2.4907 C   0  0  0  0  0  0  0  0  0  0  0  0
    2.0126    3.0252    4.0092 Br  0  0  0  0  0  0  0  0  0  0  0  0
    2.8058    1.4434    1.7757 C   0  0  0  0  0  0  0  0  0  0  0  0
    4.1244    1.4959    1.9969 N   0  0  0  0  0  0  0  0  0  0  0  0
    4.7068    0.8890    0.8760 O   0  0  0  0  0  0  0  0  0  0  0  0
    3.7272    0.5021    0.0031 C   0  0  0  0  0  0  0  0  0  0  0  0
    3.8544   -0.0573   -1.2740 C   0  0  0  0  0  0  0  0  0  0  0  0
    5.1166   -0.3399   -1.8285 C   0  0  0  0  0  0  0  0  0  0  0  0
    5.1945   -0.8383   -3.1250 C   0  0  0  0  0  0  0  0  0  0  0  0
    4.0294   -1.0392   -3.8634 C   0  0  0  0  0  0  0  0  0  0  0  0
    2.7752   -0.7526   -3.3077 C   0  0  0  0  0  0  0  0  0  0  0  0
    2.6460   -0.2662   -1.9890 C   0  0  0  0  0  0  0  0  0  0  0  0
    1.3946    0.0404   -1.3663 C   0  0  0  0  0  0  0  0  0  0  0  0
    0.2515   -0.0811   -2.1167 O   0  0  0  0  0  0  0  0  0  0  0  0
    1.2844    0.5086   -0.0432 C   0  0  0  0  0  0  0  0  0  0  0  0
    2.5119    0.7826    0.5712 C   0  0  0  0  0  0  0  0  0  0  0  0
   -4.1539    0.6204    5.1862 H   0  0  0  0  0  0  0  0  0  0  0  0
   -2.6844   -0.3374    4.8811 H   0  0  0  0  0  0  0  0  0  0  0  0
   -2.7284    1.3600    4.4246 H   0  0  0  0  0  0  0  0  0  0  0  0
   -4.4700   -0.8501    3.2042 H   0  0  0  0  0  0  0  0  0  0  0  0
   -4.5188    0.8384    2.7033 H   0  0  0  0  0  0  0  0  0  0  0  0
   -2.3473   -1.7666   -2.4306 H   0  0  0  0  0  0  0  0  0  0  0  0
   -3.3326   -2.4421   -1.0952 H   0  0  0  0  0  0  0  0  0  0  0  0
   -5.1395   -0.7958   -1.6270 H   0  0  0  0  0  0  0  0  0  0  0  0
   -4.7707   -1.8138   -3.0407 H   0  0  0  0  0  0  0  0  0  0  0  0
   -4.1667   -0.1431   -2.9401 H   0  0  0  0  0  0  0  0  0  0  0  0
   -0.3917    2.1913    2.6042 H   0  0  0  0  0  0  0  0  0  0  0  0
    6.0285   -0.1636   -1.2622 H   0  0  0  0  0  0  0  0  0  0  0  0
    6.1636   -1.0572   -3.5667 H   0  0  0  0  0  0  0  0  0  0  0  0
    4.0946   -1.4130   -4.8828 H   0  0  0  0  0  0  0  0  0  0  0  0
    1.8960   -0.9042   -3.9300 H   0  0  0  0  0  0  0  0  0  0  0  0
    0.2264   -1.0154   -2.4008 H   0  0  0  0  0  0  0  0  0  0  0  0
  1  2  1  0
  2  3  1  0
  3  4  1  0
  4  5  2  0
  4  6  1  0
  6  7  1  0
  7  8  2  0
  7  9  1  0
  9 10  1  0
 10 11  1  0
  6 12  2  3
 12 13  1  0
 13 14  2  0
 14 15  1  0
 14 16  1  0
 16 17  2  0
 17 18  1  0
 18 19  1  0
 19 20  1  0
 20 21  2  0
 21 22  1  0
 22 23  2  0
 23 24  1  0
 24 25  2  0
 25 26  1  0
 26 27  1  0
 26 28  2  0
 28 29  1  0
 28 12  1  0
 29 16  1  0
 29 19  2  0
 25 20  1  0
  1 30  1  0
  1 31  1  0
  1 32  1  0
  2 33  1  0
  2 34  1  0
 10 35  1  0
 10 36  1  0
 11 37  1  0
 11 38  1  0
 11 39  1  0
 13 40  1  0
 21 41  1  0
 22 42  1  0
 23 43  1  0
 24 44  1  0
 27 45  1  0
M  END
$$$$
