
     RDKit          3D

 38 40  0  0  0  0  0  0  0  0999 V2000
   -4.6270   -1.8450   -1.6218 C   0  0  0  0  0  0  0  0  0  0  0  0
   -4.4505   -1.7591   -0.2123 O   0  0  0  0  0  0  0  0  0  0  0  0
   -3.3056   -1.1450    0.2270 C   0  0  0  0  0  0  0  0  0  0  0  0
   -2.3120   -0.5824   -0.5746 C   0  0  0  0  0  0  0  0  0  0  0  0
   -1.1825    0.0173    0.0124 C   0  0  0  0  0  0  0  0  0  0  0  0
   -1.0570    0.0466    1.4135 C   0  0  0  0  0  0  0  0  0  0  0  0
   -2.0573   -0.5001    2.2186 C   0  0  0  0  0  0  0  0  0  0  0  0
   -3.1619   -1.0911    1.6184 C   0  0  0  0  0  0  0  0  0  0  0  0
   -4.1250   -1.6284    2.4300 O   0  0  0  0  0  0  0  0  0  0  0  0
    0.1617    0.7008    1.9987 C   0  0  0  0  0  0  0  0  0  0  0  0
    1.3876    0.3377    1.1601 C   0  0  0  0  0  0  0  0  0  0  0  0
    1.2359    0.5684   -0.2827 N   0  0  0  0  0  0  0  0  0  0  0  0
    2.3188    0.6981   -1.1704 C   0  0  0  0  0  0  0  0  0  0  0  0
    2.1243    1.0236   -2.3431 O   0  0  0  0  0  0  0  0  0  0  0  0
    3.6608    0.4376   -0.6771 C   0  0  0  0  0  0  0  0  0  0  0  0
    4.2129   -0.5708    0.0953 C   0  0  0  0  0  0  0  0  0  0  0  0
    5.5964   -0.2911    0.2142 C   0  0  0  0  0  0  0  0  0  0  0  0
    5.8148    0.8579   -0.5055 C   0  0  0  0  0  0  0  0  0  0  0  0
    4.6573    1.3007   -1.0559 O   0  0  0  0  0  0  0  0  0  0  0  0
   -0.1205    0.6855   -0.8492 C   0  0  0  0  0  0  0  0  0  0  0  0
   -0.5002    2.1540   -1.0889 C   0  0  0  0  0  0  0  0  0  0  0  0
   -5.5712   -2.3655   -1.8086 H   0  0  0  0  0  0  0  0  0  0  0  0
   -3.8263   -2.4311   -2.0851 H   0  0  0  0  0  0  0  0  0  0  0  0
   -4.7011   -0.8492   -2.0711 H   0  0  0  0  0  0  0  0  0  0  0  0
   -2.3908   -0.5874   -1.6572 H   0  0  0  0  0  0  0  0  0  0  0  0
   -1.9851   -0.4756    3.3019 H   0  0  0  0  0  0  0  0  0  0  0  0
   -4.7998   -1.9804    1.8173 H   0  0  0  0  0  0  0  0  0  0  0  0
    0.3230    0.3727    3.0320 H   0  0  0  0  0  0  0  0  0  0  0  0
    0.0113    1.7864    2.0145 H   0  0  0  0  0  0  0  0  0  0  0  0
    1.5967   -0.7320    1.2823 H   0  0  0  0  0  0  0  0  0  0  0  0
    2.2537    0.8961    1.5300 H   0  0  0  0  0  0  0  0  0  0  0  0
    3.6860   -1.4211    0.5040 H   0  0  0  0  0  0  0  0  0  0  0  0
    6.3448   -0.8649    0.7426 H   0  0  0  0  0  0  0  0  0  0  0  0
    6.6913    1.4530   -0.7220 H   0  0  0  0  0  0  0  0  0  0  0  0
   -0.1053    0.1741   -1.8209 H   0  0  0  0  0  0  0  0  0  0  0  0
   -1.4945    2.2350   -1.5421 H   0  0  0  0  0  0  0  0  0  0  0  0
   -0.5141    2.7261   -0.1548 H   0  0  0  0  0  0  0  0  0  0  0  0
    0.2099    2.6485   -1.7591 H   0  0  0  0  0  0  0  0  0  0  0  0
  1  2  1  0
  2  3  1  0
  3  4  2  0
  4  5  1  0
  5  6  2  0
  6  7  1  0
  7  8  2  0
  8  9  1  0
  6 10  1  0
 10 11  1  0
 11 12  1  0
 12 13  1  0
 13 14  2  0
 13 15  1  0
 15 16  2  0
 16 17  1  0
 17 18  2  0
 18 19  1  0
 12 20  1  0
 20 21  1  0
  8  3  1  0
 19 15  1  0
 20  5  1  0
  1 22  1  0
  1 23  1  0
  1 24  1  0
  4 25  1  0
  7 26  1  0
  9 27  1  0
 10 28  1  0
 10 29  1  0
 11 30  1  0
 11 31  1  0
 16 32  1  0
 17 33  1  0
 18 34  1  0
 20 35  1  0
 21 36  1  0
 21 37  1  0
 21 38  1  0
M  END
$$$$
