
     RDKit          3D

 39 41  0  0  0  0  0  0  0  0999 V2000
   -4.3320   -2.4787   -1.8398 C   0  0  0  0  0  0  0  0  0  0  0  0
   -3.5241   -1.5366   -1.1472 O   0  0  0  0  0  0  0  0  0  0  0  0
   -4.1558   -0.6571   -0.3075 C   0  0  0  0  0  0  0  0  0  0  0  0
   -5.5293   -0.6626   -0.0393 C   0  0  0  0  0  0  0  0  0  0  0  0
   -6.0872    0.2773    0.8315 C   0  0  0  0  0  0  0  0  0  0  0  0
   -5.2795    1.2312    1.4414 C   0  0  0  0  0  0  0  0  0  0  0  0
   -3.9105    1.2454    1.1834 C   0  0  0  0  0  0  0  0  0  0  0  0
   -3.3326    0.3013    0.3146 C   0  0  0  0  0  0  0  0  0  0  0  0
   -1.8442    0.3597    0.0516 C   0  0  0  0  0  0  0  0  0  0  0  0
   -1.4554    1.4835   -1.3264 S   0  0  0  0  0  0  0  0  0  0  0  0
    0.2609    1.3656   -1.3403 C   0  0  0  0  0  0  0  0  0  0  0  0
    1.0342    0.7367   -0.4915 N   0  0  0  0  0  0  0  0  0  0  0  0
    2.3203    0.9483   -0.9454 C   0  0  0  0  0  0  0  0  0  0  0  0
    3.4934    0.4037   -0.2759 C   0  0  0  0  0  0  0  0  0  0  0  0
    3.3207   -0.4056    0.8598 C   0  0  0  0  0  0  0  0  0  0  0  0
    4.4188   -0.9512    1.5332 C   0  0  0  0  0  0  0  0  0  0  0  0
    5.7104   -0.6853    1.0675 C   0  0  0  0  0  0  0  0  0  0  0  0
    6.8696   -1.2534    1.7665 N   0  0  0  0  0  4  0  0  0  0  0  0
    7.9964   -0.9906    1.3212 O   0  0  0  0  0  0  0  0  0  0  0  0
    6.6550   -1.9626    2.7600 O   0  0  0  0  0  1  0  0  0  0  0  0
    5.9053    0.1194   -0.0616 C   0  0  0  0  0  0  0  0  0  0  0  0
    4.7977    0.6596   -0.7270 C   0  0  0  0  0  0  0  0  0  0  0  0
    2.3002    1.7240   -2.0878 C   0  0  0  0  0  0  0  0  0  0  0  0
    0.9752    1.9809   -2.3227 N   0  0  0  0  0  0  0  0  0  0  0  0
   -4.8250   -3.1634   -1.1422 H   0  0  0  0  0  0  0  0  0  0  0  0
   -3.6748   -3.0745   -2.4807 H   0  0  0  0  0  0  0  0  0  0  0  0
   -5.0600   -1.9770   -2.4858 H   0  0  0  0  0  0  0  0  0  0  0  0
   -6.1974   -1.3873   -0.4924 H   0  0  0  0  0  0  0  0  0  0  0  0
   -7.1556    0.2636    1.0314 H   0  0  0  0  0  0  0  0  0  0  0  0
   -5.7141    1.9649    2.1152 H   0  0  0  0  0  0  0  0  0  0  0  0
   -3.2889    2.0002    1.6611 H   0  0  0  0  0  0  0  0  0  0  0  0
   -1.4484   -0.6402   -0.1580 H   0  0  0  0  0  0  0  0  0  0  0  0
   -1.3342    0.7082    0.9581 H   0  0  0  0  0  0  0  0  0  0  0  0
    2.3169   -0.6176    1.2276 H   0  0  0  0  0  0  0  0  0  0  0  0
    4.2457   -1.5740    2.4084 H   0  0  0  0  0  0  0  0  0  0  0  0
    6.9039    0.3359   -0.4360 H   0  0  0  0  0  0  0  0  0  0  0  0
    4.9751    1.2822   -1.6003 H   0  0  0  0  0  0  0  0  0  0  0  0
    3.0721    2.1062   -2.7393 H   0  0  0  0  0  0  0  0  0  0  0  0
    0.5770    2.5198   -3.0782 H   0  0  0  0  0  0  0  0  0  0  0  0
  1  2  1  0
  2  3  1  0
  3  4  2  0
  4  5  1  0
  5  6  2  0
  6  7  1  0
  7  8  2  0
  8  9  1  0
  9 10  1  0
 10 11  1  0
 11 12  2  0
 12 13  1  0
 13 14  1  0
 14 15  2  0
 15 16  1  0
 16 17  2  0
 17 18  1  0
 18 19  2  0
 18 20  1  0
 17 21  1  0
 21 22  2  0
 13 23  2  0
 23 24  1  0
  8  3  1  0
 24 11  1  0
 22 14  1  0
  1 25  1  0
  1 26  1  0
  1 27  1  0
  4 28  1  0
  5 29  1  0
  6 30  1  0
  7 31  1  0
  9 32  1  0
  9 33  1  0
 15 34  1  0
 16 35  1  0
 21 36  1  0
 22 37  1  0
 23 38  1  0
 24 39  1  0
M  CHG  2  18   1  20  -1
M  END
$$$$
