
     RDKit          3D

 47 49  0  0  0  0  0  0  0  0999 V2000
    5.6146   -1.4626    3.3237 C   0  0  0  0  0  0  0  0  0  0  0  0
    5.2942   -0.9770    1.9348 C   0  0  0  0  0  0  0  0  0  0  0  0
    3.9638   -0.6422    1.6194 C   0  0  0  0  0  0  0  0  0  0  0  0
    3.6265   -0.1871    0.3451 C   0  0  0  0  0  0  0  0  0  0  0  0
    2.3765    0.1639   -0.0826 O   0  0  0  0  0  0  0  0  0  0  0  0
    1.3269    0.1501    0.8827 C   0  0  0  0  0  0  0  0  0  0  0  0
    0.0948    0.5665    0.1753 C   0  0  0  0  0  0  0  0  0  0  0  0
   -0.5238    0.1775   -0.9861 C   0  0  0  0  0  0  0  0  0  0  0  0
   -1.6949    0.9835   -1.0729 C   0  0  0  0  0  0  0  0  0  0  0  0
   -2.6633    0.9482   -2.1832 C   0  0  0  0  0  0  0  0  0  0  0  0
   -2.3276    0.3945   -3.2344 O   0  0  0  0  0  0  0  0  0  0  0  0
   -3.9404    1.5234   -2.0622 N   0  0  0  0  0  0  0  0  0  0  0  0
   -4.8254    1.3590   -3.2058 C   0  0  0  0  0  0  0  0  0  0  0  0
   -4.6035    1.8181   -0.7850 C   0  0  0  0  0  0  0  0  0  0  0  0
   -5.0969    0.5848   -0.0540 C   0  0  0  0  0  0  0  0  0  0  0  0
   -4.5273    0.2030    1.1595 C   0  0  0  0  0  0  0  0  0  0  0  0
   -5.0123   -0.9317    1.8065 C   0  0  0  0  0  0  0  0  0  0  0  0
   -6.0491   -1.6543    1.2310 C   0  0  0  0  0  0  0  0  0  0  0  0
   -6.5639   -1.2082    0.0267 C   0  0  0  0  0  0  0  0  0  0  0  0
   -6.1169   -0.1108   -0.6226 N   0  0  0  0  0  0  0  0  0  0  0  0
   -1.7479    1.8213   -0.0231 N   0  0  0  0  0  0  0  0  0  0  0  0
   -0.6442    1.5464    0.7581 O   0  0  0  0  0  0  0  0  0  0  0  0
    4.6238   -0.0663   -0.6240 C   0  0  0  0  0  0  0  0  0  0  0  0
    5.9597   -0.3925   -0.3428 C   0  0  0  0  0  0  0  0  0  0  0  0
    6.9922   -0.2312   -1.4242 C   0  0  0  0  0  0  0  0  0  0  0  0
    6.2892   -0.8449    0.9470 C   0  0  0  0  0  0  0  0  0  0  0  0
    7.9360   -1.2421    1.3253 Cl  0  0  0  0  0  0  0  0  0  0  0  0
    6.3054   -0.7722    3.8196 H   0  0  0  0  0  0  0  0  0  0  0  0
    6.0551   -2.4655    3.2873 H   0  0  0  0  0  0  0  0  0  0  0  0
    4.7140   -1.5279    3.9451 H   0  0  0  0  0  0  0  0  0  0  0  0
    3.2093   -0.7510    2.3929 H   0  0  0  0  0  0  0  0  0  0  0  0
    1.1825   -0.8609    1.2780 H   0  0  0  0  0  0  0  0  0  0  0  0
    1.5522    0.8468    1.6986 H   0  0  0  0  0  0  0  0  0  0  0  0
   -0.1883   -0.5716   -1.6899 H   0  0  0  0  0  0  0  0  0  0  0  0
   -5.6105    2.1207   -3.1861 H   0  0  0  0  0  0  0  0  0  0  0  0
   -4.2702    1.4728   -4.1417 H   0  0  0  0  0  0  0  0  0  0  0  0
   -5.2689    0.3590   -3.1820 H   0  0  0  0  0  0  0  0  0  0  0  0
   -5.4695    2.4613   -0.9896 H   0  0  0  0  0  0  0  0  0  0  0  0
   -3.9615    2.4256   -0.1463 H   0  0  0  0  0  0  0  0  0  0  0  0
   -3.7196    0.7771    1.6037 H   0  0  0  0  0  0  0  0  0  0  0  0
   -4.5830   -1.2472    2.7531 H   0  0  0  0  0  0  0  0  0  0  0  0
   -6.4470   -2.5434    1.7087 H   0  0  0  0  0  0  0  0  0  0  0  0
   -7.3746   -1.7374   -0.4644 H   0  0  0  0  0  0  0  0  0  0  0  0
    4.3478    0.2921   -1.6146 H   0  0  0  0  0  0  0  0  0  0  0  0
    7.5218   -1.1748   -1.5976 H   0  0  0  0  0  0  0  0  0  0  0  0
    6.5345    0.0576   -2.3759 H   0  0  0  0  0  0  0  0  0  0  0  0
    7.7097    0.5496   -1.1524 H   0  0  0  0  0  0  0  0  0  0  0  0
  1  2  1  0
  2  3  2  0
  3  4  1  0
  4  5  1  0
  5  6  1  0
  6  7  1  0
  7  8  2  0
  8  9  1  0
  9 10  1  0
 10 11  2  0
 10 12  1  0
 12 13  1  0
 12 14  1  0
 14 15  1  0
 15 16  2  0
 16 17  1  0
 17 18  2  0
 18 19  1  0
 19 20  2  0
  9 21  2  0
 21 22  1  0
  4 23  2  0
 23 24  1  0
 24 25  1  0
 24 26  2  0
 26 27  1  0
 26  2  1  0
 22  7  1  0
 20 15  1  0
  1 28  1  0
  1 29  1  0
  1 30  1  0
  3 31  1  0
  6 32  1  0
  6 33  1  0
  8 34  1  0
 13 35  1  0
 13 36  1  0
 13 37  1  0
 14 38  1  0
 14 39  1  0
 16 40  1  0
 17 41  1  0
 18 42  1  0
 19 43  1  0
 23 44  1  0
 25 45  1  0
 25 46  1  0
 25 47  1  0
M  END
$$$$
