
     RDKit          3D

 45 46  0  0  0  0  0  0  0  0999 V2000
    7.3656   -0.3735    0.2094 C   0  0  0  0  0  0  0  0  0  0  0  0
    6.3549   -0.3066   -0.9216 C   0  0  0  0  0  0  0  0  0  0  0  0
    5.0623    0.1807   -0.4733 N   0  0  0  0  0  0  0  0  0  0  0  0
    4.8511    1.5094   -0.4438 N   0  0  0  0  0  0  0  0  0  0  0  0
    3.5976    1.6224   -0.0036 C   0  0  0  0  0  0  0  0  0  0  0  0
    2.9922    0.3729    0.2484 C   0  0  0  0  0  0  0  0  0  0  0  0
    1.6537    0.1048    0.7231 C   0  0  0  0  0  0  0  0  0  0  0  0
    0.8807    1.1114    0.9738 N   0  0  0  0  0  0  0  0  0  0  0  0
   -0.3812    0.8851    1.4582 N   0  0  0  0  0  0  0  0  0  0  0  0
   -0.8060   -0.2047    2.2083 C   0  0  0  0  0  0  0  0  0  0  0  0
   -0.1436   -1.2061    2.4723 O   0  0  0  0  0  0  0  0  0  0  0  0
   -2.2276   -0.0310    2.7539 C   0  0  0  0  0  0  0  0  0  0  0  0
   -3.0144    0.9574    2.1033 O   0  0  0  0  0  0  0  0  0  0  0  0
   -3.6439    0.6135    0.9375 C   0  0  0  0  0  0  0  0  0  0  0  0
   -4.5130    1.5896    0.4420 C   0  0  0  0  0  0  0  0  0  0  0  0
   -5.2185    1.3896   -0.7505 C   0  0  0  0  0  0  0  0  0  0  0  0
   -6.1812    2.4273   -1.2464 C   0  0  0  0  0  0  0  0  0  0  0  0
   -5.0559    0.1838   -1.4406 C   0  0  0  0  0  0  0  0  0  0  0  0
   -4.1733   -0.7959   -0.9690 C   0  0  0  0  0  0  0  0  0  0  0  0
   -4.0196   -2.0941   -1.7070 C   0  0  0  0  0  0  0  0  0  0  0  0
   -3.4758   -0.5771    0.2289 C   0  0  0  0  0  0  0  0  0  0  0  0
    3.9758   -0.5558   -0.0617 C   0  0  0  0  0  0  0  0  0  0  0  0
    3.9794   -2.0403   -0.0036 C   0  0  0  0  0  0  0  0  0  0  0  0
    7.5282    0.6146    0.6528 H   0  0  0  0  0  0  0  0  0  0  0  0
    7.0256   -1.0437    1.0058 H   0  0  0  0  0  0  0  0  0  0  0  0
    8.3265   -0.7432   -0.1614 H   0  0  0  0  0  0  0  0  0  0  0  0
    6.7057    0.3667   -1.7119 H   0  0  0  0  0  0  0  0  0  0  0  0
    6.2118   -1.2934   -1.3728 H   0  0  0  0  0  0  0  0  0  0  0  0
    3.1673    2.6089    0.1159 H   0  0  0  0  0  0  0  0  0  0  0  0
    1.3557   -0.9497    0.8134 H   0  0  0  0  0  0  0  0  0  0  0  0
   -0.9861    1.7054    1.4491 H   0  0  0  0  0  0  0  0  0  0  0  0
   -2.7405   -0.9993    2.7853 H   0  0  0  0  0  0  0  0  0  0  0  0
   -2.1153    0.2948    3.7947 H   0  0  0  0  0  0  0  0  0  0  0  0
   -4.6439    2.5152    0.9991 H   0  0  0  0  0  0  0  0  0  0  0  0
   -7.1732    2.2519   -0.8189 H   0  0  0  0  0  0  0  0  0  0  0  0
   -5.8484    3.4330   -0.9690 H   0  0  0  0  0  0  0  0  0  0  0  0
   -6.2566    2.4006   -2.3385 H   0  0  0  0  0  0  0  0  0  0  0  0
   -5.6181    0.0074   -2.3560 H   0  0  0  0  0  0  0  0  0  0  0  0
   -4.7268   -2.8321   -1.3162 H   0  0  0  0  0  0  0  0  0  0  0  0
   -3.0023   -2.4850   -1.6000 H   0  0  0  0  0  0  0  0  0  0  0  0
   -4.2041   -1.9604   -2.7781 H   0  0  0  0  0  0  0  0  0  0  0  0
   -2.8063   -1.3578    0.5762 H   0  0  0  0  0  0  0  0  0  0  0  0
    3.1031   -2.4256    0.5254 H   0  0  0  0  0  0  0  0  0  0  0  0
    3.9734   -2.4610   -1.0142 H   0  0  0  0  0  0  0  0  0  0  0  0
    4.8650   -2.4100    0.5227 H   0  0  0  0  0  0  0  0  0  0  0  0
  1  2  1  0
  2  3  1  0
  3  4  1  0
  4  5  2  0
  5  6  1  0
  6  7  1  0
  7  8  2  3
  8  9  1  0
  9 10  1  0
 10 11  2  0
 10 12  1  0
 12 13  1  0
 13 14  1  0
 14 15  2  0
 15 16  1  0
 16 17  1  0
 16 18  2  0
 18 19  1  0
 19 20  1  0
 19 21  2  0
  6 22  2  0
 22 23  1  0
 22  3  1  0
 21 14  1  0
  1 24  1  0
  1 25  1  0
  1 26  1  0
  2 27  1  0
  2 28  1  0
  5 29  1  0
  7 30  1  0
  9 31  1  0
 12 32  1  0
 12 33  1  0
 15 34  1  0
 17 35  1  0
 17 36  1  0
 17 37  1  0
 18 38  1  0
 20 39  1  0
 20 40  1  0
 20 41  1  0
 21 42  1  0
 23 43  1  0
 23 44  1  0
 23 45  1  0
M  END
$$$$
