
     RDKit          3D

 35 36  0  0  0  0  0  0  0  0999 V2000
    2.0476   -2.1378   -0.4777 O   0  0  0  0  0  0  0  0  0  0  0  0
    2.2143   -1.1493    0.2280 C   0  0  0  0  0  0  0  0  0  0  0  0
    1.1776   -0.4034    0.7515 N   0  0  0  0  0  0  0  0  0  0  0  0
   -0.2107   -0.7577    0.5075 C   0  0  0  0  0  0  0  0  0  0  0  0
   -0.6697   -0.3198   -0.8822 C   0  0  0  0  0  0  0  0  0  0  0  0
   -2.1152   -0.7171   -1.1764 C   0  0  0  0  0  0  0  0  0  0  0  0
   -3.0979    0.0773   -0.4579 N   0  0  0  0  0  0  0  0  0  0  0  0
   -3.4025    1.4406   -0.8118 C   0  0  0  0  0  0  0  0  0  0  0  0
   -4.6347    1.7426    0.0178 C   0  0  0  0  0  0  0  0  0  0  0  0
   -4.4400    0.9028    1.2747 C   0  0  0  0  0  0  0  0  0  0  0  0
   -3.6135   -0.2615    0.7854 C   0  0  0  0  0  0  0  0  0  0  0  0
   -3.3965   -1.2863    1.4096 O   0  0  0  0  0  0  0  0  0  0  0  0
    3.5883   -0.6778    0.5163 C   0  0  0  0  0  0  0  0  0  0  0  0
    4.6209   -0.9691   -0.3776 C   0  0  0  0  0  0  0  0  0  0  0  0
    5.9129   -0.5260   -0.1030 C   0  0  0  0  0  0  0  0  0  0  0  0
    6.1276    0.1906    1.0639 C   0  0  0  0  0  0  0  0  0  0  0  0
    5.1555    0.4784    1.9580 N   0  0  0  0  0  0  0  0  0  0  0  0
    3.9098    0.0253    1.6694 C   0  0  0  0  0  0  0  0  0  0  0  0
    1.3589    0.5011    1.1641 H   0  0  0  0  0  0  0  0  0  0  0  0
   -0.3196   -1.8416    0.6244 H   0  0  0  0  0  0  0  0  0  0  0  0
   -0.7964   -0.2642    1.2885 H   0  0  0  0  0  0  0  0  0  0  0  0
   -0.5357    0.7628   -0.9944 H   0  0  0  0  0  0  0  0  0  0  0  0
   -0.0270   -0.7892   -1.6370 H   0  0  0  0  0  0  0  0  0  0  0  0
   -2.3225   -0.5957   -2.2455 H   0  0  0  0  0  0  0  0  0  0  0  0
   -2.2701   -1.7737   -0.9295 H   0  0  0  0  0  0  0  0  0  0  0  0
   -2.5592    2.0771   -0.5251 H   0  0  0  0  0  0  0  0  0  0  0  0
   -3.5926    1.5293   -1.8849 H   0  0  0  0  0  0  0  0  0  0  0  0
   -4.7544    2.8086    0.2305 H   0  0  0  0  0  0  0  0  0  0  0  0
   -5.5328    1.4017   -0.5126 H   0  0  0  0  0  0  0  0  0  0  0  0
   -3.8696    1.4458    2.0344 H   0  0  0  0  0  0  0  0  0  0  0  0
   -5.3933    0.5624    1.6856 H   0  0  0  0  0  0  0  0  0  0  0  0
    4.4197   -1.5384   -1.2823 H   0  0  0  0  0  0  0  0  0  0  0  0
    6.7315   -0.7377   -0.7820 H   0  0  0  0  0  0  0  0  0  0  0  0
    7.1175    0.5579    1.3209 H   0  0  0  0  0  0  0  0  0  0  0  0
    3.1717    0.2420    2.4352 H   0  0  0  0  0  0  0  0  0  0  0  0
  1  2  2  0
  2  3  1  0
  3  4  1  0
  4  5  1  0
  5  6  1  0
  6  7  1  0
  7  8  1  0
  8  9  1  0
  9 10  1  0
 10 11  1  0
 11 12  2  0
  2 13  1  0
 13 14  2  0
 14 15  1  0
 15 16  2  0
 16 17  1  0
 17 18  2  0
 11  7  1  0
 18 13  1  0
  3 19  1  0
  4 20  1  0
  4 21  1  0
  5 22  1  0
  5 23  1  0
  6 24  1  0
  6 25  1  0
  8 26  1  0
  8 27  1  0
  9 28  1  0
  9 29  1  0
 10 30  1  0
 10 31  1  0
 14 32  1  0
 15 33  1  0
 16 34  1  0
 18 35  1  0
M  END
$$$$
