
     RDKit          3D

 43 46  0  0  0  0  0  0  0  0999 V2000
    5.0928    2.2977    0.3560 C   0  0  0  0  0  0  0  0  0  0  0  0
    3.7749    1.9226    0.7575 O   0  0  0  0  0  0  0  0  0  0  0  0
    2.8381    2.0891   -0.2068 C   0  0  0  0  0  0  0  0  0  0  0  0
    3.0283    2.5109   -1.3370 O   0  0  0  0  0  0  0  0  0  0  0  0
    1.5253    1.6018    0.2566 C   0  0  0  0  0  0  0  0  0  0  0  0
    0.9590    1.9485    1.4304 C   0  0  0  0  0  0  0  0  0  0  0  0
    1.5637    2.9151    2.4163 C   0  0  0  0  0  0  0  0  0  0  0  0
   -0.2827    1.4774    1.8090 N   0  0  0  0  0  0  0  0  0  0  0  0
   -0.9611    0.8224    0.9305 C   0  0  0  0  0  0  0  0  0  0  0  0
   -2.5911    0.2878    1.2089 S   0  0  0  0  0  0  0  0  0  0  0  0
   -2.7550   -0.2904   -0.4043 C   0  0  0  0  0  0  0  0  0  0  0  0
   -3.8164   -0.8376   -1.0148 C   0  0  0  0  0  0  0  0  0  0  0  0
   -5.1240   -1.1213   -0.5142 C   0  0  0  0  0  0  0  0  0  0  0  0
   -5.6315   -1.1778    0.8085 C   0  0  0  0  0  0  0  0  0  0  0  0
   -6.9632   -1.5096    0.7013 C   0  0  0  0  0  0  0  0  0  0  0  0
   -7.3093   -1.6694   -0.6001 O   0  0  0  0  0  0  0  0  0  0  0  0
   -6.1899   -1.4378   -1.3325 C   0  0  0  0  0  0  0  0  0  0  0  0
   -1.4728   -0.0863   -1.1459 C   0  0  0  0  0  0  0  0  0  0  0  0
   -1.3109   -0.3771   -2.3226 O   0  0  0  0  0  0  0  0  0  0  0  0
   -0.5401    0.4836   -0.3160 N   0  0  0  0  0  0  0  0  0  0  0  0
    0.8415    0.6812   -0.7151 C   0  0  0  0  0  0  0  0  0  0  0  0
    1.5694   -0.6599   -0.8222 C   0  0  0  0  0  0  0  0  0  0  0  0
    1.7339   -1.5009    0.2932 C   0  0  0  0  0  0  0  0  0  0  0  0
    2.4052   -2.7187    0.1720 C   0  0  0  0  0  0  0  0  0  0  0  0
    2.9187   -3.1132   -1.0612 C   0  0  0  0  0  0  0  0  0  0  0  0
    2.7622   -2.2918   -2.1752 C   0  0  0  0  0  0  0  0  0  0  0  0
    2.0924   -1.0729   -2.0582 C   0  0  0  0  0  0  0  0  0  0  0  0
    5.7657    2.1277    1.2010 H   0  0  0  0  0  0  0  0  0  0  0  0
    5.4276    1.6804   -0.4836 H   0  0  0  0  0  0  0  0  0  0  0  0
    5.1261    3.3600    0.0946 H   0  0  0  0  0  0  0  0  0  0  0  0
    2.2828    3.5986    1.9559 H   0  0  0  0  0  0  0  0  0  0  0  0
    2.0609    2.3680    3.2236 H   0  0  0  0  0  0  0  0  0  0  0  0
    0.7833    3.5432    2.8611 H   0  0  0  0  0  0  0  0  0  0  0  0
   -3.6739   -1.1026   -2.0649 H   0  0  0  0  0  0  0  0  0  0  0  0
   -5.1158   -1.0118    1.7426 H   0  0  0  0  0  0  0  0  0  0  0  0
   -7.7559   -1.6671    1.4194 H   0  0  0  0  0  0  0  0  0  0  0  0
   -6.3131   -1.5333   -2.4029 H   0  0  0  0  0  0  0  0  0  0  0  0
    0.8062    1.1536   -1.7060 H   0  0  0  0  0  0  0  0  0  0  0  0
    1.3457   -1.2154    1.2692 H   0  0  0  0  0  0  0  0  0  0  0  0
    2.5278   -3.3605    1.0409 H   0  0  0  0  0  0  0  0  0  0  0  0
    3.4396   -4.0626   -1.1552 H   0  0  0  0  0  0  0  0  0  0  0  0
    3.1591   -2.6015   -3.1389 H   0  0  0  0  0  0  0  0  0  0  0  0
    1.9763   -0.4500   -2.9439 H   0  0  0  0  0  0  0  0  0  0  0  0
  1  2  1  0
  2  3  1  0
  3  4  2  0
  3  5  1  0
  5  6  2  0
  6  7  1  0
  6  8  1  0
  8  9  2  0
  9 10  1  0
 10 11  1  0
 11 12  2  3
 12 13  1  0
 13 14  1  0
 14 15  2  0
 15 16  1  0
 16 17  1  0
 11 18  1  0
 18 19  2  0
 18 20  1  0
 20 21  1  0
 21 22  1  0
 22 23  2  0
 23 24  1  0
 24 25  2  0
 25 26  1  0
 26 27  2  0
 21  5  1  0
 27 22  1  0
 20  9  1  0
 17 13  2  0
  1 28  1  0
  1 29  1  0
  1 30  1  0
  7 31  1  0
  7 32  1  0
  7 33  1  0
 12 34  1  0
 14 35  1  0
 15 36  1  0
 17 37  1  0
 21 38  1  0
 23 39  1  0
 24 40  1  0
 25 41  1  0
 26 42  1  0
 27 43  1  0
M  END
$$$$
