
     RDKit          3D

 50 52  0  0  0  0  0  0  0  0999 V2000
    7.4572   -0.8738   -2.1042 C   0  0  0  0  0  0  0  0  0  0  0  0
    6.0051   -0.7954   -2.4725 C   0  0  0  0  0  0  0  0  0  0  0  0
    5.3119   -1.9463   -2.8647 C   0  0  0  0  0  0  0  0  0  0  0  0
    3.9680   -1.8699   -3.2415 C   0  0  0  0  0  0  0  0  0  0  0  0
    3.3029   -0.6413   -3.2352 C   0  0  0  0  0  0  0  0  0  0  0  0
    1.5893   -0.5525   -3.7167 S   0  0  0  0  0  0  0  0  0  0  0  0
    0.8148   -0.7567   -2.0791 C   0  0  0  0  0  0  0  0  0  0  0  0
    0.8131    0.5225   -1.2390 C   0  0  0  0  0  0  0  0  0  0  0  0
    1.1286    1.6179   -1.7100 O   0  0  0  0  0  0  0  0  0  0  0  0
    0.4344    0.4063    0.1122 N   0  0  0  0  0  0  0  0  0  0  0  0
   -0.1953   -0.8058    0.6695 C   0  0  0  0  0  0  0  0  0  0  0  0
   -1.6773   -0.7130    0.6822 C   0  0  0  0  0  0  0  0  0  0  0  0
   -2.4988   -0.5187    1.6889 N   0  0  0  0  0  0  0  0  0  0  0  0
   -3.7359   -0.5358    1.0754 C   0  0  0  0  0  0  0  0  0  0  0  0
   -4.9764   -0.3390    1.8184 C   0  0  0  0  0  0  0  0  0  0  0  0
   -6.2213   -0.3637    1.1712 C   0  0  0  0  0  0  0  0  0  0  0  0
   -7.4031   -0.1776    1.8937 C   0  0  0  0  0  0  0  0  0  0  0  0
   -7.3538    0.0360    3.2698 C   0  0  0  0  0  0  0  0  0  0  0  0
   -6.1251    0.0651    3.9256 C   0  0  0  0  0  0  0  0  0  0  0  0
   -4.9431   -0.1214    3.2042 C   0  0  0  0  0  0  0  0  0  0  0  0
   -3.6767   -0.7530   -0.2498 N   0  0  0  0  0  0  0  0  0  0  0  0
   -2.3152   -0.8674   -0.5110 O   0  0  0  0  0  0  0  0  0  0  0  0
    0.4451    1.6561    0.9138 C   0  0  0  0  0  0  0  0  0  0  0  0
   -0.8027    2.5124    0.6725 C   0  0  0  0  0  0  0  0  0  0  0  0
    0.6682    1.4431    2.4128 C   0  0  0  0  0  0  0  0  0  0  0  0
    3.9986    0.5123   -2.8700 C   0  0  0  0  0  0  0  0  0  0  0  0
    5.3415    0.4365   -2.4914 C   0  0  0  0  0  0  0  0  0  0  0  0
    7.6687   -1.7980   -1.5556 H   0  0  0  0  0  0  0  0  0  0  0  0
    8.0745   -0.8465   -3.0079 H   0  0  0  0  0  0  0  0  0  0  0  0
    7.7441   -0.0379   -1.4570 H   0  0  0  0  0  0  0  0  0  0  0  0
    5.8163   -2.9099   -2.8849 H   0  0  0  0  0  0  0  0  0  0  0  0
    3.4507   -2.7760   -3.5474 H   0  0  0  0  0  0  0  0  0  0  0  0
    1.3449   -1.5546   -1.5526 H   0  0  0  0  0  0  0  0  0  0  0  0
   -0.2226   -1.0596   -2.2452 H   0  0  0  0  0  0  0  0  0  0  0  0
    0.0902   -1.6921    0.0995 H   0  0  0  0  0  0  0  0  0  0  0  0
    0.1879   -0.9739    1.6801 H   0  0  0  0  0  0  0  0  0  0  0  0
   -6.2834   -0.5286    0.0971 H   0  0  0  0  0  0  0  0  0  0  0  0
   -8.3611   -0.1992    1.3802 H   0  0  0  0  0  0  0  0  0  0  0  0
   -8.2736    0.1805    3.8305 H   0  0  0  0  0  0  0  0  0  0  0  0
   -6.0846    0.2326    4.9989 H   0  0  0  0  0  0  0  0  0  0  0  0
   -3.9925   -0.0957    3.7338 H   0  0  0  0  0  0  0  0  0  0  0  0
    1.3027    2.2445    0.5620 H   0  0  0  0  0  0  0  0  0  0  0  0
   -0.6876    3.4963    1.1399 H   0  0  0  0  0  0  0  0  0  0  0  0
   -1.7004    2.0541    1.0955 H   0  0  0  0  0  0  0  0  0  0  0  0
   -0.9827    2.6693   -0.3953 H   0  0  0  0  0  0  0  0  0  0  0  0
    1.5595    0.8324    2.5914 H   0  0  0  0  0  0  0  0  0  0  0  0
    0.8140    2.4040    2.9185 H   0  0  0  0  0  0  0  0  0  0  0  0
   -0.1857    0.9503    2.8888 H   0  0  0  0  0  0  0  0  0  0  0  0
    3.5026    1.4810   -2.8792 H   0  0  0  0  0  0  0  0  0  0  0  0
    5.8641    1.3500   -2.2160 H   0  0  0  0  0  0  0  0  0  0  0  0
  1  2  1  0
  2  3  2  0
  3  4  1  0
  4  5  2  0
  5  6  1  0
  6  7  1  0
  7  8  1  0
  8  9  2  0
  8 10  1  0
 10 11  1  0
 11 12  1  0
 12 13  2  0
 13 14  1  0
 14 15  1  0
 15 16  2  0
 16 17  1  0
 17 18  2  0
 18 19  1  0
 19 20  2  0
 14 21  2  0
 21 22  1  0
 10 23  1  0
 23 24  1  0
 23 25  1  0
  5 26  1  0
 26 27  2  0
 27  2  1  0
 22 12  1  0
 20 15  1  0
  1 28  1  0
  1 29  1  0
  1 30  1  0
  3 31  1  0
  4 32  1  0
  7 33  1  0
  7 34  1  0
 11 35  1  0
 11 36  1  0
 16 37  1  0
 17 38  1  0
 18 39  1  0
 19 40  1  0
 20 41  1  0
 23 42  1  0
 24 43  1  0
 24 44  1  0
 24 45  1  0
 25 46  1  0
 25 47  1  0
 25 48  1  0
 26 49  1  0
 27 50  1  0
M  END
$$$$
