
     RDKit          3D

 60 65  0  0  0  0  0  0  0  0999 V2000
    2.4537   -2.8373   -2.2245 O   0  0  0  0  0  0  0  0  0  0  0  0
    2.1936   -1.7003   -1.8437 C   0  0  0  0  0  0  0  0  0  0  0  0
    0.8625   -1.3983   -1.1749 C   0  0  0  0  0  0  0  0  0  0  0  0
    1.1208   -0.9496    0.5658 S   0  0  0  0  0  0  0  0  0  0  0  0
   -0.5601   -0.6367    0.9799 C   0  0  0  0  0  0  0  0  0  0  0  0
   -1.1086    0.3178    0.3063 N   0  0  0  0  0  0  0  0  0  0  0  0
   -2.4607    0.5655    0.5017 C   0  0  0  0  0  0  0  0  0  0  0  0
   -2.9470    1.5922   -0.2245 N   0  0  0  0  0  0  0  0  0  0  0  0
   -4.2678    1.8819   -0.1141 C   0  0  0  0  0  0  0  0  0  0  0  0
   -5.1311    1.1717    0.7264 C   0  0  0  0  0  0  0  0  0  0  0  0
   -4.6017    0.1024    1.4543 C   0  0  0  0  0  0  0  0  0  0  0  0
   -3.2453   -0.1963    1.3366 C   0  0  0  0  0  0  0  0  0  0  0  0
   -2.6055   -1.2851    2.0824 C   0  0  0  0  0  0  0  0  0  0  0  0
   -3.3239   -1.9538    2.8236 O   0  0  0  0  0  0  0  0  0  0  0  0
   -1.2239   -1.4379    1.9078 N   0  0  0  0  0  0  0  0  0  0  0  0
   -0.5606   -2.4161    2.7211 C   0  0  0  0  0  0  0  0  0  0  0  0
   -1.0603   -3.7232    2.8095 C   0  0  0  0  0  0  0  0  0  0  0  0
   -0.4273   -4.6773    3.6107 C   0  0  0  0  0  0  0  0  0  0  0  0
    0.7044   -4.3324    4.3455 C   0  0  0  0  0  0  0  0  0  0  0  0
    1.1992   -3.0330    4.2857 C   0  0  0  0  0  0  0  0  0  0  0  0
    0.5682   -2.0790    3.4831 C   0  0  0  0  0  0  0  0  0  0  0  0
   -6.6003    1.4863    0.8133 C   0  0  0  0  0  0  0  0  0  0  0  0
   -6.9514    2.8700    0.2680 C   0  0  0  0  0  0  0  0  0  0  0  0
   -6.2656    3.1083   -1.0725 C   0  0  0  0  0  0  0  0  0  0  0  0
   -4.7490    3.0684   -0.9086 C   0  0  0  0  0  0  0  0  0  0  0  0
    2.9878   -0.5705   -1.9788 N   0  0  0  0  0  0  0  0  0  0  0  0
    4.2403   -0.4401   -2.6315 C   0  0  0  0  0  0  0  0  0  0  0  0
    4.8141   -1.5191   -3.3141 C   0  0  0  0  0  0  0  0  0  0  0  0
    6.0321   -1.3845   -3.9742 C   0  0  0  0  0  0  0  0  0  0  0  0
    6.6955   -0.1644   -3.9669 C   0  0  0  0  0  0  0  0  0  0  0  0
    6.1572    0.9391   -3.2956 C   0  0  0  0  0  0  0  0  0  0  0  0
    6.8563    2.1578   -3.3099 C   0  0  0  0  0  0  0  0  0  0  0  0
    6.3616    3.2805   -2.6504 C   0  0  0  0  0  0  0  0  0  0  0  0
    5.1608    3.1959   -1.9653 C   0  0  0  0  0  0  0  0  0  0  0  0
    4.4511    1.9900   -1.9453 C   0  0  0  0  0  0  0  0  0  0  0  0
    4.9185    0.8236   -2.6089 C   0  0  0  0  0  0  0  0  0  0  0  0
    0.3730   -0.5878   -1.7242 H   0  0  0  0  0  0  0  0  0  0  0  0
    0.2252   -2.2860   -1.2331 H   0  0  0  0  0  0  0  0  0  0  0  0
   -5.2377   -0.4893    2.1097 H   0  0  0  0  0  0  0  0  0  0  0  0
   -1.9425   -4.0195    2.2460 H   0  0  0  0  0  0  0  0  0  0  0  0
   -0.8203   -5.6891    3.6592 H   0  0  0  0  0  0  0  0  0  0  0  0
    1.1956   -5.0738    4.9707 H   0  0  0  0  0  0  0  0  0  0  0  0
    2.0733   -2.7574    4.8709 H   0  0  0  0  0  0  0  0  0  0  0  0
    0.9559   -1.0638    3.4915 H   0  0  0  0  0  0  0  0  0  0  0  0
   -7.1462    0.7242    0.2423 H   0  0  0  0  0  0  0  0  0  0  0  0
   -6.9361    1.4211    1.8560 H   0  0  0  0  0  0  0  0  0  0  0  0
   -8.0384    2.9585    0.1570 H   0  0  0  0  0  0  0  0  0  0  0  0
   -6.6364    3.6423    0.9820 H   0  0  0  0  0  0  0  0  0  0  0  0
   -6.5655    4.0792   -1.4818 H   0  0  0  0  0  0  0  0  0  0  0  0
   -6.5852    2.3426   -1.7909 H   0  0  0  0  0  0  0  0  0  0  0  0
   -4.4137    3.9754   -0.3911 H   0  0  0  0  0  0  0  0  0  0  0  0
   -4.2784    3.0627   -1.8990 H   0  0  0  0  0  0  0  0  0  0  0  0
    2.6377    0.2491   -1.5039 H   0  0  0  0  0  0  0  0  0  0  0  0
    4.3353   -2.4918   -3.3571 H   0  0  0  0  0  0  0  0  0  0  0  0
    6.4596   -2.2361   -4.4974 H   0  0  0  0  0  0  0  0  0  0  0  0
    7.6436   -0.0841   -4.4946 H   0  0  0  0  0  0  0  0  0  0  0  0
    7.8034    2.2424   -3.8399 H   0  0  0  0  0  0  0  0  0  0  0  0
    6.9180    4.2131   -2.6708 H   0  0  0  0  0  0  0  0  0  0  0  0
    4.7725    4.0622   -1.4400 H   0  0  0  0  0  0  0  0  0  0  0  0
    3.5198    1.9897   -1.3896 H   0  0  0  0  0  0  0  0  0  0  0  0
  1  2  2  0
  2  3  1  0
  3  4  1  0
  4  5  1  0
  5  6  2  0
  6  7  1  0
  7  8  2  0
  8  9  1  0
  9 10  2  0
 10 11  1  0
 11 12  2  0
 12 13  1  0
 13 14  2  0
 13 15  1  0
 15 16  1  0
 16 17  2  0
 17 18  1  0
 18 19  2  0
 19 20  1  0
 20 21  2  0
 10 22  1  0
 22 23  1  0
 23 24  1  0
 24 25  1  0
  2 26  1  0
 26 27  1  0
 27 28  2  0
 28 29  1  0
 29 30  2  0
 30 31  1  0
 31 32  2  0
 32 33  1  0
 33 34  2  0
 34 35  1  0
 35 36  2  0
 15  5  1  0
 21 16  1  0
 36 27  1  0
 12  7  1  0
 36 31  1  0
 25  9  1  0
  3 37  1  0
  3 38  1  0
 11 39  1  0
 17 40  1  0
 18 41  1  0
 19 42  1  0
 20 43  1  0
 21 44  1  0
 22 45  1  0
 22 46  1  0
 23 47  1  0
 23 48  1  0
 24 49  1  0
 24 50  1  0
 25 51  1  0
 25 52  1  0
 26 53  1  0
 28 54  1  0
 29 55  1  0
 30 56  1  0
 32 57  1  0
 33 58  1  0
 34 59  1  0
 35 60  1  0
M  END
$$$$
