
     RDKit          3D

 45 49  0  0  0  0  0  0  0  0999 V2000
    0.8457    1.7996   -0.3957 O   0  0  0  0  0  0  0  0  0  0  0  0
    0.7495    1.0232   -1.3432 C   0  0  0  0  0  0  0  0  0  0  0  0
   -0.5127    0.8385   -2.1349 C   0  0  0  0  0  0  0  0  0  0  0  0
   -1.6116    0.3979   -1.2936 N   0  0  0  0  0  0  0  0  0  0  0  0
   -2.2539   -0.8275   -1.4392 C   0  0  0  0  0  0  0  0  0  0  0  0
   -1.8185   -1.7473   -2.2877 O   0  0  0  0  0  0  0  0  0  0  0  0
   -3.3173   -0.8003   -0.5884 C   0  0  0  0  0  0  0  0  0  0  0  0
   -3.3128    0.4333    0.0945 C   0  0  0  0  0  0  0  0  0  0  0  0
   -2.2339    1.1612   -0.3067 C   0  0  0  0  0  0  0  0  0  0  0  0
   -1.8079    2.3513    0.0982 O   0  0  0  0  0  0  0  0  0  0  0  0
   -4.4820    0.4341    1.0261 C   0  0  0  0  0  0  0  0  0  0  0  0
   -5.7722    0.4994    0.1682 C   0  0  0  0  0  0  0  0  0  0  0  0
   -5.7803   -0.8688   -0.5904 C   0  0  0  0  0  0  0  0  0  0  0  0
   -4.4946   -1.5744   -0.0861 C   0  0  0  0  0  0  0  0  0  0  0  0
   -4.5121   -1.0850    1.4004 C   0  0  0  0  0  0  0  0  0  0  0  0
    1.7568    0.2232   -1.8674 O   0  0  0  0  0  0  0  0  0  0  0  0
    2.9620    0.2997   -1.1653 C   0  0  0  0  0  0  0  0  0  0  0  0
    4.0348    0.9475   -1.7671 C   0  0  0  0  0  0  0  0  0  0  0  0
    5.2611    0.9915   -1.1035 C   0  0  0  0  0  0  0  0  0  0  0  0
    5.4216    0.3784    0.1516 C   0  0  0  0  0  0  0  0  0  0  0  0
    6.6501    0.4156    0.8303 C   0  0  0  0  0  0  0  0  0  0  0  0
    6.7973   -0.2002    2.0744 C   0  0  0  0  0  0  0  0  0  0  0  0
    5.7195   -0.8612    2.6562 C   0  0  0  0  0  0  0  0  0  0  0  0
    4.4908   -0.9087    1.9960 C   0  0  0  0  0  0  0  0  0  0  0  0
    4.3249   -0.2942    0.7445 C   0  0  0  0  0  0  0  0  0  0  0  0
    3.0958   -0.3345    0.0697 C   0  0  0  0  0  0  0  0  0  0  0  0
   -0.3623    0.1192   -2.9453 H   0  0  0  0  0  0  0  0  0  0  0  0
   -0.7945    1.7935   -2.5907 H   0  0  0  0  0  0  0  0  0  0  0  0
   -2.4307   -2.5023   -2.2156 H   0  0  0  0  0  0  0  0  0  0  0  0
   -0.8281    2.3778    0.0623 H   0  0  0  0  0  0  0  0  0  0  0  0
   -4.4282    1.1286    1.8640 H   0  0  0  0  0  0  0  0  0  0  0  0
   -5.7692    1.3422   -0.5315 H   0  0  0  0  0  0  0  0  0  0  0  0
   -6.6614    0.5769    0.8039 H   0  0  0  0  0  0  0  0  0  0  0  0
   -5.7806   -0.7219   -1.6759 H   0  0  0  0  0  0  0  0  0  0  0  0
   -6.6738   -1.4404   -0.3155 H   0  0  0  0  0  0  0  0  0  0  0  0
   -4.4538   -2.6539   -0.2296 H   0  0  0  0  0  0  0  0  0  0  0  0
   -5.4143   -1.3817    1.9464 H   0  0  0  0  0  0  0  0  0  0  0  0
   -3.6204   -1.3991    1.9573 H   0  0  0  0  0  0  0  0  0  0  0  0
    3.9244    1.4160   -2.7400 H   0  0  0  0  0  0  0  0  0  0  0  0
    6.0961    1.5066   -1.5733 H   0  0  0  0  0  0  0  0  0  0  0  0
    7.5047    0.9273    0.3934 H   0  0  0  0  0  0  0  0  0  0  0  0
    7.7540   -0.1621    2.5889 H   0  0  0  0  0  0  0  0  0  0  0  0
    5.8332   -1.3393    3.6257 H   0  0  0  0  0  0  0  0  0  0  0  0
    3.6598   -1.4277    2.4686 H   0  0  0  0  0  0  0  0  0  0  0  0
    2.2451   -0.8518    0.5048 H   0  0  0  0  0  0  0  0  0  0  0  0
  1  2  2  0
  2  3  1  0
  3  4  1  0
  4  5  1  0
  5  6  1  0
  5  7  2  0
  7  8  1  0
  8  9  2  0
  9 10  1  0
  8 11  1  0
 11 12  1  0
 12 13  1  0
 13 14  1  0
 14 15  1  0
  2 16  1  0
 16 17  1  0
 17 18  2  0
 18 19  1  0
 19 20  2  0
 20 21  1  0
 21 22  2  0
 22 23  1  0
 23 24  2  0
 24 25  1  0
 25 26  2  0
  9  4  1  0
 15 11  1  0
 26 17  1  0
 14  7  1  0
 25 20  1  0
  3 27  1  0
  3 28  1  0
  6 29  1  0
 10 30  1  0
 11 31  1  0
 12 32  1  0
 12 33  1  0
 13 34  1  0
 13 35  1  0
 14 36  1  0
 15 37  1  0
 15 38  1  0
 18 39  1  0
 19 40  1  0
 21 41  1  0
 22 42  1  0
 23 43  1  0
 24 44  1  0
 26 45  1  0
M  END
$$$$
