
     RDKit          3D

 61 63  0  0  0  0  0  0  0  0999 V2000
   -4.5781    2.7527   -0.6703 C   0  0  0  0  0  0  0  0  0  0  0  0
   -3.3353    1.9756   -1.0760 C   0  0  0  0  0  0  0  0  0  0  0  0
   -3.1453    0.7336   -0.2033 C   0  0  0  0  0  0  0  0  0  0  0  0
   -1.9339   -0.1008   -0.6155 C   0  0  0  0  0  0  0  0  0  0  0  0
   -0.6896    0.5945   -0.3667 N   0  0  0  0  0  0  0  0  0  0  0  0
    0.1046    1.1031   -1.3742 C   0  0  0  0  0  0  0  0  0  0  0  0
   -0.1735    1.0133   -2.5656 O   0  0  0  0  0  0  0  0  0  0  0  0
    1.3362    1.8576   -0.8724 C   0  0  0  0  0  0  0  0  0  0  0  0
    0.8749    3.2470   -0.3924 C   0  0  0  0  0  0  0  0  0  0  0  0
    2.0100    4.1353    0.0653 C   0  0  0  0  0  0  0  0  0  0  0  0
    2.1042    4.5308    1.4079 C   0  0  0  0  0  0  0  0  0  0  0  0
    3.1620    5.3349    1.8357 C   0  0  0  0  0  0  0  0  0  0  0  0
    4.1318    5.7533    0.9276 C   0  0  0  0  0  0  0  0  0  0  0  0
    4.0432    5.3729   -0.4103 C   0  0  0  0  0  0  0  0  0  0  0  0
    2.9859    4.5706   -0.8416 C   0  0  0  0  0  0  0  0  0  0  0  0
    1.9806    1.1122    0.2521 N   0  0  0  0  0  0  0  0  0  0  0  0
    2.9633   -0.2012   -0.1566 S   0  0  0  0  0  6  0  0  0  0  0  0
    3.5193    0.0272   -1.4697 O   0  0  0  0  0  0  0  0  0  0  0  0
    3.8040   -0.4364    0.9951 O   0  0  0  0  0  0  0  0  0  0  0  0
    1.8156   -1.5473   -0.2424 C   0  0  0  0  0  0  0  0  0  0  0  0
    1.4663   -2.0936   -1.4760 C   0  0  0  0  0  0  0  0  0  0  0  0
    0.5563   -3.1554   -1.5303 C   0  0  0  0  0  0  0  0  0  0  0  0
   -0.0079   -3.6860   -0.3577 C   0  0  0  0  0  0  0  0  0  0  0  0
    0.3670   -3.1295    0.8653 C   0  0  0  0  0  0  0  0  0  0  0  0
    1.2826   -2.0684    0.9351 C   0  0  0  0  0  0  0  0  0  0  0  0
   -0.2264   -3.6519    2.1047 C   0  0  0  0  0  0  0  0  0  0  0  0
    0.0141   -3.0783    3.1650 O   0  0  0  0  0  0  0  0  0  0  0  0
   -1.0507   -4.7577    1.9832 N   0  0  0  0  0  0  0  0  0  0  0  0
   -1.6204   -5.3208    3.1944 C   0  0  0  0  0  0  0  0  0  0  0  0
   -1.4866   -5.2959    0.7782 C   0  0  0  0  0  0  0  0  0  0  0  0
   -2.3196   -6.2041    0.7487 O   0  0  0  0  0  0  0  0  0  0  0  0
   -0.9477   -4.7503   -0.3836 N   0  0  0  0  0  0  0  0  0  0  0  0
   -1.3687   -5.3073   -1.6624 C   0  0  0  0  0  0  0  0  0  0  0  0
   -5.4776    2.1375   -0.7749 H   0  0  0  0  0  0  0  0  0  0  0  0
   -4.6960    3.6367   -1.3036 H   0  0  0  0  0  0  0  0  0  0  0  0
   -4.5083    3.0869    0.3698 H   0  0  0  0  0  0  0  0  0  0  0  0
   -3.4218    1.6816   -2.1290 H   0  0  0  0  0  0  0  0  0  0  0  0
   -2.4643    2.6355   -0.9914 H   0  0  0  0  0  0  0  0  0  0  0  0
   -4.0411    0.1029   -0.2746 H   0  0  0  0  0  0  0  0  0  0  0  0
   -3.0455    1.0350    0.8479 H   0  0  0  0  0  0  0  0  0  0  0  0
   -1.9056   -1.0166   -0.0172 H   0  0  0  0  0  0  0  0  0  0  0  0
   -2.0045   -0.3914   -1.6685 H   0  0  0  0  0  0  0  0  0  0  0  0
   -0.3269    0.6355    0.5808 H   0  0  0  0  0  0  0  0  0  0  0  0
    2.0407    1.9721   -1.7015 H   0  0  0  0  0  0  0  0  0  0  0  0
    0.1444    3.1414    0.4206 H   0  0  0  0  0  0  0  0  0  0  0  0
    0.3402    3.7625   -1.2009 H   0  0  0  0  0  0  0  0  0  0  0  0
    1.3559    4.2180    2.1331 H   0  0  0  0  0  0  0  0  0  0  0  0
    3.2299    5.6373    2.8782 H   0  0  0  0  0  0  0  0  0  0  0  0
    4.9568    6.3783    1.2612 H   0  0  0  0  0  0  0  0  0  0  0  0
    4.7986    5.7018   -1.1190 H   0  0  0  0  0  0  0  0  0  0  0  0
    2.9347    4.2898   -1.8924 H   0  0  0  0  0  0  0  0  0  0  0  0
    2.4720    1.6923    0.9386 H   0  0  0  0  0  0  0  0  0  0  0  0
    1.8820   -1.6961   -2.4010 H   0  0  0  0  0  0  0  0  0  0  0  0
    0.3029   -3.5437   -2.5138 H   0  0  0  0  0  0  0  0  0  0  0  0
    1.5709   -1.6524    1.8993 H   0  0  0  0  0  0  0  0  0  0  0  0
   -2.6790   -5.0405    3.2439 H   0  0  0  0  0  0  0  0  0  0  0  0
   -1.5500   -6.4135    3.1589 H   0  0  0  0  0  0  0  0  0  0  0  0
   -1.1134   -4.9654    4.0976 H   0  0  0  0  0  0  0  0  0  0  0  0
   -0.5022   -5.7373   -2.1727 H   0  0  0  0  0  0  0  0  0  0  0  0
   -1.8191   -4.5184   -2.2733 H   0  0  0  0  0  0  0  0  0  0  0  0
   -2.1122   -6.0994   -1.5433 H   0  0  0  0  0  0  0  0  0  0  0  0
  1  2  1  0
  2  3  1  0
  3  4  1  0
  4  5  1  0
  5  6  1  0
  6  7  2  0
  6  8  1  0
  8  9  1  0
  9 10  1  0
 10 11  2  0
 11 12  1  0
 12 13  2  0
 13 14  1  0
 14 15  2  0
  8 16  1  0
 16 17  1  0
 17 18  2  0
 17 19  2  0
 17 20  1  0
 20 21  2  0
 21 22  1  0
 22 23  2  0
 23 24  1  0
 24 25  2  0
 24 26  1  0
 26 27  2  0
 26 28  1  0
 28 29  1  0
 28 30  1  0
 30 31  2  0
 30 32  1  0
 32 33  1  0
 15 10  1  0
 25 20  1  0
 32 23  1  0
  1 34  1  0
  1 35  1  0
  1 36  1  0
  2 37  1  0
  2 38  1  0
  3 39  1  0
  3 40  1  0
  4 41  1  0
  4 42  1  0
  5 43  1  0
  8 44  1  0
  9 45  1  0
  9 46  1  0
 11 47  1  0
 12 48  1  0
 13 49  1  0
 14 50  1  0
 15 51  1  0
 16 52  1  0
 21 53  1  0
 22 54  1  0
 25 55  1  0
 29 56  1  0
 29 57  1  0
 29 58  1  0
 33 59  1  0
 33 60  1  0
 33 61  1  0
M  END
$$$$
