
     RDKit          3D

 50 51  0  0  0  0  0  0  0  0999 V2000
    6.6502    1.0762   -1.4569 C   0  0  0  0  0  0  0  0  0  0  0  0
    5.4820    0.3457   -0.8629 C   0  0  0  0  0  0  0  0  0  0  0  0
    4.2778    0.2435   -1.5690 C   0  0  0  0  0  0  0  0  0  0  0  0
    3.1796   -0.4109   -1.0058 C   0  0  0  0  0  0  0  0  0  0  0  0
    3.2653   -0.9560    0.2791 C   0  0  0  0  0  0  0  0  0  0  0  0
    2.1193   -1.6444    0.8717 C   0  0  0  0  0  0  0  0  0  0  0  0
    1.9522   -2.9687    0.7607 C   0  0  0  0  0  0  0  0  0  0  0  0
    0.5208   -3.5084    1.5720 S   0  0  0  0  0  0  0  0  0  0  0  0
    0.1267   -1.8555    2.0797 C   0  0  0  0  0  0  0  0  0  0  0  0
   -1.2292   -1.4676    2.9675 S   0  0  0  0  0  0  0  0  0  0  0  0
    1.1259   -1.0019    1.6033 N   0  0  0  0  0  0  0  0  0  0  0  0
    1.0988    0.4513    1.7951 C   0  0  0  0  0  0  0  0  0  0  0  0
    0.2456    1.1347    0.7315 C   0  0  0  0  0  0  0  0  0  0  0  0
    0.2028    0.8291   -0.4518 O   0  0  0  0  0  0  0  0  0  0  0  0
   -0.4574    2.1626    1.2889 O   0  0  0  0  0  0  0  0  0  0  0  0
   -1.1721    2.9734    0.3574 C   0  0  0  0  0  0  0  0  0  0  0  0
   -2.4526    2.3947   -0.2559 C   0  0  0  0  0  0  0  0  0  0  0  0
   -2.9634    2.8926   -1.2571 O   0  0  0  0  0  0  0  0  0  0  0  0
   -3.0132    1.3410    0.4358 N   0  0  0  0  0  0  0  0  0  0  0  0
   -4.1850    0.6291   -0.0695 C   0  0  0  0  0  0  0  0  0  0  0  0
   -4.9132   -0.0437    1.0938 C   0  0  0  0  0  0  0  0  0  0  0  0
   -3.8075   -0.3299   -1.2310 C   0  0  0  0  0  0  0  0  0  0  0  0
   -2.8852   -1.4752   -0.8056 C   0  0  0  0  0  0  0  0  0  0  0  0
   -5.0503   -0.8960   -1.9243 C   0  0  0  0  0  0  0  0  0  0  0  0
    4.4662   -0.8489    0.9903 C   0  0  0  0  0  0  0  0  0  0  0  0
    5.5645   -0.1957    0.4253 C   0  0  0  0  0  0  0  0  0  0  0  0
    7.5961    0.6606   -1.0938 H   0  0  0  0  0  0  0  0  0  0  0  0
    6.6034    2.1363   -1.1897 H   0  0  0  0  0  0  0  0  0  0  0  0
    6.6538    0.9856   -2.5482 H   0  0  0  0  0  0  0  0  0  0  0  0
    4.1852    0.6714   -2.5652 H   0  0  0  0  0  0  0  0  0  0  0  0
    2.2542   -0.4827   -1.5755 H   0  0  0  0  0  0  0  0  0  0  0  0
    2.6125   -3.6459    0.2350 H   0  0  0  0  0  0  0  0  0  0  0  0
    0.6863    0.6687    2.7857 H   0  0  0  0  0  0  0  0  0  0  0  0
    2.1056    0.8779    1.7690 H   0  0  0  0  0  0  0  0  0  0  0  0
   -1.4644    3.8838    0.8921 H   0  0  0  0  0  0  0  0  0  0  0  0
   -0.5018    3.2788   -0.4556 H   0  0  0  0  0  0  0  0  0  0  0  0
   -2.4613    0.8959    1.1588 H   0  0  0  0  0  0  0  0  0  0  0  0
   -4.8594    1.3934   -0.4782 H   0  0  0  0  0  0  0  0  0  0  0  0
   -5.8416   -0.5203    0.7665 H   0  0  0  0  0  0  0  0  0  0  0  0
   -4.2913   -0.7991    1.5827 H   0  0  0  0  0  0  0  0  0  0  0  0
   -5.1760    0.6974    1.8574 H   0  0  0  0  0  0  0  0  0  0  0  0
   -3.2629    0.2530   -1.9859 H   0  0  0  0  0  0  0  0  0  0  0  0
   -3.3710   -2.1462   -0.0906 H   0  0  0  0  0  0  0  0  0  0  0  0
   -2.5952   -2.0758   -1.6750 H   0  0  0  0  0  0  0  0  0  0  0  0
   -1.9654   -1.0943   -0.3537 H   0  0  0  0  0  0  0  0  0  0  0  0
   -5.6051   -1.5788   -1.2733 H   0  0  0  0  0  0  0  0  0  0  0  0
   -4.7667   -1.4549   -2.8229 H   0  0  0  0  0  0  0  0  0  0  0  0
   -5.7253   -0.0914   -2.2340 H   0  0  0  0  0  0  0  0  0  0  0  0
    4.5545   -1.2695    1.9897 H   0  0  0  0  0  0  0  0  0  0  0  0
    6.4872   -0.1150    0.9960 H   0  0  0  0  0  0  0  0  0  0  0  0
  1  2  1  0
  2  3  2  0
  3  4  1  0
  4  5  2  0
  5  6  1  0
  6  7  2  0
  7  8  1  0
  8  9  1  0
  9 10  2  0
  9 11  1  0
 11 12  1  0
 12 13  1  0
 13 14  2  0
 13 15  1  0
 15 16  1  0
 16 17  1  0
 17 18  2  0
 17 19  1  0
 19 20  1  0
 20 21  1  0
 20 22  1  0
 22 23  1  0
 22 24  1  0
  5 25  1  0
 25 26  2  0
 26  2  1  0
 11  6  1  0
  1 27  1  0
  1 28  1  0
  1 29  1  0
  3 30  1  0
  4 31  1  0
  7 32  1  0
 12 33  1  0
 12 34  1  0
 16 35  1  0
 16 36  1  0
 19 37  1  0
 20 38  1  0
 21 39  1  0
 21 40  1  0
 21 41  1  0
 22 42  1  0
 23 43  1  0
 23 44  1  0
 23 45  1  0
 24 46  1  0
 24 47  1  0
 24 48  1  0
 25 49  1  0
 26 50  1  0
M  END
$$$$
