
     RDKit          3D

 43 46  0  0  0  0  0  0  0  0999 V2000
    5.6295    2.4463    2.2251 C   0  0  0  0  0  0  0  0  0  0  0  0
    5.1223    1.3576    1.3242 C   0  0  0  0  0  0  0  0  0  0  0  0
    5.9804    0.7536    0.3924 C   0  0  0  0  0  0  0  0  0  0  0  0
    5.5500   -0.2871   -0.4412 C   0  0  0  0  0  0  0  0  0  0  0  0
    4.2261   -0.7001   -0.2912 C   0  0  0  0  0  0  0  0  0  0  0  0
    3.4826   -1.6680   -0.9165 N   0  0  0  0  0  0  0  0  0  0  0  0
    2.2066   -1.6609   -0.3850 C   0  0  0  0  0  0  0  0  0  0  0  0
    1.2483   -2.5980   -0.8707 C   0  0  0  0  0  0  0  0  0  0  0  0
    1.6889   -3.9191   -1.2050 C   0  0  0  0  0  0  0  0  0  0  0  0
    2.0854   -4.9656   -1.5124 N   0  0  0  0  0  0  0  0  0  0  0  0
   -0.0675   -2.3385   -1.0021 C   0  0  0  0  0  0  0  0  0  0  0  0
   -0.7653   -1.1141   -0.7957 C   0  0  0  0  0  0  0  0  0  0  0  0
   -0.3799    0.2189   -0.8459 C   0  0  0  0  0  0  0  0  0  0  0  0
   -1.5198    1.0179   -0.5839 C   0  0  0  0  0  0  0  0  0  0  0  0
   -2.5740    0.1528   -0.4134 C   0  0  0  0  0  0  0  0  0  0  0  0
   -3.8940    0.3339   -0.1394 N   0  0  0  0  0  0  0  0  0  0  0  0
   -4.4962    1.6442   -0.4432 C   0  0  0  0  0  0  0  0  0  0  0  0
   -5.8661    1.7795    0.2375 C   0  0  0  0  0  0  0  0  0  0  0  0
   -6.7426    0.7001   -0.1186 O   0  0  0  0  0  0  0  0  0  0  0  0
   -6.1666   -0.5478    0.2974 C   0  0  0  0  0  0  0  0  0  0  0  0
   -4.8102   -0.7995   -0.3769 C   0  0  0  0  0  0  0  0  0  0  0  0
   -2.1231   -1.1231   -0.5489 O   0  0  0  0  0  0  0  0  0  0  0  0
    2.1218   -0.7428    0.5599 N   0  0  0  0  0  0  0  0  0  0  0  0
    3.3523   -0.1388    0.6274 C   0  0  0  0  0  0  0  0  0  0  0  0
    3.7987    0.9012    1.4551 C   0  0  0  0  0  0  0  0  0  0  0  0
    6.0288    2.0128    3.1473 H   0  0  0  0  0  0  0  0  0  0  0  0
    4.8268    3.1466    2.4801 H   0  0  0  0  0  0  0  0  0  0  0  0
    6.4197    3.0240    1.7339 H   0  0  0  0  0  0  0  0  0  0  0  0
    7.0115    1.0952    0.3087 H   0  0  0  0  0  0  0  0  0  0  0  0
    6.2214   -0.7457   -1.1591 H   0  0  0  0  0  0  0  0  0  0  0  0
    3.8240   -2.2798   -1.6446 H   0  0  0  0  0  0  0  0  0  0  0  0
   -0.7215   -3.1543   -1.3112 H   0  0  0  0  0  0  0  0  0  0  0  0
    0.6165    0.5887   -1.0412 H   0  0  0  0  0  0  0  0  0  0  0  0
   -1.5544    2.0950   -0.5290 H   0  0  0  0  0  0  0  0  0  0  0  0
   -4.6178    1.7353   -1.5297 H   0  0  0  0  0  0  0  0  0  0  0  0
   -3.8598    2.4662   -0.0968 H   0  0  0  0  0  0  0  0  0  0  0  0
   -5.7616    1.8094    1.3289 H   0  0  0  0  0  0  0  0  0  0  0  0
   -6.3448    2.7127   -0.0758 H   0  0  0  0  0  0  0  0  0  0  0  0
   -6.8682   -1.3432    0.0268 H   0  0  0  0  0  0  0  0  0  0  0  0
   -6.0683   -0.5484    1.3896 H   0  0  0  0  0  0  0  0  0  0  0  0
   -4.4022   -1.7360    0.0207 H   0  0  0  0  0  0  0  0  0  0  0  0
   -4.9559   -0.9159   -1.4582 H   0  0  0  0  0  0  0  0  0  0  0  0
    3.1183    1.3346    2.1804 H   0  0  0  0  0  0  0  0  0  0  0  0
  1  2  1  0
  2  3  2  0
  3  4  1  0
  4  5  2  0
  5  6  1  0
  6  7  1  0
  7  8  1  0
  8  9  1  0
  9 10  3  0
  8 11  2  3
 11 12  1  0
 12 13  2  0
 13 14  1  0
 14 15  2  0
 15 16  1  0
 16 17  1  0
 17 18  1  0
 18 19  1  0
 19 20  1  0
 20 21  1  0
 15 22  1  0
  7 23  2  0
 23 24  1  0
 24 25  2  0
 25  2  1  0
 24  5  1  0
 22 12  1  0
 21 16  1  0
  1 26  1  0
  1 27  1  0
  1 28  1  0
  3 29  1  0
  4 30  1  0
  6 31  1  0
 11 32  1  0
 13 33  1  0
 14 34  1  0
 17 35  1  0
 17 36  1  0
 18 37  1  0
 18 38  1  0
 20 39  1  0
 20 40  1  0
 21 41  1  0
 21 42  1  0
 25 43  1  0
M  END
$$$$
