
     RDKit          3D

 43 44  0  0  0  0  0  0  0  0999 V2000
    5.2100   -2.1712    1.5763 C   0  0  0  0  0  0  0  0  0  0  0  0
    4.3254   -1.1954    1.0227 O   0  0  0  0  0  0  0  0  0  0  0  0
    4.0823   -1.3522   -0.3018 C   0  0  0  0  0  0  0  0  0  0  0  0
    4.5252   -2.2423   -1.0101 O   0  0  0  0  0  0  0  0  0  0  0  0
    3.1824   -0.2781   -0.8010 C   0  0  0  0  0  0  0  0  0  0  0  0
    2.9204   -0.2215   -2.1772 C   0  0  0  0  0  0  0  0  0  0  0  0
    2.0919    0.7757   -2.6976 C   0  0  0  0  0  0  0  0  0  0  0  0
    1.5415    1.7416   -1.8548 C   0  0  0  0  0  0  0  0  0  0  0  0
    0.6365    2.6916   -2.3881 N   0  0  0  0  0  0  0  0  0  0  0  0
    1.7258    1.6312   -0.4597 C   0  0  0  0  0  0  0  0  0  0  0  0
    1.0710    2.5185    0.4119 N   0  0  0  0  0  0  0  0  0  0  0  0
   -0.1020    2.2034    0.8807 C   0  0  0  0  0  0  0  0  0  0  0  0
   -0.9032    0.9465    0.6146 C   0  0  0  0  0  0  0  0  0  0  0  0
   -2.0408    1.2151   -0.3446 C   0  0  0  0  0  0  0  0  0  0  0  0
   -1.9163    1.9712   -1.3095 O   0  0  0  0  0  0  0  0  0  0  0  0
   -3.3610    0.5210   -0.0849 C   0  0  0  0  0  0  0  0  0  0  0  0
   -3.1692   -0.8978    0.4792 C   0  0  0  0  0  0  0  0  0  0  0  0
   -2.4850   -1.8091   -0.5600 C   0  0  0  0  0  0  0  0  0  0  0  0
   -4.5591   -1.4966    0.7749 C   0  0  0  0  0  0  0  0  0  0  0  0
   -2.3531   -0.8565    1.7887 C   0  0  0  0  0  0  0  0  0  0  0  0
   -1.4087    0.3273    1.8951 C   0  0  0  0  0  0  0  0  0  0  0  0
   -1.0302    0.7135    3.0014 O   0  0  0  0  0  0  0  0  0  0  0  0
    2.5785    0.6506    0.0562 C   0  0  0  0  0  0  0  0  0  0  0  0
    5.4988   -1.8371    2.5756 H   0  0  0  0  0  0  0  0  0  0  0  0
    4.6973   -3.1344    1.6604 H   0  0  0  0  0  0  0  0  0  0  0  0
    6.1186   -2.2701    0.9736 H   0  0  0  0  0  0  0  0  0  0  0  0
    3.3703   -0.9476   -2.8540 H   0  0  0  0  0  0  0  0  0  0  0  0
    1.8996    0.8187   -3.7670 H   0  0  0  0  0  0  0  0  0  0  0  0
   -0.3187    2.3170   -2.3807 H   0  0  0  0  0  0  0  0  0  0  0  0
    0.6154    3.4902   -1.7491 H   0  0  0  0  0  0  0  0  0  0  0  0
   -0.5855    2.9550    1.5298 H   0  0  0  0  0  0  0  0  0  0  0  0
   -0.2675    0.1887    0.1497 H   0  0  0  0  0  0  0  0  0  0  0  0
   -3.9277    1.1466    0.6147 H   0  0  0  0  0  0  0  0  0  0  0  0
   -3.9210    0.4852   -1.0269 H   0  0  0  0  0  0  0  0  0  0  0  0
   -2.4116   -2.8394   -0.1918 H   0  0  0  0  0  0  0  0  0  0  0  0
   -1.4715   -1.4796   -0.8037 H   0  0  0  0  0  0  0  0  0  0  0  0
   -3.0577   -1.8335   -1.4940 H   0  0  0  0  0  0  0  0  0  0  0  0
   -4.4752   -2.5056    1.1954 H   0  0  0  0  0  0  0  0  0  0  0  0
   -5.1096   -0.8803    1.4955 H   0  0  0  0  0  0  0  0  0  0  0  0
   -5.1661   -1.5607   -0.1351 H   0  0  0  0  0  0  0  0  0  0  0  0
   -3.0323   -0.7755    2.6473 H   0  0  0  0  0  0  0  0  0  0  0  0
   -1.7670   -1.7728    1.9191 H   0  0  0  0  0  0  0  0  0  0  0  0
    2.7492    0.6192    1.1288 H   0  0  0  0  0  0  0  0  0  0  0  0
  1  2  1  0
  2  3  1  0
  3  4  2  0
  3  5  1  0
  5  6  2  0
  6  7  1  0
  7  8  2  0
  8  9  1  0
  8 10  1  0
 10 11  1  0
 11 12  2  3
 12 13  1  0
 13 14  1  0
 14 15  2  0
 14 16  1  0
 16 17  1  0
 17 18  1  0
 17 19  1  0
 17 20  1  0
 20 21  1  0
 21 22  2  0
 10 23  2  0
 23  5  1  0
 21 13  1  0
  1 24  1  0
  1 25  1  0
  1 26  1  0
  6 27  1  0
  7 28  1  0
  9 29  1  0
  9 30  1  0
 12 31  1  0
 13 32  1  0
 16 33  1  0
 16 34  1  0
 18 35  1  0
 18 36  1  0
 18 37  1  0
 19 38  1  0
 19 39  1  0
 19 40  1  0
 20 41  1  0
 20 42  1  0
 23 43  1  0
M  END
$$$$
