
     RDKit          3D

 60 63  0  0  0  0  0  0  0  0999 V2000
   -6.9317    2.1255    3.3406 C   0  0  0  0  0  0  0  0  0  0  0  0
   -5.7110    2.1379    2.4414 C   0  0  0  0  0  0  0  0  0  0  0  0
   -5.5513    0.8269    1.8873 O   0  0  0  0  0  0  0  0  0  0  0  0
   -4.4535    0.6933    1.0854 C   0  0  0  0  0  0  0  0  0  0  0  0
   -3.6951    1.6070    0.7810 O   0  0  0  0  0  0  0  0  0  0  0  0
   -4.3473   -0.7494    0.5827 C   0  0  0  0  0  0  0  0  0  0  0  0
   -5.2249   -0.9233   -0.6643 C   0  0  0  0  0  0  0  0  0  0  0  0
   -4.5232   -0.4577   -1.9368 C   0  0  0  0  0  0  0  0  0  0  0  0
   -3.1531   -1.1130   -2.1232 C   0  0  0  0  0  0  0  0  0  0  0  0
   -2.6873   -1.8963   -0.8995 C   0  0  0  0  0  0  0  0  0  0  0  0
   -2.9132   -1.0784    0.3046 N   0  0  0  0  0  0  0  0  0  0  0  0
   -2.0143   -1.4796    1.6879 S   0  0  0  0  0  6  0  0  0  0  0  0
   -2.0587   -2.9224    1.8101 O   0  0  0  0  0  0  0  0  0  0  0  0
   -2.4292   -0.6262    2.7791 O   0  0  0  0  0  0  0  0  0  0  0  0
   -0.3676   -1.0015    1.2329 C   0  0  0  0  0  0  0  0  0  0  0  0
   -0.1288    0.3298    0.8532 C   0  0  0  0  0  0  0  0  0  0  0  0
    1.1584    0.7338    0.4813 C   0  0  0  0  0  0  0  0  0  0  0  0
    2.1826   -0.2017    0.4923 C   0  0  0  0  0  0  0  0  0  0  0  0
    1.9314   -1.5214    0.8808 C   0  0  0  0  0  0  0  0  0  0  0  0
    0.6641   -1.9428    1.2582 C   0  0  0  0  0  0  0  0  0  0  0  0
    3.1899   -2.3267    0.9044 C   0  0  0  0  0  0  0  0  0  0  0  0
    4.1816   -1.3881    0.1830 C   0  0  0  0  0  0  0  0  0  0  0  0
    4.4660   -1.8981   -1.2328 C   0  0  0  0  0  0  0  0  0  0  0  0
    3.5482   -0.0428    0.1592 N   0  0  0  0  0  0  0  0  0  0  0  0
    4.1576    1.1702   -0.1669 C   0  0  0  0  0  0  0  0  0  0  0  0
    3.5289    2.2360   -0.2257 O   0  0  0  0  0  0  0  0  0  0  0  0
    5.6967    1.1483   -0.4450 C   0  0  0  0  0  0  0  0  0  0  0  0
    6.5033    2.4221   -0.0635 C   0  0  0  0  0  0  0  0  0  0  0  0
    6.3980    2.8747   -1.5293 C   0  0  0  0  0  0  0  0  0  0  0  0
    6.1483    1.4057   -1.9086 C   0  0  0  0  0  0  0  0  0  0  0  0
   -7.8246    1.8401    2.7747 H   0  0  0  0  0  0  0  0  0  0  0  0
   -6.8129    1.3880    4.1412 H   0  0  0  0  0  0  0  0  0  0  0  0
   -7.0966    3.1095    3.7884 H   0  0  0  0  0  0  0  0  0  0  0  0
   -5.8542    2.8644    1.6337 H   0  0  0  0  0  0  0  0  0  0  0  0
   -4.8236    2.4047    3.0264 H   0  0  0  0  0  0  0  0  0  0  0  0
   -4.7215   -1.4184    1.3685 H   0  0  0  0  0  0  0  0  0  0  0  0
   -6.1745   -0.3866   -0.5523 H   0  0  0  0  0  0  0  0  0  0  0  0
   -5.4834   -1.9845   -0.7757 H   0  0  0  0  0  0  0  0  0  0  0  0
   -5.1549   -0.6668   -2.8079 H   0  0  0  0  0  0  0  0  0  0  0  0
   -4.3988    0.6318   -1.9053 H   0  0  0  0  0  0  0  0  0  0  0  0
   -3.1753   -1.7833   -2.9906 H   0  0  0  0  0  0  0  0  0  0  0  0
   -2.4207   -0.3307   -2.3597 H   0  0  0  0  0  0  0  0  0  0  0  0
   -1.6262   -2.1343   -1.0231 H   0  0  0  0  0  0  0  0  0  0  0  0
   -3.2307   -2.8448   -0.8164 H   0  0  0  0  0  0  0  0  0  0  0  0
   -0.9420    1.0549    0.8476 H   0  0  0  0  0  0  0  0  0  0  0  0
    1.3216    1.7658    0.1895 H   0  0  0  0  0  0  0  0  0  0  0  0
    0.4873   -2.9666    1.5745 H   0  0  0  0  0  0  0  0  0  0  0  0
    3.0748   -3.2954    0.4092 H   0  0  0  0  0  0  0  0  0  0  0  0
    3.4994   -2.4835    1.9437 H   0  0  0  0  0  0  0  0  0  0  0  0
    5.1184   -1.3457    0.7482 H   0  0  0  0  0  0  0  0  0  0  0  0
    5.1767   -1.2560   -1.7583 H   0  0  0  0  0  0  0  0  0  0  0  0
    3.5516   -1.9339   -1.8356 H   0  0  0  0  0  0  0  0  0  0  0  0
    4.8928   -2.9061   -1.2006 H   0  0  0  0  0  0  0  0  0  0  0  0
    6.1906    0.2695   -0.0190 H   0  0  0  0  0  0  0  0  0  0  0  0
    7.5293    2.2088    0.2591 H   0  0  0  0  0  0  0  0  0  0  0  0
    6.0404    3.0905    0.6676 H   0  0  0  0  0  0  0  0  0  0  0  0
    7.2991    3.3266   -1.9516 H   0  0  0  0  0  0  0  0  0  0  0  0
    5.5447    3.5327   -1.7286 H   0  0  0  0  0  0  0  0  0  0  0  0
    7.0566    0.8591   -2.1880 H   0  0  0  0  0  0  0  0  0  0  0  0
    5.3914    1.2481   -2.6821 H   0  0  0  0  0  0  0  0  0  0  0  0
  1  2  1  0
  2  3  1  0
  3  4  1  0
  4  5  2  0
  4  6  1  0
  6  7  1  0
  7  8  1  0
  8  9  1  0
  9 10  1  0
 10 11  1  0
 11 12  1  0
 12 13  2  0
 12 14  2  0
 12 15  1  0
 15 16  2  0
 16 17  1  0
 17 18  2  0
 18 19  1  0
 19 20  2  0
 19 21  1  0
 21 22  1  0
 22 23  1  0
 22 24  1  0
 24 25  1  0
 25 26  2  0
 25 27  1  0
 27 28  1  0
 28 29  1  0
 29 30  1  0
 11  6  1  0
 20 15  1  0
 30 27  1  0
 24 18  1  0
  1 31  1  0
  1 32  1  0
  1 33  1  0
  2 34  1  0
  2 35  1  0
  6 36  1  0
  7 37  1  0
  7 38  1  0
  8 39  1  0
  8 40  1  0
  9 41  1  0
  9 42  1  0
 10 43  1  0
 10 44  1  0
 16 45  1  0
 17 46  1  0
 20 47  1  0
 21 48  1  0
 21 49  1  0
 22 50  1  0
 23 51  1  0
 23 52  1  0
 23 53  1  0
 27 54  1  0
 28 55  1  0
 28 56  1  0
 29 57  1  0
 29 58  1  0
 30 59  1  0
 30 60  1  0
M  END
$$$$
