
     RDKit          3D

 47 50  0  0  0  0  0  0  0  0999 V2000
   -0.1589    3.7350    1.9669 O   0  0  0  0  0  0  0  0  0  0  0  0
    0.0571    2.5848    2.3631 C   0  0  0  0  0  0  0  0  0  0  0  0
   -0.8817    1.9113    3.3614 C   0  0  0  0  0  0  0  0  0  0  0  0
   -2.6285    2.1902    2.9276 S   0  0  0  0  0  0  0  0  0  0  0  0
   -2.7712    1.1818    1.5225 C   0  0  0  0  0  0  0  0  0  0  0  0
   -1.7647    0.6346    0.8737 N   0  0  0  0  0  0  0  0  0  0  0  0
   -2.3094   -0.1149   -0.1488 N   0  0  0  0  0  0  0  0  0  0  0  0
   -3.6182   -0.0006   -0.0354 C   0  0  0  0  0  0  0  0  0  0  0  0
   -4.6874   -0.6060   -0.8206 C   0  0  0  0  0  0  0  0  0  0  0  0
   -6.0327   -0.5163   -0.4252 C   0  0  0  0  0  0  0  0  0  0  0  0
   -7.0415   -1.1274   -1.1767 C   0  0  0  0  0  0  0  0  0  0  0  0
   -6.7189   -1.8368   -2.3307 C   0  0  0  0  0  0  0  0  0  0  0  0
   -5.3892   -1.9313   -2.7403 C   0  0  0  0  0  0  0  0  0  0  0  0
   -4.3817   -1.3188   -1.9872 C   0  0  0  0  0  0  0  0  0  0  0  0
   -3.9842    0.8175    1.0008 O   0  0  0  0  0  0  0  0  0  0  0  0
    1.1753    1.8784    1.9436 N   0  0  0  0  0  0  0  0  0  0  0  0
    1.5062    0.5099    2.3534 C   0  0  0  0  0  0  0  0  0  0  0  0
    2.8795    0.0215    1.8459 C   0  0  0  0  0  0  0  0  0  0  0  0
    2.9948    0.1933    0.3932 N   0  0  0  0  0  0  0  0  0  0  0  0
    3.8530   -0.5868   -0.3699 C   0  0  0  0  0  0  0  0  0  0  0  0
    3.7231   -0.6552   -1.7685 C   0  0  0  0  0  0  0  0  0  0  0  0
    4.5633   -1.4445   -2.5599 C   0  0  0  0  0  0  0  0  0  0  0  0
    5.5711   -2.1887   -1.9655 C   0  0  0  0  0  0  0  0  0  0  0  0
    5.7284   -2.1473   -0.5866 C   0  0  0  0  0  0  0  0  0  0  0  0
    4.8772   -1.3581    0.1971 C   0  0  0  0  0  0  0  0  0  0  0  0
    2.3406    1.3771   -0.1980 C   0  0  0  0  0  0  0  0  0  0  0  0
    2.0066    2.4331    0.8716 C   0  0  0  0  0  0  0  0  0  0  0  0
   -0.7274    0.8352    3.4447 H   0  0  0  0  0  0  0  0  0  0  0  0
   -0.6859    2.3524    4.3473 H   0  0  0  0  0  0  0  0  0  0  0  0
   -6.3130    0.0275    0.4754 H   0  0  0  0  0  0  0  0  0  0  0  0
   -8.0785   -1.0610   -0.8494 H   0  0  0  0  0  0  0  0  0  0  0  0
   -7.5042   -2.3204   -2.9125 H   0  0  0  0  0  0  0  0  0  0  0  0
   -5.1364   -2.4832   -3.6417 H   0  0  0  0  0  0  0  0  0  0  0  0
   -3.3505   -1.4006   -2.3244 H   0  0  0  0  0  0  0  0  0  0  0  0
    1.4731    0.4548    3.4475 H   0  0  0  0  0  0  0  0  0  0  0  0
    0.7246   -0.1484    1.9512 H   0  0  0  0  0  0  0  0  0  0  0  0
    3.6817    0.5828    2.3405 H   0  0  0  0  0  0  0  0  0  0  0  0
    2.9747   -1.0333    2.1273 H   0  0  0  0  0  0  0  0  0  0  0  0
    2.9321   -0.1112   -2.2753 H   0  0  0  0  0  0  0  0  0  0  0  0
    4.4394   -1.4757   -3.6411 H   0  0  0  0  0  0  0  0  0  0  0  0
    6.2407   -2.7954   -2.5675 H   0  0  0  0  0  0  0  0  0  0  0  0
    6.5176   -2.7260   -0.1150 H   0  0  0  0  0  0  0  0  0  0  0  0
    5.0509   -1.3460    1.2687 H   0  0  0  0  0  0  0  0  0  0  0  0
    1.4148    1.0634   -0.6953 H   0  0  0  0  0  0  0  0  0  0  0  0
    2.9902    1.8572   -0.9415 H   0  0  0  0  0  0  0  0  0  0  0  0
    1.5181    3.2898    0.3953 H   0  0  0  0  0  0  0  0  0  0  0  0
    2.9300    2.8023    1.3424 H   0  0  0  0  0  0  0  0  0  0  0  0
  1  2  2  0
  2  3  1  0
  3  4  1  0
  4  5  1  0
  5  6  2  0
  6  7  1  0
  7  8  2  0
  8  9  1  0
  9 10  2  0
 10 11  1  0
 11 12  2  0
 12 13  1  0
 13 14  2  0
  8 15  1  0
  2 16  1  0
 16 17  1  0
 17 18  1  0
 18 19  1  0
 19 20  1  0
 20 21  2  0
 21 22  1  0
 22 23  2  0
 23 24  1  0
 24 25  2  0
 19 26  1  0
 26 27  1  0
 15  5  1  0
 27 16  1  0
 14  9  1  0
 25 20  1  0
  3 28  1  0
  3 29  1  0
 10 30  1  0
 11 31  1  0
 12 32  1  0
 13 33  1  0
 14 34  1  0
 17 35  1  0
 17 36  1  0
 18 37  1  0
 18 38  1  0
 21 39  1  0
 22 40  1  0
 23 41  1  0
 24 42  1  0
 25 43  1  0
 26 44  1  0
 26 45  1  0
 27 46  1  0
 27 47  1  0
M  END
$$$$
