
     RDKit          3D

 74 78  0  0  0  0  0  0  0  0999 V2000
    1.2853   -3.9560    2.6414 C   0  0  0  0  0  0  0  0  0  0  0  0
    1.0217   -2.5896    3.2599 C   0  0  0  0  0  0  0  0  0  0  0  0
   -0.3401   -2.0524    2.9064 C   0  0  0  0  0  0  0  0  0  0  0  0
   -1.5408   -2.3746    3.7666 C   0  0  0  0  0  0  0  0  0  0  0  0
   -1.3485   -3.2600    4.9791 C   0  0  0  0  0  0  0  0  0  0  0  0
   -2.7512   -1.9425    3.5597 N   0  0  0  0  0  0  0  0  0  0  0  0
   -2.9386   -1.1365    2.4799 C   0  0  0  0  0  0  0  0  0  0  0  0
   -4.0710   -0.5355    1.9883 C   0  0  0  0  0  0  0  0  0  0  0  0
   -3.6712    0.1869    0.8378 C   0  0  0  0  0  0  0  0  0  0  0  0
   -4.5083    0.9911   -0.0633 C   0  0  0  0  0  0  0  0  0  0  0  0
   -5.8750    1.1730    0.1844 C   0  0  0  0  0  0  0  0  0  0  0  0
   -6.6740    1.9298   -0.6804 C   0  0  0  0  0  0  0  0  0  0  0  0
   -7.9878    2.0142   -0.3036 O   0  0  0  0  0  0  0  0  0  0  0  0
   -8.8526    2.7865   -1.1257 C   0  0  0  0  0  0  0  0  0  0  0  0
   -6.1069    2.5157   -1.8140 C   0  0  0  0  0  0  0  0  0  0  0  0
   -4.7455    2.3495   -2.0790 C   0  0  0  0  0  0  0  0  0  0  0  0
   -4.0664    2.8730   -3.1470 O   0  0  0  0  0  0  0  0  0  0  0  0
   -4.8187    3.6251   -4.0902 C   0  0  0  0  0  0  0  0  0  0  0  0
   -3.9582    1.5925   -1.2047 C   0  0  0  0  0  0  0  0  0  0  0  0
   -2.3523    0.0526    0.6319 N   0  0  0  0  0  0  0  0  0  0  0  0
   -1.9008   -0.7653    1.6300 N   0  0  0  0  0  0  0  0  0  0  0  0
   -0.5761   -1.2327    1.8549 C   0  0  0  0  0  0  0  0  0  0  0  0
    0.4526   -0.8314    0.9733 N   0  0  0  0  0  0  0  0  0  0  0  0
    0.4644   -1.3976   -0.4025 C   0  0  0  0  0  0  0  0  0  0  0  0
    1.2456   -0.5318   -1.4205 C   0  0  0  0  0  0  0  0  0  0  0  0
    2.5198   -0.0575   -0.8687 N   0  0  0  0  0  0  0  0  0  0  0  0
    3.3535    0.6208   -1.8678 C   0  0  0  0  0  0  0  0  0  0  0  0
    4.7704    1.0660   -1.3952 C   0  0  0  0  0  0  0  0  0  0  0  0
    5.5289    0.1115   -0.5640 N   0  0  0  0  0  0  0  0  0  0  0  0
    5.7344   -1.2046   -1.2005 C   0  0  0  0  0  0  0  0  0  0  0  0
    6.7787   -1.1889   -2.3273 C   0  0  0  0  0  0  0  0  0  0  0  0
    8.0397   -0.6893   -1.8621 O   0  0  0  0  0  0  0  0  0  0  0  0
    7.8914    0.6248   -1.3095 C   0  0  0  0  0  0  0  0  0  0  0  0
    6.8497    0.6527   -0.1766 C   0  0  0  0  0  0  0  0  0  0  0  0
    2.3007    0.7380    0.3565 C   0  0  0  0  0  0  0  0  0  0  0  0
    0.9087    0.5735    1.0195 C   0  0  0  0  0  0  0  0  0  0  0  0
    0.5359   -4.6931    2.9437 H   0  0  0  0  0  0  0  0  0  0  0  0
    2.2651   -4.3260    2.9632 H   0  0  0  0  0  0  0  0  0  0  0  0
    1.2899   -3.9057    1.5471 H   0  0  0  0  0  0  0  0  0  0  0  0
    1.1447   -2.6485    4.3462 H   0  0  0  0  0  0  0  0  0  0  0  0
    1.8059   -1.8979    2.9298 H   0  0  0  0  0  0  0  0  0  0  0  0
   -0.9322   -4.2247    4.6842 H   0  0  0  0  0  0  0  0  0  0  0  0
   -0.6865   -2.7691    5.6968 H   0  0  0  0  0  0  0  0  0  0  0  0
   -2.3080   -3.4416    5.4725 H   0  0  0  0  0  0  0  0  0  0  0  0
   -5.0563   -0.6253    2.4210 H   0  0  0  0  0  0  0  0  0  0  0  0
   -6.3485    0.7278    1.0555 H   0  0  0  0  0  0  0  0  0  0  0  0
   -8.5313    3.8322   -1.1631 H   0  0  0  0  0  0  0  0  0  0  0  0
   -8.9282    2.3582   -2.1309 H   0  0  0  0  0  0  0  0  0  0  0  0
   -9.8501    2.7612   -0.6766 H   0  0  0  0  0  0  0  0  0  0  0  0
   -6.7224    3.0990   -2.4861 H   0  0  0  0  0  0  0  0  0  0  0  0
   -4.1325    3.9584   -4.8751 H   0  0  0  0  0  0  0  0  0  0  0  0
   -5.5888    3.0061   -4.5626 H   0  0  0  0  0  0  0  0  0  0  0  0
   -5.2541    4.5180   -3.6294 H   0  0  0  0  0  0  0  0  0  0  0  0
   -2.8989    1.4726   -1.4260 H   0  0  0  0  0  0  0  0  0  0  0  0
   -0.5549   -1.5419   -0.7777 H   0  0  0  0  0  0  0  0  0  0  0  0
    0.9316   -2.3882   -0.3484 H   0  0  0  0  0  0  0  0  0  0  0  0
    0.6268    0.3181   -1.7357 H   0  0  0  0  0  0  0  0  0  0  0  0
    1.4236   -1.1432   -2.3130 H   0  0  0  0  0  0  0  0  0  0  0  0
    2.8316    1.5039   -2.2615 H   0  0  0  0  0  0  0  0  0  0  0  0
    3.4947   -0.0570   -2.7194 H   0  0  0  0  0  0  0  0  0  0  0  0
    4.6409    1.9858   -0.8085 H   0  0  0  0  0  0  0  0  0  0  0  0
    5.3387    1.3551   -2.2883 H   0  0  0  0  0  0  0  0  0  0  0  0
    6.0874   -1.8895   -0.4174 H   0  0  0  0  0  0  0  0  0  0  0  0
    4.7952   -1.6325   -1.5616 H   0  0  0  0  0  0  0  0  0  0  0  0
    6.9461   -2.2087   -2.6913 H   0  0  0  0  0  0  0  0  0  0  0  0
    6.4452   -0.5869   -3.1808 H   0  0  0  0  0  0  0  0  0  0  0  0
    8.8671    0.9322   -0.9222 H   0  0  0  0  0  0  0  0  0  0  0  0
    7.6299    1.3212   -2.1145 H   0  0  0  0  0  0  0  0  0  0  0  0
    6.7499    1.6714    0.2165 H   0  0  0  0  0  0  0  0  0  0  0  0
    7.2246    0.0405    0.6543 H   0  0  0  0  0  0  0  0  0  0  0  0
    2.4343    1.8098    0.1658 H   0  0  0  0  0  0  0  0  0  0  0  0
    3.0684    0.4452    1.0831 H   0  0  0  0  0  0  0  0  0  0  0  0
    0.9744    0.9149    2.0597 H   0  0  0  0  0  0  0  0  0  0  0  0
    0.1793    1.2165    0.5111 H   0  0  0  0  0  0  0  0  0  0  0  0
  1  2  1  0
  2  3  1  0
  3  4  1  0
  4  5  1  0
  4  6  2  0
  6  7  1  0
  7  8  2  0
  8  9  1  0
  9 10  1  0
 10 11  2  0
 11 12  1  0
 12 13  1  0
 13 14  1  0
 12 15  2  0
 15 16  1  0
 16 17  1  0
 17 18  1  0
 16 19  2  0
  9 20  2  0
 20 21  1  0
 21 22  1  0
 22 23  1  0
 23 24  1  0
 24 25  1  0
 25 26  1  0
 26 27  1  0
 27 28  1  0
 28 29  1  0
 29 30  1  0
 30 31  1  0
 31 32  1  0
 32 33  1  0
 33 34  1  0
 26 35  1  0
 35 36  1  0
 22  3  2  0
 36 23  1  0
 21  7  1  0
 34 29  1  0
 19 10  1  0
  1 37  1  0
  1 38  1  0
  1 39  1  0
  2 40  1  0
  2 41  1  0
  5 42  1  0
  5 43  1  0
  5 44  1  0
  8 45  1  0
 11 46  1  0
 14 47  1  0
 14 48  1  0
 14 49  1  0
 15 50  1  0
 18 51  1  0
 18 52  1  0
 18 53  1  0
 19 54  1  0
 24 55  1  0
 24 56  1  0
 25 57  1  0
 25 58  1  0
 27 59  1  0
 27 60  1  0
 28 61  1  0
 28 62  1  0
 30 63  1  0
 30 64  1  0
 31 65  1  0
 31 66  1  0
 33 67  1  0
 33 68  1  0
 34 69  1  0
 34 70  1  0
 35 71  1  0
 35 72  1  0
 36 73  1  0
 36 74  1  0
M  END
$$$$
