
     RDKit          3D

 35 36  0  0  0  0  0  0  0  0999 V2000
    4.3361   -2.0374   -1.7391 C   0  0  0  0  0  0  0  0  0  0  0  0
    3.3961   -0.8891   -1.5227 C   0  0  0  0  0  0  0  0  0  0  0  0
    3.5649    0.3094   -2.2206 C   0  0  0  0  0  0  0  0  0  0  0  0
    2.6674    1.3664   -2.0392 C   0  0  0  0  0  0  0  0  0  0  0  0
    1.5698    1.2370   -1.1802 C   0  0  0  0  0  0  0  0  0  0  0  0
    0.7248    2.3595   -1.0524 N   0  0  0  0  0  0  0  0  0  0  0  0
   -0.5127    2.5179   -0.4965 C   0  0  0  0  0  0  0  0  0  0  0  0
   -1.0154    4.0807   -0.1735 S   0  0  0  0  0  0  0  0  0  0  0  0
   -1.2499    1.3935   -0.2842 N   0  0  0  0  0  0  0  0  0  0  0  0
   -2.6075    1.3429    0.2221 C   0  0  0  0  0  0  0  0  0  0  0  0
   -2.8808   -0.0720    0.5966 C   0  0  0  0  0  0  0  0  0  0  0  0
   -3.5313   -1.0620   -0.1195 C   0  0  0  0  0  0  0  0  0  0  0  0
   -3.5270   -2.2387    0.6634 C   0  0  0  0  0  0  0  0  0  0  0  0
   -2.8759   -1.9441    1.8393 C   0  0  0  0  0  0  0  0  0  0  0  0
   -2.4877   -0.6299    1.7947 N   0  0  0  0  0  0  0  0  0  0  0  0
   -1.7684    0.0485    2.8520 C   0  0  0  0  0  0  0  0  0  0  0  0
    1.4111    0.0439   -0.4735 C   0  0  0  0  0  0  0  0  0  0  0  0
    2.3087   -1.0153   -0.6533 C   0  0  0  0  0  0  0  0  0  0  0  0
    5.3405   -1.6788   -1.9879 H   0  0  0  0  0  0  0  0  0  0  0  0
    3.9734   -2.6687   -2.5560 H   0  0  0  0  0  0  0  0  0  0  0  0
    4.4243   -2.6462   -0.8331 H   0  0  0  0  0  0  0  0  0  0  0  0
    4.3970    0.4313   -2.9106 H   0  0  0  0  0  0  0  0  0  0  0  0
    2.8295    2.2856   -2.5968 H   0  0  0  0  0  0  0  0  0  0  0  0
    1.1157    3.2371   -1.3793 H   0  0  0  0  0  0  0  0  0  0  0  0
   -1.0172    0.6301   -0.9057 H   0  0  0  0  0  0  0  0  0  0  0  0
   -3.2808    1.6759   -0.5753 H   0  0  0  0  0  0  0  0  0  0  0  0
   -2.7260    2.0169    1.0756 H   0  0  0  0  0  0  0  0  0  0  0  0
   -3.9635   -0.9457   -1.1055 H   0  0  0  0  0  0  0  0  0  0  0  0
   -3.9531   -3.1979    0.3996 H   0  0  0  0  0  0  0  0  0  0  0  0
   -2.6618   -2.5648    2.6997 H   0  0  0  0  0  0  0  0  0  0  0  0
   -0.8257    0.4247    2.4482 H   0  0  0  0  0  0  0  0  0  0  0  0
   -1.5648   -0.6543    3.6640 H   0  0  0  0  0  0  0  0  0  0  0  0
   -2.3898    0.8678    3.2216 H   0  0  0  0  0  0  0  0  0  0  0  0
    0.6238   -0.0871    0.2612 H   0  0  0  0  0  0  0  0  0  0  0  0
    2.1563   -1.9370   -0.0954 H   0  0  0  0  0  0  0  0  0  0  0  0
  1  2  1  0
  2  3  2  0
  3  4  1  0
  4  5  2  0
  5  6  1  0
  6  7  1  0
  7  8  2  0
  7  9  1  0
  9 10  1  0
 10 11  1  0
 11 12  2  0
 12 13  1  0
 13 14  2  0
 14 15  1  0
 15 16  1  0
  5 17  1  0
 17 18  2  0
 18  2  1  0
 15 11  1  0
  1 19  1  0
  1 20  1  0
  1 21  1  0
  3 22  1  0
  4 23  1  0
  6 24  1  0
  9 25  1  0
 10 26  1  0
 10 27  1  0
 12 28  1  0
 13 29  1  0
 14 30  1  0
 16 31  1  0
 16 32  1  0
 16 33  1  0
 17 34  1  0
 18 35  1  0
M  END
$$$$
