
     RDKit          3D

 54 57  0  0  0  0  0  0  0  0999 V2000
    7.5555    3.5352    1.6236 C   0  0  0  0  0  0  0  0  0  0  0  0
    6.2540    3.3263    2.1577 O   0  0  0  0  0  0  0  0  0  0  0  0
    5.4485    2.4458    1.4912 C   0  0  0  0  0  0  0  0  0  0  0  0
    5.7811    1.7341    0.3428 C   0  0  0  0  0  0  0  0  0  0  0  0
    4.8506    0.8602   -0.2372 C   0  0  0  0  0  0  0  0  0  0  0  0
    3.5653    0.6744    0.3052 C   0  0  0  0  0  0  0  0  0  0  0  0
    2.6042   -0.2511   -0.3330 C   0  0  0  0  0  0  0  0  0  0  0  0
    1.2318   -0.0792   -0.2723 C   0  0  0  0  0  0  0  0  0  0  0  0
    0.4115   -1.0105   -0.9144 C   0  0  0  0  0  0  0  0  0  0  0  0
   -1.0525   -0.8004   -0.8332 C   0  0  0  0  0  0  0  0  0  0  0  0
   -1.7357   -0.7316   -1.8455 O   0  0  0  0  0  0  0  0  0  0  0  0
   -1.5556   -0.6921    0.4462 N   0  0  0  0  0  0  0  0  0  0  0  0
   -2.9728   -0.4751    0.6817 C   0  0  0  0  0  0  0  0  0  0  0  0
   -3.3624    1.0055    0.5318 C   0  0  0  0  0  0  0  0  0  0  0  0
   -4.7655    1.3936    0.6947 N   0  0  0  0  0  0  0  0  0  0  0  0
   -5.3973    1.0210    1.9666 C   0  0  0  0  0  0  0  0  0  0  0  0
   -6.1173   -0.3383    1.9658 C   0  0  0  0  0  0  0  0  0  0  0  0
   -7.0341   -0.4483    0.8731 O   0  0  0  0  0  0  0  0  0  0  0  0
   -6.3484   -0.2843   -0.3737 C   0  0  0  0  0  0  0  0  0  0  0  0
   -5.6351    1.0744   -0.4487 C   0  0  0  0  0  0  0  0  0  0  0  0
    0.9592   -2.0967   -1.6279 C   0  0  0  0  0  0  0  0  0  0  0  0
    0.2080   -3.0874   -2.3107 C   0  0  0  0  0  0  0  0  0  0  0  0
    0.8380   -4.1330   -2.9827 C   0  0  0  0  0  0  0  0  0  0  0  0
    2.2228   -4.2077   -2.9811 C   0  0  0  0  0  0  0  0  0  0  0  0
    2.9661   -3.2356   -2.3080 C   0  0  0  0  0  0  0  0  0  0  0  0
    2.3622   -2.1833   -1.6321 C   0  0  0  0  0  0  0  0  0  0  0  0
    3.1514   -1.2938   -1.0050 N   0  0  0  0  0  0  0  0  0  0  0  0
    3.2556    1.3975    1.4696 C   0  0  0  0  0  0  0  0  0  0  0  0
    4.1835    2.2709    2.0509 C   0  0  0  0  0  0  0  0  0  0  0  0
    8.1402    2.6094    1.6352 H   0  0  0  0  0  0  0  0  0  0  0  0
    7.5051    3.9593    0.6153 H   0  0  0  0  0  0  0  0  0  0  0  0
    8.0671    4.2599    2.2642 H   0  0  0  0  0  0  0  0  0  0  0  0
    6.7520    1.8285   -0.1315 H   0  0  0  0  0  0  0  0  0  0  0  0
    5.1396    0.3155   -1.1359 H   0  0  0  0  0  0  0  0  0  0  0  0
    0.7962    0.7794    0.2271 H   0  0  0  0  0  0  0  0  0  0  0  0
   -0.9441   -0.8193    1.2426 H   0  0  0  0  0  0  0  0  0  0  0  0
   -3.1719   -0.8267    1.6981 H   0  0  0  0  0  0  0  0  0  0  0  0
   -3.5292   -1.1001   -0.0210 H   0  0  0  0  0  0  0  0  0  0  0  0
   -3.0064    1.3784   -0.4377 H   0  0  0  0  0  0  0  0  0  0  0  0
   -2.7774    1.5775    1.2653 H   0  0  0  0  0  0  0  0  0  0  0  0
   -4.6801    1.0704    2.7944 H   0  0  0  0  0  0  0  0  0  0  0  0
   -6.1511    1.7911    2.1762 H   0  0  0  0  0  0  0  0  0  0  0  0
   -6.6948   -0.4451    2.8899 H   0  0  0  0  0  0  0  0  0  0  0  0
   -5.4140   -1.1758    1.9255 H   0  0  0  0  0  0  0  0  0  0  0  0
   -7.0983   -0.3471   -1.1691 H   0  0  0  0  0  0  0  0  0  0  0  0
   -5.6568   -1.1200   -0.5157 H   0  0  0  0  0  0  0  0  0  0  0  0
   -5.0961    1.1653   -1.3990 H   0  0  0  0  0  0  0  0  0  0  0  0
   -6.4112    1.8507   -0.4707 H   0  0  0  0  0  0  0  0  0  0  0  0
   -0.8798   -3.0443   -2.3306 H   0  0  0  0  0  0  0  0  0  0  0  0
    0.2472   -4.8803   -3.5064 H   0  0  0  0  0  0  0  0  0  0  0  0
    2.7298   -5.0159   -3.5017 H   0  0  0  0  0  0  0  0  0  0  0  0
    4.0521   -3.3014   -2.3109 H   0  0  0  0  0  0  0  0  0  0  0  0
    2.2922    1.2837    1.9596 H   0  0  0  0  0  0  0  0  0  0  0  0
    3.9169    2.8163    2.9532 H   0  0  0  0  0  0  0  0  0  0  0  0
  1  2  1  0
  2  3  1  0
  3  4  2  0
  4  5  1  0
  5  6  2  0
  6  7  1  0
  7  8  2  0
  8  9  1  0
  9 10  1  0
 10 11  2  0
 10 12  1  0
 12 13  1  0
 13 14  1  0
 14 15  1  0
 15 16  1  0
 16 17  1  0
 17 18  1  0
 18 19  1  0
 19 20  1  0
  9 21  2  0
 21 22  1  0
 22 23  2  0
 23 24  1  0
 24 25  2  0
 25 26  1  0
 26 27  2  0
  6 28  1  0
 28 29  2  0
 29  3  1  0
 27  7  1  0
 20 15  1  0
 26 21  1  0
  1 30  1  0
  1 31  1  0
  1 32  1  0
  4 33  1  0
  5 34  1  0
  8 35  1  0
 12 36  1  0
 13 37  1  0
 13 38  1  0
 14 39  1  0
 14 40  1  0
 16 41  1  0
 16 42  1  0
 17 43  1  0
 17 44  1  0
 19 45  1  0
 19 46  1  0
 20 47  1  0
 20 48  1  0
 22 49  1  0
 23 50  1  0
 24 51  1  0
 25 52  1  0
 28 53  1  0
 29 54  1  0
M  END
$$$$
