
     RDKit          3D

 46 48  0  0  0  0  0  0  0  0999 V2000
    7.3596    0.9349   -0.5805 C   0  0  0  0  0  0  0  0  0  0  0  0
    6.2830    1.1593    0.4378 C   0  0  0  0  0  0  0  0  0  0  0  0
    6.4146    0.9671    1.6382 O   0  0  0  0  0  0  0  0  0  0  0  0
    5.1531    1.6192   -0.1680 O   0  0  0  0  0  0  0  0  0  0  0  0
    4.0438    1.8784    0.7073 C   0  0  0  0  0  0  0  0  0  0  0  0
    3.2512    0.5977    0.9436 C   0  0  0  0  0  0  0  0  0  0  0  0
    2.0487    0.8525    1.8464 C   0  0  0  0  0  0  0  0  0  0  0  0
    1.3168   -0.3846    2.1214 N   0  0  0  0  0  0  0  0  0  0  0  0
    0.5184   -1.0408    1.1709 C   0  0  0  0  0  0  0  0  0  0  0  0
    0.0141   -0.3515    0.0284 C   0  0  0  0  0  0  0  0  0  0  0  0
   -0.8373   -0.9221   -0.9522 C   0  0  0  0  0  0  0  0  0  0  0  0
   -1.4109   -0.0239   -2.3585 S   0  0  0  0  0  0  0  0  0  0  0  0
   -3.0449    0.4219   -1.7992 C   0  0  0  0  0  0  0  0  0  0  0  0
   -3.2393    1.5733   -1.0319 C   0  0  0  0  0  0  0  0  0  0  0  0
   -4.5200    1.9182   -0.5900 C   0  0  0  0  0  0  0  0  0  0  0  0
   -5.6234    1.1237   -0.9224 C   0  0  0  0  0  0  0  0  0  0  0  0
   -6.9930    1.4754   -0.4203 C   0  0  0  0  0  0  0  0  0  0  0  0
   -5.4238   -0.0329   -1.6847 C   0  0  0  0  0  0  0  0  0  0  0  0
   -4.1436   -0.3766   -2.1275 C   0  0  0  0  0  0  0  0  0  0  0  0
   -1.1945   -2.2726   -0.7421 C   0  0  0  0  0  0  0  0  0  0  0  0
   -1.9393   -3.1056   -1.4826 N   0  0  0  0  0  0  0  0  0  0  0  0
   -1.9637   -4.3072   -0.8047 O   0  0  0  0  0  0  0  0  0  0  0  0
   -1.2297   -4.2480    0.3628 N   0  0  0  0  0  0  0  0  0  0  0  0
   -0.7432   -3.0012    0.4364 C   0  0  0  0  0  0  0  0  0  0  0  0
    0.0759   -2.3718    1.3914 C   0  0  0  0  0  0  0  0  0  0  0  0
    0.4623   -3.1359    2.5422 N   0  0  0  0  0  4  0  0  0  0  0  0
   -0.4371   -3.6091    3.2489 O   0  0  0  0  0  0  0  0  0  0  0  0
    1.6787   -3.2280    2.7682 O   0  0  0  0  0  1  0  0  0  0  0  0
    8.1693    0.3534   -0.1303 H   0  0  0  0  0  0  0  0  0  0  0  0
    6.9634    0.3633   -1.4227 H   0  0  0  0  0  0  0  0  0  0  0  0
    7.7543    1.8968   -0.9202 H   0  0  0  0  0  0  0  0  0  0  0  0
    4.3809    2.3300    1.6478 H   0  0  0  0  0  0  0  0  0  0  0  0
    3.4131    2.6219    0.2066 H   0  0  0  0  0  0  0  0  0  0  0  0
    2.9396    0.1848   -0.0235 H   0  0  0  0  0  0  0  0  0  0  0  0
    3.8988   -0.1672    1.3899 H   0  0  0  0  0  0  0  0  0  0  0  0
    2.4034    1.2405    2.8084 H   0  0  0  0  0  0  0  0  0  0  0  0
    1.3904    1.6280    1.4398 H   0  0  0  0  0  0  0  0  0  0  0  0
    1.8835   -1.0301    2.6843 H   0  0  0  0  0  0  0  0  0  0  0  0
    0.2903    0.6902   -0.1281 H   0  0  0  0  0  0  0  0  0  0  0  0
   -2.4007    2.2121   -0.7668 H   0  0  0  0  0  0  0  0  0  0  0  0
   -4.6525    2.8129    0.0151 H   0  0  0  0  0  0  0  0  0  0  0  0
   -7.0963    2.5577   -0.2903 H   0  0  0  0  0  0  0  0  0  0  0  0
   -7.1776    0.9850    0.5408 H   0  0  0  0  0  0  0  0  0  0  0  0
   -7.7617    1.1606   -1.1332 H   0  0  0  0  0  0  0  0  0  0  0  0
   -6.2628   -0.6738   -1.9451 H   0  0  0  0  0  0  0  0  0  0  0  0
   -4.0118   -1.2760   -2.7259 H   0  0  0  0  0  0  0  0  0  0  0  0
  1  2  1  0
  2  3  2  0
  2  4  1  0
  4  5  1  0
  5  6  1  0
  6  7  1  0
  7  8  1  0
  8  9  1  0
  9 10  1  0
 10 11  2  0
 11 12  1  0
 12 13  1  0
 13 14  2  0
 14 15  1  0
 15 16  2  0
 16 17  1  0
 16 18  1  0
 18 19  2  0
 11 20  1  0
 20 21  2  0
 21 22  1  0
 22 23  1  0
 23 24  2  0
 24 25  1  0
 25 26  1  0
 26 27  2  0
 26 28  1  0
 25  9  2  0
 19 13  1  0
 24 20  1  0
  1 29  1  0
  1 30  1  0
  1 31  1  0
  5 32  1  0
  5 33  1  0
  6 34  1  0
  6 35  1  0
  7 36  1  0
  7 37  1  0
  8 38  1  0
 10 39  1  0
 14 40  1  0
 15 41  1  0
 17 42  1  0
 17 43  1  0
 17 44  1  0
 18 45  1  0
 19 46  1  0
M  CHG  2  26   1  28  -1
M  END
$$$$
