
     RDKit          3D

 47 50  0  0  0  0  0  0  0  0999 V2000
   -4.9040    2.5819    0.6788 C   0  0  0  0  0  0  0  0  0  0  0  0
   -3.5136    2.1458    0.7669 N   0  0  0  0  0  0  0  0  0  0  0  0
   -3.3031    1.1791    1.8607 C   0  0  0  0  0  0  0  0  0  0  0  0
   -3.2151   -0.2952    1.4069 C   0  0  0  0  0  0  0  0  0  0  0  0
   -2.1839   -0.5723    0.3843 N   0  0  0  0  0  0  0  0  0  0  0  0
   -0.9780   -1.1739    0.9731 C   0  0  0  0  0  0  0  0  0  0  0  0
   -0.0376   -1.7458   -0.0651 C   0  0  0  0  0  0  0  0  0  0  0  0
   -0.4949   -2.7237   -0.9526 C   0  0  0  0  0  0  0  0  0  0  0  0
    0.3649   -3.2774   -1.9048 C   0  0  0  0  0  0  0  0  0  0  0  0
   -0.3062   -4.4782   -2.9598 Cl  0  0  0  0  0  0  0  0  0  0  0  0
    1.7235   -2.8823   -1.9891 C   0  0  0  0  0  0  0  0  0  0  0  0
    2.6501   -3.4114   -2.9160 C   0  0  0  0  0  0  0  0  0  0  0  0
    3.9704   -2.9789   -2.9284 C   0  0  0  0  0  0  0  0  0  0  0  0
    4.3419   -2.0261   -2.0065 C   0  0  0  0  0  0  0  0  0  0  0  0
    3.4954   -1.4946   -1.1007 N   0  0  0  0  0  0  0  0  0  0  0  0
    2.2049   -1.9020   -1.0963 C   0  0  0  0  0  0  0  0  0  0  0  0
    1.3028   -1.3478   -0.1760 C   0  0  0  0  0  0  0  0  0  0  0  0
    1.7925   -0.3753    0.7165 O   0  0  0  0  0  0  0  0  0  0  0  0
    1.9590    0.8717    0.1125 C   0  0  0  0  0  0  0  0  0  0  0  0
    1.5159    1.1803   -0.9903 O   0  0  0  0  0  0  0  0  0  0  0  0
    2.6743    1.7472    1.0254 C   0  0  0  0  0  0  0  0  0  0  0  0
    3.2466    1.4656    2.2545 C   0  0  0  0  0  0  0  0  0  0  0  0
    3.8603    2.6073    2.8486 C   0  0  0  0  0  0  0  0  0  0  0  0
    3.7401    3.7255    2.0559 C   0  0  0  0  0  0  0  0  0  0  0  0
    2.8959    3.3965    0.6068 S   0  0  0  0  0  0  0  0  0  0  0  0
   -1.8520    0.6549   -0.3809 C   0  0  0  0  0  0  0  0  0  0  0  0
   -3.0591    1.6040   -0.5317 C   0  0  0  0  0  0  0  0  0  0  0  0
   -5.2097    3.0786    1.6063 H   0  0  0  0  0  0  0  0  0  0  0  0
   -5.5889    1.7467    0.4933 H   0  0  0  0  0  0  0  0  0  0  0  0
   -5.0274    3.3163   -0.1250 H   0  0  0  0  0  0  0  0  0  0  0  0
   -4.0742    1.2784    2.6350 H   0  0  0  0  0  0  0  0  0  0  0  0
   -2.3584    1.4427    2.3540 H   0  0  0  0  0  0  0  0  0  0  0  0
   -4.1839   -0.5784    0.9748 H   0  0  0  0  0  0  0  0  0  0  0  0
   -3.0929   -0.9391    2.2866 H   0  0  0  0  0  0  0  0  0  0  0  0
   -1.2623   -2.0199    1.6140 H   0  0  0  0  0  0  0  0  0  0  0  0
   -0.4729   -0.4578    1.6323 H   0  0  0  0  0  0  0  0  0  0  0  0
   -1.5342   -3.0458   -0.9047 H   0  0  0  0  0  0  0  0  0  0  0  0
    2.3486   -4.1660   -3.6388 H   0  0  0  0  0  0  0  0  0  0  0  0
    4.6856   -3.3771   -3.6390 H   0  0  0  0  0  0  0  0  0  0  0  0
    5.3598   -1.6488   -1.9671 H   0  0  0  0  0  0  0  0  0  0  0  0
    3.2330    0.4818    2.7095 H   0  0  0  0  0  0  0  0  0  0  0  0
    4.3661    2.6067    3.8066 H   0  0  0  0  0  0  0  0  0  0  0  0
    4.1093    4.7226    2.2544 H   0  0  0  0  0  0  0  0  0  0  0  0
   -1.5000    0.3701   -1.3790 H   0  0  0  0  0  0  0  0  0  0  0  0
   -1.0428    1.2152    0.1054 H   0  0  0  0  0  0  0  0  0  0  0  0
   -2.7797    2.4413   -1.1818 H   0  0  0  0  0  0  0  0  0  0  0  0
   -3.8666    1.0576   -1.0384 H   0  0  0  0  0  0  0  0  0  0  0  0
  1  2  1  0
  2  3  1  0
  3  4  1  0
  4  5  1  0
  5  6  1  0
  6  7  1  0
  7  8  2  0
  8  9  1  0
  9 10  1  0
  9 11  2  0
 11 12  1  0
 12 13  2  0
 13 14  1  0
 14 15  2  0
 15 16  1  0
 16 17  2  0
 17 18  1  0
 18 19  1  0
 19 20  2  0
 19 21  1  0
 21 22  2  0
 22 23  1  0
 23 24  2  0
 24 25  1  0
  5 26  1  0
 26 27  1  0
 27  2  1  0
 17  7  1  0
 25 21  1  0
 16 11  1  0
  1 28  1  0
  1 29  1  0
  1 30  1  0
  3 31  1  0
  3 32  1  0
  4 33  1  0
  4 34  1  0
  6 35  1  0
  6 36  1  0
  8 37  1  0
 12 38  1  0
 13 39  1  0
 14 40  1  0
 22 41  1  0
 23 42  1  0
 24 43  1  0
 26 44  1  0
 26 45  1  0
 27 46  1  0
 27 47  1  0
M  END
$$$$
