
     RDKit          3D

 45 46  0  0  0  0  0  0  0  0999 V2000
   -3.7779    2.2769    2.7855 C   0  0  0  0  0  0  0  0  0  0  0  0
   -3.2734    1.7214    1.5717 O   0  0  0  0  0  0  0  0  0  0  0  0
   -2.2711    0.8177    1.7435 C   0  0  0  0  0  0  0  0  0  0  0  0
   -1.7912    0.4917    2.8255 O   0  0  0  0  0  0  0  0  0  0  0  0
   -1.8073    0.2466    0.4042 C   0  0  0  0  0  0  0  0  0  0  0  0
   -2.5528   -1.0601    0.0995 C   0  0  0  0  0  0  0  0  0  0  0  0
   -4.0052   -0.8543   -0.2581 C   0  0  0  0  0  0  0  0  0  0  0  0
   -5.0182   -1.1577    0.6614 C   0  0  0  0  0  0  0  0  0  0  0  0
   -6.3576   -0.9486    0.3296 C   0  0  0  0  0  0  0  0  0  0  0  0
   -6.6959   -0.4362   -0.9215 C   0  0  0  0  0  0  0  0  0  0  0  0
   -5.6957   -0.1333   -1.8433 C   0  0  0  0  0  0  0  0  0  0  0  0
   -4.3558   -0.3412   -1.5144 C   0  0  0  0  0  0  0  0  0  0  0  0
   -0.3617    0.0121    0.5120 N   0  0  0  0  0  0  0  0  0  0  0  0
    0.4444   -0.0893   -0.5958 C   0  0  0  0  0  0  0  0  0  0  0  0
    0.0146   -0.0025   -1.7406 O   0  0  0  0  0  0  0  0  0  0  0  0
    1.8941   -0.3495   -0.2575 C   0  0  0  0  0  0  0  0  0  0  0  0
    2.7683   -0.2881   -1.5030 C   0  0  0  0  0  0  0  0  0  0  0  0
    4.1522   -0.6090   -1.2174 N   0  0  0  0  0  0  0  0  0  0  0  0
    5.0128    0.2741   -0.5999 C   0  0  0  0  0  0  0  0  0  0  0  0
    4.6494    1.3773   -0.2014 O   0  0  0  0  0  0  0  0  0  0  0  0
    6.3659   -0.2231   -0.4622 C   0  0  0  0  0  0  0  0  0  0  0  0
    7.4948    0.3539    0.0881 C   0  0  0  0  0  0  0  0  0  0  0  0
    8.5433   -0.5867   -0.0491 C   0  0  0  0  0  0  0  0  0  0  0  0
    7.9952   -1.6816   -0.6737 C   0  0  0  0  0  0  0  0  0  0  0  0
    6.6774   -1.4759   -0.9295 O   0  0  0  0  0  0  0  0  0  0  0  0
   -2.9917    2.8289    3.3098 H   0  0  0  0  0  0  0  0  0  0  0  0
   -4.5808    2.9743    2.5313 H   0  0  0  0  0  0  0  0  0  0  0  0
   -4.1919    1.4902    3.4240 H   0  0  0  0  0  0  0  0  0  0  0  0
   -1.9580    0.9969   -0.3811 H   0  0  0  0  0  0  0  0  0  0  0  0
   -2.0724   -1.5883   -0.7348 H   0  0  0  0  0  0  0  0  0  0  0  0
   -2.4768   -1.7454    0.9547 H   0  0  0  0  0  0  0  0  0  0  0  0
   -4.7734   -1.5580    1.6428 H   0  0  0  0  0  0  0  0  0  0  0  0
   -7.1383   -1.1866    1.0474 H   0  0  0  0  0  0  0  0  0  0  0  0
   -7.7392   -0.2745   -1.1793 H   0  0  0  0  0  0  0  0  0  0  0  0
   -5.9585    0.2646   -2.8201 H   0  0  0  0  0  0  0  0  0  0  0  0
   -3.5854   -0.1018   -2.2457 H   0  0  0  0  0  0  0  0  0  0  0  0
    0.0282   -0.0966    1.4444 H   0  0  0  0  0  0  0  0  0  0  0  0
    2.2229    0.3912    0.4802 H   0  0  0  0  0  0  0  0  0  0  0  0
    1.9675   -1.3402    0.2064 H   0  0  0  0  0  0  0  0  0  0  0  0
    2.4250   -1.0049   -2.2570 H   0  0  0  0  0  0  0  0  0  0  0  0
    2.7289    0.7124   -1.9496 H   0  0  0  0  0  0  0  0  0  0  0  0
    4.5442   -1.4886   -1.5359 H   0  0  0  0  0  0  0  0  0  0  0  0
    7.5404    1.3396    0.5319 H   0  0  0  0  0  0  0  0  0  0  0  0
    9.5714   -0.4797    0.2674 H   0  0  0  0  0  0  0  0  0  0  0  0
    8.3897   -2.6374   -0.9902 H   0  0  0  0  0  0  0  0  0  0  0  0
  1  2  1  0
  2  3  1  0
  3  4  2  0
  3  5  1  0
  5  6  1  0
  6  7  1  0
  7  8  2  0
  8  9  1  0
  9 10  2  0
 10 11  1  0
 11 12  2  0
  5 13  1  0
 13 14  1  0
 14 15  2  0
 14 16  1  0
 16 17  1  0
 17 18  1  0
 18 19  1  0
 19 20  2  0
 19 21  1  0
 21 22  2  0
 22 23  1  0
 23 24  2  0
 24 25  1  0
 12  7  1  0
 25 21  1  0
  1 26  1  0
  1 27  1  0
  1 28  1  0
  5 29  1  0
  6 30  1  0
  6 31  1  0
  8 32  1  0
  9 33  1  0
 10 34  1  0
 11 35  1  0
 12 36  1  0
 13 37  1  0
 16 38  1  0
 16 39  1  0
 17 40  1  0
 17 41  1  0
 18 42  1  0
 22 43  1  0
 23 44  1  0
 24 45  1  0
M  END
$$$$
