
     RDKit          3D

 64 68  0  0  0  0  0  0  0  0999 V2000
    1.7512    0.3871    2.9965 O   0  0  0  0  0  0  0  0  0  0  0  0
    1.8125    0.1664    1.7842 C   0  0  0  0  0  0  0  0  0  0  0  0
    0.5478    0.2258    0.9173 C   0  0  0  0  0  0  0  0  0  0  0  0
    0.0234   -1.1955    0.6438 C   0  0  0  0  0  0  0  0  0  0  0  0
   -1.4501   -1.3908    1.0010 C   0  0  0  0  0  0  0  0  0  0  0  0
   -2.3157   -0.2779    0.3970 C   0  0  0  0  0  0  0  0  0  0  0  0
   -3.8008   -0.5169    0.7223 C   0  0  0  0  0  0  0  0  0  0  0  0
   -4.6347    0.3941   -0.0559 N   0  0  0  0  0  0  0  0  0  0  0  0
   -5.8729    0.0905   -0.6081 C   0  0  0  0  0  0  0  0  0  0  0  0
   -6.0766   -1.1714   -1.0989 N   0  0  0  0  0  0  0  0  0  0  0  0
   -7.2119   -1.6245   -1.7139 C   0  0  0  0  0  0  0  0  0  0  0  0
   -7.2071   -3.1939   -2.3085 S   0  0  0  0  0  0  0  0  0  0  0  0
   -8.2820   -0.7817   -1.8076 N   0  0  0  0  0  0  0  0  0  0  0  0
   -8.1318    0.4239   -1.3630 C   0  0  0  0  0  0  0  0  0  0  0  0
   -9.2876    1.3605   -1.4561 C   0  0  0  0  0  0  0  0  0  0  0  0
   -9.1828    2.6248   -1.0294 C   0  0  0  0  0  0  0  0  0  0  0  0
   -7.9582    3.1463   -0.4747 C   0  0  0  0  0  0  0  0  0  0  0  0
   -6.8714    2.3745   -0.3306 C   0  0  0  0  0  0  0  0  0  0  0  0
   -6.8818    0.9800   -0.7409 C   0  0  0  0  0  0  0  0  0  0  0  0
   -1.8396    1.1201    0.8406 C   0  0  0  0  0  0  0  0  0  0  0  0
   -0.5123    1.1075    1.5945 C   0  0  0  0  0  0  0  0  0  0  0  0
    3.0071   -0.1811    1.1735 N   0  0  0  0  0  0  0  0  0  0  0  0
    3.2040   -0.3627   -0.2696 C   0  0  0  0  0  0  0  0  0  0  0  0
    4.5228   -1.0774   -0.6246 C   0  0  0  0  0  0  0  0  0  0  0  0
    5.6790   -0.3904   -0.0330 N   0  0  0  0  0  0  0  0  0  0  0  0
    6.9573   -0.5224   -0.5564 C   0  0  0  0  0  0  0  0  0  0  0  0
    7.9910    0.3652   -0.2023 C   0  0  0  0  0  0  0  0  0  0  0  0
    9.2850    0.2440   -0.7193 C   0  0  0  0  0  0  0  0  0  0  0  0
    9.5693   -0.7743   -1.6114 C   0  0  0  0  0  0  0  0  0  0  0  0
   10.8054   -0.8945   -2.1113 F   0  0  0  0  0  0  0  0  0  0  0  0
    8.5819   -1.6654   -1.9967 C   0  0  0  0  0  0  0  0  0  0  0  0
    7.2894   -1.5353   -1.4725 C   0  0  0  0  0  0  0  0  0  0  0  0
    5.4671    0.2889    1.2606 C   0  0  0  0  0  0  0  0  0  0  0  0
    4.2234   -0.2417    1.9913 C   0  0  0  0  0  0  0  0  0  0  0  0
    0.8052    0.7054   -0.0348 H   0  0  0  0  0  0  0  0  0  0  0  0
    0.1418   -1.4091   -0.4250 H   0  0  0  0  0  0  0  0  0  0  0  0
    0.6163   -1.9514    1.1699 H   0  0  0  0  0  0  0  0  0  0  0  0
   -1.7807   -2.3683    0.6283 H   0  0  0  0  0  0  0  0  0  0  0  0
   -1.5699   -1.4185    2.0920 H   0  0  0  0  0  0  0  0  0  0  0  0
   -2.2000   -0.3313   -0.6958 H   0  0  0  0  0  0  0  0  0  0  0  0
   -4.0525   -1.5610    0.5161 H   0  0  0  0  0  0  0  0  0  0  0  0
   -3.9913   -0.3545    1.7892 H   0  0  0  0  0  0  0  0  0  0  0  0
   -4.5749    1.3464    0.2899 H   0  0  0  0  0  0  0  0  0  0  0  0
   -5.3033   -1.8183   -1.0927 H   0  0  0  0  0  0  0  0  0  0  0  0
  -10.2041    0.9664   -1.8786 H   0  0  0  0  0  0  0  0  0  0  0  0
  -10.0335    3.2963   -1.1008 H   0  0  0  0  0  0  0  0  0  0  0  0
   -7.9439    4.1897   -0.1790 H   0  0  0  0  0  0  0  0  0  0  0  0
   -5.9725    2.8065    0.0897 H   0  0  0  0  0  0  0  0  0  0  0  0
   -2.5879    1.6108    1.4750 H   0  0  0  0  0  0  0  0  0  0  0  0
   -1.7397    1.7556   -0.0498 H   0  0  0  0  0  0  0  0  0  0  0  0
   -0.6975    0.7620    2.6205 H   0  0  0  0  0  0  0  0  0  0  0  0
   -0.1372    2.1345    1.6886 H   0  0  0  0  0  0  0  0  0  0  0  0
    3.1967    0.6395   -0.7147 H   0  0  0  0  0  0  0  0  0  0  0  0
    2.3686   -0.9241   -0.6930 H   0  0  0  0  0  0  0  0  0  0  0  0
    4.5980   -1.0995   -1.7199 H   0  0  0  0  0  0  0  0  0  0  0  0
    4.4884   -2.1108   -0.2584 H   0  0  0  0  0  0  0  0  0  0  0  0
    7.7988    1.1920    0.4749 H   0  0  0  0  0  0  0  0  0  0  0  0
   10.0632    0.9426   -0.4329 H   0  0  0  0  0  0  0  0  0  0  0  0
    8.8213   -2.4594   -2.6963 H   0  0  0  0  0  0  0  0  0  0  0  0
    6.5489   -2.2657   -1.7825 H   0  0  0  0  0  0  0  0  0  0  0  0
    6.3242    0.1417    1.9295 H   0  0  0  0  0  0  0  0  0  0  0  0
    5.3542    1.3644    1.0754 H   0  0  0  0  0  0  0  0  0  0  0  0
    4.0931    0.3056    2.9294 H   0  0  0  0  0  0  0  0  0  0  0  0
    4.3694   -1.2976    2.2478 H   0  0  0  0  0  0  0  0  0  0  0  0
  1  2  2  0
  2  3  1  0
  3  4  1  0
  4  5  1  0
  5  6  1  0
  6  7  1  0
  7  8  1  0
  8  9  1  0
  9 10  1  0
 10 11  1  0
 11 12  2  0
 11 13  1  0
 13 14  2  0
 14 15  1  0
 15 16  2  0
 16 17  1  0
 17 18  2  0
 18 19  1  0
  6 20  1  0
 20 21  1  0
  2 22  1  0
 22 23  1  0
 23 24  1  0
 24 25  1  0
 25 26  1  0
 26 27  2  0
 27 28  1  0
 28 29  2  0
 29 30  1  0
 29 31  1  0
 31 32  2  0
 25 33  1  0
 33 34  1  0
 21  3  1  0
 34 22  1  0
 19  9  2  0
 32 26  1  0
 19 14  1  0
  3 35  1  0
  4 36  1  0
  4 37  1  0
  5 38  1  0
  5 39  1  0
  6 40  1  0
  7 41  1  0
  7 42  1  0
  8 43  1  0
 10 44  1  0
 15 45  1  0
 16 46  1  0
 17 47  1  0
 18 48  1  0
 20 49  1  0
 20 50  1  0
 21 51  1  0
 21 52  1  0
 23 53  1  0
 23 54  1  0
 24 55  1  0
 24 56  1  0
 27 57  1  0
 28 58  1  0
 31 59  1  0
 32 60  1  0
 33 61  1  0
 33 62  1  0
 34 63  1  0
 34 64  1  0
M  END
$$$$
