
     RDKit          3D

 39 39  0  0  0  0  0  0  0  0999 V2000
   -3.6041   -2.1094    2.4307 C   0  0  0  0  0  0  0  0  0  0  0  0
   -2.6794   -1.4564    1.5631 O   0  0  0  0  0  0  0  0  0  0  0  0
   -3.1734   -1.2011    0.3133 C   0  0  0  0  0  0  0  0  0  0  0  0
   -4.3177   -1.4502   -0.0463 O   0  0  0  0  0  0  0  0  0  0  0  0
   -2.1392   -0.4893   -0.5733 C   0  0  0  0  0  0  0  0  0  0  0  0
   -2.6275    0.9465   -0.8255 C   0  0  0  0  0  0  0  0  0  0  0  0
   -1.8389    1.6579   -1.9221 C   0  0  0  0  0  0  0  0  0  0  0  0
   -2.4989    3.3311   -2.2415 S   0  0  0  0  0  0  0  0  0  0  0  0
   -3.9559    2.9026   -3.2277 C   0  0  0  0  0  0  0  0  0  0  0  0
   -0.8116   -0.5103    0.0371 N   0  0  0  0  0  0  0  0  0  0  0  0
    0.3370   -0.6101   -0.6858 C   0  0  0  0  0  0  0  0  0  0  0  0
    0.3653   -0.6730   -1.9069 O   0  0  0  0  0  0  0  0  0  0  0  0
    1.4461   -0.5842    0.1059 N   0  0  0  0  0  0  0  0  0  0  0  0
    2.7620   -0.7195   -0.4828 C   0  0  0  0  0  0  0  0  0  0  0  0
    3.8333   -0.6693    0.5840 C   0  0  0  0  0  0  0  0  0  0  0  0
    5.0489   -0.0357    0.3382 C   0  0  0  0  0  0  0  0  0  0  0  0
    6.0112   -0.0152    1.3439 C   0  0  0  0  0  0  0  0  0  0  0  0
    5.7466   -0.6311    2.5558 C   0  0  0  0  0  0  0  0  0  0  0  0
    4.5166   -1.2473    2.7191 C   0  0  0  0  0  0  0  0  0  0  0  0
    3.5564   -1.2840    1.7682 N   0  0  0  0  0  0  0  0  0  0  0  0
   -3.0604   -2.4359    3.3194 H   0  0  0  0  0  0  0  0  0  0  0  0
   -4.3878   -1.4100    2.7366 H   0  0  0  0  0  0  0  0  0  0  0  0
   -4.0385   -2.9930    1.9519 H   0  0  0  0  0  0  0  0  0  0  0  0
   -2.0940   -1.0518   -1.5131 H   0  0  0  0  0  0  0  0  0  0  0  0
   -3.6877    0.9138   -1.1003 H   0  0  0  0  0  0  0  0  0  0  0  0
   -2.5654    1.5196    0.1109 H   0  0  0  0  0  0  0  0  0  0  0  0
   -0.7992    1.7907   -1.6110 H   0  0  0  0  0  0  0  0  0  0  0  0
   -1.8384    1.0820   -2.8529 H   0  0  0  0  0  0  0  0  0  0  0  0
   -4.4509    3.8263   -3.5400 H   0  0  0  0  0  0  0  0  0  0  0  0
   -4.6676    2.3169   -2.6387 H   0  0  0  0  0  0  0  0  0  0  0  0
   -3.6643    2.3501   -4.1224 H   0  0  0  0  0  0  0  0  0  0  0  0
   -0.7469   -0.4117    1.0426 H   0  0  0  0  0  0  0  0  0  0  0  0
    1.3703   -0.9900    1.0275 H   0  0  0  0  0  0  0  0  0  0  0  0
    2.8159   -1.6848   -1.0044 H   0  0  0  0  0  0  0  0  0  0  0  0
    2.8876    0.0787   -1.2231 H   0  0  0  0  0  0  0  0  0  0  0  0
    5.2387    0.4473   -0.6127 H   0  0  0  0  0  0  0  0  0  0  0  0
    6.9648    0.4788    1.1796 H   0  0  0  0  0  0  0  0  0  0  0  0
    6.4801   -0.6398    3.3548 H   0  0  0  0  0  0  0  0  0  0  0  0
    4.2668   -1.7441    3.6478 H   0  0  0  0  0  0  0  0  0  0  0  0
  1  2  1  0
  2  3  1  0
  3  4  2  0
  3  5  1  0
  5  6  1  0
  6  7  1  0
  7  8  1  0
  8  9  1  0
  5 10  1  0
 10 11  1  0
 11 12  2  0
 11 13  1  0
 13 14  1  0
 14 15  1  0
 15 16  2  0
 16 17  1  0
 17 18  2  0
 18 19  1  0
 19 20  2  0
 20 15  1  0
  1 21  1  0
  1 22  1  0
  1 23  1  0
  5 24  1  0
  6 25  1  0
  6 26  1  0
  7 27  1  0
  7 28  1  0
  9 29  1  0
  9 30  1  0
  9 31  1  0
 10 32  1  0
 13 33  1  0
 14 34  1  0
 14 35  1  0
 16 36  1  0
 17 37  1  0
 18 38  1  0
 19 39  1  0
M  END
$$$$
