
     RDKit          3D

 48 50  0  0  0  0  0  0  0  0999 V2000
    5.7926    1.3690    1.8503 C   0  0  0  0  0  0  0  0  0  0  0  0
    5.5911   -0.0918    1.4711 C   0  0  0  0  0  0  0  0  0  0  0  0
    4.6922   -0.2203    0.3167 N   0  0  0  0  0  0  0  0  0  0  0  0
    5.3406   -0.2146   -1.0012 C   0  0  0  0  0  0  0  0  0  0  0  0
    5.6313   -1.6329   -1.4710 C   0  0  0  0  0  0  0  0  0  0  0  0
    3.3092   -0.2855    0.4577 C   0  0  0  0  0  0  0  0  0  0  0  0
    2.6711   -0.1365    1.7023 C   0  0  0  0  0  0  0  0  0  0  0  0
    1.2767   -0.2045    1.8521 C   0  0  0  0  0  0  0  0  0  0  0  0
    0.4605   -0.4237    0.7471 C   0  0  0  0  0  0  0  0  0  0  0  0
   -0.9901   -0.5310    0.9169 C   0  0  0  0  0  0  0  0  0  0  0  0
   -1.9313    0.3657    0.5566 C   0  0  0  0  0  0  0  0  0  0  0  0
   -1.6341    1.6730   -0.0676 C   0  0  0  0  0  0  0  0  0  0  0  0
   -0.5145    2.1441   -0.2197 O   0  0  0  0  0  0  0  0  0  0  0  0
   -2.7313    2.3813   -0.4580 N   0  0  0  0  0  0  0  0  0  0  0  0
   -4.0329    2.1298   -0.1439 C   0  0  0  0  0  0  0  0  0  0  0  0
   -4.8719    3.0026   -0.3574 O   0  0  0  0  0  0  0  0  0  0  0  0
   -4.3068    0.9112    0.4388 N   0  0  0  0  0  0  0  0  0  0  0  0
   -5.7036    0.5714    0.6749 C   0  0  0  0  0  0  0  0  0  0  0  0
   -6.1989   -0.2699   -0.4507 C   0  0  0  0  0  0  0  0  0  0  0  0
   -6.2864   -1.6335   -0.6466 C   0  0  0  0  0  0  0  0  0  0  0  0
   -6.8437   -1.8170   -1.9346 C   0  0  0  0  0  0  0  0  0  0  0  0
   -7.0592   -0.5573   -2.4419 C   0  0  0  0  0  0  0  0  0  0  0  0
   -6.6687    0.3880   -1.5494 O   0  0  0  0  0  0  0  0  0  0  0  0
   -3.3478   -0.0098    0.8283 C   0  0  0  0  0  0  0  0  0  0  0  0
   -3.6307   -1.0742    1.3796 O   0  0  0  0  0  0  0  0  0  0  0  0
    1.0558   -0.5839   -0.5002 C   0  0  0  0  0  0  0  0  0  0  0  0
    2.4516   -0.5122   -0.6340 C   0  0  0  0  0  0  0  0  0  0  0  0
    6.2155    1.9377    1.0153 H   0  0  0  0  0  0  0  0  0  0  0  0
    6.4817    1.4477    2.6972 H   0  0  0  0  0  0  0  0  0  0  0  0
    4.8511    1.8487    2.1340 H   0  0  0  0  0  0  0  0  0  0  0  0
    5.2391   -0.6751    2.3294 H   0  0  0  0  0  0  0  0  0  0  0  0
    6.5697   -0.5234    1.2241 H   0  0  0  0  0  0  0  0  0  0  0  0
    4.7515    0.3334   -1.7450 H   0  0  0  0  0  0  0  0  0  0  0  0
    6.2917    0.3302   -0.9434 H   0  0  0  0  0  0  0  0  0  0  0  0
    4.7156   -2.2231   -1.5728 H   0  0  0  0  0  0  0  0  0  0  0  0
    6.2846   -2.1546   -0.7636 H   0  0  0  0  0  0  0  0  0  0  0  0
    6.1323   -1.6132   -2.4440 H   0  0  0  0  0  0  0  0  0  0  0  0
    3.2435    0.0508    2.6050 H   0  0  0  0  0  0  0  0  0  0  0  0
    0.8473   -0.0794    2.8428 H   0  0  0  0  0  0  0  0  0  0  0  0
   -1.2818   -1.4672    1.3937 H   0  0  0  0  0  0  0  0  0  0  0  0
   -2.5458    3.2981   -0.8400 H   0  0  0  0  0  0  0  0  0  0  0  0
   -6.3173    1.4746    0.7649 H   0  0  0  0  0  0  0  0  0  0  0  0
   -5.7988    0.0236    1.6198 H   0  0  0  0  0  0  0  0  0  0  0  0
   -5.9770   -2.3968    0.0554 H   0  0  0  0  0  0  0  0  0  0  0  0
   -7.0605   -2.7511   -2.4333 H   0  0  0  0  0  0  0  0  0  0  0  0
   -7.4609   -0.1822   -3.3732 H   0  0  0  0  0  0  0  0  0  0  0  0
    0.4515   -0.7647   -1.3852 H   0  0  0  0  0  0  0  0  0  0  0  0
    2.8462   -0.6516   -1.6353 H   0  0  0  0  0  0  0  0  0  0  0  0
  1  2  1  0
  2  3  1  0
  3  4  1  0
  4  5  1  0
  3  6  1  0
  6  7  2  0
  7  8  1  0
  8  9  2  0
  9 10  1  0
 10 11  2  3
 11 12  1  0
 12 13  2  0
 12 14  1  0
 14 15  1  0
 15 16  2  0
 15 17  1  0
 17 18  1  0
 18 19  1  0
 19 20  2  0
 20 21  1  0
 21 22  2  0
 22 23  1  0
 17 24  1  0
 24 25  2  0
  9 26  1  0
 26 27  2  0
 27  6  1  0
 24 11  1  0
 23 19  1  0
  1 28  1  0
  1 29  1  0
  1 30  1  0
  2 31  1  0
  2 32  1  0
  4 33  1  0
  4 34  1  0
  5 35  1  0
  5 36  1  0
  5 37  1  0
  7 38  1  0
  8 39  1  0
 10 40  1  0
 14 41  1  0
 18 42  1  0
 18 43  1  0
 20 44  1  0
 21 45  1  0
 22 46  1  0
 26 47  1  0
 27 48  1  0
M  END
$$$$
