
     RDKit          3D

 42 42  0  0  0  0  0  0  0  0999 V2000
   -0.5992   -3.8276    2.8917 C   0  0  0  0  0  0  0  0  0  0  0  0
   -1.1577   -2.4312    2.6638 C   0  0  0  0  0  0  0  0  0  0  0  0
   -1.7268   -2.2844    1.2501 C   0  0  0  0  0  0  0  0  0  0  0  0
   -2.2610   -0.8702    0.9723 C   0  0  0  0  0  0  0  0  0  0  0  0
   -1.3915    0.0285    0.0647 C   0  0  0  0  0  0  0  0  0  0  0  0
   -2.0573    1.3918   -0.0253 C   0  0  0  0  0  0  0  0  0  0  0  0
   -2.3418    2.0633    0.9612 O   0  0  0  0  0  0  0  0  0  0  0  0
   -2.2461    1.7982   -1.3065 O   0  0  0  0  0  0  0  0  0  0  0  0
   -2.8511    3.0877   -1.4886 C   0  0  0  0  0  0  0  0  0  0  0  0
   -1.7834    4.1661   -1.4829 C   0  0  0  0  0  0  0  0  0  0  0  0
    0.0478    0.2134    0.5345 C   0  0  0  0  0  0  0  0  0  0  0  0
    0.7827    0.4718   -0.7701 C   0  0  0  0  0  0  0  0  0  0  0  0
    2.2677    0.1236   -0.6733 C   0  0  0  0  0  0  0  0  0  0  0  0
    3.1501    0.6499   -2.1785 S   0  0  0  0  0  0  0  0  0  0  0  0
    4.7467    0.0639   -1.8221 C   0  0  0  0  0  0  0  0  0  0  0  0
    5.0949   -0.2226   -0.6218 N   0  0  0  0  0  0  0  0  0  0  0  0
    5.5657   -0.0265   -2.8909 N   0  0  0  0  0  0  0  0  0  0  0  0
    0.1117   -0.3793   -1.7085 O   0  0  0  0  0  0  0  0  0  0  0  0
   -1.1718   -0.5986   -1.2894 C   0  0  0  0  0  0  0  0  0  0  0  0
   -1.9954   -1.2276   -1.9353 O   0  0  0  0  0  0  0  0  0  0  0  0
   -1.3786   -4.5863    2.7671 H   0  0  0  0  0  0  0  0  0  0  0  0
   -0.1984   -3.9170    3.9064 H   0  0  0  0  0  0  0  0  0  0  0  0
    0.2102   -4.0447    2.1859 H   0  0  0  0  0  0  0  0  0  0  0  0
   -0.3660   -1.6961    2.8417 H   0  0  0  0  0  0  0  0  0  0  0  0
   -1.9465   -2.2368    3.4000 H   0  0  0  0  0  0  0  0  0  0  0  0
   -0.9796   -2.5836    0.5067 H   0  0  0  0  0  0  0  0  0  0  0  0
   -2.5601   -2.9916    1.1478 H   0  0  0  0  0  0  0  0  0  0  0  0
   -3.2443   -0.9787    0.4917 H   0  0  0  0  0  0  0  0  0  0  0  0
   -2.4608   -0.3602    1.9231 H   0  0  0  0  0  0  0  0  0  0  0  0
   -3.3539    3.0711   -2.4615 H   0  0  0  0  0  0  0  0  0  0  0  0
   -3.6197    3.2777   -0.7302 H   0  0  0  0  0  0  0  0  0  0  0  0
   -1.0158    3.9514   -2.2342 H   0  0  0  0  0  0  0  0  0  0  0  0
   -2.2201    5.1454   -1.6951 H   0  0  0  0  0  0  0  0  0  0  0  0
   -1.2768    4.2117   -0.5137 H   0  0  0  0  0  0  0  0  0  0  0  0
    0.1875    1.0340    1.2454 H   0  0  0  0  0  0  0  0  0  0  0  0
    0.4394   -0.6986    0.9953 H   0  0  0  0  0  0  0  0  0  0  0  0
    0.6471    1.5142   -1.0880 H   0  0  0  0  0  0  0  0  0  0  0  0
    2.3946   -0.9590   -0.5610 H   0  0  0  0  0  0  0  0  0  0  0  0
    2.7096    0.6315    0.1902 H   0  0  0  0  0  0  0  0  0  0  0  0
    6.0570   -0.5669   -0.6344 H   0  0  0  0  0  0  0  0  0  0  0  0
    5.2386    0.4984   -3.6948 H   0  0  0  0  0  0  0  0  0  0  0  0
    6.5525    0.0944   -2.7103 H   0  0  0  0  0  0  0  0  0  0  0  0
  1  2  1  0
  2  3  1  0
  3  4  1  0
  4  5  1  0
  5  6  1  0
  6  7  2  0
  6  8  1  0
  8  9  1  0
  9 10  1  0
  5 11  1  0
 11 12  1  0
 12 13  1  0
 13 14  1  0
 14 15  1  0
 15 16  2  3
 15 17  1  0
 12 18  1  0
 18 19  1  0
 19 20  2  0
 19  5  1  0
  1 21  1  0
  1 22  1  0
  1 23  1  0
  2 24  1  0
  2 25  1  0
  3 26  1  0
  3 27  1  0
  4 28  1  0
  4 29  1  0
  9 30  1  0
  9 31  1  0
 10 32  1  0
 10 33  1  0
 10 34  1  0
 11 35  1  0
 11 36  1  0
 12 37  1  0
 13 38  1  0
 13 39  1  0
 16 40  1  0
 17 41  1  0
 17 42  1  0
M  END
$$$$
