
     RDKit          3D

 40 41  0  0  0  0  0  0  0  0999 V2000
   -5.3206    0.2139    0.4709 C   0  0  0  0  0  0  0  0  0  0  0  0
   -3.8127   -0.0068    0.3722 C   0  0  0  0  0  0  0  0  0  0  0  0
   -3.4440   -0.7604   -0.9062 C   0  0  0  0  0  0  0  0  0  0  0  0
   -1.9467   -1.0824   -0.9778 C   0  0  0  0  0  0  0  0  0  0  0  0
   -1.0645   -0.1306   -0.1476 C   0  0  0  0  0  0  0  0  0  0  0  0
    0.3161   -0.0870   -0.6504 N   0  0  0  0  0  0  0  0  0  0  0  0
    1.0400   -1.3519   -0.4291 C   0  0  0  0  0  0  0  0  0  0  0  0
    2.5228   -1.2911   -0.8749 C   0  0  0  0  0  0  0  0  0  0  0  0
    3.1117   -2.5885   -0.7272 O   0  0  0  0  0  0  0  0  0  0  0  0
    3.3471   -0.2813   -0.0988 C   0  0  0  0  0  0  0  0  0  0  0  0
    3.7924    0.8939   -0.7217 C   0  0  0  0  0  0  0  0  0  0  0  0
    4.5421    1.8331   -0.0113 C   0  0  0  0  0  0  0  0  0  0  0  0
    4.8543    1.6091    1.3282 C   0  0  0  0  0  0  0  0  0  0  0  0
    4.4169    0.4469    1.9600 C   0  0  0  0  0  0  0  0  0  0  0  0
    3.6667   -0.4929    1.2518 C   0  0  0  0  0  0  0  0  0  0  0  0
   -1.6548    1.2846   -0.1620 C   0  0  0  0  0  0  0  0  0  0  0  0
   -3.0588    1.3305    0.4524 C   0  0  0  0  0  0  0  0  0  0  0  0
   -5.5755    0.7409    1.3963 H   0  0  0  0  0  0  0  0  0  0  0  0
   -5.8534   -0.7428    0.4717 H   0  0  0  0  0  0  0  0  0  0  0  0
   -5.6929    0.8067   -0.3716 H   0  0  0  0  0  0  0  0  0  0  0  0
   -3.5144   -0.6240    1.2305 H   0  0  0  0  0  0  0  0  0  0  0  0
   -4.0172   -1.6918   -0.9877 H   0  0  0  0  0  0  0  0  0  0  0  0
   -3.7198   -0.1524   -1.7780 H   0  0  0  0  0  0  0  0  0  0  0  0
   -1.6473   -1.0723   -2.0341 H   0  0  0  0  0  0  0  0  0  0  0  0
   -1.7867   -2.1098   -0.6268 H   0  0  0  0  0  0  0  0  0  0  0  0
   -1.0499   -0.4706    0.8970 H   0  0  0  0  0  0  0  0  0  0  0  0
    0.8220    0.6571   -0.1649 H   0  0  0  0  0  0  0  0  0  0  0  0
    0.5596   -2.1635   -0.9885 H   0  0  0  0  0  0  0  0  0  0  0  0
    0.9909   -1.6364    0.6300 H   0  0  0  0  0  0  0  0  0  0  0  0
    2.5636   -1.0582   -1.9460 H   0  0  0  0  0  0  0  0  0  0  0  0
    4.0760   -2.4578   -0.7281 H   0  0  0  0  0  0  0  0  0  0  0  0
    3.5516    1.0889   -1.7651 H   0  0  0  0  0  0  0  0  0  0  0  0
    4.8811    2.7412   -0.5034 H   0  0  0  0  0  0  0  0  0  0  0  0
    5.4380    2.3412    1.8801 H   0  0  0  0  0  0  0  0  0  0  0  0
    4.6595    0.2719    3.0050 H   0  0  0  0  0  0  0  0  0  0  0  0
    3.3313   -1.3966    1.7576 H   0  0  0  0  0  0  0  0  0  0  0  0
   -1.7067    1.6498   -1.1968 H   0  0  0  0  0  0  0  0  0  0  0  0
   -1.0090    1.9868    0.3802 H   0  0  0  0  0  0  0  0  0  0  0  0
   -3.6254    2.1297   -0.0419 H   0  0  0  0  0  0  0  0  0  0  0  0
   -2.9834    1.6229    1.5076 H   0  0  0  0  0  0  0  0  0  0  0  0
  1  2  1  0
  2  3  1  0
  3  4  1  0
  4  5  1  0
  5  6  1  0
  6  7  1  0
  7  8  1  0
  8  9  1  0
  8 10  1  0
 10 11  2  0
 11 12  1  0
 12 13  2  0
 13 14  1  0
 14 15  2  0
  5 16  1  0
 16 17  1  0
 17  2  1  0
 15 10  1  0
  1 18  1  0
  1 19  1  0
  1 20  1  0
  2 21  1  0
  3 22  1  0
  3 23  1  0
  4 24  1  0
  4 25  1  0
  5 26  1  0
  6 27  1  0
  7 28  1  0
  7 29  1  0
  8 30  1  0
  9 31  1  0
 11 32  1  0
 12 33  1  0
 13 34  1  0
 14 35  1  0
 15 36  1  0
 16 37  1  0
 16 38  1  0
 17 39  1  0
 17 40  1  0
M  END
$$$$
