
     RDKit          3D

 59 62  0  0  0  0  0  0  0  0999 V2000
   -6.2305   -1.3834   -2.8701 C   0  0  0  0  0  0  0  0  0  0  0  0
   -4.9550   -1.3777   -2.2330 O   0  0  0  0  0  0  0  0  0  0  0  0
   -4.9009   -0.8746   -0.9604 C   0  0  0  0  0  0  0  0  0  0  0  0
   -5.9575   -0.2899   -0.2675 C   0  0  0  0  0  0  0  0  0  0  0  0
   -5.7559    0.1861    1.0300 C   0  0  0  0  0  0  0  0  0  0  0  0
   -4.4945    0.0713    1.6396 C   0  0  0  0  0  0  0  0  0  0  0  0
   -4.2597    0.5270    2.9384 C   0  0  0  0  0  0  0  0  0  0  0  0
   -2.9916    0.3834    3.5101 C   0  0  0  0  0  0  0  0  0  0  0  0
   -2.7941    0.8185    4.8567 C   0  0  0  0  0  0  0  0  0  0  0  0
   -2.6881    1.2043    5.9454 N   0  0  0  0  0  0  0  0  0  0  0  0
   -1.9708   -0.2136    2.7612 C   0  0  0  0  0  0  0  0  0  0  0  0
   -0.6772   -0.3749    3.3016 N   0  0  0  0  0  0  0  0  0  0  0  0
    0.0714    0.9142    3.2626 C   0  0  0  0  0  0  0  0  0  0  0  0
    1.6010    0.6858    3.3140 C   0  0  0  0  0  0  0  0  0  0  0  0
    2.1384   -0.1913    2.2525 N   0  0  0  0  0  0  0  0  0  0  0  0
    2.9771    0.4991    1.2684 C   0  0  0  0  0  0  0  0  0  0  0  0
    2.3009    1.5463    0.4469 C   0  0  0  0  0  0  0  0  0  0  0  0
    1.7213    2.6535    0.8758 N   0  0  0  0  0  0  0  0  0  0  0  0
    1.2798    3.3192   -0.2423 N   0  0  0  0  0  0  0  0  0  0  0  0
    1.5939    2.6563   -1.3475 N   0  0  0  0  0  0  0  0  0  0  0  0
    2.2313    1.5520   -0.9239 N   0  0  0  0  0  0  0  0  0  0  0  0
    2.7623    0.6088   -1.8892 C   0  0  0  0  0  0  0  0  0  0  0  0
    4.2473    0.8663   -2.1702 C   0  0  0  0  0  0  0  0  0  0  0  0
    4.9000   -0.0757   -3.1977 C   0  0  0  0  0  0  0  0  0  0  0  0
    4.8619   -1.5388   -2.7483 C   0  0  0  0  0  0  0  0  0  0  0  0
    4.2924    0.0715   -4.5973 C   0  0  0  0  0  0  0  0  0  0  0  0
    1.0948   -1.0446    1.6557 C   0  0  0  0  0  0  0  0  0  0  0  0
    0.0710   -1.5116    2.7112 C   0  0  0  0  0  0  0  0  0  0  0  0
   -2.2012   -0.6514    1.4986 N   0  0  0  0  0  0  0  0  0  0  0  0
   -3.4220   -0.5175    0.9483 C   0  0  0  0  0  0  0  0  0  0  0  0
   -3.6486   -0.9735   -0.3429 C   0  0  0  0  0  0  0  0  0  0  0  0
   -6.5923   -0.3678   -3.0365 H   0  0  0  0  0  0  0  0  0  0  0  0
   -6.9568   -1.9701   -2.3013 H   0  0  0  0  0  0  0  0  0  0  0  0
   -6.1095   -1.8572   -3.8469 H   0  0  0  0  0  0  0  0  0  0  0  0
   -6.9449   -0.1825   -0.7084 H   0  0  0  0  0  0  0  0  0  0  0  0
   -6.5893    0.6404    1.5633 H   0  0  0  0  0  0  0  0  0  0  0  0
   -5.0640    0.9905    3.5096 H   0  0  0  0  0  0  0  0  0  0  0  0
   -0.2118    1.5285    4.1242 H   0  0  0  0  0  0  0  0  0  0  0  0
   -0.1781    1.4820    2.3557 H   0  0  0  0  0  0  0  0  0  0  0  0
    2.1188    1.6529    3.3477 H   0  0  0  0  0  0  0  0  0  0  0  0
    1.8350    0.1998    4.2706 H   0  0  0  0  0  0  0  0  0  0  0  0
    3.8213    0.9665    1.7885 H   0  0  0  0  0  0  0  0  0  0  0  0
    3.4370   -0.2603    0.6253 H   0  0  0  0  0  0  0  0  0  0  0  0
    2.5898   -0.3969   -1.4897 H   0  0  0  0  0  0  0  0  0  0  0  0
    2.1619    0.7062   -2.8043 H   0  0  0  0  0  0  0  0  0  0  0  0
    4.3739    1.9023   -2.5130 H   0  0  0  0  0  0  0  0  0  0  0  0
    4.8114    0.7939   -1.2284 H   0  0  0  0  0  0  0  0  0  0  0  0
    5.9607    0.2205   -3.2682 H   0  0  0  0  0  0  0  0  0  0  0  0
    5.2811   -1.6608   -1.7407 H   0  0  0  0  0  0  0  0  0  0  0  0
    3.8383   -1.9406   -2.7498 H   0  0  0  0  0  0  0  0  0  0  0  0
    5.4579   -2.1567   -3.4295 H   0  0  0  0  0  0  0  0  0  0  0  0
    4.8605   -0.5173   -5.3260 H   0  0  0  0  0  0  0  0  0  0  0  0
    3.2521   -0.2778   -4.6308 H   0  0  0  0  0  0  0  0  0  0  0  0
    4.3154    1.1174   -4.9273 H   0  0  0  0  0  0  0  0  0  0  0  0
    1.5746   -1.9257    1.2117 H   0  0  0  0  0  0  0  0  0  0  0  0
    0.5633   -0.5199    0.8522 H   0  0  0  0  0  0  0  0  0  0  0  0
   -0.5870   -2.2843    2.2991 H   0  0  0  0  0  0  0  0  0  0  0  0
    0.6096   -2.0083    3.5287 H   0  0  0  0  0  0  0  0  0  0  0  0
   -2.8263   -1.4201   -0.8910 H   0  0  0  0  0  0  0  0  0  0  0  0
  1  2  1  0
  2  3  1  0
  3  4  2  0
  4  5  1  0
  5  6  2  0
  6  7  1  0
  7  8  2  0
  8  9  1  0
  9 10  3  0
  8 11  1  0
 11 12  1  0
 12 13  1  0
 13 14  1  0
 14 15  1  0
 15 16  1  0
 16 17  1  0
 17 18  2  0
 18 19  1  0
 19 20  2  0
 20 21  1  0
 21 22  1  0
 22 23  1  0
 23 24  1  0
 24 25  1  0
 24 26  1  0
 15 27  1  0
 27 28  1  0
 11 29  2  0
 29 30  1  0
 30 31  2  0
 31  3  1  0
 30  6  1  0
 28 12  1  0
 21 17  1  0
  1 32  1  0
  1 33  1  0
  1 34  1  0
  4 35  1  0
  5 36  1  0
  7 37  1  0
 13 38  1  0
 13 39  1  0
 14 40  1  0
 14 41  1  0
 16 42  1  0
 16 43  1  0
 22 44  1  0
 22 45  1  0
 23 46  1  0
 23 47  1  0
 24 48  1  0
 25 49  1  0
 25 50  1  0
 25 51  1  0
 26 52  1  0
 26 53  1  0
 26 54  1  0
 27 55  1  0
 27 56  1  0
 28 57  1  0
 28 58  1  0
 31 59  1  0
M  END
$$$$
