
     RDKit          3D

 30 31  0  0  0  0  0  0  0  0999 V2000
   -3.0083    1.6494   -2.7516 C   0  0  0  0  0  0  0  0  0  0  0  0
   -2.2661    1.1795   -1.5534 C   0  0  0  0  0  0  0  0  0  0  0  0
   -2.5353   -0.0261   -1.0357 N   0  0  0  0  0  0  0  0  0  0  0  0
   -1.7076   -0.1289    0.0273 N   0  0  0  0  0  0  0  0  0  0  0  0
   -1.7878   -1.3272    0.8326 C   0  0  0  0  0  0  0  0  0  0  0  0
   -0.8960    0.9674    0.1891 C   0  0  0  0  0  0  0  0  0  0  0  0
    0.2304    1.1154    1.5111 S   0  0  0  0  0  0  0  0  0  0  0  0
    1.4485   -0.1085    1.0108 C   0  0  0  0  0  0  0  0  0  0  0  0
    2.1079    0.0283   -0.2204 C   0  0  0  0  0  0  0  0  0  0  0  0
    3.0558   -0.9113   -0.6250 C   0  0  0  0  0  0  0  0  0  0  0  0
    3.3698   -1.9811    0.2069 C   0  0  0  0  0  0  0  0  0  0  0  0
    2.7352   -2.1135    1.4434 C   0  0  0  0  0  0  0  0  0  0  0  0
    1.7488   -1.2051    1.8487 C   0  0  0  0  0  0  0  0  0  0  0  0
    1.2398   -1.3047    3.1538 N   0  0  0  0  0  0  0  0  0  0  0  0
   -1.2451    1.8389   -0.8252 C   0  0  0  0  0  0  0  0  0  0  0  0
   -0.7016    3.1336   -1.0906 N   0  0  0  0  0  4  0  0  0  0  0  0
    0.5034    3.3054   -0.8727 O   0  0  0  0  0  0  0  0  0  0  0  0
   -1.4786    3.9784   -1.5533 O   0  0  0  0  0  1  0  0  0  0  0  0
   -3.7056    2.4477   -2.4791 H   0  0  0  0  0  0  0  0  0  0  0  0
   -2.3173    2.0312   -3.5099 H   0  0  0  0  0  0  0  0  0  0  0  0
   -3.5859    0.8383   -3.2077 H   0  0  0  0  0  0  0  0  0  0  0  0
   -2.7399   -1.8288    0.6368 H   0  0  0  0  0  0  0  0  0  0  0  0
   -0.9617   -1.9843    0.5528 H   0  0  0  0  0  0  0  0  0  0  0  0
   -1.7419   -1.0592    1.8901 H   0  0  0  0  0  0  0  0  0  0  0  0
    1.9048    0.8780   -0.8677 H   0  0  0  0  0  0  0  0  0  0  0  0
    3.5640   -0.7942   -1.5790 H   0  0  0  0  0  0  0  0  0  0  0  0
    4.1278   -2.7001   -0.0937 H   0  0  0  0  0  0  0  0  0  0  0  0
    3.0285   -2.9296    2.0992 H   0  0  0  0  0  0  0  0  0  0  0  0
    0.4076   -0.7480    3.3223 H   0  0  0  0  0  0  0  0  0  0  0  0
    1.2063   -2.2413    3.5400 H   0  0  0  0  0  0  0  0  0  0  0  0
  1  2  1  0
  2  3  2  0
  3  4  1  0
  4  5  1  0
  4  6  1  0
  6  7  1  0
  7  8  1  0
  8  9  2  0
  9 10  1  0
 10 11  2  0
 11 12  1  0
 12 13  2  0
 13 14  1  0
  6 15  2  0
 15 16  1  0
 16 17  2  0
 16 18  1  0
 15  2  1  0
 13  8  1  0
  1 19  1  0
  1 20  1  0
  1 21  1  0
  5 22  1  0
  5 23  1  0
  5 24  1  0
  9 25  1  0
 10 26  1  0
 11 27  1  0
 12 28  1  0
 14 29  1  0
 14 30  1  0
M  CHG  2  16   1  18  -1
M  END
$$$$
