
     RDKit          3D

 83 84  0  0  0  0  0  0  0  0999 V2000
    0.1697    3.1589    0.3523 C   0  0  0  0  0  0  0  0  0  0  0  0
    0.3595    1.9749   -0.2623 C   0  0  0  0  0  0  0  0  0  0  0  0
    1.7427    1.3133   -0.3168 C   0  0  1  0  0  0  0  0  0  0  0  0
    2.7059    2.3445   -0.6211 O   0  0  0  0  0  0  0  0  0  0  0  0
    3.7214    2.0215   -1.4623 C   0  0  0  0  0  0  0  0  0  0  0  0
    4.6530    3.1850   -1.6128 C   0  0  0  0  0  0  0  0  0  0  0  0
    3.8935    0.9317   -1.9897 O   0  0  0  0  0  0  0  0  0  0  0  0
    2.0975    0.7028    1.0523 C   0  0  0  0  0  0  0  0  0  0  0  0
    3.2413   -0.3391    1.0505 C   0  0  1  0  0  0  0  0  0  0  0  0
    3.7978   -0.3497    2.3975 O   0  0  0  0  0  0  0  0  0  0  0  0
    4.7385    0.5976    2.6659 C   0  0  0  0  0  0  0  0  0  0  0  0
    5.2000    0.4733    4.0858 C   0  0  0  0  0  0  0  0  0  0  0  0
    5.1479    1.4373    1.8760 O   0  0  0  0  0  0  0  0  0  0  0  0
    2.8353   -1.8237    0.6849 C   0  0  0  0  0  0  0  0  0  0  0  0
    4.1057   -2.7101    0.8187 C   0  0  0  0  0  0  0  0  0  0  0  0
    1.8207   -2.3941    1.6928 C   0  0  0  0  0  0  0  0  0  0  0  0
    2.4262   -1.9316   -0.7811 C   0  0  0  0  0  0  0  0  0  0  0  0
    1.3345   -2.3440   -1.4513 C   0  0  0  0  0  0  0  0  0  0  0  0
   -0.0284   -2.8366   -1.0204 C   0  0  0  0  0  0  0  0  0  0  0  0
   -0.2257   -4.2972   -1.4123 C   0  0  0  0  0  0  0  0  0  0  0  0
   -1.0740   -1.9653   -1.7422 C   0  0  0  0  0  0  0  0  0  0  0  0
   -1.0866   -1.8990   -2.9784 O   0  0  0  0  0  0  0  0  0  0  0  0
   -2.0416   -1.0897   -0.8941 C   0  0  1  0  0  0  0  0  0  0  0  0
   -2.9896   -0.4198   -1.7524 O   0  0  0  0  0  0  0  0  0  0  0  0
   -3.8383   -1.2015   -2.4784 C   0  0  0  0  0  0  0  0  0  0  0  0
   -4.6335   -0.3577   -3.4242 C   0  0  0  0  0  0  0  0  0  0  0  0
   -3.9779   -2.4080   -2.3402 O   0  0  0  0  0  0  0  0  0  0  0  0
   -2.7861   -1.8487    0.2371 C   0  0  0  0  0  0  0  0  0  0  0  0
   -2.3598   -1.1864    1.5588 C   0  0  2  0  0  0  0  0  0  0  0  0
   -3.4278   -1.2884    2.6396 C   0  0  0  0  0  0  0  0  0  0  0  0
   -1.9877    0.2443    1.1470 C   0  0  2  0  0  0  0  0  0  0  0  0
   -3.1845    0.9907    0.8925 O   0  0  0  0  0  0  0  0  0  0  0  0
   -3.4314    2.0492    1.7107 C   0  0  0  0  0  0  0  0  0  0  0  0
   -4.7243    2.7010    1.3259 C   0  0  0  0  0  0  0  0  0  0  0  0
   -2.7290    2.4117    2.6429 O   0  0  0  0  0  0  0  0  0  0  0  0
   -1.1954   -0.0199   -0.1454 C   0  0  2  0  0  0  0  0  0  0  0  0
   -0.7632    1.2084   -0.9758 C   0  0  1  0  0  0  0  0  0  0  0  0
   -1.8772    2.0898   -1.2017 O   0  0  0  0  0  0  0  0  0  0  0  0
   -2.0036    2.6099   -2.4515 C   0  0  0  0  0  0  0  0  0  0  0  0
   -3.1896    3.5246   -2.5045 C   0  0  0  0  0  0  0  0  0  0  0  0
   -1.2958    2.3554   -3.4154 O   0  0  0  0  0  0  0  0  0  0  0  0
   -0.8017    3.6411    0.4067 H   0  0  0  0  0  0  0  0  0  0  0  0
    0.9909    3.6852    0.8337 H   0  0  0  0  0  0  0  0  0  0  0  0
    1.7320    0.5670   -1.1126 H   0  0  0  0  0  0  0  0  0  0  0  0
    4.0876    4.1198   -1.6678 H   0  0  0  0  0  0  0  0  0  0  0  0
    5.3467    3.2105   -0.7692 H   0  0  0  0  0  0  0  0  0  0  0  0
    5.2162    3.0791   -2.5451 H   0  0  0  0  0  0  0  0  0  0  0  0
    1.2197    0.2685    1.5371 H   0  0  0  0  0  0  0  0  0  0  0  0
    2.3847    1.5278    1.7194 H   0  0  0  0  0  0  0  0  0  0  0  0
    4.0327   -0.0294    0.3608 H   0  0  0  0  0  0  0  0  0  0  0  0
    4.3595    0.6467    4.7640 H   0  0  0  0  0  0  0  0  0  0  0  0
    5.6321   -0.5158    4.2496 H   0  0  0  0  0  0  0  0  0  0  0  0
    5.9707    1.2252    4.2828 H   0  0  0  0  0  0  0  0  0  0  0  0
    4.9264   -2.3371    0.1950 H   0  0  0  0  0  0  0  0  0  0  0  0
    4.4717   -2.7430    1.8506 H   0  0  0  0  0  0  0  0  0  0  0  0
    3.9042   -3.7439    0.5151 H   0  0  0  0  0  0  0  0  0  0  0  0
    2.2133   -2.3689    2.7159 H   0  0  0  0  0  0  0  0  0  0  0  0
    1.5865   -3.4422    1.4717 H   0  0  0  0  0  0  0  0  0  0  0  0
    0.8861   -1.8323    1.7028 H   0  0  0  0  0  0  0  0  0  0  0  0
    3.2438   -1.6132   -1.4442 H   0  0  0  0  0  0  0  0  0  0  0  0
    1.4347   -2.3054   -2.5440 H   0  0  0  0  0  0  0  0  0  0  0  0
   -0.1730   -2.7523    0.0540 H   0  0  0  0  0  0  0  0  0  0  0  0
   -0.0649   -4.4576   -2.4843 H   0  0  0  0  0  0  0  0  0  0  0  0
   -1.2443   -4.6278   -1.1801 H   0  0  0  0  0  0  0  0  0  0  0  0
    0.4737   -4.9416   -0.8674 H   0  0  0  0  0  0  0  0  0  0  0  0
   -5.4582    0.1157   -2.8862 H   0  0  0  0  0  0  0  0  0  0  0  0
   -3.9898    0.4022   -3.8798 H   0  0  0  0  0  0  0  0  0  0  0  0
   -5.0258   -0.9880   -4.2288 H   0  0  0  0  0  0  0  0  0  0  0  0
   -2.5489   -2.9186    0.2567 H   0  0  0  0  0  0  0  0  0  0  0  0
   -3.8745   -1.7649    0.1259 H   0  0  0  0  0  0  0  0  0  0  0  0
   -1.4581   -1.6938    1.9275 H   0  0  0  0  0  0  0  0  0  0  0  0
   -4.3724   -0.8310    2.3322 H   0  0  0  0  0  0  0  0  0  0  0  0
   -3.6305   -2.3381    2.8780 H   0  0  0  0  0  0  0  0  0  0  0  0
   -3.0903   -0.7912    3.5535 H   0  0  0  0  0  0  0  0  0  0  0  0
   -1.3492    0.7112    1.9033 H   0  0  0  0  0  0  0  0  0  0  0  0
   -4.7889    3.6829    1.8032 H   0  0  0  0  0  0  0  0  0  0  0  0
   -5.5605    2.0811    1.6565 H   0  0  0  0  0  0  0  0  0  0  0  0
   -4.7600    2.8489    0.2438 H   0  0  0  0  0  0  0  0  0  0  0  0
   -0.2749   -0.5164    0.1714 H   0  0  0  0  0  0  0  0  0  0  0  0
   -0.3680    0.8477   -1.9331 H   0  0  0  0  0  0  0  0  0  0  0  0
   -3.2976    4.0636   -1.5575 H   0  0  0  0  0  0  0  0  0  0  0  0
   -3.0298    4.2703   -3.2910 H   0  0  0  0  0  0  0  0  0  0  0  0
   -4.0923    2.9426   -2.7173 H   0  0  0  0  0  0  0  0  0  0  0  0
  1  2  2  0
  2  3  1  0
  3  4  1  0
  4  5  1  0
  5  6  1  0
  5  7  2  0
  3  8  1  0
  8  9  1  0
  9 10  1  0
 10 11  1  0
 11 12  1  0
 11 13  2  0
  9 14  1  0
 14 15  1  0
 14 16  1  0
 14 17  1  0
 17 18  2  3
 18 19  1  0
 19 20  1  0
 19 21  1  0
 21 22  2  0
 21 23  1  0
 23 24  1  6
 24 25  1  0
 25 26  1  0
 25 27  2  0
 23 28  1  0
 28 29  1  0
 29 30  1  0
 29 31  1  0
 31 32  1  0
 32 33  1  0
 33 34  1  0
 33 35  2  0
 31 36  1  0
 36 37  1  0
 37 38  1  0
 38 39  1  0
 39 40  1  0
 39 41  2  0
 37  2  1  0
 36 23  1  0
  1 42  1  0
  1 43  1  0
  3 44  1  6
  6 45  1  0
  6 46  1  0
  6 47  1  0
  8 48  1  0
  8 49  1  0
  9 50  1  6
 12 51  1  0
 12 52  1  0
 12 53  1  0
 15 54  1  0
 15 55  1  0
 15 56  1  0
 16 57  1  0
 16 58  1  0
 16 59  1  0
 17 60  1  0
 18 61  1  0
 19 62  1  0
 20 63  1  0
 20 64  1  0
 20 65  1  0
 26 66  1  0
 26 67  1  0
 26 68  1  0
 28 69  1  0
 28 70  1  0
 29 71  1  1
 30 72  1  0
 30 73  1  0
 30 74  1  0
 31 75  1  1
 34 76  1  0
 34 77  1  0
 34 78  1  0
 36 79  1  1
 37 80  1  6
 40 81  1  0
 40 82  1  0
 40 83  1  0
M  END
$$$$
