
     RDKit          3D

 41 42  0  0  0  0  0  0  0  0999 V2000
   -7.6041    1.3963    1.0837 C   0  0  0  0  0  0  0  0  0  0  0  0
   -6.2202    1.3611    0.4743 C   0  0  0  0  0  0  0  0  0  0  0  0
   -6.0264    2.0243   -0.5459 O   0  0  0  0  0  0  0  0  0  0  0  0
   -5.2539    0.5895    1.1445 N   0  0  0  0  0  0  0  0  0  0  0  0
   -5.5411   -0.0246    2.4434 C   0  0  0  0  0  0  0  0  0  0  0  0
   -3.9014    0.4684    0.6487 C   0  0  0  0  0  0  0  0  0  0  0  0
   -3.5823    0.6384   -0.7033 C   0  0  0  0  0  0  0  0  0  0  0  0
   -2.2660    0.5010   -1.1831 C   0  0  0  0  0  0  0  0  0  0  0  0
   -1.2225    0.1847   -0.3236 C   0  0  0  0  0  0  0  0  0  0  0  0
    0.1342    0.0232   -0.6785 N   0  0  0  0  0  0  0  0  0  0  0  0
    0.8237    0.0809   -1.8666 C   0  0  0  0  0  0  0  0  0  0  0  0
    0.2782    0.3511   -3.4209 S   0  0  0  0  0  0  0  0  0  0  0  0
    2.1937   -0.1234   -1.7497 N   0  0  0  0  0  0  0  0  0  0  0  0
    2.9441   -0.3770   -0.6157 C   0  0  0  0  0  0  0  0  0  0  0  0
    2.4763   -0.4749    0.5143 O   0  0  0  0  0  0  0  0  0  0  0  0
    4.3915   -0.5266   -0.8982 C   0  0  0  0  0  0  0  0  0  0  0  0
    5.2380   -0.7764    0.1110 C   0  0  0  0  0  0  0  0  0  0  0  0
    6.6306   -0.9238   -0.1305 C   0  0  0  0  0  0  0  0  0  0  0  0
    7.6464   -1.1825    0.7829 C   0  0  0  0  0  0  0  0  0  0  0  0
    8.8686   -1.2427    0.0725 C   0  0  0  0  0  0  0  0  0  0  0  0
    8.5481   -1.0187   -1.2413 C   0  0  0  0  0  0  0  0  0  0  0  0
    7.2139   -0.8269   -1.3764 O   0  0  0  0  0  0  0  0  0  0  0  0
   -1.5285    0.0097    1.0302 C   0  0  0  0  0  0  0  0  0  0  0  0
   -2.8415    0.1439    1.5069 C   0  0  0  0  0  0  0  0  0  0  0  0
   -7.5656    1.7823    2.1056 H   0  0  0  0  0  0  0  0  0  0  0  0
   -8.2388    2.0695    0.4981 H   0  0  0  0  0  0  0  0  0  0  0  0
   -8.0564    0.4017    1.0533 H   0  0  0  0  0  0  0  0  0  0  0  0
   -5.0312   -0.9896    2.5322 H   0  0  0  0  0  0  0  0  0  0  0  0
   -6.6041   -0.2299    2.5795 H   0  0  0  0  0  0  0  0  0  0  0  0
   -5.2171    0.6573    3.2357 H   0  0  0  0  0  0  0  0  0  0  0  0
   -4.3479    0.8543   -1.4437 H   0  0  0  0  0  0  0  0  0  0  0  0
   -2.1238    0.6558   -2.2440 H   0  0  0  0  0  0  0  0  0  0  0  0
    0.7414   -0.1845    0.1162 H   0  0  0  0  0  0  0  0  0  0  0  0
    2.6710   -0.0693   -2.6396 H   0  0  0  0  0  0  0  0  0  0  0  0
    4.7374   -0.4296   -1.9203 H   0  0  0  0  0  0  0  0  0  0  0  0
    4.8797   -0.8710    1.1331 H   0  0  0  0  0  0  0  0  0  0  0  0
    7.5112   -1.3126    1.8482 H   0  0  0  0  0  0  0  0  0  0  0  0
    9.8570   -1.4261    0.4694 H   0  0  0  0  0  0  0  0  0  0  0  0
    9.1235   -0.9668   -2.1551 H   0  0  0  0  0  0  0  0  0  0  0  0
   -0.7449   -0.2322    1.7459 H   0  0  0  0  0  0  0  0  0  0  0  0
   -2.9909    0.0160    2.5746 H   0  0  0  0  0  0  0  0  0  0  0  0
  1  2  1  0
  2  3  2  0
  2  4  1  0
  4  5  1  0
  4  6  1  0
  6  7  2  0
  7  8  1  0
  8  9  2  0
  9 10  1  0
 10 11  1  0
 11 12  2  0
 11 13  1  0
 13 14  1  0
 14 15  2  0
 14 16  1  0
 16 17  2  3
 17 18  1  0
 18 19  2  0
 19 20  1  0
 20 21  2  0
 21 22  1  0
  9 23  1  0
 23 24  2  0
 24  6  1  0
 22 18  1  0
  1 25  1  0
  1 26  1  0
  1 27  1  0
  5 28  1  0
  5 29  1  0
  5 30  1  0
  7 31  1  0
  8 32  1  0
 10 33  1  0
 13 34  1  0
 16 35  1  0
 17 36  1  0
 19 37  1  0
 20 38  1  0
 21 39  1  0
 23 40  1  0
 24 41  1  0
M  END
$$$$
