
     RDKit          3D

 35 36  0  0  0  0  0  0  0  0999 V2000
   -5.9536    0.0998    0.0274 C   0  0  0  0  0  0  0  0  0  0  0  0
   -4.4593   -0.0254    0.0007 C   0  0  0  0  0  0  0  0  0  0  0  0
   -3.6540    1.1053   -0.1679 C   0  0  0  0  0  0  0  0  0  0  0  0
   -2.2571    0.9989   -0.1611 C   0  0  0  0  0  0  0  0  0  0  0  0
   -1.6420   -0.2452    0.0130 C   0  0  0  0  0  0  0  0  0  0  0  0
   -0.2204   -0.4058    0.0335 N   0  0  0  0  0  0  0  0  0  0  0  0
    0.2947   -1.5365    0.5724 N   0  0  0  0  0  0  0  0  0  0  0  0
    1.6134   -1.3379    0.6533 C   0  0  0  0  0  0  0  0  0  0  0  0
    2.4294   -2.4012    1.2909 C   0  0  0  0  0  0  0  0  0  0  0  0
    1.9864   -0.1102    0.0522 C   0  0  0  0  0  0  0  0  0  0  0  0
    3.2011    0.5305   -0.1422 N   0  0  0  0  0  0  0  0  0  0  0  0
    4.4450    0.1612    0.3215 C   0  0  0  0  0  0  0  0  0  0  0  0
    4.6982   -0.8309    0.9998 O   0  0  0  0  0  0  0  0  0  0  0  0
    5.5849    1.0703   -0.1175 C   0  0  0  0  0  0  0  0  0  0  0  0
    5.0251    2.6710   -0.6607 Cl  0  0  0  0  0  0  0  0  0  0  0  0
    0.7970    0.4269   -0.4244 C   0  0  0  0  0  0  0  0  0  0  0  0
    0.5904    1.6139   -1.2985 C   0  0  0  0  0  0  0  0  0  0  0  0
   -2.4541   -1.3725    0.2234 C   0  0  0  0  0  0  0  0  0  0  0  0
   -3.8480   -1.2631    0.2145 C   0  0  0  0  0  0  0  0  0  0  0  0
   -6.2883    0.9182   -0.6186 H   0  0  0  0  0  0  0  0  0  0  0  0
   -6.2950    0.2928    1.0490 H   0  0  0  0  0  0  0  0  0  0  0  0
   -6.4288   -0.8167   -0.3378 H   0  0  0  0  0  0  0  0  0  0  0  0
   -4.1100    2.0854   -0.2932 H   0  0  0  0  0  0  0  0  0  0  0  0
   -1.6929    1.9192   -0.2439 H   0  0  0  0  0  0  0  0  0  0  0  0
    1.8122   -3.2632    1.5698 H   0  0  0  0  0  0  0  0  0  0  0  0
    3.1961   -2.7690    0.6027 H   0  0  0  0  0  0  0  0  0  0  0  0
    2.8969   -2.0326    2.2086 H   0  0  0  0  0  0  0  0  0  0  0  0
    3.1620    1.4223   -0.6244 H   0  0  0  0  0  0  0  0  0  0  0  0
    6.2623    1.2275    0.7260 H   0  0  0  0  0  0  0  0  0  0  0  0
    6.1214    0.5964   -0.9436 H   0  0  0  0  0  0  0  0  0  0  0  0
    1.4698    1.7968   -1.9251 H   0  0  0  0  0  0  0  0  0  0  0  0
   -0.2436    1.4706   -1.9918 H   0  0  0  0  0  0  0  0  0  0  0  0
    0.4230    2.5128   -0.6978 H   0  0  0  0  0  0  0  0  0  0  0  0
   -2.0132   -2.3548    0.3877 H   0  0  0  0  0  0  0  0  0  0  0  0
   -4.4492   -2.1548    0.3781 H   0  0  0  0  0  0  0  0  0  0  0  0
  1  2  1  0
  2  3  2  0
  3  4  1  0
  4  5  2  0
  5  6  1  0
  6  7  1  0
  7  8  2  0
  8  9  1  0
  8 10  1  0
 10 11  1  0
 11 12  1  0
 12 13  2  0
 12 14  1  0
 14 15  1  0
 10 16  2  0
 16 17  1  0
  5 18  1  0
 18 19  2  0
 19  2  1  0
 16  6  1  0
  1 20  1  0
  1 21  1  0
  1 22  1  0
  3 23  1  0
  4 24  1  0
  9 25  1  0
  9 26  1  0
  9 27  1  0
 11 28  1  0
 14 29  1  0
 14 30  1  0
 17 31  1  0
 17 32  1  0
 17 33  1  0
 18 34  1  0
 19 35  1  0
M  END
$$$$
