
     RDKit          3D

 56 58  0  0  0  0  0  0  0  0999 V2000
   -8.9260   -1.6133   -1.2633 C   0  0  0  0  0  0  0  0  0  0  0  0
   -8.3498   -0.3498   -0.9674 O   0  0  0  0  0  0  0  0  0  0  0  0
   -7.0149   -0.3187   -0.6464 C   0  0  0  0  0  0  0  0  0  0  0  0
   -6.1841   -1.4430   -0.6108 C   0  0  0  0  0  0  0  0  0  0  0  0
   -4.8343   -1.3152   -0.2750 C   0  0  0  0  0  0  0  0  0  0  0  0
   -4.2949   -0.0629    0.0329 C   0  0  0  0  0  0  0  0  0  0  0  0
   -2.8302    0.0706    0.3681 C   0  0  0  0  0  0  0  0  0  0  0  0
   -1.9728    0.2137   -0.8919 C   0  0  0  0  0  0  0  0  0  0  0  0
   -0.5681    0.3964   -0.5811 N   0  0  0  0  0  0  0  0  0  0  0  0
    0.2300   -0.6614   -0.2248 C   0  0  0  0  0  0  0  0  0  0  0  0
   -0.1466   -1.8240   -0.1626 O   0  0  0  0  0  0  0  0  0  0  0  0
    1.6118   -0.2783    0.1654 C   0  0  0  0  0  0  0  0  0  0  0  0
    2.3305    0.5919   -0.5682 C   0  0  0  0  0  0  0  0  0  0  0  0
    3.7366    1.0033   -0.2360 C   0  0  0  0  0  0  0  0  0  0  0  0
    4.0967    0.5548    1.1236 N   0  0  0  0  0  0  0  0  0  0  0  0
    5.6004    1.0802    1.7089 S   0  0  0  0  0  6  0  0  0  0  0  0
    5.7348    0.6373    3.0803 O   0  0  0  0  0  0  0  0  0  0  0  0
    5.7562    2.4754    1.3548 O   0  0  0  0  0  0  0  0  0  0  0  0
    6.7723    0.1513    0.7365 C   0  0  0  0  0  0  0  0  0  0  0  0
    7.1894   -1.1108    1.1784 C   0  0  0  0  0  0  0  0  0  0  0  0
    8.1258   -1.8249    0.4296 C   0  0  0  0  0  0  0  0  0  0  0  0
    8.6452   -1.2668   -0.7349 C   0  0  0  0  0  0  0  0  0  0  0  0
    9.5441   -1.9552   -1.4503 F   0  0  0  0  0  0  0  0  0  0  0  0
    8.2535   -0.0018   -1.1643 C   0  0  0  0  0  0  0  0  0  0  0  0
    7.3169    0.7193   -0.4223 C   0  0  0  0  0  0  0  0  0  0  0  0
    3.7129   -0.8498    1.4041 C   0  0  0  0  0  0  0  0  0  0  0  0
    2.1888   -0.9723    1.3660 C   0  0  0  0  0  0  0  0  0  0  0  0
   -5.1254    1.0668   -0.0056 C   0  0  0  0  0  0  0  0  0  0  0  0
   -6.4808    0.9487   -0.3393 C   0  0  0  0  0  0  0  0  0  0  0  0
   -7.3588    2.0032   -0.4008 O   0  0  0  0  0  0  0  0  0  0  0  0
   -6.8791    3.2852   -0.0246 C   0  0  0  0  0  0  0  0  0  0  0  0
   -9.9860   -1.4538   -1.4839 H   0  0  0  0  0  0  0  0  0  0  0  0
   -8.8643   -2.2877   -0.4028 H   0  0  0  0  0  0  0  0  0  0  0  0
   -8.4659   -2.0592   -2.1511 H   0  0  0  0  0  0  0  0  0  0  0  0
   -6.5547   -2.4359   -0.8410 H   0  0  0  0  0  0  0  0  0  0  0  0
   -4.2046   -2.2034   -0.2566 H   0  0  0  0  0  0  0  0  0  0  0  0
   -2.6779    0.9369    1.0249 H   0  0  0  0  0  0  0  0  0  0  0  0
   -2.5110   -0.7996    0.9556 H   0  0  0  0  0  0  0  0  0  0  0  0
   -2.2855    1.0851   -1.4781 H   0  0  0  0  0  0  0  0  0  0  0  0
   -2.0762   -0.6721   -1.5300 H   0  0  0  0  0  0  0  0  0  0  0  0
   -0.2234    1.3373   -0.4445 H   0  0  0  0  0  0  0  0  0  0  0  0
    1.9120    1.0320   -1.4697 H   0  0  0  0  0  0  0  0  0  0  0  0
    4.4140    0.5778   -0.9821 H   0  0  0  0  0  0  0  0  0  0  0  0
    3.7883    2.0955   -0.2886 H   0  0  0  0  0  0  0  0  0  0  0  0
    6.7993   -1.5360    2.1006 H   0  0  0  0  0  0  0  0  0  0  0  0
    8.4620   -2.8066    0.7498 H   0  0  0  0  0  0  0  0  0  0  0  0
    8.6884    0.4159   -2.0675 H   0  0  0  0  0  0  0  0  0  0  0  0
    7.0261    1.7164   -0.7461 H   0  0  0  0  0  0  0  0  0  0  0  0
    4.1665   -1.5136    0.6583 H   0  0  0  0  0  0  0  0  0  0  0  0
    4.0603   -1.1658    2.3927 H   0  0  0  0  0  0  0  0  0  0  0  0
    1.9237   -2.0354    1.3769 H   0  0  0  0  0  0  0  0  0  0  0  0
    1.7596   -0.5179    2.2676 H   0  0  0  0  0  0  0  0  0  0  0  0
   -4.6906    2.0330    0.2280 H   0  0  0  0  0  0  0  0  0  0  0  0
   -7.7139    3.9891   -0.0972 H   0  0  0  0  0  0  0  0  0  0  0  0
   -6.5307    3.2898    1.0135 H   0  0  0  0  0  0  0  0  0  0  0  0
   -6.0957    3.6287   -0.7078 H   0  0  0  0  0  0  0  0  0  0  0  0
  1  2  1  0
  2  3  1  0
  3  4  2  0
  4  5  1  0
  5  6  2  0
  6  7  1  0
  7  8  1  0
  8  9  1  0
  9 10  1  0
 10 11  2  0
 10 12  1  0
 12 13  2  0
 13 14  1  0
 14 15  1  0
 15 16  1  0
 16 17  2  0
 16 18  2  0
 16 19  1  0
 19 20  2  0
 20 21  1  0
 21 22  2  0
 22 23  1  0
 22 24  1  0
 24 25  2  0
 15 26  1  0
 26 27  1  0
  6 28  1  0
 28 29  2  0
 29 30  1  0
 30 31  1  0
 29  3  1  0
 27 12  1  0
 25 19  1  0
  1 32  1  0
  1 33  1  0
  1 34  1  0
  4 35  1  0
  5 36  1  0
  7 37  1  0
  7 38  1  0
  8 39  1  0
  8 40  1  0
  9 41  1  0
 13 42  1  0
 14 43  1  0
 14 44  1  0
 20 45  1  0
 21 46  1  0
 24 47  1  0
 25 48  1  0
 26 49  1  0
 26 50  1  0
 27 51  1  0
 27 52  1  0
 28 53  1  0
 31 54  1  0
 31 55  1  0
 31 56  1  0
M  END
$$$$
