
     RDKit          3D

 46 49  0  0  0  0  0  0  0  0999 V2000
    6.4178   -0.0679    0.8778 N   0  0  0  0  0  0  0  0  0  0  0  0
    6.0347   -0.4127   -0.7267 S   0  0  0  0  0  6  0  0  0  0  0  0
    6.4242   -1.7889   -0.9317 O   0  0  0  0  0  0  0  0  0  0  0  0
    6.5345    0.6665   -1.5447 O   0  0  0  0  0  0  0  0  0  0  0  0
    4.2667   -0.3215   -0.6916 C   0  0  0  0  0  0  0  0  0  0  0  0
    3.5128   -1.4738   -0.4905 C   0  0  0  0  0  0  0  0  0  0  0  0
    2.1174   -1.3801   -0.4585 C   0  0  0  0  0  0  0  0  0  0  0  0
    1.4443   -0.1555   -0.6343 C   0  0  0  0  0  0  0  0  0  0  0  0
    0.0525   -0.0979   -0.5903 N   0  0  0  0  0  0  0  0  0  0  0  0
   -0.6888   -1.2317   -0.4161 N   0  0  0  0  0  0  0  0  0  0  0  0
   -1.9310   -0.9172   -0.6283 C   0  0  0  0  0  0  0  0  0  0  0  0
   -3.0442   -1.8882   -0.5107 C   0  0  0  0  0  0  0  0  0  0  0  0
   -4.3603   -1.5357   -0.8305 C   0  0  0  0  0  0  0  0  0  0  0  0
   -5.3861   -2.4767   -0.7067 C   0  0  0  0  0  0  0  0  0  0  0  0
   -5.1028   -3.7688   -0.2658 C   0  0  0  0  0  0  0  0  0  0  0  0
   -3.7936   -4.1254    0.0519 C   0  0  0  0  0  0  0  0  0  0  0  0
   -2.7660   -3.1883   -0.0703 C   0  0  0  0  0  0  0  0  0  0  0  0
   -2.1649    0.5102   -1.0398 C   0  0  0  0  0  0  0  0  0  0  0  0
   -0.7677    1.0935   -0.8208 C   0  0  0  0  0  0  0  0  0  0  0  0
   -0.7579    2.0641    0.3530 C   0  0  0  0  0  0  0  0  0  0  0  0
   -0.8440    3.4455    0.1090 C   0  0  0  0  0  0  0  0  0  0  0  0
   -0.8589    4.3573    1.1677 C   0  0  0  0  0  0  0  0  0  0  0  0
   -0.7943    3.8949    2.4800 C   0  0  0  0  0  0  0  0  0  0  0  0
   -0.8141    5.1289    3.9116 Br  0  0  0  0  0  0  0  0  0  0  0  0
   -0.7170    2.5304    2.7442 C   0  0  0  0  0  0  0  0  0  0  0  0
   -0.7023    1.6198    1.6853 C   0  0  0  0  0  0  0  0  0  0  0  0
    2.2405    0.9822   -0.8503 C   0  0  0  0  0  0  0  0  0  0  0  0
    3.6385    0.9078   -0.8828 C   0  0  0  0  0  0  0  0  0  0  0  0
    5.6147    0.2501    1.4197 H   0  0  0  0  0  0  0  0  0  0  0  0
    6.8534   -0.8927    1.2941 H   0  0  0  0  0  0  0  0  0  0  0  0
    3.9875   -2.4434   -0.3604 H   0  0  0  0  0  0  0  0  0  0  0  0
    1.5399   -2.2890   -0.2971 H   0  0  0  0  0  0  0  0  0  0  0  0
   -4.6137   -0.5400   -1.1808 H   0  0  0  0  0  0  0  0  0  0  0  0
   -6.4086   -2.2025   -0.9558 H   0  0  0  0  0  0  0  0  0  0  0  0
   -5.9026   -4.4994   -0.1710 H   0  0  0  0  0  0  0  0  0  0  0  0
   -3.5704   -5.1329    0.3941 H   0  0  0  0  0  0  0  0  0  0  0  0
   -1.7479   -3.4798    0.1801 H   0  0  0  0  0  0  0  0  0  0  0  0
   -2.4363    0.5300   -2.1007 H   0  0  0  0  0  0  0  0  0  0  0  0
   -2.9481    0.9875   -0.4446 H   0  0  0  0  0  0  0  0  0  0  0  0
   -0.4447    1.6087   -1.7345 H   0  0  0  0  0  0  0  0  0  0  0  0
   -0.8978    3.8244   -0.9099 H   0  0  0  0  0  0  0  0  0  0  0  0
   -0.9212    5.4221    0.9588 H   0  0  0  0  0  0  0  0  0  0  0  0
   -0.6662    2.1630    3.7658 H   0  0  0  0  0  0  0  0  0  0  0  0
   -0.6374    0.5547    1.9061 H   0  0  0  0  0  0  0  0  0  0  0  0
    1.7881    1.9587   -0.9962 H   0  0  0  0  0  0  0  0  0  0  0  0
    4.2216    1.8098   -1.0578 H   0  0  0  0  0  0  0  0  0  0  0  0
  1  2  1  0
  2  3  2  0
  2  4  2  0
  2  5  1  0
  5  6  2  0
  6  7  1  0
  7  8  2  0
  8  9  1  0
  9 10  1  0
 10 11  2  0
 11 12  1  0
 12 13  2  0
 13 14  1  0
 14 15  2  0
 15 16  1  0
 16 17  2  0
 11 18  1  0
 18 19  1  0
 19 20  1  0
 20 21  2  0
 21 22  1  0
 22 23  2  0
 23 24  1  0
 23 25  1  0
 25 26  2  0
  8 27  1  0
 27 28  2  0
 28  5  1  0
 19  9  1  0
 26 20  1  0
 17 12  1  0
  1 29  1  0
  1 30  1  0
  6 31  1  0
  7 32  1  0
 13 33  1  0
 14 34  1  0
 15 35  1  0
 16 36  1  0
 17 37  1  0
 18 38  1  0
 18 39  1  0
 19 40  1  0
 21 41  1  0
 22 42  1  0
 25 43  1  0
 26 44  1  0
 27 45  1  0
 28 46  1  0
M  END
$$$$
