
     RDKit          3D

 59 63  0  0  0  0  0  0  0  0999 V2000
    6.2029   -1.9999    4.3078 C   0  0  0  0  0  0  0  0  0  0  0  0
    5.2716   -2.5189    3.3671 O   0  0  0  0  0  0  0  0  0  0  0  0
    4.9697   -1.7262    2.2945 C   0  0  0  0  0  0  0  0  0  0  0  0
    5.4874   -0.4565    2.0401 C   0  0  0  0  0  0  0  0  0  0  0  0
    5.0897    0.2497    0.8979 C   0  0  0  0  0  0  0  0  0  0  0  0
    4.1720   -0.3042   -0.0049 C   0  0  0  0  0  0  0  0  0  0  0  0
    3.7433    0.4411   -1.1954 C   0  0  0  0  0  0  0  0  0  0  0  0
    4.9167    0.8194   -2.3829 S   0  0  0  0  0  0  0  0  0  0  0  0
    3.7735    1.5993   -3.3988 C   0  0  0  0  0  0  0  0  0  0  0  0
    4.0287    2.2064   -4.6450 C   0  0  0  0  0  0  0  0  0  0  0  0
    2.9744    2.8041   -5.3378 C   0  0  0  0  0  0  0  0  0  0  0  0
    1.6937    2.8027   -4.8063 C   0  0  0  0  0  0  0  0  0  0  0  0
    1.4459    2.1983   -3.5703 C   0  0  0  0  0  0  0  0  0  0  0  0
    2.4938    1.5757   -2.8415 C   0  0  0  0  0  0  0  0  0  0  0  0
    2.4853    0.8947   -1.5638 C   0  0  0  0  0  0  0  0  0  0  0  0
    1.3127    0.6874   -0.7192 C   0  0  0  0  0  0  0  0  0  0  0  0
    1.1960    1.3409    0.5099 C   0  0  0  0  0  0  0  0  0  0  0  0
    0.0669    1.1332    1.3060 C   0  0  0  0  0  0  0  0  0  0  0  0
   -0.9553    0.2757    0.8892 C   0  0  0  0  0  0  0  0  0  0  0  0
   -1.9992    0.1736    1.7655 O   0  0  0  0  0  0  0  0  0  0  0  0
   -3.0227   -0.7915    1.5030 C   0  0  0  0  0  0  0  0  0  0  0  0
   -4.1460   -0.1717    0.6526 C   0  0  0  0  0  0  0  0  0  0  0  0
   -5.1729   -1.1419    0.2308 N   0  0  0  0  0  0  0  0  0  0  0  0
   -6.0186   -1.6227    1.3473 C   0  0  0  0  0  0  0  0  0  0  0  0
   -7.0322   -0.5862    1.8636 C   0  0  0  0  0  0  0  0  0  0  0  0
   -7.8670   -0.1006    0.8055 O   0  0  0  0  0  0  0  0  0  0  0  0
   -7.0761    0.4623   -0.2481 C   0  0  0  0  0  0  0  0  0  0  0  0
   -6.0680   -0.5613   -0.7983 C   0  0  0  0  0  0  0  0  0  0  0  0
   -0.8430   -0.3682   -0.3433 C   0  0  0  0  0  0  0  0  0  0  0  0
    0.2866   -0.1633   -1.1444 C   0  0  0  0  0  0  0  0  0  0  0  0
    3.6560   -1.5780    0.2574 C   0  0  0  0  0  0  0  0  0  0  0  0
    4.0534   -2.2806    1.3984 C   0  0  0  0  0  0  0  0  0  0  0  0
    5.8224   -1.0869    4.7774 H   0  0  0  0  0  0  0  0  0  0  0  0
    7.1798   -1.8291    3.8434 H   0  0  0  0  0  0  0  0  0  0  0  0
    6.3353   -2.7485    5.0949 H   0  0  0  0  0  0  0  0  0  0  0  0
    6.2000    0.0159    2.7074 H   0  0  0  0  0  0  0  0  0  0  0  0
    5.4999    1.2419    0.7218 H   0  0  0  0  0  0  0  0  0  0  0  0
    5.0321    2.2114   -5.0616 H   0  0  0  0  0  0  0  0  0  0  0  0
    3.1622    3.2758   -6.2995 H   0  0  0  0  0  0  0  0  0  0  0  0
    0.8781    3.2740   -5.3491 H   0  0  0  0  0  0  0  0  0  0  0  0
    0.4371    2.2110   -3.1640 H   0  0  0  0  0  0  0  0  0  0  0  0
    1.9782    2.0111    0.8578 H   0  0  0  0  0  0  0  0  0  0  0  0
   -0.0139    1.6421    2.2635 H   0  0  0  0  0  0  0  0  0  0  0  0
   -2.6207   -1.7144    1.0691 H   0  0  0  0  0  0  0  0  0  0  0  0
   -3.4216   -1.0714    2.4840 H   0  0  0  0  0  0  0  0  0  0  0  0
   -4.5743    0.6810    1.1931 H   0  0  0  0  0  0  0  0  0  0  0  0
   -3.6837    0.2628   -0.2424 H   0  0  0  0  0  0  0  0  0  0  0  0
   -6.5788   -2.4905    0.9743 H   0  0  0  0  0  0  0  0  0  0  0  0
   -5.4097   -1.9994    2.1751 H   0  0  0  0  0  0  0  0  0  0  0  0
   -6.5357    0.2611    2.3495 H   0  0  0  0  0  0  0  0  0  0  0  0
   -7.6859   -1.0526    2.6078 H   0  0  0  0  0  0  0  0  0  0  0  0
   -7.7617    0.7668   -1.0454 H   0  0  0  0  0  0  0  0  0  0  0  0
   -6.5772    1.3664    0.1187 H   0  0  0  0  0  0  0  0  0  0  0  0
   -5.4834   -0.1167   -1.6122 H   0  0  0  0  0  0  0  0  0  0  0  0
   -6.6287   -1.3917   -1.2471 H   0  0  0  0  0  0  0  0  0  0  0  0
   -1.6144   -1.0322   -0.7192 H   0  0  0  0  0  0  0  0  0  0  0  0
    0.3607   -0.6770   -2.1006 H   0  0  0  0  0  0  0  0  0  0  0  0
    2.9418   -2.0349   -0.4234 H   0  0  0  0  0  0  0  0  0  0  0  0
    3.6434   -3.2691    1.5899 H   0  0  0  0  0  0  0  0  0  0  0  0
  1  2  1  0
  2  3  1  0
  3  4  2  0
  4  5  1  0
  5  6  2  0
  6  7  1  0
  7  8  1  0
  8  9  1  0
  9 10  2  0
 10 11  1  0
 11 12  2  0
 12 13  1  0
 13 14  2  0
 14 15  1  0
 15 16  1  0
 16 17  2  0
 17 18  1  0
 18 19  2  0
 19 20  1  0
 20 21  1  0
 21 22  1  0
 22 23  1  0
 23 24  1  0
 24 25  1  0
 25 26  1  0
 26 27  1  0
 27 28  1  0
 19 29  1  0
 29 30  2  0
  6 31  1  0
 31 32  2  0
 32  3  1  0
 15  7  2  0
 30 16  1  0
 14  9  1  0
 28 23  1  0
  1 33  1  0
  1 34  1  0
  1 35  1  0
  4 36  1  0
  5 37  1  0
 10 38  1  0
 11 39  1  0
 12 40  1  0
 13 41  1  0
 17 42  1  0
 18 43  1  0
 21 44  1  0
 21 45  1  0
 22 46  1  0
 22 47  1  0
 24 48  1  0
 24 49  1  0
 25 50  1  0
 25 51  1  0
 27 52  1  0
 27 53  1  0
 28 54  1  0
 28 55  1  0
 29 56  1  0
 30 57  1  0
 31 58  1  0
 32 59  1  0
M  END
$$$$
