
     RDKit          3D

 59 62  0  0  0  0  0  0  0  0999 V2000
   -7.1273    0.8549   -1.5254 C   0  0  0  0  0  0  0  0  0  0  0  0
   -6.5679   -0.1855   -0.5702 C   0  0  0  0  0  0  0  0  0  0  0  0
   -6.0501    0.4033    0.6504 N   0  0  0  0  0  0  0  0  0  0  0  0
   -4.7403    0.7385    0.9394 C   0  0  0  0  0  0  0  0  0  0  0  0
   -3.6329    0.5895    0.0050 C   0  0  0  0  0  0  0  0  0  0  0  0
   -3.7661    0.8676   -1.1859 O   0  0  0  0  0  0  0  0  0  0  0  0
   -2.4072    0.1357    0.5024 N   0  0  0  0  0  0  0  0  0  0  0  0
   -2.2503   -0.6819    1.6995 C   0  0  0  0  0  0  0  0  0  0  0  0
   -1.0467   -0.2160    2.5142 C   0  0  0  0  0  0  0  0  0  0  0  0
    0.1749    0.1263    1.6516 C   0  0  0  0  0  0  0  0  0  0  0  0
    0.0330   -0.3763    0.2095 C   0  0  0  0  0  0  0  0  0  0  0  0
    1.2416    0.0000   -0.6397 C   0  0  0  0  0  0  0  0  0  0  0  0
    1.1844    0.7770   -1.5860 O   0  0  0  0  0  0  0  0  0  0  0  0
    2.4100   -0.6331   -0.2608 N   0  0  0  0  0  0  0  0  0  0  0  0
    3.6778   -0.2834   -0.8805 C   0  0  0  0  0  0  0  0  0  0  0  0
    4.7266   -1.3755   -0.6752 C   0  0  0  0  0  0  0  0  0  0  0  0
    6.0537   -1.0037   -1.2843 C   0  0  0  0  0  0  0  0  0  0  0  0
    6.3232   -1.2927   -2.6274 C   0  0  0  0  0  0  0  0  0  0  0  0
    7.5436   -0.9264   -3.1995 C   0  0  0  0  0  0  0  0  0  0  0  0
    8.5166   -0.2686   -2.4385 C   0  0  0  0  0  0  0  0  0  0  0  0
    9.8110    0.1504   -3.0701 C   0  0  0  0  0  0  0  0  0  0  0  0
    8.2414    0.0349   -1.1013 C   0  0  0  0  0  0  0  0  0  0  0  0
    7.0215   -0.3319   -0.5276 C   0  0  0  0  0  0  0  0  0  0  0  0
   -1.2610    0.1708   -0.4124 C   0  0  0  0  0  0  0  0  0  0  0  0
   -4.7187    1.3136    2.2052 C   0  0  0  0  0  0  0  0  0  0  0  0
   -6.0475    1.2517    2.7036 C   0  0  0  0  0  0  0  0  0  0  0  0
   -6.9347    1.6747    4.1285 S   0  0  0  0  0  0  0  0  0  0  0  0
   -8.3763    1.0810    3.4018 C   0  0  0  0  0  0  0  0  0  0  0  0
   -8.2036    0.5835    2.1277 C   0  0  0  0  0  0  0  0  0  0  0  0
   -6.8375    0.6939    1.7449 C   0  0  0  0  0  0  0  0  0  0  0  0
   -6.3668    1.5919   -1.8035 H   0  0  0  0  0  0  0  0  0  0  0  0
   -7.9645    1.3972   -1.0735 H   0  0  0  0  0  0  0  0  0  0  0  0
   -7.4881    0.3745   -2.4403 H   0  0  0  0  0  0  0  0  0  0  0  0
   -5.7668   -0.7598   -1.0457 H   0  0  0  0  0  0  0  0  0  0  0  0
   -7.3464   -0.9043   -0.2898 H   0  0  0  0  0  0  0  0  0  0  0  0
   -2.1028   -1.7159    1.3617 H   0  0  0  0  0  0  0  0  0  0  0  0
   -3.1448   -0.7060    2.3234 H   0  0  0  0  0  0  0  0  0  0  0  0
   -0.7841   -0.9961    3.2391 H   0  0  0  0  0  0  0  0  0  0  0  0
   -1.3184    0.6708    3.1006 H   0  0  0  0  0  0  0  0  0  0  0  0
    0.3118    1.2162    1.6416 H   0  0  0  0  0  0  0  0  0  0  0  0
    1.0744   -0.2777    2.1301 H   0  0  0  0  0  0  0  0  0  0  0  0
   -0.0212   -1.4739    0.2200 H   0  0  0  0  0  0  0  0  0  0  0  0
    2.4378   -1.0888    0.6415 H   0  0  0  0  0  0  0  0  0  0  0  0
    3.5155   -0.0972   -1.9485 H   0  0  0  0  0  0  0  0  0  0  0  0
    4.0049    0.6612   -0.4306 H   0  0  0  0  0  0  0  0  0  0  0  0
    4.3749   -2.3217   -1.1069 H   0  0  0  0  0  0  0  0  0  0  0  0
    4.8578   -1.5754    0.3964 H   0  0  0  0  0  0  0  0  0  0  0  0
    5.5819   -1.8000   -3.2415 H   0  0  0  0  0  0  0  0  0  0  0  0
    7.7288   -1.1542   -4.2470 H   0  0  0  0  0  0  0  0  0  0  0  0
   10.5718    0.3656   -2.3119 H   0  0  0  0  0  0  0  0  0  0  0  0
   10.2030   -0.6481   -3.7087 H   0  0  0  0  0  0  0  0  0  0  0  0
    9.6584    1.0502   -3.6747 H   0  0  0  0  0  0  0  0  0  0  0  0
    8.9749    0.5628   -0.4962 H   0  0  0  0  0  0  0  0  0  0  0  0
    6.8326   -0.0833    0.5141 H   0  0  0  0  0  0  0  0  0  0  0  0
   -1.5145   -0.4126   -1.3068 H   0  0  0  0  0  0  0  0  0  0  0  0
   -1.1451    1.2131   -0.7357 H   0  0  0  0  0  0  0  0  0  0  0  0
   -3.8557    1.7292    2.7072 H   0  0  0  0  0  0  0  0  0  0  0  0
   -9.2999    1.1340    3.9619 H   0  0  0  0  0  0  0  0  0  0  0  0
   -9.0007    0.1760    1.5199 H   0  0  0  0  0  0  0  0  0  0  0  0
  1  2  1  0
  2  3  1  0
  3  4  1  0
  4  5  1  0
  5  6  2  0
  5  7  1  0
  7  8  1  0
  8  9  1  0
  9 10  1  0
 10 11  1  0
 11 12  1  0
 12 13  2  0
 12 14  1  0
 14 15  1  0
 15 16  1  0
 16 17  1  0
 17 18  2  0
 18 19  1  0
 19 20  2  0
 20 21  1  0
 20 22  1  0
 22 23  2  0
 11 24  1  0
  4 25  2  0
 25 26  1  0
 26 27  1  0
 27 28  1  0
 28 29  2  0
 29 30  1  0
 30  3  1  0
 24  7  1  0
 30 26  2  0
 23 17  1  0
  1 31  1  0
  1 32  1  0
  1 33  1  0
  2 34  1  0
  2 35  1  0
  8 36  1  0
  8 37  1  0
  9 38  1  0
  9 39  1  0
 10 40  1  0
 10 41  1  0
 11 42  1  0
 14 43  1  0
 15 44  1  0
 15 45  1  0
 16 46  1  0
 16 47  1  0
 18 48  1  0
 19 49  1  0
 21 50  1  0
 21 51  1  0
 21 52  1  0
 22 53  1  0
 23 54  1  0
 24 55  1  0
 24 56  1  0
 25 57  1  0
 28 58  1  0
 29 59  1  0
M  END
$$$$
