
     RDKit          3D

 50 52  0  0  0  0  0  0  0  0999 V2000
   -2.5197   -2.1740   -1.5963 C   0  0  0  0  0  0  0  0  0  0  0  0
   -2.5652   -0.6621   -1.7910 C   0  0  0  0  0  0  0  0  0  0  0  0
   -2.6935    0.1567   -0.4860 C   0  0  0  0  0  0  0  0  0  0  0  0
   -3.9056   -0.2171    0.3633 C   0  0  0  0  0  0  0  0  0  0  0  0
   -3.7928   -0.7364    1.6634 C   0  0  0  0  0  0  0  0  0  0  0  0
   -4.9288   -1.0700    2.4078 C   0  0  0  0  0  0  0  0  0  0  0  0
   -6.1991   -0.8927    1.8685 C   0  0  0  0  0  0  0  0  0  0  0  0
   -6.3372   -0.3836    0.5819 C   0  0  0  0  0  0  0  0  0  0  0  0
   -5.2034   -0.0507   -0.1629 C   0  0  0  0  0  0  0  0  0  0  0  0
   -2.7648    1.5738   -0.8158 N   0  0  0  0  0  0  0  0  0  0  0  0
   -1.6436    2.2727   -0.4527 C   0  0  0  0  0  0  0  0  0  0  0  0
   -1.4723    3.4574   -0.6864 O   0  0  0  0  0  0  0  0  0  0  0  0
   -0.8050    1.4338    0.2010 N   0  0  0  0  0  0  0  0  0  0  0  0
    0.5207    1.7909    0.6488 C   0  0  0  0  0  0  0  0  0  0  0  0
    1.5324    1.4979   -0.4679 C   0  0  0  0  0  0  0  0  0  0  0  0
    1.1685    1.0646   -1.5651 O   0  0  0  0  0  0  0  0  0  0  0  0
    2.8753    1.7425   -0.1810 N   0  0  0  0  0  0  0  0  0  0  0  0
    3.3639    2.1221    1.1375 C   0  0  0  0  0  0  0  0  0  0  0  0
    3.8785    1.3165   -1.1571 C   0  0  0  0  0  0  0  0  0  0  0  0
    4.5179   -0.0032   -0.7906 C   0  0  0  0  0  0  0  0  0  0  0  0
    5.8368   -0.0530   -0.3162 C   0  0  0  0  0  0  0  0  0  0  0  0
    6.4172   -1.2733    0.0347 C   0  0  0  0  0  0  0  0  0  0  0  0
    5.6863   -2.4541   -0.0828 C   0  0  0  0  0  0  0  0  0  0  0  0
    4.3749   -2.4171   -0.5522 C   0  0  0  0  0  0  0  0  0  0  0  0
    3.7932   -1.1987   -0.9048 C   0  0  0  0  0  0  0  0  0  0  0  0
   -1.3233    0.1702    0.2466 C   0  0  0  0  0  0  0  0  0  0  0  0
   -0.7687   -0.7915    0.7676 O   0  0  0  0  0  0  0  0  0  0  0  0
   -1.6697   -2.4771   -0.9793 H   0  0  0  0  0  0  0  0  0  0  0  0
   -3.4366   -2.5499   -1.1331 H   0  0  0  0  0  0  0  0  0  0  0  0
   -2.4153   -2.6690   -2.5676 H   0  0  0  0  0  0  0  0  0  0  0  0
   -3.3999   -0.4280   -2.4646 H   0  0  0  0  0  0  0  0  0  0  0  0
   -1.6559   -0.3613   -2.3292 H   0  0  0  0  0  0  0  0  0  0  0  0
   -2.8233   -0.9040    2.1273 H   0  0  0  0  0  0  0  0  0  0  0  0
   -4.8172   -1.4730    3.4116 H   0  0  0  0  0  0  0  0  0  0  0  0
   -7.0793   -1.1539    2.4499 H   0  0  0  0  0  0  0  0  0  0  0  0
   -7.3277   -0.2462    0.1556 H   0  0  0  0  0  0  0  0  0  0  0  0
   -5.3452    0.3419   -1.1678 H   0  0  0  0  0  0  0  0  0  0  0  0
   -3.5115    2.0238   -1.3251 H   0  0  0  0  0  0  0  0  0  0  0  0
    0.5428    2.8597    0.8814 H   0  0  0  0  0  0  0  0  0  0  0  0
    0.7719    1.1928    1.5299 H   0  0  0  0  0  0  0  0  0  0  0  0
    3.5523    1.2157    1.7200 H   0  0  0  0  0  0  0  0  0  0  0  0
    2.6373    2.7383    1.6703 H   0  0  0  0  0  0  0  0  0  0  0  0
    4.2886    2.6974    1.0346 H   0  0  0  0  0  0  0  0  0  0  0  0
    3.4414    1.2328   -2.1590 H   0  0  0  0  0  0  0  0  0  0  0  0
    4.6349    2.1081   -1.2242 H   0  0  0  0  0  0  0  0  0  0  0  0
    6.4218    0.8583   -0.2171 H   0  0  0  0  0  0  0  0  0  0  0  0
    7.4406   -1.3036    0.3997 H   0  0  0  0  0  0  0  0  0  0  0  0
    6.1381   -3.4039    0.1905 H   0  0  0  0  0  0  0  0  0  0  0  0
    3.8021   -3.3363   -0.6442 H   0  0  0  0  0  0  0  0  0  0  0  0
    2.7673   -1.1842   -1.2703 H   0  0  0  0  0  0  0  0  0  0  0  0
  1  2  1  0
  2  3  1  0
  3  4  1  0
  4  5  2  0
  5  6  1  0
  6  7  2  0
  7  8  1  0
  8  9  2  0
  3 10  1  0
 10 11  1  0
 11 12  2  0
 11 13  1  0
 13 14  1  0
 14 15  1  0
 15 16  2  0
 15 17  1  0
 17 18  1  0
 17 19  1  0
 19 20  1  0
 20 21  2  0
 21 22  1  0
 22 23  2  0
 23 24  1  0
 24 25  2  0
 13 26  1  0
 26 27  2  0
 26  3  1  0
  9  4  1  0
 25 20  1  0
  1 28  1  0
  1 29  1  0
  1 30  1  0
  2 31  1  0
  2 32  1  0
  5 33  1  0
  6 34  1  0
  7 35  1  0
  8 36  1  0
  9 37  1  0
 10 38  1  0
 14 39  1  0
 14 40  1  0
 18 41  1  0
 18 42  1  0
 18 43  1  0
 19 44  1  0
 19 45  1  0
 21 46  1  0
 22 47  1  0
 23 48  1  0
 24 49  1  0
 25 50  1  0
M  END
$$$$
