
     RDKit          3D

 35 36  0  0  0  0  0  0  0  0999 V2000
   -5.9374   -0.1318   -0.4223 C   0  0  0  0  0  0  0  0  0  0  0  0
   -4.4463   -0.1859   -0.2713 C   0  0  0  0  0  0  0  0  0  0  0  0
   -3.6355    0.7875   -0.8634 C   0  0  0  0  0  0  0  0  0  0  0  0
   -2.2443    0.7591   -0.7004 C   0  0  0  0  0  0  0  0  0  0  0  0
   -1.6423   -0.2337    0.0795 C   0  0  0  0  0  0  0  0  0  0  0  0
   -0.2265   -0.3111    0.2718 N   0  0  0  0  0  0  0  0  0  0  0  0
    0.3030   -1.4781    0.7103 N   0  0  0  0  0  0  0  0  0  0  0  0
    1.6278   -1.3450    0.6013 C   0  0  0  0  0  0  0  0  0  0  0  0
    2.4657   -2.5219    0.9419 C   0  0  0  0  0  0  0  0  0  0  0  0
    1.9816   -0.0333    0.1987 C   0  0  0  0  0  0  0  0  0  0  0  0
    3.1920    0.6044   -0.0290 N   0  0  0  0  0  0  0  0  0  0  0  0
    4.4585    0.0615   -0.0191 C   0  0  0  0  0  0  0  0  0  0  0  0
    4.7396   -1.1126    0.2067 O   0  0  0  0  0  0  0  0  0  0  0  0
    5.5820    1.0591   -0.2653 C   0  0  0  0  0  0  0  0  0  0  0  0
    5.0172    2.5650   -1.0295 Cl  0  0  0  0  0  0  0  0  0  0  0  0
    0.7721    0.6410    0.0854 C   0  0  0  0  0  0  0  0  0  0  0  0
    0.5276    2.0929   -0.1324 C   0  0  0  0  0  0  0  0  0  0  0  0
   -2.4593   -1.2168    0.6634 C   0  0  0  0  0  0  0  0  0  0  0  0
   -3.8475   -1.1847    0.5002 C   0  0  0  0  0  0  0  0  0  0  0  0
   -6.2168    0.3051   -1.3868 H   0  0  0  0  0  0  0  0  0  0  0  0
   -6.3710   -1.1366   -0.3837 H   0  0  0  0  0  0  0  0  0  0  0  0
   -6.3727    0.4725    0.3795 H   0  0  0  0  0  0  0  0  0  0  0  0
   -4.0815    1.5714   -1.4724 H   0  0  0  0  0  0  0  0  0  0  0  0
   -1.6710    1.5037   -1.2377 H   0  0  0  0  0  0  0  0  0  0  0  0
    3.1724   -2.2787    1.7408 H   0  0  0  0  0  0  0  0  0  0  0  0
    3.0064   -2.8802    0.0611 H   0  0  0  0  0  0  0  0  0  0  0  0
    1.8526   -3.3560    1.3025 H   0  0  0  0  0  0  0  0  0  0  0  0
    3.1366    1.5777   -0.3099 H   0  0  0  0  0  0  0  0  0  0  0  0
    6.0487    1.3138    0.6898 H   0  0  0  0  0  0  0  0  0  0  0  0
    6.3208    0.6083   -0.9332 H   0  0  0  0  0  0  0  0  0  0  0  0
    0.4202    2.3120   -1.1989 H   0  0  0  0  0  0  0  0  0  0  0  0
   -0.3555    2.4442    0.4094 H   0  0  0  0  0  0  0  0  0  0  0  0
    1.3642    2.6919    0.2431 H   0  0  0  0  0  0  0  0  0  0  0  0
   -2.0277   -2.0142    1.2670 H   0  0  0  0  0  0  0  0  0  0  0  0
   -4.4539   -1.9505    0.9790 H   0  0  0  0  0  0  0  0  0  0  0  0
  1  2  1  0
  2  3  2  0
  3  4  1  0
  4  5  2  0
  5  6  1  0
  6  7  1  0
  7  8  2  0
  8  9  1  0
  8 10  1  0
 10 11  1  0
 11 12  1  0
 12 13  2  0
 12 14  1  0
 14 15  1  0
 10 16  2  0
 16 17  1  0
  5 18  1  0
 18 19  2  0
 19  2  1  0
 16  6  1  0
  1 20  1  0
  1 21  1  0
  1 22  1  0
  3 23  1  0
  4 24  1  0
  9 25  1  0
  9 26  1  0
  9 27  1  0
 11 28  1  0
 14 29  1  0
 14 30  1  0
 17 31  1  0
 17 32  1  0
 17 33  1  0
 18 34  1  0
 19 35  1  0
M  END
$$$$
