
     RDKit          3D

 36 38  0  0  0  0  0  0  0  0999 V2000
    0.2100   -0.1760   -1.3754 O   0  0  0  0  0  0  0  0  0  0  0  0
   -0.2007   -0.1075   -0.2225 C   0  0  0  0  0  0  0  0  0  0  0  0
   -1.6561   -0.0439    0.0991 C   0  0  0  0  0  0  0  0  0  0  0  0
   -2.5839    0.0065   -0.8675 C   0  0  0  0  0  0  0  0  0  0  0  0
   -4.0371    0.0504   -0.6739 C   0  0  0  0  0  0  0  0  0  0  0  0
   -4.8224   -1.0041   -1.1547 C   0  0  0  0  0  0  0  0  0  0  0  0
   -6.2095   -0.9763   -0.9980 C   0  0  0  0  0  0  0  0  0  0  0  0
   -6.8101    0.1068   -0.3679 C   0  0  0  0  0  0  0  0  0  0  0  0
   -8.1667    0.0914   -0.2354 O   0  0  0  0  0  0  0  0  0  0  0  0
   -6.0471    1.1686    0.1063 C   0  0  0  0  0  0  0  0  0  0  0  0
   -4.6587    1.1412   -0.0518 C   0  0  0  0  0  0  0  0  0  0  0  0
   -1.9072   -0.0889    1.7976 S   0  0  0  0  0  0  0  0  0  0  0  0
   -0.1847   -0.1727    2.1476 C   0  0  0  0  0  0  0  0  0  0  0  0
    0.3994   -0.2784    3.7112 S   0  0  0  0  0  0  0  0  0  0  0  0
    0.5360   -0.1121    0.9622 N   0  0  0  0  0  0  0  0  0  0  0  0
    1.9156   -0.2289    1.0221 N   0  0  0  0  0  0  0  0  0  0  0  0
    2.6395    0.1784    0.0306 C   0  0  0  0  0  0  0  0  0  0  0  0
    4.1107    0.0267    0.0427 C   0  0  0  0  0  0  0  0  0  0  0  0
    4.8402    0.4563   -1.0718 C   0  0  0  0  0  0  0  0  0  0  0  0
    6.2313    0.3248   -1.0855 C   0  0  0  0  0  0  0  0  0  0  0  0
    6.8770   -0.2337    0.0146 C   0  0  0  0  0  0  0  0  0  0  0  0
    8.2318   -0.3805    0.0429 O   0  0  0  0  0  0  0  0  0  0  0  0
    6.1577   -0.6625    1.1254 C   0  0  0  0  0  0  0  0  0  0  0  0
    4.7681   -0.5337    1.1425 C   0  0  0  0  0  0  0  0  0  0  0  0
   -2.2740   -0.0091   -1.9121 H   0  0  0  0  0  0  0  0  0  0  0  0
   -4.3636   -1.8574   -1.6488 H   0  0  0  0  0  0  0  0  0  0  0  0
   -6.8186   -1.7973   -1.3656 H   0  0  0  0  0  0  0  0  0  0  0  0
   -8.4420    0.8935    0.2380 H   0  0  0  0  0  0  0  0  0  0  0  0
   -6.5089    2.0203    0.5954 H   0  0  0  0  0  0  0  0  0  0  0  0
   -4.0694    1.9790    0.3136 H   0  0  0  0  0  0  0  0  0  0  0  0
    2.2271    0.6856   -0.8564 H   0  0  0  0  0  0  0  0  0  0  0  0
    4.3378    0.8891   -1.9332 H   0  0  0  0  0  0  0  0  0  0  0  0
    6.7891    0.6591   -1.9548 H   0  0  0  0  0  0  0  0  0  0  0  0
    8.6021   -0.0488   -0.7914 H   0  0  0  0  0  0  0  0  0  0  0  0
    6.6766   -1.0962    1.9760 H   0  0  0  0  0  0  0  0  0  0  0  0
    4.2104   -0.8698    2.0136 H   0  0  0  0  0  0  0  0  0  0  0  0
  1  2  2  0
  2  3  1  0
  3  4  2  3
  4  5  1  0
  5  6  2  0
  6  7  1  0
  7  8  2  0
  8  9  1  0
  8 10  1  0
 10 11  2  0
  3 12  1  0
 12 13  1  0
 13 14  2  0
 13 15  1  0
 15 16  1  0
 16 17  2  3
 17 18  1  0
 18 19  2  0
 19 20  1  0
 20 21  2  0
 21 22  1  0
 21 23  1  0
 23 24  2  0
 15  2  1  0
 24 18  1  0
 11  5  1  0
  4 25  1  0
  6 26  1  0
  7 27  1  0
  9 28  1  0
 10 29  1  0
 11 30  1  0
 17 31  1  0
 19 32  1  0
 20 33  1  0
 22 34  1  0
 23 35  1  0
 24 36  1  0
M  END
$$$$
