
     RDKit          3D

 57 60  0  0  0  0  0  0  0  0999 V2000
   -4.2118    3.6934   -1.1567 C   0  0  0  0  0  0  0  0  0  0  0  0
   -3.8896    2.3227   -0.9630 O   0  0  0  0  0  0  0  0  0  0  0  0
   -2.6978    2.0194   -0.3697 C   0  0  0  0  0  0  0  0  0  0  0  0
   -1.8728    2.9650    0.2526 C   0  0  0  0  0  0  0  0  0  0  0  0
   -0.6692    2.5783    0.8526 C   0  0  0  0  0  0  0  0  0  0  0  0
   -0.2701    1.2406    0.8279 C   0  0  0  0  0  0  0  0  0  0  0  0
    0.9955    0.8563    1.4980 C   0  0  0  0  0  0  0  0  0  0  0  0
    1.2316    1.3483    2.5988 O   0  0  0  0  0  0  0  0  0  0  0  0
    1.8375   -0.0614    0.8695 N   0  0  0  0  0  0  0  0  0  0  0  0
    3.0382   -0.4770    1.6072 C   0  0  0  0  0  0  0  0  0  0  0  0
    4.2402    0.4254    1.2578 C   0  0  0  0  0  0  0  0  0  0  0  0
    4.4723    0.4308   -0.2145 N   0  0  0  0  0  0  0  0  0  0  0  0
    5.3529   -0.5350   -0.7102 C   0  0  0  0  0  0  0  0  0  0  0  0
    6.6323   -0.6771   -0.1431 C   0  0  0  0  0  0  0  0  0  0  0  0
    7.5533   -1.6227   -0.6085 C   0  0  0  0  0  0  0  0  0  0  0  0
    7.2198   -2.4509   -1.6719 C   0  0  0  0  0  0  0  0  0  0  0  0
    5.9730   -2.3205   -2.2711 C   0  0  0  0  0  0  0  0  0  0  0  0
    5.0583   -1.3690   -1.7994 C   0  0  0  0  0  0  0  0  0  0  0  0
    3.2603    0.8082   -0.9780 C   0  0  0  0  0  0  0  0  0  0  0  0
    2.0421   -0.0641   -0.5907 C   0  0  0  0  0  0  0  0  0  0  0  0
   -1.0940    0.2796    0.2408 C   0  0  0  0  0  0  0  0  0  0  0  0
   -2.2992    0.6740   -0.3598 C   0  0  0  0  0  0  0  0  0  0  0  0
   -3.2964   -0.5769   -1.1342 S   0  0  0  0  0  6  0  0  0  0  0  0
   -3.5541   -0.1703   -2.4991 O   0  0  0  0  0  0  0  0  0  0  0  0
   -2.6811   -1.8633   -0.8662 O   0  0  0  0  0  0  0  0  0  0  0  0
   -4.7449   -0.5404   -0.2572 N   0  0  0  0  0  0  0  0  0  0  0  0
   -4.6877   -0.8748    1.1890 C   0  0  0  0  0  0  0  0  0  0  0  0
   -5.7584   -1.9375    1.3986 C   0  0  0  0  0  0  0  0  0  0  0  0
   -6.7665   -1.6318    0.3094 C   0  0  0  0  0  0  0  0  0  0  0  0
   -5.8698   -1.2877   -0.8693 C   0  0  0  0  0  0  0  0  0  0  0  0
   -5.1388    3.7400   -1.7362 H   0  0  0  0  0  0  0  0  0  0  0  0
   -3.4338    4.2084   -1.7301 H   0  0  0  0  0  0  0  0  0  0  0  0
   -4.3931    4.1912   -0.1987 H   0  0  0  0  0  0  0  0  0  0  0  0
   -2.1427    4.0158    0.3007 H   0  0  0  0  0  0  0  0  0  0  0  0
   -0.0461    3.3232    1.3450 H   0  0  0  0  0  0  0  0  0  0  0  0
    2.8501   -0.4539    2.6858 H   0  0  0  0  0  0  0  0  0  0  0  0
    3.2477   -1.5169    1.3297 H   0  0  0  0  0  0  0  0  0  0  0  0
    5.1150    0.1053    1.8320 H   0  0  0  0  0  0  0  0  0  0  0  0
    4.0265    1.4561    1.5676 H   0  0  0  0  0  0  0  0  0  0  0  0
    6.9472   -0.0163    0.6608 H   0  0  0  0  0  0  0  0  0  0  0  0
    8.5326   -1.6977   -0.1439 H   0  0  0  0  0  0  0  0  0  0  0  0
    7.9310   -3.1850   -2.0394 H   0  0  0  0  0  0  0  0  0  0  0  0
    5.7052   -2.9563   -3.1109 H   0  0  0  0  0  0  0  0  0  0  0  0
    4.1017   -1.3164   -2.3075 H   0  0  0  0  0  0  0  0  0  0  0  0
    3.0309    1.8536   -0.7325 H   0  0  0  0  0  0  0  0  0  0  0  0
    3.4319    0.7898   -2.0601 H   0  0  0  0  0  0  0  0  0  0  0  0
    2.1966   -1.1064   -0.8888 H   0  0  0  0  0  0  0  0  0  0  0  0
    1.1650    0.3093   -1.1226 H   0  0  0  0  0  0  0  0  0  0  0  0
   -0.7985   -0.7676    0.2572 H   0  0  0  0  0  0  0  0  0  0  0  0
   -4.9234    0.0321    1.7566 H   0  0  0  0  0  0  0  0  0  0  0  0
   -3.7096   -1.2382    1.5152 H   0  0  0  0  0  0  0  0  0  0  0  0
   -5.3312   -2.9360    1.2453 H   0  0  0  0  0  0  0  0  0  0  0  0
   -6.1911   -1.9023    2.4023 H   0  0  0  0  0  0  0  0  0  0  0  0
   -7.4330   -2.4724    0.0980 H   0  0  0  0  0  0  0  0  0  0  0  0
   -7.3777   -0.7660    0.5909 H   0  0  0  0  0  0  0  0  0  0  0  0
   -5.5133   -2.2050   -1.3512 H   0  0  0  0  0  0  0  0  0  0  0  0
   -6.3930   -0.6699   -1.6041 H   0  0  0  0  0  0  0  0  0  0  0  0
  1  2  1  0
  2  3  1  0
  3  4  2  0
  4  5  1  0
  5  6  2  0
  6  7  1  0
  7  8  2  0
  7  9  1  0
  9 10  1  0
 10 11  1  0
 11 12  1  0
 12 13  1  0
 13 14  2  0
 14 15  1  0
 15 16  2  0
 16 17  1  0
 17 18  2  0
 12 19  1  0
 19 20  1  0
  6 21  1  0
 21 22  2  0
 22 23  1  0
 23 24  2  0
 23 25  2  0
 23 26  1  0
 26 27  1  0
 27 28  1  0
 28 29  1  0
 29 30  1  0
 22  3  1  0
 30 26  1  0
 20  9  1  0
 18 13  1  0
  1 31  1  0
  1 32  1  0
  1 33  1  0
  4 34  1  0
  5 35  1  0
 10 36  1  0
 10 37  1  0
 11 38  1  0
 11 39  1  0
 14 40  1  0
 15 41  1  0
 16 42  1  0
 17 43  1  0
 18 44  1  0
 19 45  1  0
 19 46  1  0
 20 47  1  0
 20 48  1  0
 21 49  1  0
 27 50  1  0
 27 51  1  0
 28 52  1  0
 28 53  1  0
 29 54  1  0
 29 55  1  0
 30 56  1  0
 30 57  1  0
M  END
$$$$
