
     RDKit          3D

 41 42  0  0  0  0  0  0  0  0999 V2000
   -7.3287   -2.1930    2.5421 C   0  0  0  0  0  0  0  0  0  0  0  0
   -7.0766   -1.5382    1.3055 O   0  0  0  0  0  0  0  0  0  0  0  0
   -5.9048   -0.8396    1.2057 C   0  0  0  0  0  0  0  0  0  0  0  0
   -5.6677   -0.2724   -0.0478 C   0  0  0  0  0  0  0  0  0  0  0  0
   -4.5079    0.4679   -0.2900 C   0  0  0  0  0  0  0  0  0  0  0  0
   -3.5669    0.6594    0.7282 C   0  0  0  0  0  0  0  0  0  0  0  0
   -2.3110    1.4591    0.4754 C   0  0  0  0  0  0  0  0  0  0  0  0
   -1.0686    0.6259    0.2376 C   0  0  0  0  0  0  0  0  0  0  0  0
   -0.9867   -0.5900    0.3575 O   0  0  0  0  0  0  0  0  0  0  0  0
   -0.0486    1.4913   -0.1049 O   0  0  0  0  0  0  0  0  0  0  0  0
    1.1255    0.7654   -0.3785 N   0  0  0  0  0  0  0  0  0  0  0  0
    2.1143    1.5490   -0.6929 C   0  0  0  0  0  0  0  0  0  0  0  0
    2.0112    2.9226   -0.7193 N   0  0  0  0  0  0  0  0  0  0  0  0
    3.4321    0.9128   -1.0237 C   0  0  0  0  0  0  0  0  0  0  0  0
    4.4166    1.6221   -1.7189 C   0  0  0  0  0  0  0  0  0  0  0  0
    5.6413    1.0134   -2.0102 C   0  0  0  0  0  0  0  0  0  0  0  0
    5.8964   -0.3043   -1.6204 C   0  0  0  0  0  0  0  0  0  0  0  0
    7.1327   -0.7732   -1.9687 O   0  0  0  0  0  0  0  0  0  0  0  0
    7.4273   -2.1220   -1.6268 C   0  0  0  0  0  0  0  0  0  0  0  0
    4.9110   -1.0158   -0.9361 C   0  0  0  0  0  0  0  0  0  0  0  0
    3.6831   -0.4107   -0.6414 C   0  0  0  0  0  0  0  0  0  0  0  0
   -3.8055    0.0852    1.9840 C   0  0  0  0  0  0  0  0  0  0  0  0
   -4.9673   -0.6585    2.2217 C   0  0  0  0  0  0  0  0  0  0  0  0
   -7.4299   -1.4693    3.3576 H   0  0  0  0  0  0  0  0  0  0  0  0
   -8.2804   -2.7254    2.4503 H   0  0  0  0  0  0  0  0  0  0  0  0
   -6.5532   -2.9337    2.7635 H   0  0  0  0  0  0  0  0  0  0  0  0
   -6.3914   -0.4148   -0.8467 H   0  0  0  0  0  0  0  0  0  0  0  0
   -4.3494    0.8872   -1.2808 H   0  0  0  0  0  0  0  0  0  0  0  0
   -2.4645    2.1036   -0.3989 H   0  0  0  0  0  0  0  0  0  0  0  0
   -2.1282    2.1128    1.3370 H   0  0  0  0  0  0  0  0  0  0  0  0
    2.8363    3.4240   -0.4089 H   0  0  0  0  0  0  0  0  0  0  0  0
    1.1732    3.2515   -0.2535 H   0  0  0  0  0  0  0  0  0  0  0  0
    4.2409    2.6367   -2.0632 H   0  0  0  0  0  0  0  0  0  0  0  0
    6.4018    1.5676   -2.5556 H   0  0  0  0  0  0  0  0  0  0  0  0
    8.4381   -2.3437   -1.9824 H   0  0  0  0  0  0  0  0  0  0  0  0
    7.4176   -2.2648   -0.5412 H   0  0  0  0  0  0  0  0  0  0  0  0
    6.7401   -2.8148   -2.1238 H   0  0  0  0  0  0  0  0  0  0  0  0
    5.0592   -2.0425   -0.6181 H   0  0  0  0  0  0  0  0  0  0  0  0
    2.9241   -0.9825   -0.1103 H   0  0  0  0  0  0  0  0  0  0  0  0
   -3.0814    0.2015    2.7878 H   0  0  0  0  0  0  0  0  0  0  0  0
   -5.1042   -1.0855    3.2093 H   0  0  0  0  0  0  0  0  0  0  0  0
  1  2  1  0
  2  3  1  0
  3  4  2  0
  4  5  1  0
  5  6  2  0
  6  7  1  0
  7  8  1  0
  8  9  2  0
  8 10  1  0
 10 11  1  0
 11 12  2  3
 12 13  1  0
 12 14  1  0
 14 15  2  0
 15 16  1  0
 16 17  2  0
 17 18  1  0
 18 19  1  0
 17 20  1  0
 20 21  2  0
  6 22  1  0
 22 23  2  0
 23  3  1  0
 21 14  1  0
  1 24  1  0
  1 25  1  0
  1 26  1  0
  4 27  1  0
  5 28  1  0
  7 29  1  0
  7 30  1  0
 13 31  1  0
 13 32  1  0
 15 33  1  0
 16 34  1  0
 19 35  1  0
 19 36  1  0
 19 37  1  0
 20 38  1  0
 21 39  1  0
 22 40  1  0
 23 41  1  0
M  END
$$$$
