
     RDKit          3D

 43 46  0  0  0  0  0  0  0  0999 V2000
    4.0930   -1.3427   -0.0215 O   0  0  0  0  0  0  0  0  0  0  0  0
    2.9738   -0.9286    0.1805 C   0  0  0  0  0  0  0  0  0  0  0  0
    2.4537    0.4597    0.3753 C   0  0  0  0  0  0  0  0  0  0  0  0
    3.1106    1.6236    0.4424 C   0  0  0  0  0  0  0  0  0  0  0  0
    4.5208    1.7665    0.4197 C   0  0  0  0  0  0  0  0  0  0  0  0
    5.2721    2.8168   -0.0982 C   0  0  0  0  0  0  0  0  0  0  0  0
    6.6389    2.5340    0.1361 C   0  0  0  0  0  0  0  0  0  0  0  0
    6.6610    1.3370    0.8032 C   0  0  0  0  0  0  0  0  0  0  0  0
    5.4009    0.8814    0.9948 O   0  0  0  0  0  0  0  0  0  0  0  0
    1.0538    0.4310    0.4715 O   0  0  0  0  0  0  0  0  0  0  0  0
    0.6801   -0.8916    0.3911 C   0  0  0  0  0  0  0  0  0  0  0  0
    1.7680   -1.7460    0.2281 C   0  0  0  0  0  0  0  0  0  0  0  0
    1.6327   -3.1166    0.1351 C   0  0  0  0  0  0  0  0  0  0  0  0
    0.3391   -3.6303    0.2162 C   0  0  0  0  0  0  0  0  0  0  0  0
   -0.7608   -2.7682    0.3767 C   0  0  0  0  0  0  0  0  0  0  0  0
   -1.9934   -3.3626    0.4326 O   0  0  0  0  0  0  0  0  0  0  0  0
   -0.6198   -1.3705    0.4623 C   0  0  0  0  0  0  0  0  0  0  0  0
   -1.7770   -0.4329    0.7133 C   0  0  0  0  0  0  0  0  0  0  0  0
   -3.0210   -0.8406    0.0221 N   0  0  0  0  0  0  0  0  0  0  0  0
   -4.2027   -0.1759    0.6015 C   0  0  0  0  0  0  0  0  0  0  0  0
   -4.3073    1.3160    0.2781 C   0  0  0  0  0  0  0  0  0  0  0  0
   -4.2550    1.5578   -1.2259 C   0  0  0  0  0  0  0  0  0  0  0  0
   -3.0437    0.8712   -1.8458 C   0  0  0  0  0  0  0  0  0  0  0  0
   -2.9646   -0.6019   -1.4355 C   0  0  0  0  0  0  0  0  0  0  0  0
    2.5295    2.5370    0.5281 H   0  0  0  0  0  0  0  0  0  0  0  0
    4.8702    3.6853   -0.6017 H   0  0  0  0  0  0  0  0  0  0  0  0
    7.4973    3.1266   -0.1455 H   0  0  0  0  0  0  0  0  0  0  0  0
    7.4475    0.7073    1.1945 H   0  0  0  0  0  0  0  0  0  0  0  0
    2.4961   -3.7606    0.0082 H   0  0  0  0  0  0  0  0  0  0  0  0
    0.1732   -4.7032    0.1521 H   0  0  0  0  0  0  0  0  0  0  0  0
   -2.6571   -2.6442    0.3297 H   0  0  0  0  0  0  0  0  0  0  0  0
   -1.9414   -0.4531    1.7991 H   0  0  0  0  0  0  0  0  0  0  0  0
   -1.5038    0.5969    0.4595 H   0  0  0  0  0  0  0  0  0  0  0  0
   -5.0995   -0.6848    0.2241 H   0  0  0  0  0  0  0  0  0  0  0  0
   -4.2239   -0.3223    1.6884 H   0  0  0  0  0  0  0  0  0  0  0  0
   -5.2469    1.7128    0.6794 H   0  0  0  0  0  0  0  0  0  0  0  0
   -3.4972    1.8675    0.7699 H   0  0  0  0  0  0  0  0  0  0  0  0
   -4.2252    2.6331   -1.4336 H   0  0  0  0  0  0  0  0  0  0  0  0
   -5.1699    1.1674   -1.6886 H   0  0  0  0  0  0  0  0  0  0  0  0
   -3.1035    0.9433   -2.9380 H   0  0  0  0  0  0  0  0  0  0  0  0
   -2.1292    1.3976   -1.5488 H   0  0  0  0  0  0  0  0  0  0  0  0
   -3.8045   -1.1395   -1.8953 H   0  0  0  0  0  0  0  0  0  0  0  0
   -2.0649   -1.0539   -1.8690 H   0  0  0  0  0  0  0  0  0  0  0  0
  1  2  2  0
  2  3  1  0
  3  4  2  3
  4  5  1  0
  5  6  2  0
  6  7  1  0
  7  8  2  0
  8  9  1  0
  3 10  1  0
 10 11  1  0
 11 12  2  0
 12 13  1  0
 13 14  2  0
 14 15  1  0
 15 16  1  0
 15 17  2  0
 17 18  1  0
 18 19  1  0
 19 20  1  0
 20 21  1  0
 21 22  1  0
 22 23  1  0
 23 24  1  0
 12  2  1  0
 24 19  1  0
  9  5  1  0
 17 11  1  0
  4 25  1  0
  6 26  1  0
  7 27  1  0
  8 28  1  0
 13 29  1  0
 14 30  1  0
 16 31  1  0
 18 32  1  0
 18 33  1  0
 20 34  1  0
 20 35  1  0
 21 36  1  0
 21 37  1  0
 22 38  1  0
 22 39  1  0
 23 40  1  0
 23 41  1  0
 24 42  1  0
 24 43  1  0
M  END
$$$$
