
     RDKit          3D

 39 40  0  0  0  0  0  0  0  0999 V2000
   -4.2221   -1.1389    3.2211 N   0  0  0  0  0  0  0  0  0  0  0  0
   -5.2673   -0.4601    2.0881 S   0  0  0  0  0  6  0  0  0  0  0  0
   -6.1969   -1.5085    1.7367 O   0  0  0  0  0  0  0  0  0  0  0  0
   -5.6936    0.8230    2.5925 O   0  0  0  0  0  0  0  0  0  0  0  0
   -4.1762   -0.1936    0.7156 C   0  0  0  0  0  0  0  0  0  0  0  0
   -4.0024   -1.2006   -0.2360 C   0  0  0  0  0  0  0  0  0  0  0  0
   -3.1570   -0.9781   -1.3242 C   0  0  0  0  0  0  0  0  0  0  0  0
   -2.4927    0.2493   -1.4718 C   0  0  0  0  0  0  0  0  0  0  0  0
   -1.5807    0.4863   -2.6556 C   0  0  0  0  0  0  0  0  0  0  0  0
   -0.2443   -0.2504   -2.5432 C   0  0  0  0  0  0  0  0  0  0  0  0
    0.5749    0.2422   -1.4465 N   0  0  0  0  0  0  0  0  0  0  0  0
    1.8885   -0.1813   -1.3502 C   0  0  0  0  0  0  0  0  0  0  0  0
    2.4116   -0.9064   -2.1842 O   0  0  0  0  0  0  0  0  0  0  0  0
    2.4786    0.3417   -0.2198 N   0  0  0  0  0  0  0  0  0  0  0  0
    3.7736    0.0811    0.2699 C   0  0  0  0  0  0  0  0  0  0  0  0
    4.6114   -0.9111   -0.2428 C   0  0  0  0  0  0  0  0  0  0  0  0
    5.8838   -1.1189    0.3021 C   0  0  0  0  0  0  0  0  0  0  0  0
    6.3298   -0.3392    1.3699 C   0  0  0  0  0  0  0  0  0  0  0  0
    7.9089   -0.6508    1.9946 Cl  0  0  0  0  0  0  0  0  0  0  0  0
    5.4953    0.6515    1.8935 C   0  0  0  0  0  0  0  0  0  0  0  0
    5.9685    1.6565    3.2181 Cl  0  0  0  0  0  0  0  0  0  0  0  0
    4.2227    0.8573    1.3453 C   0  0  0  0  0  0  0  0  0  0  0  0
   -2.6871    1.2543   -0.5123 C   0  0  0  0  0  0  0  0  0  0  0  0
   -3.5288    1.0367    0.5797 C   0  0  0  0  0  0  0  0  0  0  0  0
   -3.2438   -1.1070    2.9394 H   0  0  0  0  0  0  0  0  0  0  0  0
   -4.5311   -2.0914    3.4240 H   0  0  0  0  0  0  0  0  0  0  0  0
   -4.5265   -2.1501   -0.1468 H   0  0  0  0  0  0  0  0  0  0  0  0
   -3.0311   -1.7645   -2.0670 H   0  0  0  0  0  0  0  0  0  0  0  0
   -2.1014    0.1603   -3.5648 H   0  0  0  0  0  0  0  0  0  0  0  0
   -1.4013    1.5622   -2.7762 H   0  0  0  0  0  0  0  0  0  0  0  0
   -0.3908   -1.3263   -2.3924 H   0  0  0  0  0  0  0  0  0  0  0  0
    0.3203   -0.1222   -3.4742 H   0  0  0  0  0  0  0  0  0  0  0  0
    0.1047    0.2983   -0.5544 H   0  0  0  0  0  0  0  0  0  0  0  0
    1.9740    1.1072    0.2027 H   0  0  0  0  0  0  0  0  0  0  0  0
    4.3034   -1.5470   -1.0684 H   0  0  0  0  0  0  0  0  0  0  0  0
    6.5194   -1.8960   -0.1168 H   0  0  0  0  0  0  0  0  0  0  0  0
    3.5875    1.6330    1.7656 H   0  0  0  0  0  0  0  0  0  0  0  0
   -2.1959    2.2202   -0.6187 H   0  0  0  0  0  0  0  0  0  0  0  0
   -3.6857    1.8308    1.3077 H   0  0  0  0  0  0  0  0  0  0  0  0
  1  2  1  0
  2  3  2  0
  2  4  2  0
  2  5  1  0
  5  6  2  0
  6  7  1  0
  7  8  2  0
  8  9  1  0
  9 10  1  0
 10 11  1  0
 11 12  1  0
 12 13  2  0
 12 14  1  0
 14 15  1  0
 15 16  2  0
 16 17  1  0
 17 18  2  0
 18 19  1  0
 18 20  1  0
 20 21  1  0
 20 22  2  0
  8 23  1  0
 23 24  2  0
 24  5  1  0
 22 15  1  0
  1 25  1  0
  1 26  1  0
  6 27  1  0
  7 28  1  0
  9 29  1  0
  9 30  1  0
 10 31  1  0
 10 32  1  0
 11 33  1  0
 14 34  1  0
 16 35  1  0
 17 36  1  0
 22 37  1  0
 23 38  1  0
 24 39  1  0
M  END
$$$$
