
     RDKit          3D

 37 40  0  0  0  0  0  0  0  0999 V2000
    2.9634   -0.7269   -2.3674 C   0  0  0  0  0  0  0  0  0  0  0  0
    3.2372   -0.3335   -0.9597 C   0  0  0  0  0  0  0  0  0  0  0  0
    4.5223   -0.1939   -0.5965 N   0  0  0  0  0  0  0  0  0  0  0  0
    4.4597    0.2528    0.6623 N   0  0  0  0  0  0  0  0  0  0  0  0
    5.6805    0.5221    1.3814 C   0  0  0  0  0  0  0  0  0  0  0  0
    3.1893    0.4123    1.1174 C   0  0  0  0  0  0  0  0  0  0  0  0
    2.3349    0.0185    0.1035 C   0  0  0  0  0  0  0  0  0  0  0  0
    0.9162    0.0170    0.1594 N   0  0  0  0  0  0  0  0  0  0  0  0
    0.2745    0.8832    1.0605 C   0  0  0  0  0  0  0  0  0  0  0  0
    0.8220    1.6693    1.8336 O   0  0  0  0  0  0  0  0  0  0  0  0
   -1.2103    0.8900    1.0580 C   0  0  0  0  0  0  0  0  0  0  0  0
   -1.8839    1.7576    1.9300 C   0  0  0  0  0  0  0  0  0  0  0  0
   -3.2708    1.8061    1.9338 C   0  0  0  0  0  0  0  0  0  0  0  0
   -3.9909    0.9998    1.0542 C   0  0  0  0  0  0  0  0  0  0  0  0
   -3.3467    0.1240    0.1514 C   0  0  0  0  0  0  0  0  0  0  0  0
   -4.0562   -0.6918   -0.7727 C   0  0  0  0  0  0  0  0  0  0  0  0
   -5.4634   -0.7467   -0.8002 N   0  0  0  0  0  0  0  0  0  0  0  0
   -3.3534   -1.6236   -1.5434 C   0  0  0  0  0  0  0  0  0  0  0  0
   -1.9644   -1.6828   -1.4966 C   0  0  0  0  0  0  0  0  0  0  0  0
   -1.2515   -0.8302   -0.6461 C   0  0  0  0  0  0  0  0  0  0  0  0
   -1.9240    0.0667    0.1825 C   0  0  0  0  0  0  0  0  0  0  0  0
    0.2256   -0.9338   -0.6009 C   0  0  0  0  0  0  0  0  0  0  0  0
    0.7270   -1.8929   -1.1850 O   0  0  0  0  0  0  0  0  0  0  0  0
    2.0336   -0.2816   -2.7335 H   0  0  0  0  0  0  0  0  0  0  0  0
    3.7632   -0.3788   -3.0311 H   0  0  0  0  0  0  0  0  0  0  0  0
    2.9082   -1.8155   -2.4612 H   0  0  0  0  0  0  0  0  0  0  0  0
    5.4411    0.8778    2.3866 H   0  0  0  0  0  0  0  0  0  0  0  0
    6.2392    1.2882    0.8381 H   0  0  0  0  0  0  0  0  0  0  0  0
    6.2568   -0.4045    1.4416 H   0  0  0  0  0  0  0  0  0  0  0  0
    3.0036    0.7681    2.1209 H   0  0  0  0  0  0  0  0  0  0  0  0
   -1.3282    2.3987    2.6127 H   0  0  0  0  0  0  0  0  0  0  0  0
   -3.7925    2.4706    2.6184 H   0  0  0  0  0  0  0  0  0  0  0  0
   -5.0759    1.0558    1.0953 H   0  0  0  0  0  0  0  0  0  0  0  0
   -5.8412   -1.1543   -1.6508 H   0  0  0  0  0  0  0  0  0  0  0  0
   -5.9166    0.1343   -0.5837 H   0  0  0  0  0  0  0  0  0  0  0  0
   -3.8857   -2.3134   -2.1945 H   0  0  0  0  0  0  0  0  0  0  0  0
   -1.4430   -2.4089   -2.1185 H   0  0  0  0  0  0  0  0  0  0  0  0
  1  2  1  0
  2  3  2  0
  3  4  1  0
  4  5  1  0
  4  6  1  0
  6  7  2  0
  7  8  1  0
  8  9  1  0
  9 10  2  0
  9 11  1  0
 11 12  2  0
 12 13  1  0
 13 14  2  0
 14 15  1  0
 15 16  2  0
 16 17  1  0
 16 18  1  0
 18 19  2  0
 19 20  1  0
 20 21  2  0
 20 22  1  0
 22 23  2  0
  7  2  1  0
 22  8  1  0
 21 11  1  0
 21 15  1  0
  1 24  1  0
  1 25  1  0
  1 26  1  0
  5 27  1  0
  5 28  1  0
  5 29  1  0
  6 30  1  0
 12 31  1  0
 13 32  1  0
 14 33  1  0
 17 34  1  0
 17 35  1  0
 18 36  1  0
 19 37  1  0
M  END
$$$$
