
     RDKit          3D

 40 42  0  0  0  0  0  0  0  0999 V2000
   -0.9176   -2.4895    0.0689 C   0  0  0  0  0  0  0  0  0  0  0  0
   -2.0253   -1.5321   -0.3753 C   0  0  0  0  0  0  0  0  0  0  0  0
   -3.2321   -2.3306   -0.8729 C   0  0  0  0  0  0  0  0  0  0  0  0
   -1.5549   -0.5638   -1.4771 C   0  0  0  0  0  0  0  0  0  0  0  0
   -0.5642    0.3998   -1.0399 N   0  0  0  0  0  0  0  0  0  0  0  0
    0.7827    0.3921   -1.2890 C   0  0  0  0  0  0  0  0  0  0  0  0
    1.6101   -0.8073   -2.2160 S   0  0  0  0  0  0  0  0  0  0  0  0
    3.2426   -0.7730   -1.4128 C   0  0  0  0  0  0  0  0  0  0  0  0
    3.1730   -1.3848   -0.0193 C   0  0  0  0  0  0  0  0  0  0  0  0
    2.7851   -2.5516    0.1044 O   0  0  0  0  0  0  0  0  0  0  0  0
    3.6038   -0.5713    1.1173 C   0  0  0  0  0  0  0  0  0  0  0  0
    3.8994    0.7799    1.2081 C   0  0  0  0  0  0  0  0  0  0  0  0
    4.2841    1.1748    2.5270 C   0  0  0  0  0  0  0  0  0  0  0  0
    4.2659    0.1090    3.3849 C   0  0  0  0  0  0  0  0  0  0  0  0
    4.6570    0.1334    5.0565 Cl  0  0  0  0  0  0  0  0  0  0  0  0
    3.7972   -1.3367    2.6511 S   0  0  0  0  0  0  0  0  0  0  0  0
    1.3527    1.4271   -0.7217 N   0  0  0  0  0  0  0  0  0  0  0  0
    0.3715    2.1456   -0.0899 N   0  0  0  0  0  0  0  0  0  0  0  0
   -0.7835    1.5396   -0.2964 C   0  0  0  0  0  0  0  0  0  0  0  0
   -2.0346    2.0296    0.1976 C   0  0  0  0  0  0  0  0  0  0  0  0
   -2.2519    3.1337    1.0086 C   0  0  0  0  0  0  0  0  0  0  0  0
   -3.6456    3.2284    1.2350 C   0  0  0  0  0  0  0  0  0  0  0  0
   -4.2089    2.1810    0.5503 C   0  0  0  0  0  0  0  0  0  0  0  0
   -3.2505    1.4541   -0.0762 O   0  0  0  0  0  0  0  0  0  0  0  0
   -0.5279   -3.0683   -0.7749 H   0  0  0  0  0  0  0  0  0  0  0  0
   -1.2945   -3.1972    0.8156 H   0  0  0  0  0  0  0  0  0  0  0  0
   -0.0863   -1.9460    0.5278 H   0  0  0  0  0  0  0  0  0  0  0  0
   -2.3419   -0.9639    0.5074 H   0  0  0  0  0  0  0  0  0  0  0  0
   -2.9753   -2.9358   -1.7490 H   0  0  0  0  0  0  0  0  0  0  0  0
   -4.0538   -1.6617   -1.1502 H   0  0  0  0  0  0  0  0  0  0  0  0
   -3.6012   -3.0043   -0.0924 H   0  0  0  0  0  0  0  0  0  0  0  0
   -2.3976    0.0082   -1.8816 H   0  0  0  0  0  0  0  0  0  0  0  0
   -1.1545   -1.1236   -2.3288 H   0  0  0  0  0  0  0  0  0  0  0  0
    3.6521    0.2383   -1.4221 H   0  0  0  0  0  0  0  0  0  0  0  0
    3.9281   -1.3917   -2.0029 H   0  0  0  0  0  0  0  0  0  0  0  0
    3.8256    1.4821    0.3858 H   0  0  0  0  0  0  0  0  0  0  0  0
    4.5456    2.1845    2.8180 H   0  0  0  0  0  0  0  0  0  0  0  0
   -1.4794    3.7906    1.3872 H   0  0  0  0  0  0  0  0  0  0  0  0
   -4.1710    3.9683    1.8225 H   0  0  0  0  0  0  0  0  0  0  0  0
   -5.2239    1.8329    0.4164 H   0  0  0  0  0  0  0  0  0  0  0  0
  1  2  1  0
  2  3  1  0
  2  4  1  0
  4  5  1  0
  5  6  1  0
  6  7  1  0
  7  8  1  0
  8  9  1  0
  9 10  2  0
  9 11  1  0
 11 12  2  0
 12 13  1  0
 13 14  2  0
 14 15  1  0
 14 16  1  0
  6 17  2  0
 17 18  1  0
 18 19  2  0
 19 20  1  0
 20 21  2  0
 21 22  1  0
 22 23  2  0
 23 24  1  0
 19  5  1  0
 24 20  1  0
 16 11  1  0
  1 25  1  0
  1 26  1  0
  1 27  1  0
  2 28  1  0
  3 29  1  0
  3 30  1  0
  3 31  1  0
  4 32  1  0
  4 33  1  0
  8 34  1  0
  8 35  1  0
 12 36  1  0
 13 37  1  0
 21 38  1  0
 22 39  1  0
 23 40  1  0
M  END
$$$$
