
     RDKit          3D

 46 48  0  0  0  0  0  0  0  0999 V2000
   -7.1004    0.1343   -1.9126 C   0  0  0  0  0  0  0  0  0  0  0  0
   -5.6252    0.3543   -2.0781 C   0  0  0  0  0  0  0  0  0  0  0  0
   -5.1330    1.0541   -3.1842 C   0  0  0  0  0  0  0  0  0  0  0  0
   -3.7653    1.2817   -3.3157 C   0  0  0  0  0  0  0  0  0  0  0  0
   -2.8837    0.8200   -2.3369 C   0  0  0  0  0  0  0  0  0  0  0  0
   -3.3570    0.1298   -1.2137 C   0  0  0  0  0  0  0  0  0  0  0  0
   -2.3915   -0.2918   -0.2743 N   0  0  0  0  0  0  0  0  0  0  0  0
   -2.5867   -0.9830    0.8995 C   0  0  0  0  0  0  0  0  0  0  0  0
   -3.6809   -1.3521    1.3188 O   0  0  0  0  0  0  0  0  0  0  0  0
   -1.4040   -1.2895    1.6821 C   0  0  0  0  0  0  0  0  0  0  0  0
   -1.5323   -1.9881    2.8689 N   0  0  0  0  0  0  0  0  0  0  0  0
   -0.3023   -2.1581    3.4214 C   0  0  0  0  0  0  0  0  0  0  0  0
    0.6293   -1.6170    2.6768 N   0  0  0  0  0  0  0  0  0  0  0  0
   -0.0356   -1.0624    1.5813 C   0  0  0  0  0  0  0  0  0  0  0  0
    0.7185   -0.3665    0.5361 C   0  0  0  0  0  0  0  0  0  0  0  0
    0.1979    0.1151   -0.4653 O   0  0  0  0  0  0  0  0  0  0  0  0
    2.0632   -0.3180    0.7986 N   0  0  0  0  0  0  0  0  0  0  0  0
    3.0341    0.2615   -0.1041 C   0  0  0  0  0  0  0  0  0  0  0  0
    3.3208   -0.6700   -1.2855 C   0  0  0  0  0  0  0  0  0  0  0  0
    4.2940    0.6272    0.6586 C   0  0  0  0  0  0  0  0  0  0  0  0
    5.1516   -0.3548    1.1817 C   0  0  0  0  0  0  0  0  0  0  0  0
    6.2986    0.0051    1.8921 C   0  0  0  0  0  0  0  0  0  0  0  0
    6.6012    1.3495    2.0950 C   0  0  0  0  0  0  0  0  0  0  0  0
    5.7556    2.3352    1.5918 C   0  0  0  0  0  0  0  0  0  0  0  0
    4.6081    1.9773    0.8812 C   0  0  0  0  0  0  0  0  0  0  0  0
   -4.7306   -0.0934   -1.0909 C   0  0  0  0  0  0  0  0  0  0  0  0
   -7.2982   -0.8172   -1.4079 H   0  0  0  0  0  0  0  0  0  0  0  0
   -7.5357    0.9468   -1.3228 H   0  0  0  0  0  0  0  0  0  0  0  0
   -7.6026    0.0958   -2.8850 H   0  0  0  0  0  0  0  0  0  0  0  0
   -5.8120    1.4243   -3.9486 H   0  0  0  0  0  0  0  0  0  0  0  0
   -3.3838    1.8210   -4.1785 H   0  0  0  0  0  0  0  0  0  0  0  0
   -1.8198    1.0103   -2.4614 H   0  0  0  0  0  0  0  0  0  0  0  0
   -1.4324   -0.0468   -0.5137 H   0  0  0  0  0  0  0  0  0  0  0  0
   -2.4166   -2.3098    3.2428 H   0  0  0  0  0  0  0  0  0  0  0  0
   -0.1490   -2.6788    4.3579 H   0  0  0  0  0  0  0  0  0  0  0  0
    2.3664   -0.7722    1.6566 H   0  0  0  0  0  0  0  0  0  0  0  0
    2.5872    1.1749   -0.5179 H   0  0  0  0  0  0  0  0  0  0  0  0
    2.4157   -0.8348   -1.8805 H   0  0  0  0  0  0  0  0  0  0  0  0
    4.0834   -0.2435   -1.9463 H   0  0  0  0  0  0  0  0  0  0  0  0
    3.6697   -1.6549   -0.9560 H   0  0  0  0  0  0  0  0  0  0  0  0
    4.9307   -1.4111    1.0449 H   0  0  0  0  0  0  0  0  0  0  0  0
    6.9545   -0.7649    2.2902 H   0  0  0  0  0  0  0  0  0  0  0  0
    7.4932    1.6289    2.6493 H   0  0  0  0  0  0  0  0  0  0  0  0
    5.9872    3.3846    1.7550 H   0  0  0  0  0  0  0  0  0  0  0  0
    3.9572    2.7632    0.5035 H   0  0  0  0  0  0  0  0  0  0  0  0
   -5.1394   -0.6164   -0.2324 H   0  0  0  0  0  0  0  0  0  0  0  0
  1  2  1  0
  2  3  2  0
  3  4  1  0
  4  5  2  0
  5  6  1  0
  6  7  1  0
  7  8  1  0
  8  9  2  0
  8 10  1  0
 10 11  1  0
 11 12  1  0
 12 13  2  0
 13 14  1  0
 14 15  1  0
 15 16  2  0
 15 17  1  0
 17 18  1  0
 18 19  1  0
 18 20  1  0
 20 21  2  0
 21 22  1  0
 22 23  2  0
 23 24  1  0
 24 25  2  0
  6 26  2  0
 26  2  1  0
 14 10  2  0
 25 20  1  0
  1 27  1  0
  1 28  1  0
  1 29  1  0
  3 30  1  0
  4 31  1  0
  5 32  1  0
  7 33  1  0
 11 34  1  0
 12 35  1  0
 17 36  1  0
 18 37  1  0
 19 38  1  0
 19 39  1  0
 19 40  1  0
 21 41  1  0
 22 42  1  0
 23 43  1  0
 24 44  1  0
 25 45  1  0
 26 46  1  0
M  END
$$$$
