
     RDKit          3D

 33 33  0  0  0  0  0  0  0  0999 V2000
    4.2664    2.3029    1.3005 C   0  0  0  0  0  0  0  0  0  0  0  0
    4.9050    1.1324    1.4402 C   0  0  0  0  0  0  0  0  0  0  0  0
    4.9624   -0.0129    0.4740 C   0  0  0  0  0  0  0  0  0  0  0  0
    4.1529    0.2349   -0.6994 N   0  0  0  0  0  0  0  0  0  0  0  0
    2.8422   -0.0728   -0.9071 C   0  0  0  0  0  0  0  0  0  0  0  0
    2.1935    0.2073   -2.4231 S   0  0  0  0  0  0  0  0  0  0  0  0
    2.1672   -0.6245    0.1530 N   0  0  0  0  0  0  0  0  0  0  0  0
    0.7717   -0.8132    0.0840 N   0  0  0  0  0  0  0  0  0  0  0  0
    0.0304   -0.4679    1.1974 C   0  0  0  0  0  0  0  0  0  0  0  0
    0.5404   -0.2257    2.2907 O   0  0  0  0  0  0  0  0  0  0  0  0
   -1.4787   -0.4486    0.9757 C   0  0  0  0  0  0  0  0  0  0  0  0
   -1.7902   -0.4902   -0.4120 O   0  0  0  0  0  0  0  0  0  0  0  0
   -3.1107   -0.4671   -0.7755 C   0  0  0  0  0  0  0  0  0  0  0  0
   -4.1815   -0.4148    0.1227 C   0  0  0  0  0  0  0  0  0  0  0  0
   -5.4988   -0.3939   -0.3492 C   0  0  0  0  0  0  0  0  0  0  0  0
   -5.7507   -0.4253   -1.7184 C   0  0  0  0  0  0  0  0  0  0  0  0
   -7.3736   -0.4016   -2.2878 Cl  0  0  0  0  0  0  0  0  0  0  0  0
   -4.6987   -0.4778   -2.6273 C   0  0  0  0  0  0  0  0  0  0  0  0
   -3.3850   -0.4998   -2.1539 C   0  0  0  0  0  0  0  0  0  0  0  0
   -2.1063   -0.5752   -3.3171 Cl  0  0  0  0  0  0  0  0  0  0  0  0
    3.6890    2.5490    0.4150 H   0  0  0  0  0  0  0  0  0  0  0  0
    4.3079    3.0530    2.0857 H   0  0  0  0  0  0  0  0  0  0  0  0
    5.4625    0.9735    2.3624 H   0  0  0  0  0  0  0  0  0  0  0  0
    5.9933   -0.1541    0.1363 H   0  0  0  0  0  0  0  0  0  0  0  0
    4.6337   -0.9346    0.9627 H   0  0  0  0  0  0  0  0  0  0  0  0
    4.6154    0.6655   -1.4899 H   0  0  0  0  0  0  0  0  0  0  0  0
    2.4960   -0.3962    1.0909 H   0  0  0  0  0  0  0  0  0  0  0  0
    0.3446   -0.7280   -0.8414 H   0  0  0  0  0  0  0  0  0  0  0  0
   -1.8550    0.4810    1.4159 H   0  0  0  0  0  0  0  0  0  0  0  0
   -1.8917   -1.3243    1.4878 H   0  0  0  0  0  0  0  0  0  0  0  0
   -4.0322   -0.3921    1.1975 H   0  0  0  0  0  0  0  0  0  0  0  0
   -6.3240   -0.3569    0.3582 H   0  0  0  0  0  0  0  0  0  0  0  0
   -4.8973   -0.5020   -3.6949 H   0  0  0  0  0  0  0  0  0  0  0  0
  1  2  2  0
  2  3  1  0
  3  4  1  0
  4  5  1  0
  5  6  2  0
  5  7  1  0
  7  8  1  0
  8  9  1  0
  9 10  2  0
  9 11  1  0
 11 12  1  0
 12 13  1  0
 13 14  2  0
 14 15  1  0
 15 16  2  0
 16 17  1  0
 16 18  1  0
 18 19  2  0
 19 20  1  0
 19 13  1  0
  1 21  1  0
  1 22  1  0
  2 23  1  0
  3 24  1  0
  3 25  1  0
  4 26  1  0
  7 27  1  0
  8 28  1  0
 11 29  1  0
 11 30  1  0
 14 31  1  0
 15 32  1  0
 18 33  1  0
M  END
$$$$
