
     RDKit          3D

 45 47  0  0  0  0  0  0  0  0999 V2000
    2.3033   -0.5422    1.1404 O   0  0  0  0  0  0  0  0  0  0  0  0
    1.4244    0.1551    0.6272 C   0  0  0  0  0  0  0  0  0  0  0  0
    1.3678    1.6474    0.9249 C   0  0  0  0  0  0  0  0  0  0  0  0
    2.2258    2.6166   -0.3614 S   0  0  0  0  0  0  0  0  0  0  0  0
    3.9023    2.0482   -0.1471 C   0  0  0  0  0  0  0  0  0  0  0  0
    4.5882    2.2300    1.0584 C   0  0  0  0  0  0  0  0  0  0  0  0
    5.9073    1.7879    1.1935 C   0  0  0  0  0  0  0  0  0  0  0  0
    6.5438    1.1722    0.1179 C   0  0  0  0  0  0  0  0  0  0  0  0
    8.3279    0.5750    0.2995 Br  0  0  0  0  0  0  0  0  0  0  0  0
    5.8761    0.9994   -1.0924 C   0  0  0  0  0  0  0  0  0  0  0  0
    4.5573    1.4422   -1.2248 C   0  0  0  0  0  0  0  0  0  0  0  0
    0.4595   -0.3921   -0.2083 N   0  0  0  0  0  0  0  0  0  0  0  0
    0.4824   -1.8361   -0.4703 C   0  0  0  0  0  0  0  0  0  0  0  0
   -0.9327   -2.4212   -0.5513 C   0  0  0  0  0  0  0  0  0  0  0  0
   -1.7491   -1.7503   -1.6012 N   0  0  0  0  0  0  0  0  0  0  0  0
   -3.4113   -2.0715   -1.6136 S   0  0  0  0  0  6  0  0  0  0  0  0
   -3.9629   -1.5195   -2.8329 O   0  0  0  0  0  0  0  0  0  0  0  0
   -3.6001   -3.4637   -1.2655 O   0  0  0  0  0  0  0  0  0  0  0  0
   -4.0278   -1.0903   -0.2597 C   0  0  0  0  0  0  0  0  0  0  0  0
   -4.1159   -1.6493    1.0189 C   0  0  0  0  0  0  0  0  0  0  0  0
   -4.6142   -0.8821    2.0719 C   0  0  0  0  0  0  0  0  0  0  0  0
   -5.0389    0.4277    1.8426 C   0  0  0  0  0  0  0  0  0  0  0  0
   -4.9784    0.9723    0.5588 C   0  0  0  0  0  0  0  0  0  0  0  0
   -4.4805    0.2117   -0.4990 C   0  0  0  0  0  0  0  0  0  0  0  0
   -1.2878   -0.3960   -2.0054 C   0  0  0  0  0  0  0  0  0  0  0  0
   -0.6291    0.3605   -0.8431 C   0  0  0  0  0  0  0  0  0  0  0  0
    1.8162    1.8297    1.9070 H   0  0  0  0  0  0  0  0  0  0  0  0
    0.3297    1.9833    0.9980 H   0  0  0  0  0  0  0  0  0  0  0  0
    4.1095    2.7189    1.9025 H   0  0  0  0  0  0  0  0  0  0  0  0
    6.4257    1.9290    2.1381 H   0  0  0  0  0  0  0  0  0  0  0  0
    6.3688    0.5228   -1.9355 H   0  0  0  0  0  0  0  0  0  0  0  0
    4.0459    1.3031   -2.1743 H   0  0  0  0  0  0  0  0  0  0  0  0
    1.0518   -2.3617    0.3030 H   0  0  0  0  0  0  0  0  0  0  0  0
    1.0097   -1.9780   -1.4214 H   0  0  0  0  0  0  0  0  0  0  0  0
   -1.4125   -2.3067    0.4253 H   0  0  0  0  0  0  0  0  0  0  0  0
   -0.8665   -3.4890   -0.7847 H   0  0  0  0  0  0  0  0  0  0  0  0
   -3.8079   -2.6766    1.2007 H   0  0  0  0  0  0  0  0  0  0  0  0
   -4.6844   -1.3086    3.0700 H   0  0  0  0  0  0  0  0  0  0  0  0
   -5.4359    1.0197    2.6644 H   0  0  0  0  0  0  0  0  0  0  0  0
   -5.3340    1.9848    0.3819 H   0  0  0  0  0  0  0  0  0  0  0  0
   -4.4607    0.6338   -1.5014 H   0  0  0  0  0  0  0  0  0  0  0  0
   -2.1057    0.2051   -2.4131 H   0  0  0  0  0  0  0  0  0  0  0  0
   -0.5653   -0.5269   -2.8206 H   0  0  0  0  0  0  0  0  0  0  0  0
   -0.2553    1.3210   -1.2046 H   0  0  0  0  0  0  0  0  0  0  0  0
   -1.3665    0.5642   -0.0585 H   0  0  0  0  0  0  0  0  0  0  0  0
  1  2  2  0
  2  3  1  0
  3  4  1  0
  4  5  1  0
  5  6  2  0
  6  7  1  0
  7  8  2  0
  8  9  1  0
  8 10  1  0
 10 11  2  0
  2 12  1  0
 12 13  1  0
 13 14  1  0
 14 15  1  0
 15 16  1  0
 16 17  2  0
 16 18  2  0
 16 19  1  0
 19 20  2  0
 20 21  1  0
 21 22  2  0
 22 23  1  0
 23 24  2  0
 15 25  1  0
 25 26  1  0
 11  5  1  0
 26 12  1  0
 24 19  1  0
  3 27  1  0
  3 28  1  0
  6 29  1  0
  7 30  1  0
 10 31  1  0
 11 32  1  0
 13 33  1  0
 13 34  1  0
 14 35  1  0
 14 36  1  0
 20 37  1  0
 21 38  1  0
 22 39  1  0
 23 40  1  0
 24 41  1  0
 25 42  1  0
 25 43  1  0
 26 44  1  0
 26 45  1  0
M  END
$$$$
