
     RDKit          3D

 38 39  0  0  0  0  0  0  0  0999 V2000
   -4.0589    1.1022   -2.0393 O   0  0  0  0  0  0  0  0  0  0  0  0
   -3.2108    0.2265   -1.8986 C   0  0  0  0  0  0  0  0  0  0  0  0
   -1.9653    0.2064   -2.7943 C   0  0  0  0  0  0  0  0  0  0  0  0
   -0.7721    0.6801   -2.1694 O   0  0  0  0  0  0  0  0  0  0  0  0
   -0.1690   -0.1964   -1.3342 C   0  0  0  0  0  0  0  0  0  0  0  0
   -0.5760   -1.3129   -1.0496 O   0  0  0  0  0  0  0  0  0  0  0  0
    1.0592    0.4301   -0.8113 C   0  0  0  0  0  0  0  0  0  0  0  0
    1.8398   -0.2391    0.0500 C   0  0  0  0  0  0  0  0  0  0  0  0
    3.0670    0.3224    0.6270 C   0  0  0  0  0  0  0  0  0  0  0  0
    3.3416    0.1040    1.9822 C   0  0  0  0  0  0  0  0  0  0  0  0
    4.5065    0.6102    2.5623 C   0  0  0  0  0  0  0  0  0  0  0  0
    5.4176    1.3279    1.7883 C   0  0  0  0  0  0  0  0  0  0  0  0
    5.1788    1.5358    0.4224 C   0  0  0  0  0  0  0  0  0  0  0  0
    6.1543    2.3152   -0.4244 C   0  0  0  0  0  0  0  0  0  0  0  0
    6.2939    1.8003   -1.6782 F   0  0  0  0  0  0  0  0  0  0  0  0
    5.7717    3.6105   -0.5939 F   0  0  0  0  0  0  0  0  0  0  0  0
    7.4106    2.3603    0.1003 F   0  0  0  0  0  0  0  0  0  0  0  0
    3.9963    1.0308   -0.1475 C   0  0  0  0  0  0  0  0  0  0  0  0
   -3.2278   -0.8174   -0.9935 N   0  0  0  0  0  0  0  0  0  0  0  0
   -4.2518   -1.1010   -0.0856 C   0  0  0  0  0  0  0  0  0  0  0  0
   -4.0406   -2.1535    0.8043 C   0  0  0  0  0  0  0  0  0  0  0  0
   -5.0381   -2.4816    1.7250 C   0  0  0  0  0  0  0  0  0  0  0  0
   -6.2177   -1.7514    1.7300 C   0  0  0  0  0  0  0  0  0  0  0  0
   -7.4708   -2.1175    2.8421 Cl  0  0  0  0  0  0  0  0  0  0  0  0
   -6.3506   -0.7250    0.8119 C   0  0  0  0  0  0  0  0  0  0  0  0
   -5.3945   -0.3928   -0.0897 N   0  0  0  0  0  0  0  0  0  0  0  0
   -2.1619    0.8595   -3.6523 H   0  0  0  0  0  0  0  0  0  0  0  0
   -1.8181   -0.7999   -3.2068 H   0  0  0  0  0  0  0  0  0  0  0  0
    1.2780    1.4387   -1.1407 H   0  0  0  0  0  0  0  0  0  0  0  0
    1.5712   -1.2403    0.3821 H   0  0  0  0  0  0  0  0  0  0  0  0
    2.6430   -0.4522    2.6049 H   0  0  0  0  0  0  0  0  0  0  0  0
    4.7023    0.4450    3.6198 H   0  0  0  0  0  0  0  0  0  0  0  0
    6.3207    1.7211    2.2545 H   0  0  0  0  0  0  0  0  0  0  0  0
    3.8162    1.1865   -1.2110 H   0  0  0  0  0  0  0  0  0  0  0  0
   -2.3909   -1.3939   -0.9367 H   0  0  0  0  0  0  0  0  0  0  0  0
   -3.1159   -2.7209    0.7930 H   0  0  0  0  0  0  0  0  0  0  0  0
   -4.8873   -3.2990    2.4237 H   0  0  0  0  0  0  0  0  0  0  0  0
   -7.2506   -0.1185    0.7642 H   0  0  0  0  0  0  0  0  0  0  0  0
  1  2  2  0
  2  3  1  0
  3  4  1  0
  4  5  1  0
  5  6  2  0
  5  7  1  0
  7  8  2  3
  8  9  1  0
  9 10  2  0
 10 11  1  0
 11 12  2  0
 12 13  1  0
 13 14  1  0
 14 15  1  0
 14 16  1  0
 14 17  1  0
 13 18  2  0
  2 19  1  0
 19 20  1  0
 20 21  2  0
 21 22  1  0
 22 23  2  0
 23 24  1  0
 23 25  1  0
 25 26  2  0
 18  9  1  0
 26 20  1  0
  3 27  1  0
  3 28  1  0
  7 29  1  0
  8 30  1  0
 10 31  1  0
 11 32  1  0
 12 33  1  0
 18 34  1  0
 19 35  1  0
 21 36  1  0
 22 37  1  0
 25 38  1  0
M  END
$$$$
