
     RDKit          3D

 52 55  0  0  0  0  0  0  0  0999 V2000
    8.0437   -1.1670   -0.2519 C   0  0  0  0  0  0  0  0  0  0  0  0
    6.9411   -2.0054   -0.5737 O   0  0  0  0  0  0  0  0  0  0  0  0
    5.6988   -1.5456   -0.2361 C   0  0  0  0  0  0  0  0  0  0  0  0
    5.4092   -0.3187    0.3583 C   0  0  0  0  0  0  0  0  0  0  0  0
    4.0837    0.0310    0.6543 C   0  0  0  0  0  0  0  0  0  0  0  0
    3.0352   -0.8405    0.3597 C   0  0  0  0  0  0  0  0  0  0  0  0
    1.6845   -0.5622    0.6271 N   0  0  0  0  0  0  0  0  0  0  0  0
    1.1400    0.5632    1.2176 C   0  0  0  0  0  0  0  0  0  0  0  0
    1.7470    1.5397    1.6488 O   0  0  0  0  0  0  0  0  0  0  0  0
   -0.3887    0.4700    1.3390 C   0  0  0  0  0  0  0  0  0  0  0  0
   -0.8902   -0.7967    0.8641 O   0  0  0  0  0  0  0  0  0  0  0  0
   -2.2979   -0.8281    1.0256 C   0  0  0  0  0  0  0  0  0  0  0  0
   -2.9259   -2.0453    0.6413 O   0  0  0  0  0  0  0  0  0  0  0  0
   -4.2734   -1.6311    0.3142 C   0  0  0  0  0  0  0  0  0  0  0  0
   -4.6669   -2.2560   -1.0192 C   0  0  0  0  0  0  0  0  0  0  0  0
   -5.2192   -2.0646    1.4279 C   0  0  0  0  0  0  0  0  0  0  0  0
   -4.3215   -0.1877    0.2070 O   0  0  0  0  0  0  0  0  0  0  0  0
   -2.9424    0.1606    0.0920 C   0  0  0  0  0  0  0  0  0  0  0  0
   -2.5532    1.5740    0.5065 C   0  0  0  0  0  0  0  0  0  0  0  0
   -2.8651    2.5083   -0.5419 O   0  0  0  0  0  0  0  0  0  0  0  0
   -1.6575    2.6520   -1.3080 C   0  0  0  0  0  0  0  0  0  0  0  0
   -1.8991    2.2157   -2.7476 C   0  0  0  0  0  0  0  0  0  0  0  0
   -1.2204    4.1151   -1.2628 C   0  0  0  0  0  0  0  0  0  0  0  0
   -0.6414    1.8200   -0.7252 O   0  0  0  0  0  0  0  0  0  0  0  0
   -1.0405    1.6823    0.6493 C   0  0  0  0  0  0  0  0  0  0  0  0
    3.3291   -2.0697   -0.2385 C   0  0  0  0  0  0  0  0  0  0  0  0
    4.6508   -2.4174   -0.5333 C   0  0  0  0  0  0  0  0  0  0  0  0
    8.1111   -0.9994    0.8282 H   0  0  0  0  0  0  0  0  0  0  0  0
    8.9570   -1.6813   -0.5661 H   0  0  0  0  0  0  0  0  0  0  0  0
    7.9908   -0.2190   -0.7974 H   0  0  0  0  0  0  0  0  0  0  0  0
    6.1865    0.3960    0.6071 H   0  0  0  0  0  0  0  0  0  0  0  0
    3.9061    0.9984    1.1135 H   0  0  0  0  0  0  0  0  0  0  0  0
    0.9988   -1.2642    0.3548 H   0  0  0  0  0  0  0  0  0  0  0  0
   -0.6011    0.5103    2.4165 H   0  0  0  0  0  0  0  0  0  0  0  0
   -2.5588   -0.6529    2.0789 H   0  0  0  0  0  0  0  0  0  0  0  0
   -3.9760   -1.9466   -1.8114 H   0  0  0  0  0  0  0  0  0  0  0  0
   -4.6308   -3.3494   -0.9708 H   0  0  0  0  0  0  0  0  0  0  0  0
   -5.6702   -1.9413   -1.3241 H   0  0  0  0  0  0  0  0  0  0  0  0
   -4.9297   -1.6058    2.3801 H   0  0  0  0  0  0  0  0  0  0  0  0
   -5.1936   -3.1500    1.5705 H   0  0  0  0  0  0  0  0  0  0  0  0
   -6.2476   -1.7522    1.2194 H   0  0  0  0  0  0  0  0  0  0  0  0
   -2.6478   -0.0291   -0.9473 H   0  0  0  0  0  0  0  0  0  0  0  0
   -3.0860    1.8733    1.4152 H   0  0  0  0  0  0  0  0  0  0  0  0
   -2.6999    2.8017   -3.2107 H   0  0  0  0  0  0  0  0  0  0  0  0
   -2.2014    1.1648   -2.7961 H   0  0  0  0  0  0  0  0  0  0  0  0
   -0.9887    2.3129   -3.3487 H   0  0  0  0  0  0  0  0  0  0  0  0
   -1.9782    4.7676   -1.7092 H   0  0  0  0  0  0  0  0  0  0  0  0
   -0.2681    4.2601   -1.7838 H   0  0  0  0  0  0  0  0  0  0  0  0
   -1.0792    4.4540   -0.2305 H   0  0  0  0  0  0  0  0  0  0  0  0
   -0.7559    2.6075    1.1656 H   0  0  0  0  0  0  0  0  0  0  0  0
    2.5387   -2.7745   -0.4829 H   0  0  0  0  0  0  0  0  0  0  0  0
    4.8640   -3.3768   -0.9982 H   0  0  0  0  0  0  0  0  0  0  0  0
  1  2  1  0
  2  3  1  0
  3  4  2  0
  4  5  1  0
  5  6  2  0
  6  7  1  0
  7  8  1  0
  8  9  2  0
  8 10  1  0
 10 11  1  0
 11 12  1  0
 12 13  1  0
 13 14  1  0
 14 15  1  0
 14 16  1  0
 14 17  1  0
 17 18  1  0
 18 19  1  0
 19 20  1  0
 20 21  1  0
 21 22  1  0
 21 23  1  0
 21 24  1  0
 24 25  1  0
  6 26  1  0
 26 27  2  0
 27  3  1  0
 25 10  1  0
 18 12  1  0
 25 19  1  0
  1 28  1  0
  1 29  1  0
  1 30  1  0
  4 31  1  0
  5 32  1  0
  7 33  1  0
 10 34  1  0
 12 35  1  0
 15 36  1  0
 15 37  1  0
 15 38  1  0
 16 39  1  0
 16 40  1  0
 16 41  1  0
 18 42  1  0
 19 43  1  0
 22 44  1  0
 22 45  1  0
 22 46  1  0
 23 47  1  0
 23 48  1  0
 23 49  1  0
 25 50  1  0
 26 51  1  0
 27 52  1  0
M  END
$$$$
