
     RDKit          3D

 43 45  0  0  0  0  0  0  0  0999 V2000
   -4.8274    2.5388    0.4372 C   0  0  0  0  0  0  0  0  0  0  0  0
   -4.1772    1.7961   -0.7180 C   0  0  0  0  0  0  0  0  0  0  0  0
   -3.3389    0.6186   -0.2209 C   0  0  0  0  0  0  0  0  0  0  0  0
   -2.6708   -0.1222   -1.3793 C   0  0  0  0  0  0  0  0  0  0  0  0
   -1.7777   -1.1751   -0.8962 N   0  0  0  0  0  0  0  0  0  0  0  0
   -2.1219   -2.5110   -0.6783 C   0  0  0  0  0  0  0  0  0  0  0  0
   -3.6103   -3.2327   -0.6979 S   0  0  0  0  0  0  0  0  0  0  0  0
   -0.9574   -3.2125   -0.4059 N   0  0  0  0  0  0  0  0  0  0  0  0
    0.1611   -2.3220   -0.2449 C   0  0  0  0  0  0  0  0  0  0  0  0
   -0.3177   -1.0203   -0.8976 C   0  0  0  0  0  0  0  0  0  0  0  0
    0.1911    0.2432   -0.1877 C   0  0  0  0  0  0  0  0  0  0  0  0
    1.6989    0.4001   -0.2713 C   0  0  0  0  0  0  0  0  0  0  0  0
    2.2293    0.7787   -1.5190 C   0  0  0  0  0  0  0  0  0  0  0  0
    3.5981    0.9296   -1.7004 C   0  0  0  0  0  0  0  0  0  0  0  0
    4.4630    0.7139   -0.6333 C   0  0  0  0  0  0  0  0  0  0  0  0
    3.9740    0.3339    0.6246 C   0  0  0  0  0  0  0  0  0  0  0  0
    4.8747    0.1113    1.6804 C   0  0  0  0  0  0  0  0  0  0  0  0
    4.4263   -0.2868    2.9369 C   0  0  0  0  0  0  0  0  0  0  0  0
    3.0674   -0.4560    3.1574 C   0  0  0  0  0  0  0  0  0  0  0  0
    2.1583   -0.2323    2.1193 C   0  0  0  0  0  0  0  0  0  0  0  0
    2.5787    0.1654    0.8281 C   0  0  0  0  0  0  0  0  0  0  0  0
   -5.4430    3.3621    0.0622 H   0  0  0  0  0  0  0  0  0  0  0  0
   -5.4681    1.8743    1.0241 H   0  0  0  0  0  0  0  0  0  0  0  0
   -4.0704    2.9614    1.1054 H   0  0  0  0  0  0  0  0  0  0  0  0
   -3.5451    2.4931   -1.2807 H   0  0  0  0  0  0  0  0  0  0  0  0
   -4.9553    1.4405   -1.4057 H   0  0  0  0  0  0  0  0  0  0  0  0
   -2.5779    0.9809    0.4811 H   0  0  0  0  0  0  0  0  0  0  0  0
   -3.9742   -0.0739    0.3452 H   0  0  0  0  0  0  0  0  0  0  0  0
   -2.0884    0.5665   -2.0016 H   0  0  0  0  0  0  0  0  0  0  0  0
   -3.4351   -0.5702   -2.0229 H   0  0  0  0  0  0  0  0  0  0  0  0
   -0.9955   -4.1680   -0.0747 H   0  0  0  0  0  0  0  0  0  0  0  0
    0.3325   -2.2204    0.8297 H   0  0  0  0  0  0  0  0  0  0  0  0
    1.0495   -2.7423   -0.7227 H   0  0  0  0  0  0  0  0  0  0  0  0
   -0.0177   -1.0181   -1.9542 H   0  0  0  0  0  0  0  0  0  0  0  0
   -0.1708    0.2739    0.8443 H   0  0  0  0  0  0  0  0  0  0  0  0
   -0.2540    1.1341   -0.6498 H   0  0  0  0  0  0  0  0  0  0  0  0
    1.5691    0.9584   -2.3656 H   0  0  0  0  0  0  0  0  0  0  0  0
    3.9939    1.2081   -2.6754 H   0  0  0  0  0  0  0  0  0  0  0  0
    5.5314    0.8378   -0.7957 H   0  0  0  0  0  0  0  0  0  0  0  0
    5.9450    0.2394    1.5264 H   0  0  0  0  0  0  0  0  0  0  0  0
    5.1367   -0.4537    3.7419 H   0  0  0  0  0  0  0  0  0  0  0  0
    2.7082   -0.7624    4.1364 H   0  0  0  0  0  0  0  0  0  0  0  0
    1.1074   -0.3799    2.3498 H   0  0  0  0  0  0  0  0  0  0  0  0
  1  2  1  0
  2  3  1  0
  3  4  1  0
  4  5  1  0
  5  6  1  0
  6  7  2  0
  6  8  1  0
  8  9  1  0
  9 10  1  0
 10 11  1  0
 11 12  1  0
 12 13  2  0
 13 14  1  0
 14 15  2  0
 15 16  1  0
 16 17  2  0
 17 18  1  0
 18 19  2  0
 19 20  1  0
 20 21  2  0
 10  5  1  0
 21 12  1  0
 21 16  1  0
  1 22  1  0
  1 23  1  0
  1 24  1  0
  2 25  1  0
  2 26  1  0
  3 27  1  0
  3 28  1  0
  4 29  1  0
  4 30  1  0
  8 31  1  0
  9 32  1  0
  9 33  1  0
 10 34  1  0
 11 35  1  0
 11 36  1  0
 13 37  1  0
 14 38  1  0
 15 39  1  0
 17 40  1  0
 18 41  1  0
 19 42  1  0
 20 43  1  0
M  END
$$$$
