
     RDKit          3D

 46 48  0  0  0  0  0  0  0  0999 V2000
   -3.5927    3.7431   -1.1586 C   0  0  0  0  0  0  0  0  0  0  0  0
   -2.6977    4.5044   -0.1982 C   0  0  0  0  0  0  0  0  0  0  0  0
   -1.4708    3.7889    0.0018 O   0  0  0  0  0  0  0  0  0  0  0  0
   -1.5041    2.8496    0.9709 C   0  0  0  0  0  0  0  0  0  0  0  0
   -2.4292    2.5560    1.7028 O   0  0  0  0  0  0  0  0  0  0  0  0
   -0.1589    2.1759    1.0312 C   0  0  0  0  0  0  0  0  0  0  0  0
    0.5351    2.0592    2.1270 N   0  0  0  0  0  0  0  0  0  0  0  0
    1.6713    1.3677    1.7810 N   0  0  0  0  0  0  0  0  0  0  0  0
    1.8601    1.3648    0.3268 C   0  0  0  0  0  0  0  0  0  0  0  0
    2.5863    0.1936   -0.3355 C   0  0  0  0  0  0  0  0  0  0  0  0
    2.8165    0.1835   -1.5458 O   0  0  0  0  0  0  0  0  0  0  0  0
    2.9974   -0.9779    0.4660 C   0  0  0  0  0  0  0  0  0  0  0  0
    3.8542   -0.8436    1.5614 C   0  0  0  0  0  0  0  0  0  0  0  0
    4.2334   -1.9775    2.2820 C   0  0  0  0  0  0  0  0  0  0  0  0
    3.7706   -3.2377    1.8993 C   0  0  0  0  0  0  0  0  0  0  0  0
    2.9365   -3.3719    0.7890 C   0  0  0  0  0  0  0  0  0  0  0  0
    2.5550   -2.2428    0.0649 C   0  0  0  0  0  0  0  0  0  0  0  0
    0.4343    1.5771   -0.2144 C   0  0  0  0  0  0  0  0  0  0  0  0
   -0.3259    0.3407   -0.6575 C   0  0  0  0  0  0  0  0  0  0  0  0
   -0.7643   -0.6344    0.2522 C   0  0  0  0  0  0  0  0  0  0  0  0
   -1.4538   -1.7706   -0.1868 C   0  0  0  0  0  0  0  0  0  0  0  0
   -1.7102   -1.9556   -1.5435 C   0  0  0  0  0  0  0  0  0  0  0  0
   -2.3665   -3.0169   -2.1023 O   0  0  0  0  0  0  0  0  0  0  0  0
   -2.8646   -4.0052   -1.2095 C   0  0  0  0  0  0  0  0  0  0  0  0
   -1.2677   -0.9957   -2.4546 C   0  0  0  0  0  0  0  0  0  0  0  0
   -0.5821    0.1415   -2.0200 C   0  0  0  0  0  0  0  0  0  0  0  0
   -3.8717    2.7684   -0.7456 H   0  0  0  0  0  0  0  0  0  0  0  0
   -3.0701    3.5510   -2.1016 H   0  0  0  0  0  0  0  0  0  0  0  0
   -4.5055    4.3075   -1.3687 H   0  0  0  0  0  0  0  0  0  0  0  0
   -3.2056    4.7005    0.7532 H   0  0  0  0  0  0  0  0  0  0  0  0
   -2.4358    5.4759   -0.6299 H   0  0  0  0  0  0  0  0  0  0  0  0
    2.4532    1.5168    2.4184 H   0  0  0  0  0  0  0  0  0  0  0  0
    2.4692    2.2575    0.1277 H   0  0  0  0  0  0  0  0  0  0  0  0
    4.2468    0.1259    1.8512 H   0  0  0  0  0  0  0  0  0  0  0  0
    4.8966   -1.8822    3.1385 H   0  0  0  0  0  0  0  0  0  0  0  0
    4.0697   -4.1193    2.4615 H   0  0  0  0  0  0  0  0  0  0  0  0
    2.5885   -4.3555    0.4835 H   0  0  0  0  0  0  0  0  0  0  0  0
    1.9131   -2.3487   -0.8077 H   0  0  0  0  0  0  0  0  0  0  0  0
    0.4456    2.3264   -1.0144 H   0  0  0  0  0  0  0  0  0  0  0  0
   -0.5721   -0.5295    1.3202 H   0  0  0  0  0  0  0  0  0  0  0  0
   -1.7716   -2.4904    0.5602 H   0  0  0  0  0  0  0  0  0  0  0  0
   -2.0482   -4.4946   -0.6682 H   0  0  0  0  0  0  0  0  0  0  0  0
   -3.5991   -3.5794   -0.5180 H   0  0  0  0  0  0  0  0  0  0  0  0
   -3.3729   -4.7688   -1.8060 H   0  0  0  0  0  0  0  0  0  0  0  0
   -1.4540   -1.1371   -3.5167 H   0  0  0  0  0  0  0  0  0  0  0  0
   -0.2382    0.8595   -2.7620 H   0  0  0  0  0  0  0  0  0  0  0  0
  1  2  1  0
  2  3  1  0
  3  4  1  0
  4  5  2  0
  4  6  1  0
  6  7  2  0
  7  8  1  0
  8  9  1  0
  9 10  1  0
 10 11  2  0
 10 12  1  0
 12 13  2  0
 13 14  1  0
 14 15  2  0
 15 16  1  0
 16 17  2  0
  9 18  1  0
 18 19  1  0
 19 20  2  0
 20 21  1  0
 21 22  2  0
 22 23  1  0
 23 24  1  0
 22 25  1  0
 25 26  2  0
 18  6  1  0
 26 19  1  0
 17 12  1  0
  1 27  1  0
  1 28  1  0
  1 29  1  0
  2 30  1  0
  2 31  1  0
  8 32  1  0
  9 33  1  0
 13 34  1  0
 14 35  1  0
 15 36  1  0
 16 37  1  0
 17 38  1  0
 18 39  1  0
 20 40  1  0
 21 41  1  0
 24 42  1  0
 24 43  1  0
 24 44  1  0
 25 45  1  0
 26 46  1  0
M  END
$$$$
