
     RDKit          3D

 54 54  0  0  0  0  0  0  0  0999 V2000
    7.5540   -3.0166   -2.7752 C   0  0  0  0  0  0  0  0  0  0  0  0
    6.3575   -3.1556   -2.1814 C   0  0  0  0  0  0  0  0  0  0  0  0
    5.2264   -2.1832   -2.3012 C   0  0  0  0  0  0  0  0  0  0  0  0
    4.9535   -1.6697   -0.9837 N   0  0  0  0  0  0  0  0  0  0  0  0
    5.1072   -0.3678   -0.6246 C   0  0  0  0  0  0  0  0  0  0  0  0
    5.4890    0.5169   -1.3840 O   0  0  0  0  0  0  0  0  0  0  0  0
    4.7975   -0.0679    0.6830 N   0  0  0  0  0  0  0  0  0  0  0  0
    3.9472   -0.7879    1.5042 C   0  0  0  0  0  0  0  0  0  0  0  0
    3.5440   -1.9258    1.2571 O   0  0  0  0  0  0  0  0  0  0  0  0
    3.5395   -0.0505    2.7725 C   0  0  0  0  0  0  0  0  0  0  0  0
    2.2305    0.5050    2.6396 O   0  0  0  0  0  0  0  0  0  0  0  0
    2.1695    1.6278    1.8770 C   0  0  0  0  0  0  0  0  0  0  0  0
    3.1353    2.2001    1.3931 O   0  0  0  0  0  0  0  0  0  0  0  0
    0.7662    2.0692    1.7317 C   0  0  0  0  0  0  0  0  0  0  0  0
    0.5138    3.4486    1.9341 C   0  0  0  0  0  0  0  0  0  0  0  0
    0.3172    4.5792    2.1293 N   0  0  0  0  0  0  0  0  0  0  0  0
   -0.1522    1.1358    1.4005 C   0  0  0  0  0  0  0  0  0  0  0  0
   -1.5637    1.2660    1.1943 C   0  0  0  0  0  0  0  0  0  0  0  0
   -2.3532    2.4326    1.1097 C   0  0  0  0  0  0  0  0  0  0  0  0
   -3.6640    2.0630    0.9024 C   0  0  0  0  0  0  0  0  0  0  0  0
   -4.8424    2.9694    0.7836 C   0  0  0  0  0  0  0  0  0  0  0  0
   -3.6979    0.6856    0.7944 N   0  0  0  0  0  0  0  0  0  0  0  0
   -4.8896   -0.1113    0.5353 C   0  0  0  0  0  0  0  0  0  0  0  0
   -5.2050   -0.4416   -0.9354 C   0  0  0  0  0  0  0  0  0  0  0  0
   -5.4765    0.7940   -1.7926 C   0  0  0  0  0  0  0  0  0  0  0  0
   -4.1439   -1.3112   -1.6039 C   0  0  0  0  0  0  0  0  0  0  0  0
   -2.4255    0.1854    1.0475 C   0  0  0  0  0  0  0  0  0  0  0  0
   -2.1126   -1.2771    1.1162 C   0  0  0  0  0  0  0  0  0  0  0  0
    7.7790   -2.1636   -3.4042 H   0  0  0  0  0  0  0  0  0  0  0  0
    8.3370   -3.7608   -2.6507 H   0  0  0  0  0  0  0  0  0  0  0  0
    6.1856   -4.0282   -1.5590 H   0  0  0  0  0  0  0  0  0  0  0  0
    5.4428   -1.3764   -3.0149 H   0  0  0  0  0  0  0  0  0  0  0  0
    4.3232   -2.7086   -2.6404 H   0  0  0  0  0  0  0  0  0  0  0  0
    4.4514   -2.2688   -0.3366 H   0  0  0  0  0  0  0  0  0  0  0  0
    4.8422    0.9396    0.8388 H   0  0  0  0  0  0  0  0  0  0  0  0
    3.5055   -0.7815    3.5895 H   0  0  0  0  0  0  0  0  0  0  0  0
    4.2722    0.7123    3.0557 H   0  0  0  0  0  0  0  0  0  0  0  0
    0.2279    0.1256    1.2481 H   0  0  0  0  0  0  0  0  0  0  0  0
   -2.0378    3.4646    1.1889 H   0  0  0  0  0  0  0  0  0  0  0  0
   -5.7712    2.5076    1.1223 H   0  0  0  0  0  0  0  0  0  0  0  0
   -4.6907    3.8669    1.3962 H   0  0  0  0  0  0  0  0  0  0  0  0
   -4.9624    3.2950   -0.2529 H   0  0  0  0  0  0  0  0  0  0  0  0
   -5.7403    0.4146    0.9827 H   0  0  0  0  0  0  0  0  0  0  0  0
   -4.8077   -1.0393    1.1079 H   0  0  0  0  0  0  0  0  0  0  0  0
   -6.1323   -1.0273   -0.9199 H   0  0  0  0  0  0  0  0  0  0  0  0
   -4.5796    1.4025   -1.9228 H   0  0  0  0  0  0  0  0  0  0  0  0
   -6.2613    1.4138   -1.3471 H   0  0  0  0  0  0  0  0  0  0  0  0
   -5.8235    0.4978   -2.7890 H   0  0  0  0  0  0  0  0  0  0  0  0
   -3.1992   -0.7723   -1.7303 H   0  0  0  0  0  0  0  0  0  0  0  0
   -3.9528   -2.2186   -1.0204 H   0  0  0  0  0  0  0  0  0  0  0  0
   -4.4805   -1.6248   -2.5992 H   0  0  0  0  0  0  0  0  0  0  0  0
   -2.9640   -1.8799    1.4434 H   0  0  0  0  0  0  0  0  0  0  0  0
   -1.7867   -1.6281    0.1322 H   0  0  0  0  0  0  0  0  0  0  0  0
   -1.2984   -1.4746    1.8304 H   0  0  0  0  0  0  0  0  0  0  0  0
  1  2  2  0
  2  3  1  0
  3  4  1  0
  4  5  1  0
  5  6  2  0
  5  7  1  0
  7  8  1  0
  8  9  2  0
  8 10  1  0
 10 11  1  0
 11 12  1  0
 12 13  2  0
 12 14  1  0
 14 15  1  0
 15 16  3  0
 14 17  2  3
 17 18  1  0
 18 19  1  0
 19 20  2  0
 20 21  1  0
 20 22  1  0
 22 23  1  0
 23 24  1  0
 24 25  1  0
 24 26  1  0
 22 27  1  0
 27 28  1  0
 27 18  2  0
  1 29  1  0
  1 30  1  0
  2 31  1  0
  3 32  1  0
  3 33  1  0
  4 34  1  0
  7 35  1  0
 10 36  1  0
 10 37  1  0
 17 38  1  0
 19 39  1  0
 21 40  1  0
 21 41  1  0
 21 42  1  0
 23 43  1  0
 23 44  1  0
 24 45  1  0
 25 46  1  0
 25 47  1  0
 25 48  1  0
 26 49  1  0
 26 50  1  0
 26 51  1  0
 28 52  1  0
 28 53  1  0
 28 54  1  0
M  END
$$$$
