
     RDKit          3D

 53 56  0  0  0  0  0  0  0  0999 V2000
    7.6684    1.0714    0.9015 C   0  0  0  0  0  0  0  0  0  0  0  0
    7.0969    0.1322   -0.0017 O   0  0  0  0  0  0  0  0  0  0  0  0
    5.8629    0.4348   -0.5070 C   0  0  0  0  0  0  0  0  0  0  0  0
    5.2989   -0.5599   -1.3074 C   0  0  0  0  0  0  0  0  0  0  0  0
    4.0413   -0.3805   -1.8887 C   0  0  0  0  0  0  0  0  0  0  0  0
    3.3235    0.8056   -1.6840 C   0  0  0  0  0  0  0  0  0  0  0  0
    1.9819    0.9981   -2.3476 C   0  0  0  0  0  0  0  0  0  0  0  0
    0.9755    1.4900   -1.4302 N   0  0  0  0  0  0  0  0  0  0  0  0
    0.2697    0.6220   -0.6030 C   0  0  0  0  0  0  0  0  0  0  0  0
    0.3607   -0.5994   -0.7244 O   0  0  0  0  0  0  0  0  0  0  0  0
   -0.6504    1.3144    0.4007 C   0  0  0  0  0  0  0  0  0  0  0  0
    0.1685    2.1122    1.3300 C   0  0  0  0  0  0  0  0  0  0  0  0
    0.8258    2.8176    1.9811 N   0  0  0  0  0  0  0  0  0  0  0  0
   -1.5786    0.3460    1.0993 C   0  0  0  0  0  0  0  0  0  0  0  0
   -1.2738   -0.0426    2.3705 N   0  0  0  0  0  0  0  0  0  0  0  0
   -2.1113   -0.9064    2.9678 C   0  0  0  0  0  0  0  0  0  0  0  0
   -1.8413   -1.3448    4.2574 C   0  0  0  0  0  0  0  0  0  0  0  0
   -2.6867   -2.2418    4.9108 C   0  0  0  0  0  0  0  0  0  0  0  0
   -3.8231   -2.7064    4.2628 C   0  0  0  0  0  0  0  0  0  0  0  0
   -4.1025   -2.2696    2.9681 C   0  0  0  0  0  0  0  0  0  0  0  0
   -3.2666   -1.3769    2.3076 C   0  0  0  0  0  0  0  0  0  0  0  0
   -3.5730   -0.9795    1.0584 N   0  0  0  0  0  0  0  0  0  0  0  0
   -2.7257   -0.1241    0.4402 C   0  0  0  0  0  0  0  0  0  0  0  0
   -3.0056    0.2902   -0.8864 N   0  0  0  0  0  0  0  0  0  0  0  0
   -2.6796   -0.8246   -1.8156 C   0  0  0  0  0  0  0  0  0  0  0  0
   -3.8755   -0.9249   -2.7603 C   0  0  0  0  0  0  0  0  0  0  0  0
   -5.0343   -0.5316   -1.8681 C   0  0  0  0  0  0  0  0  0  0  0  0
   -4.4411    0.6166   -1.0627 C   0  0  0  0  0  0  0  0  0  0  0  0
    3.9019    1.8074   -0.8901 C   0  0  0  0  0  0  0  0  0  0  0  0
    5.1572    1.6197   -0.2986 C   0  0  0  0  0  0  0  0  0  0  0  0
    7.0402    1.1917    1.7932 H   0  0  0  0  0  0  0  0  0  0  0  0
    7.8507    2.0368    0.4096 H   0  0  0  0  0  0  0  0  0  0  0  0
    8.6382    0.6750    1.2260 H   0  0  0  0  0  0  0  0  0  0  0  0
    5.8429   -1.4881   -1.4768 H   0  0  0  0  0  0  0  0  0  0  0  0
    3.6248   -1.1807   -2.4979 H   0  0  0  0  0  0  0  0  0  0  0  0
    1.6251    0.0608   -2.7928 H   0  0  0  0  0  0  0  0  0  0  0  0
    2.0818    1.7351   -3.1526 H   0  0  0  0  0  0  0  0  0  0  0  0
    1.0138    2.4760   -1.2018 H   0  0  0  0  0  0  0  0  0  0  0  0
   -1.2654    2.0305   -0.1625 H   0  0  0  0  0  0  0  0  0  0  0  0
   -0.9502   -0.9787    4.7627 H   0  0  0  0  0  0  0  0  0  0  0  0
   -2.4531   -2.5734    5.9187 H   0  0  0  0  0  0  0  0  0  0  0  0
   -4.4894   -3.4080    4.7581 H   0  0  0  0  0  0  0  0  0  0  0  0
   -4.9914   -2.6329    2.4580 H   0  0  0  0  0  0  0  0  0  0  0  0
   -1.7669   -0.5971   -2.3799 H   0  0  0  0  0  0  0  0  0  0  0  0
   -2.5342   -1.7867   -1.3025 H   0  0  0  0  0  0  0  0  0  0  0  0
   -3.9851   -1.9257   -3.1859 H   0  0  0  0  0  0  0  0  0  0  0  0
   -3.7689   -0.2085   -3.5871 H   0  0  0  0  0  0  0  0  0  0  0  0
   -5.9236   -0.2337   -2.4323 H   0  0  0  0  0  0  0  0  0  0  0  0
   -5.3039   -1.3643   -1.2099 H   0  0  0  0  0  0  0  0  0  0  0  0
   -4.9887    0.8001   -0.1310 H   0  0  0  0  0  0  0  0  0  0  0  0
   -4.4958    1.5407   -1.6510 H   0  0  0  0  0  0  0  0  0  0  0  0
    3.3815    2.7444   -0.7125 H   0  0  0  0  0  0  0  0  0  0  0  0
    5.5540    2.4218    0.3161 H   0  0  0  0  0  0  0  0  0  0  0  0
  1  2  1  0
  2  3  1  0
  3  4  2  0
  4  5  1  0
  5  6  2  0
  6  7  1  0
  7  8  1  0
  8  9  1  0
  9 10  2  0
  9 11  1  0
 11 12  1  0
 12 13  3  0
 11 14  1  0
 14 15  2  0
 15 16  1  0
 16 17  2  0
 17 18  1  0
 18 19  2  0
 19 20  1  0
 20 21  2  0
 21 22  1  0
 22 23  2  0
 23 24  1  0
 24 25  1  0
 25 26  1  0
 26 27  1  0
 27 28  1  0
  6 29  1  0
 29 30  2  0
 30  3  1  0
 23 14  1  0
 28 24  1  0
 21 16  1  0
  1 31  1  0
  1 32  1  0
  1 33  1  0
  4 34  1  0
  5 35  1  0
  7 36  1  0
  7 37  1  0
  8 38  1  0
 11 39  1  0
 17 40  1  0
 18 41  1  0
 19 42  1  0
 20 43  1  0
 25 44  1  0
 25 45  1  0
 26 46  1  0
 26 47  1  0
 27 48  1  0
 27 49  1  0
 28 50  1  0
 28 51  1  0
 29 52  1  0
 30 53  1  0
M  END
$$$$
