
     RDKit          3D

 34 35  0  0  0  0  0  0  0  0999 V2000
   -0.9981   -2.0825    1.8347 O   0  0  0  0  0  0  0  0  0  0  0  0
   -0.5858   -0.9304    1.7657 C   0  0  0  0  0  0  0  0  0  0  0  0
    0.6480   -0.4660    2.5423 C   0  0  0  0  0  0  0  0  0  0  0  0
    1.7700   -0.2263    1.6909 O   0  0  0  0  0  0  0  0  0  0  0  0
    1.7652    0.9678    1.0550 C   0  0  0  0  0  0  0  0  0  0  0  0
    0.9338    1.8499    1.2044 O   0  0  0  0  0  0  0  0  0  0  0  0
    2.8899    1.0604    0.0996 C   0  0  0  0  0  0  0  0  0  0  0  0
    3.8865    0.0876   -0.0204 C   0  0  0  0  0  0  0  0  0  0  0  0
    4.9004    0.2571   -0.9638 C   0  0  0  0  0  0  0  0  0  0  0  0
    4.8773    1.3963   -1.7489 C   0  0  0  0  0  0  0  0  0  0  0  0
    6.0848    1.6784   -2.9301 Cl  0  0  0  0  0  0  0  0  0  0  0  0
    3.9359    2.3583   -1.6602 N   0  0  0  0  0  0  0  0  0  0  0  0
    2.9617    2.1677   -0.7366 C   0  0  0  0  0  0  0  0  0  0  0  0
   -1.1872    0.0618    1.0234 N   0  0  0  0  0  0  0  0  0  0  0  0
   -2.3473   -0.1215    0.2338 C   0  0  0  0  0  0  0  0  0  0  0  0
   -3.3692    0.8495    0.3494 C   0  0  0  0  0  0  0  0  0  0  0  0
   -3.1959    2.2068    1.4171 Cl  0  0  0  0  0  0  0  0  0  0  0  0
   -4.5656    0.7294   -0.3591 C   0  0  0  0  0  0  0  0  0  0  0  0
   -4.7627   -0.3631   -1.1978 C   0  0  0  0  0  0  0  0  0  0  0  0
   -3.7485   -1.3082   -1.3518 C   0  0  0  0  0  0  0  0  0  0  0  0
   -2.5140   -1.1873   -0.6722 C   0  0  0  0  0  0  0  0  0  0  0  0
   -1.4197   -2.1613   -1.0648 C   0  0  0  0  0  0  0  0  0  0  0  0
   -1.5665   -3.4029   -0.5187 F   0  0  0  0  0  0  0  0  0  0  0  0
   -1.4105   -2.3751   -2.4179 F   0  0  0  0  0  0  0  0  0  0  0  0
   -0.1447   -1.7484   -0.7931 F   0  0  0  0  0  0  0  0  0  0  0  0
    0.4087    0.4145    3.1580 H   0  0  0  0  0  0  0  0  0  0  0  0
    0.9293   -1.2697    3.2360 H   0  0  0  0  0  0  0  0  0  0  0  0
    3.8855   -0.7998    0.6082 H   0  0  0  0  0  0  0  0  0  0  0  0
    5.6845   -0.4845   -1.0667 H   0  0  0  0  0  0  0  0  0  0  0  0
    2.2158    2.9583   -0.6993 H   0  0  0  0  0  0  0  0  0  0  0  0
   -1.0171    1.0128    1.3559 H   0  0  0  0  0  0  0  0  0  0  0  0
   -5.3447    1.4772   -0.2528 H   0  0  0  0  0  0  0  0  0  0  0  0
   -5.6970   -0.4666   -1.7477 H   0  0  0  0  0  0  0  0  0  0  0  0
   -3.9028   -2.1401   -2.0423 H   0  0  0  0  0  0  0  0  0  0  0  0
  1  2  2  0
  2  3  1  0
  3  4  1  0
  4  5  1  0
  5  6  2  0
  5  7  1  0
  7  8  2  0
  8  9  1  0
  9 10  2  0
 10 11  1  0
 10 12  1  0
 12 13  2  0
  2 14  1  0
 14 15  1  0
 15 16  2  0
 16 17  1  0
 16 18  1  0
 18 19  2  0
 19 20  1  0
 20 21  2  0
 21 22  1  0
 22 23  1  0
 22 24  1  0
 22 25  1  0
 13  7  1  0
 21 15  1  0
  3 26  1  0
  3 27  1  0
  8 28  1  0
  9 29  1  0
 13 30  1  0
 14 31  1  0
 18 32  1  0
 19 33  1  0
 20 34  1  0
M  END
$$$$
