
     RDKit          3D

 40 42  0  0  0  0  0  0  0  0999 V2000
    2.4434    4.8003    2.1770 C   0  0  0  0  0  0  0  0  0  0  0  0
    2.0397    3.4925    1.5186 C   0  0  0  0  0  0  0  0  0  0  0  0
    0.2809    3.1510    1.8521 S   0  0  0  0  0  0  0  0  0  0  0  0
    0.0768    1.5919    1.0004 C   0  0  0  0  0  0  0  0  0  0  0  0
   -1.1511    0.9684    1.0581 C   0  0  0  0  0  0  0  0  0  0  0  0
   -1.2907   -0.2303    0.3887 C   0  0  0  0  0  0  0  0  0  0  0  0
   -2.4906   -0.9316    0.4130 N   0  0  0  0  0  0  0  0  0  0  0  0
   -3.7669   -0.1995    0.3182 C   0  0  0  0  0  0  0  0  0  0  0  0
   -4.6642   -0.8029   -0.7764 C   0  0  0  0  0  0  0  0  0  0  0  0
   -4.9506   -2.1948   -0.5863 O   0  0  0  0  0  0  0  0  0  0  0  0
   -3.8602   -2.9264   -0.0035 C   0  0  0  0  0  0  0  0  0  0  0  0
   -2.4872   -2.2673   -0.2073 C   0  0  0  0  0  0  0  0  0  0  0  0
   -0.2445   -0.7659   -0.2624 N   0  0  0  0  0  0  0  0  0  0  0  0
    0.9210   -0.0931   -0.2730 C   0  0  0  0  0  0  0  0  0  0  0  0
    2.0554   -0.6932   -1.0073 C   0  0  0  0  0  0  0  0  0  0  0  0
    1.9280   -1.9268   -1.6778 C   0  0  0  0  0  0  0  0  0  0  0  0
    2.9998   -2.4979   -2.3744 C   0  0  0  0  0  0  0  0  0  0  0  0
    4.2257   -1.8426   -2.4136 C   0  0  0  0  0  0  0  0  0  0  0  0
    5.5446   -2.5409   -3.2683 Cl  0  0  0  0  0  0  0  0  0  0  0  0
    4.3880   -0.6239   -1.7636 C   0  0  0  0  0  0  0  0  0  0  0  0
    3.3124   -0.0577   -1.0686 C   0  0  0  0  0  0  0  0  0  0  0  0
    1.1225    1.0844    0.3352 N   0  0  0  0  0  0  0  0  0  0  0  0
    1.8628    5.6434    1.7871 H   0  0  0  0  0  0  0  0  0  0  0  0
    3.5002    5.0065    1.9773 H   0  0  0  0  0  0  0  0  0  0  0  0
    2.3142    4.7604    3.2640 H   0  0  0  0  0  0  0  0  0  0  0  0
    2.6548    2.6788    1.9161 H   0  0  0  0  0  0  0  0  0  0  0  0
    2.2031    3.5625    0.4383 H   0  0  0  0  0  0  0  0  0  0  0  0
   -1.9632    1.3960    1.6304 H   0  0  0  0  0  0  0  0  0  0  0  0
   -4.2713   -0.2780    1.2881 H   0  0  0  0  0  0  0  0  0  0  0  0
   -3.6258    0.8635    0.0921 H   0  0  0  0  0  0  0  0  0  0  0  0
   -5.6216   -0.2729   -0.8094 H   0  0  0  0  0  0  0  0  0  0  0  0
   -4.1960   -0.6876   -1.7612 H   0  0  0  0  0  0  0  0  0  0  0  0
   -4.0741   -3.0337    1.0664 H   0  0  0  0  0  0  0  0  0  0  0  0
   -3.8670   -3.9296   -0.4412 H   0  0  0  0  0  0  0  0  0  0  0  0
   -2.2794   -2.1830   -1.2817 H   0  0  0  0  0  0  0  0  0  0  0  0
   -1.7202   -2.9018    0.2524 H   0  0  0  0  0  0  0  0  0  0  0  0
    0.9774   -2.4587   -1.6610 H   0  0  0  0  0  0  0  0  0  0  0  0
    2.8662   -3.4505   -2.8800 H   0  0  0  0  0  0  0  0  0  0  0  0
    5.3433   -0.1067   -1.7903 H   0  0  0  0  0  0  0  0  0  0  0  0
    3.4643    0.8974   -0.5675 H   0  0  0  0  0  0  0  0  0  0  0  0
  1  2  1  0
  2  3  1  0
  3  4  1  0
  4  5  2  0
  5  6  1  0
  6  7  1  0
  7  8  1  0
  8  9  1  0
  9 10  1  0
 10 11  1  0
 11 12  1  0
  6 13  2  0
 13 14  1  0
 14 15  1  0
 15 16  2  0
 16 17  1  0
 17 18  2  0
 18 19  1  0
 18 20  1  0
 20 21  2  0
 14 22  2  0
 22  4  1  0
 12  7  1  0
 21 15  1  0
  1 23  1  0
  1 24  1  0
  1 25  1  0
  2 26  1  0
  2 27  1  0
  5 28  1  0
  8 29  1  0
  8 30  1  0
  9 31  1  0
  9 32  1  0
 11 33  1  0
 11 34  1  0
 12 35  1  0
 12 36  1  0
 16 37  1  0
 17 38  1  0
 20 39  1  0
 21 40  1  0
M  END
$$$$
