
     RDKit          3D

 33 34  0  0  0  0  0  0  0  0999 V2000
   -4.7316    0.7300    2.9021 C   0  0  0  0  0  0  0  0  0  0  0  0
   -4.4235    0.1927    1.6212 O   0  0  0  0  0  0  0  0  0  0  0  0
   -3.1506    0.3858    1.1576 C   0  0  0  0  0  0  0  0  0  0  0  0
   -2.1352    1.0709    1.8208 C   0  0  0  0  0  0  0  0  0  0  0  0
   -0.8768    1.1891    1.2285 C   0  0  0  0  0  0  0  0  0  0  0  0
   -0.6266    0.6151   -0.0257 C   0  0  0  0  0  0  0  0  0  0  0  0
    0.7419    0.7784   -0.5797 C   0  0  0  0  0  0  0  0  0  0  0  0
    1.2858    1.8777   -0.4738 O   0  0  0  0  0  0  0  0  0  0  0  0
    1.4036   -0.4167   -1.2318 C   0  0  0  0  0  0  0  0  0  0  0  0
    2.7895   -0.5545   -0.7055 C   0  0  0  0  0  0  0  0  0  0  0  0
    3.1105   -1.2419    0.3722 N   0  0  0  0  0  0  0  0  0  0  0  0
    4.4659   -1.2116    0.6266 N   0  0  0  0  0  0  0  0  0  0  0  0
    5.1239   -0.5082   -0.2703 C   0  0  0  0  0  0  0  0  0  0  0  0
    6.5897   -0.2798   -0.2645 C   0  0  0  0  0  0  0  0  0  0  0  0
    4.1351    0.1519   -1.5098 S   0  0  0  0  0  0  0  0  0  0  0  0
   -1.6473   -0.0561   -0.7155 C   0  0  0  0  0  0  0  0  0  0  0  0
   -1.3465   -0.5372   -1.9623 O   0  0  0  0  0  0  0  0  0  0  0  0
   -2.3965   -1.1515   -2.7020 C   0  0  0  0  0  0  0  0  0  0  0  0
   -2.9025   -0.1702   -0.1055 C   0  0  0  0  0  0  0  0  0  0  0  0
   -4.1092    0.2764    3.6806 H   0  0  0  0  0  0  0  0  0  0  0  0
   -4.6375    1.8210    2.9049 H   0  0  0  0  0  0  0  0  0  0  0  0
   -5.7746    0.4852    3.1249 H   0  0  0  0  0  0  0  0  0  0  0  0
   -2.2857    1.5246    2.7949 H   0  0  0  0  0  0  0  0  0  0  0  0
   -0.0860    1.7270    1.7495 H   0  0  0  0  0  0  0  0  0  0  0  0
    1.3864   -0.2810   -2.3182 H   0  0  0  0  0  0  0  0  0  0  0  0
    0.8619   -1.3385   -0.9947 H   0  0  0  0  0  0  0  0  0  0  0  0
    6.8176    0.7891   -0.2033 H   0  0  0  0  0  0  0  0  0  0  0  0
    7.0512   -0.6863   -1.1700 H   0  0  0  0  0  0  0  0  0  0  0  0
    7.0508   -0.7717    0.5980 H   0  0  0  0  0  0  0  0  0  0  0  0
   -2.7522   -2.0577   -2.2009 H   0  0  0  0  0  0  0  0  0  0  0  0
   -1.9897   -1.4473   -3.6738 H   0  0  0  0  0  0  0  0  0  0  0  0
   -3.2159   -0.4486   -2.8842 H   0  0  0  0  0  0  0  0  0  0  0  0
   -3.7260   -0.6857   -0.5903 H   0  0  0  0  0  0  0  0  0  0  0  0
  1  2  1  0
  2  3  1  0
  3  4  2  0
  4  5  1  0
  5  6  2  0
  6  7  1  0
  7  8  2  0
  7  9  1  0
  9 10  1  0
 10 11  2  0
 11 12  1  0
 12 13  2  0
 13 14  1  0
 13 15  1  0
  6 16  1  0
 16 17  1  0
 17 18  1  0
 16 19  2  0
 19  3  1  0
 15 10  1  0
  1 20  1  0
  1 21  1  0
  1 22  1  0
  4 23  1  0
  5 24  1  0
  9 25  1  0
  9 26  1  0
 14 27  1  0
 14 28  1  0
 14 29  1  0
 18 30  1  0
 18 31  1  0
 18 32  1  0
 19 33  1  0
M  END
$$$$
