
     RDKit          3D

 42 44  0  0  0  0  0  0  0  0999 V2000
   -5.2054    1.8415    0.8858 C   0  0  0  0  0  0  0  0  0  0  0  0
   -4.2810    2.3734   -0.0630 O   0  0  0  0  0  0  0  0  0  0  0  0
   -3.5527    1.3680   -0.6411 C   0  0  0  0  0  0  0  0  0  0  0  0
   -2.2031    1.2811   -0.3023 C   0  0  0  0  0  0  0  0  0  0  0  0
   -1.3997    0.2845   -0.8697 C   0  0  0  0  0  0  0  0  0  0  0  0
    0.0248    0.1587   -0.5284 C   0  0  0  0  0  0  0  0  0  0  0  0
    0.5401   -0.0442    0.7024 C   0  0  0  0  0  0  0  0  0  0  0  0
   -0.2935   -0.2070    1.8512 C   0  0  0  0  0  0  0  0  0  0  0  0
   -0.9377   -0.3012    2.8121 N   0  0  0  0  0  0  0  0  0  0  0  0
    1.9605   -0.1935    0.7933 C   0  0  0  0  0  0  0  0  0  0  0  0
    2.7594   -0.8013   -0.0697 N   0  0  0  0  0  0  0  0  0  0  0  0
    4.0215   -0.7392    0.4569 C   0  0  0  0  0  0  0  0  0  0  0  0
    5.2225   -1.2615   -0.0438 C   0  0  0  0  0  0  0  0  0  0  0  0
    6.3979   -1.0763    0.6910 C   0  0  0  0  0  0  0  0  0  0  0  0
    6.3774   -0.3834    1.9012 C   0  0  0  0  0  0  0  0  0  0  0  0
    5.1877    0.1484    2.4151 C   0  0  0  0  0  0  0  0  0  0  0  0
    4.0222   -0.0469    1.6614 C   0  0  0  0  0  0  0  0  0  0  0  0
    2.7068    0.3329    1.8374 N   0  0  0  0  0  0  0  0  0  0  0  0
    2.2517    1.1763    2.9197 C   0  0  0  0  0  0  0  0  0  0  0  0
   -1.9470   -0.5931   -1.8207 C   0  0  0  0  0  0  0  0  0  0  0  0
   -3.2903   -0.4877   -2.1891 C   0  0  0  0  0  0  0  0  0  0  0  0
   -3.9372   -1.2695   -3.1131 O   0  0  0  0  0  0  0  0  0  0  0  0
   -3.1657   -2.2835   -3.7466 C   0  0  0  0  0  0  0  0  0  0  0  0
   -4.0869    0.4980   -1.5919 C   0  0  0  0  0  0  0  0  0  0  0  0
   -5.4006    0.6116   -1.9690 O   0  0  0  0  0  0  0  0  0  0  0  0
   -5.6895    2.6848    1.3876 H   0  0  0  0  0  0  0  0  0  0  0  0
   -4.6881    1.2481    1.6495 H   0  0  0  0  0  0  0  0  0  0  0  0
   -5.9883    1.2458    0.4061 H   0  0  0  0  0  0  0  0  0  0  0  0
   -1.7961    1.9963    0.4069 H   0  0  0  0  0  0  0  0  0  0  0  0
    0.6918    0.2077   -1.3889 H   0  0  0  0  0  0  0  0  0  0  0  0
    5.2299   -1.8032   -0.9828 H   0  0  0  0  0  0  0  0  0  0  0  0
    7.3354   -1.4814    0.3151 H   0  0  0  0  0  0  0  0  0  0  0  0
    7.3027   -0.2555    2.4608 H   0  0  0  0  0  0  0  0  0  0  0  0
    5.1825    0.6795    3.3597 H   0  0  0  0  0  0  0  0  0  0  0  0
    1.8970    0.5341    3.7289 H   0  0  0  0  0  0  0  0  0  0  0  0
    1.4595    1.8388    2.5650 H   0  0  0  0  0  0  0  0  0  0  0  0
    3.0782    1.7982    3.2730 H   0  0  0  0  0  0  0  0  0  0  0  0
   -1.3020   -1.3466   -2.2619 H   0  0  0  0  0  0  0  0  0  0  0  0
   -2.8065   -3.0186   -3.0178 H   0  0  0  0  0  0  0  0  0  0  0  0
   -2.3368   -1.8505   -4.3160 H   0  0  0  0  0  0  0  0  0  0  0  0
   -3.8177   -2.8050   -4.4543 H   0  0  0  0  0  0  0  0  0  0  0  0
   -5.5242   -0.0586   -2.6684 H   0  0  0  0  0  0  0  0  0  0  0  0
  1  2  1  0
  2  3  1  0
  3  4  2  0
  4  5  1  0
  5  6  1  0
  6  7  2  3
  7  8  1  0
  8  9  3  0
  7 10  1  0
 10 11  2  0
 11 12  1  0
 12 13  2  0
 13 14  1  0
 14 15  2  0
 15 16  1  0
 16 17  2  0
 17 18  1  0
 18 19  1  0
  5 20  2  0
 20 21  1  0
 21 22  1  0
 22 23  1  0
 21 24  2  0
 24 25  1  0
 24  3  1  0
 18 10  1  0
 17 12  1  0
  1 26  1  0
  1 27  1  0
  1 28  1  0
  4 29  1  0
  6 30  1  0
 13 31  1  0
 14 32  1  0
 15 33  1  0
 16 34  1  0
 19 35  1  0
 19 36  1  0
 19 37  1  0
 20 38  1  0
 23 39  1  0
 23 40  1  0
 23 41  1  0
 25 42  1  0
M  END
$$$$
