
     RDKit          3D

 61 64  0  0  0  0  0  0  0  0999 V2000
  -10.3239   -0.8443   -2.0293 C   0  0  0  0  0  0  0  0  0  0  0  0
   -8.9643   -0.9994   -1.6233 O   0  0  0  0  0  0  0  0  0  0  0  0
   -8.0917   -0.2285   -2.3199 C   0  0  0  0  0  0  0  0  0  0  0  0
   -8.3851    0.5502   -3.2133 O   0  0  0  0  0  0  0  0  0  0  0  0
   -6.6966   -0.4536   -1.8531 C   0  0  0  0  0  0  0  0  0  0  0  0
   -6.3749   -1.3969   -0.8697 C   0  0  0  0  0  0  0  0  0  0  0  0
   -5.0452   -1.5733   -0.4748 C   0  0  0  0  0  0  0  0  0  0  0  0
   -4.0188   -0.8096   -1.0510 C   0  0  0  0  0  0  0  0  0  0  0  0
   -2.5771   -1.0169   -0.6304 C   0  0  0  0  0  0  0  0  0  0  0  0
   -2.3571   -0.8206    0.8132 N   0  0  0  0  0  0  0  0  0  0  0  0
   -2.5451    0.5722    1.2482 C   0  0  0  0  0  0  0  0  0  0  0  0
   -1.4261    1.5143    0.8118 C   0  0  0  0  0  0  0  0  0  0  0  0
   -0.0600    0.9942    1.2634 C   0  0  0  0  0  0  0  0  0  0  0  0
    0.9311    1.8469    0.6708 O   0  0  0  0  0  0  0  0  0  0  0  0
    2.1856    1.7722    1.2087 C   0  0  0  0  0  0  0  0  0  0  0  0
    2.4511    1.8473    2.5769 C   0  0  0  0  0  0  0  0  0  0  0  0
    3.7701    1.8108    3.0384 C   0  0  0  0  0  0  0  0  0  0  0  0
    4.8254    1.7047    2.1323 C   0  0  0  0  0  0  0  0  0  0  0  0
    4.5558    1.6323    0.7623 C   0  0  0  0  0  0  0  0  0  0  0  0
    5.6522    1.5538   -0.2282 C   0  0  0  0  0  0  0  0  0  0  0  0
    5.6830    2.3850   -1.1317 O   0  0  0  0  0  0  0  0  0  0  0  0
    6.5824    0.5383   -0.1039 N   0  0  0  0  0  0  0  0  0  0  0  0
    7.6666    0.4178   -1.0619 C   0  0  0  0  0  0  0  0  0  0  0  0
    8.4962   -0.7494   -0.5490 C   0  0  0  0  0  0  0  0  0  0  0  0
    7.4471   -1.6444    0.0988 C   0  0  0  0  0  0  0  0  0  0  0  0
    6.4932   -0.6445    0.7419 C   0  0  0  0  0  0  0  0  0  0  0  0
    3.2389    1.6949    0.2985 C   0  0  0  0  0  0  0  0  0  0  0  0
    0.1290   -0.4518    0.7976 C   0  0  0  0  0  0  0  0  0  0  0  0
   -1.0437   -1.3260    1.2358 C   0  0  0  0  0  0  0  0  0  0  0  0
   -4.3459    0.1327   -2.0353 C   0  0  0  0  0  0  0  0  0  0  0  0
   -5.6744    0.3092   -2.4331 C   0  0  0  0  0  0  0  0  0  0  0  0
  -10.4442   -1.1231   -3.0805 H   0  0  0  0  0  0  0  0  0  0  0  0
  -10.9377   -1.5145   -1.4213 H   0  0  0  0  0  0  0  0  0  0  0  0
  -10.6592    0.1838   -1.8593 H   0  0  0  0  0  0  0  0  0  0  0  0
   -7.1453   -2.0039   -0.4010 H   0  0  0  0  0  0  0  0  0  0  0  0
   -4.8066   -2.3065    0.2942 H   0  0  0  0  0  0  0  0  0  0  0  0
   -1.9148   -0.3818   -1.2304 H   0  0  0  0  0  0  0  0  0  0  0  0
   -2.3290   -2.0515   -0.9036 H   0  0  0  0  0  0  0  0  0  0  0  0
   -3.5112    0.9653    0.9129 H   0  0  0  0  0  0  0  0  0  0  0  0
   -2.6035    0.5791    2.3447 H   0  0  0  0  0  0  0  0  0  0  0  0
   -1.4369    1.6552   -0.2765 H   0  0  0  0  0  0  0  0  0  0  0  0
   -1.5933    2.5123    1.2356 H   0  0  0  0  0  0  0  0  0  0  0  0
   -0.0327    1.0423    2.3581 H   0  0  0  0  0  0  0  0  0  0  0  0
    1.6507    1.9779    3.2983 H   0  0  0  0  0  0  0  0  0  0  0  0
    3.9741    1.8905    4.1036 H   0  0  0  0  0  0  0  0  0  0  0  0
    5.8506    1.7120    2.4927 H   0  0  0  0  0  0  0  0  0  0  0  0
    7.2316    0.1980   -2.0437 H   0  0  0  0  0  0  0  0  0  0  0  0
    8.2328    1.3522   -1.1253 H   0  0  0  0  0  0  0  0  0  0  0  0
    9.2086   -0.4029    0.2091 H   0  0  0  0  0  0  0  0  0  0  0  0
    9.0548   -1.2513   -1.3435 H   0  0  0  0  0  0  0  0  0  0  0  0
    6.9222   -2.2191   -0.6741 H   0  0  0  0  0  0  0  0  0  0  0  0
    7.8703   -2.3480    0.8209 H   0  0  0  0  0  0  0  0  0  0  0  0
    6.8394   -0.3719    1.7443 H   0  0  0  0  0  0  0  0  0  0  0  0
    5.4675   -1.0202    0.7988 H   0  0  0  0  0  0  0  0  0  0  0  0
    3.0361    1.6804   -0.7697 H   0  0  0  0  0  0  0  0  0  0  0  0
    0.2529   -0.4834   -0.2922 H   0  0  0  0  0  0  0  0  0  0  0  0
    1.0602   -0.8589    1.2098 H   0  0  0  0  0  0  0  0  0  0  0  0
   -1.0405   -1.4016    2.3311 H   0  0  0  0  0  0  0  0  0  0  0  0
   -0.8961   -2.3518    0.8762 H   0  0  0  0  0  0  0  0  0  0  0  0
   -3.5702    0.7378   -2.4999 H   0  0  0  0  0  0  0  0  0  0  0  0
   -5.9084    1.0460   -3.1997 H   0  0  0  0  0  0  0  0  0  0  0  0
  1  2  1  0
  2  3  1  0
  3  4  2  0
  3  5  1  0
  5  6  2  0
  6  7  1  0
  7  8  2  0
  8  9  1  0
  9 10  1  0
 10 11  1  0
 11 12  1  0
 12 13  1  0
 13 14  1  0
 14 15  1  0
 15 16  2  0
 16 17  1  0
 17 18  2  0
 18 19  1  0
 19 20  1  0
 20 21  2  0
 20 22  1  0
 22 23  1  0
 23 24  1  0
 24 25  1  0
 25 26  1  0
 19 27  2  0
 13 28  1  0
 28 29  1  0
  8 30  1  0
 30 31  2  0
 31  5  1  0
 29 10  1  0
 27 15  1  0
 26 22  1  0
  1 32  1  0
  1 33  1  0
  1 34  1  0
  6 35  1  0
  7 36  1  0
  9 37  1  0
  9 38  1  0
 11 39  1  0
 11 40  1  0
 12 41  1  0
 12 42  1  0
 13 43  1  0
 16 44  1  0
 17 45  1  0
 18 46  1  0
 23 47  1  0
 23 48  1  0
 24 49  1  0
 24 50  1  0
 25 51  1  0
 25 52  1  0
 26 53  1  0
 26 54  1  0
 27 55  1  0
 28 56  1  0
 28 57  1  0
 29 58  1  0
 29 59  1  0
 30 60  1  0
 31 61  1  0
M  END
$$$$
