
     RDKit          3D

 45 48  0  0  0  0  0  0  0  0999 V2000
   -3.4618    0.6431   -2.0931 C   0  0  0  0  0  0  0  0  0  0  0  0
   -2.0581    0.0683   -2.1160 C   0  0  0  0  0  0  0  0  0  0  0  0
   -1.4037    0.3192   -0.8654 O   0  0  0  0  0  0  0  0  0  0  0  0
   -1.6038   -0.6198    0.0991 C   0  0  0  0  0  0  0  0  0  0  0  0
   -2.3290   -1.6005    0.0143 O   0  0  0  0  0  0  0  0  0  0  0  0
   -0.9220   -0.2044    1.3460 C   0  0  0  0  0  0  0  0  0  0  0  0
   -1.8217   -0.1399    2.5223 C   0  0  0  0  0  0  0  0  0  0  0  0
   -1.5618   -0.6050    3.6219 O   0  0  0  0  0  0  0  0  0  0  0  0
   -2.9478    0.5435    2.1903 O   0  0  0  0  0  0  0  0  0  0  0  0
   -3.9344    0.6649    3.2252 C   0  0  0  0  0  0  0  0  0  0  0  0
   -4.8398   -0.5523    3.2270 C   0  0  0  0  0  0  0  0  0  0  0  0
    0.3873    0.1598    1.4334 C   0  0  0  0  0  0  0  0  0  0  0  0
    0.8760    0.9185    2.6469 C   0  0  0  0  0  0  0  0  0  0  0  0
    2.0100    1.6647    2.6480 C   0  0  0  0  0  0  0  0  0  0  0  0
    2.5347    2.6428    4.1505 Br  0  0  0  0  0  0  0  0  0  0  0  0
    2.8444    1.6891    1.4828 C   0  0  0  0  0  0  0  0  0  0  0  0
    3.9884    2.3268    1.2092 N   0  0  0  0  0  0  0  0  0  0  0  0
    4.3906    1.8364   -0.0412 O   0  0  0  0  0  0  0  0  0  0  0  0
    3.4906    0.9038   -0.4790 C   0  0  0  0  0  0  0  0  0  0  0  0
    3.5326    0.1014   -1.6256 C   0  0  0  0  0  0  0  0  0  0  0  0
    4.5812    0.2188   -2.5566 C   0  0  0  0  0  0  0  0  0  0  0  0
    4.5977   -0.6119   -3.6720 C   0  0  0  0  0  0  0  0  0  0  0  0
    3.5813   -1.5473   -3.8565 C   0  0  0  0  0  0  0  0  0  0  0  0
    2.5426   -1.6660   -2.9228 C   0  0  0  0  0  0  0  0  0  0  0  0
    2.4872   -0.8508   -1.7701 C   0  0  0  0  0  0  0  0  0  0  0  0
    1.4628   -0.9247   -0.7732 C   0  0  0  0  0  0  0  0  0  0  0  0
    0.5571   -1.9552   -0.8029 O   0  0  0  0  0  0  0  0  0  0  0  0
    1.3703   -0.0159    0.2988 C   0  0  0  0  0  0  0  0  0  0  0  0
    2.4693    0.8372    0.4311 C   0  0  0  0  0  0  0  0  0  0  0  0
   -4.0711    0.1613   -1.3219 H   0  0  0  0  0  0  0  0  0  0  0  0
   -3.9522    0.5079   -3.0612 H   0  0  0  0  0  0  0  0  0  0  0  0
   -3.4355    1.7118   -1.8562 H   0  0  0  0  0  0  0  0  0  0  0  0
   -1.4678    0.5668   -2.8919 H   0  0  0  0  0  0  0  0  0  0  0  0
   -2.0663   -1.0012   -2.3558 H   0  0  0  0  0  0  0  0  0  0  0  0
   -3.4677    0.8204    4.2047 H   0  0  0  0  0  0  0  0  0  0  0  0
   -4.5226    1.5612    3.0028 H   0  0  0  0  0  0  0  0  0  0  0  0
   -4.2735   -1.4627    3.4480 H   0  0  0  0  0  0  0  0  0  0  0  0
   -5.6330   -0.4448    3.9722 H   0  0  0  0  0  0  0  0  0  0  0  0
   -5.2965   -0.6929    2.2418 H   0  0  0  0  0  0  0  0  0  0  0  0
    0.2673    0.9180    3.5469 H   0  0  0  0  0  0  0  0  0  0  0  0
    5.3756    0.9483   -2.4157 H   0  0  0  0  0  0  0  0  0  0  0  0
    5.4002   -0.5284   -4.4010 H   0  0  0  0  0  0  0  0  0  0  0  0
    3.5916   -2.1869   -4.7366 H   0  0  0  0  0  0  0  0  0  0  0  0
    1.7604   -2.3919   -3.1324 H   0  0  0  0  0  0  0  0  0  0  0  0
    0.9707   -2.7316   -1.2159 H   0  0  0  0  0  0  0  0  0  0  0  0
  1  2  1  0
  2  3  1  0
  3  4  1  0
  4  5  2  0
  4  6  1  0
  6  7  1  0
  7  8  2  0
  7  9  1  0
  9 10  1  0
 10 11  1  0
  6 12  2  3
 12 13  1  0
 13 14  2  0
 14 15  1  0
 14 16  1  0
 16 17  2  0
 17 18  1  0
 18 19  1  0
 19 20  1  0
 20 21  2  0
 21 22  1  0
 22 23  2  0
 23 24  1  0
 24 25  2  0
 25 26  1  0
 26 27  1  0
 26 28  2  0
 28 29  1  0
 28 12  1  0
 29 16  1  0
 29 19  2  0
 25 20  1  0
  1 30  1  0
  1 31  1  0
  1 32  1  0
  2 33  1  0
  2 34  1  0
 10 35  1  0
 10 36  1  0
 11 37  1  0
 11 38  1  0
 11 39  1  0
 13 40  1  0
 21 41  1  0
 22 42  1  0
 23 43  1  0
 24 44  1  0
 27 45  1  0
M  END
$$$$
