
     RDKit          3D

 33 35  0  0  0  0  0  0  0  0999 V2000
   -2.5949   -2.8374    2.3213 C   0  0  0  0  0  0  0  0  0  0  0  0
   -3.0358   -1.4177    2.6388 C   0  0  0  0  0  0  0  0  0  0  0  0
   -3.5823   -0.7324    1.4391 C   0  0  0  0  0  0  0  0  0  0  0  0
   -4.8529   -0.6421    1.0900 N   0  0  0  0  0  0  0  0  0  0  0  0
   -4.9244    0.0939   -0.0721 N   0  0  0  0  0  0  0  0  0  0  0  0
   -3.6976    0.4144   -0.3993 C   0  0  0  0  0  0  0  0  0  0  0  0
   -2.7976   -0.0921    0.5025 N   0  0  0  0  0  0  0  0  0  0  0  0
   -1.4379    0.0318    0.5445 N   0  0  0  0  0  0  0  0  0  0  0  0
   -0.8448    0.4587   -0.5366 C   0  0  0  0  0  0  0  0  0  0  0  0
    0.6408    0.6452   -0.4744 C   0  0  0  0  0  0  0  0  0  0  0  0
    1.2276    1.0008    0.7445 C   0  0  0  0  0  0  0  0  0  0  0  0
    2.6105    1.1795    0.8311 C   0  0  0  0  0  0  0  0  0  0  0  0
    3.4245    0.9994   -0.2892 C   0  0  0  0  0  0  0  0  0  0  0  0
    4.7567    1.2059   -0.0654 O   0  0  0  0  0  0  0  0  0  0  0  0
    5.6328    1.0359   -1.1726 C   0  0  0  0  0  0  0  0  0  0  0  0
    2.8419    0.6325   -1.5026 C   0  0  0  0  0  0  0  0  0  0  0  0
    1.4550    0.4527   -1.5963 C   0  0  0  0  0  0  0  0  0  0  0  0
   -1.5149    0.7085   -1.8837 C   0  0  0  0  0  0  0  0  0  0  0  0
   -3.1775    1.3851   -1.7183 S   0  0  0  0  0  0  0  0  0  0  0  0
   -3.4285   -3.4332    1.9338 H   0  0  0  0  0  0  0  0  0  0  0  0
   -1.7975   -2.8488    1.5705 H   0  0  0  0  0  0  0  0  0  0  0  0
   -2.2172   -3.3279    3.2240 H   0  0  0  0  0  0  0  0  0  0  0  0
   -3.8079   -1.4470    3.4165 H   0  0  0  0  0  0  0  0  0  0  0  0
   -2.1943   -0.8518    3.0543 H   0  0  0  0  0  0  0  0  0  0  0  0
    0.6182    1.1463    1.6339 H   0  0  0  0  0  0  0  0  0  0  0  0
    3.0578    1.4603    1.7822 H   0  0  0  0  0  0  0  0  0  0  0  0
    5.4024    1.7488   -1.9712 H   0  0  0  0  0  0  0  0  0  0  0  0
    6.6511    1.2397   -0.8277 H   0  0  0  0  0  0  0  0  0  0  0  0
    5.6060    0.0054   -1.5420 H   0  0  0  0  0  0  0  0  0  0  0  0
    3.4390    0.4719   -2.3947 H   0  0  0  0  0  0  0  0  0  0  0  0
    1.0425    0.1436   -2.5526 H   0  0  0  0  0  0  0  0  0  0  0  0
   -1.5665   -0.2447   -2.4208 H   0  0  0  0  0  0  0  0  0  0  0  0
   -0.9344    1.4149   -2.4831 H   0  0  0  0  0  0  0  0  0  0  0  0
  1  2  1  0
  2  3  1  0
  3  4  2  0
  4  5  1  0
  5  6  2  0
  6  7  1  0
  7  8  1  0
  8  9  2  0
  9 10  1  0
 10 11  2  0
 11 12  1  0
 12 13  2  0
 13 14  1  0
 14 15  1  0
 13 16  1  0
 16 17  2  0
  9 18  1  0
 18 19  1  0
  7  3  1  0
 17 10  1  0
 19  6  1  0
  1 20  1  0
  1 21  1  0
  1 22  1  0
  2 23  1  0
  2 24  1  0
 11 25  1  0
 12 26  1  0
 15 27  1  0
 15 28  1  0
 15 29  1  0
 16 30  1  0
 17 31  1  0
 18 32  1  0
 18 33  1  0
M  END
$$$$
