
     RDKit          3D

 42 44  0  0  0  0  0  0  0  0999 V2000
    1.8805    2.5224    1.4130 C   0  0  0  0  0  0  0  0  0  0  0  0
    2.1848    1.5470    0.4227 O   0  0  0  0  0  0  0  0  0  0  0  0
    1.1425    0.8140   -0.0869 C   0  0  0  0  0  0  0  0  0  0  0  0
   -0.1847    0.8772    0.3727 C   0  0  0  0  0  0  0  0  0  0  0  0
   -1.2191    0.0843   -0.1668 C   0  0  0  0  0  0  0  0  0  0  0  0
   -2.5119    0.1483    0.3407 N   0  0  0  0  0  0  0  0  0  0  0  0
   -2.8931    1.0189    1.4526 C   0  0  0  0  0  0  0  0  0  0  0  0
   -4.3440    0.6389    1.7206 C   0  0  0  0  0  0  0  0  0  0  0  0
   -4.3294   -0.8609    1.4915 C   0  0  0  0  0  0  0  0  0  0  0  0
   -3.3946   -1.0278    0.2924 C   0  0  0  0  0  0  0  0  0  0  0  0
   -0.8535   -0.7327   -1.2585 C   0  0  0  0  0  0  0  0  0  0  0  0
   -1.7766   -1.4944   -1.9413 O   0  0  0  0  0  0  0  0  0  0  0  0
   -2.3349   -0.7201   -3.0058 C   0  0  0  0  0  0  0  0  0  0  0  0
    0.4698   -0.8332   -1.7079 C   0  0  0  0  0  0  0  0  0  0  0  0
    1.4792   -0.0616   -1.1280 C   0  0  0  0  0  0  0  0  0  0  0  0
    2.8967   -0.1730   -1.6365 C   0  0  0  0  0  0  0  0  0  0  0  0
    3.8291   -0.7206   -0.6128 C   0  0  0  0  0  0  0  0  0  0  0  0
    3.7844   -1.8807   -0.0277 N   0  0  0  0  0  0  0  0  0  0  0  0
    4.8568   -1.9066    0.8405 C   0  0  0  0  0  0  0  0  0  0  0  0
    5.3101   -3.1548    1.8409 S   0  0  0  0  0  0  0  0  0  0  0  0
    5.5576   -0.7451    0.7928 N   0  0  0  0  0  0  0  0  0  0  0  0
    5.0235    0.0649   -0.1382 C   0  0  0  0  0  0  0  0  0  0  0  0
    5.4057    1.1268   -0.5697 O   0  0  0  0  0  0  0  0  0  0  0  0
    2.8098    3.0435    1.6652 H   0  0  0  0  0  0  0  0  0  0  0  0
    1.1739    3.2677    1.0317 H   0  0  0  0  0  0  0  0  0  0  0  0
    1.5074    2.0495    2.3278 H   0  0  0  0  0  0  0  0  0  0  0  0
   -0.4241    1.5457    1.1903 H   0  0  0  0  0  0  0  0  0  0  0  0
   -2.8054    2.0793    1.1956 H   0  0  0  0  0  0  0  0  0  0  0  0
   -2.2874    0.8033    2.3417 H   0  0  0  0  0  0  0  0  0  0  0  0
   -4.6702    0.9104    2.7289 H   0  0  0  0  0  0  0  0  0  0  0  0
   -5.0072    1.1278    0.9962 H   0  0  0  0  0  0  0  0  0  0  0  0
   -3.9075   -1.3686    2.3679 H   0  0  0  0  0  0  0  0  0  0  0  0
   -5.3248   -1.2751    1.3066 H   0  0  0  0  0  0  0  0  0  0  0  0
   -3.9798   -1.0200   -0.6337 H   0  0  0  0  0  0  0  0  0  0  0  0
   -2.8545   -1.9773    0.3797 H   0  0  0  0  0  0  0  0  0  0  0  0
   -3.0535   -1.3529   -3.5346 H   0  0  0  0  0  0  0  0  0  0  0  0
   -2.8705    0.1562   -2.6260 H   0  0  0  0  0  0  0  0  0  0  0  0
   -1.5660   -0.4129   -3.7234 H   0  0  0  0  0  0  0  0  0  0  0  0
    0.6951   -1.5154   -2.5232 H   0  0  0  0  0  0  0  0  0  0  0  0
    2.9424   -0.8379   -2.5078 H   0  0  0  0  0  0  0  0  0  0  0  0
    3.2348    0.8108   -1.9806 H   0  0  0  0  0  0  0  0  0  0  0  0
    6.4087   -0.5651    1.2974 H   0  0  0  0  0  0  0  0  0  0  0  0
  1  2  1  0
  2  3  1  0
  3  4  2  0
  4  5  1  0
  5  6  1  0
  6  7  1  0
  7  8  1  0
  8  9  1  0
  9 10  1  0
  5 11  2  0
 11 12  1  0
 12 13  1  0
 11 14  1  0
 14 15  2  0
 15 16  1  0
 16 17  1  0
 17 18  2  0
 18 19  1  0
 19 20  2  0
 19 21  1  0
 21 22  1  0
 22 23  2  0
 15  3  1  0
 22 17  1  0
 10  6  1  0
  1 24  1  0
  1 25  1  0
  1 26  1  0
  4 27  1  0
  7 28  1  0
  7 29  1  0
  8 30  1  0
  8 31  1  0
  9 32  1  0
  9 33  1  0
 10 34  1  0
 10 35  1  0
 13 36  1  0
 13 37  1  0
 13 38  1  0
 14 39  1  0
 16 40  1  0
 16 41  1  0
 21 42  1  0
M  END
$$$$
