
     RDKit          3D

 37 37  0  0  0  0  0  0  0  0999 V2000
    6.4877   -0.3797   -0.5490 C   0  0  0  0  0  0  0  0  0  0  0  0
    4.9807   -0.5746   -0.4769 C   0  0  0  0  0  0  0  0  0  0  0  0
    4.2505    0.3689   -1.4333 C   0  0  0  0  0  0  0  0  0  0  0  0
    2.7383    0.1351   -1.4809 C   0  0  0  0  0  0  0  0  0  0  0  0
    2.0322    0.4568   -0.1645 C   0  0  0  0  0  0  0  0  0  0  0  0
    0.5210    0.3328   -0.2760 C   0  0  0  0  0  0  0  0  0  0  0  0
   -0.0517    0.0074   -1.3113 O   0  0  0  0  0  0  0  0  0  0  0  0
   -0.1043    0.6163    0.9437 N   0  0  0  0  0  0  0  0  0  0  0  0
   -1.4576    0.8235    0.9979 N   0  0  0  0  0  0  0  0  0  0  0  0
   -2.2591   -0.1744    0.7441 C   0  0  0  0  0  0  0  0  0  0  0  0
   -1.8110   -1.6105    0.5448 C   0  0  0  0  0  0  0  0  0  0  0  0
   -3.7307    0.1013    0.6812 C   0  0  0  0  0  0  0  0  0  0  0  0
   -4.2467    1.2269    1.3396 C   0  0  0  0  0  0  0  0  0  0  0  0
   -5.6153    1.5075    1.2933 C   0  0  0  0  0  0  0  0  0  0  0  0
   -6.4695    0.6675    0.5826 C   0  0  0  0  0  0  0  0  0  0  0  0
   -8.1539    1.0111    0.5243 Cl  0  0  0  0  0  0  0  0  0  0  0  0
   -5.9667   -0.4477   -0.0857 C   0  0  0  0  0  0  0  0  0  0  0  0
   -4.5975   -0.7304   -0.0396 C   0  0  0  0  0  0  0  0  0  0  0  0
    6.8623   -0.5838   -1.5571 H   0  0  0  0  0  0  0  0  0  0  0  0
    6.9914   -1.0605    0.1444 H   0  0  0  0  0  0  0  0  0  0  0  0
    6.7637    0.6450   -0.2801 H   0  0  0  0  0  0  0  0  0  0  0  0
    4.6546   -0.3999    0.5539 H   0  0  0  0  0  0  0  0  0  0  0  0
    4.7410   -1.6152   -0.7240 H   0  0  0  0  0  0  0  0  0  0  0  0
    4.4531    1.4100   -1.1538 H   0  0  0  0  0  0  0  0  0  0  0  0
    4.6495    0.2313   -2.4461 H   0  0  0  0  0  0  0  0  0  0  0  0
    2.3199    0.7635   -2.2775 H   0  0  0  0  0  0  0  0  0  0  0  0
    2.5332   -0.9036   -1.7684 H   0  0  0  0  0  0  0  0  0  0  0  0
    2.3650   -0.2272    0.6238 H   0  0  0  0  0  0  0  0  0  0  0  0
    2.2701    1.4820    0.1423 H   0  0  0  0  0  0  0  0  0  0  0  0
    0.4069    1.2641    1.5368 H   0  0  0  0  0  0  0  0  0  0  0  0
   -2.5463   -2.3027    0.9663 H   0  0  0  0  0  0  0  0  0  0  0  0
   -0.8664   -1.8060    1.0590 H   0  0  0  0  0  0  0  0  0  0  0  0
   -1.6964   -1.8208   -0.5215 H   0  0  0  0  0  0  0  0  0  0  0  0
   -3.5870    1.8913    1.8936 H   0  0  0  0  0  0  0  0  0  0  0  0
   -6.0035    2.3817    1.8093 H   0  0  0  0  0  0  0  0  0  0  0  0
   -6.6319   -1.0963   -0.6501 H   0  0  0  0  0  0  0  0  0  0  0  0
   -4.2256   -1.5908   -0.5893 H   0  0  0  0  0  0  0  0  0  0  0  0
  1  2  1  0
  2  3  1  0
  3  4  1  0
  4  5  1  0
  5  6  1  0
  6  7  2  0
  6  8  1  0
  8  9  1  0
  9 10  2  3
 10 11  1  0
 10 12  1  0
 12 13  2  0
 13 14  1  0
 14 15  2  0
 15 16  1  0
 15 17  1  0
 17 18  2  0
 18 12  1  0
  1 19  1  0
  1 20  1  0
  1 21  1  0
  2 22  1  0
  2 23  1  0
  3 24  1  0
  3 25  1  0
  4 26  1  0
  4 27  1  0
  5 28  1  0
  5 29  1  0
  8 30  1  0
 11 31  1  0
 11 32  1  0
 11 33  1  0
 13 34  1  0
 14 35  1  0
 17 36  1  0
 18 37  1  0
M  END
$$$$
