
     RDKit          3D

 58 61  0  0  0  0  0  0  0  0999 V2000
    1.5791   -2.3017    0.4909 O   0  0  0  0  0  0  0  0  0  0  0  0
    1.7647   -1.3716   -0.2899 C   0  0  0  0  0  0  0  0  0  0  0  0
    3.0407   -0.5577   -0.3723 C   0  0  0  0  0  0  0  0  0  0  0  0
    4.0721   -0.9957    0.6686 C   0  0  0  0  0  0  0  0  0  0  0  0
    5.3339   -0.1139    0.6740 C   0  0  0  0  0  0  0  0  0  0  0  0
    6.0838   -0.1641   -0.6722 C   0  0  0  0  0  0  0  0  0  0  0  0
    7.5779    0.1520   -0.5606 C   0  0  0  0  0  0  0  0  0  0  0  0
    7.8810    1.0677    0.6161 C   0  0  0  0  0  0  0  0  0  0  0  0
    7.4645    0.4357    1.9443 C   0  0  0  0  0  0  0  0  0  0  0  0
    6.2667   -0.5109    1.8249 C   0  0  0  0  0  0  0  0  0  0  0  0
    0.8095   -0.9674   -1.2076 N   0  0  0  0  0  0  0  0  0  0  0  0
   -0.5023   -1.4677   -1.0010 N   0  0  0  0  0  0  0  0  0  0  0  0
   -1.4871   -0.5044   -0.8664 C   0  0  0  0  0  0  0  0  0  0  0  0
   -1.2831    0.6831   -1.0903 O   0  0  0  0  0  0  0  0  0  0  0  0
   -2.6785   -1.0570   -0.4687 N   0  0  0  0  0  0  0  0  0  0  0  0
   -3.9218   -0.2966   -0.3001 C   0  0  0  0  0  0  0  0  0  0  0  0
   -5.0214   -1.2707    0.2034 C   0  0  0  0  0  0  0  0  0  0  0  0
   -6.3593   -0.5394    0.3991 C   0  0  0  0  0  0  0  0  0  0  0  0
   -6.1747    0.5812    1.4338 C   0  0  0  0  0  0  0  0  0  0  0  0
   -5.1074    1.5732    0.9465 C   0  0  0  0  0  0  0  0  0  0  0  0
   -5.5491    2.1758   -0.3983 C   0  0  0  0  0  0  0  0  0  0  0  0
   -5.7363    1.0614   -1.4422 C   0  0  0  0  0  0  0  0  0  0  0  0
   -6.8001    0.0718   -0.9407 C   0  0  0  0  0  0  0  0  0  0  0  0
   -4.4020    0.3193   -1.6374 C   0  0  0  0  0  0  0  0  0  0  0  0
   -3.7730    0.8308    0.7539 C   0  0  0  0  0  0  0  0  0  0  0  0
    2.7838    0.4972   -0.2192 H   0  0  0  0  0  0  0  0  0  0  0  0
    3.4453   -0.6715   -1.3842 H   0  0  0  0  0  0  0  0  0  0  0  0
    4.3495   -2.0432    0.4933 H   0  0  0  0  0  0  0  0  0  0  0  0
    3.6091   -0.9639    1.6636 H   0  0  0  0  0  0  0  0  0  0  0  0
    5.0154    0.9237    0.8489 H   0  0  0  0  0  0  0  0  0  0  0  0
    5.6171    0.5547   -1.3577 H   0  0  0  0  0  0  0  0  0  0  0  0
    5.9757   -1.1492   -1.1429 H   0  0  0  0  0  0  0  0  0  0  0  0
    8.1374   -0.7844   -0.4396 H   0  0  0  0  0  0  0  0  0  0  0  0
    7.9286    0.6045   -1.4951 H   0  0  0  0  0  0  0  0  0  0  0  0
    8.9488    1.3123    0.6442 H   0  0  0  0  0  0  0  0  0  0  0  0
    7.3473    2.0171    0.4799 H   0  0  0  0  0  0  0  0  0  0  0  0
    8.3084   -0.1195    2.3717 H   0  0  0  0  0  0  0  0  0  0  0  0
    7.2346    1.2369    2.6575 H   0  0  0  0  0  0  0  0  0  0  0  0
    6.6308   -1.5343    1.6621 H   0  0  0  0  0  0  0  0  0  0  0  0
    5.7251   -0.5241    2.7784 H   0  0  0  0  0  0  0  0  0  0  0  0
    0.8306   -0.0045   -1.5489 H   0  0  0  0  0  0  0  0  0  0  0  0
   -0.5313   -2.2196   -0.3118 H   0  0  0  0  0  0  0  0  0  0  0  0
   -2.7823   -2.0229   -0.7479 H   0  0  0  0  0  0  0  0  0  0  0  0
   -5.1538   -2.0929   -0.5133 H   0  0  0  0  0  0  0  0  0  0  0  0
   -4.7104   -1.7366    1.1485 H   0  0  0  0  0  0  0  0  0  0  0  0
   -7.1194   -1.2458    0.7509 H   0  0  0  0  0  0  0  0  0  0  0  0
   -5.8773    0.1548    2.3999 H   0  0  0  0  0  0  0  0  0  0  0  0
   -7.1260    1.1030    1.5955 H   0  0  0  0  0  0  0  0  0  0  0  0
   -4.9814    2.3722    1.6857 H   0  0  0  0  0  0  0  0  0  0  0  0
   -6.4877    2.7287   -0.2694 H   0  0  0  0  0  0  0  0  0  0  0  0
   -4.8009    2.8966   -0.7500 H   0  0  0  0  0  0  0  0  0  0  0  0
   -6.0576    1.4976   -2.3948 H   0  0  0  0  0  0  0  0  0  0  0  0
   -6.9537   -0.7216   -1.6827 H   0  0  0  0  0  0  0  0  0  0  0  0
   -7.7621    0.5850   -0.8198 H   0  0  0  0  0  0  0  0  0  0  0  0
   -3.6568    1.0186   -2.0354 H   0  0  0  0  0  0  0  0  0  0  0  0
   -4.5197   -0.4671   -2.3943 H   0  0  0  0  0  0  0  0  0  0  0  0
   -3.4373    0.4102    1.7110 H   0  0  0  0  0  0  0  0  0  0  0  0
   -3.0076    1.5547    0.4521 H   0  0  0  0  0  0  0  0  0  0  0  0
  1  2  2  0
  2  3  1  0
  3  4  1  0
  4  5  1  0
  5  6  1  0
  6  7  1  0
  7  8  1  0
  8  9  1  0
  9 10  1  0
  2 11  1  0
 11 12  1  0
 12 13  1  0
 13 14  2  0
 13 15  1  0
 15 16  1  0
 16 17  1  0
 17 18  1  0
 18 19  1  0
 19 20  1  0
 20 21  1  0
 21 22  1  0
 22 23  1  0
 22 24  1  0
 20 25  1  0
 10  5  1  0
 24 16  1  0
 25 16  1  0
 23 18  1  0
  3 26  1  0
  3 27  1  0
  4 28  1  0
  4 29  1  0
  5 30  1  0
  6 31  1  0
  6 32  1  0
  7 33  1  0
  7 34  1  0
  8 35  1  0
  8 36  1  0
  9 37  1  0
  9 38  1  0
 10 39  1  0
 10 40  1  0
 11 41  1  0
 12 42  1  0
 15 43  1  0
 17 44  1  0
 17 45  1  0
 18 46  1  0
 19 47  1  0
 19 48  1  0
 20 49  1  0
 21 50  1  0
 21 51  1  0
 22 52  1  0
 23 53  1  0
 23 54  1  0
 24 55  1  0
 24 56  1  0
 25 57  1  0
 25 58  1  0
M  END
$$$$
