
     RDKit          3D

 64 68  0  0  0  0  0  0  0  0999 V2000
   -5.3900   -1.0908   -2.8131 C   0  0  0  0  0  0  0  0  0  0  0  0
   -4.1840   -1.9689   -3.1734 C   0  0  0  0  0  0  0  0  0  0  0  0
   -4.6099   -3.4443   -3.2375 C   0  0  0  0  0  0  0  0  0  0  0  0
   -3.7026   -1.5539   -4.5804 C   0  0  0  0  0  0  0  0  0  0  0  0
   -2.9843   -1.8339   -2.1986 C   0  0  0  0  0  0  0  0  0  0  0  0
   -1.8342   -2.0683   -2.5843 O   0  0  0  0  0  0  0  0  0  0  0  0
   -3.1862   -1.5455   -0.7420 C   0  0  0  0  0  0  0  0  0  0  0  0
   -4.1530   -2.3517   -0.0747 C   0  0  0  0  0  0  0  0  0  0  0  0
   -4.9589   -2.9958    0.4566 N   0  0  0  0  0  0  0  0  0  0  0  0
   -2.3404   -0.7375   -0.0571 C   0  0  0  0  0  0  0  0  0  0  0  0
   -2.2621   -0.7931    1.6968 S   0  0  0  0  0  0  0  0  0  0  0  0
   -0.6681   -0.1299    1.6884 C   0  0  0  0  0  0  0  0  0  0  0  0
    0.1329   -0.1716    2.7635 C   0  0  0  0  0  0  0  0  0  0  0  0
    1.4629    0.3220    2.8600 C   0  0  0  0  0  0  0  0  0  0  0  0
    1.8040    1.5703    3.3196 C   0  0  0  0  0  0  0  0  0  0  0  0
    3.1806    1.6376    3.2993 N   0  0  0  0  0  0  0  0  0  0  0  0
    4.0090    2.7418    3.6504 C   0  0  0  0  0  0  0  0  0  0  0  0
    3.4587    3.9656    4.0579 C   0  0  0  0  0  0  0  0  0  0  0  0
    4.2971    5.0326    4.3938 C   0  0  0  0  0  0  0  0  0  0  0  0
    5.6820    4.8876    4.3256 C   0  0  0  0  0  0  0  0  0  0  0  0
    6.2354    3.6754    3.9209 C   0  0  0  0  0  0  0  0  0  0  0  0
    5.4047    2.6051    3.5825 C   0  0  0  0  0  0  0  0  0  0  0  0
    3.7271    0.4542    2.9133 N   0  0  0  0  0  0  0  0  0  0  0  0
    2.6915   -0.3334    2.5966 C   0  0  0  0  0  0  0  0  0  0  0  0
    2.9079   -1.6789    2.0951 C   0  0  0  0  0  0  0  0  0  0  0  0
    2.4540   -2.0704    0.8339 C   0  0  0  0  0  0  0  0  0  0  0  0
    2.6636   -3.3789    0.4040 C   0  0  0  0  0  0  0  0  0  0  0  0
    3.3263   -4.2519    1.2528 C   0  0  0  0  0  0  0  0  0  0  0  0
    3.7884   -3.9074    2.4744 N   0  0  0  0  0  0  0  0  0  0  0  0
    3.5795   -2.6240    2.8619 C   0  0  0  0  0  0  0  0  0  0  0  0
   -0.3490    0.4713    0.3630 C   0  0  0  0  0  0  0  0  0  0  0  0
    0.6216    1.1895    0.1684 O   0  0  0  0  0  0  0  0  0  0  0  0
   -1.3548    0.1178   -0.5577 N   0  0  0  0  0  0  0  0  0  0  0  0
   -1.3984    0.8133   -1.8061 C   0  0  0  0  0  0  0  0  0  0  0  0
   -0.2384    0.9958   -2.5743 C   0  0  0  0  0  0  0  0  0  0  0  0
   -0.2842    1.7116   -3.7732 C   0  0  0  0  0  0  0  0  0  0  0  0
   -1.4853    2.2639   -4.1965 C   0  0  0  0  0  0  0  0  0  0  0  0
   -1.5299    2.9573   -5.3411 F   0  0  0  0  0  0  0  0  0  0  0  0
   -2.6420    2.1172   -3.4416 C   0  0  0  0  0  0  0  0  0  0  0  0
   -2.6001    1.3910   -2.2482 C   0  0  0  0  0  0  0  0  0  0  0  0
   -5.1036   -0.0424   -2.6921 H   0  0  0  0  0  0  0  0  0  0  0  0
   -6.1538   -1.1339   -3.5987 H   0  0  0  0  0  0  0  0  0  0  0  0
   -5.8776   -1.4086   -1.8874 H   0  0  0  0  0  0  0  0  0  0  0  0
   -5.3638   -3.6042   -4.0167 H   0  0  0  0  0  0  0  0  0  0  0  0
   -5.0400   -3.7880   -2.2924 H   0  0  0  0  0  0  0  0  0  0  0  0
   -3.7561   -4.0949   -3.4586 H   0  0  0  0  0  0  0  0  0  0  0  0
   -4.5121   -1.6187   -5.3165 H   0  0  0  0  0  0  0  0  0  0  0  0
   -3.3296   -0.5252   -4.5844 H   0  0  0  0  0  0  0  0  0  0  0  0
   -2.8879   -2.1974   -4.9334 H   0  0  0  0  0  0  0  0  0  0  0  0
   -0.2417   -0.6450    3.6700 H   0  0  0  0  0  0  0  0  0  0  0  0
    1.1919    2.3984    3.6399 H   0  0  0  0  0  0  0  0  0  0  0  0
    2.3869    4.1260    4.1216 H   0  0  0  0  0  0  0  0  0  0  0  0
    3.8683    5.9815    4.7076 H   0  0  0  0  0  0  0  0  0  0  0  0
    6.3305    5.7198    4.5857 H   0  0  0  0  0  0  0  0  0  0  0  0
    7.3148    3.5599    3.8647 H   0  0  0  0  0  0  0  0  0  0  0  0
    5.8615    1.6690    3.2646 H   0  0  0  0  0  0  0  0  0  0  0  0
    1.9652   -1.3597    0.1737 H   0  0  0  0  0  0  0  0  0  0  0  0
    2.3278   -3.7063   -0.5737 H   0  0  0  0  0  0  0  0  0  0  0  0
    3.5142   -5.2814    0.9606 H   0  0  0  0  0  0  0  0  0  0  0  0
    3.9758   -2.3719    3.8428 H   0  0  0  0  0  0  0  0  0  0  0  0
    0.7113    0.5693   -2.2592 H   0  0  0  0  0  0  0  0  0  0  0  0
    0.6122    1.8440   -4.3708 H   0  0  0  0  0  0  0  0  0  0  0  0
   -3.5635    2.5817   -3.7809 H   0  0  0  0  0  0  0  0  0  0  0  0
   -3.5020    1.3373   -1.6452 H   0  0  0  0  0  0  0  0  0  0  0  0
  1  2  1  0
  2  3  1  0
  2  4  1  0
  2  5  1  0
  5  6  2  0
  5  7  1  0
  7  8  1  0
  8  9  3  0
  7 10  2  3
 10 11  1  0
 11 12  1  0
 12 13  2  3
 13 14  1  0
 14 15  2  0
 15 16  1  0
 16 17  1  0
 17 18  2  0
 18 19  1  0
 19 20  2  0
 20 21  1  0
 21 22  2  0
 16 23  1  0
 23 24  2  0
 24 25  1  0
 25 26  2  0
 26 27  1  0
 27 28  2  0
 28 29  1  0
 29 30  2  0
 12 31  1  0
 31 32  2  0
 31 33  1  0
 33 34  1  0
 34 35  2  0
 35 36  1  0
 36 37  2  0
 37 38  1  0
 37 39  1  0
 39 40  2  0
 33 10  1  0
 40 34  1  0
 24 14  1  0
 30 25  1  0
 22 17  1  0
  1 41  1  0
  1 42  1  0
  1 43  1  0
  3 44  1  0
  3 45  1  0
  3 46  1  0
  4 47  1  0
  4 48  1  0
  4 49  1  0
 13 50  1  0
 15 51  1  0
 18 52  1  0
 19 53  1  0
 20 54  1  0
 21 55  1  0
 22 56  1  0
 26 57  1  0
 27 58  1  0
 28 59  1  0
 30 60  1  0
 35 61  1  0
 36 62  1  0
 39 63  1  0
 40 64  1  0
M  END
$$$$
