
     RDKit          3D

 37 40  0  0  0  0  0  0  0  0999 V2000
    6.2680   -0.6475   -1.3401 C   0  0  0  0  0  0  0  0  0  0  0  0
    4.8281   -0.6390   -0.9122 C   0  0  0  0  0  0  0  0  0  0  0  0
    3.8997   -1.4615   -1.5555 C   0  0  0  0  0  0  0  0  0  0  0  0
    2.5600   -1.4879   -1.1498 C   0  0  0  0  0  0  0  0  0  0  0  0
    2.1380   -0.6845   -0.0727 C   0  0  0  0  0  0  0  0  0  0  0  0
    0.8509   -0.6117    0.4342 N   0  0  0  0  0  0  0  0  0  0  0  0
    0.8180    0.2413    1.4299 C   0  0  0  0  0  0  0  0  0  0  0  0
   -0.3491    0.4840    2.1052 N   0  0  0  0  0  0  0  0  0  0  0  0
   -0.5783    1.4320    3.0768 C   0  0  0  0  0  0  0  0  0  0  0  0
    0.2274    2.2523    3.5084 O   0  0  0  0  0  0  0  0  0  0  0  0
   -1.9958    1.3818    3.6293 C   0  0  0  0  0  0  0  0  0  0  0  0
   -3.1052    2.4583    2.6844 S   0  0  0  0  0  0  0  0  0  0  0  0
   -3.4071    1.4842    1.2753 C   0  0  0  0  0  0  0  0  0  0  0  0
   -2.8785    0.2864    1.0896 N   0  0  0  0  0  0  0  0  0  0  0  0
   -3.3531   -0.0918   -0.1424 C   0  0  0  0  0  0  0  0  0  0  0  0
   -3.1336   -1.2497   -0.8983 C   0  0  0  0  0  0  0  0  0  0  0  0
   -3.7691   -1.3519   -2.1456 C   0  0  0  0  0  0  0  0  0  0  0  0
   -4.5979   -0.3280   -2.6237 C   0  0  0  0  0  0  0  0  0  0  0  0
   -4.8226    0.8367   -1.8793 C   0  0  0  0  0  0  0  0  0  0  0  0
   -4.1746    0.8987   -0.6524 C   0  0  0  0  0  0  0  0  0  0  0  0
   -4.2152    1.9138    0.2557 O   0  0  0  0  0  0  0  0  0  0  0  0
    2.2945    0.9758    1.8408 S   0  0  0  0  0  0  0  0  0  0  0  0
    3.0783    0.1207    0.5704 C   0  0  0  0  0  0  0  0  0  0  0  0
    4.4260    0.1554    0.1733 C   0  0  0  0  0  0  0  0  0  0  0  0
    6.7373    0.3238   -1.1515 H   0  0  0  0  0  0  0  0  0  0  0  0
    6.8164   -1.4187   -0.7906 H   0  0  0  0  0  0  0  0  0  0  0  0
    6.3552   -0.8467   -2.4134 H   0  0  0  0  0  0  0  0  0  0  0  0
    4.2095   -2.0937   -2.3856 H   0  0  0  0  0  0  0  0  0  0  0  0
    1.8418   -2.1242   -1.6569 H   0  0  0  0  0  0  0  0  0  0  0  0
   -1.1473   -0.0099    1.7113 H   0  0  0  0  0  0  0  0  0  0  0  0
   -1.9632    1.7395    4.6643 H   0  0  0  0  0  0  0  0  0  0  0  0
   -2.3664    0.3520    3.6679 H   0  0  0  0  0  0  0  0  0  0  0  0
   -2.4861   -2.0388   -0.5315 H   0  0  0  0  0  0  0  0  0  0  0  0
   -3.6116   -2.2419   -2.7523 H   0  0  0  0  0  0  0  0  0  0  0  0
   -5.0748   -0.4379   -3.5964 H   0  0  0  0  0  0  0  0  0  0  0  0
   -5.4554    1.6404   -2.2341 H   0  0  0  0  0  0  0  0  0  0  0  0
    5.1359    0.7883    0.6987 H   0  0  0  0  0  0  0  0  0  0  0  0
  1  2  1  0
  2  3  2  0
  3  4  1  0
  4  5  2  0
  5  6  1  0
  6  7  2  0
  7  8  1  0
  8  9  1  0
  9 10  2  0
  9 11  1  0
 11 12  1  0
 12 13  1  0
 13 14  2  0
 14 15  1  0
 15 16  2  0
 16 17  1  0
 17 18  2  0
 18 19  1  0
 19 20  2  0
 20 21  1  0
  7 22  1  0
 22 23  1  0
 23 24  2  0
 24  2  1  0
 23  5  1  0
 21 13  1  0
 20 15  1  0
  1 25  1  0
  1 26  1  0
  1 27  1  0
  3 28  1  0
  4 29  1  0
  8 30  1  0
 11 31  1  0
 11 32  1  0
 16 33  1  0
 17 34  1  0
 18 35  1  0
 19 36  1  0
 24 37  1  0
M  END
$$$$
