
     RDKit          3D

 47 50  0  0  0  0  0  0  0  0999 V2000
    0.3539    3.7057    0.0907 O   0  0  0  0  0  0  0  0  0  0  0  0
    0.3706    2.4907   -0.1249 C   0  0  0  0  0  0  0  0  0  0  0  0
   -0.8699    1.7981   -0.6653 C   0  0  0  0  0  0  0  0  0  0  0  0
   -1.9605    1.3563    0.7171 S   0  0  0  0  0  0  0  0  0  0  0  0
   -3.2634    0.6168   -0.1562 C   0  0  0  0  0  0  0  0  0  0  0  0
   -3.2372    0.3130   -1.4377 N   0  0  0  0  0  0  0  0  0  0  0  0
   -4.4537   -0.2673   -1.7312 N   0  0  0  0  0  0  0  0  0  0  0  0
   -5.1420   -0.2795   -0.6069 C   0  0  0  0  0  0  0  0  0  0  0  0
   -6.4848   -0.7756   -0.3343 C   0  0  0  0  0  0  0  0  0  0  0  0
   -7.0616   -0.6923    0.9426 C   0  0  0  0  0  0  0  0  0  0  0  0
   -8.3517   -1.1768    1.1764 C   0  0  0  0  0  0  0  0  0  0  0  0
   -9.0810   -1.7506    0.1374 C   0  0  0  0  0  0  0  0  0  0  0  0
   -8.5234   -1.8406   -1.1358 C   0  0  0  0  0  0  0  0  0  0  0  0
   -7.2340   -1.3558   -1.3697 C   0  0  0  0  0  0  0  0  0  0  0  0
   -4.4440    0.2636    0.4396 O   0  0  0  0  0  0  0  0  0  0  0  0
    1.5025    1.7245    0.1120 N   0  0  0  0  0  0  0  0  0  0  0  0
    1.5829    0.2671   -0.0447 C   0  0  0  0  0  0  0  0  0  0  0  0
    2.7685   -0.3699    0.7067 C   0  0  0  0  0  0  0  0  0  0  0  0
    4.0392    0.2695    0.3381 N   0  0  0  0  0  0  0  0  0  0  0  0
    5.2559   -0.3759    0.5158 C   0  0  0  0  0  0  0  0  0  0  0  0
    5.3858   -1.5276    1.3093 C   0  0  0  0  0  0  0  0  0  0  0  0
    6.6151   -2.1779    1.4797 C   0  0  0  0  0  0  0  0  0  0  0  0
    7.7546   -1.6924    0.8510 C   0  0  0  0  0  0  0  0  0  0  0  0
    7.6608   -0.5598    0.0529 C   0  0  0  0  0  0  0  0  0  0  0  0
    6.4277    0.0839   -0.1099 C   0  0  0  0  0  0  0  0  0  0  0  0
    4.0069    1.7165    0.0485 C   0  0  0  0  0  0  0  0  0  0  0  0
    2.7249    2.3865    0.5763 C   0  0  0  0  0  0  0  0  0  0  0  0
   -1.3809    2.5013   -1.3326 H   0  0  0  0  0  0  0  0  0  0  0  0
   -0.6045    0.9221   -1.2627 H   0  0  0  0  0  0  0  0  0  0  0  0
   -6.5137   -0.2478    1.7713 H   0  0  0  0  0  0  0  0  0  0  0  0
   -8.7867   -1.1050    2.1704 H   0  0  0  0  0  0  0  0  0  0  0  0
  -10.0845   -2.1271    0.3197 H   0  0  0  0  0  0  0  0  0  0  0  0
   -9.0909   -2.2873   -1.9486 H   0  0  0  0  0  0  0  0  0  0  0  0
   -6.8148   -1.4342   -2.3720 H   0  0  0  0  0  0  0  0  0  0  0  0
    1.6805    0.0744   -1.1199 H   0  0  0  0  0  0  0  0  0  0  0  0
    0.6511   -0.1932    0.2955 H   0  0  0  0  0  0  0  0  0  0  0  0
    2.6145   -0.2730    1.7884 H   0  0  0  0  0  0  0  0  0  0  0  0
    2.7784   -1.4371    0.4552 H   0  0  0  0  0  0  0  0  0  0  0  0
    4.5304   -1.9373    1.8378 H   0  0  0  0  0  0  0  0  0  0  0  0
    6.6755   -3.0622    2.1084 H   0  0  0  0  0  0  0  0  0  0  0  0
    8.7089   -2.1950    0.9801 H   0  0  0  0  0  0  0  0  0  0  0  0
    8.5423   -0.1742   -0.4520 H   0  0  0  0  0  0  0  0  0  0  0  0
    6.3976    0.9502   -0.7651 H   0  0  0  0  0  0  0  0  0  0  0  0
    4.0676    1.8557   -1.0377 H   0  0  0  0  0  0  0  0  0  0  0  0
    4.8594    2.2311    0.5082 H   0  0  0  0  0  0  0  0  0  0  0  0
    2.7213    3.4434    0.2894 H   0  0  0  0  0  0  0  0  0  0  0  0
    2.7060    2.3448    1.6724 H   0  0  0  0  0  0  0  0  0  0  0  0
  1  2  2  0
  2  3  1  0
  3  4  1  0
  4  5  1  0
  5  6  2  0
  6  7  1  0
  7  8  2  0
  8  9  1  0
  9 10  2  0
 10 11  1  0
 11 12  2  0
 12 13  1  0
 13 14  2  0
  8 15  1  0
  2 16  1  0
 16 17  1  0
 17 18  1  0
 18 19  1  0
 19 20  1  0
 20 21  2  0
 21 22  1  0
 22 23  2  0
 23 24  1  0
 24 25  2  0
 19 26  1  0
 26 27  1  0
 15  5  1  0
 27 16  1  0
 14  9  1  0
 25 20  1  0
  3 28  1  0
  3 29  1  0
 10 30  1  0
 11 31  1  0
 12 32  1  0
 13 33  1  0
 14 34  1  0
 17 35  1  0
 17 36  1  0
 18 37  1  0
 18 38  1  0
 21 39  1  0
 22 40  1  0
 23 41  1  0
 24 42  1  0
 25 43  1  0
 26 44  1  0
 26 45  1  0
 27 46  1  0
 27 47  1  0
M  END
$$$$
