
     RDKit          3D

 42 43  0  0  0  0  0  0  0  0999 V2000
   -1.9171    3.2275    0.3769 C   0  0  0  0  0  0  0  0  0  0  0  0
   -0.7364    2.3820    0.7694 C   0  0  0  0  0  0  0  0  0  0  0  0
    0.4962    3.0216    0.9975 C   0  0  0  0  0  0  0  0  0  0  0  0
    1.6248    2.2984    1.3890 C   0  0  0  0  0  0  0  0  0  0  0  0
    1.5278    0.9194    1.5664 C   0  0  0  0  0  0  0  0  0  0  0  0
    2.9562   -0.0218    2.0524 S   0  0  0  0  0  6  0  0  0  0  0  0
    4.0832    0.8888    2.1359 O   0  0  0  0  0  0  0  0  0  0  0  0
    2.5594   -0.8202    3.1962 O   0  0  0  0  0  0  0  0  0  0  0  0
    3.2979   -1.1296    0.7002 C   0  0  0  0  0  0  0  0  0  0  0  0
    3.9407   -0.6355   -0.4400 C   0  0  0  0  0  0  0  0  0  0  0  0
    4.2077   -1.4987   -1.5045 C   0  0  0  0  0  0  0  0  0  0  0  0
    3.8385   -2.8422   -1.4191 C   0  0  0  0  0  0  0  0  0  0  0  0
    4.1648   -3.9001   -2.7356 Cl  0  0  0  0  0  0  0  0  0  0  0  0
    3.2091   -3.3348   -0.2747 C   0  0  0  0  0  0  0  0  0  0  0  0
    2.9403   -2.4782    0.7949 C   0  0  0  0  0  0  0  0  0  0  0  0
    0.3142    0.2578    1.3694 C   0  0  0  0  0  0  0  0  0  0  0  0
   -0.8132    0.9873    0.9618 C   0  0  0  0  0  0  0  0  0  0  0  0
   -2.3366    0.0834    0.7173 S   0  0  0  0  0  6  0  0  0  0  0  0
   -2.0911   -1.3080    1.0344 O   0  0  0  0  0  0  0  0  0  0  0  0
   -3.3977    0.8161    1.3706 O   0  0  0  0  0  0  0  0  0  0  0  0
   -2.5732    0.1806   -0.9740 N   0  0  0  0  0  0  0  0  0  0  0  0
   -1.5193   -0.4507   -1.8026 C   0  0  0  0  0  0  0  0  0  0  0  0
   -3.9448   -0.2465   -1.3810 C   0  0  0  0  0  0  0  0  0  0  0  0
   -4.2635   -1.6966   -1.0948 C   0  0  0  0  0  0  0  0  0  0  0  0
   -3.7460   -2.6626   -1.6354 O   0  0  0  0  0  0  0  0  0  0  0  0
   -5.1914   -1.8606   -0.1336 O   0  0  0  0  0  0  0  0  0  0  0  0
   -2.6131    3.3211    1.2157 H   0  0  0  0  0  0  0  0  0  0  0  0
   -1.6031    4.2392    0.0963 H   0  0  0  0  0  0  0  0  0  0  0  0
   -2.4333    2.8130   -0.4925 H   0  0  0  0  0  0  0  0  0  0  0  0
    0.5843    4.1010    0.8765 H   0  0  0  0  0  0  0  0  0  0  0  0
    2.5635    2.8219    1.5610 H   0  0  0  0  0  0  0  0  0  0  0  0
    4.2425    0.4080   -0.5037 H   0  0  0  0  0  0  0  0  0  0  0  0
    4.7087   -1.1223   -2.3931 H   0  0  0  0  0  0  0  0  0  0  0  0
    2.9308   -4.3841   -0.2084 H   0  0  0  0  0  0  0  0  0  0  0  0
    2.4580   -2.8705    1.6885 H   0  0  0  0  0  0  0  0  0  0  0  0
    0.2454   -0.8150    1.5420 H   0  0  0  0  0  0  0  0  0  0  0  0
   -0.5842    0.1087   -1.7110 H   0  0  0  0  0  0  0  0  0  0  0  0
   -1.8018   -0.4244   -2.8600 H   0  0  0  0  0  0  0  0  0  0  0  0
   -1.3454   -1.4919   -1.5187 H   0  0  0  0  0  0  0  0  0  0  0  0
   -4.0804   -0.0805   -2.4564 H   0  0  0  0  0  0  0  0  0  0  0  0
   -4.6863    0.4009   -0.8985 H   0  0  0  0  0  0  0  0  0  0  0  0
   -5.2160   -2.8278    0.0251 H   0  0  0  0  0  0  0  0  0  0  0  0
  1  2  1  0
  2  3  2  0
  3  4  1  0
  4  5  2  0
  5  6  1  0
  6  7  2  0
  6  8  2  0
  6  9  1  0
  9 10  2  0
 10 11  1  0
 11 12  2  0
 12 13  1  0
 12 14  1  0
 14 15  2  0
  5 16  1  0
 16 17  2  0
 17 18  1  0
 18 19  2  0
 18 20  2  0
 18 21  1  0
 21 22  1  0
 21 23  1  0
 23 24  1  0
 24 25  2  0
 24 26  1  0
 17  2  1  0
 15  9  1  0
  1 27  1  0
  1 28  1  0
  1 29  1  0
  3 30  1  0
  4 31  1  0
 10 32  1  0
 11 33  1  0
 14 34  1  0
 15 35  1  0
 16 36  1  0
 22 37  1  0
 22 38  1  0
 22 39  1  0
 23 40  1  0
 23 41  1  0
 26 42  1  0
M  END
$$$$
