
     RDKit          3D

 50 53  0  0  0  0  0  0  0  0999 V2000
    7.6839    1.5075    1.1404 C   0  0  0  0  0  0  0  0  0  0  0  0
    6.8046    0.3919    1.2123 O   0  0  0  0  0  0  0  0  0  0  0  0
    5.5039    0.6085    0.8528 C   0  0  0  0  0  0  0  0  0  0  0  0
    4.9574    1.8168    0.4314 C   0  0  0  0  0  0  0  0  0  0  0  0
    3.6000    1.8941    0.0923 C   0  0  0  0  0  0  0  0  0  0  0  0
    2.7670    0.7627    0.1592 C   0  0  0  0  0  0  0  0  0  0  0  0
    1.3899    0.9005   -0.2008 N   0  0  0  0  0  0  0  0  0  0  0  0
    0.8799    2.1555   -0.3812 N   0  0  0  0  0  0  0  0  0  0  0  0
   -0.4166    1.9851   -0.6226 C   0  0  0  0  0  0  0  0  0  0  0  0
   -0.7838    0.6357   -0.6291 C   0  0  0  0  0  0  0  0  0  0  0  0
    0.3991   -0.0506   -0.4157 C   0  0  0  0  0  0  0  0  0  0  0  0
    0.5287   -1.5377   -0.4674 C   0  0  0  0  0  0  0  0  0  0  0  0
   -0.7091   -2.1932   -1.1583 C   0  0  0  0  0  0  0  0  0  0  0  0
   -0.7371   -3.6917   -0.8017 C   0  0  0  0  0  0  0  0  0  0  0  0
   -0.5968   -2.0721   -2.6919 C   0  0  0  0  0  0  0  0  0  0  0  0
   -2.0253   -1.5330   -0.6522 C   0  0  0  0  0  0  0  0  0  0  0  0
   -2.0990   -0.0078   -0.9058 C   0  0  0  0  0  0  0  0  0  0  0  0
   -3.0908    0.6071   -0.0476 N   0  0  0  0  0  0  0  0  0  0  0  0
   -4.4318    0.5289   -0.3473 C   0  0  0  0  0  0  0  0  0  0  0  0
   -4.8489    0.0201   -1.3830 O   0  0  0  0  0  0  0  0  0  0  0  0
   -5.3258    1.0766    0.6586 C   0  0  0  0  0  0  0  0  0  0  0  0
   -5.0665    1.7910    1.8511 C   0  0  0  0  0  0  0  0  0  0  0  0
   -6.1778    2.1232    2.5137 N   0  0  0  0  0  0  0  0  0  0  0  0
   -7.1621    1.6369    1.7414 N   0  0  0  0  0  0  0  0  0  0  0  0
   -6.7062    1.0049    0.6246 C   0  0  0  0  0  0  0  0  0  0  0  0
    3.3202   -0.4419    0.5995 C   0  0  0  0  0  0  0  0  0  0  0  0
    4.6784   -0.5134    0.9378 C   0  0  0  0  0  0  0  0  0  0  0  0
    7.7650    1.8813    0.1143 H   0  0  0  0  0  0  0  0  0  0  0  0
    7.3716    2.3009    1.8274 H   0  0  0  0  0  0  0  0  0  0  0  0
    8.6775    1.1702    1.4511 H   0  0  0  0  0  0  0  0  0  0  0  0
    5.5517    2.7210    0.3537 H   0  0  0  0  0  0  0  0  0  0  0  0
    3.2075    2.8561   -0.2356 H   0  0  0  0  0  0  0  0  0  0  0  0
   -1.0370    2.8559   -0.7944 H   0  0  0  0  0  0  0  0  0  0  0  0
    1.4359   -1.8332   -1.0061 H   0  0  0  0  0  0  0  0  0  0  0  0
    0.6010   -1.9087    0.5627 H   0  0  0  0  0  0  0  0  0  0  0  0
    0.1827   -4.1920   -1.1251 H   0  0  0  0  0  0  0  0  0  0  0  0
   -0.8347   -3.8413    0.2794 H   0  0  0  0  0  0  0  0  0  0  0  0
   -1.5810   -4.1974   -1.2842 H   0  0  0  0  0  0  0  0  0  0  0  0
    0.2890   -2.6006   -3.0627 H   0  0  0  0  0  0  0  0  0  0  0  0
   -0.5157   -1.0326   -3.0241 H   0  0  0  0  0  0  0  0  0  0  0  0
   -1.4730   -2.5095   -3.1839 H   0  0  0  0  0  0  0  0  0  0  0  0
   -2.1138   -1.7223    0.4280 H   0  0  0  0  0  0  0  0  0  0  0  0
   -2.8965   -2.0192   -1.1105 H   0  0  0  0  0  0  0  0  0  0  0  0
   -2.3749    0.1743   -1.9519 H   0  0  0  0  0  0  0  0  0  0  0  0
   -2.8049    0.8634    0.8856 H   0  0  0  0  0  0  0  0  0  0  0  0
   -4.1156    2.0912    2.2715 H   0  0  0  0  0  0  0  0  0  0  0  0
   -8.1230    1.7750    2.0389 H   0  0  0  0  0  0  0  0  0  0  0  0
   -7.3823    0.5629   -0.0944 H   0  0  0  0  0  0  0  0  0  0  0  0
    2.7388   -1.3436    0.7315 H   0  0  0  0  0  0  0  0  0  0  0  0
    5.0960   -1.4574    1.2816 H   0  0  0  0  0  0  0  0  0  0  0  0
  1  2  1  0
  2  3  1  0
  3  4  2  0
  4  5  1  0
  5  6  2  0
  6  7  1  0
  7  8  1  0
  8  9  2  0
  9 10  1  0
 10 11  2  0
 11 12  1  0
 12 13  1  0
 13 14  1  0
 13 15  1  0
 13 16  1  0
 16 17  1  0
 17 18  1  0
 18 19  1  0
 19 20  2  0
 19 21  1  0
 21 22  1  0
 22 23  2  0
 23 24  1  0
 24 25  1  0
  6 26  1  0
 26 27  2  0
 27  3  1  0
 11  7  1  0
 25 21  2  0
 17 10  1  0
  1 28  1  0
  1 29  1  0
  1 30  1  0
  4 31  1  0
  5 32  1  0
  9 33  1  0
 12 34  1  0
 12 35  1  0
 14 36  1  0
 14 37  1  0
 14 38  1  0
 15 39  1  0
 15 40  1  0
 15 41  1  0
 16 42  1  0
 16 43  1  0
 17 44  1  0
 18 45  1  0
 22 46  1  0
 24 47  1  0
 25 48  1  0
 26 49  1  0
 27 50  1  0
M  END
$$$$
