
     RDKit          3D

 36 37  0  0  0  0  0  0  0  0999 V2000
    1.0457    2.3836   -0.8788 C   0  0  0  0  0  0  0  0  0  0  0  0
    1.1279    0.9711   -1.0577 O   0  0  0  0  0  0  0  0  0  0  0  0
    2.1511    0.3283   -0.4026 C   0  0  0  0  0  0  0  0  0  0  0  0
    2.9294    0.9023    0.6075 C   0  0  0  0  0  0  0  0  0  0  0  0
    3.9213    0.1547    1.2471 C   0  0  0  0  0  0  0  0  0  0  0  0
    4.1370   -1.1721    0.8899 C   0  0  0  0  0  0  0  0  0  0  0  0
    3.3644   -1.7550   -0.1120 C   0  0  0  0  0  0  0  0  0  0  0  0
    2.3728   -1.0122   -0.7738 C   0  0  0  0  0  0  0  0  0  0  0  0
    1.5483   -1.6882   -1.8472 C   0  0  0  0  0  0  0  0  0  0  0  0
    0.2440   -2.2596   -1.3164 C   0  0  0  0  0  0  0  0  0  0  0  0
    0.0399   -3.4692   -1.3009 O   0  0  0  0  0  0  0  0  0  0  0  0
   -0.6728   -1.2788   -0.9738 N   0  0  0  0  0  0  0  0  0  0  0  0
   -1.7806   -1.4805   -0.1751 C   0  0  0  0  0  0  0  0  0  0  0  0
   -2.1703   -2.5571    0.2659 O   0  0  0  0  0  0  0  0  0  0  0  0
   -2.5346   -0.2555    0.2166 C   0  0  0  0  0  0  0  0  0  0  0  0
   -2.5349    0.8966   -0.5862 C   0  0  0  0  0  0  0  0  0  0  0  0
   -3.2322    2.0377   -0.1789 C   0  0  0  0  0  0  0  0  0  0  0  0
   -3.9392    2.0346    1.0233 C   0  0  0  0  0  0  0  0  0  0  0  0
   -3.9644    0.8871    1.8150 C   0  0  0  0  0  0  0  0  0  0  0  0
   -3.2773   -0.2544    1.4071 C   0  0  0  0  0  0  0  0  0  0  0  0
   -3.3749   -1.3451    2.2303 O   0  0  0  0  0  0  0  0  0  0  0  0
    0.7405    2.6294    0.1435 H   0  0  0  0  0  0  0  0  0  0  0  0
    1.9871    2.8760   -1.1450 H   0  0  0  0  0  0  0  0  0  0  0  0
    0.2708    2.7590   -1.5544 H   0  0  0  0  0  0  0  0  0  0  0  0
    2.7838    1.9263    0.9349 H   0  0  0  0  0  0  0  0  0  0  0  0
    4.5201    0.6072    2.0340 H   0  0  0  0  0  0  0  0  0  0  0  0
    4.9025   -1.7568    1.3944 H   0  0  0  0  0  0  0  0  0  0  0  0
    3.5367   -2.7983   -0.3722 H   0  0  0  0  0  0  0  0  0  0  0  0
    1.3338   -0.9948   -2.6697 H   0  0  0  0  0  0  0  0  0  0  0  0
    2.1229   -2.5062   -2.3002 H   0  0  0  0  0  0  0  0  0  0  0  0
   -0.3192   -0.3311   -1.0322 H   0  0  0  0  0  0  0  0  0  0  0  0
   -2.0233    0.9202   -1.5444 H   0  0  0  0  0  0  0  0  0  0  0  0
   -3.2358    2.9276   -0.8042 H   0  0  0  0  0  0  0  0  0  0  0  0
   -4.4848    2.9207    1.3393 H   0  0  0  0  0  0  0  0  0  0  0  0
   -4.5276    0.8750    2.7447 H   0  0  0  0  0  0  0  0  0  0  0  0
   -3.0079   -2.1225    1.7491 H   0  0  0  0  0  0  0  0  0  0  0  0
  1  2  1  0
  2  3  1  0
  3  4  2  0
  4  5  1  0
  5  6  2  0
  6  7  1  0
  7  8  2  0
  8  9  1  0
  9 10  1  0
 10 11  2  0
 10 12  1  0
 12 13  1  0
 13 14  2  0
 13 15  1  0
 15 16  2  0
 16 17  1  0
 17 18  2  0
 18 19  1  0
 19 20  2  0
 20 21  1  0
  8  3  1  0
 20 15  1  0
  1 22  1  0
  1 23  1  0
  1 24  1  0
  4 25  1  0
  5 26  1  0
  6 27  1  0
  7 28  1  0
  9 29  1  0
  9 30  1  0
 12 31  1  0
 16 32  1  0
 17 33  1  0
 18 34  1  0
 19 35  1  0
 21 36  1  0
M  END
$$$$
