
     RDKit          3D

 63 67  0  0  0  0  0  0  0  0999 V2000
   -3.8469   -5.2809   -2.0035 C   0  0  0  0  0  0  0  0  0  0  0  0
   -4.0844   -3.9017   -1.7518 O   0  0  0  0  0  0  0  0  0  0  0  0
   -3.5732   -3.3872   -0.5918 C   0  0  0  0  0  0  0  0  0  0  0  0
   -2.8281   -4.0878    0.3568 C   0  0  0  0  0  0  0  0  0  0  0  0
   -2.3577   -3.4362    1.4995 C   0  0  0  0  0  0  0  0  0  0  0  0
   -2.6303   -2.0827    1.6988 C   0  0  0  0  0  0  0  0  0  0  0  0
   -3.3789   -1.3668    0.7578 C   0  0  0  0  0  0  0  0  0  0  0  0
   -3.6469    0.0624    0.9583 C   0  0  0  0  0  0  0  0  0  0  0  0
   -5.2648    0.5587    1.2088 S   0  0  0  0  0  0  0  0  0  0  0  0
   -4.8271    2.2086    1.3894 C   0  0  0  0  0  0  0  0  0  0  0  0
   -5.6943    3.2899    1.6380 C   0  0  0  0  0  0  0  0  0  0  0  0
   -5.1647    4.5802    1.7539 C   0  0  0  0  0  0  0  0  0  0  0  0
   -3.8004    4.7988    1.6230 C   0  0  0  0  0  0  0  0  0  0  0  0
   -3.1665    6.0079    1.7133 O   0  0  0  0  0  0  0  0  0  0  0  0
   -3.9811    7.1464    1.9626 C   0  0  0  0  0  0  0  0  0  0  0  0
   -2.9498    3.7148    1.3748 C   0  0  0  0  0  0  0  0  0  0  0  0
   -3.4503    2.3910    1.2584 C   0  0  0  0  0  0  0  0  0  0  0  0
   -2.7713    1.1369    1.0103 C   0  0  0  0  0  0  0  0  0  0  0  0
   -1.3327    0.9654    0.8288 C   0  0  0  0  0  0  0  0  0  0  0  0
   -0.8150    0.5554   -0.4046 C   0  0  0  0  0  0  0  0  0  0  0  0
    0.5635    0.3825   -0.5729 C   0  0  0  0  0  0  0  0  0  0  0  0
    1.4350    0.6216    0.4900 C   0  0  0  0  0  0  0  0  0  0  0  0
    2.7956    0.4864    0.4609 O   0  0  0  0  0  0  0  0  0  0  0  0
    3.3725   -0.0106   -0.7508 C   0  0  0  0  0  0  0  0  0  0  0  0
    4.8925   -0.1203   -0.5424 C   0  0  0  0  0  0  0  0  0  0  0  0
    5.6355   -0.5628   -1.7352 N   0  0  0  0  0  0  0  0  0  0  0  0
    5.2472   -1.9280   -2.1554 C   0  0  0  0  0  0  0  0  0  0  0  0
    6.3593   -2.6240   -2.9547 C   0  0  0  0  0  0  0  0  0  0  0  0
    7.5464   -2.8335   -2.1779 O   0  0  0  0  0  0  0  0  0  0  0  0
    7.7416   -1.8334   -1.1695 C   0  0  0  0  0  0  0  0  0  0  0  0
    7.0989   -0.4832   -1.5233 C   0  0  0  0  0  0  0  0  0  0  0  0
    0.9172    1.0428    1.7176 C   0  0  0  0  0  0  0  0  0  0  0  0
   -0.4584    1.2150    1.8903 C   0  0  0  0  0  0  0  0  0  0  0  0
   -3.8449   -2.0309   -0.3856 C   0  0  0  0  0  0  0  0  0  0  0  0
   -4.3205   -5.5331   -2.9569 H   0  0  0  0  0  0  0  0  0  0  0  0
   -2.7757   -5.4856   -2.0997 H   0  0  0  0  0  0  0  0  0  0  0  0
   -4.3018   -5.9079   -1.2296 H   0  0  0  0  0  0  0  0  0  0  0  0
   -2.5938   -5.1402    0.2380 H   0  0  0  0  0  0  0  0  0  0  0  0
   -1.7755   -3.9839    2.2360 H   0  0  0  0  0  0  0  0  0  0  0  0
   -2.2547   -1.5892    2.5923 H   0  0  0  0  0  0  0  0  0  0  0  0
   -6.7638    3.1262    1.7383 H   0  0  0  0  0  0  0  0  0  0  0  0
   -5.8580    5.3926    1.9459 H   0  0  0  0  0  0  0  0  0  0  0  0
   -3.3270    8.0226    2.0047 H   0  0  0  0  0  0  0  0  0  0  0  0
   -4.4895    7.0639    2.9289 H   0  0  0  0  0  0  0  0  0  0  0  0
   -4.6979    7.3046    1.1501 H   0  0  0  0  0  0  0  0  0  0  0  0
   -1.8825    3.8962    1.2668 H   0  0  0  0  0  0  0  0  0  0  0  0
   -1.4805    0.3652   -1.2439 H   0  0  0  0  0  0  0  0  0  0  0  0
    0.9188    0.0623   -1.5465 H   0  0  0  0  0  0  0  0  0  0  0  0
    2.9532   -0.9979   -0.9769 H   0  0  0  0  0  0  0  0  0  0  0  0
    3.1690    0.6843   -1.5747 H   0  0  0  0  0  0  0  0  0  0  0  0
    5.0981   -0.7742    0.3160 H   0  0  0  0  0  0  0  0  0  0  0  0
    5.2465    0.8764   -0.2456 H   0  0  0  0  0  0  0  0  0  0  0  0
    5.0244   -2.5483   -1.2774 H   0  0  0  0  0  0  0  0  0  0  0  0
    4.3423   -1.8711   -2.7700 H   0  0  0  0  0  0  0  0  0  0  0  0
    6.0168   -3.6050   -3.2991 H   0  0  0  0  0  0  0  0  0  0  0  0
    6.6266   -2.0426   -3.8448 H   0  0  0  0  0  0  0  0  0  0  0  0
    7.3392   -2.2184   -0.2259 H   0  0  0  0  0  0  0  0  0  0  0  0
    8.8212   -1.7119   -1.0360 H   0  0  0  0  0  0  0  0  0  0  0  0
    7.3597    0.2669   -0.7677 H   0  0  0  0  0  0  0  0  0  0  0  0
    7.5368   -0.1309   -2.4658 H   0  0  0  0  0  0  0  0  0  0  0  0
    1.5911    1.2362    2.5486 H   0  0  0  0  0  0  0  0  0  0  0  0
   -0.8389    1.5383    2.8562 H   0  0  0  0  0  0  0  0  0  0  0  0
   -4.4211   -1.4901   -1.1332 H   0  0  0  0  0  0  0  0  0  0  0  0
  1  2  1  0
  2  3  1  0
  3  4  2  0
  4  5  1  0
  5  6  2  0
  6  7  1  0
  7  8  1  0
  8  9  1  0
  9 10  1  0
 10 11  2  0
 11 12  1  0
 12 13  2  0
 13 14  1  0
 14 15  1  0
 13 16  1  0
 16 17  2  0
 17 18  1  0
 18 19  1  0
 19 20  2  0
 20 21  1  0
 21 22  2  0
 22 23  1  0
 23 24  1  0
 24 25  1  0
 25 26  1  0
 26 27  1  0
 27 28  1  0
 28 29  1  0
 29 30  1  0
 30 31  1  0
 22 32  1  0
 32 33  2  0
  7 34  2  0
 34  3  1  0
 18  8  2  0
 33 19  1  0
 17 10  1  0
 31 26  1  0
  1 35  1  0
  1 36  1  0
  1 37  1  0
  4 38  1  0
  5 39  1  0
  6 40  1  0
 11 41  1  0
 12 42  1  0
 15 43  1  0
 15 44  1  0
 15 45  1  0
 16 46  1  0
 20 47  1  0
 21 48  1  0
 24 49  1  0
 24 50  1  0
 25 51  1  0
 25 52  1  0
 27 53  1  0
 27 54  1  0
 28 55  1  0
 28 56  1  0
 30 57  1  0
 30 58  1  0
 31 59  1  0
 31 60  1  0
 32 61  1  0
 33 62  1  0
 34 63  1  0
M  END
$$$$
