
     RDKit          3D

 50 52  0  0  0  0  0  0  0  0999 V2000
   -6.1456    1.6124    1.4659 O   0  0  0  0  0  0  0  0  0  0  0  0
   -5.2712    0.8243    1.1205 C   0  0  0  0  0  0  0  0  0  0  0  0
   -4.3277    0.1447    2.1143 C   0  0  0  0  0  0  0  0  0  0  0  0
   -3.0642   -0.2150    1.5448 O   0  0  0  0  0  0  0  0  0  0  0  0
   -2.1982    0.8195    1.4083 C   0  0  0  0  0  0  0  0  0  0  0  0
   -2.4167    1.9787    1.7167 O   0  0  0  0  0  0  0  0  0  0  0  0
   -0.9174    0.3626    0.8056 C   0  0  0  0  0  0  0  0  0  0  0  0
    0.0786    1.3247    0.5752 C   0  0  0  0  0  0  0  0  0  0  0  0
    1.3011    0.9547    0.0132 C   0  0  0  0  0  0  0  0  0  0  0  0
    1.5281   -0.3840   -0.3161 C   0  0  0  0  0  0  0  0  0  0  0  0
    3.0980   -0.8405   -1.0145 S   0  0  0  0  0  6  0  0  0  0  0  0
    3.1569   -2.2837   -1.0955 O   0  0  0  0  0  0  0  0  0  0  0  0
    3.2983   -0.0042   -2.1767 O   0  0  0  0  0  0  0  0  0  0  0  0
    4.1939   -0.3547    0.2005 N   0  0  0  0  0  0  0  0  0  0  0  0
    4.1502   -1.1412    1.4544 C   0  0  0  0  0  0  0  0  0  0  0  0
    4.7929   -0.3207    2.5706 C   0  0  0  0  0  0  0  0  0  0  0  0
    6.0529    0.4229    2.1211 C   0  0  0  0  0  0  0  0  0  0  0  0
    6.6142   -0.1461    0.8238 C   0  0  0  0  0  0  0  0  0  0  0  0
    5.5807   -0.1361   -0.3036 C   0  0  0  0  0  0  0  0  0  0  0  0
    0.5440   -1.3525   -0.1011 C   0  0  0  0  0  0  0  0  0  0  0  0
   -0.6799   -0.9781    0.4610 C   0  0  0  0  0  0  0  0  0  0  0  0
   -5.0943    0.4215   -0.1820 N   0  0  0  0  0  0  0  0  0  0  0  0
   -5.8590    1.0064   -1.2556 C   0  0  0  0  0  0  0  0  0  0  0  0
   -5.3967    0.4250   -2.5345 C   0  0  0  0  0  0  0  0  0  0  0  0
   -4.4672    0.8217   -3.4747 C   0  0  0  0  0  0  0  0  0  0  0  0
   -4.4661   -0.1772   -4.4769 C   0  0  0  0  0  0  0  0  0  0  0  0
   -5.3895   -1.1179   -4.0833 C   0  0  0  0  0  0  0  0  0  0  0  0
   -5.9586   -0.7634   -2.9032 O   0  0  0  0  0  0  0  0  0  0  0  0
   -4.8101   -0.7823    2.4462 H   0  0  0  0  0  0  0  0  0  0  0  0
   -4.1903    0.7849    2.9958 H   0  0  0  0  0  0  0  0  0  0  0  0
   -0.0946    2.3687    0.8324 H   0  0  0  0  0  0  0  0  0  0  0  0
    2.0695    1.7054   -0.1636 H   0  0  0  0  0  0  0  0  0  0  0  0
    3.1216   -1.3792    1.7457 H   0  0  0  0  0  0  0  0  0  0  0  0
    4.6831   -2.0909    1.3146 H   0  0  0  0  0  0  0  0  0  0  0  0
    5.0296   -0.9862    3.4094 H   0  0  0  0  0  0  0  0  0  0  0  0
    4.0717    0.4124    2.9552 H   0  0  0  0  0  0  0  0  0  0  0  0
    6.8093    0.3794    2.9135 H   0  0  0  0  0  0  0  0  0  0  0  0
    5.8135    1.4849    1.9794 H   0  0  0  0  0  0  0  0  0  0  0  0
    6.9470   -1.1781    1.0010 H   0  0  0  0  0  0  0  0  0  0  0  0
    7.5035    0.4133    0.5124 H   0  0  0  0  0  0  0  0  0  0  0  0
    5.8517   -0.9014   -1.0385 H   0  0  0  0  0  0  0  0  0  0  0  0
    5.6028    0.8395   -0.8015 H   0  0  0  0  0  0  0  0  0  0  0  0
    0.7203   -2.3929   -0.3665 H   0  0  0  0  0  0  0  0  0  0  0  0
   -1.4369   -1.7445    0.6231 H   0  0  0  0  0  0  0  0  0  0  0  0
   -4.3188   -0.1905   -0.4058 H   0  0  0  0  0  0  0  0  0  0  0  0
   -6.9218    0.8077   -1.0805 H   0  0  0  0  0  0  0  0  0  0  0  0
   -5.7165    2.0915   -1.2349 H   0  0  0  0  0  0  0  0  0  0  0  0
   -3.8683    1.7194   -3.4388 H   0  0  0  0  0  0  0  0  0  0  0  0
   -3.8678   -0.2161   -5.3769 H   0  0  0  0  0  0  0  0  0  0  0  0
   -5.7360   -2.0490   -4.5086 H   0  0  0  0  0  0  0  0  0  0  0  0
  1  2  2  0
  2  3  1  0
  3  4  1  0
  4  5  1  0
  5  6  2  0
  5  7  1  0
  7  8  2  0
  8  9  1  0
  9 10  2  0
 10 11  1  0
 11 12  2  0
 11 13  2  0
 11 14  1  0
 14 15  1  0
 15 16  1  0
 16 17  1  0
 17 18  1  0
 18 19  1  0
 10 20  1  0
 20 21  2  0
  2 22  1  0
 22 23  1  0
 23 24  1  0
 24 25  2  0
 25 26  1  0
 26 27  2  0
 27 28  1  0
 21  7  1  0
 28 24  1  0
 19 14  1  0
  3 29  1  0
  3 30  1  0
  8 31  1  0
  9 32  1  0
 15 33  1  0
 15 34  1  0
 16 35  1  0
 16 36  1  0
 17 37  1  0
 17 38  1  0
 18 39  1  0
 18 40  1  0
 19 41  1  0
 19 42  1  0
 20 43  1  0
 21 44  1  0
 22 45  1  0
 23 46  1  0
 23 47  1  0
 25 48  1  0
 26 49  1  0
 27 50  1  0
M  END
$$$$
