
     RDKit          3D

 46 47  0  0  0  0  0  0  0  0999 V2000
    0.6584   -0.4433    1.4229 O   0  0  0  0  0  0  0  0  0  0  0  0
    0.7159    0.2679    0.4293 C   0  0  0  0  0  0  0  0  0  0  0  0
   -0.3815    0.7719   -0.2215 N   0  0  0  0  0  0  0  0  0  0  0  0
   -1.7453    0.3908    0.1591 C   0  0  0  0  0  0  0  0  0  0  0  0
   -2.7003    1.5319   -0.2316 C   0  0  0  0  0  0  0  0  0  0  0  0
   -3.7635    1.8784    0.8129 C   0  0  0  0  0  0  0  0  0  0  0  0
   -4.5063    0.7272    1.4824 C   0  0  0  0  0  0  0  0  0  0  0  0
   -5.3710   -0.1331    0.5669 C   0  0  0  0  0  0  0  0  0  0  0  0
   -4.6638   -0.9384   -0.5226 C   0  0  0  0  0  0  0  0  0  0  0  0
   -3.3808   -1.6427   -0.0830 C   0  0  0  0  0  0  0  0  0  0  0  0
   -2.0859   -0.9510   -0.5191 C   0  0  0  0  0  0  0  0  0  0  0  0
    1.8866    0.6925   -0.1473 N   0  0  0  0  0  0  0  0  0  0  0  0
    3.1771    0.2128    0.3268 C   0  0  0  0  0  0  0  0  0  0  0  0
    4.2855    1.2136   -0.0385 C   0  0  0  0  0  0  0  0  0  0  0  0
    5.6741    0.5787   -0.1497 C   0  0  0  0  0  0  0  0  0  0  0  0
    5.8089   -0.6583    0.7265 C   0  0  0  0  0  0  0  0  0  0  0  0
    4.7971   -1.7389    0.3421 C   0  0  0  0  0  0  0  0  0  0  0  0
    3.4894   -1.1813   -0.2250 C   0  0  0  0  0  0  0  0  0  0  0  0
   -0.2422    1.1360   -1.1501 H   0  0  0  0  0  0  0  0  0  0  0  0
   -1.7375    0.2545    1.2462 H   0  0  0  0  0  0  0  0  0  0  0  0
   -2.1254    2.4550   -0.3935 H   0  0  0  0  0  0  0  0  0  0  0  0
   -3.1688    1.3350   -1.2012 H   0  0  0  0  0  0  0  0  0  0  0  0
   -4.4910    2.5607    0.3554 H   0  0  0  0  0  0  0  0  0  0  0  0
   -3.2735    2.4557    1.6084 H   0  0  0  0  0  0  0  0  0  0  0  0
   -5.1729    1.1678    2.2363 H   0  0  0  0  0  0  0  0  0  0  0  0
   -3.8131    0.1029    2.0548 H   0  0  0  0  0  0  0  0  0  0  0  0
   -5.9151   -0.8416    1.2059 H   0  0  0  0  0  0  0  0  0  0  0  0
   -6.1394    0.4931    0.0965 H   0  0  0  0  0  0  0  0  0  0  0  0
   -4.4915   -0.3205   -1.4091 H   0  0  0  0  0  0  0  0  0  0  0  0
   -5.3752   -1.7068   -0.8551 H   0  0  0  0  0  0  0  0  0  0  0  0
   -3.3763   -2.6334   -0.5577 H   0  0  0  0  0  0  0  0  0  0  0  0
   -3.3725   -1.8366    0.9950 H   0  0  0  0  0  0  0  0  0  0  0  0
   -1.2685   -1.6579   -0.3205 H   0  0  0  0  0  0  0  0  0  0  0  0
   -2.0930   -0.8201   -1.6097 H   0  0  0  0  0  0  0  0  0  0  0  0
    1.8335    1.0119   -1.1009 H   0  0  0  0  0  0  0  0  0  0  0  0
    3.1192    0.1421    1.4213 H   0  0  0  0  0  0  0  0  0  0  0  0
    4.3030    2.0044    0.7227 H   0  0  0  0  0  0  0  0  0  0  0  0
    4.0622    1.7214   -0.9856 H   0  0  0  0  0  0  0  0  0  0  0  0
    5.8611    0.2993   -1.1944 H   0  0  0  0  0  0  0  0  0  0  0  0
    6.4383    1.3179    0.1160 H   0  0  0  0  0  0  0  0  0  0  0  0
    6.8243   -1.0646    0.6579 H   0  0  0  0  0  0  0  0  0  0  0  0
    5.6572   -0.3742    1.7755 H   0  0  0  0  0  0  0  0  0  0  0  0
    4.5860   -2.3518    1.2268 H   0  0  0  0  0  0  0  0  0  0  0  0
    5.2400   -2.4157   -0.3987 H   0  0  0  0  0  0  0  0  0  0  0  0
    2.6747   -1.8839   -0.0124 H   0  0  0  0  0  0  0  0  0  0  0  0
    3.5617   -1.1292   -1.3198 H   0  0  0  0  0  0  0  0  0  0  0  0
  1  2  2  0
  2  3  1  0
  3  4  1  0
  4  5  1  0
  5  6  1  0
  6  7  1  0
  7  8  1  0
  8  9  1  0
  9 10  1  0
 10 11  1  0
  2 12  1  0
 12 13  1  0
 13 14  1  0
 14 15  1  0
 15 16  1  0
 16 17  1  0
 17 18  1  0
 11  4  1  0
 18 13  1  0
  3 19  1  0
  4 20  1  0
  5 21  1  0
  5 22  1  0
  6 23  1  0
  6 24  1  0
  7 25  1  0
  7 26  1  0
  8 27  1  0
  8 28  1  0
  9 29  1  0
  9 30  1  0
 10 31  1  0
 10 32  1  0
 11 33  1  0
 11 34  1  0
 12 35  1  0
 13 36  1  0
 14 37  1  0
 14 38  1  0
 15 39  1  0
 15 40  1  0
 16 41  1  0
 16 42  1  0
 17 43  1  0
 17 44  1  0
 18 45  1  0
 18 46  1  0
M  END
$$$$
