
     RDKit          3D

 56 61  0  0  0  0  0  0  0  0999 V2000
    3.4299   -2.3710   -3.8387 C   0  0  0  0  0  0  0  0  0  0  0  0
    2.5550   -1.5582   -3.0672 O   0  0  0  0  0  0  0  0  0  0  0  0
    2.8116   -1.4684   -1.7272 C   0  0  0  0  0  0  0  0  0  0  0  0
    3.8747   -2.0668   -1.0538 C   0  0  0  0  0  0  0  0  0  0  0  0
    4.0186   -1.8918    0.3240 C   0  0  0  0  0  0  0  0  0  0  0  0
    3.1023   -1.1167    1.0356 C   0  0  0  0  0  0  0  0  0  0  0  0
    2.0232   -0.5004    0.3795 C   0  0  0  0  0  0  0  0  0  0  0  0
    1.0261    0.3452    1.1709 C   0  0  0  0  0  0  0  0  0  0  0  0
   -0.1928   -0.5038    1.2667 C   0  0  0  0  0  0  0  0  0  0  0  0
   -0.5124   -1.7039    1.9240 C   0  0  0  0  0  0  0  0  0  0  0  0
    0.3536   -2.5630    2.7671 C   0  0  0  0  0  0  0  0  0  0  0  0
   -1.7848   -2.0522    1.7104 N   0  0  0  0  0  0  0  0  0  0  0  0
   -2.3052   -1.0767    0.9007 N   0  0  0  0  0  0  0  0  0  0  0  0
   -3.6645   -1.1734    0.4652 C   0  0  0  0  0  0  0  0  0  0  0  0
   -4.4403   -2.2688    0.8905 C   0  0  0  0  0  0  0  0  0  0  0  0
   -5.7731   -2.4029    0.4875 C   0  0  0  0  0  0  0  0  0  0  0  0
   -6.3398   -1.4362   -0.3495 C   0  0  0  0  0  0  0  0  0  0  0  0
   -7.7380   -1.5706   -0.7759 N   0  0  0  0  0  4  0  0  0  0  0  0
   -8.3733   -2.5544   -0.3692 O   0  0  0  0  0  0  0  0  0  0  0  0
   -8.2037   -0.6931   -1.5171 O   0  0  0  0  0  1  0  0  0  0  0  0
   -5.5819   -0.3426   -0.7829 C   0  0  0  0  0  0  0  0  0  0  0  0
   -4.2475   -0.2143   -0.3755 C   0  0  0  0  0  0  0  0  0  0  0  0
   -1.3499   -0.0977    0.6435 C   0  0  0  0  0  0  0  0  0  0  0  0
   -1.5131    1.0426   -0.0724 N   0  0  0  0  0  0  0  0  0  0  0  0
   -0.4807    1.8490   -0.0976 C   0  0  0  0  0  0  0  0  0  0  0  0
   -0.7123    3.1492   -0.9051 C   0  0  0  0  0  0  0  0  0  0  0  0
   -1.7426    3.3507   -1.5332 O   0  0  0  0  0  0  0  0  0  0  0  0
    0.3050    4.0648   -0.8679 N   0  0  0  0  0  0  0  0  0  0  0  0
    1.5009    3.8735   -0.1712 C   0  0  0  0  0  0  0  0  0  0  0  0
    2.4391    4.9125   -0.2007 C   0  0  0  0  0  0  0  0  0  0  0  0
    3.6441    4.7804    0.4795 C   0  0  0  0  0  0  0  0  0  0  0  0
    3.9058    3.6140    1.1867 C   0  0  0  0  0  0  0  0  0  0  0  0
    2.9653    2.5762    1.2117 C   0  0  0  0  0  0  0  0  0  0  0  0
    1.7405    2.6712    0.5291 C   0  0  0  0  0  0  0  0  0  0  0  0
    0.7685    1.6501    0.5219 N   0  0  0  0  0  0  0  0  0  0  0  0
    1.8958   -0.6922   -1.0099 C   0  0  0  0  0  0  0  0  0  0  0  0
    3.0780   -2.3515   -4.8746 H   0  0  0  0  0  0  0  0  0  0  0  0
    3.4061   -3.4115   -3.4982 H   0  0  0  0  0  0  0  0  0  0  0  0
    4.4502   -1.9737   -3.8262 H   0  0  0  0  0  0  0  0  0  0  0  0
    4.6084   -2.6759   -1.5710 H   0  0  0  0  0  0  0  0  0  0  0  0
    4.8498   -2.3638    0.8429 H   0  0  0  0  0  0  0  0  0  0  0  0
    3.2396   -0.9998    2.1085 H   0  0  0  0  0  0  0  0  0  0  0  0
    1.3845    0.5142    2.1948 H   0  0  0  0  0  0  0  0  0  0  0  0
    1.0312   -1.9554    3.3750 H   0  0  0  0  0  0  0  0  0  0  0  0
    0.9524   -3.2304    2.1396 H   0  0  0  0  0  0  0  0  0  0  0  0
   -0.2406   -3.1794    3.4498 H   0  0  0  0  0  0  0  0  0  0  0  0
   -4.0171   -3.0330    1.5418 H   0  0  0  0  0  0  0  0  0  0  0  0
   -6.3457   -3.2606    0.8339 H   0  0  0  0  0  0  0  0  0  0  0  0
   -6.0058    0.4183   -1.4359 H   0  0  0  0  0  0  0  0  0  0  0  0
   -3.6974    0.6487   -0.7406 H   0  0  0  0  0  0  0  0  0  0  0  0
    0.1396    4.9169   -1.3854 H   0  0  0  0  0  0  0  0  0  0  0  0
    2.2395    5.8290   -0.7497 H   0  0  0  0  0  0  0  0  0  0  0  0
    4.3755    5.5844    0.4590 H   0  0  0  0  0  0  0  0  0  0  0  0
    4.8464    3.5048    1.7223 H   0  0  0  0  0  0  0  0  0  0  0  0
    3.2338    1.6967    1.7864 H   0  0  0  0  0  0  0  0  0  0  0  0
    1.0677   -0.2379   -1.5520 H   0  0  0  0  0  0  0  0  0  0  0  0
  1  2  1  0
  2  3  1  0
  3  4  2  0
  4  5  1  0
  5  6  2  0
  6  7  1  0
  7  8  1  0
  8  9  1  0
  9 10  1  0
 10 11  1  0
 10 12  2  0
 12 13  1  0
 13 14  1  0
 14 15  2  0
 15 16  1  0
 16 17  2  0
 17 18  1  0
 18 19  2  0
 18 20  1  0
 17 21  1  0
 21 22  2  0
 13 23  1  0
 23 24  1  0
 24 25  2  0
 25 26  1  0
 26 27  2  0
 26 28  1  0
 28 29  1  0
 29 30  2  0
 30 31  1  0
 31 32  2  0
 32 33  1  0
 33 34  2  0
 34 35  1  0
  7 36  2  0
 36  3  1  0
 35  8  1  0
 23  9  2  0
 35 25  1  0
 22 14  1  0
 34 29  1  0
  1 37  1  0
  1 38  1  0
  1 39  1  0
  4 40  1  0
  5 41  1  0
  6 42  1  0
  8 43  1  0
 11 44  1  0
 11 45  1  0
 11 46  1  0
 15 47  1  0
 16 48  1  0
 21 49  1  0
 22 50  1  0
 28 51  1  0
 30 52  1  0
 31 53  1  0
 32 54  1  0
 33 55  1  0
 36 56  1  0
M  CHG  2  18   1  20  -1
M  END
$$$$
