
     RDKit          3D

 59 63  0  0  0  0  0  0  0  0999 V2000
   -4.6037   -2.8591    3.1094 C   0  0  0  0  0  0  0  0  0  0  0  0
   -4.2606   -2.4312    1.7137 C   0  0  0  0  0  0  0  0  0  0  0  0
   -3.0207   -2.7464    1.1496 C   0  0  0  0  0  0  0  0  0  0  0  0
   -2.7156   -2.3498   -0.1540 C   0  0  0  0  0  0  0  0  0  0  0  0
   -3.6440   -1.6302   -0.9183 C   0  0  0  0  0  0  0  0  0  0  0  0
   -3.2928   -1.1871   -2.3155 C   0  0  0  0  0  0  0  0  0  0  0  0
   -2.2757   -0.1607   -2.2767 N   0  0  0  0  0  0  0  0  0  0  0  0
   -1.0361   -0.3442   -2.8431 C   0  0  0  0  0  0  0  0  0  0  0  0
   -0.7725   -1.3073   -3.5544 O   0  0  0  0  0  0  0  0  0  0  0  0
   -0.0787    0.6895   -2.5216 C   0  0  0  0  0  0  0  0  0  0  0  0
   -0.2760    2.0154   -2.1726 C   0  0  0  0  0  0  0  0  0  0  0  0
    1.0093    2.5884   -1.9858 C   0  0  0  0  0  0  0  0  0  0  0  0
    1.3512    3.9667   -1.6117 C   0  0  0  0  0  0  0  0  0  0  0  0
    2.6863    4.4013   -1.6443 C   0  0  0  0  0  0  0  0  0  0  0  0
    3.0261    5.7091   -1.2876 C   0  0  0  0  0  0  0  0  0  0  0  0
    2.0345    6.6023   -0.8917 C   0  0  0  0  0  0  0  0  0  0  0  0
    0.7048    6.1888   -0.8523 C   0  0  0  0  0  0  0  0  0  0  0  0
    0.3646    4.8799   -1.2095 C   0  0  0  0  0  0  0  0  0  0  0  0
    1.9558    1.6640   -2.2054 N   0  0  0  0  0  0  0  0  0  0  0  0
    1.2842    0.5342   -2.5102 N   0  0  0  0  0  0  0  0  0  0  0  0
    2.0621   -0.6729   -2.7299 C   0  0  0  0  0  0  0  0  0  0  0  0
    2.2222   -1.5502   -1.4921 C   0  0  0  0  0  0  0  0  0  0  0  0
    2.7832   -0.8780   -0.2565 C   0  0  0  0  0  0  0  0  0  0  0  0
    2.0871   -1.7131    0.7644 C   0  0  0  0  0  0  0  0  0  0  0  0
    2.5099   -1.7423    2.1766 C   0  0  0  0  0  0  0  0  0  0  0  0
    1.9208   -2.6445    3.0648 C   0  0  0  0  0  0  0  0  0  0  0  0
    2.3309   -2.6650    4.3960 C   0  0  0  0  0  0  0  0  0  0  0  0
    3.3184   -1.7778    4.7933 C   0  0  0  0  0  0  0  0  0  0  0  0
    3.9067   -0.8895    3.9621 N   0  0  0  0  0  0  0  0  0  0  0  0
    3.4860   -0.8883    2.6729 C   0  0  0  0  0  0  0  0  0  0  0  0
    1.0729   -2.3831    0.3140 N   0  0  0  0  0  0  0  0  0  0  0  0
    0.9646   -2.0926   -1.0659 O   0  0  0  0  0  0  0  0  0  0  0  0
   -4.8855   -1.3152   -0.3520 C   0  0  0  0  0  0  0  0  0  0  0  0
   -5.1913   -1.7152    0.9517 C   0  0  0  0  0  0  0  0  0  0  0  0
   -4.8811   -1.9896    3.7146 H   0  0  0  0  0  0  0  0  0  0  0  0
   -5.4387   -3.5668    3.0912 H   0  0  0  0  0  0  0  0  0  0  0  0
   -3.7557   -3.3489    3.5995 H   0  0  0  0  0  0  0  0  0  0  0  0
   -2.2760   -3.3012    1.7161 H   0  0  0  0  0  0  0  0  0  0  0  0
   -1.7404   -2.6026   -0.5693 H   0  0  0  0  0  0  0  0  0  0  0  0
   -2.9776   -2.0502   -2.9117 H   0  0  0  0  0  0  0  0  0  0  0  0
   -4.1659   -0.7472   -2.8100 H   0  0  0  0  0  0  0  0  0  0  0  0
   -2.3818    0.5549   -1.5732 H   0  0  0  0  0  0  0  0  0  0  0  0
   -1.2309    2.5143   -2.0926 H   0  0  0  0  0  0  0  0  0  0  0  0
    3.4758    3.7185   -1.9526 H   0  0  0  0  0  0  0  0  0  0  0  0
    4.0654    6.0259   -1.3201 H   0  0  0  0  0  0  0  0  0  0  0  0
    2.2981    7.6191   -0.6132 H   0  0  0  0  0  0  0  0  0  0  0  0
   -0.0701    6.8846   -0.5410 H   0  0  0  0  0  0  0  0  0  0  0  0
   -0.6812    4.5910   -1.1597 H   0  0  0  0  0  0  0  0  0  0  0  0
    3.0495   -0.3572   -3.0891 H   0  0  0  0  0  0  0  0  0  0  0  0
    1.5948   -1.2285   -3.5468 H   0  0  0  0  0  0  0  0  0  0  0  0
    2.8542   -2.4073   -1.7613 H   0  0  0  0  0  0  0  0  0  0  0  0
    3.8718   -0.9475   -0.2092 H   0  0  0  0  0  0  0  0  0  0  0  0
    2.4615    0.1562   -0.1177 H   0  0  0  0  0  0  0  0  0  0  0  0
    1.1479   -3.3307    2.7267 H   0  0  0  0  0  0  0  0  0  0  0  0
    1.8899   -3.3571    5.1048 H   0  0  0  0  0  0  0  0  0  0  0  0
    3.6717   -1.7562    5.8206 H   0  0  0  0  0  0  0  0  0  0  0  0
    3.9795   -0.1470    2.0522 H   0  0  0  0  0  0  0  0  0  0  0  0
   -5.6260   -0.7576   -0.9206 H   0  0  0  0  0  0  0  0  0  0  0  0
   -6.1628   -1.4644    1.3718 H   0  0  0  0  0  0  0  0  0  0  0  0
  1  2  1  0
  2  3  2  0
  3  4  1  0
  4  5  2  0
  5  6  1  0
  6  7  1  0
  7  8  1  0
  8  9  2  0
  8 10  1  0
 10 11  2  0
 11 12  1  0
 12 13  1  0
 13 14  2  0
 14 15  1  0
 15 16  2  0
 16 17  1  0
 17 18  2  0
 12 19  2  0
 19 20  1  0
 20 21  1  0
 21 22  1  0
 22 23  1  0
 23 24  1  0
 24 25  1  0
 25 26  2  0
 26 27  1  0
 27 28  2  0
 28 29  1  0
 29 30  2  0
 24 31  2  0
 31 32  1  0
  5 33  1  0
 33 34  2  0
 34  2  1  0
 20 10  1  0
 32 22  1  0
 18 13  1  0
 30 25  1  0
  1 35  1  0
  1 36  1  0
  1 37  1  0
  3 38  1  0
  4 39  1  0
  6 40  1  0
  6 41  1  0
  7 42  1  0
 11 43  1  0
 14 44  1  0
 15 45  1  0
 16 46  1  0
 17 47  1  0
 18 48  1  0
 21 49  1  0
 21 50  1  0
 22 51  1  0
 23 52  1  0
 23 53  1  0
 26 54  1  0
 27 55  1  0
 28 56  1  0
 30 57  1  0
 33 58  1  0
 34 59  1  0
M  END
$$$$
