
     RDKit          3D

 62 64  0  0  0  0  0  0  0  0999 V2000
   -5.4775    2.6298   -0.3184 C   0  0  0  0  0  0  0  0  0  0  0  0
   -4.1812    1.9055   -0.0627 C   0  0  0  0  0  0  0  0  0  0  0  0
   -3.0952    2.7309    0.3138 C   0  0  0  0  0  0  0  0  0  0  0  0
   -1.8307    2.2122    0.5608 C   0  0  0  0  0  0  0  0  0  0  0  0
   -0.8487    3.1297    0.9655 O   0  0  0  0  0  0  0  0  0  0  0  0
    0.4228    2.7108    1.3136 C   0  0  0  0  0  0  0  0  0  0  0  0
    1.2460    3.5040    1.7640 O   0  0  0  0  0  0  0  0  0  0  0  0
    0.7463    1.2672    1.1296 C   0  0  0  0  0  0  0  0  0  0  0  0
    2.1805    0.9398    1.4726 C   0  0  0  0  0  0  0  0  0  0  0  0
    3.1060    1.2136    0.2922 C   0  0  0  0  0  0  0  0  0  0  0  0
    2.7113    1.4335   -0.8506 O   0  0  0  0  0  0  0  0  0  0  0  0
    4.4445    1.1337    0.6280 N   0  0  0  0  0  0  0  0  0  0  0  0
    5.4996    1.2631   -0.3564 C   0  0  0  0  0  0  0  0  0  0  0  0
    5.6886    0.0059   -1.2076 C   0  0  0  0  0  0  0  0  0  0  0  0
    5.9716   -1.2704   -0.4013 C   0  0  0  0  0  0  0  0  0  0  0  0
    7.1125   -1.1751    0.5268 N   0  0  0  0  0  0  0  0  0  0  0  0
    8.3850   -1.0469   -0.1894 C   0  0  0  0  0  0  0  0  0  0  0  0
    7.1535   -2.3614    1.3898 C   0  0  0  0  0  0  0  0  0  0  0  0
   -0.1727    0.3771    0.6889 C   0  0  0  0  0  0  0  0  0  0  0  0
    0.1513   -1.0633    0.3907 C   0  0  0  0  0  0  0  0  0  0  0  0
   -1.5398    0.8649    0.4362 C   0  0  0  0  0  0  0  0  0  0  0  0
   -2.6294    0.0546    0.0687 C   0  0  0  0  0  0  0  0  0  0  0  0
   -2.5670   -1.2942   -0.0715 O   0  0  0  0  0  0  0  0  0  0  0  0
   -3.7795   -1.7308   -0.4388 C   0  0  0  0  0  0  0  0  0  0  0  0
   -4.6938   -0.6977   -0.5610 C   0  0  0  0  0  0  0  0  0  0  0  0
   -6.1550   -0.9162   -0.9739 C   0  0  0  0  0  0  0  0  0  0  0  0
   -6.5689   -0.0097   -2.1458 C   0  0  0  0  0  0  0  0  0  0  0  0
   -6.3916   -2.3698   -1.4813 C   0  0  0  0  0  0  0  0  0  0  0  0
   -7.0914   -0.7301    0.2346 C   0  0  0  0  0  0  0  0  0  0  0  0
   -3.9384    0.5032   -0.1983 C   0  0  0  0  0  0  0  0  0  0  0  0
   -5.5827    2.8328   -1.3882 H   0  0  0  0  0  0  0  0  0  0  0  0
   -5.5069    3.5933    0.2058 H   0  0  0  0  0  0  0  0  0  0  0  0
   -6.3327    2.0669    0.0454 H   0  0  0  0  0  0  0  0  0  0  0  0
   -3.2413    3.8058    0.4223 H   0  0  0  0  0  0  0  0  0  0  0  0
    2.5193    1.5227    2.3391 H   0  0  0  0  0  0  0  0  0  0  0  0
    2.3014   -0.1083    1.7684 H   0  0  0  0  0  0  0  0  0  0  0  0
    4.7164    0.8417    1.5608 H   0  0  0  0  0  0  0  0  0  0  0  0
    5.2564    2.1096   -1.0108 H   0  0  0  0  0  0  0  0  0  0  0  0
    6.4195    1.5161    0.1830 H   0  0  0  0  0  0  0  0  0  0  0  0
    4.7835   -0.1663   -1.8034 H   0  0  0  0  0  0  0  0  0  0  0  0
    6.4957    0.1830   -1.9282 H   0  0  0  0  0  0  0  0  0  0  0  0
    5.0648   -1.5053    0.1723 H   0  0  0  0  0  0  0  0  0  0  0  0
    6.1132   -2.1053   -1.0997 H   0  0  0  0  0  0  0  0  0  0  0  0
    8.4283   -0.1140   -0.7601 H   0  0  0  0  0  0  0  0  0  0  0  0
    9.2204   -1.0059    0.5185 H   0  0  0  0  0  0  0  0  0  0  0  0
    8.5601   -1.8828   -0.8749 H   0  0  0  0  0  0  0  0  0  0  0  0
    6.2335   -2.4366    1.9823 H   0  0  0  0  0  0  0  0  0  0  0  0
    7.2708   -3.2890    0.8147 H   0  0  0  0  0  0  0  0  0  0  0  0
    7.9814   -2.2918    2.1060 H   0  0  0  0  0  0  0  0  0  0  0  0
   -0.1557   -1.3277   -0.6272 H   0  0  0  0  0  0  0  0  0  0  0  0
   -0.3422   -1.7277    1.1066 H   0  0  0  0  0  0  0  0  0  0  0  0
    1.2204   -1.2871    0.4310 H   0  0  0  0  0  0  0  0  0  0  0  0
   -3.8433   -2.8007   -0.5829 H   0  0  0  0  0  0  0  0  0  0  0  0
   -6.7330    1.0220   -1.8428 H   0  0  0  0  0  0  0  0  0  0  0  0
   -7.5153   -0.3424   -2.5905 H   0  0  0  0  0  0  0  0  0  0  0  0
   -5.8116   -0.0123   -2.9385 H   0  0  0  0  0  0  0  0  0  0  0  0
   -6.1814   -3.1140   -0.7036 H   0  0  0  0  0  0  0  0  0  0  0  0
   -5.7585   -2.5998   -2.3469 H   0  0  0  0  0  0  0  0  0  0  0  0
   -7.4347   -2.5191   -1.7875 H   0  0  0  0  0  0  0  0  0  0  0  0
   -8.1418   -0.8201   -0.0606 H   0  0  0  0  0  0  0  0  0  0  0  0
   -6.9665    0.2363    0.7211 H   0  0  0  0  0  0  0  0  0  0  0  0
   -6.8965   -1.4876    1.0017 H   0  0  0  0  0  0  0  0  0  0  0  0
  1  2  1  0
  2  3  2  0
  3  4  1  0
  4  5  1  0
  5  6  1  0
  6  7  2  0
  6  8  1  0
  8  9  1  0
  9 10  1  0
 10 11  2  0
 10 12  1  0
 12 13  1  0
 13 14  1  0
 14 15  1  0
 15 16  1  0
 16 17  1  0
 16 18  1  0
  8 19  2  0
 19 20  1  0
 19 21  1  0
 21 22  1  0
 22 23  1  0
 23 24  1  0
 24 25  2  0
 25 26  1  0
 26 27  1  0
 26 28  1  0
 26 29  1  0
 25 30  1  0
 30  2  1  0
 21  4  2  0
 30 22  2  0
  1 31  1  0
  1 32  1  0
  1 33  1  0
  3 34  1  0
  9 35  1  0
  9 36  1  0
 12 37  1  0
 13 38  1  0
 13 39  1  0
 14 40  1  0
 14 41  1  0
 15 42  1  0
 15 43  1  0
 17 44  1  0
 17 45  1  0
 17 46  1  0
 18 47  1  0
 18 48  1  0
 18 49  1  0
 20 50  1  0
 20 51  1  0
 20 52  1  0
 24 53  1  0
 27 54  1  0
 27 55  1  0
 27 56  1  0
 28 57  1  0
 28 58  1  0
 28 59  1  0
 29 60  1  0
 29 61  1  0
 29 62  1  0
M  END
$$$$
