
     RDKit          3D

 54 57  0  0  0  0  0  0  0  0999 V2000
   -2.9885    5.5433    0.0660 C   0  0  0  0  0  0  0  0  0  0  0  0
   -2.5134    5.0250   -1.1700 O   0  0  0  0  0  0  0  0  0  0  0  0
   -1.8711    3.8185   -1.1269 C   0  0  0  0  0  0  0  0  0  0  0  0
   -1.6381    3.0521    0.0135 C   0  0  0  0  0  0  0  0  0  0  0  0
   -0.9644    1.8293   -0.0857 C   0  0  0  0  0  0  0  0  0  0  0  0
   -0.5180    1.3473   -1.3263 C   0  0  0  0  0  0  0  0  0  0  0  0
    0.2393    0.0340   -1.4592 C   0  0  0  0  0  0  0  0  0  0  0  0
    1.7157    0.2128   -1.1014 C   0  0  0  0  0  0  0  0  0  0  0  0
    1.7840   -0.5779    0.1758 C   0  0  0  0  0  0  0  0  0  0  0  0
    3.0022   -0.5969    1.0184 C   0  0  0  0  0  0  0  0  0  0  0  0
    2.9859   -1.3147    2.2188 C   0  0  0  0  0  0  0  0  0  0  0  0
    4.1202   -1.3481    3.0296 C   0  0  0  0  0  0  0  0  0  0  0  0
    5.2777   -0.6662    2.6468 C   0  0  0  0  0  0  0  0  0  0  0  0
    5.3040    0.0508    1.4500 C   0  0  0  0  0  0  0  0  0  0  0  0
    6.3684    0.7572    0.9597 O   0  0  0  0  0  0  0  0  0  0  0  0
    7.5573    0.7551    1.7407 C   0  0  0  0  0  0  0  0  0  0  0  0
    4.1643    0.0827    0.6388 C   0  0  0  0  0  0  0  0  0  0  0  0
    0.7144   -1.2571    0.4612 N   0  0  0  0  0  0  0  0  0  0  0  0
   -0.2076   -0.9891   -0.5102 N   0  0  0  0  0  0  0  0  0  0  0  0
   -1.3821   -1.7340   -0.6033 C   0  0  0  0  0  0  0  0  0  0  0  0
   -2.3343   -1.5188   -1.6144 C   0  0  0  0  0  0  0  0  0  0  0  0
   -3.5144   -2.2696   -1.6888 C   0  0  0  0  0  0  0  0  0  0  0  0
   -3.7627   -3.2545   -0.7355 C   0  0  0  0  0  0  0  0  0  0  0  0
   -5.2547   -4.2052   -0.8078 S   0  0  0  0  0  6  0  0  0  0  0  0
   -6.2326   -3.3744    0.2848 N   0  0  0  0  0  0  0  0  0  0  0  0
   -5.8670   -4.0068   -2.1018 O   0  0  0  0  0  0  0  0  0  0  0  0
   -4.9932   -5.5164   -0.2647 O   0  0  0  0  0  0  0  0  0  0  0  0
   -2.8369   -3.5083    0.2729 C   0  0  0  0  0  0  0  0  0  0  0  0
   -1.6649   -2.7473    0.3329 C   0  0  0  0  0  0  0  0  0  0  0  0
   -0.7504    2.1306   -2.4662 C   0  0  0  0  0  0  0  0  0  0  0  0
   -1.4231    3.3511   -2.3637 C   0  0  0  0  0  0  0  0  0  0  0  0
   -2.1622    5.7289    0.7602 H   0  0  0  0  0  0  0  0  0  0  0  0
   -3.4731    6.5029   -0.1383 H   0  0  0  0  0  0  0  0  0  0  0  0
   -3.7379    4.8800    0.5104 H   0  0  0  0  0  0  0  0  0  0  0  0
   -1.9657    3.3720    0.9969 H   0  0  0  0  0  0  0  0  0  0  0  0
   -0.7960    1.2465    0.8195 H   0  0  0  0  0  0  0  0  0  0  0  0
    0.1605   -0.3402   -2.4880 H   0  0  0  0  0  0  0  0  0  0  0  0
    2.0191    1.2533   -0.9572 H   0  0  0  0  0  0  0  0  0  0  0  0
    2.3606   -0.2652   -1.8465 H   0  0  0  0  0  0  0  0  0  0  0  0
    2.0917   -1.8518    2.5291 H   0  0  0  0  0  0  0  0  0  0  0  0
    4.1019   -1.9082    3.9616 H   0  0  0  0  0  0  0  0  0  0  0  0
    6.1395   -0.7168    3.3042 H   0  0  0  0  0  0  0  0  0  0  0  0
    7.3875    1.2169    2.7190 H   0  0  0  0  0  0  0  0  0  0  0  0
    7.9592   -0.2582    1.8451 H   0  0  0  0  0  0  0  0  0  0  0  0
    8.3042    1.3567    1.2138 H   0  0  0  0  0  0  0  0  0  0  0  0
    4.2125    0.6445   -0.2892 H   0  0  0  0  0  0  0  0  0  0  0  0
   -2.1798   -0.7534   -2.3695 H   0  0  0  0  0  0  0  0  0  0  0  0
   -4.2236   -2.0738   -2.4900 H   0  0  0  0  0  0  0  0  0  0  0  0
   -7.0187   -2.9665   -0.2238 H   0  0  0  0  0  0  0  0  0  0  0  0
   -5.7227   -2.6738    0.8224 H   0  0  0  0  0  0  0  0  0  0  0  0
   -3.0100   -4.2890    1.0104 H   0  0  0  0  0  0  0  0  0  0  0  0
   -0.9513   -2.9549    1.1285 H   0  0  0  0  0  0  0  0  0  0  0  0
   -0.4122    1.7999   -3.4458 H   0  0  0  0  0  0  0  0  0  0  0  0
   -1.5994    3.9459   -3.2570 H   0  0  0  0  0  0  0  0  0  0  0  0
  1  2  1  0
  2  3  1  0
  3  4  2  0
  4  5  1  0
  5  6  2  0
  6  7  1  0
  7  8  1  0
  8  9  1  0
  9 10  1  0
 10 11  2  0
 11 12  1  0
 12 13  2  0
 13 14  1  0
 14 15  1  0
 15 16  1  0
 14 17  2  0
  9 18  2  0
 18 19  1  0
 19 20  1  0
 20 21  2  0
 21 22  1  0
 22 23  2  0
 23 24  1  0
 24 25  1  0
 24 26  2  0
 24 27  2  0
 23 28  1  0
 28 29  2  0
  6 30  1  0
 30 31  2  0
 31  3  1  0
 19  7  1  0
 29 20  1  0
 17 10  1  0
  1 32  1  0
  1 33  1  0
  1 34  1  0
  4 35  1  0
  5 36  1  0
  7 37  1  0
  8 38  1  0
  8 39  1  0
 11 40  1  0
 12 41  1  0
 13 42  1  0
 16 43  1  0
 16 44  1  0
 16 45  1  0
 17 46  1  0
 21 47  1  0
 22 48  1  0
 25 49  1  0
 25 50  1  0
 28 51  1  0
 29 52  1  0
 30 53  1  0
 31 54  1  0
M  END
$$$$
