
     RDKit          3D

 56 59  0  0  0  0  0  0  0  0999 V2000
   -2.4999    4.6374    0.0829 C   0  0  0  0  0  0  0  0  0  0  0  0
   -2.5139    3.7654   -1.1576 C   0  0  0  0  0  0  0  0  0  0  0  0
   -2.6866    2.3896   -0.7973 O   0  0  0  0  0  0  0  0  0  0  0  0
   -1.5406    1.7148   -0.4857 C   0  0  0  0  0  0  0  0  0  0  0  0
   -0.4321    2.2345   -0.4167 O   0  0  0  0  0  0  0  0  0  0  0  0
   -1.7854    0.3076   -0.1753 C   0  0  0  0  0  0  0  0  0  0  0  0
   -0.9195   -0.7143   -0.5228 C   0  0  0  0  0  0  0  0  0  0  0  0
    0.2107   -0.7926   -1.3043 N   0  0  0  0  0  0  0  0  0  0  0  0
    0.4454    0.0395   -2.3848 C   0  0  0  0  0  0  0  0  0  0  0  0
   -0.4152    0.7462   -2.9132 O   0  0  0  0  0  0  0  0  0  0  0  0
    1.8122   -0.1575   -3.0482 C   0  0  0  0  0  0  0  0  0  0  0  0
    2.9230   -0.2925   -2.1036 N   0  0  0  0  0  0  0  0  0  0  0  0
    3.7037    0.8258   -1.9184 N   0  0  0  0  0  0  0  0  0  0  0  0
    4.7128    0.7579   -1.1011 C   0  0  0  0  0  0  0  0  0  0  0  0
    5.5410    2.0169   -0.9274 C   0  0  0  0  0  0  0  0  0  0  0  0
    5.4535    2.7719    0.0178 O   0  0  0  0  0  0  0  0  0  0  0  0
    6.4160    2.1771   -1.9253 O   0  0  0  0  0  0  0  0  0  0  0  0
    5.0887   -0.4497   -0.3576 C   0  0  0  0  0  0  0  0  0  0  0  0
    6.1742   -0.4982    0.5250 C   0  0  0  0  0  0  0  0  0  0  0  0
    6.4722   -1.6885    1.1921 C   0  0  0  0  0  0  0  0  0  0  0  0
    5.6927   -2.8257    0.9808 C   0  0  0  0  0  0  0  0  0  0  0  0
    4.6102   -2.7756    0.1025 C   0  0  0  0  0  0  0  0  0  0  0  0
    4.3108   -1.5830   -0.5661 C   0  0  0  0  0  0  0  0  0  0  0  0
    3.1585   -1.5131   -1.4822 C   0  0  0  0  0  0  0  0  0  0  0  0
    2.4292   -2.4923   -1.6316 O   0  0  0  0  0  0  0  0  0  0  0  0
   -1.3110   -2.2061    0.1901 S   0  0  0  0  0  0  0  0  0  0  0  0
   -2.7352   -1.5727    0.8597 C   0  0  0  0  0  0  0  0  0  0  0  0
   -2.8944   -0.2238    0.5985 C   0  0  0  0  0  0  0  0  0  0  0  0
   -4.0504    0.5499    1.1719 C   0  0  0  0  0  0  0  0  0  0  0  0
   -5.1568   -0.3655    1.7219 C   0  0  0  0  0  0  0  0  0  0  0  0
   -4.5862   -1.5446    2.5345 C   0  0  0  0  0  0  0  0  0  0  0  0
   -5.7106   -2.3773    3.1460 C   0  0  0  0  0  0  0  0  0  0  0  0
   -3.6805   -2.4257    1.6494 C   0  0  0  0  0  0  0  0  0  0  0  0
   -2.4484    5.6956   -0.1888 H   0  0  0  0  0  0  0  0  0  0  0  0
   -3.3993    4.4678    0.6843 H   0  0  0  0  0  0  0  0  0  0  0  0
   -1.6428    4.4010    0.7218 H   0  0  0  0  0  0  0  0  0  0  0  0
   -1.6105    3.9097   -1.7615 H   0  0  0  0  0  0  0  0  0  0  0  0
   -3.3663    4.0394   -1.7873 H   0  0  0  0  0  0  0  0  0  0  0  0
    0.7334   -1.6652   -1.2614 H   0  0  0  0  0  0  0  0  0  0  0  0
    1.7597   -1.0575   -3.6700 H   0  0  0  0  0  0  0  0  0  0  0  0
    2.0106    0.7016   -3.6971 H   0  0  0  0  0  0  0  0  0  0  0  0
    6.8488    3.0336   -1.7351 H   0  0  0  0  0  0  0  0  0  0  0  0
    6.7970    0.3716    0.7151 H   0  0  0  0  0  0  0  0  0  0  0  0
    7.3126   -1.7295    1.8820 H   0  0  0  0  0  0  0  0  0  0  0  0
    5.9249   -3.7511    1.5025 H   0  0  0  0  0  0  0  0  0  0  0  0
    4.0018   -3.6638   -0.0555 H   0  0  0  0  0  0  0  0  0  0  0  0
   -4.4936    1.2030    0.4136 H   0  0  0  0  0  0  0  0  0  0  0  0
   -3.6727    1.1878    1.9815 H   0  0  0  0  0  0  0  0  0  0  0  0
   -5.7493   -0.7577    0.8843 H   0  0  0  0  0  0  0  0  0  0  0  0
   -5.8390    0.2305    2.3398 H   0  0  0  0  0  0  0  0  0  0  0  0
   -3.9833   -1.1365    3.3577 H   0  0  0  0  0  0  0  0  0  0  0  0
   -6.3170   -1.7692    3.8246 H   0  0  0  0  0  0  0  0  0  0  0  0
   -5.3054   -3.2170    3.7195 H   0  0  0  0  0  0  0  0  0  0  0  0
   -6.3728   -2.7836    2.3744 H   0  0  0  0  0  0  0  0  0  0  0  0
   -3.1328   -3.1360    2.2807 H   0  0  0  0  0  0  0  0  0  0  0  0
   -4.2920   -3.0103    0.9493 H   0  0  0  0  0  0  0  0  0  0  0  0
  1  2  1  0
  2  3  1  0
  3  4  1  0
  4  5  2  0
  4  6  1  0
  6  7  2  0
  7  8  1  0
  8  9  1  0
  9 10  2  0
  9 11  1  0
 11 12  1  0
 12 13  1  0
 13 14  2  0
 14 15  1  0
 15 16  2  0
 15 17  1  0
 14 18  1  0
 18 19  2  0
 19 20  1  0
 20 21  2  0
 21 22  1  0
 22 23  2  0
 23 24  1  0
 24 25  2  0
  7 26  1  0
 26 27  1  0
 27 28  2  0
 28 29  1  0
 29 30  1  0
 30 31  1  0
 31 32  1  0
 31 33  1  0
 28  6  1  0
 24 12  1  0
 33 27  1  0
 23 18  1  0
  1 34  1  0
  1 35  1  0
  1 36  1  0
  2 37  1  0
  2 38  1  0
  8 39  1  0
 11 40  1  0
 11 41  1  0
 17 42  1  0
 19 43  1  0
 20 44  1  0
 21 45  1  0
 22 46  1  0
 29 47  1  0
 29 48  1  0
 30 49  1  0
 30 50  1  0
 31 51  1  0
 32 52  1  0
 32 53  1  0
 32 54  1  0
 33 55  1  0
 33 56  1  0
M  END
$$$$
