
     RDKit          3D

 48 50  0  0  0  0  0  0  0  0999 V2000
    6.1560    1.2046    1.5905 C   0  0  0  0  0  0  0  0  0  0  0  0
    5.6270    0.8059    0.2200 C   0  0  0  0  0  0  0  0  0  0  0  0
    4.6732   -0.3056    0.3277 N   0  0  0  0  0  0  0  0  0  0  0  0
    5.2412   -1.6518    0.1798 C   0  0  0  0  0  0  0  0  0  0  0  0
    5.2115   -2.1040   -1.2736 C   0  0  0  0  0  0  0  0  0  0  0  0
    3.3109   -0.0938    0.5180 C   0  0  0  0  0  0  0  0  0  0  0  0
    2.7771    1.1817    0.7774 C   0  0  0  0  0  0  0  0  0  0  0  0
    1.4049    1.4035    0.9743 C   0  0  0  0  0  0  0  0  0  0  0  0
    0.5075    0.3422    0.9160 C   0  0  0  0  0  0  0  0  0  0  0  0
   -0.9209    0.5628    1.1439 C   0  0  0  0  0  0  0  0  0  0  0  0
   -1.8613    0.8414    0.2183 C   0  0  0  0  0  0  0  0  0  0  0  0
   -1.5856    0.9638   -1.2297 C   0  0  0  0  0  0  0  0  0  0  0  0
   -0.5100    0.7360   -1.7679 O   0  0  0  0  0  0  0  0  0  0  0  0
   -2.6546    1.3524   -1.9813 N   0  0  0  0  0  0  0  0  0  0  0  0
   -3.9607    1.3867   -1.5983 C   0  0  0  0  0  0  0  0  0  0  0  0
   -4.8284    1.5645   -2.4523 O   0  0  0  0  0  0  0  0  0  0  0  0
   -4.2218    1.2140   -0.2562 N   0  0  0  0  0  0  0  0  0  0  0  0
   -5.6156    1.2428    0.1662 C   0  0  0  0  0  0  0  0  0  0  0  0
   -6.2071   -0.1128   -0.0145 C   0  0  0  0  0  0  0  0  0  0  0  0
   -6.9379   -0.6997   -1.0277 C   0  0  0  0  0  0  0  0  0  0  0  0
   -7.2040   -2.0262   -0.6115 C   0  0  0  0  0  0  0  0  0  0  0  0
   -6.6191   -2.1646    0.6251 C   0  0  0  0  0  0  0  0  0  0  0  0
   -6.0093   -1.0093    0.9944 O   0  0  0  0  0  0  0  0  0  0  0  0
   -3.2525    1.0358    0.7174 C   0  0  0  0  0  0  0  0  0  0  0  0
   -3.4974    1.0527    1.9232 O   0  0  0  0  0  0  0  0  0  0  0  0
    0.9969   -0.9350    0.6631 C   0  0  0  0  0  0  0  0  0  0  0  0
    2.3721   -1.1404    0.4689 C   0  0  0  0  0  0  0  0  0  0  0  0
    6.6590    0.3626    2.0775 H   0  0  0  0  0  0  0  0  0  0  0  0
    6.8785    2.0210    1.4935 H   0  0  0  0  0  0  0  0  0  0  0  0
    5.3532    1.5394    2.2544 H   0  0  0  0  0  0  0  0  0  0  0  0
    5.1943    1.6679   -0.3001 H   0  0  0  0  0  0  0  0  0  0  0  0
    6.4783    0.5032   -0.4032 H   0  0  0  0  0  0  0  0  0  0  0  0
    6.2849   -1.6494    0.5195 H   0  0  0  0  0  0  0  0  0  0  0  0
    4.7400   -2.3793    0.8278 H   0  0  0  0  0  0  0  0  0  0  0  0
    5.6568   -3.0996   -1.3681 H   0  0  0  0  0  0  0  0  0  0  0  0
    5.7787   -1.4170   -1.9109 H   0  0  0  0  0  0  0  0  0  0  0  0
    4.1904   -2.1511   -1.6645 H   0  0  0  0  0  0  0  0  0  0  0  0
    3.4201    2.0532    0.8460 H   0  0  0  0  0  0  0  0  0  0  0  0
    1.0576    2.4137    1.1744 H   0  0  0  0  0  0  0  0  0  0  0  0
   -1.1926    0.4847    2.1970 H   0  0  0  0  0  0  0  0  0  0  0  0
   -2.4879    1.4139   -2.9760 H   0  0  0  0  0  0  0  0  0  0  0  0
   -6.1703    1.9742   -0.4332 H   0  0  0  0  0  0  0  0  0  0  0  0
   -5.7038    1.5526    1.2132 H   0  0  0  0  0  0  0  0  0  0  0  0
   -7.2329   -0.2257   -1.9548 H   0  0  0  0  0  0  0  0  0  0  0  0
   -7.7524   -2.7887   -1.1466 H   0  0  0  0  0  0  0  0  0  0  0  0
   -6.5487   -2.9772    1.3352 H   0  0  0  0  0  0  0  0  0  0  0  0
    0.3233   -1.7862    0.6073 H   0  0  0  0  0  0  0  0  0  0  0  0
    2.6813   -2.1599    0.2620 H   0  0  0  0  0  0  0  0  0  0  0  0
  1  2  1  0
  2  3  1  0
  3  4  1  0
  4  5  1  0
  3  6  1  0
  6  7  2  0
  7  8  1  0
  8  9  2  0
  9 10  1  0
 10 11  2  3
 11 12  1  0
 12 13  2  0
 12 14  1  0
 14 15  1  0
 15 16  2  0
 15 17  1  0
 17 18  1  0
 18 19  1  0
 19 20  2  0
 20 21  1  0
 21 22  2  0
 22 23  1  0
 17 24  1  0
 24 25  2  0
  9 26  1  0
 26 27  2  0
 27  6  1  0
 24 11  1  0
 23 19  1  0
  1 28  1  0
  1 29  1  0
  1 30  1  0
  2 31  1  0
  2 32  1  0
  4 33  1  0
  4 34  1  0
  5 35  1  0
  5 36  1  0
  5 37  1  0
  7 38  1  0
  8 39  1  0
 10 40  1  0
 14 41  1  0
 18 42  1  0
 18 43  1  0
 20 44  1  0
 21 45  1  0
 22 46  1  0
 26 47  1  0
 27 48  1  0
M  END
$$$$
