
     RDKit          3D

 53 56  0  0  0  0  0  0  0  0999 V2000
    6.0750    4.4789    2.9062 C   0  0  0  0  0  0  0  0  0  0  0  0
    4.9060    4.2711    2.1234 O   0  0  0  0  0  0  0  0  0  0  0  0
    4.9336    3.2288    1.2378 C   0  0  0  0  0  0  0  0  0  0  0  0
    6.0447    2.4424    0.9343 C   0  0  0  0  0  0  0  0  0  0  0  0
    5.9330    1.4032    0.0067 C   0  0  0  0  0  0  0  0  0  0  0  0
    4.7078    1.1414   -0.6115 C   0  0  0  0  0  0  0  0  0  0  0  0
    4.6593    0.1513   -1.5594 O   0  0  0  0  0  0  0  0  0  0  0  0
    4.4886   -1.1224   -0.9316 C   0  0  0  0  0  0  0  0  0  0  0  0
    3.5882    1.9381   -0.3383 C   0  0  0  0  0  0  0  0  0  0  0  0
    2.3065    1.6978   -0.9814 C   0  0  0  0  0  0  0  0  0  0  0  0
    1.5910    2.6797   -1.6429 C   0  0  0  0  0  0  0  0  0  0  0  0
    0.1326    2.0151   -2.2601 S   0  0  0  0  0  0  0  0  0  0  0  0
    0.5717    0.5018   -1.6018 C   0  0  0  0  0  0  0  0  0  0  0  0
   -0.3349   -0.4908   -1.8314 N   0  0  0  0  0  0  0  0  0  0  0  0
   -0.2082   -1.7518   -1.2907 C   0  0  0  0  0  0  0  0  0  0  0  0
    0.6988   -2.1769   -0.5791 O   0  0  0  0  0  0  0  0  0  0  0  0
   -1.3635   -2.6540   -1.6535 C   0  0  0  0  0  0  0  0  0  0  0  0
   -2.5485   -2.2817   -0.9059 N   0  0  0  0  0  0  0  0  0  0  0  0
   -2.8975   -2.7461    0.3417 C   0  0  0  0  0  0  0  0  0  0  0  0
   -2.1212   -3.5306    1.0814 O   0  0  0  0  0  0  0  0  0  0  0  0
   -4.1528   -2.2512    0.6213 C   0  0  0  0  0  0  0  0  0  0  0  0
   -4.5288   -1.3841   -0.4475 C   0  0  0  0  0  0  0  0  0  0  0  0
   -3.5001   -1.3979   -1.3642 C   0  0  0  0  0  0  0  0  0  0  0  0
   -3.3241   -0.7409   -2.5062 O   0  0  0  0  0  0  0  0  0  0  0  0
   -5.8243   -0.6444   -0.4669 C   0  0  0  0  0  0  0  0  0  0  0  0
   -6.4716   -0.6040    0.9270 C   0  0  0  0  0  0  0  0  0  0  0  0
   -6.4315   -1.9764    1.6180 C   0  0  0  0  0  0  0  0  0  0  0  0
   -4.9916   -2.4675    1.8362 C   0  0  0  0  0  0  0  0  0  0  0  0
    1.7046    0.4518   -0.9565 N   0  0  0  0  0  0  0  0  0  0  0  0
    3.7150    2.9772    0.5968 C   0  0  0  0  0  0  0  0  0  0  0  0
    6.9200    4.7795    2.2782 H   0  0  0  0  0  0  0  0  0  0  0  0
    5.8697    5.2976    3.6023 H   0  0  0  0  0  0  0  0  0  0  0  0
    6.3177    3.5909    3.4993 H   0  0  0  0  0  0  0  0  0  0  0  0
    7.0124    2.6145    1.3932 H   0  0  0  0  0  0  0  0  0  0  0  0
    6.8036    0.8035   -0.2419 H   0  0  0  0  0  0  0  0  0  0  0  0
    3.7355   -1.1036   -0.1357 H   0  0  0  0  0  0  0  0  0  0  0  0
    4.1590   -1.8316   -1.6961 H   0  0  0  0  0  0  0  0  0  0  0  0
    5.4437   -1.4740   -0.5289 H   0  0  0  0  0  0  0  0  0  0  0  0
    1.8474    3.7180   -1.7975 H   0  0  0  0  0  0  0  0  0  0  0  0
   -1.1909   -0.2302   -2.3097 H   0  0  0  0  0  0  0  0  0  0  0  0
   -1.1158   -3.6955   -1.4225 H   0  0  0  0  0  0  0  0  0  0  0  0
   -1.5758   -2.6006   -2.7269 H   0  0  0  0  0  0  0  0  0  0  0  0
   -1.1852   -3.4053    0.8368 H   0  0  0  0  0  0  0  0  0  0  0  0
   -4.1470   -0.2401   -2.6634 H   0  0  0  0  0  0  0  0  0  0  0  0
   -6.5034   -1.1461   -1.1671 H   0  0  0  0  0  0  0  0  0  0  0  0
   -5.6764    0.3786   -0.8301 H   0  0  0  0  0  0  0  0  0  0  0  0
   -7.5088   -0.2613    0.8365 H   0  0  0  0  0  0  0  0  0  0  0  0
   -5.9462    0.1276    1.5547 H   0  0  0  0  0  0  0  0  0  0  0  0
   -6.9768   -2.7025    1.0016 H   0  0  0  0  0  0  0  0  0  0  0  0
   -6.9478   -1.9248    2.5829 H   0  0  0  0  0  0  0  0  0  0  0  0
   -4.5446   -1.9178    2.6731 H   0  0  0  0  0  0  0  0  0  0  0  0
   -5.0037   -3.5283    2.1094 H   0  0  0  0  0  0  0  0  0  0  0  0
    2.8556    3.5938    0.8499 H   0  0  0  0  0  0  0  0  0  0  0  0
  1  2  1  0
  2  3  1  0
  3  4  2  0
  4  5  1  0
  5  6  2  0
  6  7  1  0
  7  8  1  0
  6  9  1  0
  9 10  1  0
 10 11  2  0
 11 12  1  0
 12 13  1  0
 13 14  1  0
 14 15  1  0
 15 16  2  0
 15 17  1  0
 17 18  1  0
 18 19  1  0
 19 20  1  0
 19 21  2  0
 21 22  1  0
 22 23  2  0
 23 24  1  0
 22 25  1  0
 25 26  1  0
 26 27  1  0
 27 28  1  0
 13 29  2  0
  9 30  2  0
 30  3  1  0
 29 10  1  0
 23 18  1  0
 28 21  1  0
  1 31  1  0
  1 32  1  0
  1 33  1  0
  4 34  1  0
  5 35  1  0
  8 36  1  0
  8 37  1  0
  8 38  1  0
 11 39  1  0
 14 40  1  0
 17 41  1  0
 17 42  1  0
 20 43  1  0
 24 44  1  0
 25 45  1  0
 25 46  1  0
 26 47  1  0
 26 48  1  0
 27 49  1  0
 27 50  1  0
 28 51  1  0
 28 52  1  0
 30 53  1  0
M  END
$$$$
