
     RDKit          3D

 37 40  0  0  0  0  0  0  0  0999 V2000
    3.1345    3.9500    0.4726 O   0  0  0  0  0  0  0  0  0  0  0  0
    3.3959    2.7665    0.4020 C   0  0  0  0  0  0  0  0  0  0  0  0
    4.6294    2.1955    0.3944 O   0  0  0  0  0  0  0  0  0  0  0  0
    4.4194    0.8563    0.3025 C   0  0  0  0  0  0  0  0  0  0  0  0
    5.6133    0.0702    0.2799 C   0  0  0  0  0  0  0  0  0  0  0  0
    6.9531    0.4117    0.3342 C   0  0  0  0  0  0  0  0  0  0  0  0
    7.6874   -0.7977    0.2732 C   0  0  0  0  0  0  0  0  0  0  0  0
    6.7566   -1.8044    0.1855 C   0  0  0  0  0  0  0  0  0  0  0  0
    5.5005   -1.2914    0.1888 O   0  0  0  0  0  0  0  0  0  0  0  0
    3.1969    0.4360    0.2459 N   0  0  0  0  0  0  0  0  0  0  0  0
    2.4778    1.5999    0.3043 C   0  0  0  0  0  0  0  0  0  0  0  0
    1.1527    1.7814    0.2845 C   0  0  0  0  0  0  0  0  0  0  0  0
    0.1876    0.7407    0.1939 C   0  0  0  0  0  0  0  0  0  0  0  0
    0.3054   -0.6411    0.1066 C   0  0  0  0  0  0  0  0  0  0  0  0
   -0.9972   -1.1928    0.0399 C   0  0  0  0  0  0  0  0  0  0  0  0
   -1.8729   -0.1320    0.0884 C   0  0  0  0  0  0  0  0  0  0  0  0
   -3.3286   -0.0005    0.0628 C   0  0  0  0  0  0  0  0  0  0  0  0
   -3.9474    1.2572    0.1157 C   0  0  0  0  0  0  0  0  0  0  0  0
   -5.3389    1.3782    0.0945 C   0  0  0  0  0  0  0  0  0  0  0  0
   -6.1373    0.2394    0.0173 C   0  0  0  0  0  0  0  0  0  0  0  0
   -5.5509   -1.0316   -0.0462 C   0  0  0  0  0  0  0  0  0  0  0  0
   -6.4085   -2.2709   -0.1066 C   0  0  0  0  0  0  0  0  0  0  0  0
   -6.6919   -2.7649    1.1299 F   0  0  0  0  0  0  0  0  0  0  0  0
   -5.8218   -3.2926   -0.7914 F   0  0  0  0  0  0  0  0  0  0  0  0
   -7.6114   -2.0628   -0.7115 F   0  0  0  0  0  0  0  0  0  0  0  0
   -4.1476   -1.1381   -0.0147 C   0  0  0  0  0  0  0  0  0  0  0  0
   -1.1615    1.0277    0.1806 O   0  0  0  0  0  0  0  0  0  0  0  0
    7.3509    1.4150    0.4088 H   0  0  0  0  0  0  0  0  0  0  0  0
    8.7614   -0.9215    0.2908 H   0  0  0  0  0  0  0  0  0  0  0  0
    6.8208   -2.8819    0.1171 H   0  0  0  0  0  0  0  0  0  0  0  0
    0.7543    2.7920    0.3407 H   0  0  0  0  0  0  0  0  0  0  0  0
    1.2333   -1.1970    0.0922 H   0  0  0  0  0  0  0  0  0  0  0  0
   -1.2528   -2.2398   -0.0349 H   0  0  0  0  0  0  0  0  0  0  0  0
   -3.3463    2.1627    0.1766 H   0  0  0  0  0  0  0  0  0  0  0  0
   -5.7963    2.3638    0.1399 H   0  0  0  0  0  0  0  0  0  0  0  0
   -7.2211    0.3467    0.0050 H   0  0  0  0  0  0  0  0  0  0  0  0
   -3.6987   -2.1298   -0.0531 H   0  0  0  0  0  0  0  0  0  0  0  0
  1  2  2  0
  2  3  1  0
  3  4  1  0
  4  5  1  0
  5  6  2  0
  6  7  1  0
  7  8  2  0
  8  9  1  0
  4 10  2  0
 10 11  1  0
 11 12  2  3
 12 13  1  0
 13 14  2  0
 14 15  1  0
 15 16  2  0
 16 17  1  0
 17 18  2  0
 18 19  1  0
 19 20  2  0
 20 21  1  0
 21 22  1  0
 22 23  1  0
 22 24  1  0
 22 25  1  0
 21 26  2  0
 16 27  1  0
 11  2  1  0
 27 13  1  0
  9  5  1  0
 26 17  1  0
  6 28  1  0
  7 29  1  0
  8 30  1  0
 12 31  1  0
 14 32  1  0
 15 33  1  0
 18 34  1  0
 19 35  1  0
 20 36  1  0
 26 37  1  0
M  END
$$$$
