
     RDKit          3D

 61 63  0  0  0  0  0  0  0  0999 V2000
   -3.0429   -1.8068   -3.0384 C   0  0  0  0  0  0  0  0  0  0  0  0
   -1.5723   -1.5957   -2.7298 C   0  0  0  0  0  0  0  0  0  0  0  0
   -1.4664   -1.1384   -1.3782 O   0  0  0  0  0  0  0  0  0  0  0  0
   -0.2103   -0.8118   -0.9718 C   0  0  0  0  0  0  0  0  0  0  0  0
    0.7824   -0.8878   -1.6920 O   0  0  0  0  0  0  0  0  0  0  0  0
   -0.1439   -0.3374    0.4132 C   0  0  0  0  0  0  0  0  0  0  0  0
   -1.2223   -0.2440    1.3739 C   0  0  0  0  0  0  0  0  0  0  0  0
   -2.6180   -0.6161    1.2107 C   0  0  0  0  0  0  0  0  0  0  0  0
   -3.0506   -1.8866    1.6003 C   0  0  0  0  0  0  0  0  0  0  0  0
   -4.3864   -2.2563    1.4200 C   0  0  0  0  0  0  0  0  0  0  0  0
   -5.3113   -1.3682    0.8472 C   0  0  0  0  0  0  0  0  0  0  0  0
   -6.7110   -1.7681    0.6437 C   0  0  0  0  0  0  0  0  0  0  0  0
   -7.2802   -1.7707   -0.6403 C   0  0  0  0  0  0  0  0  0  0  0  0
   -8.6072   -2.1610   -0.8369 C   0  0  0  0  0  0  0  0  0  0  0  0
   -9.3868   -2.5517    0.2491 C   0  0  0  0  0  0  0  0  0  0  0  0
   -8.8418   -2.5517    1.5303 C   0  0  0  0  0  0  0  0  0  0  0  0
   -7.5136   -2.1645    1.7251 C   0  0  0  0  0  0  0  0  0  0  0  0
   -4.8619   -0.0923    0.4686 C   0  0  0  0  0  0  0  0  0  0  0  0
   -3.5275    0.2845    0.6505 C   0  0  0  0  0  0  0  0  0  0  0  0
   -0.7957    0.2598    2.5864 C   0  0  0  0  0  0  0  0  0  0  0  0
    0.8687    0.6117    2.5851 S   0  0  0  0  0  0  0  0  0  0  0  0
    1.0530    0.0905    0.9806 C   0  0  0  0  0  0  0  0  0  0  0  0
    2.2884    0.1218    0.3466 N   0  0  0  0  0  0  0  0  0  0  0  0
    3.5108    0.4797    0.8901 C   0  0  0  0  0  0  0  0  0  0  0  0
    3.7429    0.8190    2.0476 O   0  0  0  0  0  0  0  0  0  0  0  0
    4.6406    0.3795   -0.1509 C   0  0  0  0  0  0  0  0  0  0  0  0
    5.8333    1.1372    0.2656 N   0  0  0  0  0  0  0  0  0  0  0  0
    5.6643    2.5809    0.0507 C   0  0  0  0  0  0  0  0  0  0  0  0
    6.8499    3.4277    0.5864 C   0  0  0  0  0  0  0  0  0  0  0  0
    8.1610    3.3488   -0.0832 N   0  0  0  0  0  0  0  0  0  0  0  0
    8.8284    2.0663    0.1218 C   0  0  0  0  0  0  0  0  0  0  0  0
    8.0898    3.6714   -1.5046 C   0  0  0  0  0  0  0  0  0  0  0  0
   -3.5954   -0.8666   -2.9351 H   0  0  0  0  0  0  0  0  0  0  0  0
   -3.4902   -2.5158   -2.3330 H   0  0  0  0  0  0  0  0  0  0  0  0
   -3.1782   -2.1826   -4.0571 H   0  0  0  0  0  0  0  0  0  0  0  0
   -1.1567   -0.8467   -3.4128 H   0  0  0  0  0  0  0  0  0  0  0  0
   -1.0281   -2.5399   -2.8391 H   0  0  0  0  0  0  0  0  0  0  0  0
   -2.3546   -2.5990    2.0371 H   0  0  0  0  0  0  0  0  0  0  0  0
   -4.7015   -3.2551    1.7162 H   0  0  0  0  0  0  0  0  0  0  0  0
   -6.6825   -1.4795   -1.5014 H   0  0  0  0  0  0  0  0  0  0  0  0
   -9.0290   -2.1642   -1.8377 H   0  0  0  0  0  0  0  0  0  0  0  0
  -10.4193   -2.8552    0.0967 H   0  0  0  0  0  0  0  0  0  0  0  0
   -9.4480   -2.8528    2.3804 H   0  0  0  0  0  0  0  0  0  0  0  0
   -7.1080   -2.1646    2.7345 H   0  0  0  0  0  0  0  0  0  0  0  0
   -5.5572    0.6223    0.0321 H   0  0  0  0  0  0  0  0  0  0  0  0
   -3.2058    1.2774    0.3456 H   0  0  0  0  0  0  0  0  0  0  0  0
   -1.3826    0.4378    3.4787 H   0  0  0  0  0  0  0  0  0  0  0  0
    2.2762   -0.1998   -0.6215 H   0  0  0  0  0  0  0  0  0  0  0  0
    4.9130   -0.6788   -0.2283 H   0  0  0  0  0  0  0  0  0  0  0  0
    4.2919    0.7092   -1.1359 H   0  0  0  0  0  0  0  0  0  0  0  0
    5.9571    0.9806    1.2711 H   0  0  0  0  0  0  0  0  0  0  0  0
    5.5132    2.7847   -1.0149 H   0  0  0  0  0  0  0  0  0  0  0  0
    4.7626    2.9288    0.5685 H   0  0  0  0  0  0  0  0  0  0  0  0
    6.5342    4.4795    0.5526 H   0  0  0  0  0  0  0  0  0  0  0  0
    6.9850    3.2156    1.6562 H   0  0  0  0  0  0  0  0  0  0  0  0
    8.8625    1.8065    1.1851 H   0  0  0  0  0  0  0  0  0  0  0  0
    9.8694    2.1298   -0.2128 H   0  0  0  0  0  0  0  0  0  0  0  0
    8.3585    1.2449   -0.4266 H   0  0  0  0  0  0  0  0  0  0  0  0
    9.0980    3.7592   -1.9246 H   0  0  0  0  0  0  0  0  0  0  0  0
    7.6020    4.6399   -1.6596 H   0  0  0  0  0  0  0  0  0  0  0  0
    7.5504    2.9148   -2.0845 H   0  0  0  0  0  0  0  0  0  0  0  0
  1  2  1  0
  2  3  1  0
  3  4  1  0
  4  5  2  0
  4  6  1  0
  6  7  1  0
  7  8  1  0
  8  9  2  0
  9 10  1  0
 10 11  2  0
 11 12  1  0
 12 13  2  0
 13 14  1  0
 14 15  2  0
 15 16  1  0
 16 17  2  0
 11 18  1  0
 18 19  2  0
  7 20  2  0
 20 21  1  0
 21 22  1  0
 22 23  1  0
 23 24  1  0
 24 25  2  0
 24 26  1  0
 26 27  1  0
 27 28  1  0
 28 29  1  0
 29 30  1  0
 30 31  1  0
 30 32  1  0
 22  6  2  0
 19  8  1  0
 17 12  1  0
  1 33  1  0
  1 34  1  0
  1 35  1  0
  2 36  1  0
  2 37  1  0
  9 38  1  0
 10 39  1  0
 13 40  1  0
 14 41  1  0
 15 42  1  0
 16 43  1  0
 17 44  1  0
 18 45  1  0
 19 46  1  0
 20 47  1  0
 23 48  1  0
 26 49  1  0
 26 50  1  0
 27 51  1  0
 28 52  1  0
 28 53  1  0
 29 54  1  0
 29 55  1  0
 31 56  1  0
 31 57  1  0
 31 58  1  0
 32 59  1  0
 32 60  1  0
 32 61  1  0
M  END
$$$$
