
     RDKit          3D

 51 54  0  0  0  0  0  0  0  0999 V2000
    1.4939   -1.7521    2.5855 O   0  0  0  0  0  0  0  0  0  0  0  0
    1.5832   -1.0656    1.5675 C   0  0  0  0  0  0  0  0  0  0  0  0
    2.8690   -0.7503    0.9728 C   0  0  0  0  0  0  0  0  0  0  0  0
    3.3744   -1.1200   -0.2603 C   0  0  0  0  0  0  0  0  0  0  0  0
    4.6916   -0.6147   -0.4791 C   0  0  0  0  0  0  0  0  0  0  0  0
    5.1415    0.0998    0.6146 C   0  0  0  0  0  0  0  0  0  0  0  0
    4.0011    0.1614    1.8752 S   0  0  0  0  0  0  0  0  0  0  0  0
    6.4723    0.7799    0.7129 C   0  0  0  0  0  0  0  0  0  0  0  0
    7.4240    0.2596   -0.3764 C   0  0  0  0  0  0  0  0  0  0  0  0
    6.7259    0.1494   -1.7402 C   0  0  0  0  0  0  0  0  0  0  0  0
    5.5425   -0.8302   -1.6941 C   0  0  0  0  0  0  0  0  0  0  0  0
    0.4348   -0.5683    0.9373 N   0  0  0  0  0  0  0  0  0  0  0  0
   -0.8616   -1.1261    1.3349 C   0  0  0  0  0  0  0  0  0  0  0  0
   -2.0020   -0.1054    1.2373 C   0  0  0  0  0  0  0  0  0  0  0  0
   -2.0311    0.4904   -0.1421 N   0  0  0  0  0  0  0  0  0  0  0  0
   -3.3960    1.4753   -0.4617 S   0  0  0  0  0  6  0  0  0  0  0  0
   -3.5519    2.3218    0.6982 O   0  0  0  0  0  0  0  0  0  0  0  0
   -3.2598    2.0103   -1.7973 O   0  0  0  0  0  0  0  0  0  0  0  0
   -4.7485    0.3139   -0.5191 C   0  0  0  0  0  0  0  0  0  0  0  0
   -4.4906   -0.9593   -1.0558 C   0  0  0  0  0  0  0  0  0  0  0  0
   -5.4941   -1.9252   -1.0860 C   0  0  0  0  0  0  0  0  0  0  0  0
   -6.7572   -1.6254   -0.5872 C   0  0  0  0  0  0  0  0  0  0  0  0
   -7.0234   -0.3538   -0.0748 C   0  0  0  0  0  0  0  0  0  0  0  0
   -6.0300    0.6460   -0.0451 C   0  0  0  0  0  0  0  0  0  0  0  0
   -6.3924    2.0180    0.4739 C   0  0  0  0  0  0  0  0  0  0  0  0
   -7.7446    2.2194    0.4957 F   0  0  0  0  0  0  0  0  0  0  0  0
   -5.9856    2.2229    1.7533 F   0  0  0  0  0  0  0  0  0  0  0  0
   -5.9029    3.0323   -0.2845 F   0  0  0  0  0  0  0  0  0  0  0  0
   -0.7354    1.1992   -0.4006 C   0  0  0  0  0  0  0  0  0  0  0  0
    0.4379    0.2110   -0.3092 C   0  0  0  0  0  0  0  0  0  0  0  0
    2.8262   -1.7312   -0.9673 H   0  0  0  0  0  0  0  0  0  0  0  0
    6.9255    0.6217    1.6981 H   0  0  0  0  0  0  0  0  0  0  0  0
    6.3285    1.8596    0.5824 H   0  0  0  0  0  0  0  0  0  0  0  0
    7.8046   -0.7292   -0.0890 H   0  0  0  0  0  0  0  0  0  0  0  0
    8.2909    0.9256   -0.4518 H   0  0  0  0  0  0  0  0  0  0  0  0
    7.4419   -0.1786   -2.5021 H   0  0  0  0  0  0  0  0  0  0  0  0
    6.3693    1.1428   -2.0413 H   0  0  0  0  0  0  0  0  0  0  0  0
    5.9234   -1.8588   -1.6740 H   0  0  0  0  0  0  0  0  0  0  0  0
    4.9410   -0.7211   -2.6037 H   0  0  0  0  0  0  0  0  0  0  0  0
   -0.8207   -1.5232    2.3542 H   0  0  0  0  0  0  0  0  0  0  0  0
   -1.0575   -1.9703    0.6622 H   0  0  0  0  0  0  0  0  0  0  0  0
   -2.9467   -0.6115    1.4566 H   0  0  0  0  0  0  0  0  0  0  0  0
   -1.8512    0.6873    1.9797 H   0  0  0  0  0  0  0  0  0  0  0  0
   -3.5089   -1.2039   -1.4574 H   0  0  0  0  0  0  0  0  0  0  0  0
   -5.2918   -2.9103   -1.5005 H   0  0  0  0  0  0  0  0  0  0  0  0
   -7.5431   -2.3777   -0.6084 H   0  0  0  0  0  0  0  0  0  0  0  0
   -8.0274   -0.1388    0.2931 H   0  0  0  0  0  0  0  0  0  0  0  0
   -0.7367    1.6387   -1.4032 H   0  0  0  0  0  0  0  0  0  0  0  0
   -0.6045    2.0031    0.3338 H   0  0  0  0  0  0  0  0  0  0  0  0
    1.3698    0.7731   -0.4123 H   0  0  0  0  0  0  0  0  0  0  0  0
    0.3825   -0.5114   -1.1324 H   0  0  0  0  0  0  0  0  0  0  0  0
  1  2  2  0
  2  3  1  0
  3  4  2  0
  4  5  1  0
  5  6  2  0
  6  7  1  0
  6  8  1  0
  8  9  1  0
  9 10  1  0
 10 11  1  0
  2 12  1  0
 12 13  1  0
 13 14  1  0
 14 15  1  0
 15 16  1  0
 16 17  2  0
 16 18  2  0
 16 19  1  0
 19 20  2  0
 20 21  1  0
 21 22  2  0
 22 23  1  0
 23 24  2  0
 24 25  1  0
 25 26  1  0
 25 27  1  0
 25 28  1  0
 15 29  1  0
 29 30  1  0
  7  3  1  0
 30 12  1  0
 11  5  1  0
 24 19  1  0
  4 31  1  0
  8 32  1  0
  8 33  1  0
  9 34  1  0
  9 35  1  0
 10 36  1  0
 10 37  1  0
 11 38  1  0
 11 39  1  0
 13 40  1  0
 13 41  1  0
 14 42  1  0
 14 43  1  0
 20 44  1  0
 21 45  1  0
 22 46  1  0
 23 47  1  0
 29 48  1  0
 29 49  1  0
 30 50  1  0
 30 51  1  0
M  END
$$$$
