
     RDKit          3D

 46 48  0  0  0  0  0  0  0  0999 V2000
    4.0507    1.7912   -2.1286 C   0  0  0  0  0  0  0  0  0  0  0  0
    3.8514    0.4634   -1.4115 C   0  0  0  0  0  0  0  0  0  0  0  0
    2.7768    0.5796   -0.3135 C   0  0  0  0  0  0  0  0  0  0  0  0
    2.6069   -0.6887    0.4070 N   0  0  0  0  0  0  0  0  0  0  0  0
    1.4574   -1.0987    1.0878 C   0  0  0  0  0  0  0  0  0  0  0  0
    1.3425   -2.2673    1.4663 O   0  0  0  0  0  0  0  0  0  0  0  0
    0.3747   -0.1390    1.3669 C   0  0  0  0  0  0  0  0  0  0  0  0
   -0.9358   -0.4756    1.8071 C   0  0  0  0  0  0  0  0  0  0  0  0
   -1.5774    0.7259    1.9747 C   0  0  0  0  0  0  0  0  0  0  0  0
   -2.9296    1.1431    2.4085 C   0  0  0  0  0  0  0  0  0  0  0  0
   -3.8443    0.0600    2.2179 O   0  0  0  0  0  0  0  0  0  0  0  0
   -4.5167   -0.0236    1.0303 C   0  0  0  0  0  0  0  0  0  0  0  0
   -5.6093   -0.8940    1.0419 C   0  0  0  0  0  0  0  0  0  0  0  0
   -6.3771   -1.0906   -0.1058 C   0  0  0  0  0  0  0  0  0  0  0  0
   -6.0515   -0.4179   -1.2812 C   0  0  0  0  0  0  0  0  0  0  0  0
   -4.9555    0.4574   -1.3154 C   0  0  0  0  0  0  0  0  0  0  0  0
   -4.5770    1.1621   -2.5950 C   0  0  0  0  0  0  0  0  0  0  0  0
   -4.0487    2.3997   -2.3816 F   0  0  0  0  0  0  0  0  0  0  0  0
   -5.6300    1.3494   -3.4384 F   0  0  0  0  0  0  0  0  0  0  0  0
   -3.6426    0.4752   -3.3080 F   0  0  0  0  0  0  0  0  0  0  0  0
   -4.1839    0.6398   -0.1512 C   0  0  0  0  0  0  0  0  0  0  0  0
   -0.7119    1.7289    1.6773 O   0  0  0  0  0  0  0  0  0  0  0  0
    0.5056    1.1976    1.3061 N   0  0  0  0  0  0  0  0  0  0  0  0
    3.7427   -1.6076    0.3238 C   0  0  0  0  0  0  0  0  0  0  0  0
    5.0652   -0.8278    0.2298 C   0  0  0  0  0  0  0  0  0  0  0  0
    6.2593   -1.7683    0.1557 C   0  0  0  0  0  0  0  0  0  0  0  0
    5.1307    0.0480   -0.9084 O   0  0  0  0  0  0  0  0  0  0  0  0
    4.4165    2.5579   -1.4362 H   0  0  0  0  0  0  0  0  0  0  0  0
    4.8049    1.6915   -2.9166 H   0  0  0  0  0  0  0  0  0  0  0  0
    3.1194    2.1437   -2.5812 H   0  0  0  0  0  0  0  0  0  0  0  0
    3.5386   -0.2874   -2.1479 H   0  0  0  0  0  0  0  0  0  0  0  0
    1.8267    0.8781   -0.7685 H   0  0  0  0  0  0  0  0  0  0  0  0
    3.0771    1.3260    0.4324 H   0  0  0  0  0  0  0  0  0  0  0  0
   -1.3393   -1.4638    1.9801 H   0  0  0  0  0  0  0  0  0  0  0  0
   -2.9028    1.3487    3.4843 H   0  0  0  0  0  0  0  0  0  0  0  0
   -3.2703    2.0648    1.9239 H   0  0  0  0  0  0  0  0  0  0  0  0
   -5.8661   -1.4254    1.9557 H   0  0  0  0  0  0  0  0  0  0  0  0
   -7.2250   -1.7710   -0.0819 H   0  0  0  0  0  0  0  0  0  0  0  0
   -6.6516   -0.5820   -2.1749 H   0  0  0  0  0  0  0  0  0  0  0  0
   -3.3202    1.2981   -0.2080 H   0  0  0  0  0  0  0  0  0  0  0  0
    3.7518   -2.2721    1.1945 H   0  0  0  0  0  0  0  0  0  0  0  0
    3.5870   -2.2205   -0.5721 H   0  0  0  0  0  0  0  0  0  0  0  0
    5.1727   -0.1948    1.1199 H   0  0  0  0  0  0  0  0  0  0  0  0
    7.1921   -1.1997    0.0832 H   0  0  0  0  0  0  0  0  0  0  0  0
    6.2039   -2.4013   -0.7364 H   0  0  0  0  0  0  0  0  0  0  0  0
    6.3117   -2.4128    1.0384 H   0  0  0  0  0  0  0  0  0  0  0  0
  1  2  1  0
  2  3  1  0
  3  4  1  0
  4  5  1  0
  5  6  2  0
  5  7  1  0
  7  8  1  0
  8  9  2  0
  9 10  1  0
 10 11  1  0
 11 12  1  0
 12 13  2  0
 13 14  1  0
 14 15  2  0
 15 16  1  0
 16 17  1  0
 17 18  1  0
 17 19  1  0
 17 20  1  0
 16 21  2  0
  9 22  1  0
 22 23  1  0
  4 24  1  0
 24 25  1  0
 25 26  1  0
 25 27  1  0
 27  2  1  0
 23  7  2  0
 21 12  1  0
  1 28  1  0
  1 29  1  0
  1 30  1  0
  2 31  1  0
  3 32  1  0
  3 33  1  0
  8 34  1  0
 10 35  1  0
 10 36  1  0
 13 37  1  0
 14 38  1  0
 15 39  1  0
 21 40  1  0
 24 41  1  0
 24 42  1  0
 25 43  1  0
 26 44  1  0
 26 45  1  0
 26 46  1  0
M  END
$$$$
