
     RDKit          3D

 41 42  0  0  0  0  0  0  0  0999 V2000
   -5.7643   -1.2959    1.3153 C   0  0  0  0  0  0  0  0  0  0  0  0
   -5.8450    0.1395    1.7885 C   0  0  0  0  0  0  0  0  0  0  0  0
   -6.7432    0.4710    2.5667 O   0  0  0  0  0  0  0  0  0  0  0  0
   -4.9407    1.0532    1.2446 N   0  0  0  0  0  0  0  0  0  0  0  0
   -5.2181    2.4634    1.4936 C   0  0  0  0  0  0  0  0  0  0  0  0
   -3.6198    0.7179    0.8199 C   0  0  0  0  0  0  0  0  0  0  0  0
   -2.8707   -0.2729    1.4617 C   0  0  0  0  0  0  0  0  0  0  0  0
   -1.5618   -0.5769    1.0515 C   0  0  0  0  0  0  0  0  0  0  0  0
   -0.9698    0.1054   -0.0061 C   0  0  0  0  0  0  0  0  0  0  0  0
    0.3309   -0.1078   -0.5091 N   0  0  0  0  0  0  0  0  0  0  0  0
    1.4084   -0.8564   -0.0920 C   0  0  0  0  0  0  0  0  0  0  0  0
    1.5881   -1.8038    1.2724 S   0  0  0  0  0  0  0  0  0  0  0  0
    2.5129   -0.7920   -0.9349 N   0  0  0  0  0  0  0  0  0  0  0  0
    2.6949   -0.0447   -2.0743 C   0  0  0  0  0  0  0  0  0  0  0  0
    1.8147    0.6456   -2.5865 O   0  0  0  0  0  0  0  0  0  0  0  0
    3.9975   -0.1799   -2.7790 C   0  0  0  0  0  0  0  0  0  0  0  0
    5.2579   -0.3925   -2.3730 C   0  0  0  0  0  0  0  0  0  0  0  0
    5.7194   -0.5336   -1.0379 C   0  0  0  0  0  0  0  0  0  0  0  0
    7.0281   -0.7229   -0.6022 C   0  0  0  0  0  0  0  0  0  0  0  0
    7.0145   -0.8123    0.8090 C   0  0  0  0  0  0  0  0  0  0  0  0
    5.7037   -0.6646    1.1776 C   0  0  0  0  0  0  0  0  0  0  0  0
    4.9258   -0.4952    0.0823 O   0  0  0  0  0  0  0  0  0  0  0  0
   -1.7232    1.0937   -0.6541 C   0  0  0  0  0  0  0  0  0  0  0  0
   -3.0243    1.4059   -0.2406 C   0  0  0  0  0  0  0  0  0  0  0  0
   -5.2729   -1.9162    2.0696 H   0  0  0  0  0  0  0  0  0  0  0  0
   -6.7838   -1.6665    1.1658 H   0  0  0  0  0  0  0  0  0  0  0  0
   -5.2515   -1.3858    0.3547 H   0  0  0  0  0  0  0  0  0  0  0  0
   -6.2991    2.6420    1.4958 H   0  0  0  0  0  0  0  0  0  0  0  0
   -4.7764    3.1155    0.7362 H   0  0  0  0  0  0  0  0  0  0  0  0
   -4.8214    2.7273    2.4801 H   0  0  0  0  0  0  0  0  0  0  0  0
   -3.2630   -0.8004    2.3263 H   0  0  0  0  0  0  0  0  0  0  0  0
   -1.0530   -1.3643    1.5921 H   0  0  0  0  0  0  0  0  0  0  0  0
    0.5403    0.4372   -1.3472 H   0  0  0  0  0  0  0  0  0  0  0  0
    3.3186   -1.2923   -0.5772 H   0  0  0  0  0  0  0  0  0  0  0  0
    3.8555   -0.0267   -3.8496 H   0  0  0  0  0  0  0  0  0  0  0  0
    6.0237   -0.4223   -3.1467 H   0  0  0  0  0  0  0  0  0  0  0  0
    7.8983   -0.7936   -1.2417 H   0  0  0  0  0  0  0  0  0  0  0  0
    7.8547   -0.9604    1.4728 H   0  0  0  0  0  0  0  0  0  0  0  0
    5.1860   -0.6542    2.1279 H   0  0  0  0  0  0  0  0  0  0  0  0
   -1.3040    1.6465   -1.4932 H   0  0  0  0  0  0  0  0  0  0  0  0
   -3.5677    2.1702   -0.7911 H   0  0  0  0  0  0  0  0  0  0  0  0
  1  2  1  0
  2  3  2  0
  2  4  1  0
  4  5  1  0
  4  6  1  0
  6  7  2  0
  7  8  1  0
  8  9  2  0
  9 10  1  0
 10 11  1  0
 11 12  2  0
 11 13  1  0
 13 14  1  0
 14 15  2  0
 14 16  1  0
 16 17  2  3
 17 18  1  0
 18 19  2  0
 19 20  1  0
 20 21  2  0
 21 22  1  0
  9 23  1  0
 23 24  2  0
 24  6  1  0
 22 18  1  0
  1 25  1  0
  1 26  1  0
  1 27  1  0
  5 28  1  0
  5 29  1  0
  5 30  1  0
  7 31  1  0
  8 32  1  0
 10 33  1  0
 13 34  1  0
 16 35  1  0
 17 36  1  0
 19 37  1  0
 20 38  1  0
 21 39  1  0
 23 40  1  0
 24 41  1  0
M  END
$$$$
