
     RDKit          3D

 59 63  0  0  0  0  0  0  0  0999 V2000
   -5.3689   -2.2621   -2.2479 C   0  0  0  0  0  0  0  0  0  0  0  0
   -4.8727   -1.2924   -1.3365 O   0  0  0  0  0  0  0  0  0  0  0  0
   -4.4142   -1.7378   -0.1219 C   0  0  0  0  0  0  0  0  0  0  0  0
   -4.3433   -3.0855    0.2507 C   0  0  0  0  0  0  0  0  0  0  0  0
   -3.8457   -3.4507    1.5054 C   0  0  0  0  0  0  0  0  0  0  0  0
   -3.4127   -2.4762    2.3993 C   0  0  0  0  0  0  0  0  0  0  0  0
   -3.4774   -1.1311    2.0410 C   0  0  0  0  0  0  0  0  0  0  0  0
   -3.9792   -0.7497    0.7857 C   0  0  0  0  0  0  0  0  0  0  0  0
   -4.0197    0.6797    0.4502 C   0  0  0  0  0  0  0  0  0  0  0  0
   -5.4683    1.5387    0.7413 S   0  0  0  0  0  0  0  0  0  0  0  0
   -4.8048    3.0210    0.1793 C   0  0  0  0  0  0  0  0  0  0  0  0
   -5.4599    4.2672    0.1125 C   0  0  0  0  0  0  0  0  0  0  0  0
   -4.7644    5.3748   -0.3763 C   0  0  0  0  0  0  0  0  0  0  0  0
   -3.4470    5.2508   -0.7915 C   0  0  0  0  0  0  0  0  0  0  0  0
   -2.8013    4.0128   -0.7227 C   0  0  0  0  0  0  0  0  0  0  0  0
   -3.4777    2.8668   -0.2280 C   0  0  0  0  0  0  0  0  0  0  0  0
   -3.0301    1.5015   -0.0632 C   0  0  0  0  0  0  0  0  0  0  0  0
   -1.6983    0.9948   -0.3722 C   0  0  0  0  0  0  0  0  0  0  0  0
   -0.6113    1.3477    0.4341 C   0  0  0  0  0  0  0  0  0  0  0  0
    0.6719    0.8726    0.1396 C   0  0  0  0  0  0  0  0  0  0  0  0
    0.8761    0.0427   -0.9638 C   0  0  0  0  0  0  0  0  0  0  0  0
    2.0721   -0.4892   -1.3603 O   0  0  0  0  0  0  0  0  0  0  0  0
    3.2132   -0.2053   -0.5444 C   0  0  0  0  0  0  0  0  0  0  0  0
    4.4270   -0.9188   -1.1616 C   0  0  0  0  0  0  0  0  0  0  0  0
    5.7049   -0.6349   -0.4818 N   0  0  0  0  0  0  0  0  0  0  0  0
    5.7619   -1.2364    0.8691 C   0  0  0  0  0  0  0  0  0  0  0  0
    7.1376   -1.0236    1.5241 C   0  0  0  0  0  0  0  0  0  0  0  0
    8.1881   -1.5702    0.7177 O   0  0  0  0  0  0  0  0  0  0  0  0
    8.1786   -0.9555   -0.5771 C   0  0  0  0  0  0  0  0  0  0  0  0
    6.8304   -1.1718   -1.2816 C   0  0  0  0  0  0  0  0  0  0  0  0
   -0.2111   -0.3026   -1.7710 C   0  0  0  0  0  0  0  0  0  0  0  0
   -1.4930    0.1704   -1.4811 C   0  0  0  0  0  0  0  0  0  0  0  0
   -6.2252   -2.7997   -1.8274 H   0  0  0  0  0  0  0  0  0  0  0  0
   -5.7149   -1.7337   -3.1415 H   0  0  0  0  0  0  0  0  0  0  0  0
   -4.5786   -2.9540   -2.5572 H   0  0  0  0  0  0  0  0  0  0  0  0
   -4.6626   -3.8803   -0.4146 H   0  0  0  0  0  0  0  0  0  0  0  0
   -3.7941   -4.5009    1.7822 H   0  0  0  0  0  0  0  0  0  0  0  0
   -3.0231   -2.7618    3.3729 H   0  0  0  0  0  0  0  0  0  0  0  0
   -3.1345   -0.3745    2.7431 H   0  0  0  0  0  0  0  0  0  0  0  0
   -6.4928    4.3652    0.4344 H   0  0  0  0  0  0  0  0  0  0  0  0
   -5.2627    6.3395   -0.4336 H   0  0  0  0  0  0  0  0  0  0  0  0
   -2.9130    6.1165   -1.1753 H   0  0  0  0  0  0  0  0  0  0  0  0
   -1.7702    3.9286   -1.0583 H   0  0  0  0  0  0  0  0  0  0  0  0
   -0.7571    1.9923    1.2979 H   0  0  0  0  0  0  0  0  0  0  0  0
    1.4859    1.1714    0.7911 H   0  0  0  0  0  0  0  0  0  0  0  0
    3.3990    0.8756   -0.5258 H   0  0  0  0  0  0  0  0  0  0  0  0
    3.0354   -0.5763    0.4710 H   0  0  0  0  0  0  0  0  0  0  0  0
    4.2319   -1.9989   -1.2079 H   0  0  0  0  0  0  0  0  0  0  0  0
    4.4945   -0.5882   -2.2073 H   0  0  0  0  0  0  0  0  0  0  0  0
    5.0058   -0.7862    1.5201 H   0  0  0  0  0  0  0  0  0  0  0  0
    5.5616   -2.3139    0.8068 H   0  0  0  0  0  0  0  0  0  0  0  0
    7.3330    0.0412    1.7001 H   0  0  0  0  0  0  0  0  0  0  0  0
    7.1676   -1.5308    2.4938 H   0  0  0  0  0  0  0  0  0  0  0  0
    8.9812   -1.4118   -1.1654 H   0  0  0  0  0  0  0  0  0  0  0  0
    8.4075    0.1122   -0.4737 H   0  0  0  0  0  0  0  0  0  0  0  0
    6.8633   -0.6760   -2.2586 H   0  0  0  0  0  0  0  0  0  0  0  0
    6.6875   -2.2473   -1.4508 H   0  0  0  0  0  0  0  0  0  0  0  0
   -0.0601   -0.9467   -2.6335 H   0  0  0  0  0  0  0  0  0  0  0  0
   -2.3262   -0.1089   -2.1219 H   0  0  0  0  0  0  0  0  0  0  0  0
  1  2  1  0
  2  3  1  0
  3  4  2  0
  4  5  1  0
  5  6  2  0
  6  7  1  0
  7  8  2  0
  8  9  1  0
  9 10  1  0
 10 11  1  0
 11 12  2  0
 12 13  1  0
 13 14  2  0
 14 15  1  0
 15 16  2  0
 16 17  1  0
 17 18  1  0
 18 19  2  0
 19 20  1  0
 20 21  2  0
 21 22  1  0
 22 23  1  0
 23 24  1  0
 24 25  1  0
 25 26  1  0
 26 27  1  0
 27 28  1  0
 28 29  1  0
 29 30  1  0
 21 31  1  0
 31 32  2  0
  8  3  1  0
 17  9  2  0
 32 18  1  0
 16 11  1  0
 30 25  1  0
  1 33  1  0
  1 34  1  0
  1 35  1  0
  4 36  1  0
  5 37  1  0
  6 38  1  0
  7 39  1  0
 12 40  1  0
 13 41  1  0
 14 42  1  0
 15 43  1  0
 19 44  1  0
 20 45  1  0
 23 46  1  0
 23 47  1  0
 24 48  1  0
 24 49  1  0
 26 50  1  0
 26 51  1  0
 27 52  1  0
 27 53  1  0
 29 54  1  0
 29 55  1  0
 30 56  1  0
 30 57  1  0
 31 58  1  0
 32 59  1  0
M  END
$$$$
