
     RDKit          3D

 47 49  0  0  0  0  0  0  0  0999 V2000
   -7.6678   -1.6479   -1.8967 C   0  0  0  0  0  0  0  0  0  0  0  0
   -6.6241   -0.7261   -1.2908 C   0  0  0  0  0  0  0  0  0  0  0  0
   -5.5909   -1.5369   -0.7339 O   0  0  0  0  0  0  0  0  0  0  0  0
   -4.5639   -0.8929   -0.1012 C   0  0  0  0  0  0  0  0  0  0  0  0
   -3.6134   -1.7431    0.4753 C   0  0  0  0  0  0  0  0  0  0  0  0
   -2.5118   -1.2227    1.1560 C   0  0  0  0  0  0  0  0  0  0  0  0
   -2.3619    0.1614    1.2543 C   0  0  0  0  0  0  0  0  0  0  0  0
   -0.9625    0.8149    2.1263 S   0  0  0  0  0  6  0  0  0  0  0  0
   -0.9031    0.1503    3.4101 O   0  0  0  0  0  0  0  0  0  0  0  0
   -0.9814    2.2594    2.0256 O   0  0  0  0  0  0  0  0  0  0  0  0
    0.3551    0.2690    1.1865 N   0  0  0  0  0  0  0  0  0  0  0  0
    1.6551    0.3303    1.9318 C   0  0  0  0  0  0  0  0  0  0  0  0
    2.8549    0.1012    1.0037 C   0  0  0  0  0  0  0  0  0  0  0  0
    2.8963    1.0502   -0.1175 N   0  0  0  0  0  0  0  0  0  0  0  0
    3.9226    1.1065   -1.0539 C   0  0  0  0  0  0  0  0  0  0  0  0
    3.8598    1.7306   -2.1087 O   0  0  0  0  0  0  0  0  0  0  0  0
    5.1642    0.3619   -0.7794 C   0  0  0  0  0  0  0  0  0  0  0  0
    6.0392    0.8032    0.2099 C   0  0  0  0  0  0  0  0  0  0  0  0
    7.1964    0.0739    0.4027 C   0  0  0  0  0  0  0  0  0  0  0  0
    7.5172   -1.0251   -0.3163 N   0  0  0  0  0  0  0  0  0  0  0  0
    6.6570   -1.4035   -1.2888 C   0  0  0  0  0  0  0  0  0  0  0  0
    5.4740   -0.7457   -1.5630 C   0  0  0  0  0  0  0  0  0  0  0  0
    1.6405    1.7494   -0.4051 C   0  0  0  0  0  0  0  0  0  0  0  0
    0.4296    0.8304   -0.2072 C   0  0  0  0  0  0  0  0  0  0  0  0
   -3.3049    1.0227    0.6886 C   0  0  0  0  0  0  0  0  0  0  0  0
   -4.4047    0.4916    0.0066 C   0  0  0  0  0  0  0  0  0  0  0  0
   -8.4853   -1.0730   -2.3404 H   0  0  0  0  0  0  0  0  0  0  0  0
   -8.0799   -2.3175   -1.1345 H   0  0  0  0  0  0  0  0  0  0  0  0
   -7.2204   -2.2817   -2.6701 H   0  0  0  0  0  0  0  0  0  0  0  0
   -7.0947   -0.1178   -0.5099 H   0  0  0  0  0  0  0  0  0  0  0  0
   -6.2165   -0.0807   -2.0772 H   0  0  0  0  0  0  0  0  0  0  0  0
   -3.7400   -2.8214    0.3991 H   0  0  0  0  0  0  0  0  0  0  0  0
   -1.7850   -1.8935    1.6083 H   0  0  0  0  0  0  0  0  0  0  0  0
    1.7557    1.3085    2.4181 H   0  0  0  0  0  0  0  0  0  0  0  0
    1.6549   -0.4441    2.7065 H   0  0  0  0  0  0  0  0  0  0  0  0
    3.7806    0.1762    1.5803 H   0  0  0  0  0  0  0  0  0  0  0  0
    2.8087   -0.9056    0.5707 H   0  0  0  0  0  0  0  0  0  0  0  0
    5.8297    1.6868    0.8004 H   0  0  0  0  0  0  0  0  0  0  0  0
    7.9228    0.3605    1.1585 H   0  0  0  0  0  0  0  0  0  0  0  0
    6.9613   -2.2755   -1.8616 H   0  0  0  0  0  0  0  0  0  0  0  0
    4.8201   -1.0753   -2.3624 H   0  0  0  0  0  0  0  0  0  0  0  0
    1.6376    2.1490   -1.4240 H   0  0  0  0  0  0  0  0  0  0  0  0
    1.5865    2.6026    0.2816 H   0  0  0  0  0  0  0  0  0  0  0  0
   -0.4814    1.3774   -0.4681 H   0  0  0  0  0  0  0  0  0  0  0  0
    0.4917   -0.0239   -0.8926 H   0  0  0  0  0  0  0  0  0  0  0  0
   -3.1974    2.1017    0.7763 H   0  0  0  0  0  0  0  0  0  0  0  0
   -5.1206    1.1845   -0.4240 H   0  0  0  0  0  0  0  0  0  0  0  0
  1  2  1  0
  2  3  1  0
  3  4  1  0
  4  5  2  0
  5  6  1  0
  6  7  2  0
  7  8  1  0
  8  9  2  0
  8 10  2  0
  8 11  1  0
 11 12  1  0
 12 13  1  0
 13 14  1  0
 14 15  1  0
 15 16  2  0
 15 17  1  0
 17 18  2  0
 18 19  1  0
 19 20  2  0
 20 21  1  0
 21 22  2  0
 14 23  1  0
 23 24  1  0
  7 25  1  0
 25 26  2  0
 26  4  1  0
 24 11  1  0
 22 17  1  0
  1 27  1  0
  1 28  1  0
  1 29  1  0
  2 30  1  0
  2 31  1  0
  5 32  1  0
  6 33  1  0
 12 34  1  0
 12 35  1  0
 13 36  1  0
 13 37  1  0
 18 38  1  0
 19 39  1  0
 21 40  1  0
 22 41  1  0
 23 42  1  0
 23 43  1  0
 24 44  1  0
 24 45  1  0
 25 46  1  0
 26 47  1  0
M  END
$$$$
