
     RDKit          3D

 36 37  0  0  0  0  0  0  0  0999 V2000
    1.4504   -2.0011    0.4025 O   0  0  0  0  0  0  0  0  0  0  0  0
    0.7594   -1.2098   -0.2337 C   0  0  0  0  0  0  0  0  0  0  0  0
   -0.1717   -1.6646   -1.3608 C   0  0  0  0  0  0  0  0  0  0  0  0
   -1.5579   -1.5771   -1.0281 O   0  0  0  0  0  0  0  0  0  0  0  0
   -2.0993   -0.3448   -1.1551 C   0  0  0  0  0  0  0  0  0  0  0  0
   -1.5328    0.6808   -1.4916 O   0  0  0  0  0  0  0  0  0  0  0  0
   -3.5083   -0.4226   -0.7697 C   0  0  0  0  0  0  0  0  0  0  0  0
   -3.8959   -0.0501    0.5209 C   0  0  0  0  0  0  0  0  0  0  0  0
   -2.7598    0.4815    1.7085 Cl  0  0  0  0  0  0  0  0  0  0  0  0
   -5.2437   -0.1125    0.8868 C   0  0  0  0  0  0  0  0  0  0  0  0
   -6.2008   -0.5416   -0.0336 C   0  0  0  0  0  0  0  0  0  0  0  0
   -5.8127   -0.9082   -1.3230 C   0  0  0  0  0  0  0  0  0  0  0  0
   -4.4663   -0.8479   -1.6949 C   0  0  0  0  0  0  0  0  0  0  0  0
   -4.0524   -1.3034   -3.3089 Cl  0  0  0  0  0  0  0  0  0  0  0  0
    0.7705    0.1492   -0.0167 N   0  0  0  0  0  0  0  0  0  0  0  0
    1.5518    0.7741    1.0329 C   0  0  0  0  0  0  0  0  0  0  0  0
    2.9431    1.2109    0.5690 C   0  0  0  0  0  0  0  0  0  0  0  0
    3.9281    0.0720    0.3574 C   0  0  0  0  0  0  0  0  0  0  0  0
    5.2488    0.7750    0.5458 C   0  0  0  0  0  0  0  0  0  0  0  0
    4.9325    1.7319    1.6745 C   0  0  0  0  0  0  0  0  0  0  0  0
    3.5448    2.0783    1.5532 O   0  0  0  0  0  0  0  0  0  0  0  0
    0.0454   -2.7174   -1.5719 H   0  0  0  0  0  0  0  0  0  0  0  0
    0.0556   -1.1086   -2.2787 H   0  0  0  0  0  0  0  0  0  0  0  0
   -5.5553    0.1719    1.8901 H   0  0  0  0  0  0  0  0  0  0  0  0
   -7.2494   -0.5890    0.2537 H   0  0  0  0  0  0  0  0  0  0  0  0
   -6.5665   -1.2385   -2.0351 H   0  0  0  0  0  0  0  0  0  0  0  0
    0.1382    0.7352   -0.5628 H   0  0  0  0  0  0  0  0  0  0  0  0
    1.6256    0.0987    1.8933 H   0  0  0  0  0  0  0  0  0  0  0  0
    0.9851    1.6489    1.3718 H   0  0  0  0  0  0  0  0  0  0  0  0
    2.8557    1.7999   -0.3532 H   0  0  0  0  0  0  0  0  0  0  0  0
    3.8282   -0.4031   -0.6223 H   0  0  0  0  0  0  0  0  0  0  0  0
    3.8129   -0.6974    1.1300 H   0  0  0  0  0  0  0  0  0  0  0  0
    5.5044    1.3358   -0.3610 H   0  0  0  0  0  0  0  0  0  0  0  0
    6.0776    0.1010    0.7770 H   0  0  0  0  0  0  0  0  0  0  0  0
    5.0717    1.2539    2.6500 H   0  0  0  0  0  0  0  0  0  0  0  0
    5.5430    2.6386    1.6400 H   0  0  0  0  0  0  0  0  0  0  0  0
  1  2  2  0
  2  3  1  0
  3  4  1  0
  4  5  1  0
  5  6  2  0
  5  7  1  0
  7  8  2  0
  8  9  1  0
  8 10  1  0
 10 11  2  0
 11 12  1  0
 12 13  2  0
 13 14  1  0
  2 15  1  0
 15 16  1  0
 16 17  1  0
 17 18  1  0
 18 19  1  0
 19 20  1  0
 20 21  1  0
 13  7  1  0
 21 17  1  0
  3 22  1  0
  3 23  1  0
 10 24  1  0
 11 25  1  0
 12 26  1  0
 15 27  1  0
 16 28  1  0
 16 29  1  0
 17 30  1  0
 18 31  1  0
 18 32  1  0
 19 33  1  0
 19 34  1  0
 20 35  1  0
 20 36  1  0
M  END
$$$$
