
     RDKit          3D

 34 36  0  0  0  0  0  0  0  0999 V2000
    1.2855   -0.4620    0.8526 O   0  0  0  0  0  0  0  0  0  0  0  0
    0.8091   -1.3635    0.1758 C   0  0  0  0  0  0  0  0  0  0  0  0
    1.4125   -1.9537   -1.0541 C   0  0  0  0  0  0  0  0  0  0  0  0
    2.4923   -1.5398   -1.7309 C   0  0  0  0  0  0  0  0  0  0  0  0
    3.3591   -0.4005   -1.4342 C   0  0  0  0  0  0  0  0  0  0  0  0
    4.0342   -0.2558   -0.2277 C   0  0  0  0  0  0  0  0  0  0  0  0
    4.8880    0.8326   -0.0643 C   0  0  0  0  0  0  0  0  0  0  0  0
    5.0562    1.7294   -1.1115 C   0  0  0  0  0  0  0  0  0  0  0  0
    4.3650    1.4943   -2.2873 C   0  0  0  0  0  0  0  0  0  0  0  0
    3.5332    0.4458   -2.4749 N   0  0  0  0  0  0  0  0  0  0  0  0
    0.4687   -3.3178   -1.5778 S   0  0  0  0  0  0  0  0  0  0  0  0
   -0.7174   -3.1408   -0.2849 C   0  0  0  0  0  0  0  0  0  0  0  0
   -1.9977   -4.1893   -0.0728 S   0  0  0  0  0  0  0  0  0  0  0  0
   -0.3593   -2.0465    0.4729 N   0  0  0  0  0  0  0  0  0  0  0  0
   -1.1223   -1.6151    1.5879 N   0  0  0  0  0  0  0  0  0  0  0  0
   -2.0710   -0.6099    1.2266 C   0  0  0  0  0  0  0  0  0  0  0  0
   -2.3401   -0.3864   -0.0863 N   0  0  0  0  0  0  0  0  0  0  0  0
   -3.2781    0.5380   -0.4025 C   0  0  0  0  0  0  0  0  0  0  0  0
   -3.9933    1.2688    0.5329 C   0  0  0  0  0  0  0  0  0  0  0  0
   -4.9958    2.2877    0.0879 C   0  0  0  0  0  0  0  0  0  0  0  0
   -5.6320    1.9419   -1.0642 F   0  0  0  0  0  0  0  0  0  0  0  0
   -4.4273    3.5009   -0.1458 F   0  0  0  0  0  0  0  0  0  0  0  0
   -5.9774    2.5038    1.0059 F   0  0  0  0  0  0  0  0  0  0  0  0
   -3.7103    1.0393    1.8821 C   0  0  0  0  0  0  0  0  0  0  0  0
   -2.7502    0.0907    2.2347 C   0  0  0  0  0  0  0  0  0  0  0  0
   -2.4164   -0.1683    3.9083 Cl  0  0  0  0  0  0  0  0  0  0  0  0
    2.7726   -2.0420   -2.6548 H   0  0  0  0  0  0  0  0  0  0  0  0
    3.9033   -0.9665    0.5810 H   0  0  0  0  0  0  0  0  0  0  0  0
    5.4156    0.9773    0.8741 H   0  0  0  0  0  0  0  0  0  0  0  0
    5.7113    2.5877   -1.0154 H   0  0  0  0  0  0  0  0  0  0  0  0
    4.4660    2.1619   -3.1383 H   0  0  0  0  0  0  0  0  0  0  0  0
   -0.5055   -1.2080    2.2974 H   0  0  0  0  0  0  0  0  0  0  0  0
   -3.4397    0.6704   -1.4714 H   0  0  0  0  0  0  0  0  0  0  0  0
   -4.2386    1.5953    2.6546 H   0  0  0  0  0  0  0  0  0  0  0  0
  1  2  2  0
  2  3  1  0
  3  4  2  3
  4  5  1  0
  5  6  2  0
  6  7  1  0
  7  8  2  0
  8  9  1  0
  9 10  2  0
  3 11  1  0
 11 12  1  0
 12 13  2  0
 12 14  1  0
 14 15  1  0
 15 16  1  0
 16 17  2  0
 17 18  1  0
 18 19  2  0
 19 20  1  0
 20 21  1  0
 20 22  1  0
 20 23  1  0
 19 24  1  0
 24 25  2  0
 25 26  1  0
 14  2  1  0
 25 16  1  0
 10  5  1  0
  4 27  1  0
  6 28  1  0
  7 29  1  0
  8 30  1  0
  9 31  1  0
 15 32  1  0
 18 33  1  0
 24 34  1  0
M  END
$$$$
