
     RDKit          3D

 57 60  0  0  0  0  0  0  0  0999 V2000
    6.6000    1.1953   -2.1762 C   0  0  0  0  0  0  0  0  0  0  0  0
    5.2988    0.7242   -1.8504 O   0  0  0  0  0  0  0  0  0  0  0  0
    5.1523    0.0061   -0.6910 C   0  0  0  0  0  0  0  0  0  0  0  0
    6.2166   -0.3936    0.1232 C   0  0  0  0  0  0  0  0  0  0  0  0
    5.9770   -1.0919    1.3061 C   0  0  0  0  0  0  0  0  0  0  0  0
    4.6704   -1.3864    1.6912 C   0  0  0  0  0  0  0  0  0  0  0  0
    3.5809   -0.9997    0.8942 C   0  0  0  0  0  0  0  0  0  0  0  0
    2.2185   -1.3504    1.4112 C   0  0  0  0  0  0  0  0  0  0  0  0
    2.0981   -2.0479    2.4145 O   0  0  0  0  0  0  0  0  0  0  0  0
    1.1341   -0.8483    0.7344 N   0  0  0  0  0  0  0  0  0  0  0  0
   -0.2184   -1.0008    1.2237 C   0  0  0  0  0  0  0  0  0  0  0  0
   -0.5317    0.0671    2.2980 C   0  0  0  0  0  0  0  0  0  0  0  0
   -2.0539    0.2942    2.5353 C   0  0  0  0  0  0  0  0  0  0  0  0
   -2.2312    1.4125    3.5799 C   0  0  0  0  0  0  0  0  0  0  0  0
   -2.7121   -0.9848    3.0923 C   0  0  0  0  0  0  0  0  0  0  0  0
   -2.7523    0.7337    1.2088 C   0  0  0  0  0  0  0  0  0  0  0  0
   -2.2829   -0.0826    0.0494 C   0  0  0  0  0  0  0  0  0  0  0  0
   -1.1480   -0.8742    0.0663 C   0  0  0  0  0  0  0  0  0  0  0  0
   -1.1673   -1.5485   -1.1582 C   0  0  0  0  0  0  0  0  0  0  0  0
   -2.2014   -1.1934   -1.9162 N   0  0  0  0  0  0  0  0  0  0  0  0
   -2.8712   -0.2426   -1.1991 N   0  0  0  0  0  0  0  0  0  0  0  0
   -3.9975    0.4019   -1.7986 C   0  0  0  0  0  0  0  0  0  0  0  0
   -4.5151   -0.1190   -3.0020 C   0  0  0  0  0  0  0  0  0  0  0  0
   -5.6160    0.4727   -3.6302 C   0  0  0  0  0  0  0  0  0  0  0  0
   -6.2084    1.5984   -3.0694 C   0  0  0  0  0  0  0  0  0  0  0  0
   -5.6891    2.1231   -1.8931 C   0  0  0  0  0  0  0  0  0  0  0  0
   -6.2481    3.2185   -1.3612 F   0  0  0  0  0  0  0  0  0  0  0  0
   -4.5929    1.5431   -1.2552 C   0  0  0  0  0  0  0  0  0  0  0  0
    3.8315   -0.3281   -0.3181 C   0  0  0  0  0  0  0  0  0  0  0  0
    2.7671    0.0614   -1.1029 O   0  0  0  0  0  0  0  0  0  0  0  0
    2.7606   -0.6166   -2.3636 C   0  0  0  0  0  0  0  0  0  0  0  0
    6.9981    1.8411   -1.3865 H   0  0  0  0  0  0  0  0  0  0  0  0
    6.5189    1.7960   -3.0873 H   0  0  0  0  0  0  0  0  0  0  0  0
    7.2776    0.3619   -2.3874 H   0  0  0  0  0  0  0  0  0  0  0  0
    7.2483   -0.1742   -0.1321 H   0  0  0  0  0  0  0  0  0  0  0  0
    6.8086   -1.3993    1.9363 H   0  0  0  0  0  0  0  0  0  0  0  0
    4.5035   -1.9197    2.6262 H   0  0  0  0  0  0  0  0  0  0  0  0
    1.3085   -0.1703   -0.0017 H   0  0  0  0  0  0  0  0  0  0  0  0
   -0.3259   -2.0002    1.6628 H   0  0  0  0  0  0  0  0  0  0  0  0
   -0.0345   -0.2086    3.2374 H   0  0  0  0  0  0  0  0  0  0  0  0
   -0.0829    1.0248    1.9947 H   0  0  0  0  0  0  0  0  0  0  0  0
   -1.7662    2.3464    3.2449 H   0  0  0  0  0  0  0  0  0  0  0  0
   -1.7719    1.1374    4.5360 H   0  0  0  0  0  0  0  0  0  0  0  0
   -3.2920    1.6164    3.7641 H   0  0  0  0  0  0  0  0  0  0  0  0
   -2.2132   -1.3129    4.0112 H   0  0  0  0  0  0  0  0  0  0  0  0
   -2.6765   -1.8164    2.3819 H   0  0  0  0  0  0  0  0  0  0  0  0
   -3.7669   -0.8094    3.3331 H   0  0  0  0  0  0  0  0  0  0  0  0
   -3.8378    0.6502    1.3322 H   0  0  0  0  0  0  0  0  0  0  0  0
   -2.5064    1.7838    1.0067 H   0  0  0  0  0  0  0  0  0  0  0  0
   -0.4752   -2.2950   -1.5272 H   0  0  0  0  0  0  0  0  0  0  0  0
   -4.0726   -1.0019   -3.4631 H   0  0  0  0  0  0  0  0  0  0  0  0
   -6.0043    0.0514   -4.5541 H   0  0  0  0  0  0  0  0  0  0  0  0
   -7.0619    2.0733   -3.5421 H   0  0  0  0  0  0  0  0  0  0  0  0
   -4.2319    2.0412   -0.3678 H   0  0  0  0  0  0  0  0  0  0  0  0
    3.2780   -0.0194   -3.1197 H   0  0  0  0  0  0  0  0  0  0  0  0
    3.1931   -1.6223   -2.3049 H   0  0  0  0  0  0  0  0  0  0  0  0
    1.7175   -0.7182   -2.6784 H   0  0  0  0  0  0  0  0  0  0  0  0
  1  2  1  0
  2  3  1  0
  3  4  2  0
  4  5  1  0
  5  6  2  0
  6  7  1  0
  7  8  1  0
  8  9  2  0
  8 10  1  0
 10 11  1  0
 11 12  1  0
 12 13  1  0
 13 14  1  0
 13 15  1  0
 13 16  1  0
 16 17  1  0
 17 18  2  0
 18 19  1  0
 19 20  2  0
 20 21  1  0
 21 22  1  0
 22 23  2  0
 23 24  1  0
 24 25  2  0
 25 26  1  0
 26 27  1  0
 26 28  2  0
  7 29  2  0
 29 30  1  0
 30 31  1  0
 29  3  1  0
 18 11  1  0
 28 22  1  0
 21 17  1  0
  1 32  1  0
  1 33  1  0
  1 34  1  0
  4 35  1  0
  5 36  1  0
  6 37  1  0
 10 38  1  0
 11 39  1  0
 12 40  1  0
 12 41  1  0
 14 42  1  0
 14 43  1  0
 14 44  1  0
 15 45  1  0
 15 46  1  0
 15 47  1  0
 16 48  1  0
 16 49  1  0
 19 50  1  0
 23 51  1  0
 24 52  1  0
 25 53  1  0
 28 54  1  0
 31 55  1  0
 31 56  1  0
 31 57  1  0
M  END
$$$$
