
     RDKit          3D

 64 67  0  0  0  0  0  0  0  0999 V2000
    3.8488   -3.8371    1.7391 C   0  0  0  0  0  0  0  0  0  0  0  0
    4.7453   -2.6356    1.7084 C   0  0  0  0  0  0  0  0  0  0  0  0
    4.7674   -1.8131    0.6017 C   0  0  0  0  0  0  0  0  0  0  0  0
    5.6277   -0.7444    0.6663 C   0  0  0  0  0  0  0  0  0  0  0  0
    5.7469    0.2777   -0.2913 N   0  0  0  0  0  0  0  0  0  0  0  0
    5.3505    0.1025   -1.8931 S   0  0  0  0  0  6  0  0  0  0  0  0
    5.9215    1.2341   -2.5909 O   0  0  0  0  0  0  0  0  0  0  0  0
    5.6222   -1.2571   -2.3067 O   0  0  0  0  0  0  0  0  0  0  0  0
    3.5907    0.3503   -1.8921 C   0  0  0  0  0  0  0  0  0  0  0  0
    2.7485   -0.6125   -2.4497 C   0  0  0  0  0  0  0  0  0  0  0  0
    1.3629   -0.4209   -2.4203 C   0  0  0  0  0  0  0  0  0  0  0  0
    0.8164    0.7287   -1.8433 C   0  0  0  0  0  0  0  0  0  0  0  0
   -0.5649    0.9912   -1.7625 N   0  0  0  0  0  0  0  0  0  0  0  0
   -1.6136    0.1981   -2.2190 C   0  0  0  0  0  0  0  0  0  0  0  0
   -1.4943   -0.8659   -2.8180 O   0  0  0  0  0  0  0  0  0  0  0  0
   -2.9992    0.8159   -1.9061 C   0  0  0  0  0  0  0  0  0  0  0  0
   -4.1264    0.1438   -2.7124 C   0  0  0  0  0  0  0  0  0  0  0  0
   -5.4196    0.9786   -2.8382 C   0  0  0  0  0  0  0  0  0  0  0  0
   -6.3754    0.2939   -3.8212 C   0  0  0  0  0  0  0  0  0  0  0  0
   -6.1370    1.2022   -1.5079 C   0  0  0  0  0  0  0  0  0  0  0  0
   -3.1635    0.8135   -0.4501 N   0  0  0  0  0  0  0  0  0  0  0  0
   -3.5603   -0.2504    0.3160 C   0  0  0  0  0  0  0  0  0  0  0  0
   -3.9138   -1.3648   -0.0126 O   0  0  0  0  0  0  0  0  0  0  0  0
   -3.4604    0.1747    1.7113 C   0  0  0  0  0  0  0  0  0  0  0  0
   -3.7827   -0.4932    2.8764 C   0  0  0  0  0  0  0  0  0  0  0  0
   -3.5546    0.1787    4.0815 C   0  0  0  0  0  0  0  0  0  0  0  0
   -3.0117    1.4811    4.0927 C   0  0  0  0  0  0  0  0  0  0  0  0
   -2.6867    2.1332    2.8989 C   0  0  0  0  0  0  0  0  0  0  0  0
   -2.9291    1.4501    1.7237 C   0  0  0  0  0  0  0  0  0  0  0  0
   -2.6809    1.8262    0.3366 C   0  0  0  0  0  0  0  0  0  0  0  0
   -2.0671    2.8168   -0.0180 O   0  0  0  0  0  0  0  0  0  0  0  0
    1.6775    1.6931   -1.2987 C   0  0  0  0  0  0  0  0  0  0  0  0
    3.0625    1.5099   -1.3223 C   0  0  0  0  0  0  0  0  0  0  0  0
    6.3725   -0.4516    1.7410 N   0  0  0  0  0  0  0  0  0  0  0  0
    6.2944   -1.3122    2.7688 C   0  0  0  0  0  0  0  0  0  0  0  0
    7.1158   -1.0254    3.9862 C   0  0  0  0  0  0  0  0  0  0  0  0
    5.5005   -2.3969    2.7987 N   0  0  0  0  0  0  0  0  0  0  0  0
    2.8010   -3.5278    1.6718 H   0  0  0  0  0  0  0  0  0  0  0  0
    4.0814   -4.5052    0.9037 H   0  0  0  0  0  0  0  0  0  0  0  0
    3.9800   -4.3978    2.6702 H   0  0  0  0  0  0  0  0  0  0  0  0
    4.1424   -2.0253   -0.2517 H   0  0  0  0  0  0  0  0  0  0  0  0
    6.4815    0.9516   -0.0933 H   0  0  0  0  0  0  0  0  0  0  0  0
    3.1523   -1.5121   -2.9101 H   0  0  0  0  0  0  0  0  0  0  0  0
    0.7377   -1.1920   -2.8607 H   0  0  0  0  0  0  0  0  0  0  0  0
   -0.8223    1.8711   -1.3148 H   0  0  0  0  0  0  0  0  0  0  0  0
   -2.9393    1.8629   -2.2351 H   0  0  0  0  0  0  0  0  0  0  0  0
   -3.7532   -0.0240   -3.7326 H   0  0  0  0  0  0  0  0  0  0  0  0
   -4.3601   -0.8530   -2.3245 H   0  0  0  0  0  0  0  0  0  0  0  0
   -5.1627    1.9602   -3.2565 H   0  0  0  0  0  0  0  0  0  0  0  0
   -7.2831    0.8906   -3.9628 H   0  0  0  0  0  0  0  0  0  0  0  0
   -5.9041    0.1709   -4.8021 H   0  0  0  0  0  0  0  0  0  0  0  0
   -6.6733   -0.6968   -3.4608 H   0  0  0  0  0  0  0  0  0  0  0  0
   -7.1030    1.6948   -1.6657 H   0  0  0  0  0  0  0  0  0  0  0  0
   -5.5579    1.8518   -0.8464 H   0  0  0  0  0  0  0  0  0  0  0  0
   -6.3250    0.2551   -0.9917 H   0  0  0  0  0  0  0  0  0  0  0  0
   -4.1915   -1.4988    2.8531 H   0  0  0  0  0  0  0  0  0  0  0  0
   -3.7949   -0.3100    5.0246 H   0  0  0  0  0  0  0  0  0  0  0  0
   -2.8401    1.9802    5.0453 H   0  0  0  0  0  0  0  0  0  0  0  0
   -2.2610    3.1314    2.8946 H   0  0  0  0  0  0  0  0  0  0  0  0
    1.2803    2.6011   -0.8489 H   0  0  0  0  0  0  0  0  0  0  0  0
    3.7161    2.2698   -0.9002 H   0  0  0  0  0  0  0  0  0  0  0  0
    6.4736   -0.6376    4.7824 H   0  0  0  0  0  0  0  0  0  0  0  0
    7.6032   -1.9402    4.3373 H   0  0  0  0  0  0  0  0  0  0  0  0
    7.8913   -0.2840    3.7691 H   0  0  0  0  0  0  0  0  0  0  0  0
  1  2  1  0
  2  3  2  0
  3  4  1  0
  4  5  1  0
  5  6  1  0
  6  7  2  0
  6  8  2  0
  6  9  1  0
  9 10  2  0
 10 11  1  0
 11 12  2  0
 12 13  1  0
 13 14  1  0
 14 15  2  0
 14 16  1  0
 16 17  1  0
 17 18  1  0
 18 19  1  0
 18 20  1  0
 16 21  1  0
 21 22  1  0
 22 23  2  0
 22 24  1  0
 24 25  2  0
 25 26  1  0
 26 27  2  0
 27 28  1  0
 28 29  2  0
 29 30  1  0
 30 31  2  0
 12 32  1  0
 32 33  2  0
  4 34  2  0
 34 35  1  0
 35 36  1  0
 35 37  2  0
 37  2  1  0
 33  9  1  0
 30 21  1  0
 29 24  1  0
  1 38  1  0
  1 39  1  0
  1 40  1  0
  3 41  1  0
  5 42  1  0
 10 43  1  0
 11 44  1  0
 13 45  1  0
 16 46  1  0
 17 47  1  0
 17 48  1  0
 18 49  1  0
 19 50  1  0
 19 51  1  0
 19 52  1  0
 20 53  1  0
 20 54  1  0
 20 55  1  0
 25 56  1  0
 26 57  1  0
 27 58  1  0
 28 59  1  0
 32 60  1  0
 33 61  1  0
 36 62  1  0
 36 63  1  0
 36 64  1  0
M  END
$$$$
