
     RDKit          3D

 66 68  0  0  0  0  0  0  0  0999 V2000
   -2.8972   -4.2163    3.3086 C   0  0  0  0  0  0  0  0  0  0  0  0
   -3.7433   -3.4613    2.2915 C   0  0  0  0  0  0  0  0  0  0  0  0
   -3.4122   -1.9744    2.2560 C   0  0  0  0  0  0  0  0  0  0  0  0
   -2.0723   -1.8043    1.8215 O   0  0  0  0  0  0  0  0  0  0  0  0
   -1.5692   -0.2869    1.4717 P   0  0  0  0  0  5  0  0  0  0  0  0
   -2.2963    0.7040    2.3540 O   0  0  0  0  0  0  0  0  0  0  0  0
    0.1888   -0.3241    1.6914 C   0  0  0  0  0  0  0  0  0  0  0  0
    0.9089    0.8644    1.8223 C   0  0  0  0  0  0  0  0  0  0  0  0
    2.3031    0.8526    1.9834 C   0  0  0  0  0  0  0  0  0  0  0  0
    3.0438   -0.3401    2.0410 C   0  0  0  0  0  0  0  0  0  0  0  0
    4.4388   -0.3391    2.1662 N   0  0  0  0  0  0  0  0  0  0  0  0
    5.1390   -1.6079    2.3533 C   0  0  0  0  0  0  0  0  0  0  0  0
    5.0781    0.8266    2.7760 C   0  0  0  0  0  0  0  0  0  0  0  0
    2.2981   -1.5240    1.9190 C   0  0  0  0  0  0  0  0  0  0  0  0
    0.9033   -1.5209    1.7618 C   0  0  0  0  0  0  0  0  0  0  0  0
   -2.0928   -0.1199   -0.2978 C   0  0  0  0  0  0  0  0  0  0  0  0
   -1.7995   -1.3753   -1.0402 N   0  0  0  0  0  0  0  0  0  0  0  0
   -0.5180   -1.8049   -1.3888 C   0  0  0  0  0  0  0  0  0  0  0  0
    0.5880   -0.9679   -1.5584 C   0  0  0  0  0  0  0  0  0  0  0  0
    1.8300   -1.4715   -1.9654 C   0  0  0  0  0  0  0  0  0  0  0  0
    1.9801   -2.8236   -2.2495 C   0  0  0  0  0  0  0  0  0  0  0  0
    0.8836   -3.6693   -2.1391 C   0  0  0  0  0  0  0  0  0  0  0  0
   -0.3514   -3.1589   -1.7265 C   0  0  0  0  0  0  0  0  0  0  0  0
   -1.8368    1.1578   -1.0826 C   0  0  0  0  0  0  0  0  0  0  0  0
   -1.8967    1.1769   -2.4813 C   0  0  0  0  0  0  0  0  0  0  0  0
   -1.6850    2.3598   -3.2072 C   0  0  0  0  0  0  0  0  0  0  0  0
   -1.4200    3.5874   -2.5817 C   0  0  0  0  0  0  0  0  0  0  0  0
   -1.2115    4.7672   -3.3072 N   0  0  0  0  0  0  0  0  0  0  0  0
   -0.9033    4.6671   -4.7333 C   0  0  0  0  0  0  0  0  0  0  0  0
   -0.6387    5.9240   -2.6211 C   0  0  0  0  0  0  0  0  0  0  0  0
   -1.4325    3.5627   -1.1780 C   0  0  0  0  0  0  0  0  0  0  0  0
   -1.6409    2.3830   -0.4429 C   0  0  0  0  0  0  0  0  0  0  0  0
   -3.0477   -3.8163    4.3164 H   0  0  0  0  0  0  0  0  0  0  0  0
   -3.1746   -5.2746    3.3180 H   0  0  0  0  0  0  0  0  0  0  0  0
   -1.8310   -4.1504    3.0689 H   0  0  0  0  0  0  0  0  0  0  0  0
   -3.5688   -3.9014    1.3019 H   0  0  0  0  0  0  0  0  0  0  0  0
   -4.8030   -3.5928    2.5350 H   0  0  0  0  0  0  0  0  0  0  0  0
   -3.5261   -1.5317    3.2510 H   0  0  0  0  0  0  0  0  0  0  0  0
   -4.0892   -1.4632    1.5646 H   0  0  0  0  0  0  0  0  0  0  0  0
    0.3916    1.8206    1.8019 H   0  0  0  0  0  0  0  0  0  0  0  0
    2.7944    1.8183    2.0517 H   0  0  0  0  0  0  0  0  0  0  0  0
    4.9363   -2.3008    1.5296 H   0  0  0  0  0  0  0  0  0  0  0  0
    6.2246   -1.4596    2.3571 H   0  0  0  0  0  0  0  0  0  0  0  0
    4.8632   -2.0745    3.3050 H   0  0  0  0  0  0  0  0  0  0  0  0
    4.6771    1.0165    3.7775 H   0  0  0  0  0  0  0  0  0  0  0  0
    4.9553    1.7189    2.1547 H   0  0  0  0  0  0  0  0  0  0  0  0
    6.1594    0.6797    2.8779 H   0  0  0  0  0  0  0  0  0  0  0  0
    2.7804   -2.4961    1.9386 H   0  0  0  0  0  0  0  0  0  0  0  0
    0.3846   -2.4729    1.6690 H   0  0  0  0  0  0  0  0  0  0  0  0
   -3.1876   -0.1218   -0.1971 H   0  0  0  0  0  0  0  0  0  0  0  0
   -2.3160   -2.1471   -0.6181 H   0  0  0  0  0  0  0  0  0  0  0  0
    0.5339    0.0978   -1.3650 H   0  0  0  0  0  0  0  0  0  0  0  0
    2.6776   -0.7967   -2.0559 H   0  0  0  0  0  0  0  0  0  0  0  0
    2.9443   -3.2107   -2.5659 H   0  0  0  0  0  0  0  0  0  0  0  0
    0.9822   -4.7241   -2.3790 H   0  0  0  0  0  0  0  0  0  0  0  0
   -1.1963   -3.8412   -1.6683 H   0  0  0  0  0  0  0  0  0  0  0  0
   -2.0977    0.2594   -3.0331 H   0  0  0  0  0  0  0  0  0  0  0  0
   -1.7386    2.2813   -4.2885 H   0  0  0  0  0  0  0  0  0  0  0  0
   -1.7370    4.2257   -5.2896 H   0  0  0  0  0  0  0  0  0  0  0  0
   -0.7399    5.6563   -5.1750 H   0  0  0  0  0  0  0  0  0  0  0  0
    0.0052    4.0783   -4.9007 H   0  0  0  0  0  0  0  0  0  0  0  0
    0.3488    5.6891   -2.2090 H   0  0  0  0  0  0  0  0  0  0  0  0
   -0.5181    6.7712   -3.3057 H   0  0  0  0  0  0  0  0  0  0  0  0
   -1.2973    6.2787   -1.8214 H   0  0  0  0  0  0  0  0  0  0  0  0
   -1.2912    4.4737   -0.6038 H   0  0  0  0  0  0  0  0  0  0  0  0
   -1.6648    2.4674    0.6404 H   0  0  0  0  0  0  0  0  0  0  0  0
  1  2  1  0
  2  3  1  0
  3  4  1  0
  4  5  1  0
  5  6  2  0
  5  7  1  0
  7  8  2  0
  8  9  1  0
  9 10  2  0
 10 11  1  0
 11 12  1  0
 11 13  1  0
 10 14  1  0
 14 15  2  0
  5 16  1  0
 16 17  1  0
 17 18  1  0
 18 19  2  0
 19 20  1  0
 20 21  2  0
 21 22  1  0
 22 23  2  0
 16 24  1  0
 24 25  2  0
 25 26  1  0
 26 27  2  0
 27 28  1  0
 28 29  1  0
 28 30  1  0
 27 31  1  0
 31 32  2  0
 15  7  1  0
 23 18  1  0
 32 24  1  0
  1 33  1  0
  1 34  1  0
  1 35  1  0
  2 36  1  0
  2 37  1  0
  3 38  1  0
  3 39  1  0
  8 40  1  0
  9 41  1  0
 12 42  1  0
 12 43  1  0
 12 44  1  0
 13 45  1  0
 13 46  1  0
 13 47  1  0
 14 48  1  0
 15 49  1  0
 16 50  1  0
 17 51  1  0
 19 52  1  0
 20 53  1  0
 21 54  1  0
 22 55  1  0
 23 56  1  0
 25 57  1  0
 26 58  1  0
 29 59  1  0
 29 60  1  0
 29 61  1  0
 30 62  1  0
 30 63  1  0
 30 64  1  0
 31 65  1  0
 32 66  1  0
M  END
$$$$
