
     RDKit          3D

 41 42  0  0  0  0  0  0  0  0999 V2000
   -3.3660   -1.8857   -0.6504 C   0  0  0  0  0  0  0  0  0  0  0  0
   -4.5229   -1.3677    0.1727 C   0  0  0  0  0  0  0  0  0  0  0  0
   -5.5446   -2.0567    0.2509 O   0  0  0  0  0  0  0  0  0  0  0  0
   -4.4265   -0.1011    0.7522 N   0  0  0  0  0  0  0  0  0  0  0  0
   -5.6718    0.5090    1.2136 C   0  0  0  0  0  0  0  0  0  0  0  0
   -3.2230    0.6455    0.9370 C   0  0  0  0  0  0  0  0  0  0  0  0
   -2.0191    0.0202    1.2797 C   0  0  0  0  0  0  0  0  0  0  0  0
   -0.8457    0.7615    1.4821 C   0  0  0  0  0  0  0  0  0  0  0  0
   -0.8517    2.1487    1.3432 C   0  0  0  0  0  0  0  0  0  0  0  0
    0.2777    2.9670    1.5411 N   0  0  0  0  0  0  0  0  0  0  0  0
    1.6188    2.6716    1.5932 C   0  0  0  0  0  0  0  0  0  0  0  0
    2.6137    3.8099    2.3044 S   0  0  0  0  0  0  0  0  0  0  0  0
    2.0061    1.5011    0.9738 N   0  0  0  0  0  0  0  0  0  0  0  0
    3.2637    0.9151    0.9257 C   0  0  0  0  0  0  0  0  0  0  0  0
    4.1560    1.0449    1.7522 O   0  0  0  0  0  0  0  0  0  0  0  0
    3.3946   -0.0315   -0.2140 C   0  0  0  0  0  0  0  0  0  0  0  0
    4.5187   -0.7494   -0.3504 C   0  0  0  0  0  0  0  0  0  0  0  0
    4.6713   -1.6595   -1.4310 C   0  0  0  0  0  0  0  0  0  0  0  0
    5.7602   -2.4686   -1.7349 C   0  0  0  0  0  0  0  0  0  0  0  0
    5.4480   -3.2016   -2.9041 C   0  0  0  0  0  0  0  0  0  0  0  0
    4.1845   -2.8103   -3.2636 C   0  0  0  0  0  0  0  0  0  0  0  0
    3.7082   -1.8895   -2.3914 O   0  0  0  0  0  0  0  0  0  0  0  0
   -2.0611    2.7863    1.0607 C   0  0  0  0  0  0  0  0  0  0  0  0
   -3.2319    2.0440    0.8593 C   0  0  0  0  0  0  0  0  0  0  0  0
   -2.7231   -2.5208   -0.0373 H   0  0  0  0  0  0  0  0  0  0  0  0
   -3.7680   -2.4932   -1.4685 H   0  0  0  0  0  0  0  0  0  0  0  0
   -2.7945   -1.0783   -1.1131 H   0  0  0  0  0  0  0  0  0  0  0  0
   -6.0505    1.1728    0.4300 H   0  0  0  0  0  0  0  0  0  0  0  0
   -6.4380   -0.2439    1.4204 H   0  0  0  0  0  0  0  0  0  0  0  0
   -5.5030    1.0709    2.1381 H   0  0  0  0  0  0  0  0  0  0  0  0
   -1.9799   -1.0489    1.4696 H   0  0  0  0  0  0  0  0  0  0  0  0
    0.0354    0.2245    1.8215 H   0  0  0  0  0  0  0  0  0  0  0  0
    0.0846    3.9378    1.7738 H   0  0  0  0  0  0  0  0  0  0  0  0
    1.3512    1.2079    0.2653 H   0  0  0  0  0  0  0  0  0  0  0  0
    2.5801   -0.1173   -0.9223 H   0  0  0  0  0  0  0  0  0  0  0  0
    5.3351   -0.6508    0.3614 H   0  0  0  0  0  0  0  0  0  0  0  0
    6.6798   -2.5176   -1.1670 H   0  0  0  0  0  0  0  0  0  0  0  0
    6.0673   -3.9230   -3.4181 H   0  0  0  0  0  0  0  0  0  0  0  0
    3.5185   -3.0787   -4.0717 H   0  0  0  0  0  0  0  0  0  0  0  0
   -2.1111    3.8695    0.9724 H   0  0  0  0  0  0  0  0  0  0  0  0
   -4.1412    2.5857    0.6112 H   0  0  0  0  0  0  0  0  0  0  0  0
  1  2  1  0
  2  3  2  0
  2  4  1  0
  4  5  1  0
  4  6  1  0
  6  7  2  0
  7  8  1  0
  8  9  2  0
  9 10  1  0
 10 11  1  0
 11 12  2  0
 11 13  1  0
 13 14  1  0
 14 15  2  0
 14 16  1  0
 16 17  2  3
 17 18  1  0
 18 19  2  0
 19 20  1  0
 20 21  2  0
 21 22  1  0
  9 23  1  0
 23 24  2  0
 24  6  1  0
 22 18  1  0
  1 25  1  0
  1 26  1  0
  1 27  1  0
  5 28  1  0
  5 29  1  0
  5 30  1  0
  7 31  1  0
  8 32  1  0
 10 33  1  0
 13 34  1  0
 16 35  1  0
 17 36  1  0
 19 37  1  0
 20 38  1  0
 21 39  1  0
 23 40  1  0
 24 41  1  0
M  END
$$$$
