
     RDKit          3D

 44 46  0  0  0  0  0  0  0  0999 V2000
    7.0339   -0.6419    0.4617 C   0  0  0  0  0  0  0  0  0  0  0  0
    6.3692    0.5819    0.1747 O   0  0  0  0  0  0  0  0  0  0  0  0
    5.3576    0.9110    1.1240 C   0  0  0  0  0  0  0  0  0  0  0  0
    4.0702    0.1228    0.9023 C   0  0  0  0  0  0  0  0  0  0  0  0
    3.5335    0.3029   -0.5215 C   0  0  0  0  0  0  0  0  0  0  0  0
    2.2415   -0.3800   -0.7052 N   0  0  0  0  0  0  0  0  0  0  0  0
    2.1642   -1.6955   -1.1613 C   0  0  0  0  0  0  0  0  0  0  0  0
    3.4406   -2.7061   -1.5705 S   0  0  0  0  0  0  0  0  0  0  0  0
    0.9113   -2.2318   -1.2926 N   0  0  0  0  0  0  0  0  0  0  0  0
   -0.2640   -1.5498   -0.9937 C   0  0  0  0  0  0  0  0  0  0  0  0
   -1.4964   -2.1652   -1.1790 C   0  0  0  0  0  0  0  0  0  0  0  0
   -2.6738   -1.4690   -0.8726 C   0  0  0  0  0  0  0  0  0  0  0  0
   -2.6485   -0.1585   -0.3673 C   0  0  0  0  0  0  0  0  0  0  0  0
   -3.8049    0.5746   -0.0649 N   0  0  0  0  0  0  0  0  0  0  0  0
   -3.8647    1.0797    1.3316 C   0  0  0  0  0  0  0  0  0  0  0  0
   -5.0214    2.0817    1.4837 C   0  0  0  0  0  0  0  0  0  0  0  0
   -6.2759    1.5103    1.0802 O   0  0  0  0  0  0  0  0  0  0  0  0
   -6.2076    1.1077   -0.2965 C   0  0  0  0  0  0  0  0  0  0  0  0
   -5.1134    0.0512   -0.5156 C   0  0  0  0  0  0  0  0  0  0  0  0
   -1.3857    0.4369   -0.2060 C   0  0  0  0  0  0  0  0  0  0  0  0
   -0.2061   -0.2556   -0.5112 C   0  0  0  0  0  0  0  0  0  0  0  0
    1.1151    0.3699   -0.3264 C   0  0  0  0  0  0  0  0  0  0  0  0
    1.1736    1.4969    0.1631 O   0  0  0  0  0  0  0  0  0  0  0  0
    7.4940   -0.6065    1.4537 H   0  0  0  0  0  0  0  0  0  0  0  0
    6.3451   -1.4878    0.3946 H   0  0  0  0  0  0  0  0  0  0  0  0
    7.8234   -0.7832   -0.2815 H   0  0  0  0  0  0  0  0  0  0  0  0
    5.1491    1.9804    1.0086 H   0  0  0  0  0  0  0  0  0  0  0  0
    5.7323    0.7674    2.1442 H   0  0  0  0  0  0  0  0  0  0  0  0
    4.2415   -0.9415    1.0960 H   0  0  0  0  0  0  0  0  0  0  0  0
    3.3230    0.4532    1.6335 H   0  0  0  0  0  0  0  0  0  0  0  0
    4.2573   -0.0597   -1.2575 H   0  0  0  0  0  0  0  0  0  0  0  0
    3.4020    1.3719   -0.7306 H   0  0  0  0  0  0  0  0  0  0  0  0
    0.8643   -3.1838   -1.6386 H   0  0  0  0  0  0  0  0  0  0  0  0
   -1.5652   -3.1804   -1.5596 H   0  0  0  0  0  0  0  0  0  0  0  0
   -3.6144   -1.9903   -1.0263 H   0  0  0  0  0  0  0  0  0  0  0  0
   -2.9400    1.5824    1.6325 H   0  0  0  0  0  0  0  0  0  0  0  0
   -4.0281    0.2304    2.0075 H   0  0  0  0  0  0  0  0  0  0  0  0
   -4.8362    2.9873    0.8935 H   0  0  0  0  0  0  0  0  0  0  0  0
   -5.1164    2.3810    2.5323 H   0  0  0  0  0  0  0  0  0  0  0  0
   -7.1832    0.6932   -0.5691 H   0  0  0  0  0  0  0  0  0  0  0  0
   -6.0336    1.9927   -0.9204 H   0  0  0  0  0  0  0  0  0  0  0  0
   -5.3669   -0.8486    0.0590 H   0  0  0  0  0  0  0  0  0  0  0  0
   -5.0843   -0.1996   -1.5823 H   0  0  0  0  0  0  0  0  0  0  0  0
   -1.3121    1.4675    0.1345 H   0  0  0  0  0  0  0  0  0  0  0  0
  1  2  1  0
  2  3  1  0
  3  4  1  0
  4  5  1  0
  5  6  1  0
  6  7  1  0
  7  8  2  0
  7  9  1  0
  9 10  1  0
 10 11  2  0
 11 12  1  0
 12 13  2  0
 13 14  1  0
 14 15  1  0
 15 16  1  0
 16 17  1  0
 17 18  1  0
 18 19  1  0
 13 20  1  0
 20 21  2  0
 21 22  1  0
 22 23  2  0
 22  6  1  0
 21 10  1  0
 19 14  1  0
  1 24  1  0
  1 25  1  0
  1 26  1  0
  3 27  1  0
  3 28  1  0
  4 29  1  0
  4 30  1  0
  5 31  1  0
  5 32  1  0
  9 33  1  0
 11 34  1  0
 12 35  1  0
 15 36  1  0
 15 37  1  0
 16 38  1  0
 16 39  1  0
 18 40  1  0
 18 41  1  0
 19 42  1  0
 19 43  1  0
 20 44  1  0
M  END
$$$$
