
     RDKit          3D

 59 62  0  0  0  0  0  0  0  0999 V2000
   -1.2129    3.2514    0.3094 C   0  0  0  0  0  0  0  0  0  0  0  0
   -1.0375    3.4033   -1.1943 C   0  0  0  0  0  0  0  0  0  0  0  0
   -1.2470    2.0973   -1.9637 C   0  0  0  0  0  0  0  0  0  0  0  0
   -0.2257    1.0953   -1.7171 N   0  0  0  0  0  0  0  0  0  0  0  0
   -0.3169   -0.0196   -0.8958 C   0  0  0  0  0  0  0  0  0  0  0  0
   -1.4983   -0.4233   -0.1355 C   0  0  0  0  0  0  0  0  0  0  0  0
   -1.4439   -0.4103    1.2658 C   0  0  0  0  0  0  0  0  0  0  0  0
   -2.5554   -0.7828    2.0217 C   0  0  0  0  0  0  0  0  0  0  0  0
   -2.6078   -0.7821    3.3914 O   0  0  0  0  0  0  0  0  0  0  0  0
   -1.4708   -0.2936    4.0900 C   0  0  0  0  0  0  0  0  0  0  0  0
   -3.7179   -1.2022    1.3517 C   0  0  0  0  0  0  0  0  0  0  0  0
   -4.8390   -1.5269    2.0850 O   0  0  0  0  0  0  0  0  0  0  0  0
   -4.8252   -2.9189    2.3976 C   0  0  0  0  0  0  0  0  0  0  0  0
   -3.7859   -1.2316   -0.0527 C   0  0  0  0  0  0  0  0  0  0  0  0
   -4.9742   -1.6486   -0.5941 O   0  0  0  0  0  0  0  0  0  0  0  0
   -5.0833   -1.6680   -2.0103 C   0  0  0  0  0  0  0  0  0  0  0  0
   -2.6629   -0.8509   -0.7890 C   0  0  0  0  0  0  0  0  0  0  0  0
    0.8437   -0.6556   -0.8486 N   0  0  0  0  0  0  0  0  0  0  0  0
    1.6695    0.0331   -1.6774 C   0  0  0  0  0  0  0  0  0  0  0  0
    1.0395    1.1014   -2.2446 C   0  0  0  0  0  0  0  0  0  0  0  0
    1.6924    1.9731   -3.1589 C   0  0  0  0  0  0  0  0  0  0  0  0
    1.1779    2.9421   -3.7049 O   0  0  0  0  0  0  0  0  0  0  0  0
    3.0011    1.6124   -3.3873 N   0  0  0  0  0  0  0  0  0  0  0  0
    3.6878    0.5492   -2.8308 C   0  0  0  0  0  0  0  0  0  0  0  0
    4.8659    0.3752   -3.1444 O   0  0  0  0  0  0  0  0  0  0  0  0
    2.9881   -0.2662   -1.9490 N   0  0  0  0  0  0  0  0  0  0  0  0
    3.6654   -1.3748   -1.2931 C   0  0  0  0  0  0  0  0  0  0  0  0
    4.2541   -0.9800    0.0433 C   0  0  0  0  0  0  0  0  0  0  0  0
    3.5094   -1.1334    1.2218 C   0  0  0  0  0  0  0  0  0  0  0  0
    4.0452   -0.7546    2.4535 C   0  0  0  0  0  0  0  0  0  0  0  0
    5.3276   -0.2130    2.5193 C   0  0  0  0  0  0  0  0  0  0  0  0
    6.0737   -0.0464    1.3540 C   0  0  0  0  0  0  0  0  0  0  0  0
    5.5396   -0.4251    0.1214 C   0  0  0  0  0  0  0  0  0  0  0  0
   -1.1414    4.2294    0.7961 H   0  0  0  0  0  0  0  0  0  0  0  0
   -2.1914    2.8249    0.5512 H   0  0  0  0  0  0  0  0  0  0  0  0
   -0.4367    2.6110    0.7386 H   0  0  0  0  0  0  0  0  0  0  0  0
   -0.0435    3.8174   -1.3963 H   0  0  0  0  0  0  0  0  0  0  0  0
   -1.7671    4.1378   -1.5555 H   0  0  0  0  0  0  0  0  0  0  0  0
   -2.2281    1.6754   -1.7310 H   0  0  0  0  0  0  0  0  0  0  0  0
   -1.2479    2.2927   -3.0421 H   0  0  0  0  0  0  0  0  0  0  0  0
   -0.5159   -0.0997    1.7371 H   0  0  0  0  0  0  0  0  0  0  0  0
   -1.2604    0.7481    3.8258 H   0  0  0  0  0  0  0  0  0  0  0  0
   -1.6966   -0.3260    5.1602 H   0  0  0  0  0  0  0  0  0  0  0  0
   -0.5978   -0.9311    3.9153 H   0  0  0  0  0  0  0  0  0  0  0  0
   -4.8421   -3.5328    1.4904 H   0  0  0  0  0  0  0  0  0  0  0  0
   -3.9604   -3.1819    3.0164 H   0  0  0  0  0  0  0  0  0  0  0  0
   -5.7298   -3.1413    2.9715 H   0  0  0  0  0  0  0  0  0  0  0  0
   -4.3760   -2.3786   -2.4501 H   0  0  0  0  0  0  0  0  0  0  0  0
   -4.9512   -0.6656   -2.4309 H   0  0  0  0  0  0  0  0  0  0  0  0
   -6.0933   -2.0044   -2.2636 H   0  0  0  0  0  0  0  0  0  0  0  0
   -2.6639   -0.8853   -1.8736 H   0  0  0  0  0  0  0  0  0  0  0  0
    3.5260    2.1924   -4.0225 H   0  0  0  0  0  0  0  0  0  0  0  0
    2.9644   -2.2103   -1.1712 H   0  0  0  0  0  0  0  0  0  0  0  0
    4.4658   -1.7525   -1.9418 H   0  0  0  0  0  0  0  0  0  0  0  0
    2.5024   -1.5453    1.1811 H   0  0  0  0  0  0  0  0  0  0  0  0
    3.4607   -0.8807    3.3607 H   0  0  0  0  0  0  0  0  0  0  0  0
    5.7448    0.0823    3.4783 H   0  0  0  0  0  0  0  0  0  0  0  0
    7.0720    0.3806    1.4033 H   0  0  0  0  0  0  0  0  0  0  0  0
    6.1313   -0.2827   -0.7815 H   0  0  0  0  0  0  0  0  0  0  0  0
  1  2  1  0
  2  3  1  0
  3  4  1  0
  4  5  1  0
  5  6  1  0
  6  7  2  0
  7  8  1  0
  8  9  1  0
  9 10  1  0
  8 11  2  0
 11 12  1  0
 12 13  1  0
 11 14  1  0
 14 15  1  0
 15 16  1  0
 14 17  2  0
  5 18  2  0
 18 19  1  0
 19 20  2  0
 20 21  1  0
 21 22  2  0
 21 23  1  0
 23 24  1  0
 24 25  2  0
 24 26  1  0
 26 27  1  0
 27 28  1  0
 28 29  2  0
 29 30  1  0
 30 31  2  0
 31 32  1  0
 32 33  2  0
 20  4  1  0
 33 28  1  0
 17  6  1  0
 26 19  1  0
  1 34  1  0
  1 35  1  0
  1 36  1  0
  2 37  1  0
  2 38  1  0
  3 39  1  0
  3 40  1  0
  7 41  1  0
 10 42  1  0
 10 43  1  0
 10 44  1  0
 13 45  1  0
 13 46  1  0
 13 47  1  0
 16 48  1  0
 16 49  1  0
 16 50  1  0
 17 51  1  0
 23 52  1  0
 27 53  1  0
 27 54  1  0
 29 55  1  0
 30 56  1  0
 31 57  1  0
 32 58  1  0
 33 59  1  0
M  END
$$$$
