
     RDKit          3D

 48 51  0  0  0  0  0  0  0  0999 V2000
    6.6996   -0.4705    2.3440 O   0  0  0  0  0  0  0  0  0  0  0  0
    5.3377   -0.7818    1.9648 S   0  0  0  0  0  6  0  0  0  0  0  0
    4.4054   -1.3324    2.9235 O   0  0  0  0  0  0  0  0  0  0  0  0
    4.7019    0.6327    1.2956 N   0  0  0  0  0  0  0  0  0  0  0  0
    3.3039    0.6855    1.0532 C   0  0  0  0  0  0  0  0  0  0  0  0
    2.4206    0.9971    2.0817 C   0  0  0  0  0  0  0  0  0  0  0  0
    1.0423    1.0117    1.8367 C   0  0  0  0  0  0  0  0  0  0  0  0
    0.5206    0.7142    0.5634 C   0  0  0  0  0  0  0  0  0  0  0  0
   -0.9282    0.7213    0.2889 C   0  0  0  0  0  0  0  0  0  0  0  0
   -1.8981    0.3887    1.2211 C   0  0  0  0  0  0  0  0  0  0  0  0
   -3.2467    0.4258    0.8543 C   0  0  0  0  0  0  0  0  0  0  0  0
   -3.6198    0.7990   -0.4309 C   0  0  0  0  0  0  0  0  0  0  0  0
   -4.9571    0.8192   -0.8192 N   0  0  0  0  0  0  0  0  0  0  0  0
   -5.1998    1.0898   -2.2475 C   0  0  0  0  0  0  0  0  0  0  0  0
   -6.7117    1.0550   -2.5207 C   0  0  0  0  0  0  0  0  0  0  0  0
   -7.4610    2.0284   -1.7744 O   0  0  0  0  0  0  0  0  0  0  0  0
   -6.7869    2.4807   -0.5926 C   0  0  0  0  0  0  0  0  0  0  0  0
   -5.9582    1.3862    0.1023 C   0  0  0  0  0  0  0  0  0  0  0  0
   -2.6442    1.0888   -1.3157 N   0  0  0  0  0  0  0  0  0  0  0  0
   -1.3030    1.0596   -0.9608 N   0  0  0  0  0  0  0  0  0  0  0  0
    1.4431    0.4110   -0.4571 C   0  0  0  0  0  0  0  0  0  0  0  0
    2.8207    0.3916   -0.2166 C   0  0  0  0  0  0  0  0  0  0  0  0
    5.4167   -1.8665    0.5610 C   0  0  0  0  0  0  0  0  0  0  0  0
    6.5105   -1.7957   -0.3057 C   0  0  0  0  0  0  0  0  0  0  0  0
    6.5764   -2.6616   -1.3988 C   0  0  0  0  0  0  0  0  0  0  0  0
    5.5587   -3.5974   -1.6192 C   0  0  0  0  0  0  0  0  0  0  0  0
    5.7055   -4.6315   -2.9951 Cl  0  0  0  0  0  0  0  0  0  0  0  0
    4.4719   -3.6703   -0.7372 C   0  0  0  0  0  0  0  0  0  0  0  0
    3.1829   -4.8005   -0.9497 Cl  0  0  0  0  0  0  0  0  0  0  0  0
    4.4027   -2.8080    0.3597 C   0  0  0  0  0  0  0  0  0  0  0  0
    5.1387    1.4595    1.7028 H   0  0  0  0  0  0  0  0  0  0  0  0
    2.7880    1.2155    3.0811 H   0  0  0  0  0  0  0  0  0  0  0  0
    0.3807    1.2722    2.6604 H   0  0  0  0  0  0  0  0  0  0  0  0
   -1.6313    0.0726    2.2238 H   0  0  0  0  0  0  0  0  0  0  0  0
   -3.9957    0.1279    1.5805 H   0  0  0  0  0  0  0  0  0  0  0  0
   -4.8061    2.0777   -2.5190 H   0  0  0  0  0  0  0  0  0  0  0  0
   -4.7092    0.3306   -2.8680 H   0  0  0  0  0  0  0  0  0  0  0  0
   -6.9089    1.2323   -3.5827 H   0  0  0  0  0  0  0  0  0  0  0  0
   -7.1196    0.0684   -2.2709 H   0  0  0  0  0  0  0  0  0  0  0  0
   -6.1473    3.3264   -0.8719 H   0  0  0  0  0  0  0  0  0  0  0  0
   -7.5494    2.8642    0.0930 H   0  0  0  0  0  0  0  0  0  0  0  0
   -6.6220    0.5718    0.4144 H   0  0  0  0  0  0  0  0  0  0  0  0
   -5.5075    1.8193    1.0023 H   0  0  0  0  0  0  0  0  0  0  0  0
    1.0857    0.1804   -1.4610 H   0  0  0  0  0  0  0  0  0  0  0  0
    3.5010    0.1570   -1.0305 H   0  0  0  0  0  0  0  0  0  0  0  0
    7.3089   -1.0751   -0.1371 H   0  0  0  0  0  0  0  0  0  0  0  0
    7.4264   -2.6052   -2.0760 H   0  0  0  0  0  0  0  0  0  0  0  0
    3.5610   -2.8657    1.0475 H   0  0  0  0  0  0  0  0  0  0  0  0
  1  2  2  0
  2  3  2  0
  2  4  1  0
  4  5  1  0
  5  6  2  0
  6  7  1  0
  7  8  2  0
  8  9  1  0
  9 10  2  0
 10 11  1  0
 11 12  2  0
 12 13  1  0
 13 14  1  0
 14 15  1  0
 15 16  1  0
 16 17  1  0
 17 18  1  0
 12 19  1  0
 19 20  2  0
  8 21  1  0
 21 22  2  0
  2 23  1  0
 23 24  2  0
 24 25  1  0
 25 26  2  0
 26 27  1  0
 26 28  1  0
 28 29  1  0
 28 30  2  0
 22  5  1  0
 30 23  1  0
 20  9  1  0
 18 13  1  0
  4 31  1  0
  6 32  1  0
  7 33  1  0
 10 34  1  0
 11 35  1  0
 14 36  1  0
 14 37  1  0
 15 38  1  0
 15 39  1  0
 17 40  1  0
 17 41  1  0
 18 42  1  0
 18 43  1  0
 21 44  1  0
 22 45  1  0
 24 46  1  0
 25 47  1  0
 30 48  1  0
M  END
$$$$
