
     RDKit          3D

 43 44  0  0  0  0  0  0  0  0999 V2000
   -1.4345    3.0392    0.7637 O   0  0  0  0  0  0  0  0  0  0  0  0
   -1.3728    1.9868    1.3933 C   0  0  0  0  0  0  0  0  0  0  0  0
   -0.3333    1.7653    2.4924 C   0  0  0  0  0  0  0  0  0  0  0  0
   -0.1740    0.3716    2.7922 O   0  0  0  0  0  0  0  0  0  0  0  0
    0.8382    0.1546    3.7764 C   0  0  0  0  0  0  0  0  0  0  0  0
    2.2732    0.1547    3.2406 C   0  0  0  0  0  0  0  0  0  0  0  0
    3.2323    0.3933    3.9692 O   0  0  0  0  0  0  0  0  0  0  0  0
    2.3306   -0.1731    1.8938 N   0  0  0  0  0  0  0  0  0  0  0  0
    3.5245   -0.1969    1.2434 N   0  0  0  0  0  0  0  0  0  0  0  0
    3.4637   -0.4296   -0.0284 C   0  0  0  0  0  0  0  0  0  0  0  0
    4.6801   -0.4847   -0.8639 C   0  0  0  0  0  0  0  0  0  0  0  0
    4.5473   -0.7288   -2.2358 C   0  0  0  0  0  0  0  0  0  0  0  0
    5.6879   -0.7846   -3.0395 C   0  0  0  0  0  0  0  0  0  0  0  0
    6.9432   -0.5970   -2.4680 C   0  0  0  0  0  0  0  0  0  0  0  0
    8.0335   -0.6523   -3.2435 F   0  0  0  0  0  0  0  0  0  0  0  0
    7.0829   -0.3534   -1.1057 C   0  0  0  0  0  0  0  0  0  0  0  0
    5.9468   -0.2962   -0.2970 C   0  0  0  0  0  0  0  0  0  0  0  0
   -2.2100    0.8925    1.2366 N   0  0  0  0  0  0  0  0  0  0  0  0
   -3.1929    0.8996    0.2978 N   0  0  0  0  0  0  0  0  0  0  0  0
   -3.9166   -0.1716    0.2398 C   0  0  0  0  0  0  0  0  0  0  0  0
   -5.0206   -0.3073   -0.7315 C   0  0  0  0  0  0  0  0  0  0  0  0
   -5.7651   -1.4926   -0.7477 C   0  0  0  0  0  0  0  0  0  0  0  0
   -6.8117   -1.6368   -1.6610 C   0  0  0  0  0  0  0  0  0  0  0  0
   -7.1028   -0.6010   -2.5442 C   0  0  0  0  0  0  0  0  0  0  0  0
   -8.1073   -0.7452   -3.4179 F   0  0  0  0  0  0  0  0  0  0  0  0
   -6.3679    0.5797   -2.5336 C   0  0  0  0  0  0  0  0  0  0  0  0
   -5.3206    0.7300   -1.6233 C   0  0  0  0  0  0  0  0  0  0  0  0
   -0.6716    2.2988    3.3871 H   0  0  0  0  0  0  0  0  0  0  0  0
    0.6179    2.1798    2.1424 H   0  0  0  0  0  0  0  0  0  0  0  0
    0.7520    0.8929    4.5817 H   0  0  0  0  0  0  0  0  0  0  0  0
    0.6624   -0.8367    4.2074 H   0  0  0  0  0  0  0  0  0  0  0  0
    1.4644   -0.3153    1.3829 H   0  0  0  0  0  0  0  0  0  0  0  0
    2.5000   -0.5950   -0.5435 H   0  0  0  0  0  0  0  0  0  0  0  0
    3.5699   -0.8740   -2.6879 H   0  0  0  0  0  0  0  0  0  0  0  0
    5.6087   -0.9716   -4.1061 H   0  0  0  0  0  0  0  0  0  0  0  0
    8.0718   -0.2089   -0.6818 H   0  0  0  0  0  0  0  0  0  0  0  0
    6.0531   -0.1046    0.7693 H   0  0  0  0  0  0  0  0  0  0  0  0
   -2.0387    0.0701    1.8095 H   0  0  0  0  0  0  0  0  0  0  0  0
   -3.7400   -1.0290    0.9142 H   0  0  0  0  0  0  0  0  0  0  0  0
   -5.5432   -2.3042   -0.0602 H   0  0  0  0  0  0  0  0  0  0  0  0
   -7.4029   -2.5469   -1.6913 H   0  0  0  0  0  0  0  0  0  0  0  0
   -6.6135    1.3747   -3.2310 H   0  0  0  0  0  0  0  0  0  0  0  0
   -4.7445    1.6537   -1.6121 H   0  0  0  0  0  0  0  0  0  0  0  0
  1  2  2  0
  2  3  1  0
  3  4  1  0
  4  5  1  0
  5  6  1  0
  6  7  2  0
  6  8  1  0
  8  9  1  0
  9 10  2  3
 10 11  1  0
 11 12  2  0
 12 13  1  0
 13 14  2  0
 14 15  1  0
 14 16  1  0
 16 17  2  0
  2 18  1  0
 18 19  1  0
 19 20  2  3
 20 21  1  0
 21 22  2  0
 22 23  1  0
 23 24  2  0
 24 25  1  0
 24 26  1  0
 26 27  2  0
 17 11  1  0
 27 21  1  0
  3 28  1  0
  3 29  1  0
  5 30  1  0
  5 31  1  0
  8 32  1  0
 10 33  1  0
 12 34  1  0
 13 35  1  0
 16 36  1  0
 17 37  1  0
 18 38  1  0
 20 39  1  0
 22 40  1  0
 23 41  1  0
 26 42  1  0
 27 43  1  0
M  END
$$$$
