
     RDKit          3D

 33 35  0  0  0  0  0  0  0  0999 V2000
   -4.5664   -0.7799    1.5163 C   0  0  0  0  0  0  0  0  0  0  0  0
   -3.5547   -1.1393    0.4709 C   0  0  0  0  0  0  0  0  0  0  0  0
   -2.9733   -2.3911    0.4642 C   0  0  0  0  0  0  0  0  0  0  0  0
   -2.0558   -2.6267   -0.5329 C   0  0  0  0  0  0  0  0  0  0  0  0
   -1.7144   -1.7162   -1.4599 N   0  0  0  0  0  0  0  0  0  0  0  0
   -2.3185   -0.5208   -1.3588 C   0  0  0  0  0  0  0  0  0  0  0  0
   -1.8832    0.7071   -2.5571 S   0  0  0  0  0  0  0  0  0  0  0  0
   -1.2423    1.9580   -1.4077 C   0  0  0  0  0  0  0  0  0  0  0  0
    0.0165    1.5286   -0.7306 C   0  0  0  0  0  0  0  0  0  0  0  0
    1.2323    1.1824   -1.2881 C   0  0  0  0  0  0  0  0  0  0  0  0
    2.0553    0.8466   -0.2400 N   0  0  0  0  0  0  0  0  0  0  0  0
    3.3905    0.4035   -0.2380 C   0  0  0  0  0  0  0  0  0  0  0  0
    4.1145    0.2310   -1.5380 C   0  0  0  0  0  0  0  0  0  0  0  0
    3.9693    0.1469    0.9541 C   0  0  0  0  0  0  0  0  0  0  0  0
    3.2110    0.3334    2.1807 C   0  0  0  0  0  0  0  0  0  0  0  0
    1.9338    0.7567    2.1607 C   0  0  0  0  0  0  0  0  0  0  0  0
    1.3014    1.0312    0.9171 C   0  0  0  0  0  0  0  0  0  0  0  0
    0.0827    1.4461    0.6434 N   0  0  0  0  0  0  0  0  0  0  0  0
   -3.2459   -0.1961   -0.4412 N   0  0  0  0  0  0  0  0  0  0  0  0
   -5.4264   -1.4544    1.4586 H   0  0  0  0  0  0  0  0  0  0  0  0
   -4.9266    0.2442    1.3748 H   0  0  0  0  0  0  0  0  0  0  0  0
   -4.1207   -0.8493    2.5135 H   0  0  0  0  0  0  0  0  0  0  0  0
   -3.2199   -3.1478    1.1965 H   0  0  0  0  0  0  0  0  0  0  0  0
   -1.5516   -3.5847   -0.6170 H   0  0  0  0  0  0  0  0  0  0  0  0
   -2.0089    2.2204   -0.6707 H   0  0  0  0  0  0  0  0  0  0  0  0
   -1.0383    2.8661   -1.9857 H   0  0  0  0  0  0  0  0  0  0  0  0
    1.5573    1.1296   -2.3167 H   0  0  0  0  0  0  0  0  0  0  0  0
    4.1688    1.1814   -2.0792 H   0  0  0  0  0  0  0  0  0  0  0  0
    3.6051   -0.5045   -2.1694 H   0  0  0  0  0  0  0  0  0  0  0  0
    5.1412   -0.1203   -1.3877 H   0  0  0  0  0  0  0  0  0  0  0  0
    4.9950   -0.1990    1.0370 H   0  0  0  0  0  0  0  0  0  0  0  0
    3.7080    0.1199    3.1222 H   0  0  0  0  0  0  0  0  0  0  0  0
    1.3643    0.8972    3.0718 H   0  0  0  0  0  0  0  0  0  0  0  0
  1  2  1  0
  2  3  2  0
  3  4  1  0
  4  5  2  0
  5  6  1  0
  6  7  1  0
  7  8  1  0
  8  9  1  0
  9 10  2  0
 10 11  1  0
 11 12  1  0
 12 13  1  0
 12 14  2  0
 14 15  1  0
 15 16  2  0
 16 17  1  0
 17 18  2  0
  6 19  2  0
 19  2  1  0
 18  9  1  0
 17 11  1  0
  1 20  1  0
  1 21  1  0
  1 22  1  0
  3 23  1  0
  4 24  1  0
  8 25  1  0
  8 26  1  0
 10 27  1  0
 13 28  1  0
 13 29  1  0
 13 30  1  0
 14 31  1  0
 15 32  1  0
 16 33  1  0
M  END
$$$$
