
     RDKit          3D

 38 40  0  0  0  0  0  0  0  0999 V2000
   -1.7940    0.4458    3.1679 C   0  0  0  0  0  0  0  0  0  0  0  0
   -1.1200    0.2847    1.9210 O   0  0  0  0  0  0  0  0  0  0  0  0
   -0.5803    1.4251    1.4420 C   0  0  0  0  0  0  0  0  0  0  0  0
   -0.6327    2.5422    1.9213 O   0  0  0  0  0  0  0  0  0  0  0  0
    0.1615    1.1146    0.1552 C   0  0  0  0  0  0  0  0  0  0  0  0
    1.2853    0.4791    0.2825 N   0  0  0  0  0  0  0  0  0  0  0  0
    2.0176    0.1809   -0.8566 N   0  0  0  0  0  0  0  0  0  0  0  0
    3.2381   -0.5393   -0.5809 C   0  0  0  0  0  0  0  0  0  0  0  0
    4.1374   -0.9367   -1.5816 C   0  0  0  0  0  0  0  0  0  0  0  0
    5.3131   -1.6364   -1.2745 C   0  0  0  0  0  0  0  0  0  0  0  0
    5.6183   -1.9558    0.0433 C   0  0  0  0  0  0  0  0  0  0  0  0
    4.7478   -1.5757    1.0563 C   0  0  0  0  0  0  0  0  0  0  0  0
    3.5749   -0.8774    0.7461 C   0  0  0  0  0  0  0  0  0  0  0  0
    1.5954    0.5590   -2.1371 C   0  0  0  0  0  0  0  0  0  0  0  0
    2.1541    0.3539   -3.2122 O   0  0  0  0  0  0  0  0  0  0  0  0
    0.3088    1.2880   -2.2106 C   0  0  0  0  0  0  0  0  0  0  0  0
   -0.4236    1.5516   -1.1285 C   0  0  0  0  0  0  0  0  0  0  0  0
   -1.9199    2.3980   -1.2335 S   0  0  0  0  0  0  0  0  0  0  0  0
   -3.0716    1.1223   -0.7551 C   0  0  0  0  0  0  0  0  0  0  0  0
   -3.0852   -0.1384   -1.3642 C   0  0  0  0  0  0  0  0  0  0  0  0
   -4.0046   -1.1096   -0.9560 C   0  0  0  0  0  0  0  0  0  0  0  0
   -4.9208   -0.8179    0.0522 C   0  0  0  0  0  0  0  0  0  0  0  0
   -6.0486   -2.0140    0.5562 Cl  0  0  0  0  0  0  0  0  0  0  0  0
   -4.9311    0.4393    0.6509 C   0  0  0  0  0  0  0  0  0  0  0  0
   -4.0107    1.4090    0.2436 C   0  0  0  0  0  0  0  0  0  0  0  0
   -1.0789    0.7115    3.9526 H   0  0  0  0  0  0  0  0  0  0  0  0
   -2.5813    1.2022    3.0923 H   0  0  0  0  0  0  0  0  0  0  0  0
   -2.2577   -0.5096    3.4288 H   0  0  0  0  0  0  0  0  0  0  0  0
    3.9670   -0.7217   -2.6306 H   0  0  0  0  0  0  0  0  0  0  0  0
    5.9886   -1.9285   -2.0750 H   0  0  0  0  0  0  0  0  0  0  0  0
    6.5304   -2.4974    0.2783 H   0  0  0  0  0  0  0  0  0  0  0  0
    4.9750   -1.8184    2.0910 H   0  0  0  0  0  0  0  0  0  0  0  0
    2.9247   -0.6007    1.5726 H   0  0  0  0  0  0  0  0  0  0  0  0
    0.0018    1.5782   -3.2093 H   0  0  0  0  0  0  0  0  0  0  0  0
   -2.3923   -0.3823   -2.1659 H   0  0  0  0  0  0  0  0  0  0  0  0
   -4.0033   -2.0872   -1.4317 H   0  0  0  0  0  0  0  0  0  0  0  0
   -5.6515    0.6730    1.4306 H   0  0  0  0  0  0  0  0  0  0  0  0
   -4.0315    2.3886    0.7187 H   0  0  0  0  0  0  0  0  0  0  0  0
  1  2  1  0
  2  3  1  0
  3  4  2  0
  3  5  1  0
  5  6  2  0
  6  7  1  0
  7  8  1  0
  8  9  2  0
  9 10  1  0
 10 11  2  0
 11 12  1  0
 12 13  2  0
  7 14  1  0
 14 15  2  0
 14 16  1  0
 16 17  2  0
 17 18  1  0
 18 19  1  0
 19 20  2  0
 20 21  1  0
 21 22  2  0
 22 23  1  0
 22 24  1  0
 24 25  2  0
 17  5  1  0
 25 19  1  0
 13  8  1  0
  1 26  1  0
  1 27  1  0
  1 28  1  0
  9 29  1  0
 10 30  1  0
 11 31  1  0
 12 32  1  0
 13 33  1  0
 16 34  1  0
 20 35  1  0
 21 36  1  0
 24 37  1  0
 25 38  1  0
M  END
$$$$
