
     RDKit          3D

 45 48  0  0  0  0  0  0  0  0999 V2000
   -1.8419    1.4256   -2.2730 C   0  0  0  0  0  0  0  0  0  0  0  0
   -3.2941    1.2943   -1.8120 C   0  0  0  0  0  0  0  0  0  0  0  0
   -3.9394    0.0565   -2.4345 C   0  0  0  0  0  0  0  0  0  0  0  0
   -3.4351    1.3284   -0.2773 C   0  0  0  0  0  0  0  0  0  0  0  0
   -2.7847    0.2186    0.4195 N   0  0  0  0  0  0  0  0  0  0  0  0
   -1.4485    0.3792    0.6912 N   0  0  0  0  0  0  0  0  0  0  0  0
   -0.8112   -0.5625    1.3266 C   0  0  0  0  0  0  0  0  0  0  0  0
    0.6719   -0.2826    1.5727 C   0  0  0  0  0  0  0  0  0  0  0  0
    1.1947   -0.6407    2.6129 O   0  0  0  0  0  0  0  0  0  0  0  0
    1.2240    0.4034    0.5213 N   0  0  0  0  0  0  0  0  0  0  0  0
    2.5384    0.7604    0.4938 C   0  0  0  0  0  0  0  0  0  0  0  0
    3.5100    0.4745    1.3255 N   0  0  0  0  0  0  0  0  0  0  0  0
    4.7097    1.0346    0.9188 N   0  0  0  0  0  0  0  0  0  0  0  0
    4.5741    1.7049   -0.2037 C   0  0  0  0  0  0  0  0  0  0  0  0
    5.7671    2.4467   -0.8808 C   0  0  0  0  0  0  0  0  0  0  0  0
    7.1299    1.8019   -0.8798 C   0  0  0  0  0  0  0  0  0  0  0  0
    6.3494    1.8965   -2.1581 C   0  0  0  0  0  0  0  0  0  0  0  0
    2.9881    1.7167   -0.8482 S   0  0  0  0  0  0  0  0  0  0  0  0
   -1.4353   -1.8265    1.7531 C   0  0  0  0  0  0  0  0  0  0  0  0
   -0.7376   -2.8722    2.3705 C   0  0  0  0  0  0  0  0  0  0  0  0
   -1.4081   -4.0420    2.7407 C   0  0  0  0  0  0  0  0  0  0  0  0
   -2.7719   -4.1782    2.4914 C   0  0  0  0  0  0  0  0  0  0  0  0
   -3.4672   -3.1454    1.8654 C   0  0  0  0  0  0  0  0  0  0  0  0
   -2.7953   -1.9720    1.4933 C   0  0  0  0  0  0  0  0  0  0  0  0
   -3.5304   -0.8948    0.8034 C   0  0  0  0  0  0  0  0  0  0  0  0
   -4.7325   -1.0276    0.5885 O   0  0  0  0  0  0  0  0  0  0  0  0
   -1.3607    2.2934   -1.8102 H   0  0  0  0  0  0  0  0  0  0  0  0
   -1.7963    1.5602   -3.3591 H   0  0  0  0  0  0  0  0  0  0  0  0
   -1.2551    0.5346   -2.0285 H   0  0  0  0  0  0  0  0  0  0  0  0
   -3.8341    2.1704   -2.1952 H   0  0  0  0  0  0  0  0  0  0  0  0
   -3.9212    0.1226   -3.5278 H   0  0  0  0  0  0  0  0  0  0  0  0
   -4.9857   -0.0351   -2.1255 H   0  0  0  0  0  0  0  0  0  0  0  0
   -3.4145   -0.8611   -2.1499 H   0  0  0  0  0  0  0  0  0  0  0  0
   -4.4997    1.3390   -0.0147 H   0  0  0  0  0  0  0  0  0  0  0  0
   -3.0104    2.2615    0.1141 H   0  0  0  0  0  0  0  0  0  0  0  0
    0.6121    0.7404   -0.2108 H   0  0  0  0  0  0  0  0  0  0  0  0
    5.7373    3.5248   -0.7643 H   0  0  0  0  0  0  0  0  0  0  0  0
    7.2398    0.8259   -0.4187 H   0  0  0  0  0  0  0  0  0  0  0  0
    7.9926    2.4460   -0.7566 H   0  0  0  0  0  0  0  0  0  0  0  0
    5.9453    0.9773   -2.5671 H   0  0  0  0  0  0  0  0  0  0  0  0
    6.6856    2.6044   -2.9067 H   0  0  0  0  0  0  0  0  0  0  0  0
    0.3269   -2.8095    2.5832 H   0  0  0  0  0  0  0  0  0  0  0  0
   -0.8618   -4.8475    3.2279 H   0  0  0  0  0  0  0  0  0  0  0  0
   -3.2925   -5.0880    2.7817 H   0  0  0  0  0  0  0  0  0  0  0  0
   -4.5316   -3.2569    1.6650 H   0  0  0  0  0  0  0  0  0  0  0  0
  1  2  1  0
  2  3  1  0
  2  4  1  0
  4  5  1  0
  5  6  1  0
  6  7  2  0
  7  8  1  0
  8  9  2  0
  8 10  1  0
 10 11  1  0
 11 12  2  0
 12 13  1  0
 13 14  2  0
 14 15  1  0
 15 16  1  0
 16 17  1  0
 14 18  1  0
  7 19  1  0
 19 20  2  0
 20 21  1  0
 21 22  2  0
 22 23  1  0
 23 24  2  0
 24 25  1  0
 25 26  2  0
 25  5  1  0
 18 11  1  0
 24 19  1  0
 17 15  1  0
  1 27  1  0
  1 28  1  0
  1 29  1  0
  2 30  1  0
  3 31  1  0
  3 32  1  0
  3 33  1  0
  4 34  1  0
  4 35  1  0
 10 36  1  0
 15 37  1  0
 16 38  1  0
 16 39  1  0
 17 40  1  0
 17 41  1  0
 20 42  1  0
 21 43  1  0
 22 44  1  0
 23 45  1  0
M  END
$$$$
