
     RDKit          3D

 51 53  0  0  0  0  0  0  0  0999 V2000
    5.2553   -1.7061    1.6996 O   0  0  0  0  0  0  0  0  0  0  0  0
    4.6468   -0.6442    1.7087 C   0  0  0  0  0  0  0  0  0  0  0  0
    3.4131   -0.4191    2.2678 N   0  0  0  0  0  0  0  0  0  0  0  0
    2.5905   -1.4873    2.7728 C   0  0  0  0  0  0  0  0  0  0  0  0
    1.6860   -1.9375    1.6884 C   0  0  0  0  0  0  0  0  0  0  0  0
    1.7685   -2.9305    0.7358 C   0  0  0  0  0  0  0  0  0  0  0  0
    0.5787   -2.8494   -0.0278 C   0  0  0  0  0  0  0  0  0  0  0  0
   -0.1623   -1.8092    0.4995 C   0  0  0  0  0  0  0  0  0  0  0  0
   -1.4452   -1.2764    0.1216 C   0  0  0  0  0  0  0  0  0  0  0  0
   -1.9676   -0.2745    0.7558 N   0  0  0  0  0  0  0  0  0  0  0  0
   -3.2068    0.1876    0.3933 N   0  0  0  0  0  0  0  0  0  0  0  0
   -4.2158   -0.5230   -0.2326 C   0  0  0  0  0  0  0  0  0  0  0  0
   -4.1817   -1.6552   -0.6975 O   0  0  0  0  0  0  0  0  0  0  0  0
   -5.5317    0.2767   -0.3054 C   0  0  0  0  0  0  0  0  0  0  0  0
   -5.5661    1.3947    0.1883 O   0  0  0  0  0  0  0  0  0  0  0  0
   -6.5291   -0.4226   -0.9481 N   0  0  0  0  0  0  0  0  0  0  0  0
   -7.8559   -0.0213   -1.2068 C   0  0  0  0  0  0  0  0  0  0  0  0
   -8.3582    1.2252   -0.8212 C   0  0  0  0  0  0  0  0  0  0  0  0
   -9.6832    1.5773   -1.1015 C   0  0  0  0  0  0  0  0  0  0  0  0
  -10.5219    0.6889   -1.7699 C   0  0  0  0  0  0  0  0  0  0  0  0
  -10.0381   -0.5570   -2.1619 C   0  0  0  0  0  0  0  0  0  0  0  0
   -8.7140   -0.9091   -1.8823 C   0  0  0  0  0  0  0  0  0  0  0  0
   -8.1192   -2.6255   -2.4494 Br  0  0  0  0  0  0  0  0  0  0  0  0
    0.5159   -1.2525    1.5482 O   0  0  0  0  0  0  0  0  0  0  0  0
    5.2665    0.6010    1.0361 C   0  0  0  0  0  0  0  0  0  0  0  0
    4.6247    1.6412    1.0176 O   0  0  0  0  0  0  0  0  0  0  0  0
    6.5202    0.3347    0.5292 N   0  0  0  0  0  0  0  0  0  0  0  0
    7.3843    1.2135   -0.1444 C   0  0  0  0  0  0  0  0  0  0  0  0
    7.0788    2.5494   -0.4103 C   0  0  0  0  0  0  0  0  0  0  0  0
    7.9936    3.3624   -1.0872 C   0  0  0  0  0  0  0  0  0  0  0  0
    9.2191    2.8462   -1.5023 C   0  0  0  0  0  0  0  0  0  0  0  0
    9.5322    1.5150   -1.2414 C   0  0  0  0  0  0  0  0  0  0  0  0
    8.6184    0.7024   -0.5654 C   0  0  0  0  0  0  0  0  0  0  0  0
    2.9826    0.4814    2.0727 H   0  0  0  0  0  0  0  0  0  0  0  0
    3.2163   -2.3134    3.1256 H   0  0  0  0  0  0  0  0  0  0  0  0
    2.0190   -1.0960    3.6200 H   0  0  0  0  0  0  0  0  0  0  0  0
    2.5917   -3.6208    0.6086 H   0  0  0  0  0  0  0  0  0  0  0  0
    0.2950   -3.4720   -0.8651 H   0  0  0  0  0  0  0  0  0  0  0  0
   -1.9186   -1.7599   -0.7469 H   0  0  0  0  0  0  0  0  0  0  0  0
   -3.4822    1.0670    0.8341 H   0  0  0  0  0  0  0  0  0  0  0  0
   -6.2643   -1.3537   -1.2701 H   0  0  0  0  0  0  0  0  0  0  0  0
   -7.7449    1.9524   -0.2978 H   0  0  0  0  0  0  0  0  0  0  0  0
  -10.0577    2.5510   -0.7935 H   0  0  0  0  0  0  0  0  0  0  0  0
  -11.5506    0.9676   -1.9848 H   0  0  0  0  0  0  0  0  0  0  0  0
  -10.6980   -1.2453   -2.6839 H   0  0  0  0  0  0  0  0  0  0  0  0
    6.8350   -0.6224    0.6718 H   0  0  0  0  0  0  0  0  0  0  0  0
    6.1355    2.9913   -0.1048 H   0  0  0  0  0  0  0  0  0  0  0  0
    7.7444    4.4013   -1.2884 H   0  0  0  0  0  0  0  0  0  0  0  0
    9.9275    3.4813   -2.0278 H   0  0  0  0  0  0  0  0  0  0  0  0
   10.4872    1.1080   -1.5634 H   0  0  0  0  0  0  0  0  0  0  0  0
    8.8862   -0.3334   -0.3731 H   0  0  0  0  0  0  0  0  0  0  0  0
  1  2  2  0
  2  3  1  0
  3  4  1  0
  4  5  1  0
  5  6  2  0
  6  7  1  0
  7  8  2  0
  8  9  1  0
  9 10  2  3
 10 11  1  0
 11 12  1  0
 12 13  2  0
 12 14  1  0
 14 15  2  0
 14 16  1  0
 16 17  1  0
 17 18  2  0
 18 19  1  0
 19 20  2  0
 20 21  1  0
 21 22  2  0
 22 23  1  0
  8 24  1  0
  2 25  1  0
 25 26  2  0
 25 27  1  0
 27 28  1  0
 28 29  2  0
 29 30  1  0
 30 31  2  0
 31 32  1  0
 32 33  2  0
 24  5  1  0
 33 28  1  0
 22 17  1  0
  3 34  1  0
  4 35  1  0
  4 36  1  0
  6 37  1  0
  7 38  1  0
  9 39  1  0
 11 40  1  0
 16 41  1  0
 18 42  1  0
 19 43  1  0
 20 44  1  0
 21 45  1  0
 27 46  1  0
 29 47  1  0
 30 48  1  0
 31 49  1  0
 32 50  1  0
 33 51  1  0
M  END
$$$$
