
     RDKit          3D

 40 44  0  0  0  0  0  0  0  0999 V2000
    6.2033    0.8897    0.6080 C   0  0  0  0  0  0  0  0  0  0  0  0
    5.3215    1.6711   -0.1343 C   0  0  0  0  0  0  0  0  0  0  0  0
    3.9927    1.2683   -0.2922 C   0  0  0  0  0  0  0  0  0  0  0  0
    3.5229    0.0780    0.2874 C   0  0  0  0  0  0  0  0  0  0  0  0
    2.1226   -0.3458    0.1199 C   0  0  0  0  0  0  0  0  0  0  0  0
    1.8129   -1.6082   -0.4085 C   0  0  0  0  0  0  0  0  0  0  0  0
    0.4920   -2.0406   -0.5843 C   0  0  0  0  0  0  0  0  0  0  0  0
   -0.5355   -1.1697   -0.2055 C   0  0  0  0  0  0  0  0  0  0  0  0
   -0.2753    0.1058    0.3270 C   0  0  0  0  0  0  0  0  0  0  0  0
    1.0661    0.5115    0.4842 C   0  0  0  0  0  0  0  0  0  0  0  0
   -1.5333    0.7275    0.5781 C   0  0  0  0  0  0  0  0  0  0  0  0
   -2.4949   -0.1867    0.2340 C   0  0  0  0  0  0  0  0  0  0  0  0
   -1.8984   -1.2965   -0.2631 N   0  0  0  0  0  0  0  0  0  0  0  0
   -2.7294   -2.3300   -0.8406 C   0  0  0  0  0  0  0  0  0  0  0  0
   -4.1245   -2.3181   -0.1940 C   0  0  0  0  0  0  0  0  0  0  0  0
   -4.7255   -0.9741    0.0319 N   0  0  0  0  0  0  0  0  0  0  0  0
   -3.9084   -0.0082    0.2916 C   0  0  0  0  0  0  0  0  0  0  0  0
   -4.3800    1.3699    0.7277 C   0  0  0  0  0  0  0  0  0  0  0  0
   -3.3073    2.4638    0.5235 C   0  0  0  0  0  0  0  0  0  0  0  0
   -1.9134    2.0778    1.0775 C   0  0  0  0  0  0  0  0  0  0  0  0
    4.4290   -0.6956    1.0318 C   0  0  0  0  0  0  0  0  0  0  0  0
    5.7579   -0.2936    1.1917 C   0  0  0  0  0  0  0  0  0  0  0  0
    7.2367    1.2027    0.7317 H   0  0  0  0  0  0  0  0  0  0  0  0
    5.6662    2.5938   -0.5938 H   0  0  0  0  0  0  0  0  0  0  0  0
    3.3220    1.8873   -0.8850 H   0  0  0  0  0  0  0  0  0  0  0  0
    2.6181   -2.2774   -0.7089 H   0  0  0  0  0  0  0  0  0  0  0  0
    0.2841   -3.0197   -1.0029 H   0  0  0  0  0  0  0  0  0  0  0  0
    1.2787    1.4924    0.9013 H   0  0  0  0  0  0  0  0  0  0  0  0
   -2.7992   -2.1117   -1.9121 H   0  0  0  0  0  0  0  0  0  0  0  0
   -2.2436   -3.3001   -0.7006 H   0  0  0  0  0  0  0  0  0  0  0  0
   -4.8100   -2.8986   -0.8213 H   0  0  0  0  0  0  0  0  0  0  0  0
   -4.0818   -2.8258    0.7781 H   0  0  0  0  0  0  0  0  0  0  0  0
   -5.2910    1.6283    0.1772 H   0  0  0  0  0  0  0  0  0  0  0  0
   -4.6411    1.3054    1.7908 H   0  0  0  0  0  0  0  0  0  0  0  0
   -3.6411    3.3980    0.9889 H   0  0  0  0  0  0  0  0  0  0  0  0
   -3.2142    2.6592   -0.5534 H   0  0  0  0  0  0  0  0  0  0  0  0
   -1.9421    2.0648    2.1732 H   0  0  0  0  0  0  0  0  0  0  0  0
   -1.1763    2.8270    0.7691 H   0  0  0  0  0  0  0  0  0  0  0  0
    4.0975   -1.6175    1.5053 H   0  0  0  0  0  0  0  0  0  0  0  0
    6.4422   -0.9043    1.7746 H   0  0  0  0  0  0  0  0  0  0  0  0
  1  2  2  0
  2  3  1  0
  3  4  2  0
  4  5  1  0
  5  6  2  0
  6  7  1  0
  7  8  2  0
  8  9  1  0
  9 10  2  0
  9 11  1  0
 11 12  2  0
 12 13  1  0
 13 14  1  0
 14 15  1  0
 15 16  1  0
 16 17  2  0
 17 18  1  0
 18 19  1  0
 19 20  1  0
  4 21  1  0
 21 22  2  0
 22  1  1  0
 10  5  1  0
 20 11  1  0
 13  8  1  0
 17 12  1  0
  1 23  1  0
  2 24  1  0
  3 25  1  0
  6 26  1  0
  7 27  1  0
 10 28  1  0
 14 29  1  0
 14 30  1  0
 15 31  1  0
 15 32  1  0
 18 33  1  0
 18 34  1  0
 19 35  1  0
 19 36  1  0
 20 37  1  0
 20 38  1  0
 21 39  1  0
 22 40  1  0
M  END
$$$$
