
     RDKit          3D

 49 51  0  0  0  0  0  0  0  0999 V2000
    9.0765   -3.0276    3.0673 N   0  0  0  0  0  0  0  0  0  0  0  0
    8.0229   -2.7498    2.6661 C   0  0  0  0  0  0  0  0  0  0  0  0
    6.7292   -2.4225    2.1447 C   0  0  0  0  0  0  0  0  0  0  0  0
    5.9094   -1.7324    2.9838 N   0  0  0  0  0  0  0  0  0  0  0  0
    4.6860   -1.4144    2.4833 C   0  0  0  0  0  0  0  0  0  0  0  0
    4.2661   -1.7598    1.1974 C   0  0  0  0  0  0  0  0  0  0  0  0
    2.9459   -1.4085    0.6445 C   0  0  0  0  0  0  0  0  0  0  0  0
    2.3201   -2.2331   -0.3051 C   0  0  0  0  0  0  0  0  0  0  0  0
    1.0559   -1.9278   -0.8285 C   0  0  0  0  0  0  0  0  0  0  0  0
    0.3809   -0.7726   -0.4306 C   0  0  0  0  0  0  0  0  0  0  0  0
    1.0072    0.0820    0.4877 C   0  0  0  0  0  0  0  0  0  0  0  0
    2.2590   -0.2463    1.0285 C   0  0  0  0  0  0  0  0  0  0  0  0
    0.4462    1.2174    1.0141 O   0  0  0  0  0  0  0  0  0  0  0  0
   -0.0346    2.1682    0.0583 C   0  0  0  0  0  0  0  0  0  0  0  0
   -1.4961    2.4946    0.3561 C   0  0  0  0  0  0  0  0  0  0  0  0
   -1.9384    3.5457   -0.5081 O   0  0  0  0  0  0  0  0  0  0  0  0
   -3.2586    4.0096   -0.1907 C   0  0  0  0  0  0  0  0  0  0  0  0
   -4.3508    3.0561   -0.6856 C   0  0  0  0  0  0  0  0  0  0  0  0
   -4.5206    1.9924    0.2512 O   0  0  0  0  0  0  0  0  0  0  0  0
   -5.4624    0.9921   -0.1516 C   0  0  0  0  0  0  0  0  0  0  0  0
   -4.9862    0.1402   -1.3337 C   0  0  0  0  0  0  0  0  0  0  0  0
   -3.7703   -0.5284   -0.9889 O   0  0  0  0  0  0  0  0  0  0  0  0
   -2.8997   -0.6766   -2.1135 C   0  0  0  0  0  0  0  0  0  0  0  0
   -1.5915   -1.3390   -1.6807 C   0  0  0  0  0  0  0  0  0  0  0  0
   -0.8612   -0.4145   -0.8713 O   0  0  0  0  0  0  0  0  0  0  0  0
    5.0947   -2.4639    0.3795 N   0  0  0  0  0  0  0  0  0  0  0  0
    6.3290   -2.7804    0.8675 C   0  0  0  0  0  0  0  0  0  0  0  0
    7.1881   -3.4846   -0.0369 C   0  0  0  0  0  0  0  0  0  0  0  0
    7.9071   -4.0411   -0.7610 N   0  0  0  0  0  0  0  0  0  0  0  0
    4.0438   -0.8711    3.1717 H   0  0  0  0  0  0  0  0  0  0  0  0
    2.8132   -3.1444   -0.6438 H   0  0  0  0  0  0  0  0  0  0  0  0
    0.6295   -2.6246   -1.5423 H   0  0  0  0  0  0  0  0  0  0  0  0
    2.6904    0.4480    1.7465 H   0  0  0  0  0  0  0  0  0  0  0  0
    0.5651    3.0789    0.1789 H   0  0  0  0  0  0  0  0  0  0  0  0
    0.1030    1.8687   -0.9882 H   0  0  0  0  0  0  0  0  0  0  0  0
   -1.5953    2.8026    1.4042 H   0  0  0  0  0  0  0  0  0  0  0  0
   -2.1046    1.5985    0.2114 H   0  0  0  0  0  0  0  0  0  0  0  0
   -3.3710    4.9653   -0.7129 H   0  0  0  0  0  0  0  0  0  0  0  0
   -3.3398    4.2010    0.8854 H   0  0  0  0  0  0  0  0  0  0  0  0
   -5.3003    3.5955   -0.7655 H   0  0  0  0  0  0  0  0  0  0  0  0
   -4.0659    2.6644   -1.6651 H   0  0  0  0  0  0  0  0  0  0  0  0
   -5.6033    0.3421    0.7193 H   0  0  0  0  0  0  0  0  0  0  0  0
   -6.4253    1.4657   -0.3751 H   0  0  0  0  0  0  0  0  0  0  0  0
   -5.7363   -0.6234   -1.5651 H   0  0  0  0  0  0  0  0  0  0  0  0
   -4.8552    0.7613   -2.2256 H   0  0  0  0  0  0  0  0  0  0  0  0
   -3.3964   -1.2941   -2.8686 H   0  0  0  0  0  0  0  0  0  0  0  0
   -2.6849    0.3153   -2.5309 H   0  0  0  0  0  0  0  0  0  0  0  0
   -1.0183   -1.5786   -2.5844 H   0  0  0  0  0  0  0  0  0  0  0  0
   -1.8022   -2.2461   -1.1018 H   0  0  0  0  0  0  0  0  0  0  0  0
  1  2  3  0
  2  3  1  0
  3  4  2  0
  4  5  1  0
  5  6  2  0
  6  7  1  0
  7  8  2  0
  8  9  1  0
  9 10  2  0
 10 11  1  0
 11 12  2  0
 11 13  1  0
 13 14  1  0
 14 15  1  0
 15 16  1  0
 16 17  1  0
 17 18  1  0
 18 19  1  0
 19 20  1  0
 20 21  1  0
 21 22  1  0
 22 23  1  0
 23 24  1  0
 24 25  1  0
  6 26  1  0
 26 27  2  0
 27 28  1  0
 28 29  3  0
 27  3  1  0
 12  7  1  0
 25 10  1  0
  5 30  1  0
  8 31  1  0
  9 32  1  0
 12 33  1  0
 14 34  1  0
 14 35  1  0
 15 36  1  0
 15 37  1  0
 17 38  1  0
 17 39  1  0
 18 40  1  0
 18 41  1  0
 20 42  1  0
 20 43  1  0
 21 44  1  0
 21 45  1  0
 23 46  1  0
 23 47  1  0
 24 48  1  0
 24 49  1  0
M  END
$$$$
