
     RDKit          3D

 55 59  0  0  0  0  0  0  0  0999 V2000
   -5.4677    5.2066    0.6915 C   0  0  0  0  0  0  0  0  0  0  0  0
   -4.8294    3.8505    0.6618 C   0  0  0  0  0  0  0  0  0  0  0  0
   -3.9718    3.4909   -0.3828 C   0  0  0  0  0  0  0  0  0  0  0  0
   -3.3532    2.2383   -0.3927 C   0  0  0  0  0  0  0  0  0  0  0  0
   -3.5768    1.3245    0.6461 C   0  0  0  0  0  0  0  0  0  0  0  0
   -2.9001   -0.0238    0.6441 C   0  0  0  0  0  0  0  0  0  0  0  0
   -1.2486    0.0607    1.3893 S   0  0  0  0  0  0  0  0  0  0  0  0
   -0.7206   -1.5834    1.0657 C   0  0  0  0  0  0  0  0  0  0  0  0
   -1.5639   -2.5362    1.3563 N   0  0  0  0  0  0  0  0  0  0  0  0
   -1.1992   -3.8850    1.1536 C   0  0  0  0  0  0  0  0  0  0  0  0
   -2.1156   -4.8880    1.4726 C   0  0  0  0  0  0  0  0  0  0  0  0
   -1.7839   -6.2335    1.2910 C   0  0  0  0  0  0  0  0  0  0  0  0
   -0.5309   -6.5851    0.7874 C   0  0  0  0  0  0  0  0  0  0  0  0
    0.3946   -5.5926    0.4637 C   0  0  0  0  0  0  0  0  0  0  0  0
    0.0596   -4.2487    0.6476 C   0  0  0  0  0  0  0  0  0  0  0  0
    0.9685   -3.1653    0.3302 C   0  0  0  0  0  0  0  0  0  0  0  0
    2.1886   -3.2284   -0.1566 N   0  0  0  0  0  0  0  0  0  0  0  0
    2.6068   -1.9221   -0.2831 C   0  0  0  0  0  0  0  0  0  0  0  0
    3.9634   -1.6688   -0.8448 C   0  0  0  0  0  0  0  0  0  0  0  0
    4.6021   -0.4110   -0.3008 C   0  0  0  0  0  0  0  0  0  0  0  0
    5.3033   -0.3924    0.7057 O   0  0  0  0  0  0  0  0  0  0  0  0
    4.2907    0.7310   -1.0112 N   0  0  0  0  0  0  0  0  0  0  0  0
    4.8783    2.0002   -0.6389 C   0  0  0  0  0  0  0  0  0  0  0  0
    4.2377    3.0742   -1.4340 C   0  0  0  0  0  0  0  0  0  0  0  0
    4.7339    4.1184   -2.1871 C   0  0  0  0  0  0  0  0  0  0  0  0
    3.6097    4.8068   -2.7054 C   0  0  0  0  0  0  0  0  0  0  0  0
    2.5013    4.1405   -2.2377 C   0  0  0  0  0  0  0  0  0  0  0  0
    2.8717    3.0833   -1.4704 O   0  0  0  0  0  0  0  0  0  0  0  0
    1.5946   -1.0518    0.1011 C   0  0  0  0  0  0  0  0  0  0  0  0
    1.4987    0.2739    0.0946 O   0  0  0  0  0  0  0  0  0  0  0  0
    0.5547   -1.8644    0.5352 N   0  0  0  0  0  0  0  0  0  0  0  0
   -4.4168    1.6972    1.7042 C   0  0  0  0  0  0  0  0  0  0  0  0
   -5.0358    2.9493    1.7125 C   0  0  0  0  0  0  0  0  0  0  0  0
   -5.5825    5.6096   -0.3206 H   0  0  0  0  0  0  0  0  0  0  0  0
   -4.8538    5.8975    1.2770 H   0  0  0  0  0  0  0  0  0  0  0  0
   -6.4674    5.1539    1.1358 H   0  0  0  0  0  0  0  0  0  0  0  0
   -3.7754    4.1859   -1.1964 H   0  0  0  0  0  0  0  0  0  0  0  0
   -2.6859    1.9826   -1.2136 H   0  0  0  0  0  0  0  0  0  0  0  0
   -3.5222   -0.7436    1.1889 H   0  0  0  0  0  0  0  0  0  0  0  0
   -2.8186   -0.3896   -0.3875 H   0  0  0  0  0  0  0  0  0  0  0  0
   -3.0913   -4.6185    1.8690 H   0  0  0  0  0  0  0  0  0  0  0  0
   -2.5034   -7.0082    1.5473 H   0  0  0  0  0  0  0  0  0  0  0  0
   -0.2740   -7.6330    0.6491 H   0  0  0  0  0  0  0  0  0  0  0  0
    1.3723   -5.8646    0.0732 H   0  0  0  0  0  0  0  0  0  0  0  0
    4.6313   -2.5050   -0.6053 H   0  0  0  0  0  0  0  0  0  0  0  0
    3.9072   -1.6150   -1.9373 H   0  0  0  0  0  0  0  0  0  0  0  0
    3.9346    0.6440   -1.9569 H   0  0  0  0  0  0  0  0  0  0  0  0
    5.9547    1.9474   -0.8358 H   0  0  0  0  0  0  0  0  0  0  0  0
    4.7285    2.1677    0.4326 H   0  0  0  0  0  0  0  0  0  0  0  0
    5.7785    4.3568   -2.3396 H   0  0  0  0  0  0  0  0  0  0  0  0
    3.6069    5.6833   -3.3387 H   0  0  0  0  0  0  0  0  0  0  0  0
    1.4364    4.2805   -2.3558 H   0  0  0  0  0  0  0  0  0  0  0  0
    2.3455    0.6775   -0.1778 H   0  0  0  0  0  0  0  0  0  0  0  0
   -4.5881    1.0156    2.5343 H   0  0  0  0  0  0  0  0  0  0  0  0
   -5.6773    3.2186    2.5492 H   0  0  0  0  0  0  0  0  0  0  0  0
  1  2  1  0
  2  3  2  0
  3  4  1  0
  4  5  2  0
  5  6  1  0
  6  7  1  0
  7  8  1  0
  8  9  2  0
  9 10  1  0
 10 11  2  0
 11 12  1  0
 12 13  2  0
 13 14  1  0
 14 15  2  0
 15 16  1  0
 16 17  2  0
 17 18  1  0
 18 19  1  0
 19 20  1  0
 20 21  2  0
 20 22  1  0
 22 23  1  0
 23 24  1  0
 24 25  2  0
 25 26  1  0
 26 27  2  0
 27 28  1  0
 18 29  2  0
 29 30  1  0
 29 31  1  0
  5 32  1  0
 32 33  2  0
 33  2  1  0
 31  8  1  0
 15 10  1  0
 31 16  1  0
 28 24  1  0
  1 34  1  0
  1 35  1  0
  1 36  1  0
  3 37  1  0
  4 38  1  0
  6 39  1  0
  6 40  1  0
 11 41  1  0
 12 42  1  0
 13 43  1  0
 14 44  1  0
 19 45  1  0
 19 46  1  0
 22 47  1  0
 23 48  1  0
 23 49  1  0
 25 50  1  0
 26 51  1  0
 27 52  1  0
 30 53  1  0
 32 54  1  0
 33 55  1  0
M  END
$$$$
