
     RDKit          3D

 42 44  0  0  0  0  0  0  0  0999 V2000
    1.0151    4.4497    0.0920 C   0  0  0  0  0  0  0  0  0  0  0  0
    0.1178    3.7170    1.4818 S   0  0  0  0  0  0  0  0  0  0  0  0
    0.0473    2.0303    0.8949 C   0  0  0  0  0  0  0  0  0  0  0  0
    1.2511    1.4662    0.6799 N   0  0  0  0  0  0  0  0  0  0  0  0
    1.2661    0.1714    0.3320 C   0  0  0  0  0  0  0  0  0  0  0  0
    2.5799   -0.4662    0.1092 C   0  0  0  0  0  0  0  0  0  0  0  0
    2.6899   -1.8042   -0.3161 C   0  0  0  0  0  0  0  0  0  0  0  0
    3.9344   -2.4066   -0.5285 C   0  0  0  0  0  0  0  0  0  0  0  0
    5.1035   -1.6829   -0.3180 C   0  0  0  0  0  0  0  0  0  0  0  0
    5.0294   -0.3597    0.1029 C   0  0  0  0  0  0  0  0  0  0  0  0
    3.7827    0.2395    0.3127 C   0  0  0  0  0  0  0  0  0  0  0  0
    0.1590   -0.5803    0.1759 N   0  0  0  0  0  0  0  0  0  0  0  0
   -1.0451   -0.0052    0.3662 C   0  0  0  0  0  0  0  0  0  0  0  0
   -2.1976   -0.7940    0.1956 N   0  0  0  0  0  0  0  0  0  0  0  0
   -2.9919   -0.4499   -1.0134 C   0  0  0  0  0  0  0  0  0  0  0  0
   -2.4424   -1.1434   -2.2705 C   0  0  0  0  0  0  0  0  0  0  0  0
   -2.3878   -2.5670   -2.0981 O   0  0  0  0  0  0  0  0  0  0  0  0
   -1.5183   -2.8988   -1.0044 C   0  0  0  0  0  0  0  0  0  0  0  0
   -1.9919   -2.2583    0.3112 C   0  0  0  0  0  0  0  0  0  0  0  0
   -1.1338    1.3269    0.7554 C   0  0  0  0  0  0  0  0  0  0  0  0
   -2.4296    1.9483    1.0508 C   0  0  0  0  0  0  0  0  0  0  0  0
   -3.1603    1.4836    2.2804 C   0  0  0  0  0  0  0  0  0  0  0  0
   -2.8807    2.7966    0.2860 O   0  0  0  0  0  0  0  0  0  0  0  0
    1.1106    5.5268    0.2524 H   0  0  0  0  0  0  0  0  0  0  0  0
    2.0184    4.0245    0.0017 H   0  0  0  0  0  0  0  0  0  0  0  0
    0.4665    4.2873   -0.8398 H   0  0  0  0  0  0  0  0  0  0  0  0
    1.7944   -2.3972   -0.4889 H   0  0  0  0  0  0  0  0  0  0  0  0
    3.9865   -3.4410   -0.8584 H   0  0  0  0  0  0  0  0  0  0  0  0
    6.0709   -2.1492   -0.4821 H   0  0  0  0  0  0  0  0  0  0  0  0
    5.9394    0.2109    0.2706 H   0  0  0  0  0  0  0  0  0  0  0  0
    3.7570    1.2766    0.6443 H   0  0  0  0  0  0  0  0  0  0  0  0
   -4.0174   -0.7996   -0.8378 H   0  0  0  0  0  0  0  0  0  0  0  0
   -3.0504    0.6284   -1.1894 H   0  0  0  0  0  0  0  0  0  0  0  0
   -1.4441   -0.7725   -2.5305 H   0  0  0  0  0  0  0  0  0  0  0  0
   -3.1029   -0.9411   -3.1201 H   0  0  0  0  0  0  0  0  0  0  0  0
   -0.4987   -2.6037   -1.2684 H   0  0  0  0  0  0  0  0  0  0  0  0
   -1.5234   -3.9883   -0.9005 H   0  0  0  0  0  0  0  0  0  0  0  0
   -2.9657   -2.6924    0.5717 H   0  0  0  0  0  0  0  0  0  0  0  0
   -1.3126   -2.5069    1.1370 H   0  0  0  0  0  0  0  0  0  0  0  0
   -4.0420    0.9100    1.9835 H   0  0  0  0  0  0  0  0  0  0  0  0
   -3.4618    2.3564    2.8660 H   0  0  0  0  0  0  0  0  0  0  0  0
   -2.5214    0.8580    2.9106 H   0  0  0  0  0  0  0  0  0  0  0  0
  1  2  1  0
  2  3  1  0
  3  4  2  0
  4  5  1  0
  5  6  1  0
  6  7  2  0
  7  8  1  0
  8  9  2  0
  9 10  1  0
 10 11  2  0
  5 12  2  0
 12 13  1  0
 13 14  1  0
 14 15  1  0
 15 16  1  0
 16 17  1  0
 17 18  1  0
 18 19  1  0
 13 20  2  0
 20 21  1  0
 21 22  1  0
 21 23  2  0
 20  3  1  0
 11  6  1  0
 19 14  1  0
  1 24  1  0
  1 25  1  0
  1 26  1  0
  7 27  1  0
  8 28  1  0
  9 29  1  0
 10 30  1  0
 11 31  1  0
 15 32  1  0
 15 33  1  0
 16 34  1  0
 16 35  1  0
 18 36  1  0
 18 37  1  0
 19 38  1  0
 19 39  1  0
 22 40  1  0
 22 41  1  0
 22 42  1  0
M  END
$$$$
