
     RDKit          3D

 57 61  0  0  0  0  0  0  0  0999 V2000
   -2.8524   -0.3638   -3.4145 C   0  0  0  0  0  0  0  0  0  0  0  0
   -3.0335   -1.5225   -2.6644 C   0  0  0  0  0  0  0  0  0  0  0  0
   -3.1462   -1.4464   -1.2743 C   0  0  0  0  0  0  0  0  0  0  0  0
   -3.0775   -0.2087   -0.6080 C   0  0  0  0  0  0  0  0  0  0  0  0
   -3.2163   -0.1764    0.9111 C   0  0  0  0  0  0  0  0  0  0  0  0
   -4.4240    0.5208    1.5304 C   0  0  0  0  0  0  0  0  0  0  0  0
   -4.5525    0.5807    2.9339 C   0  0  0  0  0  0  0  0  0  0  0  0
   -5.6653    1.1714    3.5372 C   0  0  0  0  0  0  0  0  0  0  0  0
   -6.6826    1.7026    2.7515 C   0  0  0  0  0  0  0  0  0  0  0  0
   -6.5910    1.6347    1.3646 C   0  0  0  0  0  0  0  0  0  0  0  0
   -5.4781    1.0421    0.7601 C   0  0  0  0  0  0  0  0  0  0  0  0
   -1.9519    0.4500    1.4388 C   0  0  0  0  0  0  0  0  0  0  0  0
   -1.7250    1.7735    1.5213 N   0  0  0  0  0  0  0  0  0  0  0  0
   -0.4348    1.8544    2.0394 O   0  0  0  0  0  0  0  0  0  0  0  0
   -0.0075    0.5730    2.2255 C   0  0  0  0  0  0  0  0  0  0  0  0
    1.3832    0.3995    2.7406 C   0  0  0  0  0  0  0  0  0  0  0  0
    2.4207    0.0857    1.7311 N   0  0  0  0  0  0  0  0  0  0  0  0
    2.5794    1.1621    0.7450 C   0  0  0  0  0  0  0  0  0  0  0  0
    3.7609    0.8775   -0.1841 C   0  0  0  0  0  0  0  0  0  0  0  0
    3.5963   -0.4834   -0.8766 C   0  0  0  0  0  0  0  0  0  0  0  0
    4.7621   -0.8059   -1.7904 C   0  0  0  0  0  0  0  0  0  0  0  0
    6.0662   -0.9517   -1.3064 C   0  0  0  0  0  0  0  0  0  0  0  0
    7.0847   -1.2471   -2.2008 C   0  0  0  0  0  0  0  0  0  0  0  0
    6.8992   -1.4053   -3.5279 N   0  0  0  0  0  0  0  0  0  0  0  0
    5.6358   -1.2615   -3.9785 C   0  0  0  0  0  0  0  0  0  0  0  0
    4.5523   -0.9671   -3.1640 C   0  0  0  0  0  0  0  0  0  0  0  0
    3.3582   -1.5808    0.1708 C   0  0  0  0  0  0  0  0  0  0  0  0
    2.1881   -1.2133    1.0857 C   0  0  0  0  0  0  0  0  0  0  0  0
   -0.9057   -0.3287    1.8953 N   0  0  0  0  0  0  0  0  0  0  0  0
   -2.8993    0.9503   -1.3872 C   0  0  0  0  0  0  0  0  0  0  0  0
   -2.7857    0.8719   -2.7770 C   0  0  0  0  0  0  0  0  0  0  0  0
   -2.7662   -0.4233   -4.4958 H   0  0  0  0  0  0  0  0  0  0  0  0
   -3.0877   -2.4882   -3.1615 H   0  0  0  0  0  0  0  0  0  0  0  0
   -3.2891   -2.3677   -0.7130 H   0  0  0  0  0  0  0  0  0  0  0  0
   -3.2506   -1.2144    1.2728 H   0  0  0  0  0  0  0  0  0  0  0  0
   -3.7774    0.1645    3.5757 H   0  0  0  0  0  0  0  0  0  0  0  0
   -5.7363    1.2140    4.6211 H   0  0  0  0  0  0  0  0  0  0  0  0
   -7.5486    2.1634    3.2185 H   0  0  0  0  0  0  0  0  0  0  0  0
   -7.3890    2.0397    0.7475 H   0  0  0  0  0  0  0  0  0  0  0  0
   -5.4608    0.9918   -0.3262 H   0  0  0  0  0  0  0  0  0  0  0  0
    1.3758   -0.3951    3.4971 H   0  0  0  0  0  0  0  0  0  0  0  0
    1.6847    1.3053    3.2821 H   0  0  0  0  0  0  0  0  0  0  0  0
    1.6706    1.2911    0.1433 H   0  0  0  0  0  0  0  0  0  0  0  0
    2.7699    2.1128    1.2578 H   0  0  0  0  0  0  0  0  0  0  0  0
    4.6909    0.9085    0.3985 H   0  0  0  0  0  0  0  0  0  0  0  0
    3.8355    1.6749   -0.9340 H   0  0  0  0  0  0  0  0  0  0  0  0
    2.6882   -0.4240   -1.4940 H   0  0  0  0  0  0  0  0  0  0  0  0
    6.2965   -0.8398   -0.2522 H   0  0  0  0  0  0  0  0  0  0  0  0
    8.1087   -1.3679   -1.8584 H   0  0  0  0  0  0  0  0  0  0  0  0
    5.5095   -1.3934   -5.0494 H   0  0  0  0  0  0  0  0  0  0  0  0
    3.5646   -0.8673   -3.6025 H   0  0  0  0  0  0  0  0  0  0  0  0
    4.2562   -1.7394    0.7823 H   0  0  0  0  0  0  0  0  0  0  0  0
    3.1465   -2.5358   -0.3262 H   0  0  0  0  0  0  0  0  0  0  0  0
    2.0919   -1.9968    1.8466 H   0  0  0  0  0  0  0  0  0  0  0  0
    1.2623   -1.2110    0.4980 H   0  0  0  0  0  0  0  0  0  0  0  0
   -2.8559    1.9320   -0.9164 H   0  0  0  0  0  0  0  0  0  0  0  0
   -2.6479    1.7785   -3.3605 H   0  0  0  0  0  0  0  0  0  0  0  0
  1  2  2  0
  2  3  1  0
  3  4  2  0
  4  5  1  0
  5  6  1  0
  6  7  2  0
  7  8  1  0
  8  9  2  0
  9 10  1  0
 10 11  2  0
  5 12  1  0
 12 13  2  0
 13 14  1  0
 14 15  1  0
 15 16  1  0
 16 17  1  0
 17 18  1  0
 18 19  1  0
 19 20  1  0
 20 21  1  0
 21 22  2  0
 22 23  1  0
 23 24  2  0
 24 25  1  0
 25 26  2  0
 20 27  1  0
 27 28  1  0
 15 29  2  0
  4 30  1  0
 30 31  2  0
 31  1  1  0
 11  6  1  0
 29 12  1  0
 28 17  1  0
 26 21  1  0
  1 32  1  0
  2 33  1  0
  3 34  1  0
  5 35  1  0
  7 36  1  0
  8 37  1  0
  9 38  1  0
 10 39  1  0
 11 40  1  0
 16 41  1  0
 16 42  1  0
 18 43  1  0
 18 44  1  0
 19 45  1  0
 19 46  1  0
 20 47  1  0
 22 48  1  0
 23 49  1  0
 25 50  1  0
 26 51  1  0
 27 52  1  0
 27 53  1  0
 28 54  1  0
 28 55  1  0
 30 56  1  0
 31 57  1  0
M  END
$$$$
