
     RDKit          3D

 56 59  0  0  0  0  0  0  0  0999 V2000
    7.5691   -0.6703   -1.1753 C   0  0  0  0  0  0  0  0  0  0  0  0
    7.5723    0.2312   -0.0733 O   0  0  0  0  0  0  0  0  0  0  0  0
    6.3071    0.5263    0.3916 C   0  0  0  0  0  0  0  0  0  0  0  0
    6.2371    1.3943    1.4655 C   0  0  0  0  0  0  0  0  0  0  0  0
    4.9803    1.7205    1.9677 C   0  0  0  0  0  0  0  0  0  0  0  0
    3.8275    1.1726    1.3882 C   0  0  0  0  0  0  0  0  0  0  0  0
    2.5107    1.5601    1.9727 C   0  0  0  0  0  0  0  0  0  0  0  0
    2.4634    2.3996    2.8678 O   0  0  0  0  0  0  0  0  0  0  0  0
    1.3818    0.9519    1.4809 N   0  0  0  0  0  0  0  0  0  0  0  0
    0.0483    1.3274    1.9101 C   0  0  0  0  0  0  0  0  0  0  0  0
   -0.4230    2.6111    1.1830 C   0  0  0  0  0  0  0  0  0  0  0  0
   -0.8685    2.3327   -0.2689 C   0  0  0  0  0  0  0  0  0  0  0  0
   -2.0615    1.3569   -0.3213 C   0  0  0  0  0  0  0  0  0  0  0  0
   -1.8087    0.2019    0.5857 C   0  0  0  0  0  0  0  0  0  0  0  0
   -0.8494    0.1826    1.5819 C   0  0  0  0  0  0  0  0  0  0  0  0
   -0.8736   -1.1297    2.0712 C   0  0  0  0  0  0  0  0  0  0  0  0
   -1.7374   -1.9006    1.4107 N   0  0  0  0  0  0  0  0  0  0  0  0
   -2.3772   -1.0601    0.5479 N   0  0  0  0  0  0  0  0  0  0  0  0
   -3.3725   -1.5777   -0.3268 C   0  0  0  0  0  0  0  0  0  0  0  0
   -3.1019   -2.8328   -0.9024 C   0  0  0  0  0  0  0  0  0  0  0  0
   -3.9652   -3.3810   -1.8446 C   0  0  0  0  0  0  0  0  0  0  0  0
   -5.1107   -2.6865   -2.2162 C   0  0  0  0  0  0  0  0  0  0  0  0
   -5.4291   -1.4538   -1.6228 C   0  0  0  0  0  0  0  0  0  0  0  0
   -6.7201   -0.7855   -2.0221 C   0  0  0  0  0  0  0  0  0  0  0  0
   -4.5792   -0.9058   -0.6265 C   0  0  0  0  0  0  0  0  0  0  0  0
   -5.0637    0.2935    0.1482 C   0  0  0  0  0  0  0  0  0  0  0  0
    4.0088    0.3078    0.3064 C   0  0  0  0  0  0  0  0  0  0  0  0
    2.8936   -0.2378   -0.3033 O   0  0  0  0  0  0  0  0  0  0  0  0
    3.1982   -1.1478   -1.3574 C   0  0  0  0  0  0  0  0  0  0  0  0
    5.2252   -0.0215   -0.1986 N   0  0  0  0  0  0  0  0  0  0  0  0
    7.0468   -0.2412   -2.0376 H   0  0  0  0  0  0  0  0  0  0  0  0
    7.1379   -1.6378   -0.8954 H   0  0  0  0  0  0  0  0  0  0  0  0
    8.6093   -0.8421   -1.4684 H   0  0  0  0  0  0  0  0  0  0  0  0
    7.1389    1.8083    1.9028 H   0  0  0  0  0  0  0  0  0  0  0  0
    4.9034    2.4019    2.8129 H   0  0  0  0  0  0  0  0  0  0  0  0
    1.4681    0.3377    0.6768 H   0  0  0  0  0  0  0  0  0  0  0  0
    0.0645    1.5071    2.9913 H   0  0  0  0  0  0  0  0  0  0  0  0
    0.3675    3.3704    1.1841 H   0  0  0  0  0  0  0  0  0  0  0  0
   -1.2753    3.0377    1.7286 H   0  0  0  0  0  0  0  0  0  0  0  0
   -1.1493    3.2734   -0.7562 H   0  0  0  0  0  0  0  0  0  0  0  0
   -0.0254    1.9183   -0.8363 H   0  0  0  0  0  0  0  0  0  0  0  0
   -2.2258    1.0313   -1.3534 H   0  0  0  0  0  0  0  0  0  0  0  0
   -2.9461    1.9039    0.0155 H   0  0  0  0  0  0  0  0  0  0  0  0
   -0.2610   -1.5721    2.8469 H   0  0  0  0  0  0  0  0  0  0  0  0
   -2.1952   -3.3775   -0.6421 H   0  0  0  0  0  0  0  0  0  0  0  0
   -3.7388   -4.3438   -2.2948 H   0  0  0  0  0  0  0  0  0  0  0  0
   -5.7725   -3.1259   -2.9600 H   0  0  0  0  0  0  0  0  0  0  0  0
   -7.4799   -0.9409   -1.2499 H   0  0  0  0  0  0  0  0  0  0  0  0
   -6.5701    0.2873   -2.1788 H   0  0  0  0  0  0  0  0  0  0  0  0
   -7.1037   -1.1917   -2.9644 H   0  0  0  0  0  0  0  0  0  0  0  0
   -4.4994    0.4575    1.0696 H   0  0  0  0  0  0  0  0  0  0  0  0
   -6.1000    0.1421    0.4706 H   0  0  0  0  0  0  0  0  0  0  0  0
   -5.0192    1.1930   -0.4721 H   0  0  0  0  0  0  0  0  0  0  0  0
    2.2505   -1.5311   -1.7479 H   0  0  0  0  0  0  0  0  0  0  0  0
    3.7766   -2.0024   -0.9897 H   0  0  0  0  0  0  0  0  0  0  0  0
    3.7167   -0.6425   -2.1794 H   0  0  0  0  0  0  0  0  0  0  0  0
  1  2  1  0
  2  3  1  0
  3  4  2  0
  4  5  1  0
  5  6  2  0
  6  7  1  0
  7  8  2  0
  7  9  1  0
  9 10  1  0
 10 11  1  0
 11 12  1  0
 12 13  1  0
 13 14  1  0
 14 15  2  0
 15 16  1  0
 16 17  2  0
 17 18  1  0
 18 19  1  0
 19 20  2  0
 20 21  1  0
 21 22  2  0
 22 23  1  0
 23 24  1  0
 23 25  2  0
 25 26  1  0
  6 27  1  0
 27 28  1  0
 28 29  1  0
 27 30  2  0
 30  3  1  0
 15 10  1  0
 25 19  1  0
 18 14  1  0
  1 31  1  0
  1 32  1  0
  1 33  1  0
  4 34  1  0
  5 35  1  0
  9 36  1  0
 10 37  1  0
 11 38  1  0
 11 39  1  0
 12 40  1  0
 12 41  1  0
 13 42  1  0
 13 43  1  0
 16 44  1  0
 20 45  1  0
 21 46  1  0
 22 47  1  0
 24 48  1  0
 24 49  1  0
 24 50  1  0
 26 51  1  0
 26 52  1  0
 26 53  1  0
 29 54  1  0
 29 55  1  0
 29 56  1  0
M  END
$$$$
