
     RDKit          3D

 49 51  0  0  0  0  0  0  0  0999 V2000
    6.0916    1.3271   -1.7631 C   0  0  0  0  0  0  0  0  0  0  0  0
    5.4679    2.3027   -2.7502 C   0  0  0  0  0  0  0  0  0  0  0  0
    4.2301    3.3823   -1.9690 S   0  0  0  0  0  0  0  0  0  0  0  0
    2.9558    2.2323   -1.6482 C   0  0  0  0  0  0  0  0  0  0  0  0
    2.6123    1.3767   -2.5502 N   0  0  0  0  0  0  0  0  0  0  0  0
    1.5936    0.5029   -2.2496 C   0  0  0  0  0  0  0  0  0  0  0  0
    1.2057   -0.3416   -3.0425 O   0  0  0  0  0  0  0  0  0  0  0  0
    0.9292    0.6026   -0.9139 C   0  0  0  0  0  0  0  0  0  0  0  0
    1.3402    1.5467   -0.0448 C   0  0  0  0  0  0  0  0  0  0  0  0
    2.3768    2.3444   -0.4302 N   0  0  0  0  0  0  0  0  0  0  0  0
    0.7705    1.6914    1.1989 N   0  0  0  0  0  0  0  0  0  0  0  0
   -0.3965    1.1575    1.4195 C   0  0  0  0  0  0  0  0  0  0  0  0
   -1.0144    1.3563    2.7854 C   0  0  0  0  0  0  0  0  0  0  0  0
   -1.1752    0.4264    0.3442 C   0  0  0  0  0  0  0  0  0  0  0  0
   -2.3024   -0.4431    0.8426 C   0  0  0  0  0  0  0  0  0  0  0  0
   -2.1805   -1.3950    1.5993 O   0  0  0  0  0  0  0  0  0  0  0  0
   -3.4914    0.0205    0.3606 O   0  0  0  0  0  0  0  0  0  0  0  0
   -4.6763   -0.6827    0.7863 C   0  0  0  0  0  0  0  0  0  0  0  0
   -5.0298   -0.2998    2.2210 C   0  0  0  0  0  0  0  0  0  0  0  0
   -5.7985   -0.2669   -0.1617 C   0  0  0  0  0  0  0  0  0  0  0  0
   -0.2154   -0.3222   -0.6007 C   0  0  0  0  0  0  0  0  0  0  0  0
    0.3016   -1.6763   -0.1265 C   0  0  0  0  0  0  0  0  0  0  0  0
    0.9675   -1.8484    1.0948 C   0  0  0  0  0  0  0  0  0  0  0  0
    1.4127   -3.1148    1.4504 C   0  0  0  0  0  0  0  0  0  0  0  0
    1.2573   -4.2095    0.6793 N   0  0  0  0  0  0  0  0  0  0  0  0
    0.6310   -4.0279   -0.5030 C   0  0  0  0  0  0  0  0  0  0  0  0
    0.1464   -2.8035   -0.9445 C   0  0  0  0  0  0  0  0  0  0  0  0
    6.8682    0.7549   -2.2658 H   0  0  0  0  0  0  0  0  0  0  0  0
    6.5575    1.8426   -0.9058 H   0  0  0  0  0  0  0  0  0  0  0  0
    5.3674    0.6029   -1.3864 H   0  0  0  0  0  0  0  0  0  0  0  0
    6.2535    2.9498   -3.1620 H   0  0  0  0  0  0  0  0  0  0  0  0
    5.0320    1.7588   -3.5917 H   0  0  0  0  0  0  0  0  0  0  0  0
    2.6641    3.0601    0.2117 H   0  0  0  0  0  0  0  0  0  0  0  0
   -2.0224    1.7721    2.6752 H   0  0  0  0  0  0  0  0  0  0  0  0
   -0.4134    2.0490    3.3875 H   0  0  0  0  0  0  0  0  0  0  0  0
   -1.0618    0.3969    3.3089 H   0  0  0  0  0  0  0  0  0  0  0  0
   -1.6369    1.2430   -0.2347 H   0  0  0  0  0  0  0  0  0  0  0  0
   -4.5199   -1.7674    0.6992 H   0  0  0  0  0  0  0  0  0  0  0  0
   -4.2533   -0.6299    2.9259 H   0  0  0  0  0  0  0  0  0  0  0  0
   -5.9808   -0.7501    2.5237 H   0  0  0  0  0  0  0  0  0  0  0  0
   -5.1028    0.7917    2.3356 H   0  0  0  0  0  0  0  0  0  0  0  0
   -6.7324   -0.7865    0.0755 H   0  0  0  0  0  0  0  0  0  0  0  0
   -5.9736    0.8151   -0.0995 H   0  0  0  0  0  0  0  0  0  0  0  0
   -5.5315   -0.4813   -1.2048 H   0  0  0  0  0  0  0  0  0  0  0  0
   -0.7937   -0.4915   -1.5197 H   0  0  0  0  0  0  0  0  0  0  0  0
    1.1501   -1.0258    1.7772 H   0  0  0  0  0  0  0  0  0  0  0  0
    1.9236   -3.2813    2.3962 H   0  0  0  0  0  0  0  0  0  0  0  0
    0.5263   -4.9225   -1.1117 H   0  0  0  0  0  0  0  0  0  0  0  0
   -0.3300   -2.7391   -1.9189 H   0  0  0  0  0  0  0  0  0  0  0  0
  1  2  1  0
  2  3  1  0
  3  4  1  0
  4  5  2  0
  5  6  1  0
  6  7  2  0
  6  8  1  0
  8  9  2  0
  9 10  1  0
  9 11  1  0
 11 12  2  0
 12 13  1  0
 12 14  1  0
 14 15  1  0
 15 16  2  0
 15 17  1  0
 17 18  1  0
 18 19  1  0
 18 20  1  0
 14 21  1  0
 21 22  1  0
 22 23  2  0
 23 24  1  0
 24 25  2  0
 25 26  1  0
 26 27  2  0
 10  4  1  0
 27 22  1  0
 21  8  1  0
  1 28  1  0
  1 29  1  0
  1 30  1  0
  2 31  1  0
  2 32  1  0
 10 33  1  0
 13 34  1  0
 13 35  1  0
 13 36  1  0
 14 37  1  0
 18 38  1  0
 19 39  1  0
 19 40  1  0
 19 41  1  0
 20 42  1  0
 20 43  1  0
 20 44  1  0
 21 45  1  0
 23 46  1  0
 24 47  1  0
 26 48  1  0
 27 49  1  0
M  END
$$$$
