
     RDKit          3D

 54 58  0  0  0  0  0  0  0  0999 V2000
   -3.3097   -3.0978    2.0654 C   0  0  0  0  0  0  0  0  0  0  0  0
   -4.0586   -3.3284    0.7592 C   0  0  0  0  0  0  0  0  0  0  0  0
   -4.3307   -2.0198   -0.0090 C   0  0  0  0  0  0  0  0  0  0  0  0
   -5.2067   -2.2858   -1.2381 C   0  0  0  0  0  0  0  0  0  0  0  0
   -3.0949   -1.3143   -0.3837 N   0  0  0  0  0  0  0  0  0  0  0  0
   -2.1648   -1.9197   -1.2250 C   0  0  0  0  0  0  0  0  0  0  0  0
   -1.0412   -1.4073   -1.6277 N   0  0  0  0  0  0  0  0  0  0  0  0
   -0.8164   -0.1668   -1.1378 C   0  0  0  0  0  0  0  0  0  0  0  0
   -1.6422    0.5653   -0.3109 C   0  0  0  0  0  0  0  0  0  0  0  0
   -2.8897   -0.0157    0.1171 C   0  0  0  0  0  0  0  0  0  0  0  0
   -3.6871    0.5698    0.8429 O   0  0  0  0  0  0  0  0  0  0  0  0
   -1.0184    1.8042   -0.0713 C   0  0  0  0  0  0  0  0  0  0  0  0
   -1.4043    2.8814    0.6555 N   0  0  0  0  0  0  0  0  0  0  0  0
   -0.5364    3.9046    0.6445 C   0  0  0  0  0  0  0  0  0  0  0  0
   -0.8582    5.0456    1.3681 C   0  0  0  0  0  0  0  0  0  0  0  0
   -0.0091    6.1524    1.4052 C   0  0  0  0  0  0  0  0  0  0  0  0
    1.1877    6.1192    0.7037 C   0  0  0  0  0  0  0  0  0  0  0  0
    1.5245    4.9793   -0.0280 C   0  0  0  0  0  0  0  0  0  0  0  0
    0.6899    3.8696   -0.0740 C   0  0  0  0  0  0  0  0  0  0  0  0
    1.0822    2.8078   -0.7997 N   0  0  0  0  0  0  0  0  0  0  0  0
    0.1912    1.7949   -0.7627 C   0  0  0  0  0  0  0  0  0  0  0  0
    0.3100    0.5775   -1.3886 N   0  0  0  0  0  0  0  0  0  0  0  0
    1.4350    0.1716   -2.2126 C   0  0  0  0  0  0  0  0  0  0  0  0
    2.4862   -0.5424   -1.3991 C   0  0  0  0  0  0  0  0  0  0  0  0
    2.4680   -1.9369   -1.2764 C   0  0  0  0  0  0  0  0  0  0  0  0
    3.4354   -2.5914   -0.5102 C   0  0  0  0  0  0  0  0  0  0  0  0
    4.4309   -1.8693    0.1510 C   0  0  0  0  0  0  0  0  0  0  0  0
    5.3122   -2.6328    0.8660 O   0  0  0  0  0  0  0  0  0  0  0  0
    6.3290   -1.9400    1.5786 C   0  0  0  0  0  0  0  0  0  0  0  0
    4.4502   -0.4794    0.0399 C   0  0  0  0  0  0  0  0  0  0  0  0
    3.4833    0.1791   -0.7283 C   0  0  0  0  0  0  0  0  0  0  0  0
   -3.8526   -2.4001    2.7109 H   0  0  0  0  0  0  0  0  0  0  0  0
   -2.3079   -2.6953    1.8869 H   0  0  0  0  0  0  0  0  0  0  0  0
   -3.1981   -4.0428    2.6065 H   0  0  0  0  0  0  0  0  0  0  0  0
   -5.0149   -3.8134    0.9913 H   0  0  0  0  0  0  0  0  0  0  0  0
   -3.4917   -4.0357    0.1433 H   0  0  0  0  0  0  0  0  0  0  0  0
   -4.9200   -1.3757    0.6546 H   0  0  0  0  0  0  0  0  0  0  0  0
   -5.4037   -1.3547   -1.7806 H   0  0  0  0  0  0  0  0  0  0  0  0
   -4.7334   -2.9841   -1.9358 H   0  0  0  0  0  0  0  0  0  0  0  0
   -6.1701   -2.7133   -0.9406 H   0  0  0  0  0  0  0  0  0  0  0  0
   -2.4424   -2.9298   -1.5627 H   0  0  0  0  0  0  0  0  0  0  0  0
   -1.7969    5.0711    1.9177 H   0  0  0  0  0  0  0  0  0  0  0  0
   -0.2866    7.0322    1.9801 H   0  0  0  0  0  0  0  0  0  0  0  0
    1.8595    6.9736    0.7223 H   0  0  0  0  0  0  0  0  0  0  0  0
    2.4627    4.9556   -0.5774 H   0  0  0  0  0  0  0  0  0  0  0  0
    1.0598   -0.4675   -3.0204 H   0  0  0  0  0  0  0  0  0  0  0  0
    1.8539    1.0630   -2.6942 H   0  0  0  0  0  0  0  0  0  0  0  0
    1.6951   -2.5232   -1.7696 H   0  0  0  0  0  0  0  0  0  0  0  0
    3.4094   -3.6747   -0.4232 H   0  0  0  0  0  0  0  0  0  0  0  0
    6.9865   -1.3922    0.8955 H   0  0  0  0  0  0  0  0  0  0  0  0
    6.9380   -2.6846    2.1003 H   0  0  0  0  0  0  0  0  0  0  0  0
    5.8988   -1.2740    2.3339 H   0  0  0  0  0  0  0  0  0  0  0  0
    5.1990    0.1252    0.5403 H   0  0  0  0  0  0  0  0  0  0  0  0
    3.5083    1.2660   -0.7927 H   0  0  0  0  0  0  0  0  0  0  0  0
  1  2  1  0
  2  3  1  0
  3  4  1  0
  3  5  1  0
  5  6  1  0
  6  7  2  0
  7  8  1  0
  8  9  2  0
  9 10  1  0
 10 11  2  0
  9 12  1  0
 12 13  2  0
 13 14  1  0
 14 15  2  0
 15 16  1  0
 16 17  2  0
 17 18  1  0
 18 19  2  0
 19 20  1  0
 20 21  2  0
 21 22  1  0
 22 23  1  0
 23 24  1  0
 24 25  2  0
 25 26  1  0
 26 27  2  0
 27 28  1  0
 28 29  1  0
 27 30  1  0
 30 31  2  0
 10  5  1  0
 21 12  1  0
 31 24  1  0
 22  8  1  0
 19 14  1  0
  1 32  1  0
  1 33  1  0
  1 34  1  0
  2 35  1  0
  2 36  1  0
  3 37  1  0
  4 38  1  0
  4 39  1  0
  4 40  1  0
  6 41  1  0
 15 42  1  0
 16 43  1  0
 17 44  1  0
 18 45  1  0
 23 46  1  0
 23 47  1  0
 25 48  1  0
 26 49  1  0
 29 50  1  0
 29 51  1  0
 29 52  1  0
 30 53  1  0
 31 54  1  0
M  END
$$$$
