
     RDKit          3D

 55 57  0  0  0  0  0  0  0  0999 V2000
    7.9227    0.4718   -0.9194 C   0  0  0  0  0  0  0  0  0  0  0  0
    6.9603    0.2612    0.1060 O   0  0  0  0  0  0  0  0  0  0  0  0
    5.6549    0.5128   -0.2115 C   0  0  0  0  0  0  0  0  0  0  0  0
    4.7577    0.3563    0.8447 C   0  0  0  0  0  0  0  0  0  0  0  0
    3.3912    0.5816    0.6611 C   0  0  0  0  0  0  0  0  0  0  0  0
    2.8897    0.9626   -0.5928 C   0  0  0  0  0  0  0  0  0  0  0  0
    1.4018    1.1945   -0.8355 C   0  0  0  0  0  0  0  0  0  0  0  0
    0.7806    2.6030    0.1757 S   0  0  0  0  0  0  0  0  0  0  0  0
   -0.2861    1.7959    1.3661 C   0  0  0  0  0  0  0  0  0  0  0  0
   -0.0109    2.0972    2.7124 C   0  0  0  0  0  0  0  0  0  0  0  0
   -0.8515    1.6585    3.7346 C   0  0  0  0  0  0  0  0  0  0  0  0
   -1.9957    0.9379    3.4205 C   0  0  0  0  0  0  0  0  0  0  0  0
   -2.2901    0.6437    2.0864 C   0  0  0  0  0  0  0  0  0  0  0  0
   -1.4373    1.0429    1.0398 C   0  0  0  0  0  0  0  0  0  0  0  0
   -1.7727    0.6782   -0.3039 N   0  0  0  0  0  0  0  0  0  0  0  0
   -3.1828    0.7055   -0.7177 C   0  0  0  0  0  0  0  0  0  0  0  0
   -3.7837   -0.7108   -0.8720 C   0  0  0  0  0  0  0  0  0  0  0  0
   -5.2519   -0.7111   -1.0489 N   0  0  0  0  0  0  0  0  0  0  0  0
   -5.6344   -0.1452   -2.3455 C   0  0  0  0  0  0  0  0  0  0  0  0
   -5.7607   -2.0832   -0.9460 C   0  0  0  0  0  0  0  0  0  0  0  0
   -0.8486    0.2643   -1.2629 C   0  0  0  0  0  0  0  0  0  0  0  0
   -1.1402    0.1768   -2.4618 O   0  0  0  0  0  0  0  0  0  0  0  0
    0.5737   -0.1009   -0.8051 C   0  0  0  0  0  0  0  0  0  0  0  0
    0.7015   -0.7940    0.4441 O   0  0  0  0  0  0  0  0  0  0  0  0
    0.0553   -1.9842    0.5294 C   0  0  0  0  0  0  0  0  0  0  0  0
    0.2673   -2.6012    1.8775 C   0  0  0  0  0  0  0  0  0  0  0  0
   -0.6358   -2.4788   -0.3479 O   0  0  0  0  0  0  0  0  0  0  0  0
    3.8006    1.1164   -1.6501 C   0  0  0  0  0  0  0  0  0  0  0  0
    5.1706    0.8953   -1.4612 C   0  0  0  0  0  0  0  0  0  0  0  0
    7.7618   -0.2134   -1.7575 H   0  0  0  0  0  0  0  0  0  0  0  0
    7.9234    1.5155   -1.2542 H   0  0  0  0  0  0  0  0  0  0  0  0
    8.9089    0.2568   -0.5000 H   0  0  0  0  0  0  0  0  0  0  0  0
    5.1276    0.0570    1.8230 H   0  0  0  0  0  0  0  0  0  0  0  0
    2.7256    0.4561    1.5121 H   0  0  0  0  0  0  0  0  0  0  0  0
    1.3091    1.5952   -1.8544 H   0  0  0  0  0  0  0  0  0  0  0  0
    0.8566    2.7000    2.9751 H   0  0  0  0  0  0  0  0  0  0  0  0
   -0.6260    1.9061    4.7692 H   0  0  0  0  0  0  0  0  0  0  0  0
   -2.6691    0.6101    4.2096 H   0  0  0  0  0  0  0  0  0  0  0  0
   -3.1914    0.0681    1.8891 H   0  0  0  0  0  0  0  0  0  0  0  0
   -3.7694    1.3083   -0.0140 H   0  0  0  0  0  0  0  0  0  0  0  0
   -3.2319    1.2327   -1.6788 H   0  0  0  0  0  0  0  0  0  0  0  0
   -3.5445   -1.2737    0.0393 H   0  0  0  0  0  0  0  0  0  0  0  0
   -3.2929   -1.2457   -1.6966 H   0  0  0  0  0  0  0  0  0  0  0  0
   -6.7225   -0.1781   -2.4714 H   0  0  0  0  0  0  0  0  0  0  0  0
   -5.1759   -0.6807   -3.1842 H   0  0  0  0  0  0  0  0  0  0  0  0
   -5.3545    0.9106   -2.4130 H   0  0  0  0  0  0  0  0  0  0  0  0
   -6.8516   -2.0972   -1.0387 H   0  0  0  0  0  0  0  0  0  0  0  0
   -5.5290   -2.5056    0.0382 H   0  0  0  0  0  0  0  0  0  0  0  0
   -5.3391   -2.7416   -1.7127 H   0  0  0  0  0  0  0  0  0  0  0  0
    0.9846   -0.7756   -1.5707 H   0  0  0  0  0  0  0  0  0  0  0  0
    0.5473   -3.6503    1.7528 H   0  0  0  0  0  0  0  0  0  0  0  0
    1.0777   -2.0978    2.4111 H   0  0  0  0  0  0  0  0  0  0  0  0
   -0.6530   -2.5189    2.4618 H   0  0  0  0  0  0  0  0  0  0  0  0
    3.4536    1.4125   -2.6387 H   0  0  0  0  0  0  0  0  0  0  0  0
    5.8292    1.0287   -2.3123 H   0  0  0  0  0  0  0  0  0  0  0  0
  1  2  1  0
  2  3  1  0
  3  4  2  0
  4  5  1  0
  5  6  2  0
  6  7  1  0
  7  8  1  0
  8  9  1  0
  9 10  2  0
 10 11  1  0
 11 12  2  0
 12 13  1  0
 13 14  2  0
 14 15  1  0
 15 16  1  0
 16 17  1  0
 17 18  1  0
 18 19  1  0
 18 20  1  0
 15 21  1  0
 21 22  2  0
 21 23  1  0
 23 24  1  0
 24 25  1  0
 25 26  1  0
 25 27  2  0
  6 28  1  0
 28 29  2  0
 29  3  1  0
 23  7  1  0
 14  9  1  0
  1 30  1  0
  1 31  1  0
  1 32  1  0
  4 33  1  0
  5 34  1  0
  7 35  1  0
 10 36  1  0
 11 37  1  0
 12 38  1  0
 13 39  1  0
 16 40  1  0
 16 41  1  0
 17 42  1  0
 17 43  1  0
 19 44  1  0
 19 45  1  0
 19 46  1  0
 20 47  1  0
 20 48  1  0
 20 49  1  0
 23 50  1  0
 26 51  1  0
 26 52  1  0
 26 53  1  0
 28 54  1  0
 29 55  1  0
M  END
$$$$
