
     RDKit          3D

 45 47  0  0  0  0  0  0  0  0999 V2000
   -3.9998    2.5504    1.9316 C   0  0  0  0  0  0  0  0  0  0  0  0
   -3.4181    1.5144    1.1486 O   0  0  0  0  0  0  0  0  0  0  0  0
   -4.2795    0.5849    0.6080 C   0  0  0  0  0  0  0  0  0  0  0  0
   -5.6693    0.5975    0.7612 C   0  0  0  0  0  0  0  0  0  0  0  0
   -6.4478   -0.3983    0.1682 C   0  0  0  0  0  0  0  0  0  0  0  0
   -5.8434   -1.4073   -0.5769 C   0  0  0  0  0  0  0  0  0  0  0  0
   -4.4563   -1.4283   -0.7363 C   0  0  0  0  0  0  0  0  0  0  0  0
   -3.6666   -0.4376   -0.1502 C   0  0  0  0  0  0  0  0  0  0  0  0
   -2.2586   -0.3886   -0.2612 N   0  0  0  0  0  0  0  0  0  0  0  0
   -1.4212   -1.2395   -0.9554 C   0  0  0  0  0  0  0  0  0  0  0  0
   -1.7720   -2.1934   -1.6414 O   0  0  0  0  0  0  0  0  0  0  0  0
    0.0526   -0.8560   -0.8043 C   0  0  0  0  0  0  0  0  0  0  0  0
    0.5220   -1.0335    0.6458 C   0  0  0  0  0  0  0  0  0  0  0  0
    2.0068   -0.7130    0.7936 C   0  0  0  0  0  0  0  0  0  0  0  0
    2.7896   -1.5445   -0.1456 N   0  0  0  0  0  0  0  0  0  0  0  0
    4.4569   -1.6763    0.1887 S   0  0  0  0  0  6  0  0  0  0  0  0
    4.5994   -1.9874    1.5966 O   0  0  0  0  0  0  0  0  0  0  0  0
    5.0805   -2.4943   -0.8280 O   0  0  0  0  0  0  0  0  0  0  0  0
    5.1837   -0.0498    0.0415 C   0  0  0  0  0  0  0  0  0  0  0  0
    5.5494    0.8781    1.0005 C   0  0  0  0  0  0  0  0  0  0  0  0
    6.0934    2.0652    0.4315 C   0  0  0  0  0  0  0  0  0  0  0  0
    6.1275    2.0048   -0.9438 C   0  0  0  0  0  0  0  0  0  0  0  0
    5.5076    0.5249   -1.5371 S   0  0  0  0  0  0  0  0  0  0  0  0
    2.4116   -1.3408   -1.5621 C   0  0  0  0  0  0  0  0  0  0  0  0
    0.9383   -1.6881   -1.7422 C   0  0  0  0  0  0  0  0  0  0  0  0
   -4.5117    2.1423    2.8093 H   0  0  0  0  0  0  0  0  0  0  0  0
   -4.6730    3.1695    1.3296 H   0  0  0  0  0  0  0  0  0  0  0  0
   -3.1891    3.1926    2.2890 H   0  0  0  0  0  0  0  0  0  0  0  0
   -6.1794    1.3645    1.3335 H   0  0  0  0  0  0  0  0  0  0  0  0
   -7.5284   -0.3879    0.2882 H   0  0  0  0  0  0  0  0  0  0  0  0
   -6.4497   -2.1836   -1.0376 H   0  0  0  0  0  0  0  0  0  0  0  0
   -4.0227   -2.2325   -1.3220 H   0  0  0  0  0  0  0  0  0  0  0  0
   -1.8516    0.4019    0.2275 H   0  0  0  0  0  0  0  0  0  0  0  0
    0.1456    0.2010   -1.0897 H   0  0  0  0  0  0  0  0  0  0  0  0
   -0.0497   -0.3890    1.3233 H   0  0  0  0  0  0  0  0  0  0  0  0
    0.3343   -2.0665    0.9679 H   0  0  0  0  0  0  0  0  0  0  0  0
    2.1866    0.3491    0.5915 H   0  0  0  0  0  0  0  0  0  0  0  0
    2.2995   -0.9179    1.8282 H   0  0  0  0  0  0  0  0  0  0  0  0
    5.4355    0.6963    2.0633 H   0  0  0  0  0  0  0  0  0  0  0  0
    6.4493    2.9157    1.0009 H   0  0  0  0  0  0  0  0  0  0  0  0
    6.4936    2.7555   -1.6316 H   0  0  0  0  0  0  0  0  0  0  0  0
    2.5849   -0.3000   -1.8544 H   0  0  0  0  0  0  0  0  0  0  0  0
    3.0015   -1.9891   -2.2173 H   0  0  0  0  0  0  0  0  0  0  0  0
    0.6464   -1.5164   -2.7854 H   0  0  0  0  0  0  0  0  0  0  0  0
    0.7914   -2.7585   -1.5454 H   0  0  0  0  0  0  0  0  0  0  0  0
  1  2  1  0
  2  3  1  0
  3  4  2  0
  4  5  1  0
  5  6  2  0
  6  7  1  0
  7  8  2  0
  8  9  1  0
  9 10  1  0
 10 11  2  0
 10 12  1  0
 12 13  1  0
 13 14  1  0
 14 15  1  0
 15 16  1  0
 16 17  2  0
 16 18  2  0
 16 19  1  0
 19 20  2  0
 20 21  1  0
 21 22  2  0
 22 23  1  0
 15 24  1  0
 24 25  1  0
  8  3  1  0
 25 12  1  0
 23 19  1  0
  1 26  1  0
  1 27  1  0
  1 28  1  0
  4 29  1  0
  5 30  1  0
  6 31  1  0
  7 32  1  0
  9 33  1  0
 12 34  1  0
 13 35  1  0
 13 36  1  0
 14 37  1  0
 14 38  1  0
 20 39  1  0
 21 40  1  0
 22 41  1  0
 24 42  1  0
 24 43  1  0
 25 44  1  0
 25 45  1  0
M  END
$$$$
