
     RDKit          3D

 48 50  0  0  0  0  0  0  0  0999 V2000
   -5.8766   -2.5612    1.6608 C   0  0  0  0  0  0  0  0  0  0  0  0
   -4.3871   -2.4063    1.3804 C   0  0  0  0  0  0  0  0  0  0  0  0
   -4.0946   -1.5318    0.1430 C   0  0  0  0  0  0  0  0  0  0  0  0
   -2.6731   -1.5319   -0.1671 N   0  0  0  0  0  0  0  0  0  0  0  0
   -2.0709   -2.5911   -0.8232 C   0  0  0  0  0  0  0  0  0  0  0  0
   -2.7186   -3.5601   -1.2125 O   0  0  0  0  0  0  0  0  0  0  0  0
   -0.6169   -2.4684   -1.0054 C   0  0  0  0  0  0  0  0  0  0  0  0
    0.2300   -1.3524   -0.7630 C   0  0  0  0  0  0  0  0  0  0  0  0
    1.4925   -1.7854   -1.0893 C   0  0  0  0  0  0  0  0  0  0  0  0
    2.8416   -1.1742   -1.0877 C   0  0  0  0  0  0  0  0  0  0  0  0
    2.7391    0.0464   -0.3586 O   0  0  0  0  0  0  0  0  0  0  0  0
    3.8499    0.8413   -0.2704 C   0  0  0  0  0  0  0  0  0  0  0  0
    5.1114    0.5062   -0.7686 C   0  0  0  0  0  0  0  0  0  0  0  0
    6.1913    1.3898   -0.6272 C   0  0  0  0  0  0  0  0  0  0  0  0
    6.0223    2.6173    0.0124 C   0  0  0  0  0  0  0  0  0  0  0  0
    6.9905    3.5612    0.2111 O   0  0  0  0  0  0  0  0  0  0  0  0
    8.2918    3.2690   -0.2833 C   0  0  0  0  0  0  0  0  0  0  0  0
    4.7660    2.9554    0.5145 C   0  0  0  0  0  0  0  0  0  0  0  0
    3.6896    2.0763    0.3763 C   0  0  0  0  0  0  0  0  0  0  0  0
    2.1570    2.5578    1.0205 Cl  0  0  0  0  0  0  0  0  0  0  0  0
    1.4199   -3.0730   -1.5122 O   0  0  0  0  0  0  0  0  0  0  0  0
    0.1101   -3.5015   -1.4670 N   0  0  0  0  0  0  0  0  0  0  0  0
   -4.5581   -0.0930    0.2790 C   0  0  0  0  0  0  0  0  0  0  0  0
   -4.2416    0.6925    1.3944 C   0  0  0  0  0  0  0  0  0  0  0  0
   -4.6834    2.0067    1.4351 C   0  0  0  0  0  0  0  0  0  0  0  0
   -5.4002    2.5887    0.4521 N   0  0  0  0  0  0  0  0  0  0  0  0
   -5.6888    1.8234   -0.6207 C   0  0  0  0  0  0  0  0  0  0  0  0
   -5.2936    0.5011   -0.7536 C   0  0  0  0  0  0  0  0  0  0  0  0
   -6.3978   -2.9757    0.7917 H   0  0  0  0  0  0  0  0  0  0  0  0
   -6.3404   -1.6042    1.9174 H   0  0  0  0  0  0  0  0  0  0  0  0
   -6.0309   -3.2425    2.5036 H   0  0  0  0  0  0  0  0  0  0  0  0
   -3.9670   -3.4081    1.2258 H   0  0  0  0  0  0  0  0  0  0  0  0
   -3.8875   -2.0095    2.2723 H   0  0  0  0  0  0  0  0  0  0  0  0
   -4.6134   -1.9904   -0.7097 H   0  0  0  0  0  0  0  0  0  0  0  0
   -2.1057   -0.7960    0.2256 H   0  0  0  0  0  0  0  0  0  0  0  0
   -0.0267   -0.3666   -0.4054 H   0  0  0  0  0  0  0  0  0  0  0  0
    3.1500   -0.9816   -2.1217 H   0  0  0  0  0  0  0  0  0  0  0  0
    3.5500   -1.8504   -0.5956 H   0  0  0  0  0  0  0  0  0  0  0  0
    5.2995   -0.4375   -1.2707 H   0  0  0  0  0  0  0  0  0  0  0  0
    7.1540    1.0839   -1.0268 H   0  0  0  0  0  0  0  0  0  0  0  0
    8.7129    2.3883    0.2131 H   0  0  0  0  0  0  0  0  0  0  0  0
    8.2825    3.1428   -1.3713 H   0  0  0  0  0  0  0  0  0  0  0  0
    8.9364    4.1224   -0.0519 H   0  0  0  0  0  0  0  0  0  0  0  0
    4.6309    3.9103    1.0164 H   0  0  0  0  0  0  0  0  0  0  0  0
   -3.6627    0.3012    2.2241 H   0  0  0  0  0  0  0  0  0  0  0  0
   -4.4621    2.6455    2.2859 H   0  0  0  0  0  0  0  0  0  0  0  0
   -6.2640    2.3163   -1.3998 H   0  0  0  0  0  0  0  0  0  0  0  0
   -5.5575   -0.0507   -1.6508 H   0  0  0  0  0  0  0  0  0  0  0  0
  1  2  1  0
  2  3  1  0
  3  4  1  0
  4  5  1  0
  5  6  2  0
  5  7  1  0
  7  8  1  0
  8  9  2  0
  9 10  1  0
 10 11  1  0
 11 12  1  0
 12 13  2  0
 13 14  1  0
 14 15  2  0
 15 16  1  0
 16 17  1  0
 15 18  1  0
 18 19  2  0
 19 20  1  0
  9 21  1  0
 21 22  1  0
  3 23  1  0
 23 24  2  0
 24 25  1  0
 25 26  2  0
 26 27  1  0
 27 28  2  0
 22  7  2  0
 28 23  1  0
 19 12  1  0
  1 29  1  0
  1 30  1  0
  1 31  1  0
  2 32  1  0
  2 33  1  0
  3 34  1  0
  4 35  1  0
  8 36  1  0
 10 37  1  0
 10 38  1  0
 13 39  1  0
 14 40  1  0
 17 41  1  0
 17 42  1  0
 17 43  1  0
 18 44  1  0
 24 45  1  0
 25 46  1  0
 27 47  1  0
 28 48  1  0
M  END
$$$$
