
     RDKit          3D

 55 57  0  0  0  0  0  0  0  0999 V2000
   -0.4103   -2.5493   -3.5246 C   0  0  0  0  0  0  0  0  0  0  0  0
    0.2498   -2.5459   -2.1573 C   0  0  0  0  0  0  0  0  0  0  0  0
   -0.5925   -1.9346   -1.1847 O   0  0  0  0  0  0  0  0  0  0  0  0
   -0.4851   -0.5073   -1.1450 C   0  0  0  0  0  0  0  0  0  0  0  0
    0.7797   -0.0875   -0.6068 O   0  0  0  0  0  0  0  0  0  0  0  0
    0.9120   -0.2686    0.7609 C   0  0  0  0  0  0  0  0  0  0  0  0
    2.3093   -0.2537    1.3354 C   0  0  0  0  0  0  0  0  0  0  0  0
    2.5121   -0.3778    2.5366 O   0  0  0  0  0  0  0  0  0  0  0  0
    3.2519   -0.0843    0.3407 N   0  0  0  0  0  0  0  0  0  0  0  0
    4.6514   -0.0252    0.4703 C   0  0  0  0  0  0  0  0  0  0  0  0
    5.3955    0.1507   -0.7038 C   0  0  0  0  0  0  0  0  0  0  0  0
    6.7905    0.2183   -0.6611 C   0  0  0  0  0  0  0  0  0  0  0  0
    7.4547    0.1117    0.5574 C   0  0  0  0  0  0  0  0  0  0  0  0
    6.7233   -0.0632    1.7298 C   0  0  0  0  0  0  0  0  0  0  0  0
    5.3268   -0.1321    1.6869 C   0  0  0  0  0  0  0  0  0  0  0  0
   -0.1285   -0.4609    1.5879 C   0  0  0  0  0  0  0  0  0  0  0  0
   -1.5588   -0.4441    1.1153 C   0  0  0  0  0  0  0  0  0  0  0  0
   -2.4433    0.3562    2.0690 C   0  0  0  0  0  0  0  0  0  0  0  0
   -2.1892    1.7102    2.3474 C   0  0  0  0  0  0  0  0  0  0  0  0
   -3.0141    2.4269    3.2176 C   0  0  0  0  0  0  0  0  0  0  0  0
   -4.0998    1.7949    3.8182 C   0  0  0  0  0  0  0  0  0  0  0  0
   -5.2178    2.7648    4.9940 Br  0  0  0  0  0  0  0  0  0  0  0  0
   -4.3664    0.4531    3.5596 C   0  0  0  0  0  0  0  0  0  0  0  0
   -3.5398   -0.2632    2.6906 C   0  0  0  0  0  0  0  0  0  0  0  0
   -1.6527    0.0908   -0.3372 C   0  0  0  0  0  0  0  0  0  0  0  0
   -3.0186   -0.2328   -0.9884 C   0  0  0  0  0  0  0  0  0  0  0  0
   -3.7023    0.9883   -1.6211 C   0  0  0  0  0  0  0  0  0  0  0  0
   -2.9244    1.6580   -2.7483 C   0  0  0  0  0  0  0  0  0  0  0  0
   -2.5644    0.7009   -3.7325 O   0  0  0  0  0  0  0  0  0  0  0  0
    0.1895   -3.1184   -4.2407 H   0  0  0  0  0  0  0  0  0  0  0  0
   -0.5323   -1.5336   -3.9115 H   0  0  0  0  0  0  0  0  0  0  0  0
   -1.4099   -2.9926   -3.4686 H   0  0  0  0  0  0  0  0  0  0  0  0
    0.4032   -3.5820   -1.8382 H   0  0  0  0  0  0  0  0  0  0  0  0
    1.2342   -2.0662   -2.1907 H   0  0  0  0  0  0  0  0  0  0  0  0
   -0.5298   -0.1114   -2.1643 H   0  0  0  0  0  0  0  0  0  0  0  0
    2.8723    0.0034   -0.5949 H   0  0  0  0  0  0  0  0  0  0  0  0
    4.9002    0.2385   -1.6670 H   0  0  0  0  0  0  0  0  0  0  0  0
    7.3570    0.3535   -1.5785 H   0  0  0  0  0  0  0  0  0  0  0  0
    8.5395    0.1636    0.5955 H   0  0  0  0  0  0  0  0  0  0  0  0
    7.2360   -0.1474    2.6848 H   0  0  0  0  0  0  0  0  0  0  0  0
    4.7957   -0.2680    2.6237 H   0  0  0  0  0  0  0  0  0  0  0  0
    0.0441   -0.6322    2.6492 H   0  0  0  0  0  0  0  0  0  0  0  0
   -1.8960   -1.4903    1.1310 H   0  0  0  0  0  0  0  0  0  0  0  0
   -1.3384    2.2161    1.8956 H   0  0  0  0  0  0  0  0  0  0  0  0
   -2.7972    3.4716    3.4230 H   0  0  0  0  0  0  0  0  0  0  0  0
   -5.2102   -0.0454    4.0289 H   0  0  0  0  0  0  0  0  0  0  0  0
   -3.7605   -1.3117    2.5002 H   0  0  0  0  0  0  0  0  0  0  0  0
   -1.5072    1.1793   -0.3116 H   0  0  0  0  0  0  0  0  0  0  0  0
   -3.7137   -0.6410   -0.2456 H   0  0  0  0  0  0  0  0  0  0  0  0
   -2.9145   -1.0157   -1.7490 H   0  0  0  0  0  0  0  0  0  0  0  0
   -3.9258    1.7299   -0.8454 H   0  0  0  0  0  0  0  0  0  0  0  0
   -4.6659    0.6487   -2.0221 H   0  0  0  0  0  0  0  0  0  0  0  0
   -3.5460    2.4274   -3.2183 H   0  0  0  0  0  0  0  0  0  0  0  0
   -2.0125    2.1351   -2.3779 H   0  0  0  0  0  0  0  0  0  0  0  0
   -2.2609    1.1941   -4.5145 H   0  0  0  0  0  0  0  0  0  0  0  0
  1  2  1  0
  2  3  1  0
  3  4  1  0
  4  5  1  0
  5  6  1  0
  6  7  1  0
  7  8  2  0
  7  9  1  0
  9 10  1  0
 10 11  2  0
 11 12  1  0
 12 13  2  0
 13 14  1  0
 14 15  2  0
  6 16  2  0
 16 17  1  0
 17 18  1  0
 18 19  2  0
 19 20  1  0
 20 21  2  0
 21 22  1  0
 21 23  1  0
 23 24  2  0
 17 25  1  0
 25 26  1  0
 26 27  1  0
 27 28  1  0
 28 29  1  0
 25  4  1  0
 15 10  1  0
 24 18  1  0
  1 30  1  0
  1 31  1  0
  1 32  1  0
  2 33  1  0
  2 34  1  0
  4 35  1  0
  9 36  1  0
 11 37  1  0
 12 38  1  0
 13 39  1  0
 14 40  1  0
 15 41  1  0
 16 42  1  0
 17 43  1  0
 19 44  1  0
 20 45  1  0
 23 46  1  0
 24 47  1  0
 25 48  1  0
 26 49  1  0
 26 50  1  0
 27 51  1  0
 27 52  1  0
 28 53  1  0
 28 54  1  0
 29 55  1  0
M  END
$$$$
