
     RDKit          3D

 56 61  0  0  0  0  0  0  0  0999 V2000
    5.6376   -3.4550    0.1296 C   0  0  0  0  0  0  0  0  0  0  0  0
    4.8052   -2.4963   -0.5123 O   0  0  0  0  0  0  0  0  0  0  0  0
    3.7386   -2.0281    0.2045 C   0  0  0  0  0  0  0  0  0  0  0  0
    3.4047   -2.3847    1.5091 C   0  0  0  0  0  0  0  0  0  0  0  0
    2.2803   -1.8266    2.1206 C   0  0  0  0  0  0  0  0  0  0  0  0
    1.4853   -0.9092    1.4330 C   0  0  0  0  0  0  0  0  0  0  0  0
    1.8026   -0.5318    0.1173 C   0  0  0  0  0  0  0  0  0  0  0  0
    0.9544    0.4661   -0.6694 C   0  0  0  0  0  0  0  0  0  0  0  0
   -0.2757   -0.2917   -1.0275 C   0  0  0  0  0  0  0  0  0  0  0  0
   -0.5548   -1.3778   -1.8741 C   0  0  0  0  0  0  0  0  0  0  0  0
    0.3795   -2.1692   -2.7112 C   0  0  0  0  0  0  0  0  0  0  0  0
   -1.8568   -1.6796   -1.8647 N   0  0  0  0  0  0  0  0  0  0  0  0
   -2.4389   -0.7848   -1.0058 N   0  0  0  0  0  0  0  0  0  0  0  0
   -3.8470   -0.8554   -0.7627 C   0  0  0  0  0  0  0  0  0  0  0  0
   -4.4971    0.0259    0.1131 C   0  0  0  0  0  0  0  0  0  0  0  0
   -5.8781   -0.0742    0.3273 C   0  0  0  0  0  0  0  0  0  0  0  0
   -6.6158   -1.0610   -0.3363 C   0  0  0  0  0  0  0  0  0  0  0  0
   -8.0626   -1.1659   -0.1117 N   0  0  0  0  0  4  0  0  0  0  0  0
   -8.5856   -0.3627    0.6742 O   0  0  0  0  0  0  0  0  0  0  0  0
   -8.6785   -2.0524   -0.7212 O   0  0  0  0  0  1  0  0  0  0  0  0
   -5.9828   -1.9488   -1.2121 C   0  0  0  0  0  0  0  0  0  0  0  0
   -4.6037   -1.8435   -1.4215 C   0  0  0  0  0  0  0  0  0  0  0  0
   -1.4858    0.0942   -0.4993 C   0  0  0  0  0  0  0  0  0  0  0  0
   -1.6925    1.1365    0.3437 N   0  0  0  0  0  0  0  0  0  0  0  0
   -0.6405    1.8735    0.6023 C   0  0  0  0  0  0  0  0  0  0  0  0
   -0.9201    3.0678    1.5464 C   0  0  0  0  0  0  0  0  0  0  0  0
   -2.0090    3.2354    2.0781 O   0  0  0  0  0  0  0  0  0  0  0  0
    0.1260    3.9276    1.7482 N   0  0  0  0  0  0  0  0  0  0  0  0
    1.3914    3.7628    1.1787 C   0  0  0  0  0  0  0  0  0  0  0  0
    2.3567    4.7386    1.4556 C   0  0  0  0  0  0  0  0  0  0  0  0
    3.6322    4.6276    0.9144 C   0  0  0  0  0  0  0  0  0  0  0  0
    3.9373    3.5452    0.0992 C   0  0  0  0  0  0  0  0  0  0  0  0
    2.9691    2.5705   -0.1740 C   0  0  0  0  0  0  0  0  0  0  0  0
    1.6719    2.6462    0.3614 C   0  0  0  0  0  0  0  0  0  0  0  0
    0.6683    1.6863    0.1177 N   0  0  0  0  0  0  0  0  0  0  0  0
    2.9394   -1.1077   -0.4808 C   0  0  0  0  0  0  0  0  0  0  0  0
    6.4293   -3.7334   -0.5726 H   0  0  0  0  0  0  0  0  0  0  0  0
    6.1153   -3.0300    1.0186 H   0  0  0  0  0  0  0  0  0  0  0  0
    5.0770   -4.3627    0.3765 H   0  0  0  0  0  0  0  0  0  0  0  0
    3.9946   -3.0944    2.0793 H   0  0  0  0  0  0  0  0  0  0  0  0
    2.0196   -2.1102    3.1378 H   0  0  0  0  0  0  0  0  0  0  0  0
    0.6102   -0.4964    1.9320 H   0  0  0  0  0  0  0  0  0  0  0  0
    1.4480    0.7465   -1.6091 H   0  0  0  0  0  0  0  0  0  0  0  0
    1.1523   -1.5271   -3.1453 H   0  0  0  0  0  0  0  0  0  0  0  0
    0.8668   -2.9423   -2.1091 H   0  0  0  0  0  0  0  0  0  0  0  0
   -0.1451   -2.6607   -3.5373 H   0  0  0  0  0  0  0  0  0  0  0  0
   -3.9661    0.8056    0.6521 H   0  0  0  0  0  0  0  0  0  0  0  0
   -6.3541    0.6246    1.0131 H   0  0  0  0  0  0  0  0  0  0  0  0
   -6.5388   -2.7229   -1.7367 H   0  0  0  0  0  0  0  0  0  0  0  0
   -4.1292   -2.5449   -2.1073 H   0  0  0  0  0  0  0  0  0  0  0  0
   -0.0700    4.7152    2.3503 H   0  0  0  0  0  0  0  0  0  0  0  0
    2.1242    5.5894    2.0906 H   0  0  0  0  0  0  0  0  0  0  0  0
    4.3852    5.3824    1.1266 H   0  0  0  0  0  0  0  0  0  0  0  0
    4.9334    3.4521   -0.3284 H   0  0  0  0  0  0  0  0  0  0  0  0
    3.2762    1.7558   -0.8209 H   0  0  0  0  0  0  0  0  0  0  0  0
    3.2162   -0.8441   -1.5000 H   0  0  0  0  0  0  0  0  0  0  0  0
  1  2  1  0
  2  3  1  0
  3  4  2  0
  4  5  1  0
  5  6  2  0
  6  7  1  0
  7  8  1  0
  8  9  1  0
  9 10  1  0
 10 11  1  0
 10 12  2  0
 12 13  1  0
 13 14  1  0
 14 15  2  0
 15 16  1  0
 16 17  2  0
 17 18  1  0
 18 19  2  0
 18 20  1  0
 17 21  1  0
 21 22  2  0
 13 23  1  0
 23 24  1  0
 24 25  2  0
 25 26  1  0
 26 27  2  0
 26 28  1  0
 28 29  1  0
 29 30  2  0
 30 31  1  0
 31 32  2  0
 32 33  1  0
 33 34  2  0
 34 35  1  0
  7 36  2  0
 36  3  1  0
 35  8  1  0
 23  9  2  0
 35 25  1  0
 22 14  1  0
 34 29  1  0
  1 37  1  0
  1 38  1  0
  1 39  1  0
  4 40  1  0
  5 41  1  0
  6 42  1  0
  8 43  1  0
 11 44  1  0
 11 45  1  0
 11 46  1  0
 15 47  1  0
 16 48  1  0
 21 49  1  0
 22 50  1  0
 28 51  1  0
 30 52  1  0
 31 53  1  0
 32 54  1  0
 33 55  1  0
 36 56  1  0
M  CHG  2  18   1  20  -1
M  END
$$$$
