
     RDKit          3D

 55 57  0  0  0  0  0  0  0  0999 V2000
    3.9056    1.8924    1.4734 C   0  0  0  0  0  0  0  0  0  0  0  0
    2.4295    1.9807    1.8867 C   0  0  0  0  0  0  0  0  0  0  0  0
    2.3097    1.8060    3.4053 C   0  0  0  0  0  0  0  0  0  0  0  0
    1.4982    1.0065    1.1288 C   0  0  0  0  0  0  0  0  0  0  0  0
    1.5418    1.3020   -0.3286 N   0  0  0  0  0  0  0  0  0  0  0  0
    0.3372    0.6183   -1.2899 S   0  0  0  0  0  6  0  0  0  0  0  0
    0.8352    0.6482   -2.6433 O   0  0  0  0  0  0  0  0  0  0  0  0
   -0.0998   -0.6026   -0.6607 O   0  0  0  0  0  0  0  0  0  0  0  0
   -0.9591    1.8192   -1.1608 C   0  0  0  0  0  0  0  0  0  0  0  0
   -0.9074    2.9760   -1.9459 C   0  0  0  0  0  0  0  0  0  0  0  0
   -1.9366    3.9161   -1.8538 C   0  0  0  0  0  0  0  0  0  0  0  0
   -3.0070    3.6929   -0.9875 C   0  0  0  0  0  0  0  0  0  0  0  0
   -3.0691    2.5136   -0.2341 C   0  0  0  0  0  0  0  0  0  0  0  0
   -2.0411    1.5764   -0.3093 C   0  0  0  0  0  0  0  0  0  0  0  0
   -4.1096    2.2167    0.6089 O   0  0  0  0  0  0  0  0  0  0  0  0
   -5.2443    3.0367    0.3376 C   0  0  0  0  0  0  0  0  0  0  0  0
   -4.8301    4.4928    0.1949 C   0  0  0  0  0  0  0  0  0  0  0  0
   -3.9668    4.6714   -0.9319 O   0  0  0  0  0  0  0  0  0  0  0  0
    1.8317   -0.4647    1.3945 C   0  0  0  0  0  0  0  0  0  0  0  0
    2.6856   -1.1104    0.8006 O   0  0  0  0  0  0  0  0  0  0  0  0
    1.0359   -0.9538    2.3809 O   0  0  0  0  0  0  0  0  0  0  0  0
    1.1328   -2.3576    2.5989 C   0  0  0  0  0  0  0  0  0  0  0  0
    0.3816   -3.1772    1.5443 C   0  0  0  0  0  0  0  0  0  0  0  0
   -0.7908   -3.4958    1.7220 O   0  0  0  0  0  0  0  0  0  0  0  0
    1.1678   -3.5163    0.4637 N   0  0  0  0  0  0  0  0  0  0  0  0
    0.8074   -4.2694   -0.6813 C   0  0  0  0  0  0  0  0  0  0  0  0
   -0.5138   -4.6416   -0.9544 C   0  0  0  0  0  0  0  0  0  0  0  0
   -0.8225   -5.3819   -2.1023 C   0  0  0  0  0  0  0  0  0  0  0  0
    0.1854   -5.7664   -2.9840 C   0  0  0  0  0  0  0  0  0  0  0  0
    1.5119   -5.4093   -2.7282 C   0  0  0  0  0  0  0  0  0  0  0  0
    2.7116   -5.9540   -3.8500 Cl  0  0  0  0  0  0  0  0  0  0  0  0
    1.8282   -4.6563   -1.5858 C   0  0  0  0  0  0  0  0  0  0  0  0
    3.4813   -4.2197   -1.2435 Cl  0  0  0  0  0  0  0  0  0  0  0  0
    4.0422    2.1789    0.4255 H   0  0  0  0  0  0  0  0  0  0  0  0
    4.5091    2.5823    2.0714 H   0  0  0  0  0  0  0  0  0  0  0  0
    4.3162    0.8840    1.6113 H   0  0  0  0  0  0  0  0  0  0  0  0
    2.0958    3.0041    1.6530 H   0  0  0  0  0  0  0  0  0  0  0  0
    2.6954    0.8345    3.7326 H   0  0  0  0  0  0  0  0  0  0  0  0
    1.2664    1.8881    3.7301 H   0  0  0  0  0  0  0  0  0  0  0  0
    2.8827    2.5825    3.9257 H   0  0  0  0  0  0  0  0  0  0  0  0
    0.4701    1.1931    1.4700 H   0  0  0  0  0  0  0  0  0  0  0  0
    2.4507    1.2055   -0.7884 H   0  0  0  0  0  0  0  0  0  0  0  0
   -0.0741    3.1489   -2.6238 H   0  0  0  0  0  0  0  0  0  0  0  0
   -1.9018    4.8241   -2.4489 H   0  0  0  0  0  0  0  0  0  0  0  0
   -2.0982    0.6639    0.2804 H   0  0  0  0  0  0  0  0  0  0  0  0
   -5.7300    2.6677   -0.5701 H   0  0  0  0  0  0  0  0  0  0  0  0
   -5.9430    2.9181    1.1700 H   0  0  0  0  0  0  0  0  0  0  0  0
   -5.7078    5.1238    0.0371 H   0  0  0  0  0  0  0  0  0  0  0  0
   -4.3113    4.8510    1.0906 H   0  0  0  0  0  0  0  0  0  0  0  0
    0.6759   -2.5712    3.5727 H   0  0  0  0  0  0  0  0  0  0  0  0
    2.1785   -2.6808    2.6793 H   0  0  0  0  0  0  0  0  0  0  0  0
    2.1202   -3.1485    0.4480 H   0  0  0  0  0  0  0  0  0  0  0  0
   -1.3331   -4.3427   -0.3094 H   0  0  0  0  0  0  0  0  0  0  0  0
   -1.8567   -5.6522   -2.3036 H   0  0  0  0  0  0  0  0  0  0  0  0
   -0.0679   -6.3440   -3.8697 H   0  0  0  0  0  0  0  0  0  0  0  0
  1  2  1  0
  2  3  1  0
  2  4  1  0
  4  5  1  0
  5  6  1  0
  6  7  2  0
  6  8  2  0
  6  9  1  0
  9 10  2  0
 10 11  1  0
 11 12  2  0
 12 13  1  0
 13 14  2  0
 13 15  1  0
 15 16  1  0
 16 17  1  0
 17 18  1  0
  4 19  1  0
 19 20  2  0
 19 21  1  0
 21 22  1  0
 22 23  1  0
 23 24  2  0
 23 25  1  0
 25 26  1  0
 26 27  2  0
 27 28  1  0
 28 29  2  0
 29 30  1  0
 30 31  1  0
 30 32  2  0
 32 33  1  0
 14  9  1  0
 32 26  1  0
 18 12  1  0
  1 34  1  0
  1 35  1  0
  1 36  1  0
  2 37  1  0
  3 38  1  0
  3 39  1  0
  3 40  1  0
  4 41  1  0
  5 42  1  0
 10 43  1  0
 11 44  1  0
 14 45  1  0
 16 46  1  0
 16 47  1  0
 17 48  1  0
 17 49  1  0
 22 50  1  0
 22 51  1  0
 25 52  1  0
 27 53  1  0
 28 54  1  0
 29 55  1  0
M  END
$$$$
