
     RDKit          3D

 60 62  0  0  0  0  0  0  0  0999 V2000
   -3.3965   -3.7516   -1.9099 C   0  0  0  0  0  0  0  0  0  0  0  0
   -2.8229   -4.5544   -0.8308 N   0  0  0  0  0  0  0  0  0  0  0  0
   -3.7515   -5.6014   -0.4105 C   0  0  0  0  0  0  0  0  0  0  0  0
   -2.3316   -3.7362    0.2883 C   0  0  0  0  0  0  0  0  0  0  0  0
   -3.3780   -2.9067    1.0448 C   0  0  0  0  0  0  0  0  0  0  0  0
   -2.7921   -2.1496    2.2476 C   0  0  0  0  0  0  0  0  0  0  0  0
   -1.9366   -1.0059    1.8898 N   0  0  0  0  0  0  0  0  0  0  0  0
   -2.6274    0.1481    1.4766 C   0  0  0  0  0  0  0  0  0  0  0  0
   -3.8625    0.1273    1.3668 O   0  0  0  0  0  0  0  0  0  0  0  0
   -1.8637    1.4510    1.1844 C   0  0  0  0  0  0  0  0  0  0  0  0
   -2.7890    2.5025    0.8992 O   0  0  0  0  0  0  0  0  0  0  0  0
   -2.2817    3.7658    0.7754 C   0  0  0  0  0  0  0  0  0  0  0  0
   -0.9295    4.1107    0.7533 C   0  0  0  0  0  0  0  0  0  0  0  0
   -0.5513    5.4535    0.6309 C   0  0  0  0  0  0  0  0  0  0  0  0
   -1.5205    6.4514    0.5242 C   0  0  0  0  0  0  0  0  0  0  0  0
   -2.8713    6.1095    0.5361 C   0  0  0  0  0  0  0  0  0  0  0  0
   -3.2475    4.7703    0.6592 C   0  0  0  0  0  0  0  0  0  0  0  0
   -0.5371   -1.0209    1.9347 C   0  0  0  0  0  0  0  0  0  0  0  0
    0.2770   -0.0551    1.5667 N   0  0  0  0  0  0  0  0  0  0  0  0
    1.6078   -0.4229    1.7319 C   0  0  0  0  0  0  0  0  0  0  0  0
    2.6770    0.5584    1.3655 C   0  0  0  0  0  0  0  0  0  0  0  0
    3.6433    0.0133    0.3189 C   0  0  0  0  0  0  0  0  0  0  0  0
    4.1268   -1.1121    0.4223 O   0  0  0  0  0  0  0  0  0  0  0  0
    3.9316    0.9283   -0.6859 N   0  0  0  0  0  0  0  0  0  0  0  0
    4.8247    0.7622   -1.7661 C   0  0  0  0  0  0  0  0  0  0  0  0
    5.5708   -0.3975   -1.9921 C   0  0  0  0  0  0  0  0  0  0  0  0
    6.4516   -0.4783   -3.0779 C   0  0  0  0  0  0  0  0  0  0  0  0
    6.5878    0.6014   -3.9438 C   0  0  0  0  0  0  0  0  0  0  0  0
    7.6805    0.5026   -5.2704 Cl  0  0  0  0  0  0  0  0  0  0  0  0
    5.8471    1.7624   -3.7376 C   0  0  0  0  0  0  0  0  0  0  0  0
    4.9672    1.8407   -2.6525 C   0  0  0  0  0  0  0  0  0  0  0  0
    1.7813   -1.6840    2.2663 C   0  0  0  0  0  0  0  0  0  0  0  0
    0.2681   -2.4229    2.5232 S   0  0  0  0  0  0  0  0  0  0  0  0
   -2.6908   -2.9789   -2.2361 H   0  0  0  0  0  0  0  0  0  0  0  0
   -4.3358   -3.2650   -1.6254 H   0  0  0  0  0  0  0  0  0  0  0  0
   -3.5962   -4.3818   -2.7840 H   0  0  0  0  0  0  0  0  0  0  0  0
   -4.7097   -5.2039   -0.0562 H   0  0  0  0  0  0  0  0  0  0  0  0
   -3.9589   -6.2817   -1.2440 H   0  0  0  0  0  0  0  0  0  0  0  0
   -3.3156   -6.2106    0.3894 H   0  0  0  0  0  0  0  0  0  0  0  0
   -1.8199   -4.4018    0.9947 H   0  0  0  0  0  0  0  0  0  0  0  0
   -1.5525   -3.0697   -0.1003 H   0  0  0  0  0  0  0  0  0  0  0  0
   -4.1623   -3.5676    1.4309 H   0  0  0  0  0  0  0  0  0  0  0  0
   -3.8644   -2.2040    0.3605 H   0  0  0  0  0  0  0  0  0  0  0  0
   -3.6324   -1.7589    2.8388 H   0  0  0  0  0  0  0  0  0  0  0  0
   -2.2862   -2.8438    2.9249 H   0  0  0  0  0  0  0  0  0  0  0  0
   -1.2926    1.7166    2.0810 H   0  0  0  0  0  0  0  0  0  0  0  0
   -1.2384    1.2971    0.2993 H   0  0  0  0  0  0  0  0  0  0  0  0
   -0.1497    3.3604    0.8260 H   0  0  0  0  0  0  0  0  0  0  0  0
    0.5016    5.7233    0.6194 H   0  0  0  0  0  0  0  0  0  0  0  0
   -1.2256    7.4941    0.4322 H   0  0  0  0  0  0  0  0  0  0  0  0
   -3.6321    6.8817    0.4509 H   0  0  0  0  0  0  0  0  0  0  0  0
   -4.3018    4.5049    0.6689 H   0  0  0  0  0  0  0  0  0  0  0  0
    3.2640    0.8162    2.2549 H   0  0  0  0  0  0  0  0  0  0  0  0
    2.2107    1.4838    1.0104 H   0  0  0  0  0  0  0  0  0  0  0  0
    3.4511    1.8190   -0.6540 H   0  0  0  0  0  0  0  0  0  0  0  0
    5.4956   -1.2673   -1.3451 H   0  0  0  0  0  0  0  0  0  0  0  0
    7.0242   -1.3907   -3.2285 H   0  0  0  0  0  0  0  0  0  0  0  0
    5.9561    2.6062   -4.4177 H   0  0  0  0  0  0  0  0  0  0  0  0
    4.4014    2.7583   -2.5114 H   0  0  0  0  0  0  0  0  0  0  0  0
    2.7083   -2.1957    2.4920 H   0  0  0  0  0  0  0  0  0  0  0  0
  1  2  1  0
  2  3  1  0
  2  4  1  0
  4  5  1  0
  5  6  1  0
  6  7  1  0
  7  8  1  0
  8  9  2  0
  8 10  1  0
 10 11  1  0
 11 12  1  0
 12 13  2  0
 13 14  1  0
 14 15  2  0
 15 16  1  0
 16 17  2  0
  7 18  1  0
 18 19  2  0
 19 20  1  0
 20 21  1  0
 21 22  1  0
 22 23  2  0
 22 24  1  0
 24 25  1  0
 25 26  2  0
 26 27  1  0
 27 28  2  0
 28 29  1  0
 28 30  1  0
 30 31  2  0
 20 32  2  0
 32 33  1  0
 17 12  1  0
 33 18  1  0
 31 25  1  0
  1 34  1  0
  1 35  1  0
  1 36  1  0
  3 37  1  0
  3 38  1  0
  3 39  1  0
  4 40  1  0
  4 41  1  0
  5 42  1  0
  5 43  1  0
  6 44  1  0
  6 45  1  0
 10 46  1  0
 10 47  1  0
 13 48  1  0
 14 49  1  0
 15 50  1  0
 16 51  1  0
 17 52  1  0
 21 53  1  0
 21 54  1  0
 24 55  1  0
 26 56  1  0
 27 57  1  0
 30 58  1  0
 31 59  1  0
 32 60  1  0
M  END
$$$$
