
     RDKit          3D

 44 46  0  0  0  0  0  0  0  0999 V2000
    4.0840    2.3615   -1.0129 C   0  0  0  0  0  0  0  0  0  0  0  0
    2.6981    2.0463   -1.1637 O   0  0  0  0  0  0  0  0  0  0  0  0
    2.4442    0.7160   -1.3346 C   0  0  0  0  0  0  0  0  0  0  0  0
    3.3037   -0.1501   -1.4031 O   0  0  0  0  0  0  0  0  0  0  0  0
    0.9543    0.4884   -1.4357 C   0  0  0  0  0  0  0  0  0  0  0  0
    0.5020   -0.8558   -1.9760 C   0  0  0  0  0  0  0  0  0  0  0  0
    1.3825   -1.6144   -2.9403 C   0  0  0  0  0  0  0  0  0  0  0  0
   -0.6627   -1.3740   -1.7158 N   0  0  0  0  0  0  0  0  0  0  0  0
   -1.5421   -0.6971   -0.9052 C   0  0  0  0  0  0  0  0  0  0  0  0
   -1.1580    0.3158   -0.1211 C   0  0  0  0  0  0  0  0  0  0  0  0
   -2.1612    1.0204    0.6974 C   0  0  0  0  0  0  0  0  0  0  0  0
   -1.8555    2.0638    1.2722 O   0  0  0  0  0  0  0  0  0  0  0  0
   -3.4153    0.4528    0.7451 N   0  0  0  0  0  0  0  0  0  0  0  0
   -4.4177    1.0802    1.5850 C   0  0  0  0  0  0  0  0  0  0  0  0
   -3.8340   -0.5667   -0.0994 C   0  0  0  0  0  0  0  0  0  0  0  0
   -5.0091   -0.9387   -0.1271 O   0  0  0  0  0  0  0  0  0  0  0  0
   -2.8551   -1.1221   -0.9150 N   0  0  0  0  0  0  0  0  0  0  0  0
   -3.2332   -2.2216   -1.7989 C   0  0  0  0  0  0  0  0  0  0  0  0
    0.2663    0.7944   -0.0902 C   0  0  0  0  0  0  0  0  0  0  0  0
    0.9897    0.2650    1.1503 C   0  0  0  0  0  0  0  0  0  0  0  0
    1.3031    1.1562    2.1918 C   0  0  0  0  0  0  0  0  0  0  0  0
    1.9621    0.7126    3.3407 C   0  0  0  0  0  0  0  0  0  0  0  0
    2.3098   -0.6289    3.4636 C   0  0  0  0  0  0  0  0  0  0  0  0
    3.1224   -1.1769    4.8772 Cl  0  0  0  0  0  0  0  0  0  0  0  0
    1.9974   -1.5305    2.4503 C   0  0  0  0  0  0  0  0  0  0  0  0
    1.3360   -1.0880    1.3009 C   0  0  0  0  0  0  0  0  0  0  0  0
    4.4990    1.8536   -0.1366 H   0  0  0  0  0  0  0  0  0  0  0  0
    4.1709    3.4408   -0.8610 H   0  0  0  0  0  0  0  0  0  0  0  0
    4.6377    2.0921   -1.9177 H   0  0  0  0  0  0  0  0  0  0  0  0
    0.5900    1.1998   -2.1939 H   0  0  0  0  0  0  0  0  0  0  0  0
    0.7856   -2.3293   -3.5149 H   0  0  0  0  0  0  0  0  0  0  0  0
    1.8592   -0.9219   -3.6387 H   0  0  0  0  0  0  0  0  0  0  0  0
    2.1421   -2.1691   -2.3842 H   0  0  0  0  0  0  0  0  0  0  0  0
   -4.9897    1.7847    0.9727 H   0  0  0  0  0  0  0  0  0  0  0  0
   -5.1022    0.3286    1.9904 H   0  0  0  0  0  0  0  0  0  0  0  0
   -3.9585    1.6218    2.4171 H   0  0  0  0  0  0  0  0  0  0  0  0
   -4.3005   -2.4512   -1.7400 H   0  0  0  0  0  0  0  0  0  0  0  0
   -2.6777   -3.1213   -1.5139 H   0  0  0  0  0  0  0  0  0  0  0  0
   -3.0033   -1.9508   -2.8348 H   0  0  0  0  0  0  0  0  0  0  0  0
    0.2578    1.8921   -0.0202 H   0  0  0  0  0  0  0  0  0  0  0  0
    1.0249    2.2073    2.1216 H   0  0  0  0  0  0  0  0  0  0  0  0
    2.1939    1.4174    4.1348 H   0  0  0  0  0  0  0  0  0  0  0  0
    2.2622   -2.5802    2.5477 H   0  0  0  0  0  0  0  0  0  0  0  0
    1.0967   -1.8230    0.5358 H   0  0  0  0  0  0  0  0  0  0  0  0
  1  2  1  0
  2  3  1  0
  3  4  2  0
  3  5  1  0
  5  6  1  0
  6  7  1  0
  6  8  2  0
  8  9  1  0
  9 10  2  0
 10 11  1  0
 11 12  2  0
 11 13  1  0
 13 14  1  0
 13 15  1  0
 15 16  2  0
 15 17  1  0
 17 18  1  0
 10 19  1  0
 19 20  1  0
 20 21  2  0
 21 22  1  0
 22 23  2  0
 23 24  1  0
 23 25  1  0
 25 26  2  0
 19  5  1  0
 26 20  1  0
 17  9  1  0
  1 27  1  0
  1 28  1  0
  1 29  1  0
  5 30  1  0
  7 31  1  0
  7 32  1  0
  7 33  1  0
 14 34  1  0
 14 35  1  0
 14 36  1  0
 18 37  1  0
 18 38  1  0
 18 39  1  0
 19 40  1  0
 21 41  1  0
 22 42  1  0
 25 43  1  0
 26 44  1  0
M  END
$$$$
