
     RDKit          3D

 62 65  0  0  0  0  0  0  0  0999 V2000
    3.6621   -2.1736   -1.5750 O   0  0  0  0  0  0  0  0  0  0  0  0
    3.7867   -1.4852   -0.5706 C   0  0  0  0  0  0  0  0  0  0  0  0
    5.1239   -1.3256    0.1236 C   0  0  0  0  0  0  0  0  0  0  0  0
    6.2287   -2.0444   -0.6330 C   0  0  0  0  0  0  0  0  0  0  0  0
    7.7907   -1.9589    0.2061 S   0  0  0  0  0  6  0  0  0  0  0  0
    7.5710   -2.4830    1.5445 O   0  0  0  0  0  0  0  0  0  0  0  0
    8.8160   -2.5339   -0.6423 O   0  0  0  0  0  0  0  0  0  0  0  0
    8.1848   -0.2480    0.3926 C   0  0  0  0  0  0  0  0  0  0  0  0
    8.5463    0.2505    1.6491 C   0  0  0  0  0  0  0  0  0  0  0  0
    8.8338    1.6094    1.7944 C   0  0  0  0  0  0  0  0  0  0  0  0
    8.7606    2.4634    0.6912 C   0  0  0  0  0  0  0  0  0  0  0  0
    8.4060    1.9574   -0.5610 C   0  0  0  0  0  0  0  0  0  0  0  0
    8.1222    0.6009   -0.7053 C   0  0  0  0  0  0  0  0  0  0  0  0
    7.7753    0.1451   -1.9148 F   0  0  0  0  0  0  0  0  0  0  0  0
    2.7931   -0.7717    0.0768 N   0  0  0  0  0  0  0  0  0  0  0  0
    1.4325   -0.6773   -0.2812 C   0  0  0  0  0  0  0  0  0  0  0  0
    0.6111    0.1128    0.5255 C   0  0  0  0  0  0  0  0  0  0  0  0
   -0.7547    0.2599    0.2379 C   0  0  0  0  0  0  0  0  0  0  0  0
   -1.3511   -0.3859   -0.8523 C   0  0  0  0  0  0  0  0  0  0  0  0
   -2.7107   -0.2622   -1.1768 N   0  0  0  0  0  0  0  0  0  0  0  0
   -3.4365   -1.5493   -1.2926 C   0  0  0  0  0  0  0  0  0  0  0  0
   -4.8656   -1.3472   -1.8563 C   0  0  0  0  0  0  0  0  0  0  0  0
   -5.6866   -0.3195   -1.1772 N   0  0  0  0  0  0  0  0  0  0  0  0
   -6.0964   -0.7711    0.1637 C   0  0  0  0  0  0  0  0  0  0  0  0
   -7.0691    0.1704    0.8456 C   0  0  0  0  0  0  0  0  0  0  0  0
   -8.2851    0.5053    0.2294 C   0  0  0  0  0  0  0  0  0  0  0  0
   -9.1829    1.3718    0.8553 C   0  0  0  0  0  0  0  0  0  0  0  0
   -8.8780    1.9073    2.1062 C   0  0  0  0  0  0  0  0  0  0  0  0
   -7.6774    1.5753    2.7331 C   0  0  0  0  0  0  0  0  0  0  0  0
   -6.7771    0.7095    2.1080 C   0  0  0  0  0  0  0  0  0  0  0  0
   -4.8992    0.9354   -1.1462 C   0  0  0  0  0  0  0  0  0  0  0  0
   -3.4890    0.8114   -0.5253 C   0  0  0  0  0  0  0  0  0  0  0  0
   -0.5030   -1.1622   -1.6578 C   0  0  0  0  0  0  0  0  0  0  0  0
    0.8649   -1.3110   -1.3805 C   0  0  0  0  0  0  0  0  0  0  0  0
    5.0292   -1.7217    1.1404 H   0  0  0  0  0  0  0  0  0  0  0  0
    5.3449   -0.2555    0.1984 H   0  0  0  0  0  0  0  0  0  0  0  0
    6.3493   -1.6455   -1.6446 H   0  0  0  0  0  0  0  0  0  0  0  0
    5.9986   -3.1128   -0.7362 H   0  0  0  0  0  0  0  0  0  0  0  0
    8.6162   -0.4090    2.5130 H   0  0  0  0  0  0  0  0  0  0  0  0
    9.1217    2.0030    2.7676 H   0  0  0  0  0  0  0  0  0  0  0  0
    8.9892    3.5210    0.8086 H   0  0  0  0  0  0  0  0  0  0  0  0
    8.3508    2.6151   -1.4256 H   0  0  0  0  0  0  0  0  0  0  0  0
    3.0607   -0.2648    0.9106 H   0  0  0  0  0  0  0  0  0  0  0  0
    1.0107    0.6265    1.3944 H   0  0  0  0  0  0  0  0  0  0  0  0
   -1.3383    0.8843    0.9069 H   0  0  0  0  0  0  0  0  0  0  0  0
   -3.4860   -2.0347   -0.3101 H   0  0  0  0  0  0  0  0  0  0  0  0
   -2.9221   -2.2382   -1.9706 H   0  0  0  0  0  0  0  0  0  0  0  0
   -5.3950   -2.3081   -1.8635 H   0  0  0  0  0  0  0  0  0  0  0  0
   -4.7810   -1.0561   -2.9126 H   0  0  0  0  0  0  0  0  0  0  0  0
   -5.2321   -0.9462    0.8155 H   0  0  0  0  0  0  0  0  0  0  0  0
   -6.6118   -1.7387    0.0820 H   0  0  0  0  0  0  0  0  0  0  0  0
   -8.5261    0.0952   -0.7505 H   0  0  0  0  0  0  0  0  0  0  0  0
  -10.1179    1.6299    0.3644 H   0  0  0  0  0  0  0  0  0  0  0  0
   -9.5771    2.5834    2.5921 H   0  0  0  0  0  0  0  0  0  0  0  0
   -7.4438    1.9906    3.7106 H   0  0  0  0  0  0  0  0  0  0  0  0
   -5.8459    0.4610    2.6134 H   0  0  0  0  0  0  0  0  0  0  0  0
   -5.4531    1.7333   -0.6382 H   0  0  0  0  0  0  0  0  0  0  0  0
   -4.7897    1.2831   -2.1828 H   0  0  0  0  0  0  0  0  0  0  0  0
   -3.5778    0.6242    0.5523 H   0  0  0  0  0  0  0  0  0  0  0  0
   -2.9801    1.7739   -0.6640 H   0  0  0  0  0  0  0  0  0  0  0  0
   -0.8925   -1.6486   -2.5495 H   0  0  0  0  0  0  0  0  0  0  0  0
    1.4513   -1.9238   -2.0567 H   0  0  0  0  0  0  0  0  0  0  0  0
  1  2  2  0
  2  3  1  0
  3  4  1  0
  4  5  1  0
  5  6  2  0
  5  7  2  0
  5  8  1  0
  8  9  2  0
  9 10  1  0
 10 11  2  0
 11 12  1  0
 12 13  2  0
 13 14  1  0
  2 15  1  0
 15 16  1  0
 16 17  2  0
 17 18  1  0
 18 19  2  0
 19 20  1  0
 20 21  1  0
 21 22  1  0
 22 23  1  0
 23 24  1  0
 24 25  1  0
 25 26  2  0
 26 27  1  0
 27 28  2  0
 28 29  1  0
 29 30  2  0
 23 31  1  0
 31 32  1  0
 19 33  1  0
 33 34  2  0
 13  8  1  0
 34 16  1  0
 32 20  1  0
 30 25  1  0
  3 35  1  0
  3 36  1  0
  4 37  1  0
  4 38  1  0
  9 39  1  0
 10 40  1  0
 11 41  1  0
 12 42  1  0
 15 43  1  0
 17 44  1  0
 18 45  1  0
 21 46  1  0
 21 47  1  0
 22 48  1  0
 22 49  1  0
 24 50  1  0
 24 51  1  0
 26 52  1  0
 27 53  1  0
 28 54  1  0
 29 55  1  0
 30 56  1  0
 31 57  1  0
 31 58  1  0
 32 59  1  0
 32 60  1  0
 33 61  1  0
 34 62  1  0
M  END
$$$$
