
     RDKit          3D

 53 56  0  0  0  0  0  0  0  0999 V2000
    5.2704    6.0268   -0.9055 C   0  0  0  0  0  0  0  0  0  0  0  0
    4.4500    4.9019   -1.2110 O   0  0  0  0  0  0  0  0  0  0  0  0
    4.6558    3.7633   -0.4823 C   0  0  0  0  0  0  0  0  0  0  0  0
    5.5997    3.5955    0.5248 C   0  0  0  0  0  0  0  0  0  0  0  0
    5.7069    2.3683    1.1958 C   0  0  0  0  0  0  0  0  0  0  0  0
    4.8728    1.2901    0.8698 C   0  0  0  0  0  0  0  0  0  0  0  0
    4.9064    0.0740    1.5088 O   0  0  0  0  0  0  0  0  0  0  0  0
    5.7214   -0.0367    2.6698 C   0  0  0  0  0  0  0  0  0  0  0  0
    3.9324    1.4466   -0.1649 C   0  0  0  0  0  0  0  0  0  0  0  0
    3.0459    0.3783   -0.6074 C   0  0  0  0  0  0  0  0  0  0  0  0
    3.4650   -0.9076   -0.8867 C   0  0  0  0  0  0  0  0  0  0  0  0
    2.1482   -1.8219   -1.4923 S   0  0  0  0  0  0  0  0  0  0  0  0
    1.1355   -0.4672   -1.3243 C   0  0  0  0  0  0  0  0  0  0  0  0
   -0.1895   -0.4715   -1.6677 N   0  0  0  0  0  0  0  0  0  0  0  0
   -0.9167   -1.5017   -2.2416 C   0  0  0  0  0  0  0  0  0  0  0  0
   -0.5010   -2.6238   -2.5261 O   0  0  0  0  0  0  0  0  0  0  0  0
   -2.3453   -1.0926   -2.5559 C   0  0  0  0  0  0  0  0  0  0  0  0
   -3.2666   -1.4325   -1.4778 N   0  0  0  0  0  0  0  0  0  0  0  0
   -3.2434   -0.8858   -0.2110 C   0  0  0  0  0  0  0  0  0  0  0  0
   -2.3462    0.0383    0.1208 O   0  0  0  0  0  0  0  0  0  0  0  0
   -4.2491   -1.4890    0.5194 C   0  0  0  0  0  0  0  0  0  0  0  0
   -4.9474   -2.3772   -0.3607 C   0  0  0  0  0  0  0  0  0  0  0  0
   -4.3258   -2.3114   -1.5890 C   0  0  0  0  0  0  0  0  0  0  0  0
   -4.5927   -2.9229   -2.7426 O   0  0  0  0  0  0  0  0  0  0  0  0
   -6.1566   -3.1526    0.0586 C   0  0  0  0  0  0  0  0  0  0  0  0
   -6.2737   -3.2291    1.5902 C   0  0  0  0  0  0  0  0  0  0  0  0
   -6.0270   -1.8650    2.2572 C   0  0  0  0  0  0  0  0  0  0  0  0
   -4.6149   -1.3209    1.9581 C   0  0  0  0  0  0  0  0  0  0  0  0
    1.7029    0.6216   -0.8583 N   0  0  0  0  0  0  0  0  0  0  0  0
    3.8263    2.6905   -0.8159 C   0  0  0  0  0  0  0  0  0  0  0  0
    6.3267    5.8043   -1.0865 H   0  0  0  0  0  0  0  0  0  0  0  0
    4.9823    6.8429   -1.5711 H   0  0  0  0  0  0  0  0  0  0  0  0
    5.1054    6.3613    0.1255 H   0  0  0  0  0  0  0  0  0  0  0  0
    6.2753    4.3985    0.8153 H   0  0  0  0  0  0  0  0  0  0  0  0
    6.4613    2.2906    1.9721 H   0  0  0  0  0  0  0  0  0  0  0  0
    6.7764   -0.0359    2.3855 H   0  0  0  0  0  0  0  0  0  0  0  0
    5.5036   -0.9967    3.1415 H   0  0  0  0  0  0  0  0  0  0  0  0
    5.5011    0.7490    3.4013 H   0  0  0  0  0  0  0  0  0  0  0  0
    4.4523   -1.3353   -0.7943 H   0  0  0  0  0  0  0  0  0  0  0  0
   -0.6743    0.3734   -1.3905 H   0  0  0  0  0  0  0  0  0  0  0  0
   -2.4208   -0.0132   -2.7337 H   0  0  0  0  0  0  0  0  0  0  0  0
   -2.6538   -1.5978   -3.4825 H   0  0  0  0  0  0  0  0  0  0  0  0
   -2.4457    0.1889    1.0758 H   0  0  0  0  0  0  0  0  0  0  0  0
   -5.3362   -3.5367   -2.5882 H   0  0  0  0  0  0  0  0  0  0  0  0
   -6.1401   -4.1631   -0.3651 H   0  0  0  0  0  0  0  0  0  0  0  0
   -7.0439   -2.6518   -0.3475 H   0  0  0  0  0  0  0  0  0  0  0  0
   -5.5476   -3.9552    1.9765 H   0  0  0  0  0  0  0  0  0  0  0  0
   -7.2709   -3.6019    1.8648 H   0  0  0  0  0  0  0  0  0  0  0  0
   -6.1652   -1.9456    3.3459 H   0  0  0  0  0  0  0  0  0  0  0  0
   -6.7786   -1.1532    1.8941 H   0  0  0  0  0  0  0  0  0  0  0  0
   -4.5600   -0.2687    2.2487 H   0  0  0  0  0  0  0  0  0  0  0  0
   -3.8808   -1.8612    2.5672 H   0  0  0  0  0  0  0  0  0  0  0  0
    3.0901    2.8214   -1.6075 H   0  0  0  0  0  0  0  0  0  0  0  0
  1  2  1  0
  2  3  1  0
  3  4  2  0
  4  5  1  0
  5  6  2  0
  6  7  1  0
  7  8  1  0
  6  9  1  0
  9 10  1  0
 10 11  2  0
 11 12  1  0
 12 13  1  0
 13 14  1  0
 14 15  1  0
 15 16  2  0
 15 17  1  0
 17 18  1  0
 18 19  1  0
 19 20  1  0
 19 21  2  0
 21 22  1  0
 22 23  2  0
 23 24  1  0
 22 25  1  0
 25 26  1  0
 26 27  1  0
 27 28  1  0
 13 29  2  0
  9 30  2  0
 30  3  1  0
 29 10  1  0
 23 18  1  0
 28 21  1  0
  1 31  1  0
  1 32  1  0
  1 33  1  0
  4 34  1  0
  5 35  1  0
  8 36  1  0
  8 37  1  0
  8 38  1  0
 11 39  1  0
 14 40  1  0
 17 41  1  0
 17 42  1  0
 20 43  1  0
 24 44  1  0
 25 45  1  0
 25 46  1  0
 26 47  1  0
 26 48  1  0
 27 49  1  0
 27 50  1  0
 28 51  1  0
 28 52  1  0
 30 53  1  0
M  END
$$$$
