
     RDKit          3D

 46 48  0  0  0  0  0  0  0  0999 V2000
   -0.6564    3.2536   -1.1577 C   0  0  0  0  0  0  0  0  0  0  0  0
   -1.3355    1.9056   -0.9422 C   0  0  0  0  0  0  0  0  0  0  0  0
   -0.9751    1.2902    0.4185 C   0  0  0  0  0  0  0  0  0  0  0  0
   -1.9673   -0.2300    0.7326 S   0  0  0  0  0  0  0  0  0  0  0  0
   -3.4536    0.4548    1.2713 C   0  0  0  0  0  0  0  0  0  0  0  0
   -3.7946    1.7187    1.2824 N   0  0  0  0  0  0  0  0  0  0  0  0
   -5.0688    1.7321    1.7988 C   0  0  0  0  0  0  0  0  0  0  0  0
   -5.9274    2.8141    2.0395 C   0  0  0  0  0  0  0  0  0  0  0  0
   -7.1945    2.5587    2.5796 C   0  0  0  0  0  0  0  0  0  0  0  0
   -7.5983    1.2535    2.8739 C   0  0  0  0  0  0  0  0  0  0  0  0
   -6.7561    0.1597    2.6411 C   0  0  0  0  0  0  0  0  0  0  0  0
   -5.4997    0.4426    2.1024 C   0  0  0  0  0  0  0  0  0  0  0  0
   -4.4398   -0.3543    1.7527 N   0  0  0  0  0  0  0  0  0  0  0  0
    0.5155    0.9183    0.4921 C   0  0  0  0  0  0  0  0  0  0  0  0
    1.2687    1.5217    1.2540 O   0  0  0  0  0  0  0  0  0  0  0  0
    0.8917   -0.0880   -0.3849 N   0  0  0  0  0  0  0  0  0  0  0  0
    2.1816   -0.6065   -0.6067 C   0  0  0  0  0  0  0  0  0  0  0  0
    2.2946   -1.6827   -1.4927 C   0  0  0  0  0  0  0  0  0  0  0  0
    3.5413   -2.2572   -1.7742 C   0  0  0  0  0  0  0  0  0  0  0  0
    4.6980   -1.7628   -1.1754 C   0  0  0  0  0  0  0  0  0  0  0  0
    5.9895   -2.2808   -1.4006 N   0  0  0  0  0  0  0  0  0  0  0  0
    6.3437   -3.3285   -2.2311 C   0  0  0  0  0  0  0  0  0  0  0  0
    7.8290   -3.5924   -2.2143 C   0  0  0  0  0  0  0  0  0  0  0  0
    5.5982   -3.9907   -2.9441 O   0  0  0  0  0  0  0  0  0  0  0  0
    4.5851   -0.6846   -0.2915 C   0  0  0  0  0  0  0  0  0  0  0  0
    3.3383   -0.1101   -0.0101 C   0  0  0  0  0  0  0  0  0  0  0  0
   -0.9220    3.9574   -0.3625 H   0  0  0  0  0  0  0  0  0  0  0  0
    0.4330    3.1539   -1.1822 H   0  0  0  0  0  0  0  0  0  0  0  0
   -0.9739    3.6858   -2.1121 H   0  0  0  0  0  0  0  0  0  0  0  0
   -1.0552    1.2397   -1.7673 H   0  0  0  0  0  0  0  0  0  0  0  0
   -2.4175    2.0642   -1.0182 H   0  0  0  0  0  0  0  0  0  0  0  0
   -1.1668    2.0046    1.2280 H   0  0  0  0  0  0  0  0  0  0  0  0
   -5.6083    3.8247    1.8102 H   0  0  0  0  0  0  0  0  0  0  0  0
   -7.8702    3.3890    2.7720 H   0  0  0  0  0  0  0  0  0  0  0  0
   -8.5882    1.0840    3.2936 H   0  0  0  0  0  0  0  0  0  0  0  0
   -7.0712   -0.8522    2.8712 H   0  0  0  0  0  0  0  0  0  0  0  0
   -4.3843   -1.3577    1.8355 H   0  0  0  0  0  0  0  0  0  0  0  0
    0.1339   -0.5538   -0.8710 H   0  0  0  0  0  0  0  0  0  0  0  0
    1.4171   -2.0984   -1.9817 H   0  0  0  0  0  0  0  0  0  0  0  0
    3.5691   -3.0917   -2.4678 H   0  0  0  0  0  0  0  0  0  0  0  0
    6.7403   -1.8243   -0.8980 H   0  0  0  0  0  0  0  0  0  0  0  0
    8.3253   -2.9124   -2.9116 H   0  0  0  0  0  0  0  0  0  0  0  0
    8.2399   -3.4548   -1.2100 H   0  0  0  0  0  0  0  0  0  0  0  0
    8.0175   -4.6261   -2.5182 H   0  0  0  0  0  0  0  0  0  0  0  0
    5.4622   -0.2673    0.1966 H   0  0  0  0  0  0  0  0  0  0  0  0
    3.3110    0.7272    0.6801 H   0  0  0  0  0  0  0  0  0  0  0  0
  1  2  1  0
  2  3  1  0
  3  4  1  0
  4  5  1  0
  5  6  2  0
  6  7  1  0
  7  8  2  0
  8  9  1  0
  9 10  2  0
 10 11  1  0
 11 12  2  0
 12 13  1  0
  3 14  1  0
 14 15  2  0
 14 16  1  0
 16 17  1  0
 17 18  2  0
 18 19  1  0
 19 20  2  0
 20 21  1  0
 21 22  1  0
 22 23  1  0
 22 24  2  0
 20 25  1  0
 25 26  2  0
 13  5  1  0
 26 17  1  0
 12  7  1  0
  1 27  1  0
  1 28  1  0
  1 29  1  0
  2 30  1  0
  2 31  1  0
  3 32  1  0
  8 33  1  0
  9 34  1  0
 10 35  1  0
 11 36  1  0
 13 37  1  0
 16 38  1  0
 18 39  1  0
 19 40  1  0
 21 41  1  0
 23 42  1  0
 23 43  1  0
 23 44  1  0
 25 45  1  0
 26 46  1  0
M  END
$$$$
