
     RDKit          3D

 35 36  0  0  0  0  0  0  0  0999 V2000
    6.0980   -0.0575   -2.4095 C   0  0  0  0  0  0  0  0  0  0  0  0
    4.6876   -0.1799   -1.9154 C   0  0  0  0  0  0  0  0  0  0  0  0
    3.6582   -0.5486   -2.7842 C   0  0  0  0  0  0  0  0  0  0  0  0
    2.3504   -0.6942   -2.3097 C   0  0  0  0  0  0  0  0  0  0  0  0
    2.0494   -0.5019   -0.9550 C   0  0  0  0  0  0  0  0  0  0  0  0
    0.6964   -0.6450   -0.5748 N   0  0  0  0  0  0  0  0  0  0  0  0
    0.1034   -0.8622    0.6622 C   0  0  0  0  0  0  0  0  0  0  0  0
    0.8360   -1.4027    2.0645 S   0  0  0  0  0  0  0  0  0  0  0  0
   -1.2583   -0.6121    0.5633 N   0  0  0  0  0  0  0  0  0  0  0  0
   -2.2321   -0.7500    1.6312 C   0  0  0  0  0  0  0  0  0  0  0  0
   -3.5318   -0.2337    1.1184 C   0  0  0  0  0  0  0  0  0  0  0  0
   -4.5419   -0.9076    0.4535 C   0  0  0  0  0  0  0  0  0  0  0  0
   -5.5686    0.0201    0.1675 C   0  0  0  0  0  0  0  0  0  0  0  0
   -5.1662    1.2391    0.6630 C   0  0  0  0  0  0  0  0  0  0  0  0
   -3.9330    1.0796    1.2405 N   0  0  0  0  0  0  0  0  0  0  0  0
   -3.1810    2.1447    1.8698 C   0  0  0  0  0  0  0  0  0  0  0  0
    3.0773   -0.1233   -0.0930 C   0  0  0  0  0  0  0  0  0  0  0  0
    4.3876    0.0239   -0.5656 C   0  0  0  0  0  0  0  0  0  0  0  0
    6.6506    0.6911   -1.8321 H   0  0  0  0  0  0  0  0  0  0  0  0
    6.1189    0.2608   -3.4571 H   0  0  0  0  0  0  0  0  0  0  0  0
    6.6099   -1.0207   -2.3222 H   0  0  0  0  0  0  0  0  0  0  0  0
    3.8649   -0.7258   -3.8372 H   0  0  0  0  0  0  0  0  0  0  0  0
    1.5751   -0.9793   -3.0161 H   0  0  0  0  0  0  0  0  0  0  0  0
    0.0578   -0.7782   -1.3477 H   0  0  0  0  0  0  0  0  0  0  0  0
   -1.5752   -0.1081   -0.2528 H   0  0  0  0  0  0  0  0  0  0  0  0
   -1.8937   -0.2002    2.5146 H   0  0  0  0  0  0  0  0  0  0  0  0
   -2.3097   -1.8103    1.8949 H   0  0  0  0  0  0  0  0  0  0  0  0
   -4.5348   -1.9611    0.2023 H   0  0  0  0  0  0  0  0  0  0  0  0
   -6.5022   -0.1785   -0.3427 H   0  0  0  0  0  0  0  0  0  0  0  0
   -5.6623    2.2011    0.6517 H   0  0  0  0  0  0  0  0  0  0  0  0
   -3.7046    3.0939    1.7297 H   0  0  0  0  0  0  0  0  0  0  0  0
   -2.1945    2.1982    1.4030 H   0  0  0  0  0  0  0  0  0  0  0  0
   -3.0970    1.9217    2.9363 H   0  0  0  0  0  0  0  0  0  0  0  0
    2.8951    0.0981    0.9522 H   0  0  0  0  0  0  0  0  0  0  0  0
    5.1704    0.3088    0.1343 H   0  0  0  0  0  0  0  0  0  0  0  0
  1  2  1  0
  2  3  2  0
  3  4  1  0
  4  5  2  0
  5  6  1  0
  6  7  1  0
  7  8  2  0
  7  9  1  0
  9 10  1  0
 10 11  1  0
 11 12  2  0
 12 13  1  0
 13 14  2  0
 14 15  1  0
 15 16  1  0
  5 17  1  0
 17 18  2  0
 18  2  1  0
 15 11  1  0
  1 19  1  0
  1 20  1  0
  1 21  1  0
  3 22  1  0
  4 23  1  0
  6 24  1  0
  9 25  1  0
 10 26  1  0
 10 27  1  0
 12 28  1  0
 13 29  1  0
 14 30  1  0
 16 31  1  0
 16 32  1  0
 16 33  1  0
 17 34  1  0
 18 35  1  0
M  END
$$$$
