
     RDKit          3D

 39 40  0  0  0  0  0  0  0  0999 V2000
   -3.8633   -2.2435    2.0800 C   0  0  0  0  0  0  0  0  0  0  0  0
   -3.4302   -1.3627    0.9175 C   0  0  0  0  0  0  0  0  0  0  0  0
   -2.5918   -0.1779    1.3987 C   0  0  0  0  0  0  0  0  0  0  0  0
   -2.2448    0.8291    0.2972 C   0  0  0  0  0  0  0  0  0  0  0  0
   -1.3386    0.3067   -0.7116 N   0  0  0  0  0  0  0  0  0  0  0  0
   -1.6728   -0.4561   -1.7817 C   0  0  0  0  0  0  0  0  0  0  0  0
   -2.9093   -0.3336   -2.2967 N   0  0  0  0  0  0  0  0  0  0  0  0
   -0.7746   -1.2484   -2.2837 N   0  0  0  0  0  0  0  0  0  0  0  0
    0.4051   -1.0776   -1.3871 C   0  0  0  0  0  0  0  0  0  0  0  0
    0.0615    0.0469   -0.3824 C   0  0  0  0  0  0  0  0  0  0  0  0
    0.9034    1.3144   -0.5957 C   0  0  0  0  0  0  0  0  0  0  0  0
    2.3284    1.1670   -0.1142 C   0  0  0  0  0  0  0  0  0  0  0  0
    3.3786    1.0214   -1.0310 C   0  0  0  0  0  0  0  0  0  0  0  0
    4.6921    0.8751   -0.5829 C   0  0  0  0  0  0  0  0  0  0  0  0
    4.9599    0.8765    0.7800 C   0  0  0  0  0  0  0  0  0  0  0  0
    6.2573    0.7310    1.1727 O   0  0  0  0  0  0  0  0  0  0  0  0
    3.9338    1.0230    1.7070 C   0  0  0  0  0  0  0  0  0  0  0  0
    2.6188    1.1688    1.2587 C   0  0  0  0  0  0  0  0  0  0  0  0
   -4.4761   -1.6813    2.7919 H   0  0  0  0  0  0  0  0  0  0  0  0
   -2.9951   -2.6432    2.6137 H   0  0  0  0  0  0  0  0  0  0  0  0
   -4.4562   -3.0880    1.7149 H   0  0  0  0  0  0  0  0  0  0  0  0
   -2.8549   -1.9750    0.2157 H   0  0  0  0  0  0  0  0  0  0  0  0
   -4.3207   -1.0020    0.3906 H   0  0  0  0  0  0  0  0  0  0  0  0
   -3.1547    0.3579    2.1739 H   0  0  0  0  0  0  0  0  0  0  0  0
   -1.6806   -0.5486    1.8815 H   0  0  0  0  0  0  0  0  0  0  0  0
   -3.1645    1.2054   -0.1657 H   0  0  0  0  0  0  0  0  0  0  0  0
   -1.7758    1.7014    0.7682 H   0  0  0  0  0  0  0  0  0  0  0  0
   -2.9634   -0.8224   -3.1843 H   0  0  0  0  0  0  0  0  0  0  0  0
   -3.1951    0.6306   -2.3965 H   0  0  0  0  0  0  0  0  0  0  0  0
    1.2900   -0.8592   -1.9917 H   0  0  0  0  0  0  0  0  0  0  0  0
    0.5802   -2.0213   -0.8582 H   0  0  0  0  0  0  0  0  0  0  0  0
    0.1739   -0.3307    0.6398 H   0  0  0  0  0  0  0  0  0  0  0  0
    0.4544    2.1597   -0.0575 H   0  0  0  0  0  0  0  0  0  0  0  0
    0.8897    1.6092   -1.6535 H   0  0  0  0  0  0  0  0  0  0  0  0
    3.1832    1.0189   -2.1014 H   0  0  0  0  0  0  0  0  0  0  0  0
    5.5037    0.7609   -1.2960 H   0  0  0  0  0  0  0  0  0  0  0  0
    6.2919    0.7517    2.1428 H   0  0  0  0  0  0  0  0  0  0  0  0
    4.1354    1.0279    2.7733 H   0  0  0  0  0  0  0  0  0  0  0  0
    1.8213    1.2880    1.9890 H   0  0  0  0  0  0  0  0  0  0  0  0
  1  2  1  0
  2  3  1  0
  3  4  1  0
  4  5  1  0
  5  6  1  0
  6  7  1  0
  6  8  2  0
  8  9  1  0
  9 10  1  0
 10 11  1  0
 11 12  1  0
 12 13  2  0
 13 14  1  0
 14 15  2  0
 15 16  1  0
 15 17  1  0
 17 18  2  0
 10  5  1  0
 18 12  1  0
  1 19  1  0
  1 20  1  0
  1 21  1  0
  2 22  1  0
  2 23  1  0
  3 24  1  0
  3 25  1  0
  4 26  1  0
  4 27  1  0
  7 28  1  0
  7 29  1  0
  9 30  1  0
  9 31  1  0
 10 32  1  0
 11 33  1  0
 11 34  1  0
 13 35  1  0
 14 36  1  0
 16 37  1  0
 17 38  1  0
 18 39  1  0
M  END
$$$$
