
     RDKit          3D

 68 72  0  0  0  0  0  0  0  0999 V2000
    8.8938   -0.3656   -2.5276 C   0  0  0  0  0  0  0  0  0  0  0  0
    8.3230    0.8940   -2.1961 O   0  0  0  0  0  0  0  0  0  0  0  0
    7.1030    0.8722   -1.5813 C   0  0  0  0  0  0  0  0  0  0  0  0
    6.5948    2.1201   -1.2338 C   0  0  0  0  0  0  0  0  0  0  0  0
    5.3519    2.2358   -0.5954 C   0  0  0  0  0  0  0  0  0  0  0  0
    4.5716    1.1141   -0.2807 C   0  0  0  0  0  0  0  0  0  0  0  0
    3.3461    1.2250    0.3529 N   0  0  0  0  0  0  0  0  0  0  0  0
    2.6030    2.4934    0.3949 C   0  0  0  0  0  0  0  0  0  0  0  0
    1.0868    2.2346    0.5678 C   0  0  0  0  0  0  0  0  0  0  0  0
    0.7497    1.5190    1.8092 N   0  0  0  0  0  0  0  0  0  0  0  0
   -0.6040    0.9491    1.8180 C   0  0  0  0  0  0  0  0  0  0  0  0
   -0.8457   -0.1608    0.8268 C   0  0  0  0  0  0  0  0  0  0  0  0
   -0.2952   -1.3667    0.8862 N   0  0  0  0  0  0  0  0  0  0  0  0
   -0.7557   -2.0265   -0.2060 C   0  0  0  0  0  0  0  0  0  0  0  0
   -1.6113   -1.2595   -0.9410 C   0  0  0  0  0  0  0  0  0  0  0  0
   -2.2281   -1.7421   -2.1296 C   0  0  0  0  0  0  0  0  0  0  0  0
   -3.0157   -1.1120   -2.8263 O   0  0  0  0  0  0  0  0  0  0  0  0
   -1.8543   -3.0319   -2.4343 N   0  0  0  0  0  0  0  0  0  0  0  0
   -0.9927   -3.8462   -1.7235 C   0  0  0  0  0  0  0  0  0  0  0  0
   -0.7709   -4.9837   -2.1387 O   0  0  0  0  0  0  0  0  0  0  0  0
   -0.4287   -3.3151   -0.5696 N   0  0  0  0  0  0  0  0  0  0  0  0
    0.4890   -4.0975    0.2345 C   0  0  0  0  0  0  0  0  0  0  0  0
   -1.6900   -0.0664   -0.2709 N   0  0  0  0  0  0  0  0  0  0  0  0
   -2.4895    1.0828   -0.6562 C   0  0  0  0  0  0  0  0  0  0  0  0
   -3.8028    1.2035    0.1185 C   0  0  0  0  0  0  0  0  0  0  0  0
   -4.8057    0.0977   -0.2205 C   0  0  0  0  0  0  0  0  0  0  0  0
   -6.0826    0.2554    0.5671 C   0  0  0  0  0  0  0  0  0  0  0  0
   -6.1852   -0.2706    1.8626 C   0  0  0  0  0  0  0  0  0  0  0  0
   -7.3609   -0.1142    2.5977 C   0  0  0  0  0  0  0  0  0  0  0  0
   -8.4415    0.5714    2.0469 C   0  0  0  0  0  0  0  0  0  0  0  0
   -8.3474    1.1029    0.7618 C   0  0  0  0  0  0  0  0  0  0  0  0
   -7.1727    0.9481    0.0249 C   0  0  0  0  0  0  0  0  0  0  0  0
    1.8001    0.5558    2.1960 C   0  0  0  0  0  0  0  0  0  0  0  0
    2.7362    0.0819    1.0579 C   0  0  0  0  0  0  0  0  0  0  0  0
    5.1059   -0.1311   -0.6483 C   0  0  0  0  0  0  0  0  0  0  0  0
    6.3502   -0.2577   -1.2868 C   0  0  0  0  0  0  0  0  0  0  0  0
    9.8608   -0.1807   -3.0026 H   0  0  0  0  0  0  0  0  0  0  0  0
    8.2692   -0.9044   -3.2466 H   0  0  0  0  0  0  0  0  0  0  0  0
    9.0725   -0.9667   -1.6300 H   0  0  0  0  0  0  0  0  0  0  0  0
    7.1692    3.0163   -1.4530 H   0  0  0  0  0  0  0  0  0  0  0  0
    5.0200    3.2347   -0.3276 H   0  0  0  0  0  0  0  0  0  0  0  0
    2.7328    3.0518   -0.5398 H   0  0  0  0  0  0  0  0  0  0  0  0
    2.9766    3.1139    1.2181 H   0  0  0  0  0  0  0  0  0  0  0  0
    0.7501    1.6750   -0.3135 H   0  0  0  0  0  0  0  0  0  0  0  0
    0.5602    3.1956    0.5604 H   0  0  0  0  0  0  0  0  0  0  0  0
   -0.8149    0.5547    2.8208 H   0  0  0  0  0  0  0  0  0  0  0  0
   -1.3231    1.7638    1.6870 H   0  0  0  0  0  0  0  0  0  0  0  0
   -2.2571   -3.4359   -3.2648 H   0  0  0  0  0  0  0  0  0  0  0  0
    0.0772   -4.2079    1.2428 H   0  0  0  0  0  0  0  0  0  0  0  0
    0.6514   -5.0914   -0.1899 H   0  0  0  0  0  0  0  0  0  0  0  0
    1.4509   -3.5774    0.2860 H   0  0  0  0  0  0  0  0  0  0  0  0
   -2.6717    1.0437   -1.7338 H   0  0  0  0  0  0  0  0  0  0  0  0
   -1.8745    1.9742   -0.4900 H   0  0  0  0  0  0  0  0  0  0  0  0
   -4.2503    2.1783   -0.1143 H   0  0  0  0  0  0  0  0  0  0  0  0
   -3.6037    1.2048    1.1973 H   0  0  0  0  0  0  0  0  0  0  0  0
   -4.3848   -0.8914   -0.0065 H   0  0  0  0  0  0  0  0  0  0  0  0
   -5.0326    0.1095   -1.2936 H   0  0  0  0  0  0  0  0  0  0  0  0
   -5.3504   -0.8089    2.3056 H   0  0  0  0  0  0  0  0  0  0  0  0
   -7.4348   -0.5298    3.5994 H   0  0  0  0  0  0  0  0  0  0  0  0
   -9.3580    0.6898    2.6183 H   0  0  0  0  0  0  0  0  0  0  0  0
   -9.1907    1.6370    0.3324 H   0  0  0  0  0  0  0  0  0  0  0  0
   -7.1154    1.3674   -0.9773 H   0  0  0  0  0  0  0  0  0  0  0  0
    2.4248    1.0671    2.9407 H   0  0  0  0  0  0  0  0  0  0  0  0
    1.3876   -0.3132    2.7227 H   0  0  0  0  0  0  0  0  0  0  0  0
    2.1868   -0.5320    0.3365 H   0  0  0  0  0  0  0  0  0  0  0  0
    3.5082   -0.5459    1.5193 H   0  0  0  0  0  0  0  0  0  0  0  0
    4.5481   -1.0451   -0.4611 H   0  0  0  0  0  0  0  0  0  0  0  0
    6.6909   -1.2561   -1.5386 H   0  0  0  0  0  0  0  0  0  0  0  0
  1  2  1  0
  2  3  1  0
  3  4  2  0
  4  5  1  0
  5  6  2  0
  6  7  1  0
  7  8  1  0
  8  9  1  0
  9 10  1  0
 10 11  1  0
 11 12  1  0
 12 13  2  0
 13 14  1  0
 14 15  2  0
 15 16  1  0
 16 17  2  0
 16 18  1  0
 18 19  1  0
 19 20  2  0
 19 21  1  0
 21 22  1  0
 15 23  1  0
 23 24  1  0
 24 25  1  0
 25 26  1  0
 26 27  1  0
 27 28  2  0
 28 29  1  0
 29 30  2  0
 30 31  1  0
 31 32  2  0
 10 33  1  0
 33 34  1  0
  6 35  1  0
 35 36  2  0
 36  3  1  0
 34  7  1  0
 23 12  1  0
 32 27  1  0
 21 14  1  0
  1 37  1  0
  1 38  1  0
  1 39  1  0
  4 40  1  0
  5 41  1  0
  8 42  1  0
  8 43  1  0
  9 44  1  0
  9 45  1  0
 11 46  1  0
 11 47  1  0
 18 48  1  0
 22 49  1  0
 22 50  1  0
 22 51  1  0
 24 52  1  0
 24 53  1  0
 25 54  1  0
 25 55  1  0
 26 56  1  0
 26 57  1  0
 28 58  1  0
 29 59  1  0
 30 60  1  0
 31 61  1  0
 32 62  1  0
 33 63  1  0
 33 64  1  0
 34 65  1  0
 34 66  1  0
 35 67  1  0
 36 68  1  0
M  END
$$$$
