
     RDKit          3D

 50 52  0  0  0  0  0  0  0  0999 V2000
    4.8358   -4.4354   -1.3613 C   0  0  0  0  0  0  0  0  0  0  0  0
    4.1150   -3.1439   -1.6103 C   0  0  0  0  0  0  0  0  0  0  0  0
    4.7967   -2.0297   -2.1084 C   0  0  0  0  0  0  0  0  0  0  0  0
    4.1094   -0.8417   -2.3753 C   0  0  0  0  0  0  0  0  0  0  0  0
    2.7302   -0.7431   -2.1504 C   0  0  0  0  0  0  0  0  0  0  0  0
    1.9433    0.8135   -2.5403 S   0  0  0  0  0  0  0  0  0  0  0  0
    0.5163    0.8264   -1.3972 C   0  0  0  0  0  0  0  0  0  0  0  0
   -0.1843    2.1845   -1.4693 C   0  0  0  0  0  0  0  0  0  0  0  0
   -0.6821    2.5546   -2.5386 O   0  0  0  0  0  0  0  0  0  0  0  0
   -0.2500    2.9936   -0.3260 N   0  0  0  0  0  0  0  0  0  0  0  0
    0.0525    2.4972    1.0269 C   0  0  0  0  0  0  0  0  0  0  0  0
   -0.9708    1.5201    1.4918 C   0  0  0  0  0  0  0  0  0  0  0  0
   -1.1107    0.2460    1.1983 N   0  0  0  0  0  0  0  0  0  0  0  0
   -2.2222   -0.1126    1.9355 C   0  0  0  0  0  0  0  0  0  0  0  0
   -2.7477   -1.4743    1.9382 C   0  0  0  0  0  0  0  0  0  0  0  0
   -2.0743   -2.4940    1.2453 C   0  0  0  0  0  0  0  0  0  0  0  0
   -2.5643   -3.8020    1.2505 C   0  0  0  0  0  0  0  0  0  0  0  0
   -3.7340   -4.1036    1.9460 C   0  0  0  0  0  0  0  0  0  0  0  0
   -4.4078   -3.1038    2.6460 C   0  0  0  0  0  0  0  0  0  0  0  0
   -3.9176   -1.7953    2.6429 C   0  0  0  0  0  0  0  0  0  0  0  0
   -2.7428    0.8987    2.6543 N   0  0  0  0  0  0  0  0  0  0  0  0
   -1.9105    1.9761    2.3668 O   0  0  0  0  0  0  0  0  0  0  0  0
   -0.8819    4.3258   -0.4713 C   0  0  0  0  0  0  0  0  0  0  0  0
   -0.0636    5.4481    0.1787 C   0  0  0  0  0  0  0  0  0  0  0  0
   -2.3269    4.3369    0.0280 C   0  0  0  0  0  0  0  0  0  0  0  0
    2.0478   -1.8644   -1.6644 C   0  0  0  0  0  0  0  0  0  0  0  0
    2.7342   -3.0532   -1.3919 C   0  0  0  0  0  0  0  0  0  0  0  0
    4.5289   -4.8682   -0.4027 H   0  0  0  0  0  0  0  0  0  0  0  0
    5.9215   -4.2847   -1.3196 H   0  0  0  0  0  0  0  0  0  0  0  0
    4.6200   -5.1445   -2.1669 H   0  0  0  0  0  0  0  0  0  0  0  0
    5.8658   -2.0788   -2.3098 H   0  0  0  0  0  0  0  0  0  0  0  0
    4.6645    0.0092   -2.7655 H   0  0  0  0  0  0  0  0  0  0  0  0
    0.8930    0.5851   -0.4064 H   0  0  0  0  0  0  0  0  0  0  0  0
   -0.2190    0.0660   -1.6856 H   0  0  0  0  0  0  0  0  0  0  0  0
    0.1196    3.3302    1.7310 H   0  0  0  0  0  0  0  0  0  0  0  0
    1.0415    2.0306    1.0204 H   0  0  0  0  0  0  0  0  0  0  0  0
   -1.1491   -2.2782    0.7125 H   0  0  0  0  0  0  0  0  0  0  0  0
   -2.0349   -4.5833    0.7092 H   0  0  0  0  0  0  0  0  0  0  0  0
   -4.1209   -5.1200    1.9453 H   0  0  0  0  0  0  0  0  0  0  0  0
   -5.3258   -3.3382    3.1822 H   0  0  0  0  0  0  0  0  0  0  0  0
   -4.4679   -1.0242    3.1827 H   0  0  0  0  0  0  0  0  0  0  0  0
   -0.9169    4.5718   -1.5401 H   0  0  0  0  0  0  0  0  0  0  0  0
   -0.4564    6.4281   -0.1180 H   0  0  0  0  0  0  0  0  0  0  0  0
   -0.0969    5.4047    1.2736 H   0  0  0  0  0  0  0  0  0  0  0  0
    0.9872    5.3967   -0.1322 H   0  0  0  0  0  0  0  0  0  0  0  0
   -2.8165    5.2795   -0.2386 H   0  0  0  0  0  0  0  0  0  0  0  0
   -2.9056    3.5187   -0.4132 H   0  0  0  0  0  0  0  0  0  0  0  0
   -2.3758    4.2389    1.1162 H   0  0  0  0  0  0  0  0  0  0  0  0
    0.9732   -1.8487   -1.4972 H   0  0  0  0  0  0  0  0  0  0  0  0
    2.1808   -3.9153   -1.0218 H   0  0  0  0  0  0  0  0  0  0  0  0
  1  2  1  0
  2  3  2  0
  3  4  1  0
  4  5  2  0
  5  6  1  0
  6  7  1  0
  7  8  1  0
  8  9  2  0
  8 10  1  0
 10 11  1  0
 11 12  1  0
 12 13  2  0
 13 14  1  0
 14 15  1  0
 15 16  2  0
 16 17  1  0
 17 18  2  0
 18 19  1  0
 19 20  2  0
 14 21  2  0
 21 22  1  0
 10 23  1  0
 23 24  1  0
 23 25  1  0
  5 26  1  0
 26 27  2  0
 27  2  1  0
 22 12  1  0
 20 15  1  0
  1 28  1  0
  1 29  1  0
  1 30  1  0
  3 31  1  0
  4 32  1  0
  7 33  1  0
  7 34  1  0
 11 35  1  0
 11 36  1  0
 16 37  1  0
 17 38  1  0
 18 39  1  0
 19 40  1  0
 20 41  1  0
 23 42  1  0
 24 43  1  0
 24 44  1  0
 24 45  1  0
 25 46  1  0
 25 47  1  0
 25 48  1  0
 26 49  1  0
 27 50  1  0
M  END
$$$$
