
     RDKit          3D

 44 46  0  0  0  0  0  0  0  0999 V2000
    4.0002    1.5145   -1.3634 C   0  0  0  0  0  0  0  0  0  0  0  0
    4.7056    0.5043   -0.4496 C   0  0  0  0  0  0  0  0  0  0  0  0
    6.0324    1.1265    0.0229 C   0  0  0  0  0  0  0  0  0  0  0  0
    5.0153   -0.7852   -1.2230 C   0  0  0  0  0  0  0  0  0  0  0  0
    3.8351    0.1575    0.7785 C   0  0  0  0  0  0  0  0  0  0  0  0
    4.2952    0.2092    1.9240 O   0  0  0  0  0  0  0  0  0  0  0  0
    2.4009   -0.2909    0.5552 C   0  0  0  0  0  0  0  0  0  0  0  0
    1.2664    1.0740    0.9600 S   0  0  0  0  0  0  0  0  0  0  0  0
   -0.3197    0.2908    0.6577 C   0  0  0  0  0  0  0  0  0  0  0  0
   -0.2615   -0.9669    0.1436 N   0  0  0  0  0  0  0  0  0  0  0  0
   -1.4341   -1.5637   -0.1096 C   0  0  0  0  0  0  0  0  0  0  0  0
   -2.6755   -0.9893    0.1111 C   0  0  0  0  0  0  0  0  0  0  0  0
   -2.7447    0.2889    0.6493 C   0  0  0  0  0  0  0  0  0  0  0  0
   -4.0462    0.9127    0.8919 C   0  0  0  0  0  0  0  0  0  0  0  0
   -4.7269    1.8208    0.1061 C   0  0  0  0  0  0  0  0  0  0  0  0
   -5.9724    2.2080    0.6837 C   0  0  0  0  0  0  0  0  0  0  0  0
   -6.1952    1.5855    1.8914 C   0  0  0  0  0  0  0  0  0  0  0  0
   -4.9139    0.5353    2.3197 S   0  0  0  0  0  0  0  0  0  0  0  0
   -1.5316    0.9532    0.9256 C   0  0  0  0  0  0  0  0  0  0  0  0
   -1.5426    2.2818    1.4648 C   0  0  0  0  0  0  0  0  0  0  0  0
   -1.5719    3.3643    1.8845 N   0  0  0  0  0  0  0  0  0  0  0  0
   -3.7713   -1.9392   -0.2611 C   0  0  0  0  0  0  0  0  0  0  0  0
   -3.0137   -2.9428   -1.1437 C   0  0  0  0  0  0  0  0  0  0  0  0
   -1.5686   -2.9658   -0.6326 C   0  0  0  0  0  0  0  0  0  0  0  0
    3.7299    2.4239   -0.8141 H   0  0  0  0  0  0  0  0  0  0  0  0
    3.0810    1.1058   -1.7968 H   0  0  0  0  0  0  0  0  0  0  0  0
    4.6456    1.8100   -2.1987 H   0  0  0  0  0  0  0  0  0  0  0  0
    6.6729    1.3938   -0.8261 H   0  0  0  0  0  0  0  0  0  0  0  0
    6.5966    0.4316    0.6569 H   0  0  0  0  0  0  0  0  0  0  0  0
    5.8560    2.0351    0.6102 H   0  0  0  0  0  0  0  0  0  0  0  0
    4.1087   -1.2405   -1.6353 H   0  0  0  0  0  0  0  0  0  0  0  0
    5.4869   -1.5327   -0.5742 H   0  0  0  0  0  0  0  0  0  0  0  0
    5.6942   -0.5893   -2.0606 H   0  0  0  0  0  0  0  0  0  0  0  0
    2.2606   -0.6145   -0.4788 H   0  0  0  0  0  0  0  0  0  0  0  0
    2.2163   -1.1503    1.2080 H   0  0  0  0  0  0  0  0  0  0  0  0
   -4.3504    2.1985   -0.8372 H   0  0  0  0  0  0  0  0  0  0  0  0
   -6.6631    2.9157    0.2416 H   0  0  0  0  0  0  0  0  0  0  0  0
   -7.0470    1.6999    2.5483 H   0  0  0  0  0  0  0  0  0  0  0  0
   -4.5778   -1.4593   -0.8214 H   0  0  0  0  0  0  0  0  0  0  0  0
   -4.1721   -2.4262    0.6338 H   0  0  0  0  0  0  0  0  0  0  0  0
   -3.0231   -2.5851   -2.1823 H   0  0  0  0  0  0  0  0  0  0  0  0
   -3.4765   -3.9351   -1.1381 H   0  0  0  0  0  0  0  0  0  0  0  0
   -0.8534   -3.1834   -1.4305 H   0  0  0  0  0  0  0  0  0  0  0  0
   -1.4467   -3.6811    0.1883 H   0  0  0  0  0  0  0  0  0  0  0  0
  1  2  1  0
  2  3  1  0
  2  4  1  0
  2  5  1  0
  5  6  2  0
  5  7  1  0
  7  8  1  0
  8  9  1  0
  9 10  2  0
 10 11  1  0
 11 12  2  0
 12 13  1  0
 13 14  1  0
 14 15  2  0
 15 16  1  0
 16 17  2  0
 17 18  1  0
 13 19  2  0
 19 20  1  0
 20 21  3  0
 12 22  1  0
 22 23  1  0
 23 24  1  0
 19  9  1  0
 24 11  1  0
 18 14  1  0
  1 25  1  0
  1 26  1  0
  1 27  1  0
  3 28  1  0
  3 29  1  0
  3 30  1  0
  4 31  1  0
  4 32  1  0
  4 33  1  0
  7 34  1  0
  7 35  1  0
 15 36  1  0
 16 37  1  0
 17 38  1  0
 22 39  1  0
 22 40  1  0
 23 41  1  0
 23 42  1  0
 24 43  1  0
 24 44  1  0
M  END
$$$$
