
     RDKit          3D

 33 36  0  0  0  0  0  0  0  0999 V2000
    6.9413    1.7223    0.6379 C   0  0  0  0  0  0  0  0  0  0  0  0
    5.6304    1.3850    0.0509 C   0  0  0  0  0  0  0  0  0  0  0  0
    4.8483    1.9617   -0.9179 C   0  0  0  0  0  0  0  0  0  0  0  0
    3.6978    1.1436   -1.0260 C   0  0  0  0  0  0  0  0  0  0  0  0
    3.8092    0.1118   -0.1015 C   0  0  0  0  0  0  0  0  0  0  0  0
    2.9755   -0.9974    0.2002 C   0  0  0  0  0  0  0  0  0  0  0  0
    1.6350   -1.0127    0.2307 C   0  0  0  0  0  0  0  0  0  0  0  0
    0.7818   -2.5179    0.6330 S   0  0  0  0  0  0  0  0  0  0  0  0
   -0.7179   -1.7126    0.4730 C   0  0  0  0  0  0  0  0  0  0  0  0
   -1.9680   -2.0505    0.5914 N   0  0  0  0  0  0  0  0  0  0  0  0
   -2.6181   -0.8585    0.2976 C   0  0  0  0  0  0  0  0  0  0  0  0
   -4.0707   -0.7279    0.3260 C   0  0  0  0  0  0  0  0  0  0  0  0
   -4.6228    0.4184    0.9294 C   0  0  0  0  0  0  0  0  0  0  0  0
   -6.0056    0.5968    1.0108 C   0  0  0  0  0  0  0  0  0  0  0  0
   -6.8603   -0.3664    0.4855 C   0  0  0  0  0  0  0  0  0  0  0  0
   -6.3324   -1.5020   -0.1286 C   0  0  0  0  0  0  0  0  0  0  0  0
   -4.9443   -1.6852   -0.2142 C   0  0  0  0  0  0  0  0  0  0  0  0
   -4.3564   -3.2369   -1.1470 Br  0  0  0  0  0  0  0  0  0  0  0  0
   -1.7908    0.1833    0.0522 N   0  0  0  0  0  0  0  0  0  0  0  0
   -0.5898   -0.4128    0.1564 N   0  0  0  0  0  0  0  0  0  0  0  0
    0.6736    0.1185   -0.0014 C   0  0  0  0  0  0  0  0  0  0  0  0
    0.8658    1.2894   -0.2658 O   0  0  0  0  0  0  0  0  0  0  0  0
    5.0241    0.2697    0.5328 O   0  0  0  0  0  0  0  0  0  0  0  0
    6.8482    1.8824    1.7164 H   0  0  0  0  0  0  0  0  0  0  0  0
    7.6566    0.9116    0.4688 H   0  0  0  0  0  0  0  0  0  0  0  0
    7.3486    2.6349    0.1918 H   0  0  0  0  0  0  0  0  0  0  0  0
    5.0761    2.8548   -1.4827 H   0  0  0  0  0  0  0  0  0  0  0  0
    2.8770    1.2974   -1.7131 H   0  0  0  0  0  0  0  0  0  0  0  0
    3.5194   -1.9022    0.4656 H   0  0  0  0  0  0  0  0  0  0  0  0
   -3.9694    1.1840    1.3465 H   0  0  0  0  0  0  0  0  0  0  0  0
   -6.4112    1.4880    1.4836 H   0  0  0  0  0  0  0  0  0  0  0  0
   -7.9374   -0.2311    0.5456 H   0  0  0  0  0  0  0  0  0  0  0  0
   -7.0135   -2.2393   -0.5479 H   0  0  0  0  0  0  0  0  0  0  0  0
  1  2  1  0
  2  3  2  0
  3  4  1  0
  4  5  2  0
  5  6  1  0
  6  7  2  3
  7  8  1  0
  8  9  1  0
  9 10  2  0
 10 11  1  0
 11 12  1  0
 12 13  2  0
 13 14  1  0
 14 15  2  0
 15 16  1  0
 16 17  2  0
 17 18  1  0
 11 19  2  0
 19 20  1  0
 20 21  1  0
 21 22  2  0
  5 23  1  0
 23  2  1  0
 21  7  1  0
 20  9  1  0
 17 12  1  0
  1 24  1  0
  1 25  1  0
  1 26  1  0
  3 27  1  0
  4 28  1  0
  6 29  1  0
 13 30  1  0
 14 31  1  0
 15 32  1  0
 16 33  1  0
M  END
$$$$
