
     RDKit          3D

 57 60  0  0  0  0  0  0  0  0999 V2000
   -6.5453    0.8600    0.6287 C   0  0  0  0  0  0  0  0  0  0  0  0
   -5.6921    1.6898   -0.2534 C   0  0  0  0  0  0  0  0  0  0  0  0
   -6.2508    2.5920   -1.0700 N   0  0  0  0  0  0  0  0  0  0  0  0
   -5.2042    3.1911   -1.7431 O   0  0  0  0  0  0  0  0  0  0  0  0
   -4.0297    2.6550   -1.3228 C   0  0  0  0  0  0  0  0  0  0  0  0
   -2.8032    3.1854   -1.9455 C   0  0  0  0  0  0  0  0  0  0  0  0
   -4.2761    1.6861   -0.3730 C   0  0  0  0  0  0  0  0  0  0  0  0
   -3.2870    0.8404    0.3452 C   0  0  0  0  0  0  0  0  0  0  0  0
   -2.4968    0.0850   -0.5910 O   0  0  0  0  0  0  0  0  0  0  0  0
   -2.6905   -1.2606   -0.4334 C   0  0  0  0  0  0  0  0  0  0  0  0
   -3.5345   -1.9128   -1.3307 C   0  0  0  0  0  0  0  0  0  0  0  0
   -3.7277   -3.2910   -1.2231 C   0  0  0  0  0  0  0  0  0  0  0  0
   -3.0699   -4.0194   -0.2268 C   0  0  0  0  0  0  0  0  0  0  0  0
   -2.2058   -3.3730    0.6588 C   0  0  0  0  0  0  0  0  0  0  0  0
   -2.0058   -1.9950    0.5388 C   0  0  0  0  0  0  0  0  0  0  0  0
   -1.0920   -1.3234    1.4744 C   0  0  0  0  0  0  0  0  0  0  0  0
   -1.5548   -0.9576    2.5519 O   0  0  0  0  0  0  0  0  0  0  0  0
    0.2283   -1.1409    1.0951 N   0  0  0  0  0  0  0  0  0  0  0  0
    0.7846   -1.4590   -0.2265 C   0  0  0  0  0  0  0  0  0  0  0  0
    1.7854   -0.3921   -0.7079 C   0  0  0  0  0  0  0  0  0  0  0  0
    2.8802   -0.2032    0.2592 N   0  0  0  0  0  0  0  0  0  0  0  0
    4.0931    0.3424   -0.1283 C   0  0  0  0  0  0  0  0  0  0  0  0
    4.2186    1.1214   -1.2890 C   0  0  0  0  0  0  0  0  0  0  0  0
    5.4396    1.6803   -1.6820 C   0  0  0  0  0  0  0  0  0  0  0  0
    6.5817    1.4638   -0.9205 C   0  0  0  0  0  0  0  0  0  0  0  0
    6.5100    0.6782    0.2332 C   0  0  0  0  0  0  0  0  0  0  0  0
    7.7370    0.4334    1.0739 C   0  0  0  0  0  0  0  0  0  0  0  0
    7.9111    1.3865    2.0305 F   0  0  0  0  0  0  0  0  0  0  0  0
    8.8898    0.4204    0.3465 F   0  0  0  0  0  0  0  0  0  0  0  0
    7.7069   -0.7579    1.7353 F   0  0  0  0  0  0  0  0  0  0  0  0
    5.2660    0.1399    0.6177 C   0  0  0  0  0  0  0  0  0  0  0  0
    2.6111   -0.5664    1.6635 C   0  0  0  0  0  0  0  0  0  0  0  0
    1.1176   -0.4251    2.0115 C   0  0  0  0  0  0  0  0  0  0  0  0
   -6.2668   -0.1956    0.5559 H   0  0  0  0  0  0  0  0  0  0  0  0
   -6.4291    1.1773    1.6699 H   0  0  0  0  0  0  0  0  0  0  0  0
   -7.6042    0.9460    0.3623 H   0  0  0  0  0  0  0  0  0  0  0  0
   -2.4016    2.4671   -2.6662 H   0  0  0  0  0  0  0  0  0  0  0  0
   -2.0364    3.3760   -1.1877 H   0  0  0  0  0  0  0  0  0  0  0  0
   -2.9982    4.1236   -2.4715 H   0  0  0  0  0  0  0  0  0  0  0  0
   -3.7891    0.2044    1.0867 H   0  0  0  0  0  0  0  0  0  0  0  0
   -2.5976    1.4870    0.9012 H   0  0  0  0  0  0  0  0  0  0  0  0
   -4.0447   -1.3499   -2.1081 H   0  0  0  0  0  0  0  0  0  0  0  0
   -4.3946   -3.7998   -1.9158 H   0  0  0  0  0  0  0  0  0  0  0  0
   -3.2348   -5.0896   -0.1407 H   0  0  0  0  0  0  0  0  0  0  0  0
   -1.6992   -3.9352    1.4377 H   0  0  0  0  0  0  0  0  0  0  0  0
   -0.0018   -1.5805   -0.9729 H   0  0  0  0  0  0  0  0  0  0  0  0
    1.2907   -2.4255   -0.1246 H   0  0  0  0  0  0  0  0  0  0  0  0
    1.2622    0.5617   -0.8473 H   0  0  0  0  0  0  0  0  0  0  0  0
    2.1778   -0.7179   -1.6792 H   0  0  0  0  0  0  0  0  0  0  0  0
    3.3508    1.3338   -1.9076 H   0  0  0  0  0  0  0  0  0  0  0  0
    5.4914    2.2856   -2.5843 H   0  0  0  0  0  0  0  0  0  0  0  0
    7.5280    1.9011   -1.2338 H   0  0  0  0  0  0  0  0  0  0  0  0
    5.2371   -0.4813    1.5104 H   0  0  0  0  0  0  0  0  0  0  0  0
    3.1696    0.0765    2.3546 H   0  0  0  0  0  0  0  0  0  0  0  0
    2.9327   -1.6021    1.8262 H   0  0  0  0  0  0  0  0  0  0  0  0
    0.9355   -0.7690    3.0361 H   0  0  0  0  0  0  0  0  0  0  0  0
    0.8274    0.6325    1.9657 H   0  0  0  0  0  0  0  0  0  0  0  0
  1  2  1  0
  2  3  2  0
  3  4  1  0
  4  5  1  0
  5  6  1  0
  5  7  2  0
  7  8  1  0
  8  9  1  0
  9 10  1  0
 10 11  2  0
 11 12  1  0
 12 13  2  0
 13 14  1  0
 14 15  2  0
 15 16  1  0
 16 17  2  0
 16 18  1  0
 18 19  1  0
 19 20  1  0
 20 21  1  0
 21 22  1  0
 22 23  2  0
 23 24  1  0
 24 25  2  0
 25 26  1  0
 26 27  1  0
 27 28  1  0
 27 29  1  0
 27 30  1  0
 26 31  2  0
 21 32  1  0
 32 33  1  0
  7  2  1  0
 15 10  1  0
 33 18  1  0
 31 22  1  0
  1 34  1  0
  1 35  1  0
  1 36  1  0
  6 37  1  0
  6 38  1  0
  6 39  1  0
  8 40  1  0
  8 41  1  0
 11 42  1  0
 12 43  1  0
 13 44  1  0
 14 45  1  0
 19 46  1  0
 19 47  1  0
 20 48  1  0
 20 49  1  0
 23 50  1  0
 24 51  1  0
 25 52  1  0
 31 53  1  0
 32 54  1  0
 32 55  1  0
 33 56  1  0
 33 57  1  0
M  END
$$$$
