
     RDKit          3D

 38 39  0  0  0  0  0  0  0  0999 V2000
   -0.1479    2.3766   -0.9314 O   0  0  0  0  0  0  0  0  0  0  0  0
    0.1703    1.2192   -0.7133 C   0  0  0  0  0  0  0  0  0  0  0  0
    1.0331    0.4529   -1.4511 N   0  0  0  0  0  0  0  0  0  0  0  0
    1.7707    0.9917   -2.5774 C   0  0  0  0  0  0  0  0  0  0  0  0
    0.8982    1.1927   -3.8178 C   0  0  0  0  0  0  0  0  0  0  0  0
    0.3592   -0.0561   -4.2544 O   0  0  0  0  0  0  0  0  0  0  0  0
   -0.4726    0.4989    0.4538 C   0  0  0  0  0  0  0  0  0  0  0  0
   -1.8540   -0.0398    0.1699 C   0  0  0  0  0  0  0  0  0  0  0  0
   -1.8194   -1.4914   -0.2504 C   0  0  0  0  0  0  0  0  0  0  0  0
   -1.9953   -2.5081    0.7041 C   0  0  0  0  0  0  0  0  0  0  0  0
   -1.9360   -3.8530    0.3325 C   0  0  0  0  0  0  0  0  0  0  0  0
   -1.6943   -4.1869   -0.9974 C   0  0  0  0  0  0  0  0  0  0  0  0
   -1.6093   -6.0068   -1.5013 Br  0  0  0  0  0  0  0  0  0  0  0  0
   -1.5063   -3.1910   -1.9577 C   0  0  0  0  0  0  0  0  0  0  0  0
   -1.5696   -1.8441   -1.5835 C   0  0  0  0  0  0  0  0  0  0  0  0
    0.0720    0.3345    1.6260 N   0  0  0  0  0  0  0  0  0  0  0  0
    1.3516    0.7985    1.8108 C   0  0  0  0  0  0  0  0  0  0  0  0
    2.2868    0.4915    1.0823 O   0  0  0  0  0  0  0  0  0  0  0  0
    1.4475    1.6238    3.0073 C   0  0  0  0  0  0  0  0  0  0  0  0
    0.4704    1.9589    3.9333 C   0  0  0  0  0  0  0  0  0  0  0  0
    0.9650    2.7848    4.9842 C   0  0  0  0  0  0  0  0  0  0  0  0
    2.3043    3.0617    4.8280 C   0  0  0  0  0  0  0  0  0  0  0  0
    2.9567    2.3248    3.4289 S   0  0  0  0  0  0  0  0  0  0  0  0
    1.3417   -0.4335   -1.0630 H   0  0  0  0  0  0  0  0  0  0  0  0
    2.2183    1.9465   -2.2758 H   0  0  0  0  0  0  0  0  0  0  0  0
    2.5735    0.2785   -2.7962 H   0  0  0  0  0  0  0  0  0  0  0  0
    0.0690    1.8788   -3.6206 H   0  0  0  0  0  0  0  0  0  0  0  0
    1.5032    1.6018   -4.6299 H   0  0  0  0  0  0  0  0  0  0  0  0
   -0.1641    0.1285   -5.0523 H   0  0  0  0  0  0  0  0  0  0  0  0
   -2.3410    0.5659   -0.5991 H   0  0  0  0  0  0  0  0  0  0  0  0
   -2.4625    0.0710    1.0762 H   0  0  0  0  0  0  0  0  0  0  0  0
   -2.1783   -2.2551    1.7500 H   0  0  0  0  0  0  0  0  0  0  0  0
   -2.0768   -4.6289    1.0861 H   0  0  0  0  0  0  0  0  0  0  0  0
   -1.2975   -3.4508   -2.9942 H   0  0  0  0  0  0  0  0  0  0  0  0
   -1.4102   -1.0792   -2.3461 H   0  0  0  0  0  0  0  0  0  0  0  0
   -0.5596    1.6268    3.8564 H   0  0  0  0  0  0  0  0  0  0  0  0
    0.3672    3.1587    5.8100 H   0  0  0  0  0  0  0  0  0  0  0  0
    2.9359    3.6575    5.4729 H   0  0  0  0  0  0  0  0  0  0  0  0
  1  2  2  0
  2  3  1  0
  3  4  1  0
  4  5  1  0
  5  6  1  0
  2  7  1  0
  7  8  1  0
  8  9  1  0
  9 10  2  0
 10 11  1  0
 11 12  2  0
 12 13  1  0
 12 14  1  0
 14 15  2  0
  7 16  2  3
 16 17  1  0
 17 18  2  0
 17 19  1  0
 19 20  2  0
 20 21  1  0
 21 22  2  0
 22 23  1  0
 15  9  1  0
 23 19  1  0
  3 24  1  0
  4 25  1  0
  4 26  1  0
  5 27  1  0
  5 28  1  0
  6 29  1  0
  8 30  1  0
  8 31  1  0
 10 32  1  0
 11 33  1  0
 14 34  1  0
 15 35  1  0
 20 36  1  0
 21 37  1  0
 22 38  1  0
M  END
$$$$
