
     RDKit          3D

 61 65  0  0  0  0  0  0  0  0999 V2000
    5.8833    4.5493    0.9008 C   0  0  0  0  0  0  0  0  0  0  0  0
    4.5567    4.3617    0.4243 O   0  0  0  0  0  0  0  0  0  0  0  0
    4.0172    3.1147    0.5784 C   0  0  0  0  0  0  0  0  0  0  0  0
    4.6532    2.0074    1.1365 C   0  0  0  0  0  0  0  0  0  0  0  0
    3.9802    0.7838    1.2325 C   0  0  0  0  0  0  0  0  0  0  0  0
    2.6613    0.6466    0.7754 C   0  0  0  0  0  0  0  0  0  0  0  0
    1.9490   -0.6915    0.8705 C   0  0  0  0  0  0  0  0  0  0  0  0
    1.9243   -1.3946   -0.4066 N   0  0  0  0  0  0  0  0  0  0  0  0
    3.1336   -2.0036   -0.7756 C   0  0  0  0  0  0  0  0  0  0  0  0
    4.0420   -2.2381    0.0281 O   0  0  0  0  0  0  0  0  0  0  0  0
    3.3557   -2.2578   -2.2710 C   0  0  0  0  0  0  0  0  0  0  0  0
    4.0321   -1.0464   -2.9082 C   0  0  0  0  0  0  0  0  0  0  0  0
    2.1252   -2.5888   -2.9693 N   0  0  0  0  0  0  0  0  0  0  0  0
    1.0245   -1.8034   -2.6484 C   0  0  0  0  0  0  0  0  0  0  0  0
    0.1525   -1.6587   -3.6569 N   0  0  0  0  0  0  0  0  0  0  0  0
   -0.9647   -0.9989   -3.3664 C   0  0  0  0  0  0  0  0  0  0  0  0
   -1.3043   -0.5337   -2.1630 N   0  0  0  0  0  0  0  0  0  0  0  0
   -0.4296   -0.7110   -1.1482 C   0  0  0  0  0  0  0  0  0  0  0  0
   -0.9165   -0.4188    0.1420 N   0  0  0  0  0  0  0  0  0  0  0  0
   -1.4103   -1.6636    0.8092 C   0  0  0  0  0  0  0  0  0  0  0  0
   -2.9509   -1.7176    0.9186 C   0  0  0  0  0  0  0  0  0  0  0  0
   -3.4875   -0.5459    1.6643 N   0  0  0  0  0  0  0  0  0  0  0  0
   -4.8834   -0.4560    1.5502 C   0  0  0  0  0  0  0  0  0  0  0  0
   -5.6786   -1.3994    2.2213 C   0  0  0  0  0  0  0  0  0  0  0  0
   -7.0736   -1.3727    2.1380 C   0  0  0  0  0  0  0  0  0  0  0  0
   -7.7041   -0.3985    1.3720 C   0  0  0  0  0  0  0  0  0  0  0  0
   -6.9381    0.5446    0.6934 C   0  0  0  0  0  0  0  0  0  0  0  0
   -5.5415    0.5144    0.7827 C   0  0  0  0  0  0  0  0  0  0  0  0
   -2.6763    0.6875    1.5222 C   0  0  0  0  0  0  0  0  0  0  0  0
   -1.8957    0.7021    0.1909 C   0  0  0  0  0  0  0  0  0  0  0  0
    0.8393   -1.2843   -1.3588 C   0  0  0  0  0  0  0  0  0  0  0  0
    2.0342    1.7622    0.2105 C   0  0  0  0  0  0  0  0  0  0  0  0
    2.7071    2.9832    0.1156 C   0  0  0  0  0  0  0  0  0  0  0  0
    5.9429    4.3789    1.9810 H   0  0  0  0  0  0  0  0  0  0  0  0
    6.1621    5.5907    0.7121 H   0  0  0  0  0  0  0  0  0  0  0  0
    6.5910    3.9123    0.3596 H   0  0  0  0  0  0  0  0  0  0  0  0
    5.6729    2.0556    1.5033 H   0  0  0  0  0  0  0  0  0  0  0  0
    4.5014   -0.0719    1.6601 H   0  0  0  0  0  0  0  0  0  0  0  0
    0.9755   -0.5521    1.3275 H   0  0  0  0  0  0  0  0  0  0  0  0
    2.4801   -1.3211    1.5974 H   0  0  0  0  0  0  0  0  0  0  0  0
    4.0216   -3.1246   -2.3551 H   0  0  0  0  0  0  0  0  0  0  0  0
    3.4173   -0.1431   -2.8249 H   0  0  0  0  0  0  0  0  0  0  0  0
    4.2256   -1.2216   -3.9719 H   0  0  0  0  0  0  0  0  0  0  0  0
    4.9883   -0.8345   -2.4172 H   0  0  0  0  0  0  0  0  0  0  0  0
    2.1762   -2.7097   -3.9755 H   0  0  0  0  0  0  0  0  0  0  0  0
   -1.6727   -0.8444   -4.1729 H   0  0  0  0  0  0  0  0  0  0  0  0
   -1.0512   -2.5736    0.3118 H   0  0  0  0  0  0  0  0  0  0  0  0
   -0.9911   -1.6803    1.8231 H   0  0  0  0  0  0  0  0  0  0  0  0
   -3.3776   -1.7533   -0.0931 H   0  0  0  0  0  0  0  0  0  0  0  0
   -3.2293   -2.6436    1.4354 H   0  0  0  0  0  0  0  0  0  0  0  0
   -5.2038   -2.1575    2.8394 H   0  0  0  0  0  0  0  0  0  0  0  0
   -7.6620   -2.1100    2.6766 H   0  0  0  0  0  0  0  0  0  0  0  0
   -8.7881   -0.3737    1.3038 H   0  0  0  0  0  0  0  0  0  0  0  0
   -7.4244    1.3047    0.0880 H   0  0  0  0  0  0  0  0  0  0  0  0
   -4.9830    1.2527    0.2167 H   0  0  0  0  0  0  0  0  0  0  0  0
   -3.2745    1.5991    1.6299 H   0  0  0  0  0  0  0  0  0  0  0  0
   -1.9599    0.7044    2.3538 H   0  0  0  0  0  0  0  0  0  0  0  0
   -2.6249    0.6596   -0.6274 H   0  0  0  0  0  0  0  0  0  0  0  0
   -1.3518    1.6492    0.1043 H   0  0  0  0  0  0  0  0  0  0  0  0
    1.0181    1.6928   -0.1643 H   0  0  0  0  0  0  0  0  0  0  0  0
    2.2048    3.8406   -0.3258 H   0  0  0  0  0  0  0  0  0  0  0  0
  1  2  1  0
  2  3  1  0
  3  4  2  0
  4  5  1  0
  5  6  2  0
  6  7  1  0
  7  8  1  0
  8  9  1  0
  9 10  2  0
  9 11  1  0
 11 12  1  0
 11 13  1  0
 13 14  1  0
 14 15  2  0
 15 16  1  0
 16 17  2  0
 17 18  1  0
 18 19  1  0
 19 20  1  0
 20 21  1  0
 21 22  1  0
 22 23  1  0
 23 24  2  0
 24 25  1  0
 25 26  2  0
 26 27  1  0
 27 28  2  0
 22 29  1  0
 29 30  1  0
 18 31  2  0
  6 32  1  0
 32 33  2  0
 33  3  1  0
 31  8  1  0
 31 14  1  0
 30 19  1  0
 28 23  1  0
  1 34  1  0
  1 35  1  0
  1 36  1  0
  4 37  1  0
  5 38  1  0
  7 39  1  0
  7 40  1  0
 11 41  1  0
 12 42  1  0
 12 43  1  0
 12 44  1  0
 13 45  1  0
 16 46  1  0
 20 47  1  0
 20 48  1  0
 21 49  1  0
 21 50  1  0
 24 51  1  0
 25 52  1  0
 26 53  1  0
 27 54  1  0
 28 55  1  0
 29 56  1  0
 29 57  1  0
 30 58  1  0
 30 59  1  0
 32 60  1  0
 33 61  1  0
M  END
$$$$
