
     RDKit          3D

 36 37  0  0  0  0  0  0  0  0999 V2000
   -7.0997    1.3159    0.1120 C   0  0  0  0  0  0  0  0  0  0  0  0
   -5.6945    1.6417   -0.3295 C   0  0  0  0  0  0  0  0  0  0  0  0
   -5.4417    2.7046   -0.8865 O   0  0  0  0  0  0  0  0  0  0  0  0
   -4.8015    0.6324   -0.0144 N   0  0  0  0  0  0  0  0  0  0  0  0
   -3.4138    0.6083   -0.2633 C   0  0  0  0  0  0  0  0  0  0  0  0
   -2.6994    1.6694   -0.8172 C   0  0  0  0  0  0  0  0  0  0  0  0
   -1.3179    1.5626   -1.0290 C   0  0  0  0  0  0  0  0  0  0  0  0
   -0.6274    0.3911   -0.7000 C   0  0  0  0  0  0  0  0  0  0  0  0
    0.7605    0.3680   -0.9522 N   0  0  0  0  0  0  0  0  0  0  0  0
    1.6306   -0.6993   -0.7803 C   0  0  0  0  0  0  0  0  0  0  0  0
    1.3229   -1.8298   -0.4106 O   0  0  0  0  0  0  0  0  0  0  0  0
    3.0705   -0.3512   -1.1429 C   0  0  0  0  0  0  0  0  0  0  0  0
    4.0542   -0.6780   -0.0422 C   0  0  0  0  0  0  0  0  0  0  0  0
    4.5625   -1.9830    0.0856 C   0  0  0  0  0  0  0  0  0  0  0  0
    5.4651   -2.2936    1.1047 C   0  0  0  0  0  0  0  0  0  0  0  0
    5.8571   -1.3026    1.9977 C   0  0  0  0  0  0  0  0  0  0  0  0
    6.7270   -1.6006    2.9730 F   0  0  0  0  0  0  0  0  0  0  0  0
    5.3613   -0.0058    1.8927 C   0  0  0  0  0  0  0  0  0  0  0  0
    4.4553    0.3071    0.8759 C   0  0  0  0  0  0  0  0  0  0  0  0
   -1.3410   -0.6680   -0.1431 C   0  0  0  0  0  0  0  0  0  0  0  0
   -2.7216   -0.5587    0.0767 C   0  0  0  0  0  0  0  0  0  0  0  0
   -7.2131    1.5605    1.1730 H   0  0  0  0  0  0  0  0  0  0  0  0
   -7.8121    1.9060   -0.4759 H   0  0  0  0  0  0  0  0  0  0  0  0
   -7.3227    0.2557   -0.0487 H   0  0  0  0  0  0  0  0  0  0  0  0
   -5.1845   -0.1926    0.4315 H   0  0  0  0  0  0  0  0  0  0  0  0
   -3.1833    2.6017   -1.0920 H   0  0  0  0  0  0  0  0  0  0  0  0
   -0.8003    2.4159   -1.4608 H   0  0  0  0  0  0  0  0  0  0  0  0
    1.1464    1.2241   -1.3288 H   0  0  0  0  0  0  0  0  0  0  0  0
    3.3271   -0.9082   -2.0545 H   0  0  0  0  0  0  0  0  0  0  0  0
    3.1651    0.7095   -1.4072 H   0  0  0  0  0  0  0  0  0  0  0  0
    4.2493   -2.7641   -0.6076 H   0  0  0  0  0  0  0  0  0  0  0  0
    5.8600   -3.3006    1.2083 H   0  0  0  0  0  0  0  0  0  0  0  0
    5.6822    0.7501    2.6027 H   0  0  0  0  0  0  0  0  0  0  0  0
    4.0740    1.3233    0.8027 H   0  0  0  0  0  0  0  0  0  0  0  0
   -0.8567   -1.5975    0.1392 H   0  0  0  0  0  0  0  0  0  0  0  0
   -3.2399   -1.4104    0.5111 H   0  0  0  0  0  0  0  0  0  0  0  0
  1  2  1  0
  2  3  2  0
  2  4  1  0
  4  5  1  0
  5  6  2  0
  6  7  1  0
  7  8  2  0
  8  9  1  0
  9 10  1  0
 10 11  2  0
 10 12  1  0
 12 13  1  0
 13 14  2  0
 14 15  1  0
 15 16  2  0
 16 17  1  0
 16 18  1  0
 18 19  2  0
  8 20  1  0
 20 21  2  0
 21  5  1  0
 19 13  1  0
  1 22  1  0
  1 23  1  0
  1 24  1  0
  4 25  1  0
  6 26  1  0
  7 27  1  0
  9 28  1  0
 12 29  1  0
 12 30  1  0
 14 31  1  0
 15 32  1  0
 18 33  1  0
 19 34  1  0
 20 35  1  0
 21 36  1  0
M  END
$$$$
