
     RDKit          3D

 48 50  0  0  0  0  0  0  0  0999 V2000
   -1.7606    1.0711   -0.9896 O   0  0  0  0  0  0  0  0  0  0  0  0
   -2.1636   -0.0776   -1.1548 C   0  0  0  0  0  0  0  0  0  0  0  0
   -1.4369   -1.3147   -0.6698 C   0  0  0  0  0  0  0  0  0  0  0  0
   -0.1175   -0.9696    0.0158 C   0  0  0  0  0  0  0  0  0  0  0  0
    0.5971   -2.2280    0.5106 C   0  0  0  0  0  0  0  0  0  0  0  0
    1.8715   -1.9057    1.1519 N   0  0  0  0  0  0  0  0  0  0  0  0
    3.0012   -1.7939    0.3586 C   0  0  0  0  0  0  0  0  0  0  0  0
    3.0519   -1.9743   -0.8507 O   0  0  0  0  0  0  0  0  0  0  0  0
    4.1765   -1.4194    1.1861 C   0  0  0  0  0  0  0  0  0  0  0  0
    5.3903   -1.2382    0.6500 C   0  0  0  0  0  0  0  0  0  0  0  0
    6.5908   -0.8506    1.4024 C   0  0  0  0  0  0  0  0  0  0  0  0
    7.4185   -1.8660    1.9032 C   0  0  0  0  0  0  0  0  0  0  0  0
    8.5662   -1.5491    2.6334 C   0  0  0  0  0  0  0  0  0  0  0  0
    8.8983   -0.2167    2.8701 C   0  0  0  0  0  0  0  0  0  0  0  0
    8.0837    0.8025    2.3763 C   0  0  0  0  0  0  0  0  0  0  0  0
    6.9341    0.4895    1.6451 C   0  0  0  0  0  0  0  0  0  0  0  0
    5.9692    1.7978    1.0541 Cl  0  0  0  0  0  0  0  0  0  0  0  0
    3.7183   -1.2640    2.8331 S   0  0  0  0  0  0  0  0  0  0  0  0
    2.0325   -1.6398    2.4966 C   0  0  0  0  0  0  0  0  0  0  0  0
    0.8725   -1.6576    3.6959 S   0  0  0  0  0  0  0  0  0  0  0  0
   -3.3401   -0.3688   -1.8181 N   0  0  0  0  0  0  0  0  0  0  0  0
   -4.1945    0.7055   -2.0983 N   0  0  0  0  0  0  0  0  0  0  0  0
   -5.5524    0.4638   -2.1154 C   0  0  0  0  0  0  0  0  0  0  0  0
   -6.0180   -0.6690   -2.0096 O   0  0  0  0  0  0  0  0  0  0  0  0
   -6.4470    1.6417   -2.2887 C   0  0  0  0  0  0  0  0  0  0  0  0
   -6.0598    2.9423   -1.9362 C   0  0  0  0  0  0  0  0  0  0  0  0
   -6.9460    4.0100   -2.1183 C   0  0  0  0  0  0  0  0  0  0  0  0
   -8.2170    3.7800   -2.6436 C   0  0  0  0  0  0  0  0  0  0  0  0
   -9.3011    5.0966   -2.8645 Cl  0  0  0  0  0  0  0  0  0  0  0  0
   -8.6160    2.4894   -2.9839 C   0  0  0  0  0  0  0  0  0  0  0  0
   -7.7336    1.4209   -2.8025 C   0  0  0  0  0  0  0  0  0  0  0  0
   -1.2520   -1.9665   -1.5316 H   0  0  0  0  0  0  0  0  0  0  0  0
   -2.0942   -1.8453    0.0291 H   0  0  0  0  0  0  0  0  0  0  0  0
   -0.3017   -0.2881    0.8554 H   0  0  0  0  0  0  0  0  0  0  0  0
    0.5300   -0.4237   -0.6822 H   0  0  0  0  0  0  0  0  0  0  0  0
   -0.0418   -2.7771    1.2096 H   0  0  0  0  0  0  0  0  0  0  0  0
    0.7899   -2.8971   -0.3368 H   0  0  0  0  0  0  0  0  0  0  0  0
    5.5413   -1.3605   -0.4211 H   0  0  0  0  0  0  0  0  0  0  0  0
    7.1740   -2.9124    1.7313 H   0  0  0  0  0  0  0  0  0  0  0  0
    9.2004   -2.3439    3.0193 H   0  0  0  0  0  0  0  0  0  0  0  0
    9.7913    0.0291    3.4398 H   0  0  0  0  0  0  0  0  0  0  0  0
    8.3493    1.8397    2.5648 H   0  0  0  0  0  0  0  0  0  0  0  0
   -3.8042   -1.2711   -1.7086 H   0  0  0  0  0  0  0  0  0  0  0  0
   -3.7585    1.6232   -2.1433 H   0  0  0  0  0  0  0  0  0  0  0  0
   -5.0892    3.1494   -1.4948 H   0  0  0  0  0  0  0  0  0  0  0  0
   -6.6417    5.0165   -1.8407 H   0  0  0  0  0  0  0  0  0  0  0  0
   -9.6088    2.3061   -3.3867 H   0  0  0  0  0  0  0  0  0  0  0  0
   -8.0524    0.4135   -3.0661 H   0  0  0  0  0  0  0  0  0  0  0  0
  1  2  2  0
  2  3  1  0
  3  4  1  0
  4  5  1  0
  5  6  1  0
  6  7  1  0
  7  8  2  0
  7  9  1  0
  9 10  2  3
 10 11  1  0
 11 12  2  0
 12 13  1  0
 13 14  2  0
 14 15  1  0
 15 16  2  0
 16 17  1  0
  9 18  1  0
 18 19  1  0
 19 20  2  0
  2 21  1  0
 21 22  1  0
 22 23  1  0
 23 24  2  0
 23 25  1  0
 25 26  2  0
 26 27  1  0
 27 28  2  0
 28 29  1  0
 28 30  1  0
 30 31  2  0
 19  6  1  0
 31 25  1  0
 16 11  1  0
  3 32  1  0
  3 33  1  0
  4 34  1  0
  4 35  1  0
  5 36  1  0
  5 37  1  0
 10 38  1  0
 12 39  1  0
 13 40  1  0
 14 41  1  0
 15 42  1  0
 21 43  1  0
 22 44  1  0
 26 45  1  0
 27 46  1  0
 30 47  1  0
 31 48  1  0
M  END
$$$$
