
     RDKit          3D

 48 50  0  0  0  0  0  0  0  0999 V2000
    4.0062   -3.9359    1.0597 C   0  0  0  0  0  0  0  0  0  0  0  0
    3.6861   -2.7206    0.3979 O   0  0  0  0  0  0  0  0  0  0  0  0
    2.3587   -2.4182    0.2211 C   0  0  0  0  0  0  0  0  0  0  0  0
    1.3000   -3.2339    0.6383 C   0  0  0  0  0  0  0  0  0  0  0  0
   -0.0225   -2.8456    0.4104 C   0  0  0  0  0  0  0  0  0  0  0  0
   -0.2884   -1.6404   -0.2394 C   0  0  0  0  0  0  0  0  0  0  0  0
   -1.6946   -1.2566   -0.4739 C   0  0  0  0  0  0  0  0  0  0  0  0
   -2.0097   -0.1722   -1.1124 N   0  0  0  0  0  0  0  0  0  0  0  0
   -3.3538    0.0732   -1.2299 N   0  0  0  0  0  0  0  0  0  0  0  0
   -4.2323    0.1866   -0.1894 C   0  0  0  0  0  0  0  0  0  0  0  0
   -4.0338   -0.2180    1.0494 N   0  0  0  0  0  0  0  0  0  0  0  0
   -5.1262    0.0794    1.8132 C   0  0  0  0  0  0  0  0  0  0  0  0
   -5.1623   -0.2165    3.1180 O   0  0  0  0  0  0  0  0  0  0  0  0
   -6.1838    0.6857    1.1788 C   0  0  0  0  0  0  0  0  0  0  0  0
   -7.4980    1.1153    1.7360 C   0  0  0  0  0  0  0  0  0  0  0  0
   -7.3620    2.4219    2.4795 C   0  0  0  0  0  0  0  0  0  0  0  0
   -6.4500    3.2305    2.4331 O   0  0  0  0  0  0  0  0  0  0  0  0
   -8.4497    2.6823    3.2387 O   0  0  0  0  0  0  0  0  0  0  0  0
   -5.7790    0.9114   -0.4693 S   0  0  0  0  0  0  0  0  0  0  0  0
    0.7593   -0.8142   -0.6585 C   0  0  0  0  0  0  0  0  0  0  0  0
    2.0854   -1.1952   -0.4290 C   0  0  0  0  0  0  0  0  0  0  0  0
    3.1813   -0.4550   -0.7990 O   0  0  0  0  0  0  0  0  0  0  0  0
    2.9525    0.8214   -1.3928 C   0  0  0  0  0  0  0  0  0  0  0  0
    4.2913    1.4561   -1.6920 C   0  0  0  0  0  0  0  0  0  0  0  0
    5.1842    0.8324   -2.5791 C   0  0  0  0  0  0  0  0  0  0  0  0
    6.4206    1.4147   -2.8673 C   0  0  0  0  0  0  0  0  0  0  0  0
    6.7714    2.6243   -2.2686 C   0  0  0  0  0  0  0  0  0  0  0  0
    8.2947    3.3435   -2.6218 Cl  0  0  0  0  0  0  0  0  0  0  0  0
    5.8974    3.2554   -1.3846 C   0  0  0  0  0  0  0  0  0  0  0  0
    4.6602    2.6729   -1.0966 C   0  0  0  0  0  0  0  0  0  0  0  0
    5.0967   -4.0121    1.1101 H   0  0  0  0  0  0  0  0  0  0  0  0
    3.6389   -4.8011    0.4975 H   0  0  0  0  0  0  0  0  0  0  0  0
    3.6247   -3.9388    2.0863 H   0  0  0  0  0  0  0  0  0  0  0  0
    1.4719   -4.1787    1.1437 H   0  0  0  0  0  0  0  0  0  0  0  0
   -0.8323   -3.4910    0.7411 H   0  0  0  0  0  0  0  0  0  0  0  0
   -2.4645   -1.9512   -0.0910 H   0  0  0  0  0  0  0  0  0  0  0  0
   -3.5854    0.6788   -2.0160 H   0  0  0  0  0  0  0  0  0  0  0  0
   -4.2892   -0.5938    3.3272 H   0  0  0  0  0  0  0  0  0  0  0  0
   -8.2469    1.2444    0.9471 H   0  0  0  0  0  0  0  0  0  0  0  0
   -7.8614    0.3517    2.4334 H   0  0  0  0  0  0  0  0  0  0  0  0
   -8.2389    3.5437    3.6576 H   0  0  0  0  0  0  0  0  0  0  0  0
    0.5125    0.1162   -1.1591 H   0  0  0  0  0  0  0  0  0  0  0  0
    2.3826    1.4604   -0.7055 H   0  0  0  0  0  0  0  0  0  0  0  0
    2.4020    0.7188   -2.3378 H   0  0  0  0  0  0  0  0  0  0  0  0
    4.9192   -0.1194   -3.0395 H   0  0  0  0  0  0  0  0  0  0  0  0
    7.1031    0.9176   -3.5522 H   0  0  0  0  0  0  0  0  0  0  0  0
    6.1735    4.1967   -0.9143 H   0  0  0  0  0  0  0  0  0  0  0  0
    3.9905    3.1729   -0.3991 H   0  0  0  0  0  0  0  0  0  0  0  0
  1  2  1  0
  2  3  1  0
  3  4  2  0
  4  5  1  0
  5  6  2  0
  6  7  1  0
  7  8  2  3
  8  9  1  0
  9 10  1  0
 10 11  2  0
 11 12  1  0
 12 13  1  0
 12 14  2  0
 14 15  1  0
 15 16  1  0
 16 17  2  0
 16 18  1  0
 14 19  1  0
  6 20  1  0
 20 21  2  0
 21 22  1  0
 22 23  1  0
 23 24  1  0
 24 25  2  0
 25 26  1  0
 26 27  2  0
 27 28  1  0
 27 29  1  0
 29 30  2  0
 21  3  1  0
 30 24  1  0
 19 10  1  0
  1 31  1  0
  1 32  1  0
  1 33  1  0
  4 34  1  0
  5 35  1  0
  7 36  1  0
  9 37  1  0
 13 38  1  0
 15 39  1  0
 15 40  1  0
 18 41  1  0
 20 42  1  0
 23 43  1  0
 23 44  1  0
 25 45  1  0
 26 46  1  0
 29 47  1  0
 30 48  1  0
M  END
$$$$
