
     RDKit          3D

 41 43  0  0  0  0  0  0  0  0999 V2000
    2.2187    1.2851   -5.0107 Cl  0  0  0  0  0  0  0  0  0  0  0  0
    2.9590    0.0611   -4.0402 C   0  0  0  0  0  0  0  0  0  0  0  0
    4.3564   -0.0090   -4.0507 C   0  0  0  0  0  0  0  0  0  0  0  0
    5.0184   -0.9703   -3.2886 C   0  0  0  0  0  0  0  0  0  0  0  0
    4.2848   -1.8637   -2.5143 C   0  0  0  0  0  0  0  0  0  0  0  0
    2.8904   -1.7976   -2.5032 C   0  0  0  0  0  0  0  0  0  0  0  0
    2.2030   -0.8355   -3.2667 C   0  0  0  0  0  0  0  0  0  0  0  0
    0.6938   -0.7951   -3.2052 C   0  0  0  0  0  0  0  0  0  0  0  0
    0.0699    0.4611   -2.0475 S   0  0  0  0  0  0  0  0  0  0  0  0
    0.3058   -0.3384   -0.5331 C   0  0  0  0  0  0  0  0  0  0  0  0
    0.2973   -1.6346   -0.3113 N   0  0  0  0  0  0  0  0  0  0  0  0
    0.5808   -1.8307    1.0245 N   0  0  0  0  0  0  0  0  0  0  0  0
    0.7369   -0.6455    1.5752 C   0  0  0  0  0  0  0  0  0  0  0  0
    0.5393    0.3325    0.6420 N   0  0  0  0  0  0  0  0  0  0  0  0
    0.6621    1.7525    0.8562 N   0  0  0  0  0  0  0  0  0  0  0  0
   -0.5146    2.2908    1.5402 C   0  0  0  0  0  0  0  0  0  0  0  0
   -1.7416    2.3016    0.6750 C   0  0  0  0  0  0  0  0  0  0  0  0
   -2.8828    1.6234    0.8797 C   0  0  0  0  0  0  0  0  0  0  0  0
   -3.1167    0.7212    2.0063 C   0  0  0  0  0  0  0  0  0  0  0  0
   -3.5495    1.2247    3.2375 C   0  0  0  0  0  0  0  0  0  0  0  0
   -3.7474    0.3623    4.3176 C   0  0  0  0  0  0  0  0  0  0  0  0
   -3.5117   -1.0044    4.1717 C   0  0  0  0  0  0  0  0  0  0  0  0
   -3.0822   -1.5107    2.9458 C   0  0  0  0  0  0  0  0  0  0  0  0
   -2.8887   -0.6508    1.8635 C   0  0  0  0  0  0  0  0  0  0  0  0
    4.9365    0.6865   -4.6521 H   0  0  0  0  0  0  0  0  0  0  0  0
    6.1042   -1.0205   -3.2975 H   0  0  0  0  0  0  0  0  0  0  0  0
    4.7953   -2.6134   -1.9141 H   0  0  0  0  0  0  0  0  0  0  0  0
    2.3386   -2.5043   -1.8832 H   0  0  0  0  0  0  0  0  0  0  0  0
    0.2863   -0.5802   -4.1991 H   0  0  0  0  0  0  0  0  0  0  0  0
    0.2908   -1.7815   -2.9463 H   0  0  0  0  0  0  0  0  0  0  0  0
    0.9760   -0.4400    2.6074 H   0  0  0  0  0  0  0  0  0  0  0  0
    0.7802    2.2361   -0.0336 H   0  0  0  0  0  0  0  0  0  0  0  0
   -0.2946    3.3304    1.8115 H   0  0  0  0  0  0  0  0  0  0  0  0
   -0.6715    1.7719    2.4921 H   0  0  0  0  0  0  0  0  0  0  0  0
   -1.6927    2.9416   -0.2047 H   0  0  0  0  0  0  0  0  0  0  0  0
   -3.7062    1.7112    0.1746 H   0  0  0  0  0  0  0  0  0  0  0  0
   -3.7335    2.2889    3.3627 H   0  0  0  0  0  0  0  0  0  0  0  0
   -4.0846    0.7563    5.2727 H   0  0  0  0  0  0  0  0  0  0  0  0
   -3.6632   -1.6761    5.0127 H   0  0  0  0  0  0  0  0  0  0  0  0
   -2.8933   -2.5751    2.8295 H   0  0  0  0  0  0  0  0  0  0  0  0
   -2.5494   -1.0618    0.9147 H   0  0  0  0  0  0  0  0  0  0  0  0
  1  2  1  0
  2  3  2  0
  3  4  1  0
  4  5  2  0
  5  6  1  0
  6  7  2  0
  7  8  1  0
  8  9  1  0
  9 10  1  0
 10 11  2  0
 11 12  1  0
 12 13  2  0
 13 14  1  0
 14 15  1  0
 15 16  1  0
 16 17  1  0
 17 18  2  3
 18 19  1  0
 19 20  2  0
 20 21  1  0
 21 22  2  0
 22 23  1  0
 23 24  2  0
  7  2  1  0
 14 10  1  0
 24 19  1  0
  3 25  1  0
  4 26  1  0
  5 27  1  0
  6 28  1  0
  8 29  1  0
  8 30  1  0
 13 31  1  0
 15 32  1  0
 16 33  1  0
 16 34  1  0
 17 35  1  0
 18 36  1  0
 20 37  1  0
 21 38  1  0
 22 39  1  0
 23 40  1  0
 24 41  1  0
M  END
$$$$
