
     RDKit          3D

 58 61  0  0  0  0  0  0  0  0999 V2000
    1.4387   -1.8613    2.3413 O   0  0  0  0  0  0  0  0  0  0  0  0
    1.7134   -0.6664    2.2397 C   0  0  0  0  0  0  0  0  0  0  0  0
    3.0958   -0.1539    1.8916 C   0  0  0  0  0  0  0  0  0  0  0  0
    3.6390   -0.8662    0.6522 C   0  0  0  0  0  0  0  0  0  0  0  0
    5.1058   -0.5132    0.3359 C   0  0  0  0  0  0  0  0  0  0  0  0
    5.6236   -1.4152   -0.7991 C   0  0  0  0  0  0  0  0  0  0  0  0
    7.0653   -1.0856   -1.1782 C   0  0  0  0  0  0  0  0  0  0  0  0
    7.2267    0.3852   -1.5441 C   0  0  0  0  0  0  0  0  0  0  0  0
    6.7207    1.2945   -0.4303 C   0  0  0  0  0  0  0  0  0  0  0  0
    5.2808    0.9688   -0.0383 C   0  0  0  0  0  0  0  0  0  0  0  0
    0.7809    0.3277    2.4701 N   0  0  0  0  0  0  0  0  0  0  0  0
   -0.5687   -0.1074    2.5376 N   0  0  0  0  0  0  0  0  0  0  0  0
   -1.4045    0.3859    1.5519 C   0  0  0  0  0  0  0  0  0  0  0  0
   -1.0860    1.3279    0.8336 O   0  0  0  0  0  0  0  0  0  0  0  0
   -2.6039   -0.2769    1.5124 N   0  0  0  0  0  0  0  0  0  0  0  0
   -3.6658   -0.0212    0.5335 C   0  0  0  0  0  0  0  0  0  0  0  0
   -4.8459   -0.9851    0.8351 C   0  0  0  0  0  0  0  0  0  0  0  0
   -5.9998   -0.7729   -0.1574 C   0  0  0  0  0  0  0  0  0  0  0  0
   -5.4885   -1.0354   -1.5835 C   0  0  0  0  0  0  0  0  0  0  0  0
   -4.3382   -0.0717   -1.9134 C   0  0  0  0  0  0  0  0  0  0  0  0
   -4.8422    1.3774   -1.7975 C   0  0  0  0  0  0  0  0  0  0  0  0
   -5.3516    1.6489   -0.3717 C   0  0  0  0  0  0  0  0  0  0  0  0
   -6.4964    0.6765   -0.0500 C   0  0  0  0  0  0  0  0  0  0  0  0
   -4.2015    1.4303    0.6274 C   0  0  0  0  0  0  0  0  0  0  0  0
   -3.1871   -0.2906   -0.9148 C   0  0  0  0  0  0  0  0  0  0  0  0
    3.7399   -0.3460    2.7587 H   0  0  0  0  0  0  0  0  0  0  0  0
    3.0623    0.9292    1.7327 H   0  0  0  0  0  0  0  0  0  0  0  0
    3.5584   -1.9516    0.7952 H   0  0  0  0  0  0  0  0  0  0  0  0
    3.0029   -0.6221   -0.2104 H   0  0  0  0  0  0  0  0  0  0  0  0
    5.7091   -0.7160    1.2315 H   0  0  0  0  0  0  0  0  0  0  0  0
    4.9833   -1.3044   -1.6843 H   0  0  0  0  0  0  0  0  0  0  0  0
    5.5650   -2.4677   -0.4954 H   0  0  0  0  0  0  0  0  0  0  0  0
    7.3795   -1.7095   -2.0228 H   0  0  0  0  0  0  0  0  0  0  0  0
    7.7280   -1.3263   -0.3385 H   0  0  0  0  0  0  0  0  0  0  0  0
    6.6747    0.5959   -2.4680 H   0  0  0  0  0  0  0  0  0  0  0  0
    8.2829    0.6004   -1.7455 H   0  0  0  0  0  0  0  0  0  0  0  0
    7.3676    1.1907    0.4491 H   0  0  0  0  0  0  0  0  0  0  0  0
    6.7869    2.3407   -0.7515 H   0  0  0  0  0  0  0  0  0  0  0  0
    4.6147    1.2217   -0.8731 H   0  0  0  0  0  0  0  0  0  0  0  0
    4.9993    1.6127    0.8020 H   0  0  0  0  0  0  0  0  0  0  0  0
    0.8925    1.2255    1.9974 H   0  0  0  0  0  0  0  0  0  0  0  0
   -0.6462   -1.1013    2.7512 H   0  0  0  0  0  0  0  0  0  0  0  0
   -2.6310   -1.1663    1.9898 H   0  0  0  0  0  0  0  0  0  0  0  0
   -4.5021   -2.0262    0.7788 H   0  0  0  0  0  0  0  0  0  0  0  0
   -5.2050   -0.8355    1.8615 H   0  0  0  0  0  0  0  0  0  0  0  0
   -6.8201   -1.4620    0.0725 H   0  0  0  0  0  0  0  0  0  0  0  0
   -6.3050   -0.9070   -2.3041 H   0  0  0  0  0  0  0  0  0  0  0  0
   -5.1449   -2.0745   -1.6713 H   0  0  0  0  0  0  0  0  0  0  0  0
   -3.9832   -0.2582   -2.9330 H   0  0  0  0  0  0  0  0  0  0  0  0
   -5.6487    1.5502   -2.5213 H   0  0  0  0  0  0  0  0  0  0  0  0
   -4.0345    2.0765   -2.0468 H   0  0  0  0  0  0  0  0  0  0  0  0
   -5.7137    2.6806   -0.2978 H   0  0  0  0  0  0  0  0  0  0  0  0
   -7.3329    0.8380   -0.7408 H   0  0  0  0  0  0  0  0  0  0  0  0
   -6.8762    0.8651    0.9606 H   0  0  0  0  0  0  0  0  0  0  0  0
   -4.5492    1.6362    1.6470 H   0  0  0  0  0  0  0  0  0  0  0  0
   -3.4079    2.1582    0.4206 H   0  0  0  0  0  0  0  0  0  0  0  0
   -2.3515    0.3691   -1.1796 H   0  0  0  0  0  0  0  0  0  0  0  0
   -2.8054   -1.3159   -1.0040 H   0  0  0  0  0  0  0  0  0  0  0  0
  1  2  2  0
  2  3  1  0
  3  4  1  0
  4  5  1  0
  5  6  1  0
  6  7  1  0
  7  8  1  0
  8  9  1  0
  9 10  1  0
  2 11  1  0
 11 12  1  0
 12 13  1  0
 13 14  2  0
 13 15  1  0
 15 16  1  0
 16 17  1  0
 17 18  1  0
 18 19  1  0
 19 20  1  0
 20 21  1  0
 21 22  1  0
 22 23  1  0
 22 24  1  0
 20 25  1  0
 10  5  1  0
 24 16  1  0
 25 16  1  0
 23 18  1  0
  3 26  1  0
  3 27  1  0
  4 28  1  0
  4 29  1  0
  5 30  1  0
  6 31  1  0
  6 32  1  0
  7 33  1  0
  7 34  1  0
  8 35  1  0
  8 36  1  0
  9 37  1  0
  9 38  1  0
 10 39  1  0
 10 40  1  0
 11 41  1  0
 12 42  1  0
 15 43  1  0
 17 44  1  0
 17 45  1  0
 18 46  1  0
 19 47  1  0
 19 48  1  0
 20 49  1  0
 21 50  1  0
 21 51  1  0
 22 52  1  0
 23 53  1  0
 23 54  1  0
 24 55  1  0
 24 56  1  0
 25 57  1  0
 25 58  1  0
M  END
$$$$
