
     RDKit          3D

 51 55  0  0  0  0  0  0  0  0999 V2000
   -1.4249    1.5250    1.3815 C   0  0  0  0  0  0  0  0  0  0  0  0
   -0.0443    1.7079    1.5286 C   0  0  0  0  0  0  0  0  0  0  0  0
    0.8208    0.9492    0.7239 C   0  0  0  0  0  0  0  0  0  0  0  0
    0.3276    0.0298   -0.2064 C   0  0  0  0  0  0  0  0  0  0  0  0
   -1.0683   -0.1317   -0.3382 C   0  0  0  0  0  0  0  0  0  0  0  0
   -1.9530    0.6191    0.4559 C   0  0  0  0  0  0  0  0  0  0  0  0
   -3.4579    0.4522    0.3360 C   0  0  0  0  0  0  0  0  0  0  0  0
   -3.9239   -0.9062    0.8996 C   0  0  0  0  0  0  0  0  0  0  0  0
   -5.2554   -1.3843    0.3124 C   0  0  0  0  0  0  0  0  0  0  0  0
   -6.1524   -0.2225   -0.0913 C   0  0  0  0  0  0  0  0  0  0  0  0
   -5.4992    0.6608   -1.1560 C   0  0  0  0  0  0  0  0  0  0  0  0
   -3.9685    0.6629   -1.0970 C   0  0  0  0  0  0  0  0  0  0  0  0
    1.4485   -0.5586   -0.8502 C   0  0  0  0  0  0  0  0  0  0  0  0
    2.5924   -0.0291   -0.2798 C   0  0  0  0  0  0  0  0  0  0  0  0
    2.2024    0.9197    0.6319 N   0  0  0  0  0  0  0  0  0  0  0  0
    3.1132    1.8121    1.3239 C   0  0  0  0  0  0  0  0  0  0  0  0
    4.1862    1.0950    2.1293 C   0  0  0  0  0  0  0  0  0  0  0  0
    5.2776    0.4789    1.2586 C   0  0  0  0  0  0  0  0  0  0  0  0
    4.8401   -0.6818    0.4932 N   0  0  0  0  0  0  0  0  0  0  0  0
    3.9996   -0.3614   -0.6635 C   0  0  0  0  0  0  0  0  0  0  0  0
    3.9950   -1.6102   -1.5932 C   0  0  0  0  0  0  0  0  0  0  0  0
    2.8600   -1.5770   -2.6294 C   0  0  0  0  0  0  0  0  0  0  0  0
    1.4848   -1.5723   -1.9424 C   0  0  0  0  0  0  0  0  0  0  0  0
   -2.0914    2.1111    2.0116 H   0  0  0  0  0  0  0  0  0  0  0  0
    0.3295    2.4197    2.2564 H   0  0  0  0  0  0  0  0  0  0  0  0
   -1.4477   -0.8518   -1.0570 H   0  0  0  0  0  0  0  0  0  0  0  0
   -3.9283    1.2354    0.9486 H   0  0  0  0  0  0  0  0  0  0  0  0
   -4.0190   -0.8140    1.9897 H   0  0  0  0  0  0  0  0  0  0  0  0
   -3.1777   -1.6936    0.7358 H   0  0  0  0  0  0  0  0  0  0  0  0
   -5.7677   -2.0244    1.0396 H   0  0  0  0  0  0  0  0  0  0  0  0
   -5.0591   -2.0085   -0.5686 H   0  0  0  0  0  0  0  0  0  0  0  0
   -6.3760    0.3832    0.7961 H   0  0  0  0  0  0  0  0  0  0  0  0
   -7.1136   -0.5954   -0.4628 H   0  0  0  0  0  0  0  0  0  0  0  0
   -5.8109    0.3306   -2.1545 H   0  0  0  0  0  0  0  0  0  0  0  0
   -5.8762    1.6845   -1.0424 H   0  0  0  0  0  0  0  0  0  0  0  0
   -3.5918    1.6057   -1.5126 H   0  0  0  0  0  0  0  0  0  0  0  0
   -3.5917   -0.1325   -1.7530 H   0  0  0  0  0  0  0  0  0  0  0  0
    2.5321    2.4448    2.0004 H   0  0  0  0  0  0  0  0  0  0  0  0
    3.5535    2.4712    0.5662 H   0  0  0  0  0  0  0  0  0  0  0  0
    4.6618    1.8272    2.7938 H   0  0  0  0  0  0  0  0  0  0  0  0
    3.7375    0.3296    2.7752 H   0  0  0  0  0  0  0  0  0  0  0  0
    6.0761    0.1407    1.9305 H   0  0  0  0  0  0  0  0  0  0  0  0
    5.7329    1.2332    0.6051 H   0  0  0  0  0  0  0  0  0  0  0  0
    5.6665   -1.1774    0.1613 H   0  0  0  0  0  0  0  0  0  0  0  0
    4.4250    0.4745   -1.2345 H   0  0  0  0  0  0  0  0  0  0  0  0
    4.9609   -1.6856   -2.1084 H   0  0  0  0  0  0  0  0  0  0  0  0
    3.8845   -2.5285   -0.9986 H   0  0  0  0  0  0  0  0  0  0  0  0
    2.9681   -0.6819   -3.2551 H   0  0  0  0  0  0  0  0  0  0  0  0
    2.9335   -2.4459   -3.2929 H   0  0  0  0  0  0  0  0  0  0  0  0
    0.7066   -1.3670   -2.6858 H   0  0  0  0  0  0  0  0  0  0  0  0
    1.2824   -2.5622   -1.5161 H   0  0  0  0  0  0  0  0  0  0  0  0
  1  2  2  0
  2  3  1  0
  3  4  2  0
  4  5  1  0
  5  6  2  0
  6  7  1  0
  7  8  1  0
  8  9  1  0
  9 10  1  0
 10 11  1  0
 11 12  1  0
  4 13  1  0
 13 14  2  0
 14 15  1  0
 15 16  1  0
 16 17  1  0
 17 18  1  0
 18 19  1  0
 19 20  1  0
 20 21  1  0
 21 22  1  0
 22 23  1  0
  6  1  1  0
 12  7  1  0
 23 13  1  0
 15  3  1  0
 20 14  1  0
  1 24  1  0
  2 25  1  0
  5 26  1  0
  7 27  1  0
  8 28  1  0
  8 29  1  0
  9 30  1  0
  9 31  1  0
 10 32  1  0
 10 33  1  0
 11 34  1  0
 11 35  1  0
 12 36  1  0
 12 37  1  0
 16 38  1  0
 16 39  1  0
 17 40  1  0
 17 41  1  0
 18 42  1  0
 18 43  1  0
 19 44  1  0
 20 45  1  0
 21 46  1  0
 21 47  1  0
 22 48  1  0
 22 49  1  0
 23 50  1  0
 23 51  1  0
M  END
$$$$
