
     RDKit          3D

 47 48  0  0  0  0  0  0  0  0999 V2000
   -1.3995    2.2583   -1.7705 C   0  0  0  0  0  0  0  0  0  0  0  0
   -0.1682    1.5653   -1.9343 O   0  0  0  0  0  0  0  0  0  0  0  0
    0.8637    1.9201   -1.1111 C   0  0  0  0  0  0  0  0  0  0  0  0
    0.9370    3.1270   -0.4096 C   0  0  0  0  0  0  0  0  0  0  0  0
    2.0585    3.4246    0.3736 C   0  0  0  0  0  0  0  0  0  0  0  0
    3.1242    2.5288    0.4525 C   0  0  0  0  0  0  0  0  0  0  0  0
    3.0674    1.3245   -0.2443 C   0  0  0  0  0  0  0  0  0  0  0  0
    1.9327    1.0183   -1.0074 C   0  0  0  0  0  0  0  0  0  0  0  0
    1.9036   -0.2890   -1.7011 C   0  0  0  0  0  0  0  0  0  0  0  0
    2.6847   -0.4433   -2.6363 O   0  0  0  0  0  0  0  0  0  0  0  0
    1.0418   -1.2771   -1.1920 N   0  0  0  0  0  0  0  0  0  0  0  0
    0.6586   -1.1792    0.1733 N   0  0  0  0  0  0  0  0  0  0  0  0
   -0.5834   -0.6854    0.5111 C   0  0  0  0  0  0  0  0  0  0  0  0
   -1.5470   -0.5940   -0.2381 O   0  0  0  0  0  0  0  0  0  0  0  0
   -0.5529   -0.3006    1.8453 O   0  0  0  0  0  0  0  0  0  0  0  0
   -1.7151    0.3295    2.2992 C   0  0  0  0  0  0  0  0  0  0  0  0
   -2.8858   -0.3975    2.5070 C   0  0  0  0  0  0  0  0  0  0  0  0
   -4.0114    0.2564    3.0063 C   0  0  0  0  0  0  0  0  0  0  0  0
   -3.9527    1.6195    3.3069 C   0  0  0  0  0  0  0  0  0  0  0  0
   -2.7675    2.3329    3.1132 C   0  0  0  0  0  0  0  0  0  0  0  0
   -1.6389    1.6854    2.6131 C   0  0  0  0  0  0  0  0  0  0  0  0
    1.0039   -2.6679   -1.7342 C   0  0  0  0  0  0  0  0  0  0  0  0
    0.7212   -2.6437   -3.2523 C   0  0  0  0  0  0  0  0  0  0  0  0
    2.3457   -3.3789   -1.4737 C   0  0  0  0  0  0  0  0  0  0  0  0
   -0.1196   -3.5238   -1.0985 C   0  0  0  0  0  0  0  0  0  0  0  0
   -1.3251    3.2761   -2.1663 H   0  0  0  0  0  0  0  0  0  0  0  0
   -1.7223    2.2672   -0.7241 H   0  0  0  0  0  0  0  0  0  0  0  0
   -2.1611    1.7290   -2.3509 H   0  0  0  0  0  0  0  0  0  0  0  0
    0.1454    3.8673   -0.4706 H   0  0  0  0  0  0  0  0  0  0  0  0
    2.1078    4.3717    0.9068 H   0  0  0  0  0  0  0  0  0  0  0  0
    4.0019    2.7762    1.0446 H   0  0  0  0  0  0  0  0  0  0  0  0
    3.9024    0.6293   -0.2031 H   0  0  0  0  0  0  0  0  0  0  0  0
    1.4024   -1.0577    0.8498 H   0  0  0  0  0  0  0  0  0  0  0  0
   -2.9291   -1.4567    2.2728 H   0  0  0  0  0  0  0  0  0  0  0  0
   -4.9353   -0.2950    3.1602 H   0  0  0  0  0  0  0  0  0  0  0  0
   -4.8331    2.1258    3.6955 H   0  0  0  0  0  0  0  0  0  0  0  0
   -2.7257    3.3915    3.3553 H   0  0  0  0  0  0  0  0  0  0  0  0
   -0.7127    2.2326    2.4677 H   0  0  0  0  0  0  0  0  0  0  0  0
    0.5844   -3.6575   -3.6466 H   0  0  0  0  0  0  0  0  0  0  0  0
   -0.1888   -2.0725   -3.4699 H   0  0  0  0  0  0  0  0  0  0  0  0
    1.5372   -2.1936   -3.8246 H   0  0  0  0  0  0  0  0  0  0  0  0
    2.3251   -4.4114   -1.8406 H   0  0  0  0  0  0  0  0  0  0  0  0
    3.1806   -2.8733   -1.9693 H   0  0  0  0  0  0  0  0  0  0  0  0
    2.5727   -3.4081   -0.4019 H   0  0  0  0  0  0  0  0  0  0  0  0
    0.0274   -3.6596   -0.0212 H   0  0  0  0  0  0  0  0  0  0  0  0
   -0.1521   -4.5258   -1.5428 H   0  0  0  0  0  0  0  0  0  0  0  0
   -1.1027   -3.0658   -1.2517 H   0  0  0  0  0  0  0  0  0  0  0  0
  1  2  1  0
  2  3  1  0
  3  4  2  0
  4  5  1  0
  5  6  2  0
  6  7  1  0
  7  8  2  0
  8  9  1  0
  9 10  2  0
  9 11  1  0
 11 12  1  0
 12 13  1  0
 13 14  2  0
 13 15  1  0
 15 16  1  0
 16 17  2  0
 17 18  1  0
 18 19  2  0
 19 20  1  0
 20 21  2  0
 11 22  1  0
 22 23  1  0
 22 24  1  0
 22 25  1  0
  8  3  1  0
 21 16  1  0
  1 26  1  0
  1 27  1  0
  1 28  1  0
  4 29  1  0
  5 30  1  0
  6 31  1  0
  7 32  1  0
 12 33  1  0
 17 34  1  0
 18 35  1  0
 19 36  1  0
 20 37  1  0
 21 38  1  0
 23 39  1  0
 23 40  1  0
 23 41  1  0
 24 42  1  0
 24 43  1  0
 24 44  1  0
 25 45  1  0
 25 46  1  0
 25 47  1  0
M  END
$$$$
