
     RDKit          3D

 55 57  0  0  0  0  0  0  0  0999 V2000
   -7.4509   -3.6866    0.6970 C   0  0  0  0  0  0  0  0  0  0  0  0
   -7.6145   -2.2973    0.4532 O   0  0  0  0  0  0  0  0  0  0  0  0
   -6.5011   -1.4984    0.5438 C   0  0  0  0  0  0  0  0  0  0  0  0
   -5.2313   -1.9520    0.9158 C   0  0  0  0  0  0  0  0  0  0  0  0
   -4.1547   -1.0638    0.9829 C   0  0  0  0  0  0  0  0  0  0  0  0
   -4.3371    0.2862    0.6782 C   0  0  0  0  0  0  0  0  0  0  0  0
   -3.2169    1.2285    0.7465 C   0  0  0  0  0  0  0  0  0  0  0  0
   -2.2333    1.3306   -0.1573 C   0  0  0  0  0  0  0  0  0  0  0  0
   -2.0170    0.4158   -1.5924 S   0  0  0  0  0  0  0  0  0  0  0  0
   -0.5650    1.2985   -2.0499 C   0  0  0  0  0  0  0  0  0  0  0  0
    0.2683    0.9493   -3.4534 S   0  0  0  0  0  0  0  0  0  0  0  0
   -0.2727    2.2503   -1.0938 N   0  0  0  0  0  0  0  0  0  0  0  0
    0.8527    3.1869   -1.1461 C   0  0  0  0  0  0  0  0  0  0  0  0
    2.0064    2.8038   -0.2132 C   0  0  0  0  0  0  0  0  0  0  0  0
    2.7417    1.5378   -0.6514 C   0  0  0  0  0  0  0  0  0  0  0  0
    3.9688    1.2552    0.2027 C   0  0  0  0  0  0  0  0  0  0  0  0
    4.2595    1.9464    1.1711 O   0  0  0  0  0  0  0  0  0  0  0  0
    4.6637    0.1508   -0.2650 N   0  0  0  0  0  0  0  0  0  0  0  0
    5.8550   -0.3986    0.2543 C   0  0  0  0  0  0  0  0  0  0  0  0
    6.5285    0.1076    1.3676 C   0  0  0  0  0  0  0  0  0  0  0  0
    7.7103   -0.4893    1.8177 C   0  0  0  0  0  0  0  0  0  0  0  0
    8.2303   -1.6010    1.1576 C   0  0  0  0  0  0  0  0  0  0  0  0
    7.5665   -2.1193    0.0427 C   0  0  0  0  0  0  0  0  0  0  0  0
    8.1513   -3.3005   -0.6364 C   0  0  0  0  0  0  0  0  0  0  0  0
    9.1638   -3.8878   -0.3052 O   0  0  0  0  0  0  0  0  0  0  0  0
    7.4387   -3.6908   -1.7084 O   0  0  0  0  0  0  0  0  0  0  0  0
    6.3814   -1.5177   -0.4054 C   0  0  0  0  0  0  0  0  0  0  0  0
   -1.1500    2.3386   -0.0239 C   0  0  0  0  0  0  0  0  0  0  0  0
   -1.0743    3.1283    0.9071 O   0  0  0  0  0  0  0  0  0  0  0  0
   -5.6066    0.7484    0.3112 C   0  0  0  0  0  0  0  0  0  0  0  0
   -6.6908   -0.1346    0.2391 C   0  0  0  0  0  0  0  0  0  0  0  0
   -7.9663    0.2312   -0.1159 O   0  0  0  0  0  0  0  0  0  0  0  0
   -8.1944    1.5910   -0.4563 C   0  0  0  0  0  0  0  0  0  0  0  0
   -8.4233   -4.1679    0.5537 H   0  0  0  0  0  0  0  0  0  0  0  0
   -6.7501   -4.1345   -0.0157 H   0  0  0  0  0  0  0  0  0  0  0  0
   -7.1384   -3.8713    1.7296 H   0  0  0  0  0  0  0  0  0  0  0  0
   -5.0454   -2.9916    1.1630 H   0  0  0  0  0  0  0  0  0  0  0  0
   -3.1766   -1.4379    1.2767 H   0  0  0  0  0  0  0  0  0  0  0  0
   -3.2365    1.8959    1.6073 H   0  0  0  0  0  0  0  0  0  0  0  0
    0.4770    4.1721   -0.8418 H   0  0  0  0  0  0  0  0  0  0  0  0
    1.2181    3.2968   -2.1717 H   0  0  0  0  0  0  0  0  0  0  0  0
    2.7169    3.6407   -0.1906 H   0  0  0  0  0  0  0  0  0  0  0  0
    1.6415    2.6798    0.8142 H   0  0  0  0  0  0  0  0  0  0  0  0
    3.0724    1.6443   -1.6910 H   0  0  0  0  0  0  0  0  0  0  0  0
    2.0766    0.6703   -0.5800 H   0  0  0  0  0  0  0  0  0  0  0  0
    4.2826   -0.3133   -1.0818 H   0  0  0  0  0  0  0  0  0  0  0  0
    6.1639    0.9739    1.9115 H   0  0  0  0  0  0  0  0  0  0  0  0
    8.2240   -0.0808    2.6848 H   0  0  0  0  0  0  0  0  0  0  0  0
    9.1513   -2.0577    1.5142 H   0  0  0  0  0  0  0  0  0  0  0  0
    7.9399   -4.4621   -2.0498 H   0  0  0  0  0  0  0  0  0  0  0  0
    5.8735   -1.9260   -1.2750 H   0  0  0  0  0  0  0  0  0  0  0  0
   -5.7264    1.8021    0.0819 H   0  0  0  0  0  0  0  0  0  0  0  0
   -9.2497    1.6961   -0.7258 H   0  0  0  0  0  0  0  0  0  0  0  0
   -8.0029    2.2489    0.3978 H   0  0  0  0  0  0  0  0  0  0  0  0
   -7.5985    1.8868   -1.3260 H   0  0  0  0  0  0  0  0  0  0  0  0
  1  2  1  0
  2  3  1  0
  3  4  2  0
  4  5  1  0
  5  6  2  0
  6  7  1  0
  7  8  2  3
  8  9  1  0
  9 10  1  0
 10 11  2  0
 10 12  1  0
 12 13  1  0
 13 14  1  0
 14 15  1  0
 15 16  1  0
 16 17  2  0
 16 18  1  0
 18 19  1  0
 19 20  2  0
 20 21  1  0
 21 22  2  0
 22 23  1  0
 23 24  1  0
 24 25  2  0
 24 26  1  0
 23 27  2  0
 12 28  1  0
 28 29  2  0
  6 30  1  0
 30 31  2  0
 31 32  1  0
 32 33  1  0
 31  3  1  0
 28  8  1  0
 27 19  1  0
  1 34  1  0
  1 35  1  0
  1 36  1  0
  4 37  1  0
  5 38  1  0
  7 39  1  0
 13 40  1  0
 13 41  1  0
 14 42  1  0
 14 43  1  0
 15 44  1  0
 15 45  1  0
 18 46  1  0
 20 47  1  0
 21 48  1  0
 22 49  1  0
 26 50  1  0
 27 51  1  0
 30 52  1  0
 33 53  1  0
 33 54  1  0
 33 55  1  0
M  END
$$$$
