
     RDKit          3D

 58 60  0  0  0  0  0  0  0  0999 V2000
   -8.0930   -3.8117    1.7093 C   0  0  0  0  0  0  0  0  0  0  0  0
   -6.8675   -3.8721    0.9916 O   0  0  0  0  0  0  0  0  0  0  0  0
   -6.0488   -2.7732    1.0257 C   0  0  0  0  0  0  0  0  0  0  0  0
   -6.3555   -1.5777    1.6869 C   0  0  0  0  0  0  0  0  0  0  0  0
   -5.4464   -0.5156    1.6692 C   0  0  0  0  0  0  0  0  0  0  0  0
   -5.7007    0.6869    2.2822 O   0  0  0  0  0  0  0  0  0  0  0  0
   -6.0968    0.5432    3.6466 C   0  0  0  0  0  0  0  0  0  0  0  0
   -4.2473   -0.6247    0.9525 C   0  0  0  0  0  0  0  0  0  0  0  0
   -3.3056    0.4521    0.9861 N   0  0  0  0  0  0  0  0  0  0  0  0
   -2.1276    0.3826    2.2053 S   0  0  0  0  0  6  0  0  0  0  0  0
   -2.6266   -0.3798    3.3293 O   0  0  0  0  0  0  0  0  0  0  0  0
   -1.6261    1.7296    2.3712 O   0  0  0  0  0  0  0  0  0  0  0  0
   -0.8374   -0.5514    1.4172 C   0  0  0  0  0  0  0  0  0  0  0  0
   -0.5620   -1.8565    1.8343 C   0  0  0  0  0  0  0  0  0  0  0  0
    0.4488   -2.5830    1.1993 C   0  0  0  0  0  0  0  0  0  0  0  0
    1.1936   -2.0048    0.1640 C   0  0  0  0  0  0  0  0  0  0  0  0
    2.3696   -2.9944   -0.6231 Cl  0  0  0  0  0  0  0  0  0  0  0  0
    0.9312   -0.6848   -0.2230 C   0  0  0  0  0  0  0  0  0  0  0  0
    1.6725   -0.0129   -1.3012 C   0  0  0  0  0  0  0  0  0  0  0  0
    1.1330    0.4943   -2.2695 O   0  0  0  0  0  0  0  0  0  0  0  0
    2.9830    0.0165   -0.9833 O   0  0  0  0  0  0  0  0  0  0  0  0
    3.8455    0.6790   -1.9253 C   0  0  0  0  0  0  0  0  0  0  0  0
    4.3241   -0.3501   -2.9424 C   0  0  0  0  0  0  0  0  0  0  0  0
    5.0459    1.2735   -1.1651 C   0  0  0  0  0  0  0  0  0  0  0  0
    5.3389    0.8999   -0.0262 O   0  0  0  0  0  0  0  0  0  0  0  0
    5.7973    2.2392   -1.8077 N   0  0  0  0  0  0  0  0  0  0  0  0
    6.9634    2.8194   -1.1630 C   0  0  0  0  0  0  0  0  0  0  0  0
    7.6209    3.6547   -2.2508 C   0  0  0  0  0  0  0  0  0  0  0  0
    6.4320    4.1161   -3.0828 C   0  0  0  0  0  0  0  0  0  0  0  0
    5.5152    2.8991   -3.0747 C   0  0  0  0  0  0  0  0  0  0  0  0
   -0.0942    0.0439    0.3946 C   0  0  0  0  0  0  0  0  0  0  0  0
   -3.9278   -1.8080    0.2972 C   0  0  0  0  0  0  0  0  0  0  0  0
   -4.8265   -2.8765    0.3355 C   0  0  0  0  0  0  0  0  0  0  0  0
   -4.3814   -4.3277   -0.4953 Cl  0  0  0  0  0  0  0  0  0  0  0  0
   -7.9175   -3.6566    2.7790 H   0  0  0  0  0  0  0  0  0  0  0  0
   -8.5973   -4.7757    1.5914 H   0  0  0  0  0  0  0  0  0  0  0  0
   -8.7517   -3.0392    1.2991 H   0  0  0  0  0  0  0  0  0  0  0  0
   -7.2980   -1.4499    2.2052 H   0  0  0  0  0  0  0  0  0  0  0  0
   -5.5002   -0.2126    4.1699 H   0  0  0  0  0  0  0  0  0  0  0  0
   -7.1635    0.3074    3.7130 H   0  0  0  0  0  0  0  0  0  0  0  0
   -5.9339    1.5042    4.1437 H   0  0  0  0  0  0  0  0  0  0  0  0
   -3.7412    1.3781    1.0170 H   0  0  0  0  0  0  0  0  0  0  0  0
   -1.1315   -2.3184    2.6391 H   0  0  0  0  0  0  0  0  0  0  0  0
    0.6473   -3.6065    1.5124 H   0  0  0  0  0  0  0  0  0  0  0  0
    3.3046    1.4956   -2.4129 H   0  0  0  0  0  0  0  0  0  0  0  0
    4.9984    0.0828   -3.6851 H   0  0  0  0  0  0  0  0  0  0  0  0
    4.8556   -1.1682   -2.4428 H   0  0  0  0  0  0  0  0  0  0  0  0
    3.4755   -0.8002   -3.4683 H   0  0  0  0  0  0  0  0  0  0  0  0
    6.6151    3.4455   -0.3338 H   0  0  0  0  0  0  0  0  0  0  0  0
    7.6218    2.0396   -0.7686 H   0  0  0  0  0  0  0  0  0  0  0  0
    8.2794    3.0260   -2.8624 H   0  0  0  0  0  0  0  0  0  0  0  0
    8.2107    4.4829   -1.8489 H   0  0  0  0  0  0  0  0  0  0  0  0
    5.9384    4.9602   -2.5862 H   0  0  0  0  0  0  0  0  0  0  0  0
    6.7101    4.4276   -4.0933 H   0  0  0  0  0  0  0  0  0  0  0  0
    5.7750    2.2098   -3.8836 H   0  0  0  0  0  0  0  0  0  0  0  0
    4.4619    3.1771   -3.1570 H   0  0  0  0  0  0  0  0  0  0  0  0
   -0.3060    1.0648    0.0800 H   0  0  0  0  0  0  0  0  0  0  0  0
   -2.9969   -1.8997   -0.2533 H   0  0  0  0  0  0  0  0  0  0  0  0
  1  2  1  0
  2  3  1  0
  3  4  2  0
  4  5  1  0
  5  6  1  0
  6  7  1  0
  5  8  2  0
  8  9  1  0
  9 10  1  0
 10 11  2  0
 10 12  2  0
 10 13  1  0
 13 14  2  0
 14 15  1  0
 15 16  2  0
 16 17  1  0
 16 18  1  0
 18 19  1  0
 19 20  2  0
 19 21  1  0
 21 22  1  0
 22 23  1  0
 22 24  1  0
 24 25  2  0
 24 26  1  0
 26 27  1  0
 27 28  1  0
 28 29  1  0
 29 30  1  0
 18 31  2  0
  8 32  1  0
 32 33  2  0
 33 34  1  0
 33  3  1  0
 31 13  1  0
 30 26  1  0
  1 35  1  0
  1 36  1  0
  1 37  1  0
  4 38  1  0
  7 39  1  0
  7 40  1  0
  7 41  1  0
  9 42  1  0
 14 43  1  0
 15 44  1  0
 22 45  1  0
 23 46  1  0
 23 47  1  0
 23 48  1  0
 27 49  1  0
 27 50  1  0
 28 51  1  0
 28 52  1  0
 29 53  1  0
 29 54  1  0
 30 55  1  0
 30 56  1  0
 31 57  1  0
 32 58  1  0
M  END
$$$$
