
     RDKit          3D

 47 50  0  0  0  0  0  0  0  0999 V2000
    0.2276    2.9452    2.1327 O   0  0  0  0  0  0  0  0  0  0  0  0
    0.2963    2.0660    1.2679 C   0  0  0  0  0  0  0  0  0  0  0  0
   -0.9277    1.7262    0.4318 C   0  0  0  0  0  0  0  0  0  0  0  0
   -1.9796    0.5783    1.3647 S   0  0  0  0  0  0  0  0  0  0  0  0
   -3.2823    0.3834    0.2380 C   0  0  0  0  0  0  0  0  0  0  0  0
   -3.2246    0.6853   -1.0438 N   0  0  0  0  0  0  0  0  0  0  0  0
   -4.4592    0.3722   -1.5770 N   0  0  0  0  0  0  0  0  0  0  0  0
   -5.1839   -0.1086   -0.5863 C   0  0  0  0  0  0  0  0  0  0  0  0
   -6.5591   -0.5902   -0.5760 C   0  0  0  0  0  0  0  0  0  0  0  0
   -7.2683   -0.6905   -1.7840 C   0  0  0  0  0  0  0  0  0  0  0  0
   -8.5919   -1.1398   -1.7998 C   0  0  0  0  0  0  0  0  0  0  0  0
   -9.2220   -1.4957   -0.6082 C   0  0  0  0  0  0  0  0  0  0  0  0
   -8.5310   -1.4025    0.5978 C   0  0  0  0  0  0  0  0  0  0  0  0
   -7.2087   -0.9528    0.6153 C   0  0  0  0  0  0  0  0  0  0  0  0
   -4.4971   -0.1347    0.5992 O   0  0  0  0  0  0  0  0  0  0  0  0
    1.4684    1.3612    1.0357 N   0  0  0  0  0  0  0  0  0  0  0  0
    2.6704    1.7054    1.7998 C   0  0  0  0  0  0  0  0  0  0  0  0
    3.9638    1.5667    0.9744 C   0  0  0  0  0  0  0  0  0  0  0  0
    4.0850    0.2389    0.3368 N   0  0  0  0  0  0  0  0  0  0  0  0
    5.3487   -0.3079    0.1325 C   0  0  0  0  0  0  0  0  0  0  0  0
    5.5780   -1.6932    0.1247 C   0  0  0  0  0  0  0  0  0  0  0  0
    6.8537   -2.2344   -0.0864 C   0  0  0  0  0  0  0  0  0  0  0  0
    7.9408   -1.3967   -0.3034 C   0  0  0  0  0  0  0  0  0  0  0  0
    7.7482   -0.0224   -0.3148 C   0  0  0  0  0  0  0  0  0  0  0  0
    6.4688    0.5091   -0.1029 C   0  0  0  0  0  0  0  0  0  0  0  0
    2.8753   -0.5951    0.3001 C   0  0  0  0  0  0  0  0  0  0  0  0
    1.6137    0.2615    0.0739 C   0  0  0  0  0  0  0  0  0  0  0  0
   -1.4702    2.6582    0.2399 H   0  0  0  0  0  0  0  0  0  0  0  0
   -0.6473    1.3117   -0.5386 H   0  0  0  0  0  0  0  0  0  0  0  0
   -6.7916   -0.4184   -2.7241 H   0  0  0  0  0  0  0  0  0  0  0  0
   -9.1290   -1.2119   -2.7429 H   0  0  0  0  0  0  0  0  0  0  0  0
  -10.2526   -1.8434   -0.6207 H   0  0  0  0  0  0  0  0  0  0  0  0
   -9.0231   -1.6779    1.5295 H   0  0  0  0  0  0  0  0  0  0  0  0
   -6.6935   -0.8840    1.5723 H   0  0  0  0  0  0  0  0  0  0  0  0
    2.7013    1.0231    2.6589 H   0  0  0  0  0  0  0  0  0  0  0  0
    2.5978    2.7253    2.1943 H   0  0  0  0  0  0  0  0  0  0  0  0
    3.9731    2.3315    0.1876 H   0  0  0  0  0  0  0  0  0  0  0  0
    4.8056    1.7611    1.6504 H   0  0  0  0  0  0  0  0  0  0  0  0
    4.7667   -2.3921    0.3061 H   0  0  0  0  0  0  0  0  0  0  0  0
    6.9916   -3.3102   -0.0793 H   0  0  0  0  0  0  0  0  0  0  0  0
    8.9300   -1.8129   -0.4680 H   0  0  0  0  0  0  0  0  0  0  0  0
    8.5873    0.6445   -0.4951 H   0  0  0  0  0  0  0  0  0  0  0  0
    6.3601    1.5894   -0.1511 H   0  0  0  0  0  0  0  0  0  0  0  0
    2.7830   -1.1439    1.2457 H   0  0  0  0  0  0  0  0  0  0  0  0
    2.9262   -1.3246   -0.5169 H   0  0  0  0  0  0  0  0  0  0  0  0
    0.7291   -0.3805    0.1147 H   0  0  0  0  0  0  0  0  0  0  0  0
    1.6521    0.7202   -0.9216 H   0  0  0  0  0  0  0  0  0  0  0  0
  1  2  2  0
  2  3  1  0
  3  4  1  0
  4  5  1  0
  5  6  2  0
  6  7  1  0
  7  8  2  0
  8  9  1  0
  9 10  2  0
 10 11  1  0
 11 12  2  0
 12 13  1  0
 13 14  2  0
  8 15  1  0
  2 16  1  0
 16 17  1  0
 17 18  1  0
 18 19  1  0
 19 20  1  0
 20 21  2  0
 21 22  1  0
 22 23  2  0
 23 24  1  0
 24 25  2  0
 19 26  1  0
 26 27  1  0
 15  5  1  0
 27 16  1  0
 14  9  1  0
 25 20  1  0
  3 28  1  0
  3 29  1  0
 10 30  1  0
 11 31  1  0
 12 32  1  0
 13 33  1  0
 14 34  1  0
 17 35  1  0
 17 36  1  0
 18 37  1  0
 18 38  1  0
 21 39  1  0
 22 40  1  0
 23 41  1  0
 24 42  1  0
 25 43  1  0
 26 44  1  0
 26 45  1  0
 27 46  1  0
 27 47  1  0
M  END
$$$$
