
     RDKit          3D

 56 58  0  0  0  0  0  0  0  0999 V2000
   -3.9355    3.2320   -3.2303 C   0  0  0  0  0  0  0  0  0  0  0  0
   -4.3504    1.8323   -2.8180 C   0  0  0  0  0  0  0  0  0  0  0  0
   -3.2040    1.0807   -2.3915 O   0  0  0  0  0  0  0  0  0  0  0  0
   -2.8558    1.2272   -1.0760 C   0  0  0  0  0  0  0  0  0  0  0  0
   -3.4496    1.9366   -0.2777 O   0  0  0  0  0  0  0  0  0  0  0  0
   -1.6643    0.3495   -0.7754 C   0  0  0  0  0  0  0  0  0  0  0  0
   -0.8216    0.8226    0.3884 C   0  0  0  0  0  0  0  0  0  0  0  0
   -0.6791    2.0087    0.6786 O   0  0  0  0  0  0  0  0  0  0  0  0
   -0.0358   -0.1788    1.1513 C   0  0  0  0  0  0  0  0  0  0  0  0
   -0.0291   -1.4738    0.7994 C   0  0  0  0  0  0  0  0  0  0  0  0
    0.7518   -2.4610    1.5266 C   0  0  0  0  0  0  0  0  0  0  0  0
    2.0720   -2.4371    1.7766 C   0  0  0  0  0  0  0  0  0  0  0  0
    3.0266   -1.4151    1.3359 C   0  0  0  0  0  0  0  0  0  0  0  0
    3.7884   -0.7306    2.2816 C   0  0  0  0  0  0  0  0  0  0  0  0
    4.7102    0.2477    1.8810 C   0  0  0  0  0  0  0  0  0  0  0  0
    4.8991    0.5787    0.5301 C   0  0  0  0  0  0  0  0  0  0  0  0
    5.8146    1.5533    0.0966 N   0  0  0  0  0  0  0  0  0  0  0  0
    6.7367    2.1233    1.0778 C   0  0  0  0  0  0  0  0  0  0  0  0
    5.2620    2.5288   -0.8499 C   0  0  0  0  0  0  0  0  0  0  0  0
    4.1448   -0.1509   -0.4051 C   0  0  0  0  0  0  0  0  0  0  0  0
    3.2236   -1.1317   -0.0147 C   0  0  0  0  0  0  0  0  0  0  0  0
   -0.8649   -2.0104   -0.3357 C   0  0  0  0  0  0  0  0  0  0  0  0
   -2.0873   -1.1287   -0.6648 C   0  0  0  0  0  0  0  0  0  0  0  0
   -3.2561   -1.4792    0.2560 C   0  0  0  0  0  0  0  0  0  0  0  0
   -3.5456   -0.7951    1.4443 C   0  0  0  0  0  0  0  0  0  0  0  0
   -4.6217   -1.1816    2.2490 C   0  0  0  0  0  0  0  0  0  0  0  0
   -5.4218   -2.2605    1.8847 C   0  0  0  0  0  0  0  0  0  0  0  0
   -5.1482   -2.9561    0.7122 C   0  0  0  0  0  0  0  0  0  0  0  0
   -4.0753   -2.5698   -0.0935 C   0  0  0  0  0  0  0  0  0  0  0  0
   -3.5082    3.7808   -2.3852 H   0  0  0  0  0  0  0  0  0  0  0  0
   -4.7922    3.7934   -3.6136 H   0  0  0  0  0  0  0  0  0  0  0  0
   -3.1639    3.1913   -4.0061 H   0  0  0  0  0  0  0  0  0  0  0  0
   -5.1249    1.8532   -2.0428 H   0  0  0  0  0  0  0  0  0  0  0  0
   -4.7739    1.3058   -3.6796 H   0  0  0  0  0  0  0  0  0  0  0  0
   -0.9828    0.4480   -1.6352 H   0  0  0  0  0  0  0  0  0  0  0  0
    0.5484    0.2132    1.9770 H   0  0  0  0  0  0  0  0  0  0  0  0
    0.1811   -3.3125    1.8984 H   0  0  0  0  0  0  0  0  0  0  0  0
    2.5101   -3.2432    2.3623 H   0  0  0  0  0  0  0  0  0  0  0  0
    3.6683   -0.9386    3.3420 H   0  0  0  0  0  0  0  0  0  0  0  0
    5.2616    0.7573    2.6651 H   0  0  0  0  0  0  0  0  0  0  0  0
    7.4939    2.7347    0.5739 H   0  0  0  0  0  0  0  0  0  0  0  0
    6.2121    2.7640    1.7956 H   0  0  0  0  0  0  0  0  0  0  0  0
    7.2819    1.3386    1.6144 H   0  0  0  0  0  0  0  0  0  0  0  0
    4.9585    2.0625   -1.7924 H   0  0  0  0  0  0  0  0  0  0  0  0
    4.4044    3.0556   -0.4157 H   0  0  0  0  0  0  0  0  0  0  0  0
    6.0166    3.2794   -1.1122 H   0  0  0  0  0  0  0  0  0  0  0  0
    4.2881    0.0141   -1.4693 H   0  0  0  0  0  0  0  0  0  0  0  0
    2.6744   -1.6745   -0.7790 H   0  0  0  0  0  0  0  0  0  0  0  0
   -0.2196   -2.0694   -1.2231 H   0  0  0  0  0  0  0  0  0  0  0  0
   -1.1902   -3.0375   -0.1242 H   0  0  0  0  0  0  0  0  0  0  0  0
   -2.4192   -1.4188   -1.6738 H   0  0  0  0  0  0  0  0  0  0  0  0
   -2.9614    0.0594    1.7748 H   0  0  0  0  0  0  0  0  0  0  0  0
   -4.8361   -0.6306    3.1618 H   0  0  0  0  0  0  0  0  0  0  0  0
   -6.2580   -2.5548    2.5129 H   0  0  0  0  0  0  0  0  0  0  0  0
   -5.7702   -3.7990    0.4228 H   0  0  0  0  0  0  0  0  0  0  0  0
   -3.8828   -3.1332   -1.0047 H   0  0  0  0  0  0  0  0  0  0  0  0
  1  2  1  0
  2  3  1  0
  3  4  1  0
  4  5  2  0
  4  6  1  0
  6  7  1  0
  7  8  2  0
  7  9  1  0
  9 10  2  0
 10 11  1  0
 11 12  2  3
 12 13  1  0
 13 14  2  0
 14 15  1  0
 15 16  2  0
 16 17  1  0
 17 18  1  0
 17 19  1  0
 16 20  1  0
 20 21  2  0
 10 22  1  0
 22 23  1  0
 23 24  1  0
 24 25  2  0
 25 26  1  0
 26 27  2  0
 27 28  1  0
 28 29  2  0
 23  6  1  0
 29 24  1  0
 21 13  1  0
  1 30  1  0
  1 31  1  0
  1 32  1  0
  2 33  1  0
  2 34  1  0
  6 35  1  0
  9 36  1  0
 11 37  1  0
 12 38  1  0
 14 39  1  0
 15 40  1  0
 18 41  1  0
 18 42  1  0
 18 43  1  0
 19 44  1  0
 19 45  1  0
 19 46  1  0
 20 47  1  0
 21 48  1  0
 22 49  1  0
 22 50  1  0
 23 51  1  0
 25 52  1  0
 26 53  1  0
 27 54  1  0
 28 55  1  0
 29 56  1  0
M  END
$$$$
