
     RDKit          3D

 57 59  0  0  0  0  0  0  0  0999 V2000
   -5.4781    0.4922    2.6255 C   0  0  0  0  0  0  0  0  0  0  0  0
   -4.5170   -0.4908    1.9759 C   0  0  0  0  0  0  0  0  0  0  0  0
   -3.7922    0.1061    0.8471 N   0  0  0  0  0  0  0  0  0  0  0  0
   -2.5263    0.6955    0.9747 C   0  0  0  0  0  0  0  0  0  0  0  0
   -1.8829    1.0475   -0.0197 O   0  0  0  0  0  0  0  0  0  0  0  0
   -1.9683    0.9315    2.3879 C   0  0  0  0  0  0  0  0  0  0  0  0
   -0.6453    1.4757    2.3452 O   0  0  0  0  0  0  0  0  0  0  0  0
    0.3098    0.5607    2.0624 C   0  0  0  0  0  0  0  0  0  0  0  0
    0.1648   -0.6446    1.9481 O   0  0  0  0  0  0  0  0  0  0  0  0
    1.5804    1.2500    1.7896 C   0  0  0  0  0  0  0  0  0  0  0  0
    2.1888    0.9960    0.5535 C   0  0  0  0  0  0  0  0  0  0  0  0
    3.4090    1.6108    0.2147 C   0  0  0  0  0  0  0  0  0  0  0  0
    4.0459    1.2201   -1.3968 S   0  0  0  0  0  6  0  0  0  0  0  0
    2.9246    1.2930   -2.3088 O   0  0  0  0  0  0  0  0  0  0  0  0
    5.2708    1.9308   -1.6750 O   0  0  0  0  0  0  0  0  0  0  0  0
    4.4591   -0.4274   -1.2177 N   0  0  0  0  0  0  0  0  0  0  0  0
    5.6421   -0.7103   -0.3368 C   0  0  0  0  0  0  0  0  0  0  0  0
    6.8709   -1.0888   -1.1689 C   0  0  0  0  0  0  0  0  0  0  0  0
    6.6739   -2.2853   -1.9357 O   0  0  0  0  0  0  0  0  0  0  0  0
    5.3164   -2.4682   -2.3629 C   0  0  0  0  0  0  0  0  0  0  0  0
    4.5525   -1.1517   -2.5309 C   0  0  0  0  0  0  0  0  0  0  0  0
    4.0152    2.4844    1.1174 C   0  0  0  0  0  0  0  0  0  0  0  0
    5.5073    3.3053    0.8581 Cl  0  0  0  0  0  0  0  0  0  0  0  0
    3.4045    2.7193    2.3608 C   0  0  0  0  0  0  0  0  0  0  0  0
    2.1959    2.1033    2.7034 C   0  0  0  0  0  0  0  0  0  0  0  0
    1.5636    2.4011    4.2819 Cl  0  0  0  0  0  0  0  0  0  0  0  0
   -4.2914   -0.0931   -0.5277 C   0  0  0  0  0  0  0  0  0  0  0  0
   -3.7782   -1.4082   -1.1363 C   0  0  0  0  0  0  0  0  0  0  0  0
   -4.4020   -1.4881   -2.5228 C   0  0  0  0  0  0  0  0  0  0  0  0
   -6.0511   -0.8330   -2.3286 S   0  0  0  0  0  6  0  0  0  0  0  0
   -6.9759   -1.9387   -2.1877 O   0  0  0  0  0  0  0  0  0  0  0  0
   -6.2534    0.2233   -3.2973 O   0  0  0  0  0  0  0  0  0  0  0  0
   -5.8090   -0.0998   -0.7197 C   0  0  0  0  0  0  0  0  0  0  0  0
   -5.9901    0.0188    3.4684 H   0  0  0  0  0  0  0  0  0  0  0  0
   -6.2377    0.8361    1.9186 H   0  0  0  0  0  0  0  0  0  0  0  0
   -4.9538    1.3758    2.9988 H   0  0  0  0  0  0  0  0  0  0  0  0
   -5.0487   -1.3829    1.6311 H   0  0  0  0  0  0  0  0  0  0  0  0
   -3.8089   -0.8472    2.7268 H   0  0  0  0  0  0  0  0  0  0  0  0
   -2.6009    1.6696    2.8883 H   0  0  0  0  0  0  0  0  0  0  0  0
   -1.9670    0.0138    2.9811 H   0  0  0  0  0  0  0  0  0  0  0  0
    1.7001    0.3225   -0.1536 H   0  0  0  0  0  0  0  0  0  0  0  0
    5.8759    0.1420    0.3060 H   0  0  0  0  0  0  0  0  0  0  0  0
    5.3594   -1.5411    0.3216 H   0  0  0  0  0  0  0  0  0  0  0  0
    7.1407   -0.2835   -1.8613 H   0  0  0  0  0  0  0  0  0  0  0  0
    7.7313   -1.2599   -0.5141 H   0  0  0  0  0  0  0  0  0  0  0  0
    4.8184   -3.1105   -1.6273 H   0  0  0  0  0  0  0  0  0  0  0  0
    5.3422   -3.0153   -3.3102 H   0  0  0  0  0  0  0  0  0  0  0  0
    5.0696   -0.5231   -3.2654 H   0  0  0  0  0  0  0  0  0  0  0  0
    3.5390   -1.3609   -2.8880 H   0  0  0  0  0  0  0  0  0  0  0  0
    3.8826    3.3874    3.0766 H   0  0  0  0  0  0  0  0  0  0  0  0
   -3.9002    0.7291   -1.1436 H   0  0  0  0  0  0  0  0  0  0  0  0
   -4.1013   -2.2613   -0.5266 H   0  0  0  0  0  0  0  0  0  0  0  0
   -2.6849   -1.4427   -1.1926 H   0  0  0  0  0  0  0  0  0  0  0  0
   -3.8689   -0.8484   -3.2321 H   0  0  0  0  0  0  0  0  0  0  0  0
   -4.4497   -2.5106   -2.9031 H   0  0  0  0  0  0  0  0  0  0  0  0
   -6.3363   -0.7327   -0.0024 H   0  0  0  0  0  0  0  0  0  0  0  0
   -6.2352    0.9063   -0.7044 H   0  0  0  0  0  0  0  0  0  0  0  0
  1  2  1  0
  2  3  1  0
  3  4  1  0
  4  5  2  0
  4  6  1  0
  6  7  1  0
  7  8  1  0
  8  9  2  0
  8 10  1  0
 10 11  2  0
 11 12  1  0
 12 13  1  0
 13 14  2  0
 13 15  2  0
 13 16  1  0
 16 17  1  0
 17 18  1  0
 18 19  1  0
 19 20  1  0
 20 21  1  0
 12 22  2  0
 22 23  1  0
 22 24  1  0
 24 25  2  0
 25 26  1  0
  3 27  1  0
 27 28  1  0
 28 29  1  0
 29 30  1  0
 30 31  2  0
 30 32  2  0
 30 33  1  0
 25 10  1  0
 33 27  1  0
 21 16  1  0
  1 34  1  0
  1 35  1  0
  1 36  1  0
  2 37  1  0
  2 38  1  0
  6 39  1  0
  6 40  1  0
 11 41  1  0
 17 42  1  0
 17 43  1  0
 18 44  1  0
 18 45  1  0
 20 46  1  0
 20 47  1  0
 21 48  1  0
 21 49  1  0
 24 50  1  0
 27 51  1  0
 28 52  1  0
 28 53  1  0
 29 54  1  0
 29 55  1  0
 33 56  1  0
 33 57  1  0
M  END
$$$$
