
     RDKit          3D

 58 61  0  0  0  0  0  0  0  0999 V2000
   -7.0362    3.0198   -0.6478 C   0  0  0  0  0  0  0  0  0  0  0  0
   -5.5475    3.1197   -0.4915 C   0  0  0  0  0  0  0  0  0  0  0  0
   -4.9191    4.3686   -0.4624 C   0  0  0  0  0  0  0  0  0  0  0  0
   -3.5393    4.4591   -0.2839 C   0  0  0  0  0  0  0  0  0  0  0  0
   -2.7759    3.3009   -0.1220 C   0  0  0  0  0  0  0  0  0  0  0  0
   -3.3829    2.0370   -0.1326 C   0  0  0  0  0  0  0  0  0  0  0  0
   -2.6125    0.8078    0.0387 C   0  0  0  0  0  0  0  0  0  0  0  0
   -3.0254   -0.4444   -0.0086 N   0  0  0  0  0  0  0  0  0  0  0  0
   -1.8717   -1.1746    0.2333 C   0  0  0  0  0  0  0  0  0  0  0  0
   -1.8225   -2.8957    0.2670 S   0  0  0  0  0  6  0  0  0  0  0  0
   -0.4683   -3.2468    0.6605 O   0  0  0  0  0  0  0  0  0  0  0  0
   -2.9728   -3.3103    1.0460 O   0  0  0  0  0  0  0  0  0  0  0  0
   -2.0752   -3.3857   -1.4176 C   0  0  0  0  0  0  0  0  0  0  0  0
   -3.3672   -3.3346   -1.9568 C   0  0  0  0  0  0  0  0  0  0  0  0
   -3.5749   -3.7339   -3.2773 C   0  0  0  0  0  0  0  0  0  0  0  0
   -2.4988   -4.1853   -4.0362 C   0  0  0  0  0  0  0  0  0  0  0  0
   -2.7018   -4.5686   -5.3032 F   0  0  0  0  0  0  0  0  0  0  0  0
   -1.2152   -4.2484   -3.5001 C   0  0  0  0  0  0  0  0  0  0  0  0
   -0.9972   -3.8503   -2.1802 C   0  0  0  0  0  0  0  0  0  0  0  0
   -0.7972   -0.3268    0.3957 C   0  0  0  0  0  0  0  0  0  0  0  0
    0.5271   -0.5017    0.6099 N   0  0  0  0  0  0  0  0  0  0  0  0
    1.3257    0.5815    1.1655 C   0  0  0  0  0  0  0  0  0  0  0  0
    2.8031    0.1836    1.1644 C   0  0  0  0  0  0  0  0  0  0  0  0
    3.6660    1.3131    1.7421 C   0  0  0  0  0  0  0  0  0  0  0  0
    5.1065    1.0625    1.8173 N   0  0  0  0  0  0  0  0  0  0  0  0
    5.7786    1.0380    0.5074 C   0  0  0  0  0  0  0  0  0  0  0  0
    7.1926    0.4481    0.6241 C   0  0  0  0  0  0  0  0  0  0  0  0
    7.1912   -0.9235    1.0454 O   0  0  0  0  0  0  0  0  0  0  0  0
    6.0559   -1.2672    1.8518 C   0  0  0  0  0  0  0  0  0  0  0  0
    5.4977   -0.0825    2.6577 C   0  0  0  0  0  0  0  0  0  0  0  0
   -1.2704    0.9490    0.2769 O   0  0  0  0  0  0  0  0  0  0  0  0
   -4.7739    1.9630   -0.3141 C   0  0  0  0  0  0  0  0  0  0  0  0
   -7.3141    2.0895   -1.1544 H   0  0  0  0  0  0  0  0  0  0  0  0
   -7.5180    3.0461    0.3345 H   0  0  0  0  0  0  0  0  0  0  0  0
   -7.4216    3.8467   -1.2537 H   0  0  0  0  0  0  0  0  0  0  0  0
   -5.5019    5.2798   -0.5793 H   0  0  0  0  0  0  0  0  0  0  0  0
   -3.0572    5.4334   -0.2684 H   0  0  0  0  0  0  0  0  0  0  0  0
   -1.7010    3.3976    0.0146 H   0  0  0  0  0  0  0  0  0  0  0  0
   -4.2072   -2.9857   -1.3583 H   0  0  0  0  0  0  0  0  0  0  0  0
   -4.5664   -3.6995   -3.7186 H   0  0  0  0  0  0  0  0  0  0  0  0
   -0.3959   -4.6105   -4.1139 H   0  0  0  0  0  0  0  0  0  0  0  0
    0.0053   -3.9068   -1.7615 H   0  0  0  0  0  0  0  0  0  0  0  0
    0.8177   -1.4394    0.9033 H   0  0  0  0  0  0  0  0  0  0  0  0
    1.1982    1.4940    0.5707 H   0  0  0  0  0  0  0  0  0  0  0  0
    0.9968    0.7930    2.1898 H   0  0  0  0  0  0  0  0  0  0  0  0
    2.9291   -0.7343    1.7501 H   0  0  0  0  0  0  0  0  0  0  0  0
    3.1075   -0.0513    0.1384 H   0  0  0  0  0  0  0  0  0  0  0  0
    3.3106    1.5484    2.7539 H   0  0  0  0  0  0  0  0  0  0  0  0
    3.5005    2.2293    1.1603 H   0  0  0  0  0  0  0  0  0  0  0  0
    5.2184    0.4305   -0.2120 H   0  0  0  0  0  0  0  0  0  0  0  0
    5.8391    2.0581    0.1125 H   0  0  0  0  0  0  0  0  0  0  0  0
    7.6999    0.4918   -0.3450 H   0  0  0  0  0  0  0  0  0  0  0  0
    7.7988    1.0229    1.3341 H   0  0  0  0  0  0  0  0  0  0  0  0
    6.3684   -2.0675    2.5304 H   0  0  0  0  0  0  0  0  0  0  0  0
    5.2868   -1.6848    1.1920 H   0  0  0  0  0  0  0  0  0  0  0  0
    6.2897    0.2750    3.3280 H   0  0  0  0  0  0  0  0  0  0  0  0
    4.6792   -0.4160    3.3057 H   0  0  0  0  0  0  0  0  0  0  0  0
   -5.2613    0.9883   -0.3153 H   0  0  0  0  0  0  0  0  0  0  0  0
  1  2  1  0
  2  3  2  0
  3  4  1  0
  4  5  2  0
  5  6  1  0
  6  7  1  0
  7  8  2  0
  8  9  1  0
  9 10  1  0
 10 11  2  0
 10 12  2  0
 10 13  1  0
 13 14  2  0
 14 15  1  0
 15 16  2  0
 16 17  1  0
 16 18  1  0
 18 19  2  0
  9 20  2  0
 20 21  1  0
 21 22  1  0
 22 23  1  0
 23 24  1  0
 24 25  1  0
 25 26  1  0
 26 27  1  0
 27 28  1  0
 28 29  1  0
 29 30  1  0
 20 31  1  0
  6 32  2  0
 32  2  1  0
 31  7  1  0
 19 13  1  0
 30 25  1  0
  1 33  1  0
  1 34  1  0
  1 35  1  0
  3 36  1  0
  4 37  1  0
  5 38  1  0
 14 39  1  0
 15 40  1  0
 18 41  1  0
 19 42  1  0
 21 43  1  0
 22 44  1  0
 22 45  1  0
 23 46  1  0
 23 47  1  0
 24 48  1  0
 24 49  1  0
 26 50  1  0
 26 51  1  0
 27 52  1  0
 27 53  1  0
 29 54  1  0
 29 55  1  0
 30 56  1  0
 30 57  1  0
 32 58  1  0
M  END
$$$$
