
     RDKit          3D

 22 22  0  0  0  0  0  0  0  0999 V2000
    3.0107    1.0918   -0.3445 C   0  0  0  0  0  0  0  0  0  0  0  0
    1.5301    0.8662   -0.2188 C   0  0  0  0  0  0  0  0  0  0  0  0
    0.7488    1.9125   -0.5945 N   0  0  0  0  0  0  0  0  0  0  0  0
   -0.5922    1.7525   -0.5343 C   0  0  0  0  0  0  0  0  0  0  0  0
   -1.2084    0.5809   -0.1357 C   0  0  0  0  0  0  0  0  0  0  0  0
   -2.6729    0.5391   -0.0104 C   0  0  0  0  0  0  0  0  0  0  0  0
   -3.3087   -0.0561    0.8374 O   0  0  0  0  0  0  0  0  0  0  0  0
   -3.2766    1.2749   -0.9602 O   0  0  0  0  0  0  0  0  0  0  0  0
   -0.3901   -0.4929    0.2216 C   0  0  0  0  0  0  0  0  0  0  0  0
   -0.9767   -1.7991    0.5662 C   0  0  0  0  0  0  0  0  0  0  0  0
   -0.6425   -2.5037    1.5011 O   0  0  0  0  0  0  0  0  0  0  0  0
   -1.8666   -2.1987   -0.3588 O   0  0  0  0  0  0  0  0  0  0  0  0
    1.0138   -0.3513    0.2585 C   0  0  0  0  0  0  0  0  0  0  0  0
    1.8602   -1.4487    0.5318 N   0  0  0  0  0  0  0  0  0  0  0  0
    3.4550    0.3517   -1.0172 H   0  0  0  0  0  0  0  0  0  0  0  0
    3.2193    2.0851   -0.7559 H   0  0  0  0  0  0  0  0  0  0  0  0
    3.4898    1.0288    0.6374 H   0  0  0  0  0  0  0  0  0  0  0  0
   -1.1649    2.6323   -0.8175 H   0  0  0  0  0  0  0  0  0  0  0  0
   -4.2352    1.1475   -0.7928 H   0  0  0  0  0  0  0  0  0  0  0  0
   -2.1907   -3.0630   -0.0287 H   0  0  0  0  0  0  0  0  0  0  0  0
    1.4178   -2.1514    1.1331 H   0  0  0  0  0  0  0  0  0  0  0  0
    2.7799   -1.1985    0.8822 H   0  0  0  0  0  0  0  0  0  0  0  0
  1  2  1  0
  2  3  2  0
  3  4  1  0
  4  5  2  0
  5  6  1  0
  6  7  2  0
  6  8  1  0
  5  9  1  0
  9 10  1  0
 10 11  2  0
 10 12  1  0
  9 13  2  0
 13 14  1  0
 13  2  1  0
  1 15  1  0
  1 16  1  0
  1 17  1  0
  4 18  1  0
  8 19  1  0
 12 20  1  0
 14 21  1  0
 14 22  1  0
M  END
$$$$
