
     RDKit          3D

 53 56  0  0  0  0  0  0  0  0999 V2000
    5.0101    3.0571   -3.6399 C   0  0  0  0  0  0  0  0  0  0  0  0
    5.9764    2.5202   -2.7455 O   0  0  0  0  0  0  0  0  0  0  0  0
    5.5220    2.1067   -1.5235 C   0  0  0  0  0  0  0  0  0  0  0  0
    6.4981    1.5670   -0.6894 C   0  0  0  0  0  0  0  0  0  0  0  0
    6.1729    1.1018    0.5885 C   0  0  0  0  0  0  0  0  0  0  0  0
    4.8567    1.1750    1.0585 C   0  0  0  0  0  0  0  0  0  0  0  0
    4.4601    0.7168    2.2897 O   0  0  0  0  0  0  0  0  0  0  0  0
    5.4152    0.0166    3.0769 C   0  0  0  0  0  0  0  0  0  0  0  0
    3.8648    1.7385    0.2289 C   0  0  0  0  0  0  0  0  0  0  0  0
    2.4687    1.8788    0.6391 C   0  0  0  0  0  0  0  0  0  0  0  0
    2.0628    2.3352    1.8797 C   0  0  0  0  0  0  0  0  0  0  0  0
    0.3536    2.3941    1.9447 S   0  0  0  0  0  0  0  0  0  0  0  0
    0.2805    1.8244    0.3426 C   0  0  0  0  0  0  0  0  0  0  0  0
   -0.8967    1.5813   -0.3155 N   0  0  0  0  0  0  0  0  0  0  0  0
   -2.1722    1.7394    0.1743 C   0  0  0  0  0  0  0  0  0  0  0  0
   -2.5072    2.1677    1.2784 O   0  0  0  0  0  0  0  0  0  0  0  0
   -3.2397    1.2768   -0.7907 C   0  0  0  0  0  0  0  0  0  0  0  0
   -3.6542   -0.0699   -0.4527 N   0  0  0  0  0  0  0  0  0  0  0  0
   -4.4316   -0.4210    0.6312 C   0  0  0  0  0  0  0  0  0  0  0  0
   -4.8181    0.4382    1.5710 O   0  0  0  0  0  0  0  0  0  0  0  0
   -4.6945   -1.7685    0.5238 C   0  0  0  0  0  0  0  0  0  0  0  0
   -3.9786   -2.2619   -0.6084 C   0  0  0  0  0  0  0  0  0  0  0  0
   -3.3234   -1.1907   -1.1788 C   0  0  0  0  0  0  0  0  0  0  0  0
   -2.5050   -1.1136   -2.2231 O   0  0  0  0  0  0  0  0  0  0  0  0
   -4.0024   -3.6987   -1.0116 C   0  0  0  0  0  0  0  0  0  0  0  0
   -4.4990   -4.5961    0.1352 C   0  0  0  0  0  0  0  0  0  0  0  0
   -5.7547   -4.0203    0.8112 C   0  0  0  0  0  0  0  0  0  0  0  0
   -5.4896   -2.6410    1.4376 C   0  0  0  0  0  0  0  0  0  0  0  0
    1.4332    1.6147   -0.2488 N   0  0  0  0  0  0  0  0  0  0  0  0
    4.2094    2.1860   -1.0633 C   0  0  0  0  0  0  0  0  0  0  0  0
    4.2573    2.3048   -3.9027 H   0  0  0  0  0  0  0  0  0  0  0  0
    5.5304    3.3451   -4.5588 H   0  0  0  0  0  0  0  0  0  0  0  0
    4.5426    3.9587   -3.2254 H   0  0  0  0  0  0  0  0  0  0  0  0
    7.5261    1.5020   -1.0390 H   0  0  0  0  0  0  0  0  0  0  0  0
    6.9757    0.6850    1.1891 H   0  0  0  0  0  0  0  0  0  0  0  0
    6.2241    0.6841    3.3941 H   0  0  0  0  0  0  0  0  0  0  0  0
    4.9071   -0.3414    3.9775 H   0  0  0  0  0  0  0  0  0  0  0  0
    5.8067   -0.8576    2.5464 H   0  0  0  0  0  0  0  0  0  0  0  0
    2.6660    2.6270    2.7280 H   0  0  0  0  0  0  0  0  0  0  0  0
   -0.7559    1.1677   -1.2301 H   0  0  0  0  0  0  0  0  0  0  0  0
   -2.8935    1.3140   -1.8284 H   0  0  0  0  0  0  0  0  0  0  0  0
   -4.1132    1.9340   -0.7146 H   0  0  0  0  0  0  0  0  0  0  0  0
   -4.1622    1.1604    1.6552 H   0  0  0  0  0  0  0  0  0  0  0  0
   -2.4202   -2.0203   -2.5720 H   0  0  0  0  0  0  0  0  0  0  0  0
   -3.0045   -4.0275   -1.3245 H   0  0  0  0  0  0  0  0  0  0  0  0
   -4.6700   -3.8086   -1.8749 H   0  0  0  0  0  0  0  0  0  0  0  0
   -4.7099   -5.6000   -0.2530 H   0  0  0  0  0  0  0  0  0  0  0  0
   -3.7054   -4.7031    0.8854 H   0  0  0  0  0  0  0  0  0  0  0  0
   -6.5546   -3.9355    0.0642 H   0  0  0  0  0  0  0  0  0  0  0  0
   -6.1124   -4.7086    1.5855 H   0  0  0  0  0  0  0  0  0  0  0  0
   -6.4453   -2.1645    1.6921 H   0  0  0  0  0  0  0  0  0  0  0  0
   -4.9302   -2.7714    2.3720 H   0  0  0  0  0  0  0  0  0  0  0  0
    3.4239    2.6010   -1.6858 H   0  0  0  0  0  0  0  0  0  0  0  0
  1  2  1  0
  2  3  1  0
  3  4  2  0
  4  5  1  0
  5  6  2  0
  6  7  1  0
  7  8  1  0
  6  9  1  0
  9 10  1  0
 10 11  2  0
 11 12  1  0
 12 13  1  0
 13 14  1  0
 14 15  1  0
 15 16  2  0
 15 17  1  0
 17 18  1  0
 18 19  1  0
 19 20  1  0
 19 21  2  0
 21 22  1  0
 22 23  2  0
 23 24  1  0
 22 25  1  0
 25 26  1  0
 26 27  1  0
 27 28  1  0
 13 29  2  0
  9 30  2  0
 30  3  1  0
 29 10  1  0
 23 18  1  0
 28 21  1  0
  1 31  1  0
  1 32  1  0
  1 33  1  0
  4 34  1  0
  5 35  1  0
  8 36  1  0
  8 37  1  0
  8 38  1  0
 11 39  1  0
 14 40  1  0
 17 41  1  0
 17 42  1  0
 20 43  1  0
 24 44  1  0
 25 45  1  0
 25 46  1  0
 26 47  1  0
 26 48  1  0
 27 49  1  0
 27 50  1  0
 28 51  1  0
 28 52  1  0
 30 53  1  0
M  END
$$$$
