
     RDKit          3D

 54 57  0  0  0  0  0  0  0  0999 V2000
    6.4737    4.4889    1.2146 C   0  0  0  0  0  0  0  0  0  0  0  0
    6.6778    3.3602    0.3744 O   0  0  0  0  0  0  0  0  0  0  0  0
    5.6892    2.4166    0.3547 C   0  0  0  0  0  0  0  0  0  0  0  0
    4.4888    2.4684    1.0588 C   0  0  0  0  0  0  0  0  0  0  0  0
    3.5563    1.4261    0.9448 C   0  0  0  0  0  0  0  0  0  0  0  0
    3.7960    0.3092    0.1241 C   0  0  0  0  0  0  0  0  0  0  0  0
    2.8212   -0.7921   -0.0123 C   0  0  0  0  0  0  0  0  0  0  0  0
    1.4516   -0.5942    0.0213 C   0  0  0  0  0  0  0  0  0  0  0  0
    0.6123   -1.7026   -0.1169 C   0  0  0  0  0  0  0  0  0  0  0  0
   -0.8492   -1.4601   -0.0805 C   0  0  0  0  0  0  0  0  0  0  0  0
   -1.5687   -2.0695    0.6987 O   0  0  0  0  0  0  0  0  0  0  0  0
   -1.3050   -0.5145   -0.9740 N   0  0  0  0  0  0  0  0  0  0  0  0
   -2.7209   -0.2126   -1.0989 C   0  0  0  0  0  0  0  0  0  0  0  0
   -3.2474    0.6446    0.0682 C   0  0  0  0  0  0  0  0  0  0  0  0
   -4.6244    1.1350   -0.1383 N   0  0  0  0  0  0  0  0  0  0  0  0
   -4.9670    2.1298    0.9045 C   0  0  0  0  0  0  0  0  0  0  0  0
   -6.4185    2.6141    0.7655 C   0  0  0  0  0  0  0  0  0  0  0  0
   -7.3387    1.5188    0.8487 O   0  0  0  0  0  0  0  0  0  0  0  0
   -7.0532    0.5612   -0.1785 C   0  0  0  0  0  0  0  0  0  0  0  0
   -5.6124    0.0331   -0.0691 C   0  0  0  0  0  0  0  0  0  0  0  0
    1.1400   -3.0018   -0.2731 C   0  0  0  0  0  0  0  0  0  0  0  0
    0.3704   -4.1849   -0.4148 C   0  0  0  0  0  0  0  0  0  0  0  0
    0.9814   -5.4268   -0.5779 C   0  0  0  0  0  0  0  0  0  0  0  0
    2.3655   -5.5069   -0.6059 C   0  0  0  0  0  0  0  0  0  0  0  0
    3.1273   -4.3443   -0.4706 C   0  0  0  0  0  0  0  0  0  0  0  0
    2.5427   -3.0954   -0.3057 C   0  0  0  0  0  0  0  0  0  0  0  0
    3.3500   -2.0268   -0.1902 N   0  0  0  0  0  0  0  0  0  0  0  0
    5.0187    0.2739   -0.5673 C   0  0  0  0  0  0  0  0  0  0  0  0
    5.9487    1.3135   -0.4568 C   0  0  0  0  0  0  0  0  0  0  0  0
    7.3521    5.1354    1.1252 H   0  0  0  0  0  0  0  0  0  0  0  0
    5.6009    5.0670    0.8934 H   0  0  0  0  0  0  0  0  0  0  0  0
    6.3859    4.1895    2.2642 H   0  0  0  0  0  0  0  0  0  0  0  0
    4.2453    3.2998    1.7119 H   0  0  0  0  0  0  0  0  0  0  0  0
    2.6427    1.4944    1.5317 H   0  0  0  0  0  0  0  0  0  0  0  0
    1.0333    0.3975    0.1540 H   0  0  0  0  0  0  0  0  0  0  0  0
   -0.6736   -0.1352   -1.6685 H   0  0  0  0  0  0  0  0  0  0  0  0
   -3.2618   -1.1625   -1.1639 H   0  0  0  0  0  0  0  0  0  0  0  0
   -2.8473    0.3202   -2.0478 H   0  0  0  0  0  0  0  0  0  0  0  0
   -3.1658    0.0921    1.0130 H   0  0  0  0  0  0  0  0  0  0  0  0
   -2.5774    1.5103    0.1599 H   0  0  0  0  0  0  0  0  0  0  0  0
   -4.8339    1.6879    1.9009 H   0  0  0  0  0  0  0  0  0  0  0  0
   -4.3004    2.9963    0.8257 H   0  0  0  0  0  0  0  0  0  0  0  0
   -6.6566    3.3078    1.5781 H   0  0  0  0  0  0  0  0  0  0  0  0
   -6.5721    3.1457   -0.1814 H   0  0  0  0  0  0  0  0  0  0  0  0
   -7.7598   -0.2670   -0.0633 H   0  0  0  0  0  0  0  0  0  0  0  0
   -7.2343    1.0183   -1.1590 H   0  0  0  0  0  0  0  0  0  0  0  0
   -5.5041   -0.5072    0.8804 H   0  0  0  0  0  0  0  0  0  0  0  0
   -5.4504   -0.6776   -0.8859 H   0  0  0  0  0  0  0  0  0  0  0  0
   -0.7175   -4.1466   -0.3903 H   0  0  0  0  0  0  0  0  0  0  0  0
    0.3762   -6.3242   -0.6782 H   0  0  0  0  0  0  0  0  0  0  0  0
    2.8578   -6.4678   -0.7300 H   0  0  0  0  0  0  0  0  0  0  0  0
    4.2129   -4.4153   -0.4926 H   0  0  0  0  0  0  0  0  0  0  0  0
    5.2572   -0.5756   -1.2059 H   0  0  0  0  0  0  0  0  0  0  0  0
    6.8847    1.2558   -1.0070 H   0  0  0  0  0  0  0  0  0  0  0  0
  1  2  1  0
  2  3  1  0
  3  4  2  0
  4  5  1  0
  5  6  2  0
  6  7  1  0
  7  8  2  0
  8  9  1  0
  9 10  1  0
 10 11  2  0
 10 12  1  0
 12 13  1  0
 13 14  1  0
 14 15  1  0
 15 16  1  0
 16 17  1  0
 17 18  1  0
 18 19  1  0
 19 20  1  0
  9 21  2  0
 21 22  1  0
 22 23  2  0
 23 24  1  0
 24 25  2  0
 25 26  1  0
 26 27  2  0
  6 28  1  0
 28 29  2  0
 29  3  1  0
 27  7  1  0
 20 15  1  0
 26 21  1  0
  1 30  1  0
  1 31  1  0
  1 32  1  0
  4 33  1  0
  5 34  1  0
  8 35  1  0
 12 36  1  0
 13 37  1  0
 13 38  1  0
 14 39  1  0
 14 40  1  0
 16 41  1  0
 16 42  1  0
 17 43  1  0
 17 44  1  0
 19 45  1  0
 19 46  1  0
 20 47  1  0
 20 48  1  0
 22 49  1  0
 23 50  1  0
 24 51  1  0
 25 52  1  0
 28 53  1  0
 29 54  1  0
M  END
$$$$
