
     RDKit          3D

 41 43  0  0  0  0  0  0  0  0999 V2000
   -3.9330   -2.2821    3.4750 C   0  0  0  0  0  0  0  0  0  0  0  0
   -2.4845   -2.2277    3.0146 C   0  0  0  0  0  0  0  0  0  0  0  0
   -2.1213   -0.9299    2.2866 C   0  0  0  0  0  0  0  0  0  0  0  0
   -2.8676   -0.7622    0.9625 C   0  0  0  0  0  0  0  0  0  0  0  0
   -2.3387    0.7406    0.0863 S   0  0  0  0  0  0  0  0  0  0  0  0
   -0.7560    0.2799   -0.4668 C   0  0  0  0  0  0  0  0  0  0  0  0
   -0.4852   -0.9659   -0.7098 N   0  0  0  0  0  0  0  0  0  0  0  0
    0.7814   -0.9507   -1.2471 C   0  0  0  0  0  0  0  0  0  0  0  0
    1.4115   -2.0770   -1.6123 C   0  0  0  0  0  0  0  0  0  0  0  0
    2.7045   -2.2664   -2.1919 C   0  0  0  0  0  0  0  0  0  0  0  0
    3.5876   -3.3244   -1.8110 C   0  0  0  0  0  0  0  0  0  0  0  0
    4.7581   -3.3183   -2.5383 C   0  0  0  0  0  0  0  0  0  0  0  0
    4.7862   -2.0616   -3.6966 S   0  0  0  0  0  0  0  0  0  0  0  0
    3.2292   -1.5221   -3.2269 C   0  0  0  0  0  0  0  0  0  0  0  0
    1.2703    0.4631   -1.3045 C   0  0  0  0  0  0  0  0  0  0  0  0
    2.3624    0.8357   -1.6925 O   0  0  0  0  0  0  0  0  0  0  0  0
    0.2256    1.1850   -0.7660 N   0  0  0  0  0  0  0  0  0  0  0  0
    0.2819    2.5913   -0.5550 C   0  0  0  0  0  0  0  0  0  0  0  0
   -0.3395    3.2112    0.5385 C   0  0  0  0  0  0  0  0  0  0  0  0
   -0.2640    4.5964    0.7289 C   0  0  0  0  0  0  0  0  0  0  0  0
    0.4461    5.3886   -0.1661 C   0  0  0  0  0  0  0  0  0  0  0  0
    1.0895    4.7946   -1.2453 C   0  0  0  0  0  0  0  0  0  0  0  0
    1.0126    3.4103   -1.4326 C   0  0  0  0  0  0  0  0  0  0  0  0
   -4.6231   -2.3108    2.6268 H   0  0  0  0  0  0  0  0  0  0  0  0
   -4.1812   -1.4152    4.0954 H   0  0  0  0  0  0  0  0  0  0  0  0
   -4.1037   -3.1847    4.0706 H   0  0  0  0  0  0  0  0  0  0  0  0
   -1.8363   -2.3251    3.8937 H   0  0  0  0  0  0  0  0  0  0  0  0
   -2.2740   -3.0885    2.3692 H   0  0  0  0  0  0  0  0  0  0  0  0
   -2.3273   -0.0768    2.9454 H   0  0  0  0  0  0  0  0  0  0  0  0
   -1.0386   -0.9418    2.1120 H   0  0  0  0  0  0  0  0  0  0  0  0
   -3.9398   -0.6499    1.1518 H   0  0  0  0  0  0  0  0  0  0  0  0
   -2.7483   -1.6412    0.3211 H   0  0  0  0  0  0  0  0  0  0  0  0
    0.8648   -2.9997   -1.4182 H   0  0  0  0  0  0  0  0  0  0  0  0
    3.3846   -4.0518   -1.0341 H   0  0  0  0  0  0  0  0  0  0  0  0
    5.5977   -3.9937   -2.4490 H   0  0  0  0  0  0  0  0  0  0  0  0
    2.7900   -0.6793   -3.7429 H   0  0  0  0  0  0  0  0  0  0  0  0
   -0.8535    2.6378    1.3034 H   0  0  0  0  0  0  0  0  0  0  0  0
   -0.7515    5.0517    1.5877 H   0  0  0  0  0  0  0  0  0  0  0  0
    0.5072    6.4634   -0.0172 H   0  0  0  0  0  0  0  0  0  0  0  0
    1.6549    5.4040   -1.9461 H   0  0  0  0  0  0  0  0  0  0  0  0
    1.5210    2.9931   -2.2995 H   0  0  0  0  0  0  0  0  0  0  0  0
  1  2  1  0
  2  3  1  0
  3  4  1  0
  4  5  1  0
  5  6  1  0
  6  7  2  0
  7  8  1  0
  8  9  2  3
  9 10  1  0
 10 11  1  0
 11 12  2  0
 12 13  1  0
 13 14  1  0
  8 15  1  0
 15 16  2  0
 15 17  1  0
 17 18  1  0
 18 19  2  0
 19 20  1  0
 20 21  2  0
 21 22  1  0
 22 23  2  0
 17  6  1  0
 23 18  1  0
 14 10  2  0
  1 24  1  0
  1 25  1  0
  1 26  1  0
  2 27  1  0
  2 28  1  0
  3 29  1  0
  3 30  1  0
  4 31  1  0
  4 32  1  0
  9 33  1  0
 11 34  1  0
 12 35  1  0
 14 36  1  0
 19 37  1  0
 20 38  1  0
 21 39  1  0
 22 40  1  0
 23 41  1  0
M  END
$$$$
