
     RDKit          3D

 49 52  0  0  0  0  0  0  0  0999 V2000
    0.8645   -0.8876    2.5961 N   0  0  0  0  0  0  0  0  0  0  0  0
   -0.0902   -1.5450    1.9186 C   0  0  0  0  0  0  0  0  0  0  0  0
   -0.4305   -2.7743    2.1692 N   0  0  0  0  0  0  0  0  0  0  0  0
   -1.4670   -3.0741    1.1426 C   0  0  0  0  0  0  0  0  0  0  0  0
   -1.8432   -1.7339    0.4728 C   0  0  0  0  0  0  0  0  0  0  0  0
   -3.2128   -1.2400    0.9705 C   0  0  0  0  0  0  0  0  0  0  0  0
   -3.6975    0.0025    0.2579 C   0  0  0  0  0  0  0  0  0  0  0  0
   -3.5902    1.2590    0.8721 C   0  0  0  0  0  0  0  0  0  0  0  0
   -4.0189    2.4118    0.2109 C   0  0  0  0  0  0  0  0  0  0  0  0
   -4.5548    2.3063   -1.0680 C   0  0  0  0  0  0  0  0  0  0  0  0
   -4.9846    3.4051   -1.7512 O   0  0  0  0  0  0  0  0  0  0  0  0
   -4.6684    1.0705   -1.6929 C   0  0  0  0  0  0  0  0  0  0  0  0
   -4.2414   -0.0818   -1.0317 C   0  0  0  0  0  0  0  0  0  0  0  0
   -0.7639   -0.8693    0.9520 N   0  0  0  0  0  0  0  0  0  0  0  0
   -0.1544    0.0824    0.0235 C   0  0  0  0  0  0  0  0  0  0  0  0
    0.7765   -0.5768   -1.0085 C   0  0  0  0  0  0  0  0  0  0  0  0
    2.2288   -0.6648   -0.5779 C   0  0  0  0  0  0  0  0  0  0  0  0
    2.6962   -1.9026   -0.1024 C   0  0  0  0  0  0  0  0  0  0  0  0
    4.0131   -2.0562    0.3147 C   0  0  0  0  0  0  0  0  0  0  0  0
    4.8862   -0.9745    0.2630 C   0  0  0  0  0  0  0  0  0  0  0  0
    4.4559    0.2760   -0.2029 C   0  0  0  0  0  0  0  0  0  0  0  0
    5.3551    1.3548   -0.2428 C   0  0  0  0  0  0  0  0  0  0  0  0
    4.9547    2.6080   -0.7014 C   0  0  0  0  0  0  0  0  0  0  0  0
    3.6478    2.7984   -1.1271 C   0  0  0  0  0  0  0  0  0  0  0  0
    2.7415    1.7352   -1.0933 C   0  0  0  0  0  0  0  0  0  0  0  0
    3.1146    0.4503   -0.6322 C   0  0  0  0  0  0  0  0  0  0  0  0
    0.6374    0.0758    2.7948 H   0  0  0  0  0  0  0  0  0  0  0  0
    1.1558   -1.3982    3.4208 H   0  0  0  0  0  0  0  0  0  0  0  0
   -2.3239   -3.5723    1.6073 H   0  0  0  0  0  0  0  0  0  0  0  0
   -1.0330   -3.7603    0.4060 H   0  0  0  0  0  0  0  0  0  0  0  0
   -1.8432   -1.8479   -0.6176 H   0  0  0  0  0  0  0  0  0  0  0  0
   -3.1859   -1.0549    2.0527 H   0  0  0  0  0  0  0  0  0  0  0  0
   -3.9652   -2.0260    0.8214 H   0  0  0  0  0  0  0  0  0  0  0  0
   -3.1626    1.3438    1.8692 H   0  0  0  0  0  0  0  0  0  0  0  0
   -3.9251    3.3729    0.7058 H   0  0  0  0  0  0  0  0  0  0  0  0
   -4.8798    4.1838   -1.1804 H   0  0  0  0  0  0  0  0  0  0  0  0
   -5.0914    1.0044   -2.6913 H   0  0  0  0  0  0  0  0  0  0  0  0
   -4.3393   -1.0435   -1.5297 H   0  0  0  0  0  0  0  0  0  0  0  0
   -0.9596    0.5815   -0.5274 H   0  0  0  0  0  0  0  0  0  0  0  0
    0.3568    0.8750    0.5814 H   0  0  0  0  0  0  0  0  0  0  0  0
    0.7347   -0.0084   -1.9462 H   0  0  0  0  0  0  0  0  0  0  0  0
    0.4122   -1.5755   -1.2805 H   0  0  0  0  0  0  0  0  0  0  0  0
    2.0215   -2.7544   -0.0332 H   0  0  0  0  0  0  0  0  0  0  0  0
    4.3547   -3.0173    0.6891 H   0  0  0  0  0  0  0  0  0  0  0  0
    5.9116   -1.1159    0.5968 H   0  0  0  0  0  0  0  0  0  0  0  0
    6.3839    1.2238    0.0860 H   0  0  0  0  0  0  0  0  0  0  0  0
    5.6640    3.4307   -0.7264 H   0  0  0  0  0  0  0  0  0  0  0  0
    3.3290    3.7724   -1.4885 H   0  0  0  0  0  0  0  0  0  0  0  0
    1.7303    1.9309   -1.4386 H   0  0  0  0  0  0  0  0  0  0  0  0
  1  2  1  0
  2  3  2  0
  3  4  1  0
  4  5  1  0
  5  6  1  0
  6  7  1  0
  7  8  2  0
  8  9  1  0
  9 10  2  0
 10 11  1  0
 10 12  1  0
 12 13  2  0
  5 14  1  0
 14 15  1  0
 15 16  1  0
 16 17  1  0
 17 18  2  0
 18 19  1  0
 19 20  2  0
 20 21  1  0
 21 22  2  0
 22 23  1  0
 23 24  2  0
 24 25  1  0
 25 26  2  0
 14  2  1  0
 26 17  1  0
 13  7  1  0
 26 21  1  0
  1 27  1  0
  1 28  1  0
  4 29  1  0
  4 30  1  0
  5 31  1  0
  6 32  1  0
  6 33  1  0
  8 34  1  0
  9 35  1  0
 11 36  1  0
 12 37  1  0
 13 38  1  0
 15 39  1  0
 15 40  1  0
 16 41  1  0
 16 42  1  0
 18 43  1  0
 19 44  1  0
 20 45  1  0
 22 46  1  0
 23 47  1  0
 24 48  1  0
 25 49  1  0
M  END
$$$$
