
     RDKit          3D

 54 58  0  0  0  0  0  0  0  0999 V2000
   -3.2591   -2.9218   -2.3786 C   0  0  0  0  0  0  0  0  0  0  0  0
   -4.0373   -3.2543   -1.1121 C   0  0  0  0  0  0  0  0  0  0  0  0
   -4.3280   -2.0103   -0.2493 C   0  0  0  0  0  0  0  0  0  0  0  0
   -5.2314   -2.3718    0.9347 C   0  0  0  0  0  0  0  0  0  0  0  0
   -3.1016   -1.3378    0.2081 N   0  0  0  0  0  0  0  0  0  0  0  0
   -2.1904   -2.0087    1.0197 C   0  0  0  0  0  0  0  0  0  0  0  0
   -1.0767   -1.5307    1.4871 N   0  0  0  0  0  0  0  0  0  0  0  0
   -0.8419   -0.2555    1.1022 C   0  0  0  0  0  0  0  0  0  0  0  0
   -1.6493    0.5404    0.3172 C   0  0  0  0  0  0  0  0  0  0  0  0
   -2.8863   -0.0038   -0.1837 C   0  0  0  0  0  0  0  0  0  0  0  0
   -3.6675    0.6380   -0.8789 O   0  0  0  0  0  0  0  0  0  0  0  0
   -1.0214    1.7938    0.1906 C   0  0  0  0  0  0  0  0  0  0  0  0
   -1.3916    2.9254   -0.4574 N   0  0  0  0  0  0  0  0  0  0  0  0
   -0.5251    3.9438   -0.3457 C   0  0  0  0  0  0  0  0  0  0  0  0
   -0.8313    5.1387   -0.9841 C   0  0  0  0  0  0  0  0  0  0  0  0
    0.0174    6.2442   -0.9141 C   0  0  0  0  0  0  0  0  0  0  0  0
    1.1979    6.1546   -0.1904 C   0  0  0  0  0  0  0  0  0  0  0  0
    1.5190    4.9601    0.4563 C   0  0  0  0  0  0  0  0  0  0  0  0
    0.6845    3.8510    0.3954 C   0  0  0  0  0  0  0  0  0  0  0  0
    1.0612    2.7348    1.0436 N   0  0  0  0  0  0  0  0  0  0  0  0
    0.1722    1.7288    0.9064 C   0  0  0  0  0  0  0  0  0  0  0  0
    0.2778    0.4655    1.4366 N   0  0  0  0  0  0  0  0  0  0  0  0
    1.3841   -0.0052    2.2513 C   0  0  0  0  0  0  0  0  0  0  0  0
    2.4543   -0.6536    1.4080 C   0  0  0  0  0  0  0  0  0  0  0  0
    3.4656    0.1178    0.8192 C   0  0  0  0  0  0  0  0  0  0  0  0
    4.4504   -0.4787    0.0235 C   0  0  0  0  0  0  0  0  0  0  0  0
    4.4350   -1.8554   -0.1974 C   0  0  0  0  0  0  0  0  0  0  0  0
    5.3330   -2.5608   -0.9504 O   0  0  0  0  0  0  0  0  0  0  0  0
    6.3651   -1.8147   -1.5826 C   0  0  0  0  0  0  0  0  0  0  0  0
    3.4253   -2.6267    0.3818 C   0  0  0  0  0  0  0  0  0  0  0  0
    2.4401   -2.0340    1.1751 C   0  0  0  0  0  0  0  0  0  0  0  0
   -3.7879   -2.1748   -2.9791 H   0  0  0  0  0  0  0  0  0  0  0  0
   -3.1345   -3.8212   -2.9901 H   0  0  0  0  0  0  0  0  0  0  0  0
   -2.2620   -2.5356   -2.1462 H   0  0  0  0  0  0  0  0  0  0  0  0
   -4.9877   -3.7186   -1.4036 H   0  0  0  0  0  0  0  0  0  0  0  0
   -3.4840   -4.0086   -0.5413 H   0  0  0  0  0  0  0  0  0  0  0  0
   -4.9026   -1.3152   -0.8731 H   0  0  0  0  0  0  0  0  0  0  0  0
   -4.7735   -3.1235    1.5856 H   0  0  0  0  0  0  0  0  0  0  0  0
   -5.4416   -1.4864    1.5446 H   0  0  0  0  0  0  0  0  0  0  0  0
   -6.1874   -2.7736    0.5825 H   0  0  0  0  0  0  0  0  0  0  0  0
   -2.4747   -3.0420    1.2701 H   0  0  0  0  0  0  0  0  0  0  0  0
   -1.7573    5.2084   -1.5511 H   0  0  0  0  0  0  0  0  0  0  0  0
   -0.2478    7.1670   -1.4238 H   0  0  0  0  0  0  0  0  0  0  0  0
    1.8692    7.0072   -0.1261 H   0  0  0  0  0  0  0  0  0  0  0  0
    2.4444    4.8922    1.0234 H   0  0  0  0  0  0  0  0  0  0  0  0
    0.9912   -0.7059    2.9973 H   0  0  0  0  0  0  0  0  0  0  0  0
    1.7911    0.8449    2.8113 H   0  0  0  0  0  0  0  0  0  0  0  0
    3.4882    1.1962    0.9699 H   0  0  0  0  0  0  0  0  0  0  0  0
    5.2098    0.1629   -0.4103 H   0  0  0  0  0  0  0  0  0  0  0  0
    7.0063   -1.3232   -0.8435 H   0  0  0  0  0  0  0  0  0  0  0  0
    5.9515   -1.0906   -2.2924 H   0  0  0  0  0  0  0  0  0  0  0  0
    6.9865   -2.5163   -2.1476 H   0  0  0  0  0  0  0  0  0  0  0  0
    3.4023   -3.6997    0.2088 H   0  0  0  0  0  0  0  0  0  0  0  0
    1.6568   -2.6567    1.6027 H   0  0  0  0  0  0  0  0  0  0  0  0
  1  2  1  0
  2  3  1  0
  3  4  1  0
  3  5  1  0
  5  6  1  0
  6  7  2  0
  7  8  1  0
  8  9  2  0
  9 10  1  0
 10 11  2  0
  9 12  1  0
 12 13  2  0
 13 14  1  0
 14 15  2  0
 15 16  1  0
 16 17  2  0
 17 18  1  0
 18 19  2  0
 19 20  1  0
 20 21  2  0
 21 22  1  0
 22 23  1  0
 23 24  1  0
 24 25  2  0
 25 26  1  0
 26 27  2  0
 27 28  1  0
 28 29  1  0
 27 30  1  0
 30 31  2  0
 10  5  1  0
 21 12  1  0
 31 24  1  0
 22  8  1  0
 19 14  1  0
  1 32  1  0
  1 33  1  0
  1 34  1  0
  2 35  1  0
  2 36  1  0
  3 37  1  0
  4 38  1  0
  4 39  1  0
  4 40  1  0
  6 41  1  0
 15 42  1  0
 16 43  1  0
 17 44  1  0
 18 45  1  0
 23 46  1  0
 23 47  1  0
 25 48  1  0
 26 49  1  0
 29 50  1  0
 29 51  1  0
 29 52  1  0
 30 53  1  0
 31 54  1  0
M  END
$$$$
