
     RDKit          3D

 37 37  0  0  0  0  0  0  0  0999 V2000
    5.7622   -0.9358   -0.3349 C   0  0  0  0  0  0  0  0  0  0  0  0
    4.4555   -0.1920   -0.5655 C   0  0  0  0  0  0  0  0  0  0  0  0
    3.4742   -0.4200    0.5847 C   0  0  0  0  0  0  0  0  0  0  0  0
    2.1853    0.3955    0.4542 C   0  0  0  0  0  0  0  0  0  0  0  0
    1.3299   -0.0090   -0.7456 C   0  0  0  0  0  0  0  0  0  0  0  0
   -0.0059    0.7155   -0.7687 C   0  0  0  0  0  0  0  0  0  0  0  0
   -0.3019    1.6041    0.0244 O   0  0  0  0  0  0  0  0  0  0  0  0
   -0.8248    0.2376   -1.7993 N   0  0  0  0  0  0  0  0  0  0  0  0
   -1.9788    0.9007   -2.1319 N   0  0  0  0  0  0  0  0  0  0  0  0
   -2.9459    0.9550   -1.2595 C   0  0  0  0  0  0  0  0  0  0  0  0
   -4.1259    1.8400   -1.5915 C   0  0  0  0  0  0  0  0  0  0  0  0
   -3.0315    0.1937    0.0129 C   0  0  0  0  0  0  0  0  0  0  0  0
   -3.2311    0.8709    1.2199 C   0  0  0  0  0  0  0  0  0  0  0  0
   -3.3259    0.1473    2.4106 C   0  0  0  0  0  0  0  0  0  0  0  0
   -3.2286   -1.2445    2.3859 C   0  0  0  0  0  0  0  0  0  0  0  0
   -3.3458   -2.1342    3.8540 Cl  0  0  0  0  0  0  0  0  0  0  0  0
   -3.0370   -1.9223    1.1812 C   0  0  0  0  0  0  0  0  0  0  0  0
   -2.9389   -1.2022   -0.0110 C   0  0  0  0  0  0  0  0  0  0  0  0
    5.5906   -2.0138   -0.2533 H   0  0  0  0  0  0  0  0  0  0  0  0
    6.4489   -0.7630   -1.1695 H   0  0  0  0  0  0  0  0  0  0  0  0
    6.2515   -0.5948    0.5831 H   0  0  0  0  0  0  0  0  0  0  0  0
    4.6652    0.8787   -0.6702 H   0  0  0  0  0  0  0  0  0  0  0  0
    4.0207   -0.5339   -1.5107 H   0  0  0  0  0  0  0  0  0  0  0  0
    3.9590   -0.1440    1.5295 H   0  0  0  0  0  0  0  0  0  0  0  0
    3.2287   -1.4866    0.6567 H   0  0  0  0  0  0  0  0  0  0  0  0
    1.6013    0.2631    1.3740 H   0  0  0  0  0  0  0  0  0  0  0  0
    2.4279    1.4638    0.3945 H   0  0  0  0  0  0  0  0  0  0  0  0
    1.1354   -1.0876   -0.7166 H   0  0  0  0  0  0  0  0  0  0  0  0
    1.8507    0.2246   -1.6805 H   0  0  0  0  0  0  0  0  0  0  0  0
   -0.3208   -0.0941   -2.6170 H   0  0  0  0  0  0  0  0  0  0  0  0
   -4.4403    1.6544   -2.6231 H   0  0  0  0  0  0  0  0  0  0  0  0
   -3.8254    2.8873   -1.4948 H   0  0  0  0  0  0  0  0  0  0  0  0
   -4.9764    1.6479   -0.9319 H   0  0  0  0  0  0  0  0  0  0  0  0
   -3.2794    1.9568    1.2421 H   0  0  0  0  0  0  0  0  0  0  0  0
   -3.4648    0.6740    3.3510 H   0  0  0  0  0  0  0  0  0  0  0  0
   -2.9637   -3.0065    1.1652 H   0  0  0  0  0  0  0  0  0  0  0  0
   -2.7944   -1.7265   -0.9521 H   0  0  0  0  0  0  0  0  0  0  0  0
  1  2  1  0
  2  3  1  0
  3  4  1  0
  4  5  1  0
  5  6  1  0
  6  7  2  0
  6  8  1  0
  8  9  1  0
  9 10  2  3
 10 11  1  0
 10 12  1  0
 12 13  2  0
 13 14  1  0
 14 15  2  0
 15 16  1  0
 15 17  1  0
 17 18  2  0
 18 12  1  0
  1 19  1  0
  1 20  1  0
  1 21  1  0
  2 22  1  0
  2 23  1  0
  3 24  1  0
  3 25  1  0
  4 26  1  0
  4 27  1  0
  5 28  1  0
  5 29  1  0
  8 30  1  0
 11 31  1  0
 11 32  1  0
 11 33  1  0
 13 34  1  0
 14 35  1  0
 17 36  1  0
 18 37  1  0
M  END
$$$$
