
     RDKit          3D

 57 61  0  0  0  0  0  0  0  0999 V2000
   -8.0159   -1.0523    3.2383 C   0  0  0  0  0  0  0  0  0  0  0  0
   -6.9361   -0.7216    2.2518 C   0  0  0  0  0  0  0  0  0  0  0  0
   -7.2610   -0.2509    0.9781 C   0  0  0  0  0  0  0  0  0  0  0  0
   -6.2527    0.0892    0.0694 C   0  0  0  0  0  0  0  0  0  0  0  0
   -4.8903   -0.0248    0.4010 C   0  0  0  0  0  0  0  0  0  0  0  0
   -3.8435    0.3379   -0.5788 C   0  0  0  0  0  0  0  0  0  0  0  0
   -2.5951   -0.2597   -0.6093 C   0  0  0  0  0  0  0  0  0  0  0  0
   -1.6762    0.1622   -1.5739 C   0  0  0  0  0  0  0  0  0  0  0  0
   -0.3423   -0.4856   -1.5755 C   0  0  0  0  0  0  0  0  0  0  0  0
    0.0229   -1.0742   -2.5828 O   0  0  0  0  0  0  0  0  0  0  0  0
    0.3498   -0.3252   -0.3892 N   0  0  0  0  0  0  0  0  0  0  0  0
    1.6142   -0.8546   -0.0588 C   0  0  0  0  0  0  0  0  0  0  0  0
    2.1368   -0.5198    1.1992 C   0  0  0  0  0  0  0  0  0  0  0  0
    3.3780   -1.0123    1.6121 C   0  0  0  0  0  0  0  0  0  0  0  0
    4.1083   -1.8379    0.7571 C   0  0  0  0  0  0  0  0  0  0  0  0
    5.6636   -2.5146    1.2840 S   0  0  0  0  0  6  0  0  0  0  0  0
    5.8618   -2.2189    2.6874 O   0  0  0  0  0  0  0  0  0  0  0  0
    5.6876   -3.8899    0.8239 O   0  0  0  0  0  0  0  0  0  0  0  0
    6.7827   -1.7083    0.3615 N   0  0  0  0  0  0  0  0  0  0  0  0
    7.1904   -0.4549    0.7975 C   0  0  0  0  0  0  0  0  0  0  0  0
    8.4853   -0.2137    0.5694 N   0  0  0  0  0  0  0  0  0  0  0  0
    8.8965    1.0380    0.8435 C   0  0  0  0  0  0  0  0  0  0  0  0
    8.0561    2.0326    1.2868 C   0  0  0  0  0  0  0  0  0  0  0  0
    6.7365    1.6721    1.4322 C   0  0  0  0  0  0  0  0  0  0  0  0
    6.2716    0.4363    1.1731 N   0  0  0  0  0  0  0  0  0  0  0  0
    3.5965   -2.1886   -0.4938 C   0  0  0  0  0  0  0  0  0  0  0  0
    2.3524   -1.6926   -0.8991 C   0  0  0  0  0  0  0  0  0  0  0  0
   -2.0082    1.1575   -2.5156 C   0  0  0  0  0  0  0  0  0  0  0  0
   -1.1428    1.6416   -3.5292 C   0  0  0  0  0  0  0  0  0  0  0  0
   -1.5565    2.6360   -4.4130 C   0  0  0  0  0  0  0  0  0  0  0  0
   -2.8346    3.1622   -4.2971 C   0  0  0  0  0  0  0  0  0  0  0  0
   -3.6885    2.6895   -3.2980 C   0  0  0  0  0  0  0  0  0  0  0  0
   -3.3004    1.6988   -2.4056 C   0  0  0  0  0  0  0  0  0  0  0  0
   -4.1798    1.3048   -1.4682 N   0  0  0  0  0  0  0  0  0  0  0  0
   -4.5835   -0.4795    1.6962 C   0  0  0  0  0  0  0  0  0  0  0  0
   -5.5898   -0.8189    2.6096 C   0  0  0  0  0  0  0  0  0  0  0  0
   -7.6752   -1.8080    3.9534 H   0  0  0  0  0  0  0  0  0  0  0  0
   -8.8960   -1.4599    2.7306 H   0  0  0  0  0  0  0  0  0  0  0  0
   -8.3087   -0.1529    3.7884 H   0  0  0  0  0  0  0  0  0  0  0  0
   -8.3011   -0.1427    0.6786 H   0  0  0  0  0  0  0  0  0  0  0  0
   -6.5404    0.4493   -0.9177 H   0  0  0  0  0  0  0  0  0  0  0  0
   -2.3412   -1.0634    0.0738 H   0  0  0  0  0  0  0  0  0  0  0  0
   -0.0778    0.2648    0.3139 H   0  0  0  0  0  0  0  0  0  0  0  0
    1.5871    0.1276    1.8774 H   0  0  0  0  0  0  0  0  0  0  0  0
    3.7693   -0.7434    2.5908 H   0  0  0  0  0  0  0  0  0  0  0  0
    7.5492   -2.2930    0.0519 H   0  0  0  0  0  0  0  0  0  0  0  0
    9.9550    1.2254    0.6860 H   0  0  0  0  0  0  0  0  0  0  0  0
    8.4076    3.0324    1.4996 H   0  0  0  0  0  0  0  0  0  0  0  0
    5.9914    2.3889    1.7649 H   0  0  0  0  0  0  0  0  0  0  0  0
    4.1520   -2.8493   -1.1560 H   0  0  0  0  0  0  0  0  0  0  0  0
    1.9840   -1.9884   -1.8771 H   0  0  0  0  0  0  0  0  0  0  0  0
   -0.1390    1.2354   -3.6437 H   0  0  0  0  0  0  0  0  0  0  0  0
   -0.8838    2.9907   -5.1896 H   0  0  0  0  0  0  0  0  0  0  0  0
   -3.1739    3.9360   -4.9805 H   0  0  0  0  0  0  0  0  0  0  0  0
   -4.6896    3.1070   -3.2136 H   0  0  0  0  0  0  0  0  0  0  0  0
   -3.5514   -0.5595    2.0278 H   0  0  0  0  0  0  0  0  0  0  0  0
   -5.3112   -1.1571    3.6051 H   0  0  0  0  0  0  0  0  0  0  0  0
  1  2  1  0
  2  3  2  0
  3  4  1  0
  4  5  2  0
  5  6  1  0
  6  7  2  0
  7  8  1  0
  8  9  1  0
  9 10  2  0
  9 11  1  0
 11 12  1  0
 12 13  2  0
 13 14  1  0
 14 15  2  0
 15 16  1  0
 16 17  2  0
 16 18  2  0
 16 19  1  0
 19 20  1  0
 20 21  2  0
 21 22  1  0
 22 23  2  0
 23 24  1  0
 24 25  2  0
 15 26  1  0
 26 27  2  0
  8 28  2  0
 28 29  1  0
 29 30  2  0
 30 31  1  0
 31 32  2  0
 32 33  1  0
 33 34  2  0
  5 35  1  0
 35 36  2  0
 36  2  1  0
 34  6  1  0
 27 12  1  0
 33 28  1  0
 25 20  1  0
  1 37  1  0
  1 38  1  0
  1 39  1  0
  3 40  1  0
  4 41  1  0
  7 42  1  0
 11 43  1  0
 13 44  1  0
 14 45  1  0
 19 46  1  0
 22 47  1  0
 23 48  1  0
 24 49  1  0
 26 50  1  0
 27 51  1  0
 29 52  1  0
 30 53  1  0
 31 54  1  0
 32 55  1  0
 35 56  1  0
 36 57  1  0
M  END
$$$$
