
     RDKit          3D

 68 71  0  0  0  0  0  0  0  0999 V2000
   -3.7411    0.0256   -2.8343 C   0  0  0  0  0  0  0  0  0  0  0  0
   -2.8882    0.7153   -1.7659 C   0  0  0  0  0  0  0  0  0  0  0  0
   -3.2000    2.1141   -1.8352 O   0  0  0  0  0  0  0  0  0  0  0  0
   -2.5536    2.8343   -0.8690 C   0  0  0  0  0  0  0  0  0  0  0  0
   -1.4613    3.6145   -1.2428 C   0  0  0  0  0  0  0  0  0  0  0  0
   -0.7944    4.3755   -0.2832 C   0  0  0  0  0  0  0  0  0  0  0  0
   -1.2324    4.3656    1.0411 C   0  0  0  0  0  0  0  0  0  0  0  0
   -2.3405    3.5990    1.4059 C   0  0  0  0  0  0  0  0  0  0  0  0
   -3.0107    2.8370    0.4473 C   0  0  0  0  0  0  0  0  0  0  0  0
   -1.3992    0.4137   -2.0692 C   0  0  0  0  0  0  0  0  0  0  0  0
   -0.9225    0.7136   -3.1719 O   0  0  0  0  0  0  0  0  0  0  0  0
   -0.5893   -0.1173   -1.0547 N   0  0  0  0  0  0  0  0  0  0  0  0
   -1.0922   -0.5391    0.2684 C   0  0  0  0  0  0  0  0  0  0  0  0
   -1.7414   -1.9341    0.2304 C   0  0  0  0  0  0  0  0  0  0  0  0
   -2.3648   -2.3288    1.5515 C   0  0  0  0  0  0  0  0  0  0  0  0
   -3.6749   -2.6203    1.6552 C   0  0  0  0  0  0  0  0  0  0  0  0
   -4.3428   -3.0272    2.9386 C   0  0  0  0  0  0  0  0  0  0  0  0
   -3.4808   -2.7686    4.1739 C   0  0  0  0  0  0  0  0  0  0  0  0
   -2.0331   -3.1757    3.9297 C   0  0  0  0  0  0  0  0  0  0  0  0
   -1.4370   -2.4178    2.7420 C   0  0  0  0  0  0  0  0  0  0  0  0
    0.6661   -0.6198   -1.4349 C   0  0  0  0  0  0  0  0  0  0  0  0
    1.8265   -0.3272   -0.7977 C   0  0  0  0  0  0  0  0  0  0  0  0
    1.8490    0.6103    0.2355 N   0  0  0  0  0  0  0  0  0  0  0  0
    3.0022   -0.9569   -1.2045 N   0  0  0  0  0  0  0  0  0  0  0  0
    4.2064   -0.8961   -0.3675 C   0  0  0  0  0  0  0  0  0  0  0  0
    4.9831    0.4007   -0.4760 C   0  0  0  0  0  0  0  0  0  0  0  0
    5.3103    0.9596   -1.7206 C   0  0  0  0  0  0  0  0  0  0  0  0
    6.0419    2.1460   -1.7932 C   0  0  0  0  0  0  0  0  0  0  0  0
    6.4758    2.7735   -0.6274 C   0  0  0  0  0  0  0  0  0  0  0  0
    6.1775    2.2168    0.6139 C   0  0  0  0  0  0  0  0  0  0  0  0
    5.4371    1.0368    0.6903 C   0  0  0  0  0  0  0  0  0  0  0  0
    3.0703   -1.7420   -2.3512 C   0  0  0  0  0  0  0  0  0  0  0  0
    4.0600   -2.3832   -2.6990 O   0  0  0  0  0  0  0  0  0  0  0  0
    1.9383   -1.8078   -3.1049 N   0  0  0  0  0  0  0  0  0  0  0  0
    0.7110   -1.6020   -2.5619 C   0  0  0  0  0  0  0  0  0  0  0  0
   -0.2761   -2.2415   -2.9136 O   0  0  0  0  0  0  0  0  0  0  0  0
   -3.5210    0.4184   -3.8335 H   0  0  0  0  0  0  0  0  0  0  0  0
   -4.8048    0.2113   -2.6510 H   0  0  0  0  0  0  0  0  0  0  0  0
   -3.5716   -1.0582   -2.8370 H   0  0  0  0  0  0  0  0  0  0  0  0
   -3.2208    0.3174   -0.8070 H   0  0  0  0  0  0  0  0  0  0  0  0
   -1.1296    3.6271   -2.2792 H   0  0  0  0  0  0  0  0  0  0  0  0
    0.0578    4.9839   -0.5739 H   0  0  0  0  0  0  0  0  0  0  0  0
   -0.7202    4.9689    1.7870 H   0  0  0  0  0  0  0  0  0  0  0  0
   -2.6900    3.6088    2.4347 H   0  0  0  0  0  0  0  0  0  0  0  0
   -3.8850    2.2564    0.7317 H   0  0  0  0  0  0  0  0  0  0  0  0
   -1.7981    0.2072    0.6413 H   0  0  0  0  0  0  0  0  0  0  0  0
   -0.2680   -0.5458    0.9901 H   0  0  0  0  0  0  0  0  0  0  0  0
   -0.9847   -2.6845   -0.0357 H   0  0  0  0  0  0  0  0  0  0  0  0
   -2.4897   -1.9693   -0.5718 H   0  0  0  0  0  0  0  0  0  0  0  0
   -4.3156   -2.5884    0.7767 H   0  0  0  0  0  0  0  0  0  0  0  0
   -4.5882   -4.0935    2.8769 H   0  0  0  0  0  0  0  0  0  0  0  0
   -5.2913   -2.4875    3.0426 H   0  0  0  0  0  0  0  0  0  0  0  0
   -3.8872   -3.3187    5.0301 H   0  0  0  0  0  0  0  0  0  0  0  0
   -3.5211   -1.7032    4.4339 H   0  0  0  0  0  0  0  0  0  0  0  0
   -1.9800   -4.2549    3.7411 H   0  0  0  0  0  0  0  0  0  0  0  0
   -1.4343   -2.9812    4.8259 H   0  0  0  0  0  0  0  0  0  0  0  0
   -1.1811   -1.4010    3.0628 H   0  0  0  0  0  0  0  0  0  0  0  0
   -0.5006   -2.9085    2.4505 H   0  0  0  0  0  0  0  0  0  0  0  0
    1.0185    1.2027    0.2026 H   0  0  0  0  0  0  0  0  0  0  0  0
    2.6759    1.1982    0.1632 H   0  0  0  0  0  0  0  0  0  0  0  0
    4.8899   -1.7183   -0.6116 H   0  0  0  0  0  0  0  0  0  0  0  0
    3.8960   -1.0718    0.6721 H   0  0  0  0  0  0  0  0  0  0  0  0
    4.9992    0.4783   -2.6440 H   0  0  0  0  0  0  0  0  0  0  0  0
    6.2829    2.5732   -2.7634 H   0  0  0  0  0  0  0  0  0  0  0  0
    7.0557    3.6897   -0.6876 H   0  0  0  0  0  0  0  0  0  0  0  0
    6.5365    2.6873    1.5228 H   0  0  0  0  0  0  0  0  0  0  0  0
    5.2200    0.6122    1.6695 H   0  0  0  0  0  0  0  0  0  0  0  0
    1.9713   -2.5026   -3.8356 H   0  0  0  0  0  0  0  0  0  0  0  0
  1  2  1  0
  2  3  1  0
  3  4  1  0
  4  5  2  0
  5  6  1  0
  6  7  2  0
  7  8  1  0
  8  9  2  0
  2 10  1  0
 10 11  2  0
 10 12  1  0
 12 13  1  0
 13 14  1  0
 14 15  1  0
 15 16  2  0
 16 17  1  0
 17 18  1  0
 18 19  1  0
 19 20  1  0
 12 21  1  0
 21 22  2  0
 22 23  1  0
 22 24  1  0
 24 25  1  0
 25 26  1  0
 26 27  2  0
 27 28  1  0
 28 29  2  0
 29 30  1  0
 30 31  2  0
 24 32  1  0
 32 33  2  0
 32 34  1  0
 34 35  1  0
 35 36  2  0
  9  4  1  0
 20 15  1  0
 35 21  1  0
 31 26  1  0
  1 37  1  0
  1 38  1  0
  1 39  1  0
  2 40  1  0
  5 41  1  0
  6 42  1  0
  7 43  1  0
  8 44  1  0
  9 45  1  0
 13 46  1  0
 13 47  1  0
 14 48  1  0
 14 49  1  0
 16 50  1  0
 17 51  1  0
 17 52  1  0
 18 53  1  0
 18 54  1  0
 19 55  1  0
 19 56  1  0
 20 57  1  0
 20 58  1  0
 23 59  1  0
 23 60  1  0
 25 61  1  0
 25 62  1  0
 27 63  1  0
 28 64  1  0
 29 65  1  0
 30 66  1  0
 31 67  1  0
 34 68  1  0
M  END
$$$$
