
     RDKit          3D

 67 71  0  0  0  0  0  0  0  0999 V2000
   -7.8377    3.8767    0.3159 C   0  0  0  0  0  0  0  0  0  0  0  0
   -6.5254    4.1587    0.7806 O   0  0  0  0  0  0  0  0  0  0  0  0
   -5.5331    3.2548    0.4822 C   0  0  0  0  0  0  0  0  0  0  0  0
   -5.7378    2.0845   -0.2591 C   0  0  0  0  0  0  0  0  0  0  0  0
   -4.6467    1.2271   -0.5104 C   0  0  0  0  0  0  0  0  0  0  0  0
   -4.6845   -0.2486   -1.3936 S   0  0  0  0  0  0  0  0  0  0  0  0
   -3.0154   -0.5287   -1.1630 C   0  0  0  0  0  0  0  0  0  0  0  0
   -2.4208   -1.7359   -1.7510 C   0  0  0  0  0  0  0  0  0  0  0  0
   -1.8552   -1.6511   -3.0340 C   0  0  0  0  0  0  0  0  0  0  0  0
   -1.2674   -2.7681   -3.6244 C   0  0  0  0  0  0  0  0  0  0  0  0
   -1.2372   -3.9771   -2.9363 C   0  0  0  0  0  0  0  0  0  0  0  0
   -1.7932   -4.0745   -1.6571 C   0  0  0  0  0  0  0  0  0  0  0  0
   -2.3887   -2.9606   -1.0532 C   0  0  0  0  0  0  0  0  0  0  0  0
   -2.9440   -2.9634    0.2020 O   0  0  0  0  0  0  0  0  0  0  0  0
   -3.0195   -4.2075    0.8838 C   0  0  0  0  0  0  0  0  0  0  0  0
   -2.4226    0.4855   -0.4307 C   0  0  0  0  0  0  0  0  0  0  0  0
   -0.9990    0.4690   -0.1205 C   0  0  0  0  0  0  0  0  0  0  0  0
   -0.1170    1.2887   -0.8317 C   0  0  0  0  0  0  0  0  0  0  0  0
    1.2515    1.2753   -0.5383 C   0  0  0  0  0  0  0  0  0  0  0  0
    1.7443    0.4431    0.4675 C   0  0  0  0  0  0  0  0  0  0  0  0
    3.0514    0.3314    0.8510 O   0  0  0  0  0  0  0  0  0  0  0  0
    4.0243    1.0253    0.0664 C   0  0  0  0  0  0  0  0  0  0  0  0
    5.4373    0.6843    0.5815 C   0  0  0  0  0  0  0  0  0  0  0  0
    6.0696   -0.4699   -0.0897 N   0  0  0  0  0  0  0  0  0  0  0  0
    5.4208   -1.7649    0.2141 C   0  0  0  0  0  0  0  0  0  0  0  0
    6.1510   -2.5803    1.2938 C   0  0  0  0  0  0  0  0  0  0  0  0
    7.5049   -2.8983    0.9413 O   0  0  0  0  0  0  0  0  0  0  0  0
    8.0941   -1.9354    0.0562 C   0  0  0  0  0  0  0  0  0  0  0  0
    7.5117   -0.5269    0.2454 C   0  0  0  0  0  0  0  0  0  0  0  0
    0.8574   -0.3646    1.1845 C   0  0  0  0  0  0  0  0  0  0  0  0
   -0.5087   -0.3544    0.8953 C   0  0  0  0  0  0  0  0  0  0  0  0
   -3.3650    1.5105   -0.0422 C   0  0  0  0  0  0  0  0  0  0  0  0
   -3.1822    2.7005    0.7114 C   0  0  0  0  0  0  0  0  0  0  0  0
   -4.2550    3.5642    0.9711 C   0  0  0  0  0  0  0  0  0  0  0  0
   -4.1489    4.7313    1.6888 O   0  0  0  0  0  0  0  0  0  0  0  0
   -2.8805    5.0533    2.2414 C   0  0  0  0  0  0  0  0  0  0  0  0
   -8.4894    4.6940    0.6385 H   0  0  0  0  0  0  0  0  0  0  0  0
   -8.2227    2.9518    0.7577 H   0  0  0  0  0  0  0  0  0  0  0  0
   -7.8710    3.8396   -0.7778 H   0  0  0  0  0  0  0  0  0  0  0  0
   -6.7121    1.8125   -0.6472 H   0  0  0  0  0  0  0  0  0  0  0  0
   -1.8708   -0.7078   -3.5753 H   0  0  0  0  0  0  0  0  0  0  0  0
   -0.8312   -2.6932   -4.6172 H   0  0  0  0  0  0  0  0  0  0  0  0
   -0.7752   -4.8486   -3.3937 H   0  0  0  0  0  0  0  0  0  0  0  0
   -1.7382   -5.0346   -1.1559 H   0  0  0  0  0  0  0  0  0  0  0  0
   -3.6060   -4.9370    0.3157 H   0  0  0  0  0  0  0  0  0  0  0  0
   -3.5333   -4.0361    1.8347 H   0  0  0  0  0  0  0  0  0  0  0  0
   -2.0201   -4.5919    1.1115 H   0  0  0  0  0  0  0  0  0  0  0  0
   -0.4874    1.9376   -1.6220 H   0  0  0  0  0  0  0  0  0  0  0  0
    1.9016    1.9260   -1.1134 H   0  0  0  0  0  0  0  0  0  0  0  0
    3.9369    0.7648   -0.9957 H   0  0  0  0  0  0  0  0  0  0  0  0
    3.8675    2.1043    0.1884 H   0  0  0  0  0  0  0  0  0  0  0  0
    5.4211    0.5371    1.6687 H   0  0  0  0  0  0  0  0  0  0  0  0
    6.0612    1.5635    0.3737 H   0  0  0  0  0  0  0  0  0  0  0  0
    5.4312   -2.3474   -0.7165 H   0  0  0  0  0  0  0  0  0  0  0  0
    4.3683   -1.6579    0.4858 H   0  0  0  0  0  0  0  0  0  0  0  0
    5.6294   -3.5275    1.4664 H   0  0  0  0  0  0  0  0  0  0  0  0
    6.1638   -2.0384    2.2467 H   0  0  0  0  0  0  0  0  0  0  0  0
    7.9550   -2.2827   -0.9742 H   0  0  0  0  0  0  0  0  0  0  0  0
    9.1707   -1.9273    0.2534 H   0  0  0  0  0  0  0  0  0  0  0  0
    8.0525    0.1836   -0.3893 H   0  0  0  0  0  0  0  0  0  0  0  0
    7.6710   -0.2340    1.2918 H   0  0  0  0  0  0  0  0  0  0  0  0
    1.2335   -1.0137    1.9712 H   0  0  0  0  0  0  0  0  0  0  0  0
   -1.1826   -0.9954    1.4590 H   0  0  0  0  0  0  0  0  0  0  0  0
   -2.1842    2.9139    1.0775 H   0  0  0  0  0  0  0  0  0  0  0  0
   -2.9855    5.9913    2.7950 H   0  0  0  0  0  0  0  0  0  0  0  0
   -2.1369    5.2132    1.4536 H   0  0  0  0  0  0  0  0  0  0  0  0
   -2.5498    4.2863    2.9495 H   0  0  0  0  0  0  0  0  0  0  0  0
  1  2  1  0
  2  3  1  0
  3  4  2  0
  4  5  1  0
  5  6  1  0
  6  7  1  0
  7  8  1  0
  8  9  2  0
  9 10  1  0
 10 11  2  0
 11 12  1  0
 12 13  2  0
 13 14  1  0
 14 15  1  0
  7 16  2  0
 16 17  1  0
 17 18  2  0
 18 19  1  0
 19 20  2  0
 20 21  1  0
 21 22  1  0
 22 23  1  0
 23 24  1  0
 24 25  1  0
 25 26  1  0
 26 27  1  0
 27 28  1  0
 28 29  1  0
 20 30  1  0
 30 31  2  0
 16 32  1  0
 32 33  1  0
 33 34  2  0
 34 35  1  0
 35 36  1  0
 34  3  1  0
 32  5  2  0
 13  8  1  0
 31 17  1  0
 29 24  1  0
  1 37  1  0
  1 38  1  0
  1 39  1  0
  4 40  1  0
  9 41  1  0
 10 42  1  0
 11 43  1  0
 12 44  1  0
 15 45  1  0
 15 46  1  0
 15 47  1  0
 18 48  1  0
 19 49  1  0
 22 50  1  0
 22 51  1  0
 23 52  1  0
 23 53  1  0
 25 54  1  0
 25 55  1  0
 26 56  1  0
 26 57  1  0
 28 58  1  0
 28 59  1  0
 29 60  1  0
 29 61  1  0
 30 62  1  0
 31 63  1  0
 33 64  1  0
 36 65  1  0
 36 66  1  0
 36 67  1  0
M  END
$$$$
