
     RDKit          3D

 49 51  0  0  0  0  0  0  0  0999 V2000
   -1.3386    2.2385    2.5001 O   0  0  0  0  0  0  0  0  0  0  0  0
   -0.9947    1.8227    1.3979 C   0  0  0  0  0  0  0  0  0  0  0  0
   -2.0288    1.4780    0.3460 C   0  0  0  0  0  0  0  0  0  0  0  0
   -2.3462   -0.0162    0.4062 C   0  0  0  0  0  0  0  0  0  0  0  0
   -3.2714   -0.4480   -0.6544 N   0  0  0  0  0  0  0  0  0  0  0  0
   -4.5947    0.1920   -0.5386 C   0  0  0  0  0  0  0  0  0  0  0  0
   -5.7418   -0.6160   -1.1626 C   0  0  0  0  0  0  0  0  0  0  0  0
   -5.2664   -1.4165   -2.3650 C   0  0  0  0  0  0  0  0  0  0  0  0
   -4.1100   -2.3424   -1.9830 C   0  0  0  0  0  0  0  0  0  0  0  0
   -3.3819   -1.9074   -0.7058 C   0  0  0  0  0  0  0  0  0  0  0  0
    0.2975    1.5717    0.9827 N   0  0  0  0  0  0  0  0  0  0  0  0
    1.5099    1.8036    1.6771 C   0  0  0  0  0  0  0  0  0  0  0  0
    1.5488    2.4299    2.9283 C   0  0  0  0  0  0  0  0  0  0  0  0
    2.7672    2.6824    3.5676 C   0  0  0  0  0  0  0  0  0  0  0  0
    3.9611    2.3180    2.9558 C   0  0  0  0  0  0  0  0  0  0  0  0
    5.6056    2.6819    3.8127 Br  0  0  0  0  0  0  0  0  0  0  0  0
    3.9534    1.6857    1.7161 C   0  0  0  0  0  0  0  0  0  0  0  0
    2.7313    1.4032    1.0839 C   0  0  0  0  0  0  0  0  0  0  0  0
    2.7350    0.6930   -0.2286 C   0  0  0  0  0  0  0  0  0  0  0  0
    1.8513    0.9358   -1.0492 O   0  0  0  0  0  0  0  0  0  0  0  0
    3.7601   -0.3250   -0.5655 C   0  0  0  0  0  0  0  0  0  0  0  0
    4.2184   -1.2450    0.3854 C   0  0  0  0  0  0  0  0  0  0  0  0
    5.1749   -2.1962    0.0255 C   0  0  0  0  0  0  0  0  0  0  0  0
    5.6621   -2.2387   -1.2812 C   0  0  0  0  0  0  0  0  0  0  0  0
    5.1889   -1.3378   -2.2352 C   0  0  0  0  0  0  0  0  0  0  0  0
    4.2331   -0.3849   -1.8810 C   0  0  0  0  0  0  0  0  0  0  0  0
   -1.6516    1.7607   -0.6442 H   0  0  0  0  0  0  0  0  0  0  0  0
   -2.9169    2.0908    0.5369 H   0  0  0  0  0  0  0  0  0  0  0  0
   -2.7414   -0.2777    1.3970 H   0  0  0  0  0  0  0  0  0  0  0  0
   -1.4030   -0.5678    0.2979 H   0  0  0  0  0  0  0  0  0  0  0  0
   -4.5441    1.1670   -1.0379 H   0  0  0  0  0  0  0  0  0  0  0  0
   -4.8579    0.3816    0.5101 H   0  0  0  0  0  0  0  0  0  0  0  0
   -6.1547   -1.3045   -0.4142 H   0  0  0  0  0  0  0  0  0  0  0  0
   -6.5540    0.0593   -1.4545 H   0  0  0  0  0  0  0  0  0  0  0  0
   -4.9334   -0.7249   -3.1492 H   0  0  0  0  0  0  0  0  0  0  0  0
   -6.0902   -1.9998   -2.7911 H   0  0  0  0  0  0  0  0  0  0  0  0
   -4.4873   -3.3623   -1.8400 H   0  0  0  0  0  0  0  0  0  0  0  0
   -3.4041   -2.3879   -2.8217 H   0  0  0  0  0  0  0  0  0  0  0  0
   -3.9048   -2.2894    0.1810 H   0  0  0  0  0  0  0  0  0  0  0  0
   -2.3896   -2.3754   -0.7126 H   0  0  0  0  0  0  0  0  0  0  0  0
    0.4161    1.2258    0.0258 H   0  0  0  0  0  0  0  0  0  0  0  0
    0.6431    2.7542    3.4326 H   0  0  0  0  0  0  0  0  0  0  0  0
    2.7652    3.1772    4.5362 H   0  0  0  0  0  0  0  0  0  0  0  0
    4.8980    1.4264    1.2448 H   0  0  0  0  0  0  0  0  0  0  0  0
    3.8307   -1.2465    1.4009 H   0  0  0  0  0  0  0  0  0  0  0  0
    5.5345   -2.9121    0.7610 H   0  0  0  0  0  0  0  0  0  0  0  0
    6.4040   -2.9835   -1.5602 H   0  0  0  0  0  0  0  0  0  0  0  0
    5.5592   -1.3816   -3.2567 H   0  0  0  0  0  0  0  0  0  0  0  0
    3.8581    0.3083   -2.6313 H   0  0  0  0  0  0  0  0  0  0  0  0
  1  2  2  0
  2  3  1  0
  3  4  1  0
  4  5  1  0
  5  6  1  0
  6  7  1  0
  7  8  1  0
  8  9  1  0
  9 10  1  0
  2 11  1  0
 11 12  1  0
 12 13  2  0
 13 14  1  0
 14 15  2  0
 15 16  1  0
 15 17  1  0
 17 18  2  0
 18 19  1  0
 19 20  2  0
 19 21  1  0
 21 22  2  0
 22 23  1  0
 23 24  2  0
 24 25  1  0
 25 26  2  0
 10  5  1  0
 18 12  1  0
 26 21  1  0
  3 27  1  0
  3 28  1  0
  4 29  1  0
  4 30  1  0
  6 31  1  0
  6 32  1  0
  7 33  1  0
  7 34  1  0
  8 35  1  0
  8 36  1  0
  9 37  1  0
  9 38  1  0
 10 39  1  0
 10 40  1  0
 11 41  1  0
 13 42  1  0
 14 43  1  0
 17 44  1  0
 22 45  1  0
 23 46  1  0
 24 47  1  0
 25 48  1  0
 26 49  1  0
M  END
$$$$
