
     RDKit          3D

 48 50  0  0  0  0  0  0  0  0999 V2000
    2.7027    0.5397    1.8400 C   0  0  0  0  0  0  0  0  0  0  0  0
    1.4283    0.6134    1.4266 C   0  0  0  0  0  0  0  0  0  0  0  0
    0.3312    1.2899    2.1208 C   0  0  0  0  0  0  0  0  0  0  0  0
    0.3187    2.1305    3.3265 C   0  0  0  0  0  0  0  0  0  0  0  0
   -0.7240    2.4484    3.8907 O   0  0  0  0  0  0  0  0  0  0  0  0
    1.5550    2.5388    3.6938 O   0  0  0  0  0  0  0  0  0  0  0  0
    1.5771    3.3867    4.8431 C   0  0  0  0  0  0  0  0  0  0  0  0
   -0.8126    1.0358    1.4547 C   0  0  0  0  0  0  0  0  0  0  0  0
   -2.0777    1.4549    1.7589 O   0  0  0  0  0  0  0  0  0  0  0  0
   -0.5377    0.2253    0.2684 C   0  0  0  0  0  0  0  0  0  0  0  0
   -1.4189   -0.1758   -0.6684 C   0  0  0  0  0  0  0  0  0  0  0  0
   -2.8619    0.0712   -0.6917 C   0  0  0  0  0  0  0  0  0  0  0  0
   -3.7373   -0.7957   -0.0278 C   0  0  0  0  0  0  0  0  0  0  0  0
   -5.1138   -0.5670   -0.0681 C   0  0  0  0  0  0  0  0  0  0  0  0
   -5.6097    0.5255   -0.7703 C   0  0  0  0  0  0  0  0  0  0  0  0
   -6.9607    0.7123   -0.7828 O   0  0  0  0  0  0  0  0  0  0  0  0
   -4.7522    1.3967   -1.4358 C   0  0  0  0  0  0  0  0  0  0  0  0
   -3.3747    1.1669   -1.3964 C   0  0  0  0  0  0  0  0  0  0  0  0
    0.8535    0.0030    0.2952 N   0  0  0  0  0  0  0  0  0  0  0  0
    1.5668   -0.7860   -0.6460 C   0  0  0  0  0  0  0  0  0  0  0  0
    1.2491   -2.1393   -0.8394 C   0  0  0  0  0  0  0  0  0  0  0  0
    1.9579   -2.9275   -1.7557 C   0  0  0  0  0  0  0  0  0  0  0  0
    1.5860   -4.3658   -1.9633 C   0  0  0  0  0  0  0  0  0  0  0  0
    2.9810   -2.3417   -2.5107 C   0  0  0  0  0  0  0  0  0  0  0  0
    3.3085   -0.9903   -2.3476 C   0  0  0  0  0  0  0  0  0  0  0  0
    4.4303   -0.3791   -3.1336 C   0  0  0  0  0  0  0  0  0  0  0  0
    2.6077   -0.2276   -1.4040 C   0  0  0  0  0  0  0  0  0  0  0  0
    3.4426   -0.0259    1.2835 H   0  0  0  0  0  0  0  0  0  0  0  0
    3.0617    1.0063    2.7481 H   0  0  0  0  0  0  0  0  0  0  0  0
    1.0257    4.3117    4.6471 H   0  0  0  0  0  0  0  0  0  0  0  0
    2.6190    3.6427    5.0546 H   0  0  0  0  0  0  0  0  0  0  0  0
    1.1652    2.8652    5.7128 H   0  0  0  0  0  0  0  0  0  0  0  0
   -2.0429    1.9306    2.6149 H   0  0  0  0  0  0  0  0  0  0  0  0
   -1.0720   -0.7378   -1.5310 H   0  0  0  0  0  0  0  0  0  0  0  0
   -3.3526   -1.6458    0.5292 H   0  0  0  0  0  0  0  0  0  0  0  0
   -5.7943   -1.2355    0.4505 H   0  0  0  0  0  0  0  0  0  0  0  0
   -7.1534    1.5219   -1.2831 H   0  0  0  0  0  0  0  0  0  0  0  0
   -5.1307    2.2534   -1.9831 H   0  0  0  0  0  0  0  0  0  0  0  0
   -2.7021    1.8491   -1.9101 H   0  0  0  0  0  0  0  0  0  0  0  0
    0.4495   -2.5860   -0.2519 H   0  0  0  0  0  0  0  0  0  0  0  0
    0.8048   -4.4436   -2.7259 H   0  0  0  0  0  0  0  0  0  0  0  0
    2.4534   -4.9523   -2.2842 H   0  0  0  0  0  0  0  0  0  0  0  0
    1.2192   -4.8121   -1.0329 H   0  0  0  0  0  0  0  0  0  0  0  0
    3.5280   -2.9441   -3.2340 H   0  0  0  0  0  0  0  0  0  0  0  0
    4.5281   -0.8585   -4.1134 H   0  0  0  0  0  0  0  0  0  0  0  0
    4.2480    0.6862   -3.3108 H   0  0  0  0  0  0  0  0  0  0  0  0
    5.3728   -0.4913   -2.5890 H   0  0  0  0  0  0  0  0  0  0  0  0
    2.8576    0.8226   -1.2678 H   0  0  0  0  0  0  0  0  0  0  0  0
  1  2  2  0
  2  3  1  0
  3  4  1  0
  4  5  2  0
  4  6  1  0
  6  7  1  0
  3  8  2  0
  8  9  1  0
  8 10  1  0
 10 11  2  3
 11 12  1  0
 12 13  2  0
 13 14  1  0
 14 15  2  0
 15 16  1  0
 15 17  1  0
 17 18  2  0
 10 19  1  0
 19 20  1  0
 20 21  2  0
 21 22  1  0
 22 23  1  0
 22 24  2  0
 24 25  1  0
 25 26  1  0
 25 27  2  0
 19  2  1  0
 27 20  1  0
 18 12  1  0
  1 28  1  0
  1 29  1  0
  7 30  1  0
  7 31  1  0
  7 32  1  0
  9 33  1  0
 11 34  1  0
 13 35  1  0
 14 36  1  0
 16 37  1  0
 17 38  1  0
 18 39  1  0
 21 40  1  0
 23 41  1  0
 23 42  1  0
 23 43  1  0
 24 44  1  0
 26 45  1  0
 26 46  1  0
 26 47  1  0
 27 48  1  0
M  END
$$$$
