
     RDKit          3D

 53 55  0  0  0  0  0  0  0  0999 V2000
    3.7515   -3.2817    1.2241 C   0  0  0  0  0  0  0  0  0  0  0  0
    4.5824   -2.2888    0.6351 O   0  0  0  0  0  0  0  0  0  0  0  0
    3.9791   -1.1202    0.2520 C   0  0  0  0  0  0  0  0  0  0  0  0
    2.6083   -0.8733    0.2768 C   0  0  0  0  0  0  0  0  0  0  0  0
    2.1140    0.3649   -0.1570 C   0  0  0  0  0  0  0  0  0  0  0  0
    0.6618    0.6358   -0.1425 C   0  0  0  0  0  0  0  0  0  0  0  0
   -0.1928   -0.2465    0.2713 N   0  0  0  0  0  0  0  0  0  0  0  0
   -1.5185    0.1113    0.2140 N   0  0  0  0  0  0  0  0  0  0  0  0
   -2.4228   -0.7131    1.0191 C   0  0  0  0  0  0  0  0  0  0  0  0
   -3.8535   -0.1469    1.0450 C   0  0  0  0  0  0  0  0  0  0  0  0
   -4.4018    0.0428   -0.3167 N   0  0  0  0  0  0  0  0  0  0  0  0
   -5.7665   -0.0714   -0.5368 C   0  0  0  0  0  0  0  0  0  0  0  0
   -6.2959   -0.4848   -1.7709 C   0  0  0  0  0  0  0  0  0  0  0  0
   -7.6764   -0.5903   -1.9888 C   0  0  0  0  0  0  0  0  0  0  0  0
   -8.5630   -0.2747   -0.9680 C   0  0  0  0  0  0  0  0  0  0  0  0
  -10.2575   -0.4007   -1.2299 Cl  0  0  0  0  0  0  0  0  0  0  0  0
   -8.0791    0.1454    0.2633 C   0  0  0  0  0  0  0  0  0  0  0  0
   -6.6971    0.2451    0.4693 C   0  0  0  0  0  0  0  0  0  0  0  0
   -3.4311    0.0194   -1.4258 C   0  0  0  0  0  0  0  0  0  0  0  0
   -2.0908    0.6691   -1.0223 C   0  0  0  0  0  0  0  0  0  0  0  0
    2.9751    1.3674   -0.6237 C   0  0  0  0  0  0  0  0  0  0  0  0
    4.3496    1.1374   -0.6548 C   0  0  0  0  0  0  0  0  0  0  0  0
    5.2909    2.0247   -1.1052 O   0  0  0  0  0  0  0  0  0  0  0  0
    4.8627    3.3586   -1.3461 C   0  0  0  0  0  0  0  0  0  0  0  0
    4.8314   -0.1035   -0.2069 C   0  0  0  0  0  0  0  0  0  0  0  0
    6.2096   -0.3526   -0.2571 O   0  0  0  0  0  0  0  0  0  0  0  0
    6.8451    0.0484    0.9085 C   0  0  0  0  0  0  0  0  0  0  0  0
    8.3079   -0.2595    0.7849 C   0  0  0  0  0  0  0  0  0  0  0  0
    6.3367    0.5713    1.8928 O   0  0  0  0  0  0  0  0  0  0  0  0
    3.2547   -2.9017    2.1231 H   0  0  0  0  0  0  0  0  0  0  0  0
    4.3916   -4.1164    1.5256 H   0  0  0  0  0  0  0  0  0  0  0  0
    3.0244   -3.6649    0.5007 H   0  0  0  0  0  0  0  0  0  0  0  0
    1.9024   -1.6220    0.6221 H   0  0  0  0  0  0  0  0  0  0  0  0
    0.3408    1.6349   -0.4873 H   0  0  0  0  0  0  0  0  0  0  0  0
   -2.4237   -1.7222    0.5893 H   0  0  0  0  0  0  0  0  0  0  0  0
   -2.0213   -0.7709    2.0367 H   0  0  0  0  0  0  0  0  0  0  0  0
   -4.4720   -0.8419    1.6257 H   0  0  0  0  0  0  0  0  0  0  0  0
   -3.8535    0.8227    1.5574 H   0  0  0  0  0  0  0  0  0  0  0  0
   -5.6403   -0.7592   -2.5922 H   0  0  0  0  0  0  0  0  0  0  0  0
   -8.0435   -0.9218   -2.9559 H   0  0  0  0  0  0  0  0  0  0  0  0
   -8.7623    0.4043    1.0671 H   0  0  0  0  0  0  0  0  0  0  0  0
   -6.3577    0.6043    1.4374 H   0  0  0  0  0  0  0  0  0  0  0  0
   -3.2600   -1.0197   -1.7333 H   0  0  0  0  0  0  0  0  0  0  0  0
   -3.8138    0.5737   -2.2909 H   0  0  0  0  0  0  0  0  0  0  0  0
   -1.3761    0.5602   -1.8452 H   0  0  0  0  0  0  0  0  0  0  0  0
   -2.2414    1.7383   -0.8341 H   0  0  0  0  0  0  0  0  0  0  0  0
    2.5547    2.3079   -0.9619 H   0  0  0  0  0  0  0  0  0  0  0  0
    4.4019    3.7965   -0.4543 H   0  0  0  0  0  0  0  0  0  0  0  0
    4.1840    3.4021   -2.2040 H   0  0  0  0  0  0  0  0  0  0  0  0
    5.7471    3.9547   -1.5910 H   0  0  0  0  0  0  0  0  0  0  0  0
    8.7338    0.2959   -0.0545 H   0  0  0  0  0  0  0  0  0  0  0  0
    8.4502   -1.3345    0.6487 H   0  0  0  0  0  0  0  0  0  0  0  0
    8.8210    0.0460    1.7012 H   0  0  0  0  0  0  0  0  0  0  0  0
  1  2  1  0
  2  3  1  0
  3  4  2  0
  4  5  1  0
  5  6  1  0
  6  7  2  3
  7  8  1  0
  8  9  1  0
  9 10  1  0
 10 11  1  0
 11 12  1  0
 12 13  2  0
 13 14  1  0
 14 15  2  0
 15 16  1  0
 15 17  1  0
 17 18  2  0
 11 19  1  0
 19 20  1  0
  5 21  2  0
 21 22  1  0
 22 23  1  0
 23 24  1  0
 22 25  2  0
 25 26  1  0
 26 27  1  0
 27 28  1  0
 27 29  2  0
 25  3  1  0
 20  8  1  0
 18 12  1  0
  1 30  1  0
  1 31  1  0
  1 32  1  0
  4 33  1  0
  6 34  1  0
  9 35  1  0
  9 36  1  0
 10 37  1  0
 10 38  1  0
 13 39  1  0
 14 40  1  0
 17 41  1  0
 18 42  1  0
 19 43  1  0
 19 44  1  0
 20 45  1  0
 20 46  1  0
 21 47  1  0
 24 48  1  0
 24 49  1  0
 24 50  1  0
 28 51  1  0
 28 52  1  0
 28 53  1  0
M  END
$$$$
