
     RDKit          3D

 54 58  0  0  0  0  0  0  0  0999 V2000
   -3.2672   -2.9091   -2.3829 C   0  0  0  0  0  0  0  0  0  0  0  0
   -4.0448   -3.2433   -1.1165 C   0  0  0  0  0  0  0  0  0  0  0  0
   -4.3323   -2.0009   -0.2501 C   0  0  0  0  0  0  0  0  0  0  0  0
   -5.2352   -2.3638    0.9338 C   0  0  0  0  0  0  0  0  0  0  0  0
   -3.1041   -1.3321    0.2077 N   0  0  0  0  0  0  0  0  0  0  0  0
   -2.1934   -2.0068    1.0168 C   0  0  0  0  0  0  0  0  0  0  0  0
   -1.0783   -1.5323    1.4843 N   0  0  0  0  0  0  0  0  0  0  0  0
   -0.8414   -0.2566    1.1023 C   0  0  0  0  0  0  0  0  0  0  0  0
   -1.6479    0.5429    0.3202 C   0  0  0  0  0  0  0  0  0  0  0  0
   -2.8865    0.0025   -0.1809 C   0  0  0  0  0  0  0  0  0  0  0  0
   -3.6671    0.6475   -0.8737 O   0  0  0  0  0  0  0  0  0  0  0  0
   -1.0176    1.7954    0.1961 C   0  0  0  0  0  0  0  0  0  0  0  0
   -1.3862    2.9294   -0.4487 N   0  0  0  0  0  0  0  0  0  0  0  0
   -0.5175    3.9457   -0.3353 C   0  0  0  0  0  0  0  0  0  0  0  0
   -0.8220    5.1428   -0.9703 C   0  0  0  0  0  0  0  0  0  0  0  0
    0.0290    6.2465   -0.8984 C   0  0  0  0  0  0  0  0  0  0  0  0
    1.2100    6.1527   -0.1761 C   0  0  0  0  0  0  0  0  0  0  0  0
    1.5293    4.9559    0.4673 C   0  0  0  0  0  0  0  0  0  0  0  0
    0.6926    3.8487    0.4044 C   0  0  0  0  0  0  0  0  0  0  0  0
    1.0677    2.7300    1.0495 N   0  0  0  0  0  0  0  0  0  0  0  0
    0.1765    1.7262    0.9106 C   0  0  0  0  0  0  0  0  0  0  0  0
    0.2801    0.4614    1.4375 N   0  0  0  0  0  0  0  0  0  0  0  0
    1.3862   -0.0137    2.2499 C   0  0  0  0  0  0  0  0  0  0  0  0
    2.4543   -0.6621    1.4040 C   0  0  0  0  0  0  0  0  0  0  0  0
    2.4371   -2.0419    1.1676 C   0  0  0  0  0  0  0  0  0  0  0  0
    3.4203   -2.6345    0.3719 C   0  0  0  0  0  0  0  0  0  0  0  0
    4.4310   -1.8639   -0.2064 C   0  0  0  0  0  0  0  0  0  0  0  0
    5.3269   -2.5692   -0.9619 O   0  0  0  0  0  0  0  0  0  0  0  0
    6.3599   -1.8236   -1.5933 C   0  0  0  0  0  0  0  0  0  0  0  0
    4.4495   -0.4877    0.0181 C   0  0  0  0  0  0  0  0  0  0  0  0
    3.4667    0.1088    0.8162 C   0  0  0  0  0  0  0  0  0  0  0  0
   -3.1449   -3.8072   -2.9968 H   0  0  0  0  0  0  0  0  0  0  0  0
   -2.2691   -2.5254   -2.1504 H   0  0  0  0  0  0  0  0  0  0  0  0
   -3.7950   -2.1595   -2.9809 H   0  0  0  0  0  0  0  0  0  0  0  0
   -4.9964   -3.7049   -1.4082 H   0  0  0  0  0  0  0  0  0  0  0  0
   -3.4924   -4.0002   -0.5482 H   0  0  0  0  0  0  0  0  0  0  0  0
   -4.9061   -1.3031   -0.8716 H   0  0  0  0  0  0  0  0  0  0  0  0
   -4.7781   -3.1181    1.5823 H   0  0  0  0  0  0  0  0  0  0  0  0
   -6.1924   -2.7628    0.5815 H   0  0  0  0  0  0  0  0  0  0  0  0
   -5.4431   -1.4795    1.5461 H   0  0  0  0  0  0  0  0  0  0  0  0
   -2.4796   -3.0403    1.2649 H   0  0  0  0  0  0  0  0  0  0  0  0
   -1.7484    5.2159   -1.5363 H   0  0  0  0  0  0  0  0  0  0  0  0
   -0.2348    7.1711   -1.4056 H   0  0  0  0  0  0  0  0  0  0  0  0
    1.8830    7.0038   -0.1103 H   0  0  0  0  0  0  0  0  0  0  0  0
    2.4552    4.8847    1.0333 H   0  0  0  0  0  0  0  0  0  0  0  0
    0.9926   -0.7154    2.9946 H   0  0  0  0  0  0  0  0  0  0  0  0
    1.7956    0.8343    2.8116 H   0  0  0  0  0  0  0  0  0  0  0  0
    1.6529   -2.6641    1.5944 H   0  0  0  0  0  0  0  0  0  0  0  0
    3.3949   -3.7071    0.1962 H   0  0  0  0  0  0  0  0  0  0  0  0
    5.9471   -1.0969   -2.3009 H   0  0  0  0  0  0  0  0  0  0  0  0
    7.0028   -1.3353   -0.8535 H   0  0  0  0  0  0  0  0  0  0  0  0
    6.9793   -2.5250   -2.1606 H   0  0  0  0  0  0  0  0  0  0  0  0
    5.2098    0.1534   -0.4148 H   0  0  0  0  0  0  0  0  0  0  0  0
    3.4916    1.1867    0.9696 H   0  0  0  0  0  0  0  0  0  0  0  0
  1  2  1  0
  2  3  1  0
  3  4  1  0
  3  5  1  0
  5  6  1  0
  6  7  2  0
  7  8  1  0
  8  9  2  0
  9 10  1  0
 10 11  2  0
  9 12  1  0
 12 13  2  0
 13 14  1  0
 14 15  2  0
 15 16  1  0
 16 17  2  0
 17 18  1  0
 18 19  2  0
 19 20  1  0
 20 21  2  0
 21 22  1  0
 22 23  1  0
 23 24  1  0
 24 25  2  0
 25 26  1  0
 26 27  2  0
 27 28  1  0
 28 29  1  0
 27 30  1  0
 30 31  2  0
 10  5  1  0
 21 12  1  0
 31 24  1  0
 22  8  1  0
 19 14  1  0
  1 32  1  0
  1 33  1  0
  1 34  1  0
  2 35  1  0
  2 36  1  0
  3 37  1  0
  4 38  1  0
  4 39  1  0
  4 40  1  0
  6 41  1  0
 15 42  1  0
 16 43  1  0
 17 44  1  0
 18 45  1  0
 23 46  1  0
 23 47  1  0
 25 48  1  0
 26 49  1  0
 29 50  1  0
 29 51  1  0
 29 52  1  0
 30 53  1  0
 31 54  1  0
M  END
$$$$
