
     RDKit          3D

 41 42  0  0  0  0  0  0  0  0999 V2000
   -5.0745   -0.0565   -0.0817 C   0  0  0  0  0  0  0  0  0  0  0  0
   -3.7429   -0.2350   -0.5476 O   0  0  0  0  0  0  0  0  0  0  0  0
   -2.8280    0.7350   -0.2324 C   0  0  0  0  0  0  0  0  0  0  0  0
   -3.0659    1.7749    0.6738 C   0  0  0  0  0  0  0  0  0  0  0  0
   -2.0788    2.7331    0.9315 C   0  0  0  0  0  0  0  0  0  0  0  0
   -0.8492    2.6641    0.2810 C   0  0  0  0  0  0  0  0  0  0  0  0
   -0.5999    1.6285   -0.6166 C   0  0  0  0  0  0  0  0  0  0  0  0
   -1.5763    0.6454   -0.8741 C   0  0  0  0  0  0  0  0  0  0  0  0
   -1.2589   -0.4484   -1.8672 C   0  0  0  0  0  0  0  0  0  0  0  0
   -0.0831   -1.1923   -1.4723 N   0  0  0  0  0  0  0  0  0  0  0  0
    0.8194   -1.6943   -2.3758 C   0  0  0  0  0  0  0  0  0  0  0  0
    0.7346   -1.5156   -3.5914 O   0  0  0  0  0  0  0  0  0  0  0  0
    1.9422   -2.5462   -1.7661 C   0  0  0  0  0  0  0  0  0  0  0  0
    2.0961   -2.4814   -0.3504 O   0  0  0  0  0  0  0  0  0  0  0  0
    2.6782   -1.3268    0.1207 C   0  0  0  0  0  0  0  0  0  0  0  0
    3.9120   -0.8682   -0.3514 C   0  0  0  0  0  0  0  0  0  0  0  0
    4.4751    0.2912    0.1863 C   0  0  0  0  0  0  0  0  0  0  0  0
    3.8169    0.9797    1.2052 C   0  0  0  0  0  0  0  0  0  0  0  0
    2.5963    0.5082    1.7002 C   0  0  0  0  0  0  0  0  0  0  0  0
    2.0203   -0.6505    1.1685 C   0  0  0  0  0  0  0  0  0  0  0  0
    0.8242   -1.1936    1.5668 O   0  0  0  0  0  0  0  0  0  0  0  0
    0.1241   -0.5340    2.6148 C   0  0  0  0  0  0  0  0  0  0  0  0
   -5.4854    0.9062   -0.4058 H   0  0  0  0  0  0  0  0  0  0  0  0
   -5.1249   -0.1636    1.0067 H   0  0  0  0  0  0  0  0  0  0  0  0
   -5.6915   -0.8448   -0.5226 H   0  0  0  0  0  0  0  0  0  0  0  0
   -4.0123    1.8682    1.2010 H   0  0  0  0  0  0  0  0  0  0  0  0
   -2.2772    3.5357    1.6354 H   0  0  0  0  0  0  0  0  0  0  0  0
   -0.0839    3.4106    0.4711 H   0  0  0  0  0  0  0  0  0  0  0  0
    0.3666    1.5781   -1.1195 H   0  0  0  0  0  0  0  0  0  0  0  0
   -2.0669   -1.1815   -1.9520 H   0  0  0  0  0  0  0  0  0  0  0  0
   -1.1185   -0.0061   -2.8608 H   0  0  0  0  0  0  0  0  0  0  0  0
    0.0198   -1.4502   -0.4936 H   0  0  0  0  0  0  0  0  0  0  0  0
    2.8783   -2.3280   -2.2977 H   0  0  0  0  0  0  0  0  0  0  0  0
    1.6902   -3.5911   -1.9989 H   0  0  0  0  0  0  0  0  0  0  0  0
    4.4597   -1.4113   -1.1185 H   0  0  0  0  0  0  0  0  0  0  0  0
    5.4301    0.6533   -0.1839 H   0  0  0  0  0  0  0  0  0  0  0  0
    4.2606    1.8811    1.6233 H   0  0  0  0  0  0  0  0  0  0  0  0
    2.1234    1.0681    2.5002 H   0  0  0  0  0  0  0  0  0  0  0  0
    0.6979   -0.5589    3.5492 H   0  0  0  0  0  0  0  0  0  0  0  0
   -0.8162   -1.0758    2.7865 H   0  0  0  0  0  0  0  0  0  0  0  0
   -0.1318    0.4925    2.3360 H   0  0  0  0  0  0  0  0  0  0  0  0
  1  2  1  0
  2  3  1  0
  3  4  2  0
  4  5  1  0
  5  6  2  0
  6  7  1  0
  7  8  2  0
  8  9  1  0
  9 10  1  0
 10 11  1  0
 11 12  2  0
 11 13  1  0
 13 14  1  0
 14 15  1  0
 15 16  2  0
 16 17  1  0
 17 18  2  0
 18 19  1  0
 19 20  2  0
 20 21  1  0
 21 22  1  0
  8  3  1  0
 20 15  1  0
  1 23  1  0
  1 24  1  0
  1 25  1  0
  4 26  1  0
  5 27  1  0
  6 28  1  0
  7 29  1  0
  9 30  1  0
  9 31  1  0
 10 32  1  0
 13 33  1  0
 13 34  1  0
 16 35  1  0
 17 36  1  0
 18 37  1  0
 19 38  1  0
 22 39  1  0
 22 40  1  0
 22 41  1  0
M  END
$$$$
