
     RDKit          3D

 40 41  0  0  0  0  0  0  0  0999 V2000
    7.8488   -0.0233   -1.1461 C   0  0  0  0  0  0  0  0  0  0  0  0
    7.1167   -1.0870   -0.5511 O   0  0  0  0  0  0  0  0  0  0  0  0
    5.8847   -0.7786   -0.0432 C   0  0  0  0  0  0  0  0  0  0  0  0
    5.1729   -1.8670    0.4646 C   0  0  0  0  0  0  0  0  0  0  0  0
    3.8996   -1.6955    1.0137 C   0  0  0  0  0  0  0  0  0  0  0  0
    3.3206   -0.4225    1.0704 C   0  0  0  0  0  0  0  0  0  0  0  0
    1.9458   -0.2277    1.6643 C   0  0  0  0  0  0  0  0  0  0  0  0
    0.8348   -0.0636    0.6477 C   0  0  0  0  0  0  0  0  0  0  0  0
    0.9814    0.0469   -0.5629 O   0  0  0  0  0  0  0  0  0  0  0  0
   -0.3587   -0.0300    1.3410 O   0  0  0  0  0  0  0  0  0  0  0  0
   -1.4349    0.0824    0.4411 N   0  0  0  0  0  0  0  0  0  0  0  0
   -2.5776    0.1252    1.0604 C   0  0  0  0  0  0  0  0  0  0  0  0
   -2.6944    0.0939    2.4332 N   0  0  0  0  0  0  0  0  0  0  0  0
   -3.8217    0.2327    0.2290 C   0  0  0  0  0  0  0  0  0  0  0  0
   -5.0709   -0.1043    0.7632 C   0  0  0  0  0  0  0  0  0  0  0  0
   -6.2240    0.0089   -0.0196 C   0  0  0  0  0  0  0  0  0  0  0  0
   -6.1418    0.4452   -1.3475 C   0  0  0  0  0  0  0  0  0  0  0  0
   -7.3828    0.5948   -2.1772 C   0  0  0  0  0  0  0  0  0  0  0  0
   -4.8915    0.7854   -1.8769 C   0  0  0  0  0  0  0  0  0  0  0  0
   -3.7373    0.6723   -1.0970 C   0  0  0  0  0  0  0  0  0  0  0  0
    4.0359    0.6673    0.5563 C   0  0  0  0  0  0  0  0  0  0  0  0
    5.3100    0.4908    0.0041 C   0  0  0  0  0  0  0  0  0  0  0  0
    8.7879   -0.4361   -1.5271 H   0  0  0  0  0  0  0  0  0  0  0  0
    7.3055    0.4057   -1.9945 H   0  0  0  0  0  0  0  0  0  0  0  0
    8.0990    0.7446   -0.4067 H   0  0  0  0  0  0  0  0  0  0  0  0
    5.6122   -2.8608    0.4255 H   0  0  0  0  0  0  0  0  0  0  0  0
    3.3685   -2.5662    1.3908 H   0  0  0  0  0  0  0  0  0  0  0  0
    1.7032   -1.0875    2.3010 H   0  0  0  0  0  0  0  0  0  0  0  0
    1.9607    0.6620    2.3055 H   0  0  0  0  0  0  0  0  0  0  0  0
   -1.8086    0.2685    2.8940 H   0  0  0  0  0  0  0  0  0  0  0  0
   -3.4372    0.6699    2.8141 H   0  0  0  0  0  0  0  0  0  0  0  0
   -5.1615   -0.4789    1.7785 H   0  0  0  0  0  0  0  0  0  0  0  0
   -7.1872   -0.2563    0.4110 H   0  0  0  0  0  0  0  0  0  0  0  0
   -8.1414   -0.1373   -1.8809 H   0  0  0  0  0  0  0  0  0  0  0  0
   -7.7951    1.6011   -2.0549 H   0  0  0  0  0  0  0  0  0  0  0  0
   -7.1666    0.4268   -3.2375 H   0  0  0  0  0  0  0  0  0  0  0  0
   -4.8038    1.1361   -2.9031 H   0  0  0  0  0  0  0  0  0  0  0  0
   -2.7739    0.9320   -1.5315 H   0  0  0  0  0  0  0  0  0  0  0  0
    3.6016    1.6649    0.5696 H   0  0  0  0  0  0  0  0  0  0  0  0
    5.8211    1.3652   -0.3839 H   0  0  0  0  0  0  0  0  0  0  0  0
  1  2  1  0
  2  3  1  0
  3  4  2  0
  4  5  1  0
  5  6  2  0
  6  7  1  0
  7  8  1  0
  8  9  2  0
  8 10  1  0
 10 11  1  0
 11 12  2  3
 12 13  1  0
 12 14  1  0
 14 15  2  0
 15 16  1  0
 16 17  2  0
 17 18  1  0
 17 19  1  0
 19 20  2  0
  6 21  1  0
 21 22  2  0
 22  3  1  0
 20 14  1  0
  1 23  1  0
  1 24  1  0
  1 25  1  0
  4 26  1  0
  5 27  1  0
  7 28  1  0
  7 29  1  0
 13 30  1  0
 13 31  1  0
 15 32  1  0
 16 33  1  0
 18 34  1  0
 18 35  1  0
 18 36  1  0
 19 37  1  0
 20 38  1  0
 21 39  1  0
 22 40  1  0
M  END
$$$$
