
     RDKit          3D

 42 44  0  0  0  0  0  0  0  0999 V2000
    2.1190   -4.5966    3.4080 N   0  0  0  0  0  0  0  0  0  0  0  0
    2.7887   -3.9681    2.6982 C   0  0  0  0  0  0  0  0  0  0  0  0
    3.6024   -3.1837    1.8279 C   0  0  0  0  0  0  0  0  0  0  0  0
    4.9887   -3.5134    1.7863 C   0  0  0  0  0  0  0  0  0  0  0  0
    6.1195   -3.7716    1.7443 N   0  0  0  0  0  0  0  0  0  0  0  0
    3.0893   -2.1807    1.0732 C   0  0  0  0  0  0  0  0  0  0  0  0
    1.6808   -1.7834    1.1149 C   0  0  0  0  0  0  0  0  0  0  0  0
    1.1080   -1.0407    0.1510 C   0  0  0  0  0  0  0  0  0  0  0  0
   -0.2345   -0.5054    0.3100 C   0  0  0  0  0  0  0  0  0  0  0  0
   -0.7018    0.5592   -0.3794 C   0  0  0  0  0  0  0  0  0  0  0  0
   -1.9959    1.0930   -0.2092 N   0  0  0  0  0  0  0  0  0  0  0  0
   -2.8262    0.7831    0.9738 C   0  0  0  0  0  0  0  0  0  0  0  0
   -3.7955    1.9178    1.2907 C   0  0  0  0  0  0  0  0  0  0  0  0
   -4.7487    2.1927    0.1330 C   0  0  0  0  0  0  0  0  0  0  0  0
   -4.1217    1.8686   -1.2187 C   0  0  0  0  0  0  0  0  0  0  0  0
   -2.6032    2.0136   -1.1919 C   0  0  0  0  0  0  0  0  0  0  0  0
    0.2215    1.2643   -1.3764 C   0  0  0  0  0  0  0  0  0  0  0  0
    1.7015    0.8601   -1.2878 C   0  0  0  0  0  0  0  0  0  0  0  0
    1.8096   -0.6572   -1.1340 C   0  0  0  0  0  0  0  0  0  0  0  0
    3.2532   -1.1737   -1.2252 C   0  0  0  0  0  0  0  0  0  0  0  0
    3.9201   -1.3093    0.1402 C   0  0  0  0  0  0  0  0  0  0  0  0
    1.0964   -2.0511    1.9946 H   0  0  0  0  0  0  0  0  0  0  0  0
   -0.8623   -0.9958    1.0475 H   0  0  0  0  0  0  0  0  0  0  0  0
   -3.3738   -0.1506    0.7982 H   0  0  0  0  0  0  0  0  0  0  0  0
   -2.1933    0.6394    1.8575 H   0  0  0  0  0  0  0  0  0  0  0  0
   -3.2227    2.8289    1.5076 H   0  0  0  0  0  0  0  0  0  0  0  0
   -4.3693    1.6870    2.1953 H   0  0  0  0  0  0  0  0  0  0  0  0
   -5.0534    3.2456    0.1647 H   0  0  0  0  0  0  0  0  0  0  0  0
   -5.6657    1.6030    0.2511 H   0  0  0  0  0  0  0  0  0  0  0  0
   -4.3788    0.8377   -1.4950 H   0  0  0  0  0  0  0  0  0  0  0  0
   -4.5528    2.5160   -1.9907 H   0  0  0  0  0  0  0  0  0  0  0  0
   -2.2375    1.7972   -2.2015 H   0  0  0  0  0  0  0  0  0  0  0  0
   -2.3193    3.0446   -0.9494 H   0  0  0  0  0  0  0  0  0  0  0  0
   -0.1324    1.0417   -2.3910 H   0  0  0  0  0  0  0  0  0  0  0  0
    0.1605    2.3506   -1.2383 H   0  0  0  0  0  0  0  0  0  0  0  0
    2.1763    1.3694   -0.4386 H   0  0  0  0  0  0  0  0  0  0  0  0
    2.2197    1.1986   -2.1928 H   0  0  0  0  0  0  0  0  0  0  0  0
    1.2657   -1.1150   -1.9739 H   0  0  0  0  0  0  0  0  0  0  0  0
    3.8570   -0.5309   -1.8765 H   0  0  0  0  0  0  0  0  0  0  0  0
    3.2404   -2.1638   -1.7022 H   0  0  0  0  0  0  0  0  0  0  0  0
    4.9294   -1.7047   -0.0122 H   0  0  0  0  0  0  0  0  0  0  0  0
    4.0411   -0.3166    0.5936 H   0  0  0  0  0  0  0  0  0  0  0  0
  1  2  3  0
  2  3  1  0
  3  4  1  0
  4  5  3  0
  3  6  2  3
  6  7  1  0
  7  8  2  0
  8  9  1  0
  9 10  2  0
 10 11  1  0
 11 12  1  0
 12 13  1  0
 13 14  1  0
 14 15  1  0
 15 16  1  0
 10 17  1  0
 17 18  1  0
 18 19  1  0
 19 20  1  0
 20 21  1  0
 21  6  1  0
 19  8  1  0
 16 11  1  0
  7 22  1  0
  9 23  1  0
 12 24  1  0
 12 25  1  0
 13 26  1  0
 13 27  1  0
 14 28  1  0
 14 29  1  0
 15 30  1  0
 15 31  1  0
 16 32  1  0
 16 33  1  0
 17 34  1  0
 17 35  1  0
 18 36  1  0
 18 37  1  0
 19 38  1  0
 20 39  1  0
 20 40  1  0
 21 41  1  0
 21 42  1  0
M  END
$$$$
