
     RDKit          3D

 46 48  0  0  0  0  0  0  0  0999 V2000
   -1.0848    2.6064   -2.7643 N   0  0  0  0  0  0  0  0  0  0  0  0
   -0.1927    2.1064   -1.8901 C   0  0  0  0  0  0  0  0  0  0  0  0
    0.7195    2.8457   -1.3336 N   0  0  0  0  0  0  0  0  0  0  0  0
    1.4977    1.8935   -0.4938 C   0  0  0  0  0  0  0  0  0  0  0  0
    0.7637    0.5324   -0.5450 C   0  0  0  0  0  0  0  0  0  0  0  0
    1.6920   -0.6313   -0.9131 C   0  0  0  0  0  0  0  0  0  0  0  0
    2.7045   -0.9480    0.1637 C   0  0  0  0  0  0  0  0  0  0  0  0
    2.3077   -1.5761    1.3540 C   0  0  0  0  0  0  0  0  0  0  0  0
    3.2413   -1.8592    2.3538 C   0  0  0  0  0  0  0  0  0  0  0  0
    4.5747   -1.5147    2.1619 C   0  0  0  0  0  0  0  0  0  0  0  0
    5.5192   -1.7717    3.1108 O   0  0  0  0  0  0  0  0  0  0  0  0
    4.9871   -0.8952    0.9892 C   0  0  0  0  0  0  0  0  0  0  0  0
    4.0545   -0.6124   -0.0098 C   0  0  0  0  0  0  0  0  0  0  0  0
   -0.2365    0.7833   -1.5826 N   0  0  0  0  0  0  0  0  0  0  0  0
   -1.3644   -0.1150   -1.7924 C   0  0  0  0  0  0  0  0  0  0  0  0
   -2.4067   -0.1710   -0.6551 C   0  0  0  0  0  0  0  0  0  0  0  0
   -2.0602   -1.2354    0.4079 C   0  0  0  0  0  0  0  0  0  0  0  0
   -2.5954   -0.9083    1.8021 C   0  0  0  0  0  0  0  0  0  0  0  0
   -3.9604   -0.2406    1.7311 C   0  0  0  0  0  0  0  0  0  0  0  0
   -3.9150    1.0806    0.9637 C   0  0  0  0  0  0  0  0  0  0  0  0
   -2.7514    1.1835   -0.0265 C   0  0  0  0  0  0  0  0  0  0  0  0
   -1.1593    2.0508   -3.6052 H   0  0  0  0  0  0  0  0  0  0  0  0
   -0.8361    3.5637   -2.9924 H   0  0  0  0  0  0  0  0  0  0  0  0
    2.5180    1.8401   -0.8874 H   0  0  0  0  0  0  0  0  0  0  0  0
    1.5474    2.2677    0.5344 H   0  0  0  0  0  0  0  0  0  0  0  0
    0.2824    0.3700    0.4248 H   0  0  0  0  0  0  0  0  0  0  0  0
    1.1065   -1.5409   -1.0973 H   0  0  0  0  0  0  0  0  0  0  0  0
    2.2029   -0.4229   -1.8627 H   0  0  0  0  0  0  0  0  0  0  0  0
    1.2678   -1.8533    1.5106 H   0  0  0  0  0  0  0  0  0  0  0  0
    2.9117   -2.3457    3.2662 H   0  0  0  0  0  0  0  0  0  0  0  0
    5.0883   -2.1972    3.8697 H   0  0  0  0  0  0  0  0  0  0  0  0
    6.0322   -0.6322    0.8523 H   0  0  0  0  0  0  0  0  0  0  0  0
    4.3920   -0.1261   -0.9227 H   0  0  0  0  0  0  0  0  0  0  0  0
   -0.9904   -1.1258   -1.9951 H   0  0  0  0  0  0  0  0  0  0  0  0
   -1.8859    0.1701   -2.7144 H   0  0  0  0  0  0  0  0  0  0  0  0
   -3.3319   -0.5307   -1.1316 H   0  0  0  0  0  0  0  0  0  0  0  0
   -2.4869   -2.1929    0.0802 H   0  0  0  0  0  0  0  0  0  0  0  0
   -0.9840   -1.4124    0.4787 H   0  0  0  0  0  0  0  0  0  0  0  0
   -2.6546   -1.8272    2.3963 H   0  0  0  0  0  0  0  0  0  0  0  0
   -1.8907   -0.2449    2.3190 H   0  0  0  0  0  0  0  0  0  0  0  0
   -4.6665   -0.9208    1.2381 H   0  0  0  0  0  0  0  0  0  0  0  0
   -4.3512   -0.0667    2.7401 H   0  0  0  0  0  0  0  0  0  0  0  0
   -3.8471    1.9168    1.6704 H   0  0  0  0  0  0  0  0  0  0  0  0
   -4.8657    1.2105    0.4321 H   0  0  0  0  0  0  0  0  0  0  0  0
   -3.0143    1.9135   -0.8001 H   0  0  0  0  0  0  0  0  0  0  0  0
   -1.8793    1.5835    0.5044 H   0  0  0  0  0  0  0  0  0  0  0  0
  1  2  1  0
  2  3  2  0
  3  4  1  0
  4  5  1  0
  5  6  1  0
  6  7  1  0
  7  8  2  0
  8  9  1  0
  9 10  2  0
 10 11  1  0
 10 12  1  0
 12 13  2  0
  5 14  1  0
 14 15  1  0
 15 16  1  0
 16 17  1  0
 17 18  1  0
 18 19  1  0
 19 20  1  0
 20 21  1  0
 14  2  1  0
 21 16  1  0
 13  7  1  0
  1 22  1  0
  1 23  1  0
  4 24  1  0
  4 25  1  0
  5 26  1  0
  6 27  1  0
  6 28  1  0
  8 29  1  0
  9 30  1  0
 11 31  1  0
 12 32  1  0
 13 33  1  0
 15 34  1  0
 15 35  1  0
 16 36  1  0
 17 37  1  0
 17 38  1  0
 18 39  1  0
 18 40  1  0
 19 41  1  0
 19 42  1  0
 20 43  1  0
 20 44  1  0
 21 45  1  0
 21 46  1  0
M  END
$$$$
