
     RDKit          3D

 41 44  0  0  0  0  0  0  0  0999 V2000
   -6.5395   -0.8393   -0.5957 C   0  0  0  0  0  0  0  0  0  0  0  0
   -5.4624   -1.2103    0.4266 C   0  0  0  0  0  0  0  0  0  0  0  0
   -5.0639   -2.6819    0.2896 C   0  0  0  0  0  0  0  0  0  0  0  0
   -4.2557   -0.2942    0.3242 C   0  0  0  0  0  0  0  0  0  0  0  0
   -3.8935    0.5071    1.4159 C   0  0  0  0  0  0  0  0  0  0  0  0
   -2.7817    1.3518    1.3453 C   0  0  0  0  0  0  0  0  0  0  0  0
   -2.0063    1.4054    0.1836 C   0  0  0  0  0  0  0  0  0  0  0  0
   -0.8662    2.3233    0.1254 C   0  0  0  0  0  0  0  0  0  0  0  0
    0.4252    1.9835   -0.0034 C   0  0  0  0  0  0  0  0  0  0  0  0
    1.6919    3.2148   -0.0476 S   0  0  0  0  0  0  0  0  0  0  0  0
    2.8752    1.9861   -0.1897 C   0  0  0  0  0  0  0  0  0  0  0  0
    4.1720    1.9572   -0.2927 N   0  0  0  0  0  0  0  0  0  0  0  0
    4.4222    0.5904   -0.3702 C   0  0  0  0  0  0  0  0  0  0  0  0
    5.7757    0.0617   -0.4984 C   0  0  0  0  0  0  0  0  0  0  0  0
    6.8699    0.9284   -0.5488 C   0  0  0  0  0  0  0  0  0  0  0  0
    8.1374    0.3855   -0.6708 C   0  0  0  0  0  0  0  0  0  0  0  0
    8.3816   -0.9397   -0.7446 N   0  0  0  0  0  0  0  0  0  0  0  0
    7.3108   -1.7598   -0.6938 C   0  0  0  0  0  0  0  0  0  0  0  0
    6.0059   -1.3143   -0.5729 C   0  0  0  0  0  0  0  0  0  0  0  0
    3.3170   -0.1855   -0.3180 N   0  0  0  0  0  0  0  0  0  0  0  0
    2.3536    0.7458   -0.2014 N   0  0  0  0  0  0  0  0  0  0  0  0
    0.9862    0.5938   -0.1034 C   0  0  0  0  0  0  0  0  0  0  0  0
    0.4363   -0.4904   -0.1086 O   0  0  0  0  0  0  0  0  0  0  0  0
   -2.3678    0.6195   -0.9134 C   0  0  0  0  0  0  0  0  0  0  0  0
   -3.4790   -0.2260   -0.8413 C   0  0  0  0  0  0  0  0  0  0  0  0
   -6.1966   -0.9887   -1.6254 H   0  0  0  0  0  0  0  0  0  0  0  0
   -7.4347   -1.4540   -0.4515 H   0  0  0  0  0  0  0  0  0  0  0  0
   -6.8336    0.2110   -0.4909 H   0  0  0  0  0  0  0  0  0  0  0  0
   -5.9090   -1.0890    1.4225 H   0  0  0  0  0  0  0  0  0  0  0  0
   -5.9311   -3.3318    0.4494 H   0  0  0  0  0  0  0  0  0  0  0  0
   -4.6590   -2.9063   -0.7032 H   0  0  0  0  0  0  0  0  0  0  0  0
   -4.3020   -2.9517    1.0295 H   0  0  0  0  0  0  0  0  0  0  0  0
   -4.4742    0.4788    2.3354 H   0  0  0  0  0  0  0  0  0  0  0  0
   -2.5282    1.9607    2.2100 H   0  0  0  0  0  0  0  0  0  0  0  0
   -1.1468    3.3717    0.2173 H   0  0  0  0  0  0  0  0  0  0  0  0
    6.7441    2.0051   -0.4946 H   0  0  0  0  0  0  0  0  0  0  0  0
    9.0168    1.0218   -0.7139 H   0  0  0  0  0  0  0  0  0  0  0  0
    7.5359   -2.8208   -0.7550 H   0  0  0  0  0  0  0  0  0  0  0  0
    5.1901   -2.0296   -0.5379 H   0  0  0  0  0  0  0  0  0  0  0  0
   -1.7887    0.6460   -1.8331 H   0  0  0  0  0  0  0  0  0  0  0  0
   -3.7278   -0.8363   -1.7066 H   0  0  0  0  0  0  0  0  0  0  0  0
  1  2  1  0
  2  3  1  0
  2  4  1  0
  4  5  2  0
  5  6  1  0
  6  7  2  0
  7  8  1  0
  8  9  2  3
  9 10  1  0
 10 11  1  0
 11 12  2  0
 12 13  1  0
 13 14  1  0
 14 15  2  0
 15 16  1  0
 16 17  2  0
 17 18  1  0
 18 19  2  0
 13 20  2  0
 20 21  1  0
 21 22  1  0
 22 23  2  0
  7 24  1  0
 24 25  2  0
 25  4  1  0
 22  9  1  0
 21 11  1  0
 19 14  1  0
  1 26  1  0
  1 27  1  0
  1 28  1  0
  2 29  1  0
  3 30  1  0
  3 31  1  0
  3 32  1  0
  5 33  1  0
  6 34  1  0
  8 35  1  0
 15 36  1  0
 16 37  1  0
 18 38  1  0
 19 39  1  0
 24 40  1  0
 25 41  1  0
M  END
$$$$
