
     RDKit          3D

 50 52  0  0  0  0  0  0  0  0999 V2000
    6.2323   -1.2536   -2.2528 C   0  0  0  0  0  0  0  0  0  0  0  0
    4.9107   -0.7327   -2.1748 O   0  0  0  0  0  0  0  0  0  0  0  0
    4.7344    0.5784   -2.5586 C   0  0  0  0  0  0  0  0  0  0  0  0
    5.7346    1.3968   -3.0924 C   0  0  0  0  0  0  0  0  0  0  0  0
    5.4433    2.7141   -3.4516 C   0  0  0  0  0  0  0  0  0  0  0  0
    4.1561    3.2169   -3.2812 C   0  0  0  0  0  0  0  0  0  0  0  0
    3.1499    2.4068   -2.7510 C   0  0  0  0  0  0  0  0  0  0  0  0
    3.4282    1.0882   -2.3865 C   0  0  0  0  0  0  0  0  0  0  0  0
    2.4677    0.2057   -1.8435 N   0  0  0  0  0  0  0  0  0  0  0  0
    1.1425    0.4588   -1.5416 C   0  0  0  0  0  0  0  0  0  0  0  0
    0.5500    1.5230   -1.7029 O   0  0  0  0  0  0  0  0  0  0  0  0
    0.4261   -0.7802   -0.9865 C   0  0  0  0  0  0  0  0  0  0  0  0
   -0.7630   -0.4561   -0.2732 O   0  0  0  0  0  0  0  0  0  0  0  0
   -0.5242    0.0619    0.9562 C   0  0  0  0  0  0  0  0  0  0  0  0
    0.5620    0.2059    1.4935 O   0  0  0  0  0  0  0  0  0  0  0  0
   -1.7856    0.5680    1.5214 C   0  0  0  0  0  0  0  0  0  0  0  0
   -1.8674    1.9545    1.7219 C   0  0  0  0  0  0  0  0  0  0  0  0
   -3.0325    2.4938    2.2701 C   0  0  0  0  0  0  0  0  0  0  0  0
   -3.1392    3.9423    2.4819 N   0  0  0  0  0  4  0  0  0  0  0  0
   -4.2166    4.3822    2.9091 O   0  0  0  0  0  0  0  0  0  0  0  0
   -2.1485    4.6392    2.2246 O   0  0  0  0  0  1  0  0  0  0  0  0
   -4.1023    1.6621    2.6206 C   0  0  0  0  0  0  0  0  0  0  0  0
   -3.9979    0.2799    2.4278 C   0  0  0  0  0  0  0  0  0  0  0  0
   -2.8370   -0.2993    1.8840 C   0  0  0  0  0  0  0  0  0  0  0  0
   -2.7234   -1.6849    1.7097 N   0  0  0  0  0  0  0  0  0  0  0  0
   -2.9773   -2.5294    2.8927 C   0  0  0  0  0  0  0  0  0  0  0  0
   -4.0689   -3.5038    2.4601 C   0  0  0  0  0  0  0  0  0  0  0  0
   -3.8313   -3.6365    0.9671 C   0  0  0  0  0  0  0  0  0  0  0  0
   -3.4964   -2.2049    0.5650 C   0  0  0  0  0  0  0  0  0  0  0  0
    6.5811   -1.2878   -3.2901 H   0  0  0  0  0  0  0  0  0  0  0  0
    6.2079   -2.2811   -1.8770 H   0  0  0  0  0  0  0  0  0  0  0  0
    6.9208   -0.6846   -1.6194 H   0  0  0  0  0  0  0  0  0  0  0  0
    6.7485    1.0431   -3.2433 H   0  0  0  0  0  0  0  0  0  0  0  0
    6.2222    3.3503   -3.8647 H   0  0  0  0  0  0  0  0  0  0  0  0
    3.9295    4.2434   -3.5592 H   0  0  0  0  0  0  0  0  0  0  0  0
    2.1600    2.8354   -2.6323 H   0  0  0  0  0  0  0  0  0  0  0  0
    2.8494   -0.7077   -1.6165 H   0  0  0  0  0  0  0  0  0  0  0  0
    0.1340   -1.3980   -1.8426 H   0  0  0  0  0  0  0  0  0  0  0  0
    1.0992   -1.3813   -0.3634 H   0  0  0  0  0  0  0  0  0  0  0  0
   -1.0249    2.5855    1.4419 H   0  0  0  0  0  0  0  0  0  0  0  0
   -5.0183    2.0678    3.0462 H   0  0  0  0  0  0  0  0  0  0  0  0
   -4.8405   -0.3491    2.7070 H   0  0  0  0  0  0  0  0  0  0  0  0
   -3.2650   -1.9778    3.7946 H   0  0  0  0  0  0  0  0  0  0  0  0
   -2.0558   -3.0777    3.1208 H   0  0  0  0  0  0  0  0  0  0  0  0
   -4.0088   -4.4598    2.9875 H   0  0  0  0  0  0  0  0  0  0  0  0
   -5.0583   -3.0694    2.6471 H   0  0  0  0  0  0  0  0  0  0  0  0
   -2.9758   -4.2956    0.7772 H   0  0  0  0  0  0  0  0  0  0  0  0
   -4.6986   -4.0311    0.4309 H   0  0  0  0  0  0  0  0  0  0  0  0
   -2.9075   -2.1788   -0.3571 H   0  0  0  0  0  0  0  0  0  0  0  0
   -4.4250   -1.6427    0.4034 H   0  0  0  0  0  0  0  0  0  0  0  0
  1  2  1  0
  2  3  1  0
  3  4  2  0
  4  5  1  0
  5  6  2  0
  6  7  1  0
  7  8  2  0
  8  9  1  0
  9 10  1  0
 10 11  2  0
 10 12  1  0
 12 13  1  0
 13 14  1  0
 14 15  2  0
 14 16  1  0
 16 17  2  0
 17 18  1  0
 18 19  1  0
 19 20  2  0
 19 21  1  0
 18 22  2  0
 22 23  1  0
 23 24  2  0
 24 25  1  0
 25 26  1  0
 26 27  1  0
 27 28  1  0
 28 29  1  0
  8  3  1  0
 24 16  1  0
 29 25  1  0
  1 30  1  0
  1 31  1  0
  1 32  1  0
  4 33  1  0
  5 34  1  0
  6 35  1  0
  7 36  1  0
  9 37  1  0
 12 38  1  0
 12 39  1  0
 17 40  1  0
 22 41  1  0
 23 42  1  0
 26 43  1  0
 26 44  1  0
 27 45  1  0
 27 46  1  0
 28 47  1  0
 28 48  1  0
 29 49  1  0
 29 50  1  0
M  CHG  2  19   1  21  -1
M  END
$$$$
