
     RDKit          3D

 37 37  0  0  0  0  0  0  0  0999 V2000
   -3.5193   -0.3196    2.7780 C   0  0  0  0  0  0  0  0  0  0  0  0
   -3.4751    0.6482    1.6040 C   0  0  0  0  0  0  0  0  0  0  0  0
   -2.9803   -0.0178    0.3904 N   0  0  0  0  0  0  0  0  0  0  0  0
   -4.0127   -0.5973   -0.4806 C   0  0  0  0  0  0  0  0  0  0  0  0
   -4.4526    0.3980   -1.5446 C   0  0  0  0  0  0  0  0  0  0  0  0
   -1.6257   -0.0869    0.0843 C   0  0  0  0  0  0  0  0  0  0  0  0
   -0.6300    0.3627    0.9720 C   0  0  0  0  0  0  0  0  0  0  0  0
    0.7388    0.2986    0.6707 C   0  0  0  0  0  0  0  0  0  0  0  0
    1.1553   -0.2274   -0.5462 C   0  0  0  0  0  0  0  0  0  0  0  0
    2.5861   -0.3125   -0.8959 C   0  0  0  0  0  0  0  0  0  0  0  0
    3.5116    0.1158   -0.1030 N   0  0  0  0  0  0  0  0  0  0  0  0
    4.8936   -0.0518   -0.6251 C   0  0  0  0  0  0  0  0  0  0  0  0
    5.1867    1.0166   -1.5953 C   0  0  0  0  0  0  0  0  0  0  0  0
    5.4143    1.8341   -2.3876 N   0  0  0  0  0  0  0  0  0  0  0  0
    5.8281    0.0626    0.5511 C   0  0  0  0  0  0  0  0  0  0  0  0
    5.4917    0.3886    1.7627 N   0  0  0  0  0  0  0  0  0  0  0  0
    7.2279   -0.2381    0.3697 C   0  0  0  0  0  0  0  0  0  0  0  0
    8.3375   -0.5132    0.1621 N   0  0  0  0  0  0  0  0  0  0  0  0
    0.2078   -0.6837   -1.4550 C   0  0  0  0  0  0  0  0  0  0  0  0
   -1.1568   -0.6103   -1.1356 C   0  0  0  0  0  0  0  0  0  0  0  0
   -3.9064    0.1851    3.6691 H   0  0  0  0  0  0  0  0  0  0  0  0
   -4.1726   -1.1712    2.5602 H   0  0  0  0  0  0  0  0  0  0  0  0
   -2.5274   -0.7147    3.0166 H   0  0  0  0  0  0  0  0  0  0  0  0
   -4.4907    1.0255    1.4290 H   0  0  0  0  0  0  0  0  0  0  0  0
   -2.8867    1.5390    1.8503 H   0  0  0  0  0  0  0  0  0  0  0  0
   -4.8897   -0.8735    0.1188 H   0  0  0  0  0  0  0  0  0  0  0  0
   -3.6806   -1.5371   -0.9358 H   0  0  0  0  0  0  0  0  0  0  0  0
   -5.2268   -0.0448   -2.1786 H   0  0  0  0  0  0  0  0  0  0  0  0
   -3.6203    0.7005   -2.1876 H   0  0  0  0  0  0  0  0  0  0  0  0
   -4.8644    1.3044   -1.0886 H   0  0  0  0  0  0  0  0  0  0  0  0
   -0.8903    0.7728    1.9432 H   0  0  0  0  0  0  0  0  0  0  0  0
    1.4598    0.6624    1.3977 H   0  0  0  0  0  0  0  0  0  0  0  0
    2.8222   -0.7622   -1.8785 H   0  0  0  0  0  0  0  0  0  0  0  0
    5.0262   -1.0442   -1.0736 H   0  0  0  0  0  0  0  0  0  0  0  0
    4.4698    0.5560    1.7562 H   0  0  0  0  0  0  0  0  0  0  0  0
    0.5008   -1.0941   -2.4176 H   0  0  0  0  0  0  0  0  0  0  0  0
   -1.8496   -0.9705   -1.8902 H   0  0  0  0  0  0  0  0  0  0  0  0
  1  2  1  0
  2  3  1  0
  3  4  1  0
  4  5  1  0
  3  6  1  0
  6  7  2  0
  7  8  1  0
  8  9  2  0
  9 10  1  0
 10 11  2  3
 11 12  1  0
 12 13  1  0
 13 14  3  0
 12 15  1  0
 15 16  2  3
 15 17  1  0
 17 18  3  0
  9 19  1  0
 19 20  2  0
 20  6  1  0
  1 21  1  0
  1 22  1  0
  1 23  1  0
  2 24  1  0
  2 25  1  0
  4 26  1  0
  4 27  1  0
  5 28  1  0
  5 29  1  0
  5 30  1  0
  7 31  1  0
  8 32  1  0
 10 33  1  0
 12 34  1  0
 16 35  1  0
 19 36  1  0
 20 37  1  0
M  END
$$$$
