
     RDKit          3D

 43 46  0  0  0  0  0  0  0  0999 V2000
   -1.9289   -2.7565    1.0041 C   0  0  0  0  0  0  0  0  0  0  0  0
   -1.7006   -2.1372   -0.3611 C   0  0  0  0  0  0  0  0  0  0  0  0
   -1.8100   -0.7090   -0.2708 O   0  0  0  0  0  0  0  0  0  0  0  0
   -3.0534   -0.1909   -0.4688 C   0  0  0  0  0  0  0  0  0  0  0  0
   -4.0547   -0.8610   -0.6846 O   0  0  0  0  0  0  0  0  0  0  0  0
   -3.0253    1.2624   -0.4059 C   0  0  0  0  0  0  0  0  0  0  0  0
   -4.0738    2.0818   -0.8136 C   0  0  0  0  0  0  0  0  0  0  0  0
   -3.6447    3.4225   -0.6378 C   0  0  0  0  0  0  0  0  0  0  0  0
   -4.2373    5.0309   -0.8792 S   0  0  0  0  0  0  0  0  0  0  0  0
   -2.7488    5.6617   -0.2940 C   0  0  0  0  0  0  0  0  0  0  0  0
   -1.8360    4.6993    0.0818 C   0  0  0  0  0  0  0  0  0  0  0  0
   -2.3849    3.4018   -0.1236 C   0  0  0  0  0  0  0  0  0  0  0  0
   -2.0075    2.0849    0.0536 N   0  0  0  0  0  0  0  0  0  0  0  0
   -0.7658    1.7103    0.7159 C   0  0  0  0  0  0  0  0  0  0  0  0
    0.3444    1.3777   -0.2594 C   0  0  0  0  0  0  0  0  0  0  0  0
    0.4795    1.9484   -1.3402 O   0  0  0  0  0  0  0  0  0  0  0  0
    1.3298    0.3255    0.1219 C   0  0  0  0  0  0  0  0  0  0  0  0
    1.5750   -0.0170    1.4587 C   0  0  0  0  0  0  0  0  0  0  0  0
    2.4912   -1.0277    1.7647 C   0  0  0  0  0  0  0  0  0  0  0  0
    3.1633   -1.6931    0.7418 C   0  0  0  0  0  0  0  0  0  0  0  0
    2.9495   -1.3271   -0.5899 C   0  0  0  0  0  0  0  0  0  0  0  0
    2.0288   -0.3287   -0.9016 C   0  0  0  0  0  0  0  0  0  0  0  0
    3.6015   -1.9157   -1.6426 O   0  0  0  0  0  0  0  0  0  0  0  0
    4.7493   -2.6501   -1.2011 C   0  0  0  0  0  0  0  0  0  0  0  0
    4.4032   -3.5073    0.0052 C   0  0  0  0  0  0  0  0  0  0  0  0
    4.0270   -2.6881    1.1193 O   0  0  0  0  0  0  0  0  0  0  0  0
   -2.9388   -2.5415    1.3675 H   0  0  0  0  0  0  0  0  0  0  0  0
   -1.7935   -3.8409    0.9663 H   0  0  0  0  0  0  0  0  0  0  0  0
   -1.2309   -2.3384    1.7371 H   0  0  0  0  0  0  0  0  0  0  0  0
   -2.3861   -2.5495   -1.1101 H   0  0  0  0  0  0  0  0  0  0  0  0
   -0.6838   -2.3598   -0.7007 H   0  0  0  0  0  0  0  0  0  0  0  0
   -5.0247    1.7477   -1.2092 H   0  0  0  0  0  0  0  0  0  0  0  0
   -2.6180    6.7347   -0.2587 H   0  0  0  0  0  0  0  0  0  0  0  0
   -0.8480    4.9181    0.4646 H   0  0  0  0  0  0  0  0  0  0  0  0
   -0.4397    2.5456    1.3447 H   0  0  0  0  0  0  0  0  0  0  0  0
   -1.0035    0.8746    1.3796 H   0  0  0  0  0  0  0  0  0  0  0  0
    1.0781    0.4899    2.2807 H   0  0  0  0  0  0  0  0  0  0  0  0
    2.6780   -1.3013    2.8003 H   0  0  0  0  0  0  0  0  0  0  0  0
    1.8610   -0.0607   -1.9431 H   0  0  0  0  0  0  0  0  0  0  0  0
    5.0794   -3.2811   -2.0322 H   0  0  0  0  0  0  0  0  0  0  0  0
    5.5522   -1.9385   -0.9718 H   0  0  0  0  0  0  0  0  0  0  0  0
    5.2705   -4.1018    0.3089 H   0  0  0  0  0  0  0  0  0  0  0  0
    3.5771   -4.1947   -0.2150 H   0  0  0  0  0  0  0  0  0  0  0  0
  1  2  1  0
  2  3  1  0
  3  4  1  0
  4  5  2  0
  4  6  1  0
  6  7  2  0
  7  8  1  0
  8  9  1  0
  9 10  1  0
 10 11  2  0
 11 12  1  0
 12 13  1  0
 13 14  1  0
 14 15  1  0
 15 16  2  0
 15 17  1  0
 17 18  2  0
 18 19  1  0
 19 20  2  0
 20 21  1  0
 21 22  2  0
 21 23  1  0
 23 24  1  0
 24 25  1  0
 25 26  1  0
 13  6  1  0
 22 17  1  0
 12  8  2  0
 26 20  1  0
  1 27  1  0
  1 28  1  0
  1 29  1  0
  2 30  1  0
  2 31  1  0
  7 32  1  0
 10 33  1  0
 11 34  1  0
 14 35  1  0
 14 36  1  0
 18 37  1  0
 19 38  1  0
 22 39  1  0
 24 40  1  0
 24 41  1  0
 25 42  1  0
 25 43  1  0
M  END
$$$$
