
     RDKit          3D

 37 39  0  0  0  0  0  0  0  0999 V2000
   -0.0234    2.8163   -1.1426 C   0  0  0  0  0  0  0  0  0  0  0  0
   -0.7198    1.5359   -0.7552 C   0  0  0  0  0  0  0  0  0  0  0  0
   -0.1147    0.4577   -0.3531 N   0  0  0  0  0  0  0  0  0  0  0  0
    1.2417    0.4481   -0.2548 N   0  0  0  0  0  0  0  0  0  0  0  0
    1.8757   -0.6902    0.2235 C   0  0  0  0  0  0  0  0  0  0  0  0
    1.3139   -1.7186    0.5871 O   0  0  0  0  0  0  0  0  0  0  0  0
    3.3580   -0.6019    0.3213 C   0  0  0  0  0  0  0  0  0  0  0  0
    3.9999   -1.3083    1.3481 C   0  0  0  0  0  0  0  0  0  0  0  0
    5.3886   -1.2544    1.4783 C   0  0  0  0  0  0  0  0  0  0  0  0
    6.1415   -0.5022    0.5771 C   0  0  0  0  0  0  0  0  0  0  0  0
    5.5032    0.1844   -0.4556 C   0  0  0  0  0  0  0  0  0  0  0  0
    6.4373    1.0983   -1.5757 Cl  0  0  0  0  0  0  0  0  0  0  0  0
    4.1162    0.1373   -0.5945 C   0  0  0  0  0  0  0  0  0  0  0  0
   -2.2257    1.5012   -0.8232 C   0  0  0  0  0  0  0  0  0  0  0  0
   -2.7410    0.4045   -1.7268 C   0  0  0  0  0  0  0  0  0  0  0  0
   -2.5516    0.2972   -2.9253 O   0  0  0  0  0  0  0  0  0  0  0  0
   -3.5502   -0.5166   -0.9289 C   0  0  0  0  0  0  0  0  0  0  0  0
   -4.1928   -1.6719   -1.3328 C   0  0  0  0  0  0  0  0  0  0  0  0
   -4.9187   -2.3760   -0.3673 C   0  0  0  0  0  0  0  0  0  0  0  0
   -4.9883   -1.9152    0.9628 C   0  0  0  0  0  0  0  0  0  0  0  0
   -4.3330   -0.7424    1.3502 C   0  0  0  0  0  0  0  0  0  0  0  0
   -3.6188   -0.0625    0.3815 C   0  0  0  0  0  0  0  0  0  0  0  0
   -2.8578    1.1799    0.5118 C   0  0  0  0  0  0  0  0  0  0  0  0
   -2.7831    1.8409    1.5324 O   0  0  0  0  0  0  0  0  0  0  0  0
    0.4686    3.2427   -0.2641 H   0  0  0  0  0  0  0  0  0  0  0  0
    0.7191    2.6146   -1.9195 H   0  0  0  0  0  0  0  0  0  0  0  0
   -0.7363    3.5472   -1.5319 H   0  0  0  0  0  0  0  0  0  0  0  0
    1.7621    1.3033   -0.4009 H   0  0  0  0  0  0  0  0  0  0  0  0
    3.4147   -1.9022    2.0492 H   0  0  0  0  0  0  0  0  0  0  0  0
    5.8808   -1.8020    2.2787 H   0  0  0  0  0  0  0  0  0  0  0  0
    7.2232   -0.4638    0.6789 H   0  0  0  0  0  0  0  0  0  0  0  0
    3.6468    0.6477   -1.4299 H   0  0  0  0  0  0  0  0  0  0  0  0
   -2.6422    2.4509   -1.1736 H   0  0  0  0  0  0  0  0  0  0  0  0
   -4.1290   -2.0203   -2.3590 H   0  0  0  0  0  0  0  0  0  0  0  0
   -5.4329   -3.2950   -0.6436 H   0  0  0  0  0  0  0  0  0  0  0  0
   -5.5554   -2.4838    1.6978 H   0  0  0  0  0  0  0  0  0  0  0  0
   -4.3765   -0.3810    2.3729 H   0  0  0  0  0  0  0  0  0  0  0  0
  1  2  1  0
  2  3  2  3
  3  4  1  0
  4  5  1  0
  5  6  2  0
  5  7  1  0
  7  8  2  0
  8  9  1  0
  9 10  2  0
 10 11  1  0
 11 12  1  0
 11 13  2  0
  2 14  1  0
 14 15  1  0
 15 16  2  0
 15 17  1  0
 17 18  2  0
 18 19  1  0
 19 20  2  0
 20 21  1  0
 21 22  2  0
 22 23  1  0
 23 24  2  0
 13  7  1  0
 23 14  1  0
 22 17  1  0
  1 25  1  0
  1 26  1  0
  1 27  1  0
  4 28  1  0
  8 29  1  0
  9 30  1  0
 10 31  1  0
 13 32  1  0
 14 33  1  0
 18 34  1  0
 19 35  1  0
 20 36  1  0
 21 37  1  0
M  END
$$$$
