
     RDKit          3D

 53 56  0  0  0  0  0  0  0  0999 V2000
    5.2640   -1.2823   -1.3532 C   0  0  0  0  0  0  0  0  0  0  0  0
    4.6078   -0.5531   -0.2598 N   0  0  0  0  0  0  0  0  0  0  0  0
    5.3797   -0.2040    0.8737 C   0  0  0  0  0  0  0  0  0  0  0  0
    4.8195    0.6132    1.8748 C   0  0  0  0  0  0  0  0  0  0  0  0
    5.5430    0.9864    3.0119 C   0  0  0  0  0  0  0  0  0  0  0  0
    6.8540    0.5553    3.1734 C   0  0  0  0  0  0  0  0  0  0  0  0
    7.4381   -0.2433    2.1964 C   0  0  0  0  0  0  0  0  0  0  0  0
    6.7096   -0.6143    1.0593 C   0  0  0  0  0  0  0  0  0  0  0  0
    3.2058   -0.7627   -0.2453 C   0  0  0  0  0  0  0  0  0  0  0  0
    2.4173   -0.0139   -1.1364 C   0  0  0  0  0  0  0  0  0  0  0  0
    1.0213   -0.1249   -1.1468 C   0  0  0  0  0  0  0  0  0  0  0  0
    0.3723   -0.9895   -0.2595 C   0  0  0  0  0  0  0  0  0  0  0  0
   -1.0896   -1.1131   -0.2541 C   0  0  0  0  0  0  0  0  0  0  0  0
   -1.9558   -0.1697    0.1747 C   0  0  0  0  0  0  0  0  0  0  0  0
   -1.4931    1.0677    0.7174 C   0  0  0  0  0  0  0  0  0  0  0  0
   -1.1490    2.0997    1.1224 N   0  0  0  0  0  0  0  0  0  0  0  0
   -3.3447   -0.5042    0.1414 C   0  0  0  0  0  0  0  0  0  0  0  0
   -3.8935   -1.6932    0.3165 N   0  0  0  0  0  0  0  0  0  0  0  0
   -5.2482   -1.5763    0.2116 N   0  0  0  0  0  0  0  0  0  0  0  0
   -5.5312   -0.3210   -0.0504 C   0  0  0  0  0  0  0  0  0  0  0  0
   -4.3623    0.4004   -0.1335 N   0  0  0  0  0  0  0  0  0  0  0  0
   -4.2196    1.7889   -0.5270 C   0  0  0  0  0  0  0  0  0  0  0  0
   -5.4073    2.5069   -1.1823 C   0  0  0  0  0  0  0  0  0  0  0  0
   -6.1245    1.6722   -2.2385 C   0  0  0  0  0  0  0  0  0  0  0  0
   -7.1563    0.6963   -1.6618 C   0  0  0  0  0  0  0  0  0  0  0  0
   -6.8955    0.2309   -0.2319 C   0  0  0  0  0  0  0  0  0  0  0  0
    1.1303   -1.7600    0.6236 C   0  0  0  0  0  0  0  0  0  0  0  0
    2.5303   -1.6409    0.6193 C   0  0  0  0  0  0  0  0  0  0  0  0
    3.2628   -2.5163    1.5143 N   0  0  0  0  0  4  0  0  0  0  0  0
    4.0248   -3.3483    1.0004 O   0  0  0  0  0  0  0  0  0  0  0  0
    3.0084   -2.4222    2.7237 O   0  0  0  0  0  1  0  0  0  0  0  0
    5.5293   -2.3014   -1.0505 H   0  0  0  0  0  0  0  0  0  0  0  0
    6.1701   -0.7591   -1.6804 H   0  0  0  0  0  0  0  0  0  0  0  0
    4.6246   -1.3572   -2.2416 H   0  0  0  0  0  0  0  0  0  0  0  0
    3.8031    0.9867    1.7735 H   0  0  0  0  0  0  0  0  0  0  0  0
    5.0778    1.6142    3.7672 H   0  0  0  0  0  0  0  0  0  0  0  0
    7.4181    0.8396    4.0573 H   0  0  0  0  0  0  0  0  0  0  0  0
    8.4621   -0.5871    2.3178 H   0  0  0  0  0  0  0  0  0  0  0  0
    7.2095   -1.2524    0.3373 H   0  0  0  0  0  0  0  0  0  0  0  0
    2.8977    0.6880   -1.8163 H   0  0  0  0  0  0  0  0  0  0  0  0
    0.4536    0.4790   -1.8521 H   0  0  0  0  0  0  0  0  0  0  0  0
   -1.4573   -2.0753   -0.6133 H   0  0  0  0  0  0  0  0  0  0  0  0
   -3.9351    2.3448    0.3727 H   0  0  0  0  0  0  0  0  0  0  0  0
   -3.3836    1.8246   -1.2362 H   0  0  0  0  0  0  0  0  0  0  0  0
   -6.1140    2.8556   -0.4204 H   0  0  0  0  0  0  0  0  0  0  0  0
   -5.0184    3.4167   -1.6575 H   0  0  0  0  0  0  0  0  0  0  0  0
   -6.6420    2.3400   -2.9384 H   0  0  0  0  0  0  0  0  0  0  0  0
   -5.3885    1.1214   -2.8377 H   0  0  0  0  0  0  0  0  0  0  0  0
   -8.1435    1.1754   -1.6835 H   0  0  0  0  0  0  0  0  0  0  0  0
   -7.2275   -0.1705   -2.3313 H   0  0  0  0  0  0  0  0  0  0  0  0
   -7.0649    1.0446    0.4825 H   0  0  0  0  0  0  0  0  0  0  0  0
   -7.6323   -0.5415    0.0220 H   0  0  0  0  0  0  0  0  0  0  0  0
    0.6431   -2.4510    1.3103 H   0  0  0  0  0  0  0  0  0  0  0  0
  1  2  1  0
  2  3  1  0
  3  4  2  0
  4  5  1  0
  5  6  2  0
  6  7  1  0
  7  8  2  0
  2  9  1  0
  9 10  2  0
 10 11  1  0
 11 12  2  0
 12 13  1  0
 13 14  2  3
 14 15  1  0
 15 16  3  0
 14 17  1  0
 17 18  2  0
 18 19  1  0
 19 20  2  0
 20 21  1  0
 21 22  1  0
 22 23  1  0
 23 24  1  0
 24 25  1  0
 25 26  1  0
 12 27  1  0
 27 28  2  0
 28 29  1  0
 29 30  2  0
 29 31  1  0
  8  3  1  0
 28  9  1  0
 21 17  1  0
 26 20  1  0
  1 32  1  0
  1 33  1  0
  1 34  1  0
  4 35  1  0
  5 36  1  0
  6 37  1  0
  7 38  1  0
  8 39  1  0
 10 40  1  0
 11 41  1  0
 13 42  1  0
 22 43  1  0
 22 44  1  0
 23 45  1  0
 23 46  1  0
 24 47  1  0
 24 48  1  0
 25 49  1  0
 25 50  1  0
 26 51  1  0
 26 52  1  0
 27 53  1  0
M  CHG  2  29   1  31  -1
M  END
$$$$
