
     RDKit          3D

 52 55  0  0  0  0  0  0  0  0999 V2000
    8.8137    0.4761   -1.1382 C   0  0  0  0  0  0  0  0  0  0  0  0
    8.3285    1.0303    0.1893 C   0  0  0  0  0  0  0  0  0  0  0  0
    7.5290    0.0702    0.8759 O   0  0  0  0  0  0  0  0  0  0  0  0
    6.1818    0.0491    0.6543 C   0  0  0  0  0  0  0  0  0  0  0  0
    5.4829    0.8050   -0.2825 C   0  0  0  0  0  0  0  0  0  0  0  0
    4.0912    0.6773   -0.3944 C   0  0  0  0  0  0  0  0  0  0  0  0
    3.3775   -0.2080    0.4242 C   0  0  0  0  0  0  0  0  0  0  0  0
    1.9784   -0.2625    0.2459 N   0  0  0  0  0  0  0  0  0  0  0  0
    1.0584   -0.9902    0.9729 C   0  0  0  0  0  0  0  0  0  0  0  0
    1.3384   -1.7019    1.9335 O   0  0  0  0  0  0  0  0  0  0  0  0
   -0.2643   -0.8465    0.5396 N   0  0  0  0  0  0  0  0  0  0  0  0
   -1.3146   -1.5552    1.2745 C   0  0  0  0  0  0  0  0  0  0  0  0
   -2.5188   -0.6499    1.5050 C   0  0  0  0  0  0  0  0  0  0  0  0
   -3.0422   -0.0142    0.2028 C   0  0  0  0  0  0  0  0  0  0  0  0
   -4.4253   -0.3721   -0.0629 N   0  0  0  0  0  0  0  0  0  0  0  0
   -4.9170   -1.6888   -0.2170 C   0  0  0  0  0  0  0  0  0  0  0  0
   -4.2960   -2.7339   -0.1200 O   0  0  0  0  0  0  0  0  0  0  0  0
   -6.2818   -1.5755   -0.5144 N   0  0  0  0  0  0  0  0  0  0  0  0
   -6.6249   -0.2309   -0.5625 C   0  0  0  0  0  0  0  0  0  0  0  0
   -7.8486    0.3378   -0.8330 C   0  0  0  0  0  0  0  0  0  0  0  0
   -7.9095    1.7337   -0.8253 C   0  0  0  0  0  0  0  0  0  0  0  0
   -6.7620    2.5076   -0.5524 C   0  0  0  0  0  0  0  0  0  0  0  0
   -5.5279    1.9029   -0.2805 C   0  0  0  0  0  0  0  0  0  0  0  0
   -5.4832    0.5251   -0.2898 C   0  0  0  0  0  0  0  0  0  0  0  0
   -2.1530   -0.3313   -1.0071 C   0  0  0  0  0  0  0  0  0  0  0  0
   -0.6809   -0.1354   -0.6681 C   0  0  0  0  0  0  0  0  0  0  0  0
    4.0841   -0.9725    1.3499 C   0  0  0  0  0  0  0  0  0  0  0  0
    5.4741   -0.8428    1.4614 C   0  0  0  0  0  0  0  0  0  0  0  0
    9.3618   -0.4597   -0.9860 H   0  0  0  0  0  0  0  0  0  0  0  0
    7.9785    0.2490   -1.8076 H   0  0  0  0  0  0  0  0  0  0  0  0
    9.4742    1.1924   -1.6354 H   0  0  0  0  0  0  0  0  0  0  0  0
    7.8255    1.9971    0.0804 H   0  0  0  0  0  0  0  0  0  0  0  0
    9.2014    1.2172    0.8250 H   0  0  0  0  0  0  0  0  0  0  0  0
    5.9830    1.4990   -0.9486 H   0  0  0  0  0  0  0  0  0  0  0  0
    3.5769    1.2842   -1.1349 H   0  0  0  0  0  0  0  0  0  0  0  0
    1.6105    0.3637   -0.4474 H   0  0  0  0  0  0  0  0  0  0  0  0
   -0.9473   -1.9125    2.2419 H   0  0  0  0  0  0  0  0  0  0  0  0
   -1.5896   -2.4415    0.6912 H   0  0  0  0  0  0  0  0  0  0  0  0
   -2.2137    0.1609    2.1804 H   0  0  0  0  0  0  0  0  0  0  0  0
   -3.3019   -1.2023    2.0366 H   0  0  0  0  0  0  0  0  0  0  0  0
   -3.0053    1.0708    0.3566 H   0  0  0  0  0  0  0  0  0  0  0  0
   -6.8845   -2.3654   -0.6764 H   0  0  0  0  0  0  0  0  0  0  0  0
   -8.7260   -0.2615   -1.0437 H   0  0  0  0  0  0  0  0  0  0  0  0
   -8.8540    2.2330   -1.0326 H   0  0  0  0  0  0  0  0  0  0  0  0
   -6.8395    3.5933   -0.5525 H   0  0  0  0  0  0  0  0  0  0  0  0
   -4.6573    2.5111   -0.0708 H   0  0  0  0  0  0  0  0  0  0  0  0
   -2.4291    0.3074   -1.8545 H   0  0  0  0  0  0  0  0  0  0  0  0
   -2.3106   -1.3643   -1.3418 H   0  0  0  0  0  0  0  0  0  0  0  0
   -0.4752    0.9295   -0.5081 H   0  0  0  0  0  0  0  0  0  0  0  0
   -0.0623   -0.4746   -1.5068 H   0  0  0  0  0  0  0  0  0  0  0  0
    3.5899   -1.6834    2.0043 H   0  0  0  0  0  0  0  0  0  0  0  0
    6.0063   -1.4471    2.1927 H   0  0  0  0  0  0  0  0  0  0  0  0
  1  2  1  0
  2  3  1  0
  3  4  1  0
  4  5  2  0
  5  6  1  0
  6  7  2  0
  7  8  1  0
  8  9  1  0
  9 10  2  0
  9 11  1  0
 11 12  1  0
 12 13  1  0
 13 14  1  0
 14 15  1  0
 15 16  1  0
 16 17  2  0
 16 18  1  0
 18 19  1  0
 19 20  2  0
 20 21  1  0
 21 22  2  0
 22 23  1  0
 23 24  2  0
 14 25  1  0
 25 26  1  0
  7 27  1  0
 27 28  2  0
 28  4  1  0
 26 11  1  0
 24 15  1  0
 24 19  1  0
  1 29  1  0
  1 30  1  0
  1 31  1  0
  2 32  1  0
  2 33  1  0
  5 34  1  0
  6 35  1  0
  8 36  1  0
 12 37  1  0
 12 38  1  0
 13 39  1  0
 13 40  1  0
 14 41  1  0
 18 42  1  0
 20 43  1  0
 21 44  1  0
 22 45  1  0
 23 46  1  0
 25 47  1  0
 25 48  1  0
 26 49  1  0
 26 50  1  0
 27 51  1  0
 28 52  1  0
M  END
$$$$
