
     RDKit          3D

 71 76  0  0  0  0  0  0  0  0999 V2000
   10.4326    0.5525   -0.8514 C   0  0  0  0  0  0  0  0  0  0  0  0
   10.1913    0.2012    0.5047 O   0  0  0  0  0  0  0  0  0  0  0  0
    8.9291   -0.2253    0.8215 C   0  0  0  0  0  0  0  0  0  0  0  0
    8.7517   -0.5816    2.1569 C   0  0  0  0  0  0  0  0  0  0  0  0
    7.5162   -1.0462    2.6009 C   0  0  0  0  0  0  0  0  0  0  0  0
    6.4440   -1.1483    1.7063 C   0  0  0  0  0  0  0  0  0  0  0  0
    6.5765   -0.7767    0.3608 C   0  0  0  0  0  0  0  0  0  0  0  0
    5.5378   -0.8585   -0.5676 N   0  0  0  0  0  0  0  0  0  0  0  0
    5.2152    0.3799   -1.3114 C   0  0  0  0  0  0  0  0  0  0  0  0
    4.0831    1.1570   -0.6161 C   0  0  0  0  0  0  0  0  0  0  0  0
    2.8949    0.3225   -0.3849 N   0  0  0  0  0  0  0  0  0  0  0  0
    1.6602    0.9691   -0.3288 C   0  0  0  0  0  0  0  0  0  0  0  0
    1.5704    2.1845   -0.5161 O   0  0  0  0  0  0  0  0  0  0  0  0
    0.4129    0.1143   -0.0957 C   0  0  0  0  0  0  0  0  0  0  0  0
    0.1615   -0.8248   -1.2937 C   0  0  0  0  0  0  0  0  0  0  0  0
   -1.0388   -0.3826   -2.1249 C   0  0  0  0  0  0  0  0  0  0  0  0
   -2.3136   -0.2880   -1.2805 C   0  0  0  0  0  0  0  0  0  0  0  0
   -2.0343    0.2453    0.0564 N   0  0  0  0  0  0  0  0  0  0  0  0
   -3.1349    0.6665    0.8154 C   0  0  0  0  0  0  0  0  0  0  0  0
   -2.9096    1.4206    1.9359 N   0  0  0  0  0  0  0  0  0  0  0  0
   -3.9463    1.8336    2.6923 C   0  0  0  0  0  0  0  0  0  0  0  0
   -5.2558    1.6050    2.5043 N   0  0  0  0  0  0  0  0  0  0  0  0
   -5.4537    0.8488    1.4125 C   0  0  0  0  0  0  0  0  0  0  0  0
   -4.4961    0.3488    0.5442 C   0  0  0  0  0  0  0  0  0  0  0  0
   -5.1132   -0.3795   -0.4585 N   0  0  0  0  0  0  0  0  0  0  0  0
   -6.4120   -0.3049   -0.2271 C   0  0  0  0  0  0  0  0  0  0  0  0
   -6.6607    0.4230    0.9154 N   0  0  0  0  0  0  0  0  0  0  0  0
   -7.9346    0.7623    1.5170 C   0  0  0  0  0  0  0  0  0  0  0  0
   -9.0712   -0.2183    1.2496 C   0  0  0  0  0  0  0  0  0  0  0  0
   -9.6808   -0.0839   -0.1474 C   0  0  0  0  0  0  0  0  0  0  0  0
   -8.6819   -0.0495   -1.3042 C   0  0  0  0  0  0  0  0  0  0  0  0
   -7.4549   -0.9326   -1.0959 C   0  0  0  0  0  0  0  0  0  0  0  0
   -0.7978    1.0195    0.2064 C   0  0  0  0  0  0  0  0  0  0  0  0
    3.1774   -0.9555    0.2868 C   0  0  0  0  0  0  0  0  0  0  0  0
    4.3616   -1.7175   -0.3403 C   0  0  0  0  0  0  0  0  0  0  0  0
    7.8474   -0.3293   -0.0599 C   0  0  0  0  0  0  0  0  0  0  0  0
   11.4654    0.9041   -0.9233 H   0  0  0  0  0  0  0  0  0  0  0  0
    9.7802    1.3710   -1.1767 H   0  0  0  0  0  0  0  0  0  0  0  0
   10.3272   -0.3181   -1.5053 H   0  0  0  0  0  0  0  0  0  0  0  0
    9.5832   -0.5059    2.8537 H   0  0  0  0  0  0  0  0  0  0  0  0
    7.3889   -1.3282    3.6441 H   0  0  0  0  0  0  0  0  0  0  0  0
    5.4973   -1.5046    2.1031 H   0  0  0  0  0  0  0  0  0  0  0  0
    6.0782    1.0398   -1.4502 H   0  0  0  0  0  0  0  0  0  0  0  0
    4.8850    0.0885   -2.3168 H   0  0  0  0  0  0  0  0  0  0  0  0
    3.8225    2.0260   -1.2296 H   0  0  0  0  0  0  0  0  0  0  0  0
    4.4121    1.5271    0.3632 H   0  0  0  0  0  0  0  0  0  0  0  0
    0.5816   -0.4931    0.8007 H   0  0  0  0  0  0  0  0  0  0  0  0
    1.0363   -0.8947   -1.9482 H   0  0  0  0  0  0  0  0  0  0  0  0
   -0.0253   -1.8386   -0.9189 H   0  0  0  0  0  0  0  0  0  0  0  0
   -0.8247    0.5955   -2.5718 H   0  0  0  0  0  0  0  0  0  0  0  0
   -1.2015   -1.0735   -2.9590 H   0  0  0  0  0  0  0  0  0  0  0  0
   -2.7424   -1.2928   -1.1836 H   0  0  0  0  0  0  0  0  0  0  0  0
   -3.0251    0.3440   -1.8264 H   0  0  0  0  0  0  0  0  0  0  0  0
   -3.6848    2.4247    3.5653 H   0  0  0  0  0  0  0  0  0  0  0  0
   -8.1907    1.7737    1.1784 H   0  0  0  0  0  0  0  0  0  0  0  0
   -7.7742    0.8002    2.6017 H   0  0  0  0  0  0  0  0  0  0  0  0
   -9.8701   -0.0346    1.9800 H   0  0  0  0  0  0  0  0  0  0  0  0
   -8.7332   -1.2491    1.4197 H   0  0  0  0  0  0  0  0  0  0  0  0
  -10.3834   -0.9144   -0.2933 H   0  0  0  0  0  0  0  0  0  0  0  0
  -10.2782    0.8331   -0.1903 H   0  0  0  0  0  0  0  0  0  0  0  0
   -9.2076   -0.3736   -2.2101 H   0  0  0  0  0  0  0  0  0  0  0  0
   -8.3713    0.9881   -1.4898 H   0  0  0  0  0  0  0  0  0  0  0  0
   -7.7339   -1.9163   -0.6998 H   0  0  0  0  0  0  0  0  0  0  0  0
   -7.0000   -1.1136   -2.0791 H   0  0  0  0  0  0  0  0  0  0  0  0
   -0.6603    1.4062    1.2235 H   0  0  0  0  0  0  0  0  0  0  0  0
   -0.8423    1.8928   -0.4570 H   0  0  0  0  0  0  0  0  0  0  0  0
    2.3028   -1.6083    0.2706 H   0  0  0  0  0  0  0  0  0  0  0  0
    3.3832   -0.7162    1.3364 H   0  0  0  0  0  0  0  0  0  0  0  0
    4.6088   -2.6066    0.2529 H   0  0  0  0  0  0  0  0  0  0  0  0
    4.0438   -2.0903   -1.3232 H   0  0  0  0  0  0  0  0  0  0  0  0
    7.9787   -0.0939   -1.1118 H   0  0  0  0  0  0  0  0  0  0  0  0
  1  2  1  0
  2  3  1  0
  3  4  2  0
  4  5  1  0
  5  6  2  0
  6  7  1  0
  7  8  1  0
  8  9  1  0
  9 10  1  0
 10 11  1  0
 11 12  1  0
 12 13  2  0
 12 14  1  0
 14 15  1  0
 15 16  1  0
 16 17  1  0
 17 18  1  0
 18 19  1  0
 19 20  2  0
 20 21  1  0
 21 22  2  0
 22 23  1  0
 23 24  2  0
 24 25  1  0
 25 26  2  0
 26 27  1  0
 27 28  1  0
 28 29  1  0
 29 30  1  0
 30 31  1  0
 31 32  1  0
 18 33  1  0
 11 34  1  0
 34 35  1  0
  7 36  2  0
 36  3  1  0
 35  8  1  0
 33 14  1  0
 24 19  1  0
 32 26  1  0
 27 23  1  0
  1 37  1  0
  1 38  1  0
  1 39  1  0
  4 40  1  0
  5 41  1  0
  6 42  1  0
  9 43  1  0
  9 44  1  0
 10 45  1  0
 10 46  1  0
 14 47  1  0
 15 48  1  0
 15 49  1  0
 16 50  1  0
 16 51  1  0
 17 52  1  0
 17 53  1  0
 21 54  1  0
 28 55  1  0
 28 56  1  0
 29 57  1  0
 29 58  1  0
 30 59  1  0
 30 60  1  0
 31 61  1  0
 31 62  1  0
 32 63  1  0
 32 64  1  0
 33 65  1  0
 33 66  1  0
 34 67  1  0
 34 68  1  0
 35 69  1  0
 35 70  1  0
 36 71  1  0
M  END
$$$$
