
     RDKit          3D

 40 42  0  0  0  0  0  0  0  0999 V2000
   -1.5045   -2.4097    0.0714 C   0  0  0  0  0  0  0  0  0  0  0  0
   -2.2772   -1.3685   -0.7376 C   0  0  0  0  0  0  0  0  0  0  0  0
   -3.0214   -0.4277    0.2092 C   0  0  0  0  0  0  0  0  0  0  0  0
   -1.4045   -0.6332   -1.7810 C   0  0  0  0  0  0  0  0  0  0  0  0
   -0.2826    0.1288   -1.2721 N   0  0  0  0  0  0  0  0  0  0  0  0
    1.0152   -0.2955   -1.1257 C   0  0  0  0  0  0  0  0  0  0  0  0
    1.6233   -1.8326   -1.6289 S   0  0  0  0  0  0  0  0  0  0  0  0
    3.0153   -2.0334   -0.4737 C   0  0  0  0  0  0  0  0  0  0  0  0
    2.5107   -2.3171    0.9351 C   0  0  0  0  0  0  0  0  0  0  0  0
    1.8111   -3.3173    1.1292 O   0  0  0  0  0  0  0  0  0  0  0  0
    2.9024   -1.4071    2.0115 C   0  0  0  0  0  0  0  0  0  0  0  0
    3.5675   -0.1912    1.9791 C   0  0  0  0  0  0  0  0  0  0  0  0
    3.7447    0.3774    3.2786 C   0  0  0  0  0  0  0  0  0  0  0  0
    3.2077   -0.4276    4.2461 C   0  0  0  0  0  0  0  0  0  0  0  0
    3.1958   -0.1292    5.9366 Cl  0  0  0  0  0  0  0  0  0  0  0  0
    2.5023   -1.8336    3.6346 S   0  0  0  0  0  0  0  0  0  0  0  0
    1.7386    0.6442   -0.5675 N   0  0  0  0  0  0  0  0  0  0  0  0
    0.9335    1.7364   -0.3945 N   0  0  0  0  0  0  0  0  0  0  0  0
   -0.2644    1.4493   -0.8721 C   0  0  0  0  0  0  0  0  0  0  0  0
   -1.3234    2.4107   -0.9410 C   0  0  0  0  0  0  0  0  0  0  0  0
   -1.3541    3.6738   -0.3682 C   0  0  0  0  0  0  0  0  0  0  0  0
   -2.5892    4.2699   -0.7156 C   0  0  0  0  0  0  0  0  0  0  0  0
   -3.2481    3.3450   -1.4855 C   0  0  0  0  0  0  0  0  0  0  0  0
   -2.4952    2.2260   -1.6301 O   0  0  0  0  0  0  0  0  0  0  0  0
   -2.1823   -2.9712    0.7238 H   0  0  0  0  0  0  0  0  0  0  0  0
   -0.7478   -1.9447    0.7106 H   0  0  0  0  0  0  0  0  0  0  0  0
   -1.0150   -3.1330   -0.5876 H   0  0  0  0  0  0  0  0  0  0  0  0
   -3.0430   -1.9137   -1.3062 H   0  0  0  0  0  0  0  0  0  0  0  0
   -3.6813   -0.9960    0.8744 H   0  0  0  0  0  0  0  0  0  0  0  0
   -2.3342    0.1445    0.8394 H   0  0  0  0  0  0  0  0  0  0  0  0
   -3.6523    0.2690   -0.3496 H   0  0  0  0  0  0  0  0  0  0  0  0
   -2.0255    0.0350   -2.3842 H   0  0  0  0  0  0  0  0  0  0  0  0
   -1.0149   -1.3639   -2.4992 H   0  0  0  0  0  0  0  0  0  0  0  0
    3.6863   -1.1751   -0.5304 H   0  0  0  0  0  0  0  0  0  0  0  0
    3.5997   -2.9050   -0.7883 H   0  0  0  0  0  0  0  0  0  0  0  0
    3.9004    0.3042    1.0746 H   0  0  0  0  0  0  0  0  0  0  0  0
    4.2291    1.3253    3.4769 H   0  0  0  0  0  0  0  0  0  0  0  0
   -0.5631    4.1050    0.2320 H   0  0  0  0  0  0  0  0  0  0  0  0
   -2.9506    5.2509   -0.4407 H   0  0  0  0  0  0  0  0  0  0  0  0
   -4.2088    3.3307   -1.9813 H   0  0  0  0  0  0  0  0  0  0  0  0
  1  2  1  0
  2  3  1  0
  2  4  1  0
  4  5  1  0
  5  6  1  0
  6  7  1  0
  7  8  1  0
  8  9  1  0
  9 10  2  0
  9 11  1  0
 11 12  2  0
 12 13  1  0
 13 14  2  0
 14 15  1  0
 14 16  1  0
  6 17  2  0
 17 18  1  0
 18 19  2  0
 19 20  1  0
 20 21  2  0
 21 22  1  0
 22 23  2  0
 23 24  1  0
 19  5  1  0
 24 20  1  0
 16 11  1  0
  1 25  1  0
  1 26  1  0
  1 27  1  0
  2 28  1  0
  3 29  1  0
  3 30  1  0
  3 31  1  0
  4 32  1  0
  4 33  1  0
  8 34  1  0
  8 35  1  0
 12 36  1  0
 13 37  1  0
 21 38  1  0
 22 39  1  0
 23 40  1  0
M  END
$$$$
