
     RDKit          3D

 55 57  0  0  0  0  0  0  0  0999 V2000
    1.1103   -1.5111    1.5506 C   0  0  0  0  0  0  0  0  0  0  0  0
    1.7715   -1.0792    0.2461 C   0  0  0  0  0  0  0  0  0  0  0  0
    0.8729   -1.2358   -0.9924 C   0  0  0  0  0  0  0  0  0  0  0  0
    1.2957   -1.8672   -1.9620 O   0  0  0  0  0  0  0  0  0  0  0  0
   -0.3643   -0.6222   -0.9195 N   0  0  0  0  0  0  0  0  0  0  0  0
   -1.4040   -0.6314   -1.8894 C   0  0  0  0  0  0  0  0  0  0  0  0
   -1.3071   -1.3383   -3.0944 C   0  0  0  0  0  0  0  0  0  0  0  0
   -2.3353   -1.2965   -4.0456 C   0  0  0  0  0  0  0  0  0  0  0  0
   -3.4823   -0.5449   -3.8138 C   0  0  0  0  0  0  0  0  0  0  0  0
   -3.6114    0.1549   -2.6192 C   0  0  0  0  0  0  0  0  0  0  0  0
   -2.5916    0.0957   -1.6554 C   0  0  0  0  0  0  0  0  0  0  0  0
   -2.8385    0.8460   -0.4028 C   0  0  0  0  0  0  0  0  0  0  0  0
   -3.1025    2.0425   -0.4879 O   0  0  0  0  0  0  0  0  0  0  0  0
   -2.7569    0.1550    0.8055 N   0  0  0  0  0  0  0  0  0  0  0  0
   -3.1389   -1.2556    0.9465 C   0  0  0  0  0  0  0  0  0  0  0  0
   -4.5799   -1.3498    1.4709 C   0  0  0  0  0  0  0  0  0  0  0  0
   -4.7336   -0.6217    2.7018 O   0  0  0  0  0  0  0  0  0  0  0  0
   -4.3954    0.7683    2.5248 C   0  0  0  0  0  0  0  0  0  0  0  0
   -2.9489    0.9156    2.0412 C   0  0  0  0  0  0  0  0  0  0  0  0
    2.3719    0.2953    0.2666 N   0  0  0  0  0  0  0  0  0  0  0  0
    3.8068    0.3310    0.2119 C   0  0  0  0  0  0  0  0  0  0  0  0
    4.4069    0.3412   -1.0509 C   0  0  0  0  0  0  0  0  0  0  0  0
    5.7984    0.3139   -1.1670 C   0  0  0  0  0  0  0  0  0  0  0  0
    6.5860    0.2537   -0.0190 C   0  0  0  0  0  0  0  0  0  0  0  0
    8.2995    0.2199   -0.1592 Cl  0  0  0  0  0  0  0  0  0  0  0  0
    5.9929    0.2090    1.2418 C   0  0  0  0  0  0  0  0  0  0  0  0
    4.6003    0.2342    1.3572 C   0  0  0  0  0  0  0  0  0  0  0  0
    1.5842    1.5287    1.1125 S   0  0  0  0  0  6  0  0  0  0  0  0
    2.1277    2.9949    0.2563 C   0  0  0  0  0  0  0  0  0  0  0  0
    2.0725    1.5641    2.4738 O   0  0  0  0  0  0  0  0  0  0  0  0
    0.1672    1.3756    0.8538 O   0  0  0  0  0  0  0  0  0  0  0  0
    1.8051   -1.4141    2.3909 H   0  0  0  0  0  0  0  0  0  0  0  0
    0.2087   -0.9447    1.7947 H   0  0  0  0  0  0  0  0  0  0  0  0
    0.8060   -2.5616    1.4857 H   0  0  0  0  0  0  0  0  0  0  0  0
    2.5856   -1.8042    0.0925 H   0  0  0  0  0  0  0  0  0  0  0  0
   -0.5170   -0.0004   -0.1177 H   0  0  0  0  0  0  0  0  0  0  0  0
   -0.4343   -1.9336   -3.3424 H   0  0  0  0  0  0  0  0  0  0  0  0
   -2.2264   -1.8484   -4.9769 H   0  0  0  0  0  0  0  0  0  0  0  0
   -4.2704   -0.5033   -4.5612 H   0  0  0  0  0  0  0  0  0  0  0  0
   -4.5049    0.7472   -2.4321 H   0  0  0  0  0  0  0  0  0  0  0  0
   -3.0555   -1.8025    0.0056 H   0  0  0  0  0  0  0  0  0  0  0  0
   -2.4463   -1.7001    1.6702 H   0  0  0  0  0  0  0  0  0  0  0  0
   -5.2940   -0.9574    0.7372 H   0  0  0  0  0  0  0  0  0  0  0  0
   -4.8384   -2.3947    1.6680 H   0  0  0  0  0  0  0  0  0  0  0  0
   -4.5213    1.2657    3.4912 H   0  0  0  0  0  0  0  0  0  0  0  0
   -5.1022    1.2166    1.8168 H   0  0  0  0  0  0  0  0  0  0  0  0
   -2.2615    0.4915    2.7827 H   0  0  0  0  0  0  0  0  0  0  0  0
   -2.6918    1.9700    1.9002 H   0  0  0  0  0  0  0  0  0  0  0  0
    3.7945    0.3666   -1.9499 H   0  0  0  0  0  0  0  0  0  0  0  0
    6.2581    0.3302   -2.1518 H   0  0  0  0  0  0  0  0  0  0  0  0
    6.6060    0.1464    2.1375 H   0  0  0  0  0  0  0  0  0  0  0  0
    4.1529    0.1734    2.3461 H   0  0  0  0  0  0  0  0  0  0  0  0
    1.8906    2.8933   -0.8043 H   0  0  0  0  0  0  0  0  0  0  0  0
    3.1982    3.1332    0.4131 H   0  0  0  0  0  0  0  0  0  0  0  0
    1.5841    3.8448    0.6753 H   0  0  0  0  0  0  0  0  0  0  0  0
  1  2  1  0
  2  3  1  0
  3  4  2  0
  3  5  1  0
  5  6  1  0
  6  7  2  0
  7  8  1  0
  8  9  2  0
  9 10  1  0
 10 11  2  0
 11 12  1  0
 12 13  2  0
 12 14  1  0
 14 15  1  0
 15 16  1  0
 16 17  1  0
 17 18  1  0
 18 19  1  0
  2 20  1  0
 20 21  1  0
 21 22  2  0
 22 23  1  0
 23 24  2  0
 24 25  1  0
 24 26  1  0
 26 27  2  0
 20 28  1  0
 28 29  1  0
 28 30  2  0
 28 31  2  0
 11  6  1  0
 19 14  1  0
 27 21  1  0
  1 32  1  0
  1 33  1  0
  1 34  1  0
  2 35  1  0
  5 36  1  0
  7 37  1  0
  8 38  1  0
  9 39  1  0
 10 40  1  0
 15 41  1  0
 15 42  1  0
 16 43  1  0
 16 44  1  0
 18 45  1  0
 18 46  1  0
 19 47  1  0
 19 48  1  0
 22 49  1  0
 23 50  1  0
 26 51  1  0
 27 52  1  0
 29 53  1  0
 29 54  1  0
 29 55  1  0
M  END
$$$$
