
     RDKit          3D

 55 58  0  0  0  0  0  0  0  0999 V2000
    5.6074   -4.7572    0.6457 N   0  0  0  0  0  0  0  0  0  0  0  0
    4.2551   -4.9650    0.5780 C   0  0  0  0  0  0  0  0  0  0  0  0
    3.7899   -6.1003    0.6260 O   0  0  0  0  0  0  0  0  0  0  0  0
    3.4476   -3.7421    0.4321 C   0  0  0  0  0  0  0  0  0  0  0  0
    4.0677   -2.5541    0.3238 N   0  0  0  0  0  0  0  0  0  0  0  0
    2.9311   -1.3640    0.1337 S   0  0  0  0  0  0  0  0  0  0  0  0
    1.5638   -2.3817    0.2476 C   0  0  0  0  0  0  0  0  0  0  0  0
    0.2146   -1.8670    0.1073 C   0  0  0  0  0  0  0  0  0  0  0  0
   -0.5959   -2.4333   -0.6301 O   0  0  0  0  0  0  0  0  0  0  0  0
   -0.1567   -0.6953    0.7940 N   0  0  0  0  0  0  0  0  0  0  0  0
    0.3790   -0.3209    2.0758 C   0  0  0  0  0  0  0  0  0  0  0  0
    0.7487   -1.3093    3.0036 C   0  0  0  0  0  0  0  0  0  0  0  0
    1.2544   -0.9705    4.2619 C   0  0  0  0  0  0  0  0  0  0  0  0
    1.3936    0.3643    4.6202 C   0  0  0  0  0  0  0  0  0  0  0  0
    1.0191    1.3559    3.7233 C   0  0  0  0  0  0  0  0  0  0  0  0
    0.5090    1.0166    2.4659 C   0  0  0  0  0  0  0  0  0  0  0  0
   -1.1793    0.1338    0.1278 C   0  0  0  0  0  0  0  0  0  0  0  0
   -0.5461    1.3316   -0.6243 C   0  0  0  0  0  0  0  0  0  0  0  0
    0.6450    1.3452   -0.9450 O   0  0  0  0  0  0  0  0  0  0  0  0
   -1.4032    2.3391   -1.0167 N   0  0  0  0  0  0  0  0  0  0  0  0
   -0.9500    3.4929   -1.7525 C   0  0  0  0  0  0  0  0  0  0  0  0
   -1.1944    3.3133   -3.2282 C   0  0  0  0  0  0  0  0  0  0  0  0
   -0.1603    2.8551   -4.0616 C   0  0  0  0  0  0  0  0  0  0  0  0
   -0.3819    2.6673   -5.4260 C   0  0  0  0  0  0  0  0  0  0  0  0
   -1.6412    2.9267   -5.9552 C   0  0  0  0  0  0  0  0  0  0  0  0
   -1.8575    2.7403   -7.2640 F   0  0  0  0  0  0  0  0  0  0  0  0
   -2.6822    3.3659   -5.1452 C   0  0  0  0  0  0  0  0  0  0  0  0
   -2.4612    3.5577   -3.7809 C   0  0  0  0  0  0  0  0  0  0  0  0
   -2.3189    0.4576    1.0513 C   0  0  0  0  0  0  0  0  0  0  0  0
   -3.2982   -0.3383    1.6146 C   0  0  0  0  0  0  0  0  0  0  0  0
   -4.1128    0.5149    2.3963 C   0  0  0  0  0  0  0  0  0  0  0  0
   -3.5823    1.7766    2.2631 C   0  0  0  0  0  0  0  0  0  0  0  0
   -2.5018    1.7546    1.4455 O   0  0  0  0  0  0  0  0  0  0  0  0
    2.0037   -3.6864    0.3740 C   0  0  0  0  0  0  0  0  0  0  0  0
    1.1728   -4.7557    0.4675 N   0  0  0  0  0  0  0  0  0  0  0  0
    5.9618   -3.8140    0.5358 H   0  0  0  0  0  0  0  0  0  0  0  0
    6.2312   -5.5468    0.6637 H   0  0  0  0  0  0  0  0  0  0  0  0
    0.6142   -2.3635    2.7865 H   0  0  0  0  0  0  0  0  0  0  0  0
    1.5301   -1.7531    4.9637 H   0  0  0  0  0  0  0  0  0  0  0  0
    1.7855    0.6312    5.5979 H   0  0  0  0  0  0  0  0  0  0  0  0
    1.1225    2.4033    3.9997 H   0  0  0  0  0  0  0  0  0  0  0  0
    0.2519    1.8360    1.8010 H   0  0  0  0  0  0  0  0  0  0  0  0
   -1.6339   -0.4428   -0.6888 H   0  0  0  0  0  0  0  0  0  0  0  0
   -2.3231    2.3827   -0.5959 H   0  0  0  0  0  0  0  0  0  0  0  0
   -1.5005    4.3610   -1.3835 H   0  0  0  0  0  0  0  0  0  0  0  0
    0.1119    3.6766   -1.5539 H   0  0  0  0  0  0  0  0  0  0  0  0
    0.8212    2.6292   -3.6437 H   0  0  0  0  0  0  0  0  0  0  0  0
    0.4159    2.3110   -6.0739 H   0  0  0  0  0  0  0  0  0  0  0  0
   -3.6594    3.5496   -5.5808 H   0  0  0  0  0  0  0  0  0  0  0  0
   -3.2819    3.8920   -3.1506 H   0  0  0  0  0  0  0  0  0  0  0  0
   -3.4013   -1.4079    1.4775 H   0  0  0  0  0  0  0  0  0  0  0  0
   -4.9762    0.2448    2.9878 H   0  0  0  0  0  0  0  0  0  0  0  0
   -3.8466    2.7450    2.6648 H   0  0  0  0  0  0  0  0  0  0  0  0
    1.5661   -5.7004    0.3984 H   0  0  0  0  0  0  0  0  0  0  0  0
    0.2321   -4.7024    0.0735 H   0  0  0  0  0  0  0  0  0  0  0  0
  1  2  1  0
  2  3  2  0
  2  4  1  0
  4  5  2  0
  5  6  1  0
  6  7  1  0
  7  8  1  0
  8  9  2  0
  8 10  1  0
 10 11  1  0
 11 12  2  0
 12 13  1  0
 13 14  2  0
 14 15  1  0
 15 16  2  0
 10 17  1  0
 17 18  1  0
 18 19  2  0
 18 20  1  0
 20 21  1  0
 21 22  1  0
 22 23  2  0
 23 24  1  0
 24 25  2  0
 25 26  1  0
 25 27  1  0
 27 28  2  0
 17 29  1  0
 29 30  2  0
 30 31  1  0
 31 32  2  0
 32 33  1  0
  7 34  2  0
 34 35  1  0
 34  4  1  0
 16 11  1  0
 28 22  1  0
 33 29  1  0
  1 36  1  0
  1 37  1  0
 12 38  1  0
 13 39  1  0
 14 40  1  0
 15 41  1  0
 16 42  1  0
 17 43  1  0
 20 44  1  0
 21 45  1  0
 21 46  1  0
 23 47  1  0
 24 48  1  0
 27 49  1  0
 28 50  1  0
 30 51  1  0
 31 52  1  0
 32 53  1  0
 35 54  1  0
 35 55  1  0
M  END
$$$$
