
     RDKit          3D

 51 54  0  0  0  0  0  0  0  0999 V2000
    0.8070    2.2135    4.6115 C   0  0  0  0  0  0  0  0  0  0  0  0
   -0.6469    2.2703    4.1762 C   0  0  0  0  0  0  0  0  0  0  0  0
   -0.7903    3.0603    2.9987 O   0  0  0  0  0  0  0  0  0  0  0  0
   -0.7382    2.4573    1.7677 C   0  0  0  0  0  0  0  0  0  0  0  0
   -0.3365    1.1349    1.5451 C   0  0  0  0  0  0  0  0  0  0  0  0
   -0.3086    0.5890    0.2487 C   0  0  0  0  0  0  0  0  0  0  0  0
    0.0804   -0.8801    0.0627 C   0  0  0  0  0  0  0  0  0  0  0  0
   -1.1912   -1.7388   -0.0509 C   0  0  0  0  0  0  0  0  0  0  0  0
   -1.5577   -2.3539    1.2939 C   0  0  0  0  0  0  0  0  0  0  0  0
   -1.0554   -1.9846    2.3537 O   0  0  0  0  0  0  0  0  0  0  0  0
   -2.6706   -3.3824    1.2878 C   0  0  0  0  0  0  0  0  0  0  0  0
   -2.4036   -4.4449    0.2306 C   0  0  0  0  0  0  0  0  0  0  0  0
   -2.2504   -3.8203   -1.1485 C   0  0  0  0  0  0  0  0  0  0  0  0
   -1.1131   -2.8177   -1.1163 C   0  0  0  0  0  0  0  0  0  0  0  0
   -0.1967   -2.9221   -2.0232 N   0  0  0  0  0  0  0  0  0  0  0  0
    0.8203   -2.0349   -2.0225 C   0  0  0  0  0  0  0  0  0  0  0  0
    1.8254   -1.9366   -2.8613 N   0  0  0  0  0  0  0  0  0  0  0  0
    2.6137   -0.9144   -2.3548 C   0  0  0  0  0  0  0  0  0  0  0  0
    3.8740   -0.4700   -2.9817 C   0  0  0  0  0  0  0  0  0  0  0  0
    4.5838    0.4344   -2.5482 O   0  0  0  0  0  0  0  0  0  0  0  0
    4.1702   -1.1824   -4.1150 O   0  0  0  0  0  0  0  0  0  0  0  0
    5.3832   -0.7872   -4.7522 C   0  0  0  0  0  0  0  0  0  0  0  0
    2.1149   -0.3751   -1.2243 N   0  0  0  0  0  0  0  0  0  0  0  0
    0.9719   -1.0658   -1.0721 N   0  0  0  0  0  0  0  0  0  0  0  0
   -0.6993    1.3984   -0.8279 C   0  0  0  0  0  0  0  0  0  0  0  0
   -1.0847    2.7249   -0.6178 C   0  0  0  0  0  0  0  0  0  0  0  0
   -1.1000    3.2639    0.6719 C   0  0  0  0  0  0  0  0  0  0  0  0
   -1.4821    4.5506    0.9633 O   0  0  0  0  0  0  0  0  0  0  0  0
   -1.5360    5.4714   -0.1171 C   0  0  0  0  0  0  0  0  0  0  0  0
    0.9076    1.6633    5.5514 H   0  0  0  0  0  0  0  0  0  0  0  0
    1.2039    3.2245    4.7519 H   0  0  0  0  0  0  0  0  0  0  0  0
    1.4339    1.7306    3.8561 H   0  0  0  0  0  0  0  0  0  0  0  0
   -1.2209    2.7775    4.9601 H   0  0  0  0  0  0  0  0  0  0  0  0
   -1.0950    1.2754    4.0766 H   0  0  0  0  0  0  0  0  0  0  0  0
   -0.0297    0.5039    2.3745 H   0  0  0  0  0  0  0  0  0  0  0  0
    0.6978   -1.1908    0.9165 H   0  0  0  0  0  0  0  0  0  0  0  0
   -2.0533   -1.1173   -0.3335 H   0  0  0  0  0  0  0  0  0  0  0  0
   -2.7274   -3.8504    2.2764 H   0  0  0  0  0  0  0  0  0  0  0  0
   -3.6173   -2.8644    1.1006 H   0  0  0  0  0  0  0  0  0  0  0  0
   -1.4882   -4.9931    0.4874 H   0  0  0  0  0  0  0  0  0  0  0  0
   -3.2264   -5.1680    0.2194 H   0  0  0  0  0  0  0  0  0  0  0  0
   -2.0455   -4.5958   -1.8942 H   0  0  0  0  0  0  0  0  0  0  0  0
   -3.1651   -3.2956   -1.4456 H   0  0  0  0  0  0  0  0  0  0  0  0
    6.2368   -0.9464   -4.0858 H   0  0  0  0  0  0  0  0  0  0  0  0
    5.3280    0.2587   -5.0701 H   0  0  0  0  0  0  0  0  0  0  0  0
    5.5181   -1.4107   -5.6404 H   0  0  0  0  0  0  0  0  0  0  0  0
   -0.6964    1.0170   -1.8474 H   0  0  0  0  0  0  0  0  0  0  0  0
   -1.3739    3.3128   -1.4827 H   0  0  0  0  0  0  0  0  0  0  0  0
   -1.6957    6.4696    0.3019 H   0  0  0  0  0  0  0  0  0  0  0  0
   -0.5936    5.4915   -0.6748 H   0  0  0  0  0  0  0  0  0  0  0  0
   -2.3814    5.2498   -0.7764 H   0  0  0  0  0  0  0  0  0  0  0  0
  1  2  1  0
  2  3  1  0
  3  4  1  0
  4  5  2  0
  5  6  1  0
  6  7  1  0
  7  8  1  0
  8  9  1  0
  9 10  2  0
  9 11  1  0
 11 12  1  0
 12 13  1  0
 13 14  1  0
 14 15  2  0
 15 16  1  0
 16 17  2  0
 17 18  1  0
 18 19  1  0
 19 20  2  0
 19 21  1  0
 21 22  1  0
 18 23  2  0
 23 24  1  0
  6 25  2  0
 25 26  1  0
 26 27  2  0
 27 28  1  0
 28 29  1  0
 27  4  1  0
 24  7  1  0
 14  8  1  0
 24 16  1  0
  1 30  1  0
  1 31  1  0
  1 32  1  0
  2 33  1  0
  2 34  1  0
  5 35  1  0
  7 36  1  0
  8 37  1  0
 11 38  1  0
 11 39  1  0
 12 40  1  0
 12 41  1  0
 13 42  1  0
 13 43  1  0
 22 44  1  0
 22 45  1  0
 22 46  1  0
 25 47  1  0
 26 48  1  0
 29 49  1  0
 29 50  1  0
 29 51  1  0
M  END
$$$$
