
     RDKit          3D

 54 57  0  0  0  0  0  0  0  0999 V2000
   -3.6059   -5.0302   -1.4094 C   0  0  0  0  0  0  0  0  0  0  0  0
   -4.1445   -4.3676   -0.2725 O   0  0  0  0  0  0  0  0  0  0  0  0
   -3.9027   -3.0257   -0.1679 C   0  0  0  0  0  0  0  0  0  0  0  0
   -3.1843   -2.2474   -1.0749 C   0  0  0  0  0  0  0  0  0  0  0  0
   -3.0106   -0.8772   -0.8435 C   0  0  0  0  0  0  0  0  0  0  0  0
   -3.5516   -0.2676    0.2957 C   0  0  0  0  0  0  0  0  0  0  0  0
   -3.3479    1.1663    0.5388 C   0  0  0  0  0  0  0  0  0  0  0  0
   -4.7214    2.1871    0.5737 S   0  0  0  0  0  0  0  0  0  0  0  0
   -3.7830    3.5970    0.8534 C   0  0  0  0  0  0  0  0  0  0  0  0
   -4.2638    4.9131    1.0072 C   0  0  0  0  0  0  0  0  0  0  0  0
   -3.3535    5.9462    1.2374 C   0  0  0  0  0  0  0  0  0  0  0  0
   -1.9948    5.6810    1.3160 C   0  0  0  0  0  0  0  0  0  0  0  0
   -1.5232    4.3741    1.1616 C   0  0  0  0  0  0  0  0  0  0  0  0
   -2.4206    3.3002    0.9199 C   0  0  0  0  0  0  0  0  0  0  0  0
   -2.1768    1.8857    0.7279 C   0  0  0  0  0  0  0  0  0  0  0  0
   -0.8664    1.2413    0.7294 C   0  0  0  0  0  0  0  0  0  0  0  0
   -0.5111    0.3507    1.7459 C   0  0  0  0  0  0  0  0  0  0  0  0
    0.7474   -0.2559    1.7343 C   0  0  0  0  0  0  0  0  0  0  0  0
    1.6638    0.0198    0.7161 C   0  0  0  0  0  0  0  0  0  0  0  0
    2.8557   -0.6410    0.8277 O   0  0  0  0  0  0  0  0  0  0  0  0
    3.8253   -0.4146   -0.2010 C   0  0  0  0  0  0  0  0  0  0  0  0
    5.0760   -1.2438    0.1344 C   0  0  0  0  0  0  0  0  0  0  0  0
    6.2037   -1.0396   -0.7959 N   0  0  0  0  0  0  0  0  0  0  0  0
    5.9254   -1.6012   -2.1195 C   0  0  0  0  0  0  0  0  0  0  0  0
    7.4169   -1.6528   -0.2469 C   0  0  0  0  0  0  0  0  0  0  0  0
    1.3116    0.9132   -0.2960 C   0  0  0  0  0  0  0  0  0  0  0  0
    0.0515    1.5224   -0.2889 C   0  0  0  0  0  0  0  0  0  0  0  0
   -4.2711   -1.0548    1.2025 C   0  0  0  0  0  0  0  0  0  0  0  0
   -4.4442   -2.4220    0.9690 C   0  0  0  0  0  0  0  0  0  0  0  0
   -3.8825   -6.0868   -1.3426 H   0  0  0  0  0  0  0  0  0  0  0  0
   -2.5124   -4.9724   -1.4190 H   0  0  0  0  0  0  0  0  0  0  0  0
   -4.0318   -4.6327   -2.3366 H   0  0  0  0  0  0  0  0  0  0  0  0
   -2.7441   -2.6708   -1.9711 H   0  0  0  0  0  0  0  0  0  0  0  0
   -2.4472   -0.2875   -1.5633 H   0  0  0  0  0  0  0  0  0  0  0  0
   -5.3284    5.1222    0.9502 H   0  0  0  0  0  0  0  0  0  0  0  0
   -3.7155    6.9644    1.3590 H   0  0  0  0  0  0  0  0  0  0  0  0
   -1.2917    6.4893    1.5010 H   0  0  0  0  0  0  0  0  0  0  0  0
   -0.4551    4.1817    1.2336 H   0  0  0  0  0  0  0  0  0  0  0  0
   -1.2060    0.1214    2.5500 H   0  0  0  0  0  0  0  0  0  0  0  0
    1.0149   -0.9503    2.5271 H   0  0  0  0  0  0  0  0  0  0  0  0
    3.4103   -0.7296   -1.1646 H   0  0  0  0  0  0  0  0  0  0  0  0
    4.0949    0.6481   -0.2338 H   0  0  0  0  0  0  0  0  0  0  0  0
    5.3854   -0.9545    1.1482 H   0  0  0  0  0  0  0  0  0  0  0  0
    4.8055   -2.3064    0.2031 H   0  0  0  0  0  0  0  0  0  0  0  0
    5.0888   -1.0852   -2.6006 H   0  0  0  0  0  0  0  0  0  0  0  0
    5.6956   -2.6719   -2.0750 H   0  0  0  0  0  0  0  0  0  0  0  0
    6.7865   -1.4635   -2.7837 H   0  0  0  0  0  0  0  0  0  0  0  0
    7.3068   -2.7343   -0.1069 H   0  0  0  0  0  0  0  0  0  0  0  0
    7.6733   -1.2030    0.7189 H   0  0  0  0  0  0  0  0  0  0  0  0
    8.2720   -1.4750   -0.9088 H   0  0  0  0  0  0  0  0  0  0  0  0
    1.9914    1.1604   -1.1046 H   0  0  0  0  0  0  0  0  0  0  0  0
   -0.2093    2.2149   -1.0863 H   0  0  0  0  0  0  0  0  0  0  0  0
   -4.6969   -0.6136    2.1006 H   0  0  0  0  0  0  0  0  0  0  0  0
   -5.0048   -3.0219    1.6817 H   0  0  0  0  0  0  0  0  0  0  0  0
  1  2  1  0
  2  3  1  0
  3  4  2  0
  4  5  1  0
  5  6  2  0
  6  7  1  0
  7  8  1  0
  8  9  1  0
  9 10  2  0
 10 11  1  0
 11 12  2  0
 12 13  1  0
 13 14  2  0
 14 15  1  0
 15 16  1  0
 16 17  2  0
 17 18  1  0
 18 19  2  0
 19 20  1  0
 20 21  1  0
 21 22  1  0
 22 23  1  0
 23 24  1  0
 23 25  1  0
 19 26  1  0
 26 27  2  0
  6 28  1  0
 28 29  2  0
 29  3  1  0
 15  7  2  0
 27 16  1  0
 14  9  1  0
  1 30  1  0
  1 31  1  0
  1 32  1  0
  4 33  1  0
  5 34  1  0
 10 35  1  0
 11 36  1  0
 12 37  1  0
 13 38  1  0
 17 39  1  0
 18 40  1  0
 21 41  1  0
 21 42  1  0
 22 43  1  0
 22 44  1  0
 24 45  1  0
 24 46  1  0
 24 47  1  0
 25 48  1  0
 25 49  1  0
 25 50  1  0
 26 51  1  0
 27 52  1  0
 28 53  1  0
 29 54  1  0
M  END
$$$$
