
     RDKit          3D

 61 65  0  0  0  0  0  0  0  0999 V2000
  -10.2839   -0.6527   -1.8629 C   0  0  0  0  0  0  0  0  0  0  0  0
   -9.8966   -0.6250   -0.4960 O   0  0  0  0  0  0  0  0  0  0  0  0
   -8.5779   -0.3737   -0.2386 C   0  0  0  0  0  0  0  0  0  0  0  0
   -8.1938   -0.5424    1.0897 C   0  0  0  0  0  0  0  0  0  0  0  0
   -6.8690   -0.3269    1.4870 C   0  0  0  0  0  0  0  0  0  0  0  0
   -5.8972    0.0695    0.5589 C   0  0  0  0  0  0  0  0  0  0  0  0
   -4.5295    0.2665    0.9635 N   0  0  0  0  0  0  0  0  0  0  0  0
   -4.0746    0.5334    2.2667 C   0  0  0  0  0  0  0  0  0  0  0  0
   -4.8966    0.7452    3.2946 O   0  0  0  0  0  0  0  0  0  0  0  0
   -2.6970    0.5771    2.2585 C   0  0  0  0  0  0  0  0  0  0  0  0
   -2.2753    0.3620    0.9393 C   0  0  0  0  0  0  0  0  0  0  0  0
   -0.9699    0.3089    0.5635 N   0  0  0  0  0  0  0  0  0  0  0  0
   -0.4737   -0.8879   -0.1535 C   0  0  0  0  0  0  0  0  0  0  0  0
    1.0664   -0.9852   -0.0663 C   0  0  0  0  0  0  0  0  0  0  0  0
    1.7017    0.2727   -0.5444 N   0  0  0  0  0  0  0  0  0  0  0  0
    3.0826    0.1528   -0.7530 C   0  0  0  0  0  0  0  0  0  0  0  0
    4.0440    0.8777   -0.0343 C   0  0  0  0  0  0  0  0  0  0  0  0
    5.4151    0.7278   -0.2864 C   0  0  0  0  0  0  0  0  0  0  0  0
    5.8524   -0.1600   -1.2712 C   0  0  0  0  0  0  0  0  0  0  0  0
    7.2920   -0.3392   -1.5844 C   0  0  0  0  0  0  0  0  0  0  0  0
    7.6364   -0.5478   -2.7450 O   0  0  0  0  0  0  0  0  0  0  0  0
    8.3266   -0.2829   -0.5309 C   0  0  0  0  0  0  0  0  0  0  0  0
    8.1205   -0.7727    0.7608 C   0  0  0  0  0  0  0  0  0  0  0  0
    9.1591   -0.7012    1.6891 C   0  0  0  0  0  0  0  0  0  0  0  0
   10.3659   -0.1461    1.2886 C   0  0  0  0  0  0  0  0  0  0  0  0
   10.5990    0.3250    0.0440 N   0  0  0  0  0  0  0  0  0  0  0  0
    9.5779    0.2325   -0.8451 C   0  0  0  0  0  0  0  0  0  0  0  0
    4.9133   -0.8655   -2.0222 C   0  0  0  0  0  0  0  0  0  0  0  0
    3.5487   -0.7109   -1.7587 C   0  0  0  0  0  0  0  0  0  0  0  0
    1.2040    1.4580    0.1952 C   0  0  0  0  0  0  0  0  0  0  0  0
   -0.3354    1.5603    0.0992 C   0  0  0  0  0  0  0  0  0  0  0  0
   -3.3929    0.2264    0.1395 C   0  0  0  0  0  0  0  0  0  0  0  0
   -3.4517    0.0479   -1.1823 O   0  0  0  0  0  0  0  0  0  0  0  0
   -6.2958    0.2490   -0.7724 C   0  0  0  0  0  0  0  0  0  0  0  0
   -7.6241    0.0317   -1.1672 C   0  0  0  0  0  0  0  0  0  0  0  0
  -11.3305   -0.9667   -1.9075 H   0  0  0  0  0  0  0  0  0  0  0  0
  -10.2147    0.3446   -2.3096 H   0  0  0  0  0  0  0  0  0  0  0  0
   -9.6946   -1.3826   -2.4280 H   0  0  0  0  0  0  0  0  0  0  0  0
   -8.9271   -0.8585    1.8270 H   0  0  0  0  0  0  0  0  0  0  0  0
   -6.6275   -0.5183    2.5277 H   0  0  0  0  0  0  0  0  0  0  0  0
   -4.3482    0.9492    4.0749 H   0  0  0  0  0  0  0  0  0  0  0  0
   -2.0619    0.7466    3.1178 H   0  0  0  0  0  0  0  0  0  0  0  0
   -0.9098   -1.7967    0.2779 H   0  0  0  0  0  0  0  0  0  0  0  0
   -0.7621   -0.8425   -1.2106 H   0  0  0  0  0  0  0  0  0  0  0  0
    1.3817   -1.8495   -0.6612 H   0  0  0  0  0  0  0  0  0  0  0  0
    1.3633   -1.1699    0.9738 H   0  0  0  0  0  0  0  0  0  0  0  0
    3.7502    1.5725    0.7468 H   0  0  0  0  0  0  0  0  0  0  0  0
    6.1194    1.3279    0.2834 H   0  0  0  0  0  0  0  0  0  0  0  0
    7.1771   -1.2283    1.0492 H   0  0  0  0  0  0  0  0  0  0  0  0
    9.0341   -1.0787    2.6986 H   0  0  0  0  0  0  0  0  0  0  0  0
   11.2051   -0.0697    1.9754 H   0  0  0  0  0  0  0  0  0  0  0  0
    9.8033    0.6000   -1.8439 H   0  0  0  0  0  0  0  0  0  0  0  0
    5.2352   -1.5300   -2.8211 H   0  0  0  0  0  0  0  0  0  0  0  0
    2.8373   -1.2539   -2.3762 H   0  0  0  0  0  0  0  0  0  0  0  0
    1.4884    1.3865    1.2519 H   0  0  0  0  0  0  0  0  0  0  0  0
    1.6334    2.3756   -0.2217 H   0  0  0  0  0  0  0  0  0  0  0  0
   -0.6694    2.4093    0.7080 H   0  0  0  0  0  0  0  0  0  0  0  0
   -0.6298    1.7564   -0.9385 H   0  0  0  0  0  0  0  0  0  0  0  0
   -2.5432    0.1819   -1.5046 H   0  0  0  0  0  0  0  0  0  0  0  0
   -5.6057    0.5920   -1.5357 H   0  0  0  0  0  0  0  0  0  0  0  0
   -7.8748    0.1984   -2.2091 H   0  0  0  0  0  0  0  0  0  0  0  0
  1  2  1  0
  2  3  1  0
  3  4  2  0
  4  5  1  0
  5  6  2  0
  6  7  1  0
  7  8  1  0
  8  9  1  0
  8 10  2  0
 10 11  1  0
 11 12  1  0
 12 13  1  0
 13 14  1  0
 14 15  1  0
 15 16  1  0
 16 17  2  0
 17 18  1  0
 18 19  2  0
 19 20  1  0
 20 21  2  0
 20 22  1  0
 22 23  2  0
 23 24  1  0
 24 25  2  0
 25 26  1  0
 26 27  2  0
 19 28  1  0
 28 29  2  0
 15 30  1  0
 30 31  1  0
 11 32  2  0
 32 33  1  0
  6 34  1  0
 34 35  2  0
 35  3  1  0
 32  7  1  0
 31 12  1  0
 29 16  1  0
 27 22  1  0
  1 36  1  0
  1 37  1  0
  1 38  1  0
  4 39  1  0
  5 40  1  0
  9 41  1  0
 10 42  1  0
 13 43  1  0
 13 44  1  0
 14 45  1  0
 14 46  1  0
 17 47  1  0
 18 48  1  0
 23 49  1  0
 24 50  1  0
 25 51  1  0
 27 52  1  0
 28 53  1  0
 29 54  1  0
 30 55  1  0
 30 56  1  0
 31 57  1  0
 31 58  1  0
 33 59  1  0
 34 60  1  0
 35 61  1  0
M  END
$$$$
