
     RDKit          3D

 45 47  0  0  0  0  0  0  0  0999 V2000
    1.1808    1.0440   -2.4913 O   0  0  0  0  0  0  0  0  0  0  0  0
    1.1767    1.3437   -1.2972 C   0  0  0  0  0  0  0  0  0  0  0  0
    1.9643    2.5238   -0.7263 C   0  0  0  0  0  0  0  0  0  0  0  0
    2.8619    3.4824   -1.9898 S   0  0  0  0  0  0  0  0  0  0  0  0
    4.3181    2.4668   -2.1424 C   0  0  0  0  0  0  0  0  0  0  0  0
    4.3579    1.4145   -3.0613 C   0  0  0  0  0  0  0  0  0  0  0  0
    5.5015    0.6200   -3.1757 C   0  0  0  0  0  0  0  0  0  0  0  0
    6.6094    0.8849   -2.3727 C   0  0  0  0  0  0  0  0  0  0  0  0
    8.1562   -0.1906   -2.5220 Br  0  0  0  0  0  0  0  0  0  0  0  0
    6.5864    1.9410   -1.4637 C   0  0  0  0  0  0  0  0  0  0  0  0
    5.4410    2.7341   -1.3523 C   0  0  0  0  0  0  0  0  0  0  0  0
    0.4257    0.6093   -0.3797 N   0  0  0  0  0  0  0  0  0  0  0  0
   -0.4032   -0.5027   -0.8578 C   0  0  0  0  0  0  0  0  0  0  0  0
   -1.7623   -0.5417   -0.1498 C   0  0  0  0  0  0  0  0  0  0  0  0
   -1.6361   -0.6284    1.3457 N   0  0  0  0  0  0  0  0  0  0  0  0
   -2.2014   -2.0821    2.0446 S   0  0  0  0  0  6  0  0  0  0  0  0
   -2.0553   -1.9725    3.4798 O   0  0  0  0  0  0  0  0  0  0  0  0
   -1.5902   -3.1665    1.3045 O   0  0  0  0  0  0  0  0  0  0  0  0
   -3.9365   -2.0425    1.6807 C   0  0  0  0  0  0  0  0  0  0  0  0
   -4.5113   -3.0403    0.8890 C   0  0  0  0  0  0  0  0  0  0  0  0
   -5.8769   -2.9886    0.6097 C   0  0  0  0  0  0  0  0  0  0  0  0
   -6.6571   -1.9498    1.1222 C   0  0  0  0  0  0  0  0  0  0  0  0
   -6.0778   -0.9598    1.9186 C   0  0  0  0  0  0  0  0  0  0  0  0
   -4.7134   -1.0038    2.2028 C   0  0  0  0  0  0  0  0  0  0  0  0
   -0.2885   -0.2304    1.8636 C   0  0  0  0  0  0  0  0  0  0  0  0
    0.3138    0.9217    1.0491 C   0  0  0  0  0  0  0  0  0  0  0  0
    1.2569    3.2094   -0.2494 H   0  0  0  0  0  0  0  0  0  0  0  0
    2.6738    2.1674    0.0261 H   0  0  0  0  0  0  0  0  0  0  0  0
    3.4984    1.2043   -3.6959 H   0  0  0  0  0  0  0  0  0  0  0  0
    5.5145   -0.1971   -3.8924 H   0  0  0  0  0  0  0  0  0  0  0  0
    7.4529    2.1608   -0.8463 H   0  0  0  0  0  0  0  0  0  0  0  0
    5.4367    3.5646   -0.6505 H   0  0  0  0  0  0  0  0  0  0  0  0
   -0.5573   -0.4364   -1.9396 H   0  0  0  0  0  0  0  0  0  0  0  0
    0.1564   -1.4251   -0.6609 H   0  0  0  0  0  0  0  0  0  0  0  0
   -2.3513   -1.3709   -0.5526 H   0  0  0  0  0  0  0  0  0  0  0  0
   -2.3217    0.3763   -0.3678 H   0  0  0  0  0  0  0  0  0  0  0  0
   -3.9103   -3.8553    0.4919 H   0  0  0  0  0  0  0  0  0  0  0  0
   -6.3362   -3.7602   -0.0039 H   0  0  0  0  0  0  0  0  0  0  0  0
   -7.7224   -1.9151    0.9048 H   0  0  0  0  0  0  0  0  0  0  0  0
   -6.6922   -0.1578    2.3206 H   0  0  0  0  0  0  0  0  0  0  0  0
   -4.2620   -0.2369    2.8283 H   0  0  0  0  0  0  0  0  0  0  0  0
    0.3903   -1.0918    1.8303 H   0  0  0  0  0  0  0  0  0  0  0  0
   -0.3913    0.0910    2.9058 H   0  0  0  0  0  0  0  0  0  0  0  0
   -0.3200    1.8124    1.1312 H   0  0  0  0  0  0  0  0  0  0  0  0
    1.3010    1.1739    1.4462 H   0  0  0  0  0  0  0  0  0  0  0  0
  1  2  2  0
  2  3  1  0
  3  4  1  0
  4  5  1  0
  5  6  2  0
  6  7  1  0
  7  8  2  0
  8  9  1  0
  8 10  1  0
 10 11  2  0
  2 12  1  0
 12 13  1  0
 13 14  1  0
 14 15  1  0
 15 16  1  0
 16 17  2  0
 16 18  2  0
 16 19  1  0
 19 20  2  0
 20 21  1  0
 21 22  2  0
 22 23  1  0
 23 24  2  0
 15 25  1  0
 25 26  1  0
 11  5  1  0
 26 12  1  0
 24 19  1  0
  3 27  1  0
  3 28  1  0
  6 29  1  0
  7 30  1  0
 10 31  1  0
 11 32  1  0
 13 33  1  0
 13 34  1  0
 14 35  1  0
 14 36  1  0
 20 37  1  0
 21 38  1  0
 22 39  1  0
 23 40  1  0
 24 41  1  0
 25 42  1  0
 25 43  1  0
 26 44  1  0
 26 45  1  0
M  END
$$$$
