
     RDKit          3D

 52 56  0  0  0  0  0  0  0  0999 V2000
   -3.8360   -0.6450    0.2033 C   0  0  0  0  0  0  0  0  0  0  0  0
   -2.4822   -1.3155    0.3993 C   0  0  0  0  0  0  0  0  0  0  0  0
   -1.3223   -0.3162    0.3169 C   0  0  0  0  0  0  0  0  0  0  0  0
   -1.3781    0.8362    1.3009 C   0  0  0  0  0  0  0  0  0  0  0  0
   -1.5463    1.9713    0.8676 O   0  0  0  0  0  0  0  0  0  0  0  0
   -1.3108    0.5917    2.7715 C   0  0  0  0  0  0  0  0  0  0  0  0
   -0.8670   -0.6176    3.3205 C   0  0  0  0  0  0  0  0  0  0  0  0
   -0.8361   -0.7919    4.7085 C   0  0  0  0  0  0  0  0  0  0  0  0
   -1.2468    0.2403    5.5495 C   0  0  0  0  0  0  0  0  0  0  0  0
   -1.2099    0.0209    7.2550 Cl  0  0  0  0  0  0  0  0  0  0  0  0
   -1.6838    1.4504    5.0162 C   0  0  0  0  0  0  0  0  0  0  0  0
   -1.7127    1.6265    3.6299 C   0  0  0  0  0  0  0  0  0  0  0  0
   -0.8109    0.0365   -1.0846 C   0  0  0  0  0  0  0  0  0  0  0  0
   -1.2017   -0.6575   -2.3524 C   0  0  0  0  0  0  0  0  0  0  0  0
   -2.0052   -0.0331   -3.3166 C   0  0  0  0  0  0  0  0  0  0  0  0
   -2.3171   -0.6709   -4.5214 C   0  0  0  0  0  0  0  0  0  0  0  0
   -1.8264   -1.9485   -4.7860 C   0  0  0  0  0  0  0  0  0  0  0  0
   -1.0306   -2.5923   -3.8434 C   0  0  0  0  0  0  0  0  0  0  0  0
   -0.7329   -1.9429   -2.6455 C   0  0  0  0  0  0  0  0  0  0  0  0
    0.0281   -2.6804   -1.7101 O   0  0  0  0  0  0  0  0  0  0  0  0
    0.2675   -2.2278   -0.4087 C   0  0  0  0  0  0  0  0  0  0  0  0
    0.6175   -2.9852    0.4870 O   0  0  0  0  0  0  0  0  0  0  0  0
    0.0863   -0.7699   -0.1651 C   0  0  0  0  0  0  0  0  0  0  0  0
    1.3243   -0.0636    0.3075 C   0  0  0  0  0  0  0  0  0  0  0  0
    1.5246    0.0485    1.5066 O   0  0  0  0  0  0  0  0  0  0  0  0
    2.1326    0.3793   -0.7228 N   0  0  0  0  0  0  0  0  0  0  0  0
    3.3562    1.0724   -0.6129 C   0  0  0  0  0  0  0  0  0  0  0  0
    3.9504    1.4236    0.6003 C   0  0  0  0  0  0  0  0  0  0  0  0
    5.1678    2.1125    0.6198 C   0  0  0  0  0  0  0  0  0  0  0  0
    5.8005    2.4559   -0.5723 C   0  0  0  0  0  0  0  0  0  0  0  0
    5.2165    2.1109   -1.7875 C   0  0  0  0  0  0  0  0  0  0  0  0
    4.0005    1.4227   -1.8074 C   0  0  0  0  0  0  0  0  0  0  0  0
   -4.6342   -1.3936    0.2250 H   0  0  0  0  0  0  0  0  0  0  0  0
   -4.0393    0.0835    0.9944 H   0  0  0  0  0  0  0  0  0  0  0  0
   -3.8857   -0.1211   -0.7560 H   0  0  0  0  0  0  0  0  0  0  0  0
   -2.3886   -2.1163   -0.3400 H   0  0  0  0  0  0  0  0  0  0  0  0
   -2.4721   -1.8140    1.3739 H   0  0  0  0  0  0  0  0  0  0  0  0
   -0.5076   -1.4299    2.6944 H   0  0  0  0  0  0  0  0  0  0  0  0
   -0.4778   -1.7310    5.1232 H   0  0  0  0  0  0  0  0  0  0  0  0
   -1.9978    2.2605    5.6690 H   0  0  0  0  0  0  0  0  0  0  0  0
   -2.0505    2.5778    3.2219 H   0  0  0  0  0  0  0  0  0  0  0  0
   -0.5528    1.0883   -1.2230 H   0  0  0  0  0  0  0  0  0  0  0  0
   -2.3930    0.9677   -3.1314 H   0  0  0  0  0  0  0  0  0  0  0  0
   -2.9433   -0.1671   -5.2546 H   0  0  0  0  0  0  0  0  0  0  0  0
   -2.0716   -2.4434   -5.7226 H   0  0  0  0  0  0  0  0  0  0  0  0
   -0.6576   -3.5948   -4.0340 H   0  0  0  0  0  0  0  0  0  0  0  0
    1.8206    0.1979   -1.6687 H   0  0  0  0  0  0  0  0  0  0  0  0
    3.4952    1.1786    1.5547 H   0  0  0  0  0  0  0  0  0  0  0  0
    5.6188    2.3797    1.5724 H   0  0  0  0  0  0  0  0  0  0  0  0
    6.7461    2.9913   -0.5520 H   0  0  0  0  0  0  0  0  0  0  0  0
    5.7067    2.3772   -2.7203 H   0  0  0  0  0  0  0  0  0  0  0  0
    3.5683    1.1670   -2.7711 H   0  0  0  0  0  0  0  0  0  0  0  0
  1  2  1  0
  2  3  1  0
  3  4  1  0
  4  5  2  0
  4  6  1  0
  6  7  2  0
  7  8  1  0
  8  9  2  0
  9 10  1  0
  9 11  1  0
 11 12  2  0
  3 13  1  0
 13 14  1  0
 14 15  2  0
 15 16  1  0
 16 17  2  0
 17 18  1  0
 18 19  2  0
 19 20  1  0
 20 21  1  0
 21 22  2  0
 21 23  1  0
 23 24  1  0
 24 25  2  0
 24 26  1  0
 26 27  1  0
 27 28  2  0
 28 29  1  0
 29 30  2  0
 30 31  1  0
 31 32  2  0
 23  3  1  0
 32 27  1  0
 12  6  1  0
 23 13  1  0
 19 14  1  0
  1 33  1  0
  1 34  1  0
  1 35  1  0
  2 36  1  0
  2 37  1  0
  7 38  1  0
  8 39  1  0
 11 40  1  0
 12 41  1  0
 13 42  1  0
 15 43  1  0
 16 44  1  0
 17 45  1  0
 18 46  1  0
 26 47  1  0
 28 48  1  0
 29 49  1  0
 30 50  1  0
 31 51  1  0
 32 52  1  0
M  END
$$$$
