
     RDKit          3D

 54 56  0  0  0  0  0  0  0  0999 V2000
   -0.0230   -2.7360    1.6189 N   0  0  0  0  0  0  0  0  0  0  0  0
   -0.9362   -2.2743    0.7457 C   0  0  0  0  0  0  0  0  0  0  0  0
   -1.3054   -2.9423   -0.3050 N   0  0  0  0  0  0  0  0  0  0  0  0
   -2.3004   -2.0548   -0.9730 C   0  0  0  0  0  0  0  0  0  0  0  0
   -2.4844   -0.8084   -0.0755 C   0  0  0  0  0  0  0  0  0  0  0  0
   -3.9039   -0.6940    0.4998 C   0  0  0  0  0  0  0  0  0  0  0  0
   -4.9268   -0.2695   -0.5282 C   0  0  0  0  0  0  0  0  0  0  0  0
   -4.9379    1.0440   -1.0201 C   0  0  0  0  0  0  0  0  0  0  0  0
   -5.8772    1.4346   -1.9759 C   0  0  0  0  0  0  0  0  0  0  0  0
   -6.8148    0.5180   -2.4478 C   0  0  0  0  0  0  0  0  0  0  0  0
   -6.8148   -0.7891   -1.9635 C   0  0  0  0  0  0  0  0  0  0  0  0
   -5.8764   -1.1819   -1.0075 C   0  0  0  0  0  0  0  0  0  0  0  0
   -1.5176   -1.0733    0.9889 N   0  0  0  0  0  0  0  0  0  0  0  0
   -0.9481    0.0251    1.7524 C   0  0  0  0  0  0  0  0  0  0  0  0
   -0.0020    0.9188    0.9438 C   0  0  0  0  0  0  0  0  0  0  0  0
    1.2858    0.2214    0.4981 C   0  0  0  0  0  0  0  0  0  0  0  0
    2.2357    1.2081   -0.1913 C   0  0  0  0  0  0  0  0  0  0  0  0
    3.5142    0.5401   -0.7397 C   0  0  0  0  0  0  0  0  0  0  0  0
    4.3533    1.5492   -1.5524 C   0  0  0  0  0  0  0  0  0  0  0  0
    5.4597    2.1835   -0.7186 C   0  0  0  0  0  0  0  0  0  0  0  0
    6.4434    1.1376   -0.1922 C   0  0  0  0  0  0  0  0  0  0  0  0
    5.8098   -0.2379    0.0223 C   0  0  0  0  0  0  0  0  0  0  0  0
    4.3340   -0.1260    0.3841 C   0  0  0  0  0  0  0  0  0  0  0  0
   -0.3178   -2.6342    2.5802 H   0  0  0  0  0  0  0  0  0  0  0  0
    0.1969   -3.7037    1.4077 H   0  0  0  0  0  0  0  0  0  0  0  0
   -1.9091   -1.7645   -1.9546 H   0  0  0  0  0  0  0  0  0  0  0  0
   -3.2291   -2.6116   -1.1300 H   0  0  0  0  0  0  0  0  0  0  0  0
   -2.2173    0.0882   -0.6453 H   0  0  0  0  0  0  0  0  0  0  0  0
   -3.9246    0.0412    1.3145 H   0  0  0  0  0  0  0  0  0  0  0  0
   -4.2033   -1.6436    0.9629 H   0  0  0  0  0  0  0  0  0  0  0  0
   -4.2165    1.7745   -0.6598 H   0  0  0  0  0  0  0  0  0  0  0  0
   -5.8783    2.4542   -2.3524 H   0  0  0  0  0  0  0  0  0  0  0  0
   -7.5468    0.8226   -3.1915 H   0  0  0  0  0  0  0  0  0  0  0  0
   -7.5472   -1.5041   -2.3297 H   0  0  0  0  0  0  0  0  0  0  0  0
   -5.8922   -2.2066   -0.6402 H   0  0  0  0  0  0  0  0  0  0  0  0
   -0.4324   -0.3492    2.6443 H   0  0  0  0  0  0  0  0  0  0  0  0
   -1.7670    0.6494    2.1296 H   0  0  0  0  0  0  0  0  0  0  0  0
    0.2645    1.7776    1.5733 H   0  0  0  0  0  0  0  0  0  0  0  0
   -0.5172    1.3290    0.0681 H   0  0  0  0  0  0  0  0  0  0  0  0
    1.0507   -0.5883   -0.2009 H   0  0  0  0  0  0  0  0  0  0  0  0
    1.7746   -0.2241    1.3715 H   0  0  0  0  0  0  0  0  0  0  0  0
    1.6998    1.6861   -1.0216 H   0  0  0  0  0  0  0  0  0  0  0  0
    2.5066    2.0074    0.5101 H   0  0  0  0  0  0  0  0  0  0  0  0
    3.1971   -0.2442   -1.4411 H   0  0  0  0  0  0  0  0  0  0  0  0
    3.7176    2.3289   -1.9871 H   0  0  0  0  0  0  0  0  0  0  0  0
    4.8132    1.0256   -2.4006 H   0  0  0  0  0  0  0  0  0  0  0  0
    5.0127    2.7224    0.1260 H   0  0  0  0  0  0  0  0  0  0  0  0
    6.0014    2.9295   -1.3112 H   0  0  0  0  0  0  0  0  0  0  0  0
    6.8724    1.5012    0.7495 H   0  0  0  0  0  0  0  0  0  0  0  0
    7.2830    1.0327   -0.8899 H   0  0  0  0  0  0  0  0  0  0  0  0
    5.9133   -0.8351   -0.8925 H   0  0  0  0  0  0  0  0  0  0  0  0
    6.3543   -0.7744    0.8078 H   0  0  0  0  0  0  0  0  0  0  0  0
    4.2424    0.4457    1.3167 H   0  0  0  0  0  0  0  0  0  0  0  0
    3.9311   -1.1253    0.5882 H   0  0  0  0  0  0  0  0  0  0  0  0
  1  2  1  0
  2  3  2  0
  3  4  1  0
  4  5  1  0
  5  6  1  0
  6  7  1  0
  7  8  2  0
  8  9  1  0
  9 10  2  0
 10 11  1  0
 11 12  2  0
  5 13  1  0
 13 14  1  0
 14 15  1  0
 15 16  1  0
 16 17  1  0
 17 18  1  0
 18 19  1  0
 19 20  1  0
 20 21  1  0
 21 22  1  0
 22 23  1  0
 13  2  1  0
 23 18  1  0
 12  7  1  0
  1 24  1  0
  1 25  1  0
  4 26  1  0
  4 27  1  0
  5 28  1  0
  6 29  1  0
  6 30  1  0
  8 31  1  0
  9 32  1  0
 10 33  1  0
 11 34  1  0
 12 35  1  0
 14 36  1  0
 14 37  1  0
 15 38  1  0
 15 39  1  0
 16 40  1  0
 16 41  1  0
 17 42  1  0
 17 43  1  0
 18 44  1  0
 19 45  1  0
 19 46  1  0
 20 47  1  0
 20 48  1  0
 21 49  1  0
 21 50  1  0
 22 51  1  0
 22 52  1  0
 23 53  1  0
 23 54  1  0
M  END
$$$$
