
     RDKit          3D

 38 39  0  0  0  0  0  0  0  0999 V2000
   -3.0809   -1.2131   -2.6142 O   0  0  0  0  0  0  0  0  0  0  0  0
   -2.5622   -0.9068   -1.5445 C   0  0  0  0  0  0  0  0  0  0  0  0
   -1.0709   -0.5741   -1.4613 C   0  0  0  0  0  0  0  0  0  0  0  0
   -0.6774   -0.2198   -0.1308 O   0  0  0  0  0  0  0  0  0  0  0  0
    0.6482    0.0580   -0.0195 C   0  0  0  0  0  0  0  0  0  0  0  0
    1.4576    0.0299   -0.9269 O   0  0  0  0  0  0  0  0  0  0  0  0
    0.9112    0.3959    1.3984 C   0  0  0  0  0  0  0  0  0  0  0  0
    2.1071    0.6491    1.9531 C   0  0  0  0  0  0  0  0  0  0  0  0
    3.4127    0.6638    1.2898 C   0  0  0  0  0  0  0  0  0  0  0  0
    4.3790   -0.2771    1.6588 C   0  0  0  0  0  0  0  0  0  0  0  0
    5.6374   -0.2695    1.0561 C   0  0  0  0  0  0  0  0  0  0  0  0
    5.9420    0.6863    0.0868 C   0  0  0  0  0  0  0  0  0  0  0  0
    4.9931    1.6508   -0.2838 C   0  0  0  0  0  0  0  0  0  0  0  0
    5.3107    2.6708   -1.3479 C   0  0  0  0  0  0  0  0  0  0  0  0
    6.6291    3.0180   -1.3736 F   0  0  0  0  0  0  0  0  0  0  0  0
    5.0176    2.2313   -2.6019 F   0  0  0  0  0  0  0  0  0  0  0  0
    4.6278    3.8402   -1.1902 F   0  0  0  0  0  0  0  0  0  0  0  0
    3.7277    1.6288    0.3261 C   0  0  0  0  0  0  0  0  0  0  0  0
   -3.2022   -0.8245   -0.3313 N   0  0  0  0  0  0  0  0  0  0  0  0
   -4.5395   -1.0585   -0.0276 C   0  0  0  0  0  0  0  0  0  0  0  0
   -5.4986   -1.4345   -0.9597 C   0  0  0  0  0  0  0  0  0  0  0  0
   -6.8128   -1.6427   -0.5333 C   0  0  0  0  0  0  0  0  0  0  0  0
   -7.1274   -1.4691    0.8062 C   0  0  0  0  0  0  0  0  0  0  0  0
   -8.7266   -1.7146    1.3737 Cl  0  0  0  0  0  0  0  0  0  0  0  0
   -6.1125   -1.0930    1.6688 C   0  0  0  0  0  0  0  0  0  0  0  0
   -4.8286   -0.8847    1.2813 N   0  0  0  0  0  0  0  0  0  0  0  0
   -0.8827    0.2682   -2.1364 H   0  0  0  0  0  0  0  0  0  0  0  0
   -0.5182   -1.4634   -1.7854 H   0  0  0  0  0  0  0  0  0  0  0  0
    0.0330    0.4157    2.0371 H   0  0  0  0  0  0  0  0  0  0  0  0
    2.1508    0.8538    3.0214 H   0  0  0  0  0  0  0  0  0  0  0  0
    4.1555   -1.0320    2.4089 H   0  0  0  0  0  0  0  0  0  0  0  0
    6.3793   -1.0122    1.3396 H   0  0  0  0  0  0  0  0  0  0  0  0
    6.9248    0.6770   -0.3821 H   0  0  0  0  0  0  0  0  0  0  0  0
    2.9808    2.3651    0.0329 H   0  0  0  0  0  0  0  0  0  0  0  0
   -2.6487   -0.5586    0.4739 H   0  0  0  0  0  0  0  0  0  0  0  0
   -5.2617   -1.5729   -2.0084 H   0  0  0  0  0  0  0  0  0  0  0  0
   -7.5731   -1.9379   -1.2508 H   0  0  0  0  0  0  0  0  0  0  0  0
   -6.3014   -0.9436    2.7278 H   0  0  0  0  0  0  0  0  0  0  0  0
  1  2  2  0
  2  3  1  0
  3  4  1  0
  4  5  1  0
  5  6  2  0
  5  7  1  0
  7  8  2  3
  8  9  1  0
  9 10  2  0
 10 11  1  0
 11 12  2  0
 12 13  1  0
 13 14  1  0
 14 15  1  0
 14 16  1  0
 14 17  1  0
 13 18  2  0
  2 19  1  0
 19 20  1  0
 20 21  2  0
 21 22  1  0
 22 23  2  0
 23 24  1  0
 23 25  1  0
 25 26  2  0
 18  9  1  0
 26 20  1  0
  3 27  1  0
  3 28  1  0
  7 29  1  0
  8 30  1  0
 10 31  1  0
 11 32  1  0
 12 33  1  0
 18 34  1  0
 19 35  1  0
 21 36  1  0
 22 37  1  0
 25 38  1  0
M  END
$$$$
