
     RDKit          3D

 58 61  0  0  0  0  0  0  0  0999 V2000
    8.0655    0.3245    1.2672 C   0  0  0  0  0  0  0  0  0  0  0  0
    6.9096    0.7201    0.3974 C   0  0  0  0  0  0  0  0  0  0  0  0
    6.1387    1.8492    0.6936 C   0  0  0  0  0  0  0  0  0  0  0  0
    5.0554    2.2015   -0.1172 C   0  0  0  0  0  0  0  0  0  0  0  0
    4.7267    1.4301   -1.2396 C   0  0  0  0  0  0  0  0  0  0  0  0
    3.5454    1.7855   -2.1055 C   0  0  0  0  0  0  0  0  0  0  0  0
    2.3926    0.9967   -1.7314 N   0  0  0  0  0  0  0  0  0  0  0  0
    2.0297   -0.1285   -2.4332 C   0  0  0  0  0  0  0  0  0  0  0  0
    2.5617   -0.4656   -3.4878 O   0  0  0  0  0  0  0  0  0  0  0  0
    0.9031   -0.9511   -1.8125 C   0  0  0  0  0  0  0  0  0  0  0  0
    1.3017   -1.5240   -0.4414 C   0  0  0  0  0  0  0  0  0  0  0  0
    0.5356   -0.8831    0.7125 C   0  0  0  0  0  0  0  0  0  0  0  0
   -0.9887   -1.0420    0.5566 C   0  0  0  0  0  0  0  0  0  0  0  0
   -1.7068   -0.0841    1.5274 C   0  0  0  0  0  0  0  0  0  0  0  0
   -3.0935   -0.4732    1.7104 N   0  0  0  0  0  0  0  0  0  0  0  0
   -4.2514    0.1102    1.2200 C   0  0  0  0  0  0  0  0  0  0  0  0
   -4.1766    1.3214    0.5840 N   0  0  0  0  0  0  0  0  0  0  0  0
   -5.2265    2.0185    0.0488 C   0  0  0  0  0  0  0  0  0  0  0  0
   -4.8888    3.4873   -0.6875 S   0  0  0  0  0  0  0  0  0  0  0  0
   -6.4798    1.4867    0.1412 N   0  0  0  0  0  0  0  0  0  0  0  0
   -6.5999    0.3447    0.7379 C   0  0  0  0  0  0  0  0  0  0  0  0
   -7.9604   -0.2532    0.8506 C   0  0  0  0  0  0  0  0  0  0  0  0
   -8.1451   -1.4325    1.4565 C   0  0  0  0  0  0  0  0  0  0  0  0
   -7.0521   -2.1784    2.0286 C   0  0  0  0  0  0  0  0  0  0  0  0
   -5.7926   -1.7215    1.9777 C   0  0  0  0  0  0  0  0  0  0  0  0
   -5.4769   -0.4529    1.3392 C   0  0  0  0  0  0  0  0  0  0  0  0
   -1.4483   -0.8640   -0.9059 C   0  0  0  0  0  0  0  0  0  0  0  0
   -0.4102   -0.1593   -1.7738 C   0  0  0  0  0  0  0  0  0  0  0  0
    5.4906    0.2904   -1.5244 C   0  0  0  0  0  0  0  0  0  0  0  0
    6.5721   -0.0612   -0.7138 C   0  0  0  0  0  0  0  0  0  0  0  0
    8.9565    0.1456    0.6563 H   0  0  0  0  0  0  0  0  0  0  0  0
    8.3123    1.1113    1.9885 H   0  0  0  0  0  0  0  0  0  0  0  0
    7.8220   -0.5866    1.8232 H   0  0  0  0  0  0  0  0  0  0  0  0
    6.3764    2.4658    1.5576 H   0  0  0  0  0  0  0  0  0  0  0  0
    4.4737    3.0854    0.1337 H   0  0  0  0  0  0  0  0  0  0  0  0
    3.7924    1.6457   -3.1641 H   0  0  0  0  0  0  0  0  0  0  0  0
    3.2750    2.8387   -1.9702 H   0  0  0  0  0  0  0  0  0  0  0  0
    2.0450    1.1217   -0.7931 H   0  0  0  0  0  0  0  0  0  0  0  0
    0.7590   -1.8077   -2.4868 H   0  0  0  0  0  0  0  0  0  0  0  0
    2.3799   -1.4288   -0.2659 H   0  0  0  0  0  0  0  0  0  0  0  0
    1.0890   -2.6013   -0.4368 H   0  0  0  0  0  0  0  0  0  0  0  0
    0.8524   -1.3404    1.6580 H   0  0  0  0  0  0  0  0  0  0  0  0
    0.8012    0.1789    0.7822 H   0  0  0  0  0  0  0  0  0  0  0  0
   -1.2456   -2.0703    0.8503 H   0  0  0  0  0  0  0  0  0  0  0  0
   -1.5957    0.9542    1.1985 H   0  0  0  0  0  0  0  0  0  0  0  0
   -1.2263   -0.1433    2.5119 H   0  0  0  0  0  0  0  0  0  0  0  0
   -3.2117   -1.3899    2.1272 H   0  0  0  0  0  0  0  0  0  0  0  0
   -3.2804    1.7710    0.4922 H   0  0  0  0  0  0  0  0  0  0  0  0
   -8.7799    0.3106    0.4207 H   0  0  0  0  0  0  0  0  0  0  0  0
   -9.1416   -1.8579    1.5325 H   0  0  0  0  0  0  0  0  0  0  0  0
   -7.2812   -3.1259    2.5082 H   0  0  0  0  0  0  0  0  0  0  0  0
   -5.0034   -2.3130    2.4244 H   0  0  0  0  0  0  0  0  0  0  0  0
   -2.3985   -0.3259   -0.9711 H   0  0  0  0  0  0  0  0  0  0  0  0
   -1.6385   -1.8579   -1.3337 H   0  0  0  0  0  0  0  0  0  0  0  0
   -0.2570    0.8601   -1.3989 H   0  0  0  0  0  0  0  0  0  0  0  0
   -0.7961   -0.0492   -2.7950 H   0  0  0  0  0  0  0  0  0  0  0  0
    5.2411   -0.3325   -2.3827 H   0  0  0  0  0  0  0  0  0  0  0  0
    7.1493   -0.9507   -0.9550 H   0  0  0  0  0  0  0  0  0  0  0  0
  1  2  1  0
  2  3  2  0
  3  4  1  0
  4  5  2  0
  5  6  1  0
  6  7  1  0
  7  8  1  0
  8  9  2  0
  8 10  1  0
 10 11  1  0
 11 12  1  0
 12 13  1  0
 13 14  1  0
 14 15  1  0
 15 16  1  0
 16 17  1  0
 17 18  1  0
 18 19  2  0
 18 20  1  0
 20 21  2  0
 21 22  1  0
 22 23  2  0
 23 24  1  0
 24 25  2  0
 25 26  1  0
 13 27  1  0
 27 28  1  0
  5 29  1  0
 29 30  2  0
 30  2  1  0
 28 10  1  0
 26 16  2  0
 26 21  1  0
  1 31  1  0
  1 32  1  0
  1 33  1  0
  3 34  1  0
  4 35  1  0
  6 36  1  0
  6 37  1  0
  7 38  1  0
 10 39  1  0
 11 40  1  0
 11 41  1  0
 12 42  1  0
 12 43  1  0
 13 44  1  0
 14 45  1  0
 14 46  1  0
 15 47  1  0
 17 48  1  0
 22 49  1  0
 23 50  1  0
 24 51  1  0
 25 52  1  0
 27 53  1  0
 27 54  1  0
 28 55  1  0
 28 56  1  0
 29 57  1  0
 30 58  1  0
M  END
$$$$
