
     RDKit          3D

 43 45  0  0  0  0  0  0  0  0999 V2000
    3.5232   -1.3144   -0.8170 O   0  0  0  0  0  0  0  0  0  0  0  0
    3.1001   -0.1710   -0.6278 C   0  0  0  0  0  0  0  0  0  0  0  0
    3.9465    1.0732   -0.9994 C   0  0  0  0  0  0  0  0  0  0  0  0
    5.2445    0.7154   -1.7111 C   0  0  0  0  0  0  0  0  0  0  0  0
    6.2125    0.5687   -0.5637 C   0  0  0  0  0  0  0  0  0  0  0  0
    5.7392    1.6447    0.3861 C   0  0  0  0  0  0  0  0  0  0  0  0
    4.3308    1.8110    0.1714 O   0  0  0  0  0  0  0  0  0  0  0  0
    1.8311    0.0512   -0.1017 N   0  0  0  0  0  0  0  0  0  0  0  0
    0.9816   -1.0936    0.2259 C   0  0  0  0  0  0  0  0  0  0  0  0
   -0.4910   -0.8290   -0.1133 C   0  0  0  0  0  0  0  0  0  0  0  0
   -1.0295    0.3978    0.5101 N   0  0  0  0  0  0  0  0  0  0  0  0
   -2.3989    0.5197    0.8372 C   0  0  0  0  0  0  0  0  0  0  0  0
   -2.9803    1.6177    1.9704 S   0  0  0  0  0  0  0  0  0  0  0  0
   -3.1913   -0.3234    0.0658 N   0  0  0  0  0  0  0  0  0  0  0  0
   -4.5050   -0.8012    0.2632 C   0  0  0  0  0  0  0  0  0  0  0  0
   -5.1996   -1.2481   -0.8712 C   0  0  0  0  0  0  0  0  0  0  0  0
   -6.4926   -1.7653   -0.7568 C   0  0  0  0  0  0  0  0  0  0  0  0
   -7.0848   -1.8534    0.4953 C   0  0  0  0  0  0  0  0  0  0  0  0
   -8.3223   -2.3526    0.6075 F   0  0  0  0  0  0  0  0  0  0  0  0
   -6.4037   -1.4435    1.6331 C   0  0  0  0  0  0  0  0  0  0  0  0
   -5.1096   -0.9255    1.5176 C   0  0  0  0  0  0  0  0  0  0  0  0
   -0.0117    1.3463    1.0087 C   0  0  0  0  0  0  0  0  0  0  0  0
    1.2559    1.3783    0.1408 C   0  0  0  0  0  0  0  0  0  0  0  0
    3.3353    1.7145   -1.6439 H   0  0  0  0  0  0  0  0  0  0  0  0
    5.1878   -0.1743   -2.3441 H   0  0  0  0  0  0  0  0  0  0  0  0
    5.5599    1.5563   -2.3413 H   0  0  0  0  0  0  0  0  0  0  0  0
    6.1000   -0.4177   -0.0993 H   0  0  0  0  0  0  0  0  0  0  0  0
    7.2595    0.6884   -0.8547 H   0  0  0  0  0  0  0  0  0  0  0  0
    6.2229    2.6032    0.1701 H   0  0  0  0  0  0  0  0  0  0  0  0
    5.9244    1.3910    1.4337 H   0  0  0  0  0  0  0  0  0  0  0  0
    1.0945   -1.2739    1.3017 H   0  0  0  0  0  0  0  0  0  0  0  0
    1.3211   -1.9941   -0.2959 H   0  0  0  0  0  0  0  0  0  0  0  0
   -0.5997   -0.7004   -1.1969 H   0  0  0  0  0  0  0  0  0  0  0  0
   -1.0924   -1.6924    0.1910 H   0  0  0  0  0  0  0  0  0  0  0  0
   -2.8346   -0.4426   -0.8729 H   0  0  0  0  0  0  0  0  0  0  0  0
   -4.7518   -1.1850   -1.8595 H   0  0  0  0  0  0  0  0  0  0  0  0
   -7.0380   -2.0988   -1.6337 H   0  0  0  0  0  0  0  0  0  0  0  0
   -6.8754   -1.5364    2.6062 H   0  0  0  0  0  0  0  0  0  0  0  0
   -4.5871   -0.6593    2.4305 H   0  0  0  0  0  0  0  0  0  0  0  0
    0.2425    1.0341    2.0292 H   0  0  0  0  0  0  0  0  0  0  0  0
   -0.4277    2.3572    1.0565 H   0  0  0  0  0  0  0  0  0  0  0  0
    1.9955    2.0268    0.6145 H   0  0  0  0  0  0  0  0  0  0  0  0
    1.0181    1.8004   -0.8428 H   0  0  0  0  0  0  0  0  0  0  0  0
  1  2  2  0
  2  3  1  0
  3  4  1  0
  4  5  1  0
  5  6  1  0
  6  7  1  0
  2  8  1  0
  8  9  1  0
  9 10  1  0
 10 11  1  0
 11 12  1  0
 12 13  2  0
 12 14  1  0
 14 15  1  0
 15 16  2  0
 16 17  1  0
 17 18  2  0
 18 19  1  0
 18 20  1  0
 20 21  2  0
 11 22  1  0
 22 23  1  0
  7  3  1  0
 23  8  1  0
 21 15  1  0
  3 24  1  0
  4 25  1  0
  4 26  1  0
  5 27  1  0
  5 28  1  0
  6 29  1  0
  6 30  1  0
  9 31  1  0
  9 32  1  0
 10 33  1  0
 10 34  1  0
 14 35  1  0
 16 36  1  0
 17 37  1  0
 20 38  1  0
 21 39  1  0
 22 40  1  0
 22 41  1  0
 23 42  1  0
 23 43  1  0
M  END
$$$$
