
     RDKit          3D

 43 45  0  0  0  0  0  0  0  0999 V2000
   -5.3137   -2.4929    0.9912 C   0  0  0  0  0  0  0  0  0  0  0  0
   -4.8368   -1.3767    0.1805 N   0  0  0  0  0  0  0  0  0  0  0  0
   -4.4209   -0.2251    1.0091 C   0  0  0  0  0  0  0  0  0  0  0  0
   -2.8930   -0.0672    1.1882 C   0  0  0  0  0  0  0  0  0  0  0  0
   -2.2251    0.0666   -0.1201 N   0  0  0  0  0  0  0  0  0  0  0  0
   -0.9169    0.5183   -0.2199 C   0  0  0  0  0  0  0  0  0  0  0  0
   -0.0099    0.3005    0.8358 C   0  0  0  0  0  0  0  0  0  0  0  0
    1.3339    0.7046    0.7742 C   0  0  0  0  0  0  0  0  0  0  0  0
    1.8237    1.3475   -0.3631 C   0  0  0  0  0  0  0  0  0  0  0  0
    3.2304    1.8086   -0.4615 C   0  0  0  0  0  0  0  0  0  0  0  0
    3.4724    2.8469   -1.0704 O   0  0  0  0  0  0  0  0  0  0  0  0
    4.3479    1.0517    0.1558 C   0  0  0  0  0  0  0  0  0  0  0  0
    4.3616   -0.3487    0.1842 C   0  0  0  0  0  0  0  0  0  0  0  0
    5.4407   -1.0231    0.7626 C   0  0  0  0  0  0  0  0  0  0  0  0
    6.5058   -0.2985    1.2980 C   0  0  0  0  0  0  0  0  0  0  0  0
    7.9628   -1.2149    2.0790 Br  0  0  0  0  0  0  0  0  0  0  0  0
    6.5087    1.0949    1.2541 C   0  0  0  0  0  0  0  0  0  0  0  0
    5.4315    1.7705    0.6761 C   0  0  0  0  0  0  0  0  0  0  0  0
    0.9555    1.6256   -1.4154 C   0  0  0  0  0  0  0  0  0  0  0  0
   -0.3849    1.2126   -1.3272 C   0  0  0  0  0  0  0  0  0  0  0  0
   -1.2344    1.6196   -2.4252 N   0  0  0  0  0  4  0  0  0  0  0  0
   -1.1311    0.9722   -3.4776 O   0  0  0  0  0  0  0  0  0  0  0  0
   -1.9665    2.6023   -2.2485 O   0  0  0  0  0  1  0  0  0  0  0  0
   -2.8626   -0.6588   -1.2428 C   0  0  0  0  0  0  0  0  0  0  0  0
   -3.7552   -1.8132   -0.7278 C   0  0  0  0  0  0  0  0  0  0  0  0
   -6.1850   -2.1923    1.5834 H   0  0  0  0  0  0  0  0  0  0  0  0
   -5.6394   -3.3216    0.3526 H   0  0  0  0  0  0  0  0  0  0  0  0
   -4.5431   -2.8652    1.6757 H   0  0  0  0  0  0  0  0  0  0  0  0
   -4.7992    0.6777    0.5117 H   0  0  0  0  0  0  0  0  0  0  0  0
   -4.9052   -0.2461    1.9932 H   0  0  0  0  0  0  0  0  0  0  0  0
   -2.7073    0.8266    1.7961 H   0  0  0  0  0  0  0  0  0  0  0  0
   -2.5008   -0.9377    1.7283 H   0  0  0  0  0  0  0  0  0  0  0  0
   -0.3300   -0.2167    1.7378 H   0  0  0  0  0  0  0  0  0  0  0  0
    1.9733    0.5189    1.6345 H   0  0  0  0  0  0  0  0  0  0  0  0
    3.5547   -0.9289   -0.2560 H   0  0  0  0  0  0  0  0  0  0  0  0
    5.4473   -2.1103    0.7813 H   0  0  0  0  0  0  0  0  0  0  0  0
    7.3429    1.6630    1.6581 H   0  0  0  0  0  0  0  0  0  0  0  0
    5.4393    2.8583    0.6299 H   0  0  0  0  0  0  0  0  0  0  0  0
    1.3110    2.1715   -2.2883 H   0  0  0  0  0  0  0  0  0  0  0  0
   -3.4729    0.0397   -1.8269 H   0  0  0  0  0  0  0  0  0  0  0  0
   -2.1053   -1.0946   -1.9052 H   0  0  0  0  0  0  0  0  0  0  0  0
   -3.1019   -2.5370   -0.2206 H   0  0  0  0  0  0  0  0  0  0  0  0
   -4.2020   -2.3285   -1.5859 H   0  0  0  0  0  0  0  0  0  0  0  0
  1  2  1  0
  2  3  1  0
  3  4  1  0
  4  5  1  0
  5  6  1  0
  6  7  2  0
  7  8  1  0
  8  9  2  0
  9 10  1  0
 10 11  2  0
 10 12  1  0
 12 13  2  0
 13 14  1  0
 14 15  2  0
 15 16  1  0
 15 17  1  0
 17 18  2  0
  9 19  1  0
 19 20  2  0
 20 21  1  0
 21 22  2  0
 21 23  1  0
  5 24  1  0
 24 25  1  0
 25  2  1  0
 20  6  1  0
 18 12  1  0
  1 26  1  0
  1 27  1  0
  1 28  1  0
  3 29  1  0
  3 30  1  0
  4 31  1  0
  4 32  1  0
  7 33  1  0
  8 34  1  0
 13 35  1  0
 14 36  1  0
 17 37  1  0
 18 38  1  0
 19 39  1  0
 24 40  1  0
 24 41  1  0
 25 42  1  0
 25 43  1  0
M  CHG  2  21   1  23  -1
M  END
$$$$
