
     RDKit          3D

 60 64  0  0  0  0  0  0  0  0999 V2000
    3.2235    2.4255   -0.1642 O   0  0  0  0  0  0  0  0  0  0  0  0
    2.8999    1.2772   -0.4415 C   0  0  0  0  0  0  0  0  0  0  0  0
    3.7293    0.1725   -0.5096 N   0  0  0  0  0  0  0  0  0  0  0  0
    5.1299    0.1469   -0.3320 C   0  0  0  0  0  0  0  0  0  0  0  0
    5.7541   -1.1090   -0.3600 C   0  0  0  0  0  0  0  0  0  0  0  0
    7.1374   -1.2286   -0.1815 C   0  0  0  0  0  0  0  0  0  0  0  0
    7.9150   -0.0864    0.0279 C   0  0  0  0  0  0  0  0  0  0  0  0
    9.3809   -0.1901    0.2433 C   0  0  0  0  0  0  0  0  0  0  0  0
   10.1506    0.8703    0.2238 N   0  0  0  0  0  0  0  0  0  0  0  0
   11.5201    0.3476    0.4804 C   0  0  0  0  0  0  0  0  0  0  0  0
   11.3459   -1.0895    0.9698 C   0  0  0  0  0  0  0  0  0  0  0  0
   10.0093   -1.3885    0.5062 N   0  0  0  0  0  0  0  0  0  0  0  0
    7.3005    1.1686    0.0375 C   0  0  0  0  0  0  0  0  0  0  0  0
    5.9156    1.2842   -0.1402 C   0  0  0  0  0  0  0  0  0  0  0  0
    1.4507    1.0077   -0.6742 C   0  0  0  0  0  0  0  0  0  0  0  0
    1.0022   -0.0060   -1.5333 C   0  0  0  0  0  0  0  0  0  0  0  0
   -0.3715   -0.2327   -1.7011 C   0  0  0  0  0  0  0  0  0  0  0  0
   -1.3197    0.5462   -1.0166 C   0  0  0  0  0  0  0  0  0  0  0  0
   -2.7532    0.2357   -1.2645 C   0  0  0  0  0  0  0  0  0  0  0  0
   -3.0692   -0.0080   -2.4223 O   0  0  0  0  0  0  0  0  0  0  0  0
   -3.5702    0.1857   -0.1530 N   0  0  0  0  0  0  0  0  0  0  0  0
   -4.9563   -0.0835   -0.1248 C   0  0  0  0  0  0  0  0  0  0  0  0
   -5.5731   -0.1041    1.1331 C   0  0  0  0  0  0  0  0  0  0  0  0
   -6.9417   -0.3619    1.2531 C   0  0  0  0  0  0  0  0  0  0  0  0
   -7.7138   -0.5935    0.1127 C   0  0  0  0  0  0  0  0  0  0  0  0
   -9.1678   -0.8563    0.2511 C   0  0  0  0  0  0  0  0  0  0  0  0
   -9.7021   -1.1501    1.4113 N   0  0  0  0  0  0  0  0  0  0  0  0
  -11.1482   -1.3455    1.1204 C   0  0  0  0  0  0  0  0  0  0  0  0
  -11.3821   -0.7890   -0.2844 C   0  0  0  0  0  0  0  0  0  0  0  0
  -10.0371   -0.7824   -0.8140 N   0  0  0  0  0  0  0  0  0  0  0  0
   -7.1049   -0.5792   -1.1443 C   0  0  0  0  0  0  0  0  0  0  0  0
   -5.7325   -0.3237   -1.2606 C   0  0  0  0  0  0  0  0  0  0  0  0
   -0.8510    1.5822   -0.2070 C   0  0  0  0  0  0  0  0  0  0  0  0
   -1.7717    2.4484    0.4813 N   0  0  0  0  0  4  0  0  0  0  0  0
   -2.2510    2.0022    1.5330 O   0  0  0  0  0  0  0  0  0  0  0  0
   -2.0009    3.5539   -0.0238 O   0  0  0  0  0  1  0  0  0  0  0  0
    0.5169    1.8230   -0.0231 C   0  0  0  0  0  0  0  0  0  0  0  0
    3.2962   -0.7327   -0.6278 H   0  0  0  0  0  0  0  0  0  0  0  0
    5.1758   -2.0160   -0.5197 H   0  0  0  0  0  0  0  0  0  0  0  0
    7.5931   -2.2121   -0.2324 H   0  0  0  0  0  0  0  0  0  0  0  0
   12.0945    0.3841   -0.4511 H   0  0  0  0  0  0  0  0  0  0  0  0
   12.0298    0.9590    1.2290 H   0  0  0  0  0  0  0  0  0  0  0  0
   11.3827   -1.1355    2.0641 H   0  0  0  0  0  0  0  0  0  0  0  0
   12.0935   -1.7709    0.5525 H   0  0  0  0  0  0  0  0  0  0  0  0
    9.4905   -2.0568    1.0604 H   0  0  0  0  0  0  0  0  0  0  0  0
    7.8957    2.0681    0.1882 H   0  0  0  0  0  0  0  0  0  0  0  0
    5.4892    2.2810   -0.1172 H   0  0  0  0  0  0  0  0  0  0  0  0
    1.7020   -0.6091   -2.1087 H   0  0  0  0  0  0  0  0  0  0  0  0
   -0.7039   -1.0199   -2.3801 H   0  0  0  0  0  0  0  0  0  0  0  0
   -3.1597    0.3512    0.7628 H   0  0  0  0  0  0  0  0  0  0  0  0
   -5.0025    0.0804    2.0405 H   0  0  0  0  0  0  0  0  0  0  0  0
   -7.4032   -0.3761    2.2382 H   0  0  0  0  0  0  0  0  0  0  0  0
  -11.7640   -0.8240    1.8600 H   0  0  0  0  0  0  0  0  0  0  0  0
  -11.3779   -2.4161    1.1666 H   0  0  0  0  0  0  0  0  0  0  0  0
  -12.0581   -1.4131   -0.8745 H   0  0  0  0  0  0  0  0  0  0  0  0
  -11.7755    0.2320   -0.2398 H   0  0  0  0  0  0  0  0  0  0  0  0
   -9.8365   -0.0731   -1.5082 H   0  0  0  0  0  0  0  0  0  0  0  0
   -7.6774   -0.7838   -2.0442 H   0  0  0  0  0  0  0  0  0  0  0  0
   -5.3041   -0.3223   -2.2580 H   0  0  0  0  0  0  0  0  0  0  0  0
    0.8560    2.6362    0.6195 H   0  0  0  0  0  0  0  0  0  0  0  0
  1  2  2  0
  2  3  1  0
  3  4  1  0
  4  5  2  0
  5  6  1  0
  6  7  2  0
  7  8  1  0
  8  9  2  0
  9 10  1  0
 10 11  1  0
 11 12  1  0
  7 13  1  0
 13 14  2  0
  2 15  1  0
 15 16  2  0
 16 17  1  0
 17 18  2  0
 18 19  1  0
 19 20  2  0
 19 21  1  0
 21 22  1  0
 22 23  2  0
 23 24  1  0
 24 25  2  0
 25 26  1  0
 26 27  2  0
 27 28  1  0
 28 29  1  0
 29 30  1  0
 25 31  1  0
 31 32  2  0
 18 33  1  0
 33 34  1  0
 34 35  2  0
 34 36  1  0
 33 37  2  0
 14  4  1  0
 37 15  1  0
 12  8  1  0
 32 22  1  0
 30 26  1  0
  3 38  1  0
  5 39  1  0
  6 40  1  0
 10 41  1  0
 10 42  1  0
 11 43  1  0
 11 44  1  0
 12 45  1  0
 13 46  1  0
 14 47  1  0
 16 48  1  0
 17 49  1  0
 21 50  1  0
 23 51  1  0
 24 52  1  0
 28 53  1  0
 28 54  1  0
 29 55  1  0
 29 56  1  0
 30 57  1  0
 31 58  1  0
 32 59  1  0
 37 60  1  0
M  CHG  2  34   1  36  -1
M  END
$$$$
