
     RDKit          3D

 55 57  0  0  0  0  0  0  0  0999 V2000
   -0.8559   -1.2275   -2.6226 O   0  0  0  0  0  0  0  0  0  0  0  0
   -0.0301   -0.5376   -2.0305 C   0  0  0  0  0  0  0  0  0  0  0  0
   -0.3815    0.5166   -1.2160 N   0  0  0  0  0  0  0  0  0  0  0  0
   -1.7655    0.9446   -1.1181 C   0  0  0  0  0  0  0  0  0  0  0  0
   -1.9838    1.8139    0.1136 C   0  0  0  0  0  0  0  0  0  0  0  0
   -3.3824    2.4301    0.2285 C   0  0  0  0  0  0  0  0  0  0  0  0
   -4.5878    1.4915    0.3671 C   0  0  0  0  0  0  0  0  0  0  0  0
   -5.1376    0.9270   -0.9529 C   0  0  0  0  0  0  0  0  0  0  0  0
   -5.5453   -0.5169   -0.6578 C   0  0  0  0  0  0  0  0  0  0  0  0
   -5.5511   -0.6329    0.8592 C   0  0  0  0  0  0  0  0  0  0  0  0
   -4.4075    0.2778    1.2791 C   0  0  0  0  0  0  0  0  0  0  0  0
    1.4579   -0.8343   -2.1326 C   0  0  0  0  0  0  0  0  0  0  0  0
    2.2662    0.3459   -2.6533 C   0  0  0  0  0  0  0  0  0  0  0  0
    3.7092   -0.0868   -2.8378 C   0  0  0  0  0  0  0  0  0  0  0  0
    4.3208   -0.7445   -1.6141 C   0  0  0  0  0  0  0  0  0  0  0  0
    5.5400   -0.7045   -1.4464 O   0  0  0  0  0  0  0  0  0  0  0  0
    3.4670   -1.4581   -0.7832 N   0  0  0  0  0  0  0  0  0  0  0  0
    4.0412   -2.1418    0.3763 C   0  0  0  0  0  0  0  0  0  0  0  0
    3.9461   -1.3243    1.6458 C   0  0  0  0  0  0  0  0  0  0  0  0
    2.9663   -1.6102    2.6090 C   0  0  0  0  0  0  0  0  0  0  0  0
    2.8674   -0.8385    3.7693 C   0  0  0  0  0  0  0  0  0  0  0  0
    3.7465    0.2231    3.9726 C   0  0  0  0  0  0  0  0  0  0  0  0
    3.6195    1.1760    5.3994 Cl  0  0  0  0  0  0  0  0  0  0  0  0
    4.7250    0.5192    3.0270 C   0  0  0  0  0  0  0  0  0  0  0  0
    4.8238   -0.2519    1.8669 C   0  0  0  0  0  0  0  0  0  0  0  0
    2.0164   -1.2587   -0.7831 C   0  0  0  0  0  0  0  0  0  0  0  0
    0.3273    1.1937   -0.9667 H   0  0  0  0  0  0  0  0  0  0  0  0
   -2.3983    0.0530   -1.0879 H   0  0  0  0  0  0  0  0  0  0  0  0
   -1.9973    1.5002   -2.0332 H   0  0  0  0  0  0  0  0  0  0  0  0
   -1.7462    1.2435    1.0197 H   0  0  0  0  0  0  0  0  0  0  0  0
   -1.2590    2.6391    0.0940 H   0  0  0  0  0  0  0  0  0  0  0  0
   -3.3663    3.0725    1.1197 H   0  0  0  0  0  0  0  0  0  0  0  0
   -3.5493    3.1055   -0.6203 H   0  0  0  0  0  0  0  0  0  0  0  0
   -5.3994    2.0995    0.7952 H   0  0  0  0  0  0  0  0  0  0  0  0
   -6.0116    1.5100   -1.2668 H   0  0  0  0  0  0  0  0  0  0  0  0
   -4.4238    0.9672   -1.7795 H   0  0  0  0  0  0  0  0  0  0  0  0
   -6.5151   -0.7709   -1.0956 H   0  0  0  0  0  0  0  0  0  0  0  0
   -4.7999   -1.2017   -1.0797 H   0  0  0  0  0  0  0  0  0  0  0  0
   -5.4098   -1.6633    1.1974 H   0  0  0  0  0  0  0  0  0  0  0  0
   -6.5008   -0.2647    1.2648 H   0  0  0  0  0  0  0  0  0  0  0  0
   -4.4626    0.5455    2.3384 H   0  0  0  0  0  0  0  0  0  0  0  0
   -3.4569   -0.2360    1.1055 H   0  0  0  0  0  0  0  0  0  0  0  0
    1.5667   -1.6687   -2.8396 H   0  0  0  0  0  0  0  0  0  0  0  0
    2.2288    1.1897   -1.9537 H   0  0  0  0  0  0  0  0  0  0  0  0
    1.8569    0.7044   -3.6048 H   0  0  0  0  0  0  0  0  0  0  0  0
    3.7893   -0.8001   -3.6666 H   0  0  0  0  0  0  0  0  0  0  0  0
    4.3146    0.7905   -3.0929 H   0  0  0  0  0  0  0  0  0  0  0  0
    3.5158   -3.0974    0.4944 H   0  0  0  0  0  0  0  0  0  0  0  0
    5.0917   -2.3967    0.1914 H   0  0  0  0  0  0  0  0  0  0  0  0
    2.2728   -2.4355    2.4619 H   0  0  0  0  0  0  0  0  0  0  0  0
    2.1052   -1.0703    4.5086 H   0  0  0  0  0  0  0  0  0  0  0  0
    5.4137    1.3451    3.1840 H   0  0  0  0  0  0  0  0  0  0  0  0
    5.5922   -0.0140    1.1320 H   0  0  0  0  0  0  0  0  0  0  0  0
    1.7961   -0.5037   -0.0190 H   0  0  0  0  0  0  0  0  0  0  0  0
    1.5404   -2.1947   -0.4661 H   0  0  0  0  0  0  0  0  0  0  0  0
  1  2  2  0
  2  3  1  0
  3  4  1  0
  4  5  1  0
  5  6  1  0
  6  7  1  0
  7  8  1  0
  8  9  1  0
  9 10  1  0
 10 11  1  0
  2 12  1  0
 12 13  1  0
 13 14  1  0
 14 15  1  0
 15 16  2  0
 15 17  1  0
 17 18  1  0
 18 19  1  0
 19 20  2  0
 20 21  1  0
 21 22  2  0
 22 23  1  0
 22 24  1  0
 24 25  2  0
 17 26  1  0
 11  7  1  0
 26 12  1  0
 25 19  1  0
  3 27  1  0
  4 28  1  0
  4 29  1  0
  5 30  1  0
  5 31  1  0
  6 32  1  0
  6 33  1  0
  7 34  1  0
  8 35  1  0
  8 36  1  0
  9 37  1  0
  9 38  1  0
 10 39  1  0
 10 40  1  0
 11 41  1  0
 11 42  1  0
 12 43  1  0
 13 44  1  0
 13 45  1  0
 14 46  1  0
 14 47  1  0
 18 48  1  0
 18 49  1  0
 20 50  1  0
 21 51  1  0
 24 52  1  0
 25 53  1  0
 26 54  1  0
 26 55  1  0
M  END
$$$$
