
     RDKit          3D

 63 66  0  0  0  0  0  0  0  0999 V2000
    9.4599    2.5416   -0.1798 C   0  0  0  0  0  0  0  0  0  0  0  0
    8.0909    2.8893   -0.3333 O   0  0  0  0  0  0  0  0  0  0  0  0
    7.1593    1.9074   -0.1236 C   0  0  0  0  0  0  0  0  0  0  0  0
    7.4531    0.6166    0.3220 C   0  0  0  0  0  0  0  0  0  0  0  0
    6.4321   -0.3274    0.5075 C   0  0  0  0  0  0  0  0  0  0  0  0
    5.1016    0.0024    0.2529 C   0  0  0  0  0  0  0  0  0  0  0  0
    4.0224   -0.8896    0.4082 N   0  0  0  0  0  0  0  0  0  0  0  0
    4.0641   -2.2080    0.8140 C   0  0  0  0  0  0  0  0  0  0  0  0
    5.0591   -2.8554    1.1210 O   0  0  0  0  0  0  0  0  0  0  0  0
    2.7369   -2.8429    0.8500 C   0  0  0  0  0  0  0  0  0  0  0  0
    2.4526   -4.1171    1.1674 C   0  0  0  0  0  0  0  0  0  0  0  0
    1.1086   -4.4274    1.1032 N   0  0  0  0  0  0  0  0  0  0  0  0
    0.4975   -3.2797    0.6057 N   0  0  0  0  0  0  0  0  0  0  0  0
   -0.8058   -3.1847    0.2017 C   0  0  0  0  0  0  0  0  0  0  0  0
   -1.6307   -4.0898    0.1765 O   0  0  0  0  0  0  0  0  0  0  0  0
   -1.1302   -1.8187   -0.2770 C   0  0  0  0  0  0  0  0  0  0  0  0
   -0.1663   -0.8755   -0.3511 C   0  0  0  0  0  0  0  0  0  0  0  0
   -0.4237    0.5507   -0.8563 C   0  0  0  0  0  0  0  0  0  0  0  0
   -0.6732    1.5076    0.3197 C   0  0  0  0  0  0  0  0  0  0  0  0
   -2.0470    1.2847    0.9469 C   0  0  0  0  0  0  0  0  0  0  0  0
   -3.0888    1.0418   -0.0422 N   0  0  0  0  0  0  0  0  0  0  0  0
   -4.3629    0.7514    0.4218 C   0  0  0  0  0  0  0  0  0  0  0  0
   -4.6241    0.6010    1.6083 O   0  0  0  0  0  0  0  0  0  0  0  0
   -5.2651    0.6439   -0.5848 O   0  0  0  0  0  0  0  0  0  0  0  0
   -6.6558    0.3313   -0.3149 C   0  0  0  0  0  0  0  0  0  0  0  0
   -6.8045   -1.0485    0.3353 C   0  0  0  0  0  0  0  0  0  0  0  0
   -7.3232    1.4339    0.5146 C   0  0  0  0  0  0  0  0  0  0  0  0
   -7.3171    0.2913   -1.7011 C   0  0  0  0  0  0  0  0  0  0  0  0
   -2.7953    1.3889   -1.4252 C   0  0  0  0  0  0  0  0  0  0  0  0
   -1.5285    0.6953   -1.9289 C   0  0  0  0  0  0  0  0  0  0  0  0
    1.1607   -1.1041   -0.0085 N   0  0  0  0  0  0  0  0  0  0  0  0
    1.4316   -2.2805    0.4473 C   0  0  0  0  0  0  0  0  0  0  0  0
    4.8011    1.2949   -0.1859 C   0  0  0  0  0  0  0  0  0  0  0  0
    5.8193    2.2372   -0.3711 C   0  0  0  0  0  0  0  0  0  0  0  0
    5.3653    3.8143   -0.9213 Cl  0  0  0  0  0  0  0  0  0  0  0  0
   10.0579    3.4228   -0.4310 H   0  0  0  0  0  0  0  0  0  0  0  0
    9.7448    1.7389   -0.8678 H   0  0  0  0  0  0  0  0  0  0  0  0
    9.6837    2.2726    0.8572 H   0  0  0  0  0  0  0  0  0  0  0  0
    8.4692    0.3027    0.5415 H   0  0  0  0  0  0  0  0  0  0  0  0
    6.7175   -1.3162    0.8555 H   0  0  0  0  0  0  0  0  0  0  0  0
    3.1013   -0.5138    0.1807 H   0  0  0  0  0  0  0  0  0  0  0  0
    3.1600   -4.8876    1.4491 H   0  0  0  0  0  0  0  0  0  0  0  0
    0.8789   -5.2799    0.5885 H   0  0  0  0  0  0  0  0  0  0  0  0
   -2.1653   -1.6521   -0.5442 H   0  0  0  0  0  0  0  0  0  0  0  0
    0.5089    0.8694   -1.3458 H   0  0  0  0  0  0  0  0  0  0  0  0
   -0.6138    2.5393   -0.0521 H   0  0  0  0  0  0  0  0  0  0  0  0
    0.1049    1.4160    1.0869 H   0  0  0  0  0  0  0  0  0  0  0  0
   -2.0240    0.4309    1.6343 H   0  0  0  0  0  0  0  0  0  0  0  0
   -2.3336    2.1621    1.5390 H   0  0  0  0  0  0  0  0  0  0  0  0
   -6.4150   -1.0638    1.3575 H   0  0  0  0  0  0  0  0  0  0  0  0
   -6.2446   -1.8053   -0.2256 H   0  0  0  0  0  0  0  0  0  0  0  0
   -7.8549   -1.3556    0.3818 H   0  0  0  0  0  0  0  0  0  0  0  0
   -6.9403    1.4644    1.5389 H   0  0  0  0  0  0  0  0  0  0  0  0
   -8.4070    1.2869    0.5747 H   0  0  0  0  0  0  0  0  0  0  0  0
   -7.1286    2.4200    0.0780 H   0  0  0  0  0  0  0  0  0  0  0  0
   -7.1995    1.2519   -2.2158 H   0  0  0  0  0  0  0  0  0  0  0  0
   -8.3856    0.0609   -1.6363 H   0  0  0  0  0  0  0  0  0  0  0  0
   -6.8386   -0.4612   -2.3389 H   0  0  0  0  0  0  0  0  0  0  0  0
   -2.6714    2.4783   -1.4604 H   0  0  0  0  0  0  0  0  0  0  0  0
   -3.6266    1.1494   -2.0949 H   0  0  0  0  0  0  0  0  0  0  0  0
   -1.7868   -0.2753   -2.3678 H   0  0  0  0  0  0  0  0  0  0  0  0
   -1.1380    1.2868   -2.7672 H   0  0  0  0  0  0  0  0  0  0  0  0
    3.7729    1.5810   -0.3922 H   0  0  0  0  0  0  0  0  0  0  0  0
  1  2  1  0
  2  3  1  0
  3  4  2  0
  4  5  1  0
  5  6  2  0
  6  7  1  0
  7  8  1  0
  8  9  2  0
  8 10  1  0
 10 11  2  0
 11 12  1  0
 12 13  1  0
 13 14  1  0
 14 15  2  0
 14 16  1  0
 16 17  2  0
 17 18  1  0
 18 19  1  0
 19 20  1  0
 20 21  1  0
 21 22  1  0
 22 23  2  0
 22 24  1  0
 24 25  1  0
 25 26  1  0
 25 27  1  0
 25 28  1  0
 21 29  1  0
 29 30  1  0
 17 31  1  0
 31 32  2  0
  6 33  1  0
 33 34  2  0
 34 35  1  0
 34  3  1  0
 32 10  1  0
 32 13  1  0
 30 18  1  0
  1 36  1  0
  1 37  1  0
  1 38  1  0
  4 39  1  0
  5 40  1  0
  7 41  1  0
 11 42  1  0
 12 43  1  0
 16 44  1  0
 18 45  1  0
 19 46  1  0
 19 47  1  0
 20 48  1  0
 20 49  1  0
 26 50  1  0
 26 51  1  0
 26 52  1  0
 27 53  1  0
 27 54  1  0
 27 55  1  0
 28 56  1  0
 28 57  1  0
 28 58  1  0
 29 59  1  0
 29 60  1  0
 30 61  1  0
 30 62  1  0
 33 63  1  0
M  END
$$$$
