
     RDKit          3D

 58 62  0  0  0  0  0  0  0  0999 V2000
   -3.3108   -0.9691   -1.1376 O   0  0  0  0  0  0  0  0  0  0  0  0
   -3.2245    0.2642   -0.5303 C   0  0  0  0  0  0  0  0  0  0  0  0
   -2.2358    0.4806    0.4372 C   0  0  0  0  0  0  0  0  0  0  0  0
   -1.2806   -0.6452    0.8645 C   0  0  0  0  0  0  0  0  0  0  0  0
   -1.9097   -1.4557    2.0206 C   0  0  0  0  0  0  0  0  0  0  0  0
   -2.1825   -0.8653    3.2581 C   0  0  0  0  0  0  0  0  0  0  0  0
   -2.7372   -1.6387    4.2748 C   0  0  0  0  0  0  0  0  0  0  0  0
   -3.0018   -2.9813    4.0416 C   0  0  0  0  0  0  0  0  0  0  0  0
   -2.6915   -3.5001    2.7975 C   0  0  0  0  0  0  0  0  0  0  0  0
   -2.1484   -2.7772    1.7946 N   0  0  0  0  0  0  0  0  0  0  0  0
    0.1088   -0.1400    1.1596 N   0  0  0  0  0  0  0  0  0  0  0  0
    0.7438    0.4477   -0.0410 C   0  0  0  0  0  0  0  0  0  0  0  0
    1.7757   -0.4537   -0.7195 C   0  0  0  0  0  0  0  0  0  0  0  0
    2.9286   -0.8216    0.2315 C   0  0  0  0  0  0  0  0  0  0  0  0
    4.1345    0.1354    0.1248 C   0  0  0  0  0  0  0  0  0  0  0  0
    4.8779    0.0501   -1.1877 C   0  0  0  0  0  0  0  0  0  0  0  0
    4.8528    1.1213   -2.0913 C   0  0  0  0  0  0  0  0  0  0  0  0
    5.5405    1.0422   -3.3035 C   0  0  0  0  0  0  0  0  0  0  0  0
    6.2629   -0.1055   -3.6231 C   0  0  0  0  0  0  0  0  0  0  0  0
    6.3000   -1.1745   -2.7302 C   0  0  0  0  0  0  0  0  0  0  0  0
    5.6126   -1.0971   -1.5178 C   0  0  0  0  0  0  0  0  0  0  0  0
    2.4339   -0.8636    1.6883 C   0  0  0  0  0  0  0  0  0  0  0  0
    0.9454   -1.2007    1.7607 C   0  0  0  0  0  0  0  0  0  0  0  0
   -2.1796    1.7540    1.0216 C   0  0  0  0  0  0  0  0  0  0  0  0
   -3.0778    2.7563    0.6429 C   0  0  0  0  0  0  0  0  0  0  0  0
   -2.9191    4.2930    1.4269 Cl  0  0  0  0  0  0  0  0  0  0  0  0
   -4.0714    2.5178   -0.3367 C   0  0  0  0  0  0  0  0  0  0  0  0
   -5.0186    3.4688   -0.7778 C   0  0  0  0  0  0  0  0  0  0  0  0
   -5.9568    3.1365   -1.7488 C   0  0  0  0  0  0  0  0  0  0  0  0
   -5.9298    1.8566   -2.2619 C   0  0  0  0  0  0  0  0  0  0  0  0
   -5.0456    0.9128   -1.8743 N   0  0  0  0  0  0  0  0  0  0  0  0
   -4.1373    1.2424   -0.9296 C   0  0  0  0  0  0  0  0  0  0  0  0
   -4.0796   -0.8896   -1.7429 H   0  0  0  0  0  0  0  0  0  0  0  0
   -1.1753   -1.3403    0.0191 H   0  0  0  0  0  0  0  0  0  0  0  0
   -1.9542    0.1792    3.4383 H   0  0  0  0  0  0  0  0  0  0  0  0
   -2.9571   -1.1948    5.2412 H   0  0  0  0  0  0  0  0  0  0  0  0
   -3.4354   -3.6095    4.8109 H   0  0  0  0  0  0  0  0  0  0  0  0
   -2.8758   -4.5448    2.5649 H   0  0  0  0  0  0  0  0  0  0  0  0
    1.2421    1.3730    0.2755 H   0  0  0  0  0  0  0  0  0  0  0  0
    0.0115    0.7611   -0.7932 H   0  0  0  0  0  0  0  0  0  0  0  0
    2.1436    0.0279   -1.6311 H   0  0  0  0  0  0  0  0  0  0  0  0
    1.2763   -1.3741   -1.0509 H   0  0  0  0  0  0  0  0  0  0  0  0
    3.2599   -1.8328   -0.0405 H   0  0  0  0  0  0  0  0  0  0  0  0
    4.8541   -0.0875    0.9244 H   0  0  0  0  0  0  0  0  0  0  0  0
    3.8059    1.1679    0.3008 H   0  0  0  0  0  0  0  0  0  0  0  0
    4.2936    2.0246   -1.8586 H   0  0  0  0  0  0  0  0  0  0  0  0
    5.5120    1.8771   -3.9986 H   0  0  0  0  0  0  0  0  0  0  0  0
    6.7979   -0.1665   -4.5670 H   0  0  0  0  0  0  0  0  0  0  0  0
    6.8651   -2.0693   -2.9770 H   0  0  0  0  0  0  0  0  0  0  0  0
    5.6551   -1.9384   -0.8299 H   0  0  0  0  0  0  0  0  0  0  0  0
    3.0122   -1.6104    2.2458 H   0  0  0  0  0  0  0  0  0  0  0  0
    2.6089    0.0976    2.1899 H   0  0  0  0  0  0  0  0  0  0  0  0
    0.7818   -2.1686    1.2682 H   0  0  0  0  0  0  0  0  0  0  0  0
    0.6808   -1.3182    2.8174 H   0  0  0  0  0  0  0  0  0  0  0  0
   -1.4232    1.9673    1.7752 H   0  0  0  0  0  0  0  0  0  0  0  0
   -5.0318    4.4758   -0.3673 H   0  0  0  0  0  0  0  0  0  0  0  0
   -6.6876    3.8596   -2.0932 H   0  0  0  0  0  0  0  0  0  0  0  0
   -6.6398    1.5435   -3.0226 H   0  0  0  0  0  0  0  0  0  0  0  0
  1  2  1  0
  2  3  2  0
  3  4  1  0
  4  5  1  0
  5  6  2  0
  6  7  1  0
  7  8  2  0
  8  9  1  0
  9 10  2  0
  4 11  1  0
 11 12  1  0
 12 13  1  0
 13 14  1  0
 14 15  1  0
 15 16  1  0
 16 17  2  0
 17 18  1  0
 18 19  2  0
 19 20  1  0
 20 21  2  0
 14 22  1  0
 22 23  1  0
  3 24  1  0
 24 25  2  0
 25 26  1  0
 25 27  1  0
 27 28  2  0
 28 29  1  0
 29 30  2  0
 30 31  1  0
 31 32  2  0
 32  2  1  0
 10  5  1  0
 23 11  1  0
 32 27  1  0
 21 16  1  0
  1 33  1  0
  4 34  1  0
  6 35  1  0
  7 36  1  0
  8 37  1  0
  9 38  1  0
 12 39  1  0
 12 40  1  0
 13 41  1  0
 13 42  1  0
 14 43  1  0
 15 44  1  0
 15 45  1  0
 17 46  1  0
 18 47  1  0
 19 48  1  0
 20 49  1  0
 21 50  1  0
 22 51  1  0
 22 52  1  0
 23 53  1  0
 23 54  1  0
 24 55  1  0
 28 56  1  0
 29 57  1  0
 30 58  1  0
M  END
$$$$
