
     RDKit          3D

 43 44  0  0  0  0  0  0  0  0999 V2000
    6.7653   -2.0271    0.4886 C   0  0  0  0  0  0  0  0  0  0  0  0
    5.8955   -1.1101   -0.1767 O   0  0  0  0  0  0  0  0  0  0  0  0
    4.6710   -0.9998    0.3954 C   0  0  0  0  0  0  0  0  0  0  0  0
    4.2819   -1.6108    1.3782 O   0  0  0  0  0  0  0  0  0  0  0  0
    3.8338   -0.0163   -0.3409 C   0  0  0  0  0  0  0  0  0  0  0  0
    4.2192    0.5236   -1.5746 C   0  0  0  0  0  0  0  0  0  0  0  0
    3.3928    1.4420   -2.2287 C   0  0  0  0  0  0  0  0  0  0  0  0
    2.1603    1.8041   -1.6793 C   0  0  0  0  0  0  0  0  0  0  0  0
    1.4044    2.8256   -2.2790 N   0  0  0  0  0  0  0  0  0  0  0  0
    1.7782    1.2758   -0.4266 C   0  0  0  0  0  0  0  0  0  0  0  0
    0.5526    1.6685    0.1493 N   0  0  0  0  0  0  0  0  0  0  0  0
   -0.3898    0.7828    0.1476 C   0  0  0  0  0  0  0  0  0  0  0  0
   -1.7504    1.0961    0.7029 C   0  0  0  0  0  0  0  0  0  0  0  0
   -2.7833    1.0741   -0.3975 C   0  0  0  0  0  0  0  0  0  0  0  0
   -2.9713    2.0526   -1.1223 O   0  0  0  0  0  0  0  0  0  0  0  0
   -3.4717   -0.2391   -0.7031 C   0  0  0  0  0  0  0  0  0  0  0  0
   -3.9477   -0.9577    0.5679 C   0  0  0  0  0  0  0  0  0  0  0  0
   -4.4856   -2.3473    0.1795 C   0  0  0  0  0  0  0  0  0  0  0  0
   -5.0875   -0.1709    1.2434 C   0  0  0  0  0  0  0  0  0  0  0  0
   -2.7652   -1.1372    1.5311 C   0  0  0  0  0  0  0  0  0  0  0  0
   -2.0929    0.1800    1.8509 C   0  0  0  0  0  0  0  0  0  0  0  0
   -1.7407    0.4308    3.0038 O   0  0  0  0  0  0  0  0  0  0  0  0
    2.6164    0.3708    0.2330 C   0  0  0  0  0  0  0  0  0  0  0  0
    7.7227   -2.0298   -0.0400 H   0  0  0  0  0  0  0  0  0  0  0  0
    6.9410   -1.7097    1.5213 H   0  0  0  0  0  0  0  0  0  0  0  0
    6.3497   -3.0393    0.4583 H   0  0  0  0  0  0  0  0  0  0  0  0
    5.1679    0.2536   -2.0322 H   0  0  0  0  0  0  0  0  0  0  0  0
    3.7249    1.8870   -3.1632 H   0  0  0  0  0  0  0  0  0  0  0  0
    1.4191    2.8448   -3.2908 H   0  0  0  0  0  0  0  0  0  0  0  0
    0.4730    2.8991   -1.8700 H   0  0  0  0  0  0  0  0  0  0  0  0
   -0.2417   -0.2289   -0.2755 H   0  0  0  0  0  0  0  0  0  0  0  0
   -1.7495    2.1166    1.1078 H   0  0  0  0  0  0  0  0  0  0  0  0
   -4.3206   -0.0387   -1.3680 H   0  0  0  0  0  0  0  0  0  0  0  0
   -2.7568   -0.8577   -1.2596 H   0  0  0  0  0  0  0  0  0  0  0  0
   -3.7117   -2.9512   -0.3076 H   0  0  0  0  0  0  0  0  0  0  0  0
   -5.3292   -2.2652   -0.5151 H   0  0  0  0  0  0  0  0  0  0  0  0
   -4.8311   -2.8986    1.0613 H   0  0  0  0  0  0  0  0  0  0  0  0
   -5.9413   -0.0578    0.5658 H   0  0  0  0  0  0  0  0  0  0  0  0
   -5.4436   -0.6891    2.1410 H   0  0  0  0  0  0  0  0  0  0  0  0
   -4.7743    0.8335    1.5464 H   0  0  0  0  0  0  0  0  0  0  0  0
   -3.1033   -1.5917    2.4703 H   0  0  0  0  0  0  0  0  0  0  0  0
   -2.0024   -1.7982    1.1019 H   0  0  0  0  0  0  0  0  0  0  0  0
    2.3219   -0.0190    1.2048 H   0  0  0  0  0  0  0  0  0  0  0  0
  1  2  1  0
  2  3  1  0
  3  4  2  0
  3  5  1  0
  5  6  2  0
  6  7  1  0
  7  8  2  0
  8  9  1  0
  8 10  1  0
 10 11  1  0
 11 12  2  3
 12 13  1  0
 13 14  1  0
 14 15  2  0
 14 16  1  0
 16 17  1  0
 17 18  1  0
 17 19  1  0
 17 20  1  0
 20 21  1  0
 21 22  2  0
 10 23  2  0
 23  5  1  0
 21 13  1  0
  1 24  1  0
  1 25  1  0
  1 26  1  0
  6 27  1  0
  7 28  1  0
  9 29  1  0
  9 30  1  0
 12 31  1  0
 13 32  1  0
 16 33  1  0
 16 34  1  0
 18 35  1  0
 18 36  1  0
 18 37  1  0
 19 38  1  0
 19 39  1  0
 19 40  1  0
 20 41  1  0
 20 42  1  0
 23 43  1  0
M  END
$$$$
