
     RDKit          3D

 43 46  0  0  0  0  0  0  0  0999 V2000
    7.3316   -0.6002    2.4738 C   0  0  0  0  0  0  0  0  0  0  0  0
    6.3934   -0.2990    1.3411 C   0  0  0  0  0  0  0  0  0  0  0  0
    6.8978    0.0090    0.0683 C   0  0  0  0  0  0  0  0  0  0  0  0
    6.0528    0.3238   -1.0044 C   0  0  0  0  0  0  0  0  0  0  0  0
    4.6831    0.3275   -0.7403 C   0  0  0  0  0  0  0  0  0  0  0  0
    3.5905    0.5843   -1.5288 N   0  0  0  0  0  0  0  0  0  0  0  0
    2.4484    0.4535   -0.7609 C   0  0  0  0  0  0  0  0  0  0  0  0
    1.1568    0.6689   -1.3448 C   0  0  0  0  0  0  0  0  0  0  0  0
    1.0502    1.0440   -2.7167 C   0  0  0  0  0  0  0  0  0  0  0  0
    1.0465    1.3543   -3.8353 N   0  0  0  0  0  0  0  0  0  0  0  0
    0.0863    0.4769   -0.5479 C   0  0  0  0  0  0  0  0  0  0  0  0
   -1.2871    0.6204   -0.9029 C   0  0  0  0  0  0  0  0  0  0  0  0
   -1.9418    1.3445   -1.8923 C   0  0  0  0  0  0  0  0  0  0  0  0
   -3.3334    1.1104   -1.7589 C   0  0  0  0  0  0  0  0  0  0  0  0
   -3.4893    0.2715   -0.6816 C   0  0  0  0  0  0  0  0  0  0  0  0
   -4.5744   -0.2940   -0.0883 N   0  0  0  0  0  0  0  0  0  0  0  0
   -5.8932    0.3273   -0.3077 C   0  0  0  0  0  0  0  0  0  0  0  0
   -7.0169   -0.6181    0.1422 C   0  0  0  0  0  0  0  0  0  0  0  0
   -6.8486   -1.0280    1.5072 O   0  0  0  0  0  0  0  0  0  0  0  0
   -5.6013   -1.7246    1.6540 C   0  0  0  0  0  0  0  0  0  0  0  0
   -4.4071   -0.8362    1.2764 C   0  0  0  0  0  0  0  0  0  0  0  0
   -2.2641   -0.0177   -0.1688 O   0  0  0  0  0  0  0  0  0  0  0  0
    2.7769    0.1265    0.4778 N   0  0  0  0  0  0  0  0  0  0  0  0
    4.1467    0.0429    0.5065 C   0  0  0  0  0  0  0  0  0  0  0  0
    5.0061   -0.2706    1.5696 C   0  0  0  0  0  0  0  0  0  0  0  0
    8.2421   -1.0863    2.1082 H   0  0  0  0  0  0  0  0  0  0  0  0
    7.6065    0.3257    2.9881 H   0  0  0  0  0  0  0  0  0  0  0  0
    6.8675   -1.2816    3.1945 H   0  0  0  0  0  0  0  0  0  0  0  0
    7.9740    0.0042   -0.1006 H   0  0  0  0  0  0  0  0  0  0  0  0
    6.4531    0.5547   -1.9858 H   0  0  0  0  0  0  0  0  0  0  0  0
    3.6318    0.8280   -2.5088 H   0  0  0  0  0  0  0  0  0  0  0  0
    0.2474    0.1435    0.4775 H   0  0  0  0  0  0  0  0  0  0  0  0
   -1.4879    1.9844   -2.6357 H   0  0  0  0  0  0  0  0  0  0  0  0
   -4.1195    1.5146   -2.3787 H   0  0  0  0  0  0  0  0  0  0  0  0
   -5.9475    1.2594    0.2690 H   0  0  0  0  0  0  0  0  0  0  0  0
   -6.0501    0.5658   -1.3656 H   0  0  0  0  0  0  0  0  0  0  0  0
   -7.9821   -0.1080    0.0659 H   0  0  0  0  0  0  0  0  0  0  0  0
   -7.0598   -1.5094   -0.4957 H   0  0  0  0  0  0  0  0  0  0  0  0
   -5.5166   -2.0341    2.7007 H   0  0  0  0  0  0  0  0  0  0  0  0
   -5.6255   -2.6326    1.0391 H   0  0  0  0  0  0  0  0  0  0  0  0
   -3.4954   -1.4393    1.3607 H   0  0  0  0  0  0  0  0  0  0  0  0
   -4.3364    0.0005    1.9829 H   0  0  0  0  0  0  0  0  0  0  0  0
    4.5884   -0.4868    2.5472 H   0  0  0  0  0  0  0  0  0  0  0  0
  1  2  1  0
  2  3  2  0
  3  4  1  0
  4  5  2  0
  5  6  1  0
  6  7  1  0
  7  8  1  0
  8  9  1  0
  9 10  3  0
  8 11  2  3
 11 12  1  0
 12 13  2  0
 13 14  1  0
 14 15  2  0
 15 16  1  0
 16 17  1  0
 17 18  1  0
 18 19  1  0
 19 20  1  0
 20 21  1  0
 15 22  1  0
  7 23  2  0
 23 24  1  0
 24 25  2  0
 25  2  1  0
 24  5  1  0
 22 12  1  0
 21 16  1  0
  1 26  1  0
  1 27  1  0
  1 28  1  0
  3 29  1  0
  4 30  1  0
  6 31  1  0
 11 32  1  0
 13 33  1  0
 14 34  1  0
 17 35  1  0
 17 36  1  0
 18 37  1  0
 18 38  1  0
 20 39  1  0
 20 40  1  0
 21 41  1  0
 21 42  1  0
 25 43  1  0
M  END
$$$$
