
     RDKit          3D

 46 48  0  0  0  0  0  0  0  0999 V2000
    6.4627    3.7730   -2.0290 C   0  0  0  0  0  0  0  0  0  0  0  0
    5.1039    3.3625   -2.0993 O   0  0  0  0  0  0  0  0  0  0  0  0
    4.8885    2.4279   -3.1612 C   0  0  0  0  0  0  0  0  0  0  0  0
    3.4209    2.0105   -3.1742 C   0  0  0  0  0  0  0  0  0  0  0  0
    3.1589    1.2140   -2.0075 O   0  0  0  0  0  0  0  0  0  0  0  0
    1.8745    0.7731   -1.8986 C   0  0  0  0  0  0  0  0  0  0  0  0
    1.0129    0.9692   -2.7480 O   0  0  0  0  0  0  0  0  0  0  0  0
    1.6304    0.0244   -0.6770 C   0  0  0  0  0  0  0  0  0  0  0  0
    2.5346   -0.2405    0.3430 C   0  0  0  0  0  0  0  0  0  0  0  0
    3.9547    0.1078    0.5760 C   0  0  0  0  0  0  0  0  0  0  0  0
    1.9467   -0.9822    1.3236 O   0  0  0  0  0  0  0  0  0  0  0  0
    0.6581   -1.1938    0.9543 C   0  0  0  0  0  0  0  0  0  0  0  0
   -0.2823   -1.9074    1.6935 C   0  0  0  0  0  0  0  0  0  0  0  0
   -1.5635   -2.0103    1.1420 C   0  0  0  0  0  0  0  0  0  0  0  0
   -1.8639   -1.4251   -0.0897 C   0  0  0  0  0  0  0  0  0  0  0  0
   -3.1900   -1.5083   -0.5993 N   0  0  0  0  0  0  0  0  0  0  0  0
   -4.2977   -0.3240   -0.1105 S   0  0  0  0  0  6  0  0  0  0  0  0
   -5.4183   -0.4240   -1.0221 O   0  0  0  0  0  0  0  0  0  0  0  0
   -3.6091    0.9312    0.0937 O   0  0  0  0  0  0  0  0  0  0  0  0
   -4.8505   -0.9366    1.4633 C   0  0  0  0  0  0  0  0  0  0  0  0
   -4.4112   -0.3230    2.6427 C   0  0  0  0  0  0  0  0  0  0  0  0
   -4.8605   -0.8050    3.8725 C   0  0  0  0  0  0  0  0  0  0  0  0
   -5.7447   -1.8799    3.9088 C   0  0  0  0  0  0  0  0  0  0  0  0
   -6.1724   -2.3398    5.0915 F   0  0  0  0  0  0  0  0  0  0  0  0
   -6.1941   -2.4839    2.7375 C   0  0  0  0  0  0  0  0  0  0  0  0
   -5.7497   -2.0093    1.5031 C   0  0  0  0  0  0  0  0  0  0  0  0
   -0.8975   -0.7072   -0.8076 C   0  0  0  0  0  0  0  0  0  0  0  0
    0.4021   -0.5943   -0.2717 C   0  0  0  0  0  0  0  0  0  0  0  0
    6.5650    4.4859   -1.2065 H   0  0  0  0  0  0  0  0  0  0  0  0
    7.1120    2.9148   -1.8306 H   0  0  0  0  0  0  0  0  0  0  0  0
    6.7626    4.2660   -2.9587 H   0  0  0  0  0  0  0  0  0  0  0  0
    5.1451    2.9033   -4.1141 H   0  0  0  0  0  0  0  0  0  0  0  0
    5.5277    1.5522   -3.0012 H   0  0  0  0  0  0  0  0  0  0  0  0
    2.7767    2.8969   -3.1537 H   0  0  0  0  0  0  0  0  0  0  0  0
    3.2189    1.4137   -4.0705 H   0  0  0  0  0  0  0  0  0  0  0  0
    4.5882   -0.3168   -0.2087 H   0  0  0  0  0  0  0  0  0  0  0  0
    4.3062   -0.2809    1.5372 H   0  0  0  0  0  0  0  0  0  0  0  0
    4.0880    1.1940    0.5859 H   0  0  0  0  0  0  0  0  0  0  0  0
   -0.0274   -2.3565    2.6458 H   0  0  0  0  0  0  0  0  0  0  0  0
   -2.3231   -2.5683    1.6841 H   0  0  0  0  0  0  0  0  0  0  0  0
   -3.2919   -1.6874   -1.5987 H   0  0  0  0  0  0  0  0  0  0  0  0
   -3.7239    0.5201    2.6109 H   0  0  0  0  0  0  0  0  0  0  0  0
   -4.5316   -0.3483    4.8012 H   0  0  0  0  0  0  0  0  0  0  0  0
   -6.8900   -3.3152    2.7955 H   0  0  0  0  0  0  0  0  0  0  0  0
   -6.1040   -2.4714    0.5842 H   0  0  0  0  0  0  0  0  0  0  0  0
   -1.1426   -0.2295   -1.7520 H   0  0  0  0  0  0  0  0  0  0  0  0
  1  2  1  0
  2  3  1  0
  3  4  1  0
  4  5  1  0
  5  6  1  0
  6  7  2  0
  6  8  1  0
  8  9  2  0
  9 10  1  0
  9 11  1  0
 11 12  1  0
 12 13  2  0
 13 14  1  0
 14 15  2  0
 15 16  1  0
 16 17  1  0
 17 18  2  0
 17 19  2  0
 17 20  1  0
 20 21  2  0
 21 22  1  0
 22 23  2  0
 23 24  1  0
 23 25  1  0
 25 26  2  0
 15 27  1  0
 27 28  2  0
 28  8  1  0
 28 12  1  0
 26 20  1  0
  1 29  1  0
  1 30  1  0
  1 31  1  0
  3 32  1  0
  3 33  1  0
  4 34  1  0
  4 35  1  0
 10 36  1  0
 10 37  1  0
 10 38  1  0
 13 39  1  0
 14 40  1  0
 16 41  1  0
 21 42  1  0
 22 43  1  0
 25 44  1  0
 26 45  1  0
 27 46  1  0
M  END
$$$$
