
     RDKit          3D

 43 45  0  0  0  0  0  0  0  0999 V2000
   -5.9437   -1.5717    0.8051 C   0  0  0  0  0  0  0  0  0  0  0  0
   -5.0643   -0.4494    0.4924 N   0  0  0  0  0  0  0  0  0  0  0  0
   -3.9614   -0.3597    1.4725 C   0  0  0  0  0  0  0  0  0  0  0  0
   -2.7447    0.4565    0.9749 C   0  0  0  0  0  0  0  0  0  0  0  0
   -2.1835   -0.1174   -0.2703 N   0  0  0  0  0  0  0  0  0  0  0  0
   -0.8088   -0.1776   -0.4540 C   0  0  0  0  0  0  0  0  0  0  0  0
   -0.1968   -1.3718   -0.8779 C   0  0  0  0  0  0  0  0  0  0  0  0
    1.1925   -1.4870   -1.0439 C   0  0  0  0  0  0  0  0  0  0  0  0
    2.0316   -0.4011   -0.7889 C   0  0  0  0  0  0  0  0  0  0  0  0
    3.4928   -0.5675   -0.9925 C   0  0  0  0  0  0  0  0  0  0  0  0
    3.8890   -1.3392   -1.8614 O   0  0  0  0  0  0  0  0  0  0  0  0
    4.4859    0.1760   -0.1773 C   0  0  0  0  0  0  0  0  0  0  0  0
    5.6779    0.5831   -0.7898 C   0  0  0  0  0  0  0  0  0  0  0  0
    6.6430    1.2756   -0.0551 C   0  0  0  0  0  0  0  0  0  0  0  0
    6.4195    1.5479    1.2937 C   0  0  0  0  0  0  0  0  0  0  0  0
    7.7250    2.4836    2.2900 Br  0  0  0  0  0  0  0  0  0  0  0  0
    5.2444    1.1277    1.9170 C   0  0  0  0  0  0  0  0  0  0  0  0
    4.2775    0.4340    1.1836 C   0  0  0  0  0  0  0  0  0  0  0  0
    1.4708    0.8153   -0.4123 C   0  0  0  0  0  0  0  0  0  0  0  0
    0.0750    0.9037   -0.2531 C   0  0  0  0  0  0  0  0  0  0  0  0
   -0.4302    2.2224    0.0618 N   0  0  0  0  0  4  0  0  0  0  0  0
   -0.2872    2.6048    1.2327 O   0  0  0  0  0  0  0  0  0  0  0  0
   -0.9065    2.8899   -0.8652 O   0  0  0  0  0  1  0  0  0  0  0  0
   -3.0931   -0.9935   -1.0333 C   0  0  0  0  0  0  0  0  0  0  0  0
   -4.5562   -0.5120   -0.8950 C   0  0  0  0  0  0  0  0  0  0  0  0
   -5.4342   -2.5366    0.7038 H   0  0  0  0  0  0  0  0  0  0  0  0
   -6.3265   -1.4879    1.8284 H   0  0  0  0  0  0  0  0  0  0  0  0
   -6.8166   -1.5713    0.1430 H   0  0  0  0  0  0  0  0  0  0  0  0
   -3.6032   -1.3650    1.7351 H   0  0  0  0  0  0  0  0  0  0  0  0
   -4.3437    0.0966    2.3930 H   0  0  0  0  0  0  0  0  0  0  0  0
   -3.0537    1.4915    0.7878 H   0  0  0  0  0  0  0  0  0  0  0  0
   -1.9958    0.4601    1.7760 H   0  0  0  0  0  0  0  0  0  0  0  0
   -0.7915   -2.2622   -1.0687 H   0  0  0  0  0  0  0  0  0  0  0  0
    1.6136   -2.4370   -1.3718 H   0  0  0  0  0  0  0  0  0  0  0  0
    5.8575    0.3605   -1.8403 H   0  0  0  0  0  0  0  0  0  0  0  0
    7.5628    1.5909   -0.5416 H   0  0  0  0  0  0  0  0  0  0  0  0
    5.0772    1.3271    2.9729 H   0  0  0  0  0  0  0  0  0  0  0  0
    3.3822    0.0875    1.6933 H   0  0  0  0  0  0  0  0  0  0  0  0
    2.0884    1.6994   -0.2713 H   0  0  0  0  0  0  0  0  0  0  0  0
   -2.8223   -0.9775   -2.0960 H   0  0  0  0  0  0  0  0  0  0  0  0
   -3.0188   -2.0275   -0.6748 H   0  0  0  0  0  0  0  0  0  0  0  0
   -5.2054   -1.1266   -1.5309 H   0  0  0  0  0  0  0  0  0  0  0  0
   -4.6186    0.5056   -1.3024 H   0  0  0  0  0  0  0  0  0  0  0  0
  1  2  1  0
  2  3  1  0
  3  4  1  0
  4  5  1  0
  5  6  1  0
  6  7  2  0
  7  8  1  0
  8  9  2  0
  9 10  1  0
 10 11  2  0
 10 12  1  0
 12 13  2  0
 13 14  1  0
 14 15  2  0
 15 16  1  0
 15 17  1  0
 17 18  2  0
  9 19  1  0
 19 20  2  0
 20 21  1  0
 21 22  2  0
 21 23  1  0
  5 24  1  0
 24 25  1  0
 25  2  1  0
 20  6  1  0
 18 12  1  0
  1 26  1  0
  1 27  1  0
  1 28  1  0
  3 29  1  0
  3 30  1  0
  4 31  1  0
  4 32  1  0
  7 33  1  0
  8 34  1  0
 13 35  1  0
 14 36  1  0
 17 37  1  0
 18 38  1  0
 19 39  1  0
 24 40  1  0
 24 41  1  0
 25 42  1  0
 25 43  1  0
M  CHG  2  21   1  23  -1
M  END
$$$$
