
     RDKit          3D

 45 47  0  0  0  0  0  0  0  0999 V2000
   -8.1711   -0.0489    0.4630 N   0  0  0  0  0  0  0  0  0  0  0  0
   -7.3969    1.4192    0.1799 S   0  0  0  0  0  6  0  0  0  0  0  0
   -7.7345    1.8581   -1.1523 O   0  0  0  0  0  0  0  0  0  0  0  0
   -7.6520    2.2228    1.3536 O   0  0  0  0  0  0  0  0  0  0  0  0
   -5.6929    0.9315    0.1913 C   0  0  0  0  0  0  0  0  0  0  0  0
   -4.8975    1.1865    1.3085 C   0  0  0  0  0  0  0  0  0  0  0  0
   -3.5556    0.7955    1.2985 C   0  0  0  0  0  0  0  0  0  0  0  0
   -3.0087    0.1376    0.1876 C   0  0  0  0  0  0  0  0  0  0  0  0
   -1.6410   -0.2021    0.2452 N   0  0  0  0  0  0  0  0  0  0  0  0
   -0.9205   -1.1810   -0.4306 C   0  0  0  0  0  0  0  0  0  0  0  0
   -1.5914   -2.5780   -1.0848 S   0  0  0  0  0  0  0  0  0  0  0  0
    0.4689   -0.9055   -0.4092 N   0  0  0  0  0  0  0  0  0  0  0  0
    1.4531   -1.9013   -0.8890 C   0  0  0  0  0  0  0  0  0  0  0  0
    2.8761   -1.6605   -0.3480 C   0  0  0  0  0  0  0  0  0  0  0  0
    3.3023   -0.2608   -0.5865 N   0  0  0  0  0  0  0  0  0  0  0  0
    4.6736   -0.0519   -0.3595 C   0  0  0  0  0  0  0  0  0  0  0  0
    5.1770    0.8204    0.6168 C   0  0  0  0  0  0  0  0  0  0  0  0
    6.5543    0.9979    0.7981 C   0  0  0  0  0  0  0  0  0  0  0  0
    7.4607    0.3116   -0.0029 C   0  0  0  0  0  0  0  0  0  0  0  0
    6.9896   -0.5480   -0.9882 C   0  0  0  0  0  0  0  0  0  0  0  0
    5.6130   -0.7220   -1.1627 C   0  0  0  0  0  0  0  0  0  0  0  0
    2.3534    0.7170   -0.0218 C   0  0  0  0  0  0  0  0  0  0  0  0
    0.9409    0.4861   -0.5878 C   0  0  0  0  0  0  0  0  0  0  0  0
   -3.8096   -0.0724   -0.9388 C   0  0  0  0  0  0  0  0  0  0  0  0
   -5.1519    0.3193   -0.9404 C   0  0  0  0  0  0  0  0  0  0  0  0
   -8.6546   -0.0008    1.3614 H   0  0  0  0  0  0  0  0  0  0  0  0
   -7.5475   -0.8535    0.4078 H   0  0  0  0  0  0  0  0  0  0  0  0
   -5.3057    1.6881    2.1834 H   0  0  0  0  0  0  0  0  0  0  0  0
   -2.9483    0.9993    2.1773 H   0  0  0  0  0  0  0  0  0  0  0  0
   -1.1385    0.1569    1.0467 H   0  0  0  0  0  0  0  0  0  0  0  0
    1.4564   -1.8525   -1.9852 H   0  0  0  0  0  0  0  0  0  0  0  0
    1.1435   -2.9083   -0.5929 H   0  0  0  0  0  0  0  0  0  0  0  0
    3.5436   -2.3823   -0.8319 H   0  0  0  0  0  0  0  0  0  0  0  0
    2.8936   -1.8640    0.7310 H   0  0  0  0  0  0  0  0  0  0  0  0
    4.5121    1.3723    1.2731 H   0  0  0  0  0  0  0  0  0  0  0  0
    6.9151    1.6753    1.5677 H   0  0  0  0  0  0  0  0  0  0  0  0
    8.5292    0.4517    0.1354 H   0  0  0  0  0  0  0  0  0  0  0  0
    7.6877   -1.0784   -1.6299 H   0  0  0  0  0  0  0  0  0  0  0  0
    5.2715   -1.3749   -1.9623 H   0  0  0  0  0  0  0  0  0  0  0  0
    2.3178    0.6226    1.0712 H   0  0  0  0  0  0  0  0  0  0  0  0
    2.6584    1.7395   -0.2753 H   0  0  0  0  0  0  0  0  0  0  0  0
    0.9344    0.6796   -1.6683 H   0  0  0  0  0  0  0  0  0  0  0  0
    0.2544    1.2068   -0.1360 H   0  0  0  0  0  0  0  0  0  0  0  0
   -3.4038   -0.5055   -1.8484 H   0  0  0  0  0  0  0  0  0  0  0  0
   -5.7587    0.1569   -1.8295 H   0  0  0  0  0  0  0  0  0  0  0  0
  1  2  1  0
  2  3  2  0
  2  4  2  0
  2  5  1  0
  5  6  2  0
  6  7  1  0
  7  8  2  0
  8  9  1  0
  9 10  1  0
 10 11  2  0
 10 12  1  0
 12 13  1  0
 13 14  1  0
 14 15  1  0
 15 16  1  0
 16 17  2  0
 17 18  1  0
 18 19  2  0
 19 20  1  0
 20 21  2  0
 15 22  1  0
 22 23  1  0
  8 24  1  0
 24 25  2  0
 25  5  1  0
 23 12  1  0
 21 16  1  0
  1 26  1  0
  1 27  1  0
  6 28  1  0
  7 29  1  0
  9 30  1  0
 13 31  1  0
 13 32  1  0
 14 33  1  0
 14 34  1  0
 17 35  1  0
 18 36  1  0
 19 37  1  0
 20 38  1  0
 21 39  1  0
 22 40  1  0
 22 41  1  0
 23 42  1  0
 23 43  1  0
 24 44  1  0
 25 45  1  0
M  END
$$$$
