
     RDKit          3D

 35 36  0  0  0  0  0  0  0  0999 V2000
   -6.4040    0.6818    2.5839 C   0  0  0  0  0  0  0  0  0  0  0  0
   -4.9902    0.1541    2.4181 C   0  0  0  0  0  0  0  0  0  0  0  0
   -4.4230    0.7709    1.2625 O   0  0  0  0  0  0  0  0  0  0  0  0
   -3.1381    0.4368    0.9430 C   0  0  0  0  0  0  0  0  0  0  0  0
   -2.3308   -0.4672    1.6242 C   0  0  0  0  0  0  0  0  0  0  0  0
   -1.0217   -0.7245    1.1884 C   0  0  0  0  0  0  0  0  0  0  0  0
   -0.4832   -0.0875    0.0633 C   0  0  0  0  0  0  0  0  0  0  0  0
    0.8401   -0.3523   -0.3762 N   0  0  0  0  0  0  0  0  0  0  0  0
    1.8015   -1.1695    0.2000 C   0  0  0  0  0  0  0  0  0  0  0  0
    1.6697   -1.8278    1.2280 O   0  0  0  0  0  0  0  0  0  0  0  0
    3.0934   -1.2165   -0.5987 C   0  0  0  0  0  0  0  0  0  0  0  0
    3.9482    0.3753   -0.4676 S   0  0  0  0  0  0  0  0  0  0  0  0
    5.3210    0.0563   -1.4845 C   0  0  0  0  0  0  0  0  0  0  0  0
    5.5020   -1.1102   -2.1775 N   0  0  0  0  0  0  0  0  0  0  0  0
    6.6406   -0.9108   -2.7992 C   0  0  0  0  0  0  0  0  0  0  0  0
    7.1146    0.3243   -2.4906 N   0  0  0  0  0  0  0  0  0  0  0  0
    6.2860    0.9640   -1.6527 N   0  0  0  0  0  0  0  0  0  0  0  0
   -1.3154    0.8298   -0.6184 C   0  0  0  0  0  0  0  0  0  0  0  0
   -0.8522    1.5600   -1.8080 N   0  0  0  0  0  4  0  0  0  0  0  0
    0.1792    1.1610   -2.3723 O   0  0  0  0  0  0  0  0  0  0  0  0
   -1.5157    2.5355   -2.1865 O   0  0  0  0  0  1  0  0  0  0  0  0
   -2.6286    1.0852   -0.1797 C   0  0  0  0  0  0  0  0  0  0  0  0
   -7.0058    0.4570    1.6971 H   0  0  0  0  0  0  0  0  0  0  0  0
   -6.8857    0.2380    3.4596 H   0  0  0  0  0  0  0  0  0  0  0  0
   -6.3981    1.7710    2.6973 H   0  0  0  0  0  0  0  0  0  0  0  0
   -4.4062    0.4082    3.3102 H   0  0  0  0  0  0  0  0  0  0  0  0
   -5.0269   -0.9336    2.2884 H   0  0  0  0  0  0  0  0  0  0  0  0
   -2.6808   -0.9987    2.5043 H   0  0  0  0  0  0  0  0  0  0  0  0
   -0.4488   -1.4444    1.7663 H   0  0  0  0  0  0  0  0  0  0  0  0
    1.1386    0.1490   -1.2158 H   0  0  0  0  0  0  0  0  0  0  0  0
    3.7228   -2.0183   -0.1987 H   0  0  0  0  0  0  0  0  0  0  0  0
    2.8545   -1.4497   -1.6420 H   0  0  0  0  0  0  0  0  0  0  0  0
    7.1504   -1.5973   -3.4600 H   0  0  0  0  0  0  0  0  0  0  0  0
    7.9630    0.7848   -2.8010 H   0  0  0  0  0  0  0  0  0  0  0  0
   -3.2706    1.7906   -0.7054 H   0  0  0  0  0  0  0  0  0  0  0  0
  1  2  1  0
  2  3  1  0
  3  4  1  0
  4  5  2  0
  5  6  1  0
  6  7  2  0
  7  8  1  0
  8  9  1  0
  9 10  2  0
  9 11  1  0
 11 12  1  0
 12 13  1  0
 13 14  1  0
 14 15  2  0
 15 16  1  0
 16 17  1  0
  7 18  1  0
 18 19  1  0
 19 20  2  0
 19 21  1  0
 18 22  2  0
 22  4  1  0
 17 13  2  0
  1 23  1  0
  1 24  1  0
  1 25  1  0
  2 26  1  0
  2 27  1  0
  5 28  1  0
  6 29  1  0
  8 30  1  0
 11 31  1  0
 11 32  1  0
 15 33  1  0
 16 34  1  0
 22 35  1  0
M  CHG  2  19   1  21  -1
M  END
$$$$
