
     RDKit          3D

 46 49  0  0  0  0  0  0  0  0999 V2000
   -0.7086    0.4333    2.9963 O   0  0  0  0  0  0  0  0  0  0  0  0
   -0.8113    0.1295    1.8105 C   0  0  0  0  0  0  0  0  0  0  0  0
    0.3835   -0.0513    1.0119 C   0  0  0  0  0  0  0  0  0  0  0  0
    1.2763   -1.0950    1.1421 C   0  0  0  0  0  0  0  0  0  0  0  0
    2.2630   -0.9031    0.2068 N   0  0  0  0  0  0  0  0  0  0  0  0
    3.3991   -1.7228   -0.0484 C   0  0  0  0  0  0  0  0  0  0  0  0
    4.2976   -1.3589   -1.0641 C   0  0  0  0  0  0  0  0  0  0  0  0
    5.4174   -2.1493   -1.3317 C   0  0  0  0  0  0  0  0  0  0  0  0
    5.6492   -3.3053   -0.5898 C   0  0  0  0  0  0  0  0  0  0  0  0
    4.7632   -3.6727    0.4215 C   0  0  0  0  0  0  0  0  0  0  0  0
    3.6397   -2.8866    0.6956 C   0  0  0  0  0  0  0  0  0  0  0  0
    2.0372    0.2166   -0.5246 N   0  0  0  0  0  0  0  0  0  0  0  0
    0.9340    0.7750   -0.0044 C   0  0  0  0  0  0  0  0  0  0  0  0
    0.4367    2.0555   -0.5128 C   0  0  0  0  0  0  0  0  0  0  0  0
    0.5332    2.3509   -1.8830 C   0  0  0  0  0  0  0  0  0  0  0  0
    0.0479    3.5606   -2.3846 C   0  0  0  0  0  0  0  0  0  0  0  0
   -0.5281    4.4789   -1.5162 C   0  0  0  0  0  0  0  0  0  0  0  0
   -0.9952    5.6386   -1.9964 F   0  0  0  0  0  0  0  0  0  0  0  0
   -0.6226    4.2138   -0.1554 C   0  0  0  0  0  0  0  0  0  0  0  0
   -0.1373    3.0039    0.3485 C   0  0  0  0  0  0  0  0  0  0  0  0
   -2.0476   -0.0649    1.1848 N   0  0  0  0  0  0  0  0  0  0  0  0
   -2.2149   -0.3184   -0.2495 C   0  0  0  0  0  0  0  0  0  0  0  0
   -3.4168   -1.2138   -0.5386 C   0  0  0  0  0  0  0  0  0  0  0  0
   -4.6799   -0.6891    0.1335 C   0  0  0  0  0  0  0  0  0  0  0  0
   -4.4460   -0.5158    1.6296 C   0  0  0  0  0  0  0  0  0  0  0  0
   -3.2412    0.3785    1.9018 C   0  0  0  0  0  0  0  0  0  0  0  0
    1.2680   -1.9351    1.8192 H   0  0  0  0  0  0  0  0  0  0  0  0
    4.1400   -0.4588   -1.6557 H   0  0  0  0  0  0  0  0  0  0  0  0
    6.1087   -1.8592   -2.1190 H   0  0  0  0  0  0  0  0  0  0  0  0
    6.5221   -3.9186   -0.7983 H   0  0  0  0  0  0  0  0  0  0  0  0
    4.9487   -4.5741    1.0009 H   0  0  0  0  0  0  0  0  0  0  0  0
    2.9801   -3.2110    1.4941 H   0  0  0  0  0  0  0  0  0  0  0  0
    0.9902    1.6360   -2.5650 H   0  0  0  0  0  0  0  0  0  0  0  0
    0.1211    3.7908   -3.4426 H   0  0  0  0  0  0  0  0  0  0  0  0
   -1.0644    4.9516    0.5069 H   0  0  0  0  0  0  0  0  0  0  0  0
   -0.1969    2.8250    1.4202 H   0  0  0  0  0  0  0  0  0  0  0  0
   -1.3243   -0.7904   -0.6721 H   0  0  0  0  0  0  0  0  0  0  0  0
   -2.3425    0.6545   -0.7385 H   0  0  0  0  0  0  0  0  0  0  0  0
   -3.2094   -2.2269   -0.1714 H   0  0  0  0  0  0  0  0  0  0  0  0
   -3.5722   -1.2887   -1.6206 H   0  0  0  0  0  0  0  0  0  0  0  0
   -4.9655    0.2717   -0.3115 H   0  0  0  0  0  0  0  0  0  0  0  0
   -5.5092   -1.3845   -0.0362 H   0  0  0  0  0  0  0  0  0  0  0  0
   -4.2777   -1.5001    2.0844 H   0  0  0  0  0  0  0  0  0  0  0  0
   -5.3390   -0.0905    2.1007 H   0  0  0  0  0  0  0  0  0  0  0  0
   -3.4484    1.4050    1.5749 H   0  0  0  0  0  0  0  0  0  0  0  0
   -3.0582    0.4155    2.9807 H   0  0  0  0  0  0  0  0  0  0  0  0
  1  2  2  0
  2  3  1  0
  3  4  2  0
  4  5  1  0
  5  6  1  0
  6  7  2  0
  7  8  1  0
  8  9  2  0
  9 10  1  0
 10 11  2  0
  5 12  1  0
 12 13  2  0
 13 14  1  0
 14 15  2  0
 15 16  1  0
 16 17  2  0
 17 18  1  0
 17 19  1  0
 19 20  2  0
  2 21  1  0
 21 22  1  0
 22 23  1  0
 23 24  1  0
 24 25  1  0
 25 26  1  0
 13  3  1  0
 20 14  1  0
 26 21  1  0
 11  6  1  0
  4 27  1  0
  7 28  1  0
  8 29  1  0
  9 30  1  0
 10 31  1  0
 11 32  1  0
 15 33  1  0
 16 34  1  0
 19 35  1  0
 20 36  1  0
 22 37  1  0
 22 38  1  0
 23 39  1  0
 23 40  1  0
 24 41  1  0
 24 42  1  0
 25 43  1  0
 25 44  1  0
 26 45  1  0
 26 46  1  0
M  END
$$$$
