
     RDKit          3D

 79 86  0  0  0  0  0  0  0  0999 V2000
    3.9508   -1.4366    5.4296 C   0  0  0  0  0  0  0  0  0  0  0  0
    2.7260   -1.7377    4.7725 O   0  0  0  0  0  0  0  0  0  0  0  0
    2.7686   -1.8599    3.4091 C   0  0  0  0  0  0  0  0  0  0  0  0
    3.8247   -1.4353    2.5980 C   0  0  0  0  0  0  0  0  0  0  0  0
    3.7629   -1.5896    1.2059 C   0  0  0  0  0  0  0  0  0  0  0  0
    2.6540   -2.1885    0.5984 C   0  0  0  0  0  0  0  0  0  0  0  0
    1.6029   -2.6139    1.4063 C   0  0  0  0  0  0  0  0  0  0  0  0
    1.6405   -2.4176    2.7971 C   0  0  0  0  0  0  0  0  0  0  0  0
    0.5470   -2.7594    3.5835 O   0  0  0  0  0  0  0  0  0  0  0  0
   -0.6312   -2.2238    3.1066 C   0  0  0  0  0  0  0  0  0  0  0  0
   -1.5213   -3.0604    2.4363 C   0  0  0  0  0  0  0  0  0  0  0  0
   -2.5363   -2.4907    1.6741 C   0  0  0  0  0  0  0  0  0  0  0  0
   -2.6860   -1.0955    1.6279 C   0  0  0  0  0  0  0  0  0  0  0  0
   -1.8788   -0.2845    2.4367 C   0  0  0  0  0  0  0  0  0  0  0  0
   -0.8412   -0.8469    3.1712 C   0  0  0  0  0  0  0  0  0  0  0  0
   -3.6677   -0.4747    0.6644 C   0  0  0  0  0  0  0  0  0  0  0  0
   -3.0101    0.0463   -0.6624 C   0  0  0  0  0  0  0  0  0  0  0  0
   -2.3809    1.4203   -0.4495 C   0  0  0  0  0  0  0  0  0  0  0  0
   -3.2499    2.5362   -0.4204 C   0  0  0  0  0  0  0  0  0  0  0  0
   -2.7604    3.8134   -0.1020 C   0  0  0  0  0  0  0  0  0  0  0  0
   -1.4009    4.0137    0.1283 C   0  0  0  0  0  0  0  0  0  0  0  0
   -0.8240    5.2208    0.4311 O   0  0  0  0  0  0  0  0  0  0  0  0
   -1.6840    6.3411    0.5738 C   0  0  0  0  0  0  0  0  0  0  0  0
   -0.5291    2.9232   -0.0002 C   0  0  0  0  0  0  0  0  0  0  0  0
   -0.9995    1.6338   -0.2927 C   0  0  0  0  0  0  0  0  0  0  0  0
   -0.1078    0.5867   -0.4563 O   0  0  0  0  0  0  0  0  0  0  0  0
    1.1891    0.9612   -0.7568 C   0  0  0  0  0  0  0  0  0  0  0  0
    1.6287    2.2557   -0.4710 C   0  0  0  0  0  0  0  0  0  0  0  0
    2.8977    2.6938   -0.8448 C   0  0  0  0  0  0  0  0  0  0  0  0
    3.7163    1.8600   -1.5988 C   0  0  0  0  0  0  0  0  0  0  0  0
    3.2774    0.5741   -1.9314 C   0  0  0  0  0  0  0  0  0  0  0  0
    2.0528    0.0788   -1.4251 C   0  0  0  0  0  0  0  0  0  0  0  0
    1.7207   -1.3762   -1.7157 C   0  0  0  0  0  0  0  0  0  0  0  0
    2.5883   -2.3908   -0.8961 C   0  0  0  0  0  0  0  0  0  0  0  0
    1.8706   -1.5583   -3.1757 N   0  0  0  0  0  0  0  0  0  0  0  0
    1.2997   -2.7913   -3.6885 C   0  0  0  0  0  0  0  0  0  0  0  0
    3.2425   -1.3269   -3.6556 C   0  0  0  0  0  0  0  0  0  0  0  0
    4.0878   -0.2951   -2.8619 C   0  0  0  0  0  0  0  0  0  0  0  0
    0.8165    3.1712    0.1441 O   0  0  0  0  0  0  0  0  0  0  0  0
   -4.7130    2.3848   -0.7855 C   0  0  0  0  0  0  0  0  0  0  0  0
   -5.1128    1.0323   -1.4138 C   0  0  0  0  0  0  0  0  0  0  0  0
   -3.9775    0.1804   -1.7805 N   0  0  0  0  0  0  0  0  0  0  0  0
   -4.4061   -1.0989   -2.3299 C   0  0  0  0  0  0  0  0  0  0  0  0
    4.7404   -2.1440    5.1511 H   0  0  0  0  0  0  0  0  0  0  0  0
    4.2576   -0.4031    5.2334 H   0  0  0  0  0  0  0  0  0  0  0  0
    3.7831   -1.5339    6.5073 H   0  0  0  0  0  0  0  0  0  0  0  0
    4.7066   -0.9581    3.0143 H   0  0  0  0  0  0  0  0  0  0  0  0
    4.5930   -1.2318    0.6008 H   0  0  0  0  0  0  0  0  0  0  0  0
    0.7420   -3.0868    0.9428 H   0  0  0  0  0  0  0  0  0  0  0  0
   -1.3546   -4.1335    2.4193 H   0  0  0  0  0  0  0  0  0  0  0  0
   -3.1752   -3.1361    1.0766 H   0  0  0  0  0  0  0  0  0  0  0  0
   -2.0058    0.7950    2.4445 H   0  0  0  0  0  0  0  0  0  0  0  0
   -0.1527   -0.2121    3.7222 H   0  0  0  0  0  0  0  0  0  0  0  0
   -4.2108    0.3214    1.1900 H   0  0  0  0  0  0  0  0  0  0  0  0
   -4.4244   -1.2352    0.4379 H   0  0  0  0  0  0  0  0  0  0  0  0
   -2.2252   -0.6504   -0.9835 H   0  0  0  0  0  0  0  0  0  0  0  0
   -3.4635    4.6391   -0.0699 H   0  0  0  0  0  0  0  0  0  0  0  0
   -2.1909    6.5707   -0.3692 H   0  0  0  0  0  0  0  0  0  0  0  0
   -1.0651    7.2053    0.8356 H   0  0  0  0  0  0  0  0  0  0  0  0
   -2.4045    6.1883    1.3829 H   0  0  0  0  0  0  0  0  0  0  0  0
    3.2128    3.7071   -0.6084 H   0  0  0  0  0  0  0  0  0  0  0  0
    4.6736    2.2294   -1.9562 H   0  0  0  0  0  0  0  0  0  0  0  0
    0.6677   -1.5418   -1.4561 H   0  0  0  0  0  0  0  0  0  0  0  0
    3.6193   -2.4273   -1.2632 H   0  0  0  0  0  0  0  0  0  0  0  0
    2.2024   -3.4039   -1.0721 H   0  0  0  0  0  0  0  0  0  0  0  0
    1.8328   -3.6808   -3.3370 H   0  0  0  0  0  0  0  0  0  0  0  0
    1.3227   -2.7975   -4.7843 H   0  0  0  0  0  0  0  0  0  0  0  0
    0.2475   -2.8819   -3.3989 H   0  0  0  0  0  0  0  0  0  0  0  0
    3.1750   -0.9813   -4.6954 H   0  0  0  0  0  0  0  0  0  0  0  0
    3.8119   -2.2659   -3.6919 H   0  0  0  0  0  0  0  0  0  0  0  0
    4.8467   -0.8152   -2.2643 H   0  0  0  0  0  0  0  0  0  0  0  0
    4.6249    0.3351   -3.5807 H   0  0  0  0  0  0  0  0  0  0  0  0
   -4.9630    3.1766   -1.5042 H   0  0  0  0  0  0  0  0  0  0  0  0
   -5.3171    2.5551    0.1155 H   0  0  0  0  0  0  0  0  0  0  0  0
   -5.7824    0.5107   -0.7175 H   0  0  0  0  0  0  0  0  0  0  0  0
   -5.7198    1.2373   -2.3045 H   0  0  0  0  0  0  0  0  0  0  0  0
   -3.5418   -1.7082   -2.6167 H   0  0  0  0  0  0  0  0  0  0  0  0
   -5.0223   -1.6793   -1.6364 H   0  0  0  0  0  0  0  0  0  0  0  0
   -4.9880   -0.9386   -3.2442 H   0  0  0  0  0  0  0  0  0  0  0  0
  1  2  1  0
  2  3  1  0
  3  4  2  0
  4  5  1  0
  5  6  2  0
  6  7  1  0
  7  8  2  0
  8  9  1  0
  9 10  1  0
 10 11  2  0
 11 12  1  0
 12 13  2  0
 13 14  1  0
 14 15  2  0
 13 16  1  0
 16 17  1  0
 17 18  1  0
 18 19  2  0
 19 20  1  0
 20 21  2  0
 21 22  1  0
 22 23  1  0
 21 24  1  0
 24 25  2  0
 25 26  1  0
 26 27  1  0
 27 28  2  0
 28 29  1  0
 29 30  2  0
 30 31  1  0
 31 32  2  0
 32 33  1  0
 33 34  1  0
 33 35  1  0
 35 36  1  0
 35 37  1  0
 37 38  1  0
 28 39  1  0
 19 40  1  0
 40 41  1  0
 41 42  1  0
 42 43  1  0
  8  3  1  0
 15 10  1  0
 42 17  1  0
 34  6  1  0
 25 18  1  0
 32 27  1  0
 39 24  1  0
 38 31  1  0
  1 44  1  0
  1 45  1  0
  1 46  1  0
  4 47  1  0
  5 48  1  0
  7 49  1  0
 11 50  1  0
 12 51  1  0
 14 52  1  0
 15 53  1  0
 16 54  1  0
 16 55  1  0
 17 56  1  0
 20 57  1  0
 23 58  1  0
 23 59  1  0
 23 60  1  0
 29 61  1  0
 30 62  1  0
 33 63  1  0
 34 64  1  0
 34 65  1  0
 36 66  1  0
 36 67  1  0
 36 68  1  0
 37 69  1  0
 37 70  1  0
 38 71  1  0
 38 72  1  0
 40 73  1  0
 40 74  1  0
 41 75  1  0
 41 76  1  0
 43 77  1  0
 43 78  1  0
 43 79  1  0
M  END
$$$$
