
     RDKit          3D

 48 50  0  0  0  0  0  0  0  0999 V2000
   -2.7665   -1.2651   -2.5322 C   0  0  0  0  0  0  0  0  0  0  0  0
   -3.9237   -0.7889   -1.6629 C   0  0  0  0  0  0  0  0  0  0  0  0
   -3.7401   -1.1297   -0.1700 C   0  0  0  0  0  0  0  0  0  0  0  0
   -2.6672   -0.3584    0.4241 N   0  0  0  0  0  0  0  0  0  0  0  0
   -1.3913   -0.8426    0.6014 C   0  0  0  0  0  0  0  0  0  0  0  0
   -1.0502   -1.9841    0.3065 O   0  0  0  0  0  0  0  0  0  0  0  0
   -0.4596    0.1296    1.1762 C   0  0  0  0  0  0  0  0  0  0  0  0
    0.9135   -0.0649    1.4693 C   0  0  0  0  0  0  0  0  0  0  0  0
    1.3368    1.1398    1.9746 C   0  0  0  0  0  0  0  0  0  0  0  0
    2.6266    1.6605    2.4815 C   0  0  0  0  0  0  0  0  0  0  0  0
    3.3282    2.2739    1.4015 O   0  0  0  0  0  0  0  0  0  0  0  0
    4.1369    1.5322    0.5842 C   0  0  0  0  0  0  0  0  0  0  0  0
    4.4750    0.1933    0.7844 C   0  0  0  0  0  0  0  0  0  0  0  0
    5.3147   -0.4658   -0.1217 C   0  0  0  0  0  0  0  0  0  0  0  0
    5.8328    0.1946   -1.2368 C   0  0  0  0  0  0  0  0  0  0  0  0
    6.6364   -0.5726   -2.0327 O   0  0  0  0  0  0  0  0  0  0  0  0
    7.1783    0.0483   -3.1925 C   0  0  0  0  0  0  0  0  0  0  0  0
    5.5066    1.5313   -1.4432 C   0  0  0  0  0  0  0  0  0  0  0  0
    4.6667    2.1925   -0.5380 C   0  0  0  0  0  0  0  0  0  0  0  0
    4.3000    3.8561   -0.8538 Cl  0  0  0  0  0  0  0  0  0  0  0  0
    0.2867    2.0048    1.9939 O   0  0  0  0  0  0  0  0  0  0  0  0
   -0.8425    1.3785    1.4986 N   0  0  0  0  0  0  0  0  0  0  0  0
   -5.0075   -0.9058    0.6355 C   0  0  0  0  0  0  0  0  0  0  0  0
   -5.4396   -1.8860    1.5374 C   0  0  0  0  0  0  0  0  0  0  0  0
   -6.5877   -1.6560    2.2799 C   0  0  0  0  0  0  0  0  0  0  0  0
   -7.3240   -0.5289    2.1939 N   0  0  0  0  0  0  0  0  0  0  0  0
   -6.8877    0.4129    1.3323 C   0  0  0  0  0  0  0  0  0  0  0  0
   -5.7525    0.2764    0.5471 C   0  0  0  0  0  0  0  0  0  0  0  0
   -1.8377   -0.7440   -2.2823 H   0  0  0  0  0  0  0  0  0  0  0  0
   -2.9839   -1.0671   -3.5867 H   0  0  0  0  0  0  0  0  0  0  0  0
   -2.6041   -2.3412   -2.4172 H   0  0  0  0  0  0  0  0  0  0  0  0
   -4.8433   -1.2590   -2.0342 H   0  0  0  0  0  0  0  0  0  0  0  0
   -4.0388    0.2927   -1.8045 H   0  0  0  0  0  0  0  0  0  0  0  0
   -3.4787   -2.1940   -0.1072 H   0  0  0  0  0  0  0  0  0  0  0  0
   -2.8315    0.6046    0.7000 H   0  0  0  0  0  0  0  0  0  0  0  0
    1.4941   -0.9625    1.3158 H   0  0  0  0  0  0  0  0  0  0  0  0
    3.2174    0.9042    3.0063 H   0  0  0  0  0  0  0  0  0  0  0  0
    2.4333    2.4489    3.2184 H   0  0  0  0  0  0  0  0  0  0  0  0
    4.1147   -0.3805    1.6298 H   0  0  0  0  0  0  0  0  0  0  0  0
    5.5693   -1.5108    0.0457 H   0  0  0  0  0  0  0  0  0  0  0  0
    6.3847    0.3728   -3.8736 H   0  0  0  0  0  0  0  0  0  0  0  0
    7.7847   -0.6959   -3.7176 H   0  0  0  0  0  0  0  0  0  0  0  0
    7.8343    0.8824   -2.9228 H   0  0  0  0  0  0  0  0  0  0  0  0
    5.8884    2.0836   -2.2948 H   0  0  0  0  0  0  0  0  0  0  0  0
   -4.8932   -2.8152    1.6670 H   0  0  0  0  0  0  0  0  0  0  0  0
   -6.9537   -2.3953    2.9868 H   0  0  0  0  0  0  0  0  0  0  0  0
   -7.4924    1.3143    1.2884 H   0  0  0  0  0  0  0  0  0  0  0  0
   -5.4629    1.0863   -0.1136 H   0  0  0  0  0  0  0  0  0  0  0  0
  1  2  1  0
  2  3  1  0
  3  4  1  0
  4  5  1  0
  5  6  2  0
  5  7  1  0
  7  8  1  0
  8  9  2  0
  9 10  1  0
 10 11  1  0
 11 12  1  0
 12 13  2  0
 13 14  1  0
 14 15  2  0
 15 16  1  0
 16 17  1  0
 15 18  1  0
 18 19  2  0
 19 20  1  0
  9 21  1  0
 21 22  1  0
  3 23  1  0
 23 24  2  0
 24 25  1  0
 25 26  2  0
 26 27  1  0
 27 28  2  0
 22  7  2  0
 28 23  1  0
 19 12  1  0
  1 29  1  0
  1 30  1  0
  1 31  1  0
  2 32  1  0
  2 33  1  0
  3 34  1  0
  4 35  1  0
  8 36  1  0
 10 37  1  0
 10 38  1  0
 13 39  1  0
 14 40  1  0
 17 41  1  0
 17 42  1  0
 17 43  1  0
 18 44  1  0
 24 45  1  0
 25 46  1  0
 27 47  1  0
 28 48  1  0
M  END
$$$$
