
     RDKit          3D

 49 52  0  0  0  0  0  0  0  0999 V2000
   -7.5278   -0.2174    1.8737 C   0  0  0  0  0  0  0  0  0  0  0  0
   -6.5433   -0.1105    0.7461 C   0  0  0  0  0  0  0  0  0  0  0  0
   -6.9819   -0.1425   -0.5825 C   0  0  0  0  0  0  0  0  0  0  0  0
   -6.0727   -0.0024   -1.6359 C   0  0  0  0  0  0  0  0  0  0  0  0
   -6.5438   -0.0771   -3.0581 C   0  0  0  0  0  0  0  0  0  0  0  0
   -4.7102    0.1531   -1.3448 C   0  0  0  0  0  0  0  0  0  0  0  0
   -4.2536    0.1985   -0.0204 C   0  0  0  0  0  0  0  0  0  0  0  0
   -2.8679    0.3810    0.1760 N   0  0  0  0  0  0  0  0  0  0  0  0
   -2.1809    0.3770    1.3766 C   0  0  0  0  0  0  0  0  0  0  0  0
   -2.6372    0.1429    2.4887 O   0  0  0  0  0  0  0  0  0  0  0  0
   -0.7203    0.6502    1.2581 C   0  0  0  0  0  0  0  0  0  0  0  0
   -0.2177    1.5803    0.3390 C   0  0  0  0  0  0  0  0  0  0  0  0
    1.1600    1.8062    0.2605 C   0  0  0  0  0  0  0  0  0  0  0  0
    2.0435    1.1074    1.0887 C   0  0  0  0  0  0  0  0  0  0  0  0
    3.4190    1.3566    1.0240 N   0  0  0  0  0  0  0  0  0  0  0  0
    4.1751    0.6493    0.2523 C   0  0  0  0  0  0  0  0  0  0  0  0
    5.5250    0.8561    0.1602 N   0  0  0  0  0  0  0  0  0  0  0  0
    6.1519    0.3240   -1.0401 C   0  0  0  0  0  0  0  0  0  0  0  0
    7.6275    0.0171   -0.8321 C   0  0  0  0  0  0  0  0  0  0  0  0
    7.7523   -1.7499   -0.6727 S   0  0  0  0  0  6  0  0  0  0  0  0
    8.2112   -2.2771   -1.9421 O   0  0  0  0  0  0  0  0  0  0  0  0
    8.4015   -2.0760    0.5777 O   0  0  0  0  0  0  0  0  0  0  0  0
    6.0155   -2.0856   -0.5412 C   0  0  0  0  0  0  0  0  0  0  0  0
    5.3909   -0.9726   -1.3644 C   0  0  0  0  0  0  0  0  0  0  0  0
    3.6767   -0.6442   -0.8369 S   0  0  0  0  0  0  0  0  0  0  0  0
    1.5333    0.2103    2.0311 C   0  0  0  0  0  0  0  0  0  0  0  0
    0.1580   -0.0205    2.1172 C   0  0  0  0  0  0  0  0  0  0  0  0
   -5.1790    0.0771    1.0172 C   0  0  0  0  0  0  0  0  0  0  0  0
   -7.0693   -0.6875    2.7501 H   0  0  0  0  0  0  0  0  0  0  0  0
   -8.3850   -0.8352    1.5864 H   0  0  0  0  0  0  0  0  0  0  0  0
   -7.8866    0.7781    2.1523 H   0  0  0  0  0  0  0  0  0  0  0  0
   -8.0406   -0.2763   -0.7963 H   0  0  0  0  0  0  0  0  0  0  0  0
   -5.8967    0.5122   -3.7162 H   0  0  0  0  0  0  0  0  0  0  0  0
   -6.5413   -1.1170   -3.3988 H   0  0  0  0  0  0  0  0  0  0  0  0
   -7.5575    0.3254   -3.1552 H   0  0  0  0  0  0  0  0  0  0  0  0
   -4.0055    0.2407   -2.1680 H   0  0  0  0  0  0  0  0  0  0  0  0
   -2.3150    0.4532   -0.6674 H   0  0  0  0  0  0  0  0  0  0  0  0
   -0.8822    2.1598   -0.2953 H   0  0  0  0  0  0  0  0  0  0  0  0
    1.5504    2.5381   -0.4413 H   0  0  0  0  0  0  0  0  0  0  0  0
    5.8108    1.7693    0.5024 H   0  0  0  0  0  0  0  0  0  0  0  0
    6.0312    1.0630   -1.8419 H   0  0  0  0  0  0  0  0  0  0  0  0
    8.2179    0.3043   -1.7072 H   0  0  0  0  0  0  0  0  0  0  0  0
    8.0441    0.4892    0.0616 H   0  0  0  0  0  0  0  0  0  0  0  0
    5.8043   -3.0812   -0.9388 H   0  0  0  0  0  0  0  0  0  0  0  0
    5.7562   -2.0461    0.5219 H   0  0  0  0  0  0  0  0  0  0  0  0
    5.4385   -1.1985   -2.4352 H   0  0  0  0  0  0  0  0  0  0  0  0
    2.2112   -0.3075    2.7043 H   0  0  0  0  0  0  0  0  0  0  0  0
   -0.2265   -0.7212    2.8556 H   0  0  0  0  0  0  0  0  0  0  0  0
   -4.8636    0.1259    2.0553 H   0  0  0  0  0  0  0  0  0  0  0  0
  1  2  1  0
  2  3  2  0
  3  4  1  0
  4  5  1  0
  4  6  2  0
  6  7  1  0
  7  8  1  0
  8  9  1  0
  9 10  2  0
  9 11  1  0
 11 12  2  0
 12 13  1  0
 13 14  2  0
 14 15  1  0
 15 16  2  3
 16 17  1  0
 17 18  1  0
 18 19  1  0
 19 20  1  0
 20 21  2  0
 20 22  2  0
 20 23  1  0
 23 24  1  0
 24 25  1  0
 14 26  1  0
 26 27  2  0
  7 28  2  0
 28  2  1  0
 27 11  1  0
 25 16  1  0
 24 18  1  0
  1 29  1  0
  1 30  1  0
  1 31  1  0
  3 32  1  0
  5 33  1  0
  5 34  1  0
  5 35  1  0
  6 36  1  0
  8 37  1  0
 12 38  1  0
 13 39  1  0
 17 40  1  0
 18 41  1  0
 19 42  1  0
 19 43  1  0
 23 44  1  0
 23 45  1  0
 24 46  1  0
 26 47  1  0
 27 48  1  0
 28 49  1  0
M  END
$$$$
