
     RDKit          3D

 46 48  0  0  0  0  0  0  0  0999 V2000
   -5.5440    3.0948   -1.1413 C   0  0  0  0  0  0  0  0  0  0  0  0
   -5.5390    1.9760   -0.2672 O   0  0  0  0  0  0  0  0  0  0  0  0
   -4.3217    1.4597    0.1039 C   0  0  0  0  0  0  0  0  0  0  0  0
   -3.0878    1.9449   -0.3431 C   0  0  0  0  0  0  0  0  0  0  0  0
   -1.8942    1.3470    0.0812 C   0  0  0  0  0  0  0  0  0  0  0  0
   -1.9233    0.2690    0.9733 C   0  0  0  0  0  0  0  0  0  0  0  0
   -3.1604   -0.2094    1.4311 C   0  0  0  0  0  0  0  0  0  0  0  0
   -4.3586    0.3701    0.9967 C   0  0  0  0  0  0  0  0  0  0  0  0
   -5.6076   -0.0433    1.3909 O   0  0  0  0  0  0  0  0  0  0  0  0
   -5.6893   -1.1530    2.2731 C   0  0  0  0  0  0  0  0  0  0  0  0
   -0.6375   -0.3200    1.5062 C   0  0  0  0  0  0  0  0  0  0  0  0
    0.5523   -0.1544    0.6464 N   0  0  0  0  0  0  0  0  0  0  0  0
    1.7676   -0.8007    0.9722 C   0  0  0  0  0  0  0  0  0  0  0  0
    2.0689   -1.5001    2.4752 S   0  0  0  0  0  0  0  0  0  0  0  0
    2.6440   -0.8538   -0.1061 N   0  0  0  0  0  0  0  0  0  0  0  0
    4.0519   -1.0227   -0.1370 C   0  0  0  0  0  0  0  0  0  0  0  0
    4.8549   -0.5306    0.9017 C   0  0  0  0  0  0  0  0  0  0  0  0
    6.2441   -0.6245    0.8443 C   0  0  0  0  0  0  0  0  0  0  0  0
    6.8507   -1.1881   -0.2703 C   0  0  0  0  0  0  0  0  0  0  0  0
    6.0697   -1.6609   -1.3281 C   0  0  0  0  0  0  0  0  0  0  0  0
    6.9230   -2.3003   -2.6923 Cl  0  0  0  0  0  0  0  0  0  0  0  0
    4.6610   -1.5998   -1.2788 C   0  0  0  0  0  0  0  0  0  0  0  0
    3.8200   -2.1177   -2.4190 C   0  0  0  0  0  0  0  0  0  0  0  0
    0.4022    0.6795   -0.5593 C   0  0  0  0  0  0  0  0  0  0  0  0
   -0.5565    1.8544   -0.3741 C   0  0  0  0  0  0  0  0  0  0  0  0
   -6.5865    3.3770   -1.3176 H   0  0  0  0  0  0  0  0  0  0  0  0
   -5.1008    2.8412   -2.1098 H   0  0  0  0  0  0  0  0  0  0  0  0
   -5.0399    3.9542   -0.6870 H   0  0  0  0  0  0  0  0  0  0  0  0
   -3.0291    2.7867   -1.0248 H   0  0  0  0  0  0  0  0  0  0  0  0
   -3.1618   -1.0348    2.1362 H   0  0  0  0  0  0  0  0  0  0  0  0
   -5.2164   -0.9281    3.2347 H   0  0  0  0  0  0  0  0  0  0  0  0
   -5.2589   -2.0520    1.8197 H   0  0  0  0  0  0  0  0  0  0  0  0
   -6.7484   -1.3520    2.4631 H   0  0  0  0  0  0  0  0  0  0  0  0
   -0.4229    0.1551    2.4711 H   0  0  0  0  0  0  0  0  0  0  0  0
   -0.7785   -1.3956    1.6678 H   0  0  0  0  0  0  0  0  0  0  0  0
    2.1662   -1.0155   -0.9808 H   0  0  0  0  0  0  0  0  0  0  0  0
    4.4187   -0.0262    1.7595 H   0  0  0  0  0  0  0  0  0  0  0  0
    6.8488   -0.2397    1.6615 H   0  0  0  0  0  0  0  0  0  0  0  0
    7.9355   -1.2461   -0.3163 H   0  0  0  0  0  0  0  0  0  0  0  0
    3.4576   -1.2809   -3.0244 H   0  0  0  0  0  0  0  0  0  0  0  0
    4.3579   -2.8073   -3.0740 H   0  0  0  0  0  0  0  0  0  0  0  0
    2.9653   -2.6890   -2.0406 H   0  0  0  0  0  0  0  0  0  0  0  0
    1.3760    1.0746   -0.8672 H   0  0  0  0  0  0  0  0  0  0  0  0
    0.0445    0.0158   -1.3569 H   0  0  0  0  0  0  0  0  0  0  0  0
   -0.1682    2.5529    0.3767 H   0  0  0  0  0  0  0  0  0  0  0  0
   -0.6496    2.3938   -1.3235 H   0  0  0  0  0  0  0  0  0  0  0  0
  1  2  1  0
  2  3  1  0
  3  4  2  0
  4  5  1  0
  5  6  2  0
  6  7  1  0
  7  8  2  0
  8  9  1  0
  9 10  1  0
  6 11  1  0
 11 12  1  0
 12 13  1  0
 13 14  2  0
 13 15  1  0
 15 16  1  0
 16 17  2  0
 17 18  1  0
 18 19  2  0
 19 20  1  0
 20 21  1  0
 20 22  2  0
 22 23  1  0
 12 24  1  0
 24 25  1  0
  8  3  1  0
 22 16  1  0
 25  5  1  0
  1 26  1  0
  1 27  1  0
  1 28  1  0
  4 29  1  0
  7 30  1  0
 10 31  1  0
 10 32  1  0
 10 33  1  0
 11 34  1  0
 11 35  1  0
 15 36  1  0
 17 37  1  0
 18 38  1  0
 19 39  1  0
 23 40  1  0
 23 41  1  0
 23 42  1  0
 24 43  1  0
 24 44  1  0
 25 45  1  0
 25 46  1  0
M  END
$$$$
