
     RDKit          3D

 46 48  0  0  0  0  0  0  0  0999 V2000
    5.5478   -2.2467    0.6561 C   0  0  0  0  0  0  0  0  0  0  0  0
    5.0628   -1.8997   -0.6348 O   0  0  0  0  0  0  0  0  0  0  0  0
    3.9358   -1.1277   -0.6838 C   0  0  0  0  0  0  0  0  0  0  0  0
    3.4707   -0.8530   -1.9699 C   0  0  0  0  0  0  0  0  0  0  0  0
    2.3233   -0.0780   -2.1700 C   0  0  0  0  0  0  0  0  0  0  0  0
    1.6074    0.4366   -1.0799 C   0  0  0  0  0  0  0  0  0  0  0  0
    0.3607    1.3038   -1.2431 C   0  0  0  0  0  0  0  0  0  0  0  0
   -0.0899    1.6301   -2.6724 C   0  0  0  0  0  0  0  0  0  0  0  0
   -0.7889    0.8169   -0.4369 N   0  0  0  0  0  0  0  0  0  0  0  0
   -1.5269    1.6348    0.4295 C   0  0  0  0  0  0  0  0  0  0  0  0
   -1.3324    3.1136    0.5042 C   0  0  0  0  0  0  0  0  0  0  0  0
   -2.3664    0.7990    1.1414 C   0  0  0  0  0  0  0  0  0  0  0  0
   -3.2371    1.1364    2.1982 C   0  0  0  0  0  0  0  0  0  0  0  0
   -3.4883    2.4460    2.8573 C   0  0  0  0  0  0  0  0  0  0  0  0
   -3.9321    0.0443    2.6481 N   0  0  0  0  0  0  0  0  0  0  0  0
   -3.7831   -1.3102    2.1103 N   0  0  0  0  0  0  0  0  0  0  0  0
   -2.9305   -1.6486    1.0921 C   0  0  0  0  0  0  0  0  0  0  0  0
   -2.8795   -3.0717    0.6623 C   0  0  0  0  0  0  0  0  0  0  0  0
   -2.2205   -0.5277    0.6149 C   0  0  0  0  0  0  0  0  0  0  0  0
   -1.2903   -0.4873   -0.4080 C   0  0  0  0  0  0  0  0  0  0  0  0
   -0.8186   -1.5776   -1.3115 C   0  0  0  0  0  0  0  0  0  0  0  0
    2.0979    0.1668    0.2117 C   0  0  0  0  0  0  0  0  0  0  0  0
    3.2456   -0.6106    0.4090 C   0  0  0  0  0  0  0  0  0  0  0  0
    4.8049   -2.8252    1.2157 H   0  0  0  0  0  0  0  0  0  0  0  0
    6.4305   -2.8793    0.5224 H   0  0  0  0  0  0  0  0  0  0  0  0
    5.8577   -1.3564    1.2133 H   0  0  0  0  0  0  0  0  0  0  0  0
    4.0078   -1.2489   -2.8290 H   0  0  0  0  0  0  0  0  0  0  0  0
    2.0059    0.1027   -3.1936 H   0  0  0  0  0  0  0  0  0  0  0  0
    0.6600    2.2601   -0.7961 H   0  0  0  0  0  0  0  0  0  0  0  0
   -0.3709    0.7368   -3.2382 H   0  0  0  0  0  0  0  0  0  0  0  0
    0.7065    2.1395   -3.2259 H   0  0  0  0  0  0  0  0  0  0  0  0
   -0.9615    2.2944   -2.6660 H   0  0  0  0  0  0  0  0  0  0  0  0
   -0.5459    3.3567    1.2251 H   0  0  0  0  0  0  0  0  0  0  0  0
   -1.0647    3.5415   -0.4664 H   0  0  0  0  0  0  0  0  0  0  0  0
   -2.2496    3.6248    0.8044 H   0  0  0  0  0  0  0  0  0  0  0  0
   -4.0836    2.3133    3.7667 H   0  0  0  0  0  0  0  0  0  0  0  0
   -2.5460    2.9212    3.1442 H   0  0  0  0  0  0  0  0  0  0  0  0
   -4.0426    3.1076    2.1857 H   0  0  0  0  0  0  0  0  0  0  0  0
   -3.4375   -3.7059    1.3587 H   0  0  0  0  0  0  0  0  0  0  0  0
   -3.3276   -3.1846   -0.3287 H   0  0  0  0  0  0  0  0  0  0  0  0
   -1.8475   -3.4319    0.6398 H   0  0  0  0  0  0  0  0  0  0  0  0
   -1.6582   -2.1968   -1.6407 H   0  0  0  0  0  0  0  0  0  0  0  0
   -0.3543   -1.2080   -2.2258 H   0  0  0  0  0  0  0  0  0  0  0  0
   -0.0986   -2.2174   -0.7916 H   0  0  0  0  0  0  0  0  0  0  0  0
    1.5786    0.5568    1.0868 H   0  0  0  0  0  0  0  0  0  0  0  0
    3.5688   -0.7907    1.4289 H   0  0  0  0  0  0  0  0  0  0  0  0
  1  2  1  0
  2  3  1  0
  3  4  2  0
  4  5  1  0
  5  6  2  0
  6  7  1  0
  7  8  1  0
  7  9  1  0
  9 10  1  0
 10 11  1  0
 10 12  2  0
 12 13  1  0
 13 14  1  0
 13 15  2  0
 15 16  1  0
 16 17  2  0
 17 18  1  0
 17 19  1  0
 19 20  2  0
 20 21  1  0
  6 22  1  0
 22 23  2  0
 23  3  1  0
 20  9  1  0
 19 12  1  0
  1 24  1  0
  1 25  1  0
  1 26  1  0
  4 27  1  0
  5 28  1  0
  7 29  1  0
  8 30  1  0
  8 31  1  0
  8 32  1  0
 11 33  1  0
 11 34  1  0
 11 35  1  0
 14 36  1  0
 14 37  1  0
 14 38  1  0
 18 39  1  0
 18 40  1  0
 18 41  1  0
 21 42  1  0
 21 43  1  0
 21 44  1  0
 22 45  1  0
 23 46  1  0
M  END
$$$$
