
     RDKit          3D

 62 66  0  0  0  0  0  0  0  0999 V2000
   -9.5666   -1.3189   -2.0454 C   0  0  0  0  0  0  0  0  0  0  0  0
   -8.4389   -0.7099   -1.2484 C   0  0  0  0  0  0  0  0  0  0  0  0
   -8.7130    0.0227   -0.1527 C   0  0  0  0  0  0  0  0  0  0  0  0
   -7.6521    0.6468    0.6466 C   0  0  0  0  0  0  0  0  0  0  0  0
   -7.9946    1.4091    1.7710 C   0  0  0  0  0  0  0  0  0  0  0  0
   -7.0020    2.0182    2.5350 C   0  0  0  0  0  0  0  0  0  0  0  0
   -5.6654    1.8701    2.1770 C   0  0  0  0  0  0  0  0  0  0  0  0
   -5.3099    1.1106    1.0567 C   0  0  0  0  0  0  0  0  0  0  0  0
   -6.2986    0.4923    0.2863 C   0  0  0  0  0  0  0  0  0  0  0  0
   -6.0449   -0.2998   -0.8694 N   0  0  0  0  0  0  0  0  0  0  0  0
   -4.8955   -0.6970   -1.5338 C   0  0  0  0  0  0  0  0  0  0  0  0
   -3.2512   -0.3441   -1.1107 S   0  0  0  0  0  0  0  0  0  0  0  0
   -2.3976   -0.9221   -2.6141 C   0  0  0  0  0  0  0  0  0  0  0  0
   -0.8938   -0.7160   -2.5062 C   0  0  0  0  0  0  0  0  0  0  0  0
   -0.2703   -0.1888   -3.4239 O   0  0  0  0  0  0  0  0  0  0  0  0
   -0.3463   -1.2228   -1.3361 N   0  0  0  0  0  0  0  0  0  0  0  0
    1.0123   -1.2650   -0.9680 C   0  0  0  0  0  0  0  0  0  0  0  0
    1.3077   -1.6849    0.3387 C   0  0  0  0  0  0  0  0  0  0  0  0
    2.6306   -1.7541    0.7860 C   0  0  0  0  0  0  0  0  0  0  0  0
    3.6659   -1.4122   -0.0847 C   0  0  0  0  0  0  0  0  0  0  0  0
    5.3552   -1.4747    0.4620 S   0  0  0  0  0  6  0  0  0  0  0  0
    6.0360   -2.4171   -0.4013 O   0  0  0  0  0  0  0  0  0  0  0  0
    5.3573   -1.6375    1.9016 O   0  0  0  0  0  0  0  0  0  0  0  0
    5.9184    0.0932    0.1104 N   0  0  0  0  0  0  0  0  0  0  0  0
    5.2995    1.2361    0.8267 C   0  0  0  0  0  0  0  0  0  0  0  0
    5.9786    1.5120    2.1659 C   0  0  0  0  0  0  0  0  0  0  0  0
    7.4960    1.6679    2.0123 C   0  0  0  0  0  0  0  0  0  0  0  0
    8.1640    1.8526    3.3731 C   0  0  0  0  0  0  0  0  0  0  0  0
    8.0796    0.4548    1.2777 C   0  0  0  0  0  0  0  0  0  0  0  0
    7.3829    0.2401   -0.0607 C   0  0  0  0  0  0  0  0  0  0  0  0
    3.3895   -1.0090   -1.3922 C   0  0  0  0  0  0  0  0  0  0  0  0
    2.0629   -0.9311   -1.8280 C   0  0  0  0  0  0  0  0  0  0  0  0
   -5.2063   -1.4367   -2.5771 N   0  0  0  0  0  0  0  0  0  0  0  0
   -6.5633   -1.5514   -2.6309 N   0  0  0  0  0  0  0  0  0  0  0  0
   -7.0702   -0.8813   -1.6172 C   0  0  0  0  0  0  0  0  0  0  0  0
  -10.5409   -1.1712   -1.5688 H   0  0  0  0  0  0  0  0  0  0  0  0
   -9.4137   -2.3979   -2.1610 H   0  0  0  0  0  0  0  0  0  0  0  0
   -9.6067   -0.8664   -3.0427 H   0  0  0  0  0  0  0  0  0  0  0  0
   -9.7391    0.1815    0.1669 H   0  0  0  0  0  0  0  0  0  0  0  0
   -9.0355    1.5376    2.0608 H   0  0  0  0  0  0  0  0  0  0  0  0
   -7.2709    2.6131    3.4045 H   0  0  0  0  0  0  0  0  0  0  0  0
   -4.8918    2.3511    2.7726 H   0  0  0  0  0  0  0  0  0  0  0  0
   -4.2539    1.0474    0.8351 H   0  0  0  0  0  0  0  0  0  0  0  0
   -2.5885   -1.9873   -2.7786 H   0  0  0  0  0  0  0  0  0  0  0  0
   -2.7645   -0.3477   -3.4695 H   0  0  0  0  0  0  0  0  0  0  0  0
   -1.0149   -1.5233   -0.6334 H   0  0  0  0  0  0  0  0  0  0  0  0
    0.5126   -1.9582    1.0298 H   0  0  0  0  0  0  0  0  0  0  0  0
    2.8411   -2.0768    1.8036 H   0  0  0  0  0  0  0  0  0  0  0  0
    5.3760    2.1210    0.1809 H   0  0  0  0  0  0  0  0  0  0  0  0
    4.2286    1.0689    0.9793 H   0  0  0  0  0  0  0  0  0  0  0  0
    5.7607    0.7012    2.8715 H   0  0  0  0  0  0  0  0  0  0  0  0
    5.5538    2.4243    2.6029 H   0  0  0  0  0  0  0  0  0  0  0  0
    7.6938    2.5675    1.4134 H   0  0  0  0  0  0  0  0  0  0  0  0
    8.0108    0.9771    4.0153 H   0  0  0  0  0  0  0  0  0  0  0  0
    7.7566    2.7285    3.8903 H   0  0  0  0  0  0  0  0  0  0  0  0
    9.2431    2.0034    3.2554 H   0  0  0  0  0  0  0  0  0  0  0  0
    7.9804   -0.4454    1.8978 H   0  0  0  0  0  0  0  0  0  0  0  0
    9.1523    0.6057    1.1059 H   0  0  0  0  0  0  0  0  0  0  0  0
    7.5643    1.0960   -0.7236 H   0  0  0  0  0  0  0  0  0  0  0  0
    7.8068   -0.6288   -0.5757 H   0  0  0  0  0  0  0  0  0  0  0  0
    4.1970   -0.7556   -2.0758 H   0  0  0  0  0  0  0  0  0  0  0  0
    1.8863   -0.6176   -2.8524 H   0  0  0  0  0  0  0  0  0  0  0  0
  1  2  1  0
  2  3  2  0
  3  4  1  0
  4  5  2  0
  5  6  1  0
  6  7  2  0
  7  8  1  0
  8  9  2  0
  9 10  1  0
 10 11  1  0
 11 12  1  0
 12 13  1  0
 13 14  1  0
 14 15  2  0
 14 16  1  0
 16 17  1  0
 17 18  2  0
 18 19  1  0
 19 20  2  0
 20 21  1  0
 21 22  2  0
 21 23  2  0
 21 24  1  0
 24 25  1  0
 25 26  1  0
 26 27  1  0
 27 28  1  0
 27 29  1  0
 29 30  1  0
 20 31  1  0
 31 32  2  0
 11 33  2  0
 33 34  1  0
 34 35  2  0
 35  2  1  0
  9  4  1  0
 35 10  1  0
 32 17  1  0
 30 24  1  0
  1 36  1  0
  1 37  1  0
  1 38  1  0
  3 39  1  0
  5 40  1  0
  6 41  1  0
  7 42  1  0
  8 43  1  0
 13 44  1  0
 13 45  1  0
 16 46  1  0
 18 47  1  0
 19 48  1  0
 25 49  1  0
 25 50  1  0
 26 51  1  0
 26 52  1  0
 27 53  1  0
 28 54  1  0
 28 55  1  0
 28 56  1  0
 29 57  1  0
 29 58  1  0
 30 59  1  0
 30 60  1  0
 31 61  1  0
 32 62  1  0
M  END
$$$$
