
     RDKit          3D

 54 57  0  0  0  0  0  0  0  0999 V2000
   -1.0527   -0.8974    2.6612 C   0  0  0  0  0  0  0  0  0  0  0  0
   -1.0905    0.4971    2.0205 C   0  0  0  0  0  0  0  0  0  0  0  0
   -1.0121    1.5793    3.1174 C   0  0  0  0  0  0  0  0  0  0  0  0
   -2.3060    1.7061    3.9200 C   0  0  0  0  0  0  0  0  0  0  0  0
   -3.5172    1.9385    3.0221 C   0  0  0  0  0  0  0  0  0  0  0  0
   -3.6308    0.8854    1.9203 C   0  0  0  0  0  0  0  0  0  0  0  0
   -2.3296    0.7387    1.1259 C   0  0  0  0  0  0  0  0  0  0  0  0
   -2.1081    1.8994    0.2761 N   0  0  0  0  0  0  0  0  0  0  0  0
   -2.0330    1.5864   -1.0565 C   0  0  0  0  0  0  0  0  0  0  0  0
   -1.7919    2.3923   -1.9364 O   0  0  0  0  0  0  0  0  0  0  0  0
   -2.2426    0.2536   -1.1959 N   0  0  0  0  0  0  0  0  0  0  0  0
   -2.2678   -0.4397   -2.4683 C   0  0  0  0  0  0  0  0  0  0  0  0
   -0.8993   -0.9787   -2.8962 C   0  0  0  0  0  0  0  0  0  0  0  0
   -0.7624   -1.6073   -3.9443 O   0  0  0  0  0  0  0  0  0  0  0  0
    0.1492   -0.7226   -2.0443 N   0  0  0  0  0  0  0  0  0  0  0  0
    1.5206   -1.0920   -2.3587 C   0  0  0  0  0  0  0  0  0  0  0  0
    2.1231   -0.0374   -3.3004 C   0  0  0  0  0  0  0  0  0  0  0  0
    3.6343   -0.1834   -3.3958 C   0  0  0  0  0  0  0  0  0  0  0  0
    4.2685    0.0606   -2.0292 C   0  0  0  0  0  0  0  0  0  0  0  0
    3.6150   -0.7437   -0.9316 C   0  0  0  0  0  0  0  0  0  0  0  0
    4.3125   -0.9346    0.2716 C   0  0  0  0  0  0  0  0  0  0  0  0
    3.7526   -1.6787    1.3091 C   0  0  0  0  0  0  0  0  0  0  0  0
    2.4885   -2.2407    1.1577 C   0  0  0  0  0  0  0  0  0  0  0  0
    1.7791   -2.0433   -0.0265 C   0  0  0  0  0  0  0  0  0  0  0  0
    2.3179   -1.2735   -1.0759 C   0  0  0  0  0  0  0  0  0  0  0  0
   -2.4845   -0.3283    0.0167 C   0  0  0  0  0  0  0  0  0  0  0  0
   -2.7703   -1.5035    0.1962 O   0  0  0  0  0  0  0  0  0  0  0  0
   -0.8935   -1.6744    1.9074 H   0  0  0  0  0  0  0  0  0  0  0  0
   -0.2225   -0.9737    3.3717 H   0  0  0  0  0  0  0  0  0  0  0  0
   -1.9744   -1.1331    3.1998 H   0  0  0  0  0  0  0  0  0  0  0  0
   -0.1815    0.5816    1.4080 H   0  0  0  0  0  0  0  0  0  0  0  0
   -0.7863    2.5476    2.6536 H   0  0  0  0  0  0  0  0  0  0  0  0
   -0.1798    1.3688    3.7991 H   0  0  0  0  0  0  0  0  0  0  0  0
   -2.4631    0.8016    4.5190 H   0  0  0  0  0  0  0  0  0  0  0  0
   -2.2142    2.5371    4.6287 H   0  0  0  0  0  0  0  0  0  0  0  0
   -3.4473    2.9354    2.5701 H   0  0  0  0  0  0  0  0  0  0  0  0
   -4.4299    1.9342    3.6282 H   0  0  0  0  0  0  0  0  0  0  0  0
   -4.4613    1.1530    1.2547 H   0  0  0  0  0  0  0  0  0  0  0  0
   -3.9050   -0.0766    2.3717 H   0  0  0  0  0  0  0  0  0  0  0  0
   -1.9522    2.8485    0.5923 H   0  0  0  0  0  0  0  0  0  0  0  0
   -2.9557   -1.2883   -2.4000 H   0  0  0  0  0  0  0  0  0  0  0  0
   -2.6093    0.2516   -3.2456 H   0  0  0  0  0  0  0  0  0  0  0  0
    0.0261   -0.0294   -1.3222 H   0  0  0  0  0  0  0  0  0  0  0  0
    1.5133   -2.0587   -2.8793 H   0  0  0  0  0  0  0  0  0  0  0  0
    1.6725   -0.1259   -4.2961 H   0  0  0  0  0  0  0  0  0  0  0  0
    1.8820    0.9730   -2.9433 H   0  0  0  0  0  0  0  0  0  0  0  0
    3.8897   -1.1867   -3.7595 H   0  0  0  0  0  0  0  0  0  0  0  0
    4.0366    0.5346   -4.1191 H   0  0  0  0  0  0  0  0  0  0  0  0
    4.1879    1.1230   -1.7696 H   0  0  0  0  0  0  0  0  0  0  0  0
    5.3349   -0.1869   -2.0901 H   0  0  0  0  0  0  0  0  0  0  0  0
    5.3058   -0.5105    0.4018 H   0  0  0  0  0  0  0  0  0  0  0  0
    4.3083   -1.8320    2.2303 H   0  0  0  0  0  0  0  0  0  0  0  0
    2.0590   -2.8428    1.9538 H   0  0  0  0  0  0  0  0  0  0  0  0
    0.7973   -2.5036   -0.1330 H   0  0  0  0  0  0  0  0  0  0  0  0
  1  2  1  0
  2  3  1  0
  3  4  1  0
  4  5  1  0
  5  6  1  0
  6  7  1  0
  7  8  1  0
  8  9  1  0
  9 10  2  0
  9 11  1  0
 11 12  1  0
 12 13  1  0
 13 14  2  0
 13 15  1  0
 15 16  1  0
 16 17  1  0
 17 18  1  0
 18 19  1  0
 19 20  1  0
 20 21  2  0
 21 22  1  0
 22 23  2  0
 23 24  1  0
 24 25  2  0
 11 26  1  0
 26 27  2  0
  7  2  1  0
 25 16  1  0
 26  7  1  0
 25 20  1  0
  1 28  1  0
  1 29  1  0
  1 30  1  0
  2 31  1  0
  3 32  1  0
  3 33  1  0
  4 34  1  0
  4 35  1  0
  5 36  1  0
  5 37  1  0
  6 38  1  0
  6 39  1  0
  8 40  1  0
 12 41  1  0
 12 42  1  0
 15 43  1  0
 16 44  1  0
 17 45  1  0
 17 46  1  0
 18 47  1  0
 18 48  1  0
 19 49  1  0
 19 50  1  0
 21 51  1  0
 22 52  1  0
 23 53  1  0
 24 54  1  0
M  END
$$$$
