
     RDKit          3D

 41 42  0  0  0  0  0  0  0  0999 V2000
   -6.7292   -2.1981   -0.6222 C   0  0  0  0  0  0  0  0  0  0  0  0
   -6.0548   -0.9664   -0.8286 O   0  0  0  0  0  0  0  0  0  0  0  0
   -4.8244   -0.8110   -0.2437 C   0  0  0  0  0  0  0  0  0  0  0  0
   -4.1862   -1.7767    0.5399 C   0  0  0  0  0  0  0  0  0  0  0  0
   -2.9275   -1.5225    1.0963 C   0  0  0  0  0  0  0  0  0  0  0  0
   -2.2912   -0.2935    0.8901 C   0  0  0  0  0  0  0  0  0  0  0  0
   -0.9426   -0.0084    1.5086 C   0  0  0  0  0  0  0  0  0  0  0  0
    0.2146   -0.0165    0.5305 C   0  0  0  0  0  0  0  0  0  0  0  0
    0.1257   -0.1657   -0.6818 O   0  0  0  0  0  0  0  0  0  0  0  0
    1.3708    0.1973    1.2535 O   0  0  0  0  0  0  0  0  0  0  0  0
    2.4865    0.1597    0.3971 N   0  0  0  0  0  0  0  0  0  0  0  0
    3.5950    0.3769    1.0416 C   0  0  0  0  0  0  0  0  0  0  0  0
    3.6450    0.6405    2.3932 N   0  0  0  0  0  0  0  0  0  0  0  0
    4.8750    0.3564    0.2599 C   0  0  0  0  0  0  0  0  0  0  0  0
    6.1047    0.1780    0.9070 C   0  0  0  0  0  0  0  0  0  0  0  0
    7.2905    0.1693    0.1684 C   0  0  0  0  0  0  0  0  0  0  0  0
    7.2531    0.3346   -1.2160 C   0  0  0  0  0  0  0  0  0  0  0  0
    6.0315    0.5022   -1.8665 C   0  0  0  0  0  0  0  0  0  0  0  0
    4.8440    0.5107   -1.1322 C   0  0  0  0  0  0  0  0  0  0  0  0
   -2.9284    0.6737    0.0999 C   0  0  0  0  0  0  0  0  0  0  0  0
   -4.1762    0.4131   -0.4797 C   0  0  0  0  0  0  0  0  0  0  0  0
   -4.8388    1.3427   -1.2445 O   0  0  0  0  0  0  0  0  0  0  0  0
   -4.0068    2.0537   -2.1547 C   0  0  0  0  0  0  0  0  0  0  0  0
   -6.9436   -2.3588    0.4389 H   0  0  0  0  0  0  0  0  0  0  0  0
   -6.1622   -3.0336   -1.0439 H   0  0  0  0  0  0  0  0  0  0  0  0
   -7.6870   -2.1483   -1.1492 H   0  0  0  0  0  0  0  0  0  0  0  0
   -4.6399   -2.7422    0.7362 H   0  0  0  0  0  0  0  0  0  0  0  0
   -2.4537   -2.2967    1.6965 H   0  0  0  0  0  0  0  0  0  0  0  0
   -0.9813    0.9764    1.9909 H   0  0  0  0  0  0  0  0  0  0  0  0
   -0.7342   -0.7523    2.2883 H   0  0  0  0  0  0  0  0  0  0  0  0
    2.7328    0.8701    2.7703 H   0  0  0  0  0  0  0  0  0  0  0  0
    4.3475    1.3158    2.6719 H   0  0  0  0  0  0  0  0  0  0  0  0
    6.1524    0.0164    1.9801 H   0  0  0  0  0  0  0  0  0  0  0  0
    8.2431    0.0233    0.6714 H   0  0  0  0  0  0  0  0  0  0  0  0
    8.1763    0.3237   -1.7903 H   0  0  0  0  0  0  0  0  0  0  0  0
    6.0002    0.6229   -2.9468 H   0  0  0  0  0  0  0  0  0  0  0  0
    3.8966    0.6389   -1.6519 H   0  0  0  0  0  0  0  0  0  0  0  0
   -2.4452    1.6335   -0.0543 H   0  0  0  0  0  0  0  0  0  0  0  0
   -3.2834    1.3964   -2.6504 H   0  0  0  0  0  0  0  0  0  0  0  0
   -4.6501    2.4854   -2.9275 H   0  0  0  0  0  0  0  0  0  0  0  0
   -3.4986    2.8789   -1.6463 H   0  0  0  0  0  0  0  0  0  0  0  0
  1  2  1  0
  2  3  1  0
  3  4  2  0
  4  5  1  0
  5  6  2  0
  6  7  1  0
  7  8  1  0
  8  9  2  0
  8 10  1  0
 10 11  1  0
 11 12  2  3
 12 13  1  0
 12 14  1  0
 14 15  2  0
 15 16  1  0
 16 17  2  0
 17 18  1  0
 18 19  2  0
  6 20  1  0
 20 21  2  0
 21 22  1  0
 22 23  1  0
 21  3  1  0
 19 14  1  0
  1 24  1  0
  1 25  1  0
  1 26  1  0
  4 27  1  0
  5 28  1  0
  7 29  1  0
  7 30  1  0
 13 31  1  0
 13 32  1  0
 15 33  1  0
 16 34  1  0
 17 35  1  0
 18 36  1  0
 19 37  1  0
 20 38  1  0
 23 39  1  0
 23 40  1  0
 23 41  1  0
M  END
$$$$
