
     RDKit          3D

 80 84  0  0  0  0  0  0  0  0999 V2000
    2.2703    3.4512   -1.9563 C   0  0  0  0  0  0  0  0  0  0  0  0
    1.6790    2.2119   -2.3494 O   0  0  0  0  0  0  0  0  0  0  0  0
    2.0774    1.1694   -1.5482 C   0  0  0  0  0  0  0  0  0  0  0  0
    3.4316    0.8371   -1.4679 C   0  0  0  0  0  0  0  0  0  0  0  0
    3.8556   -0.2245   -0.6636 C   0  0  0  0  0  0  0  0  0  0  0  0
    5.1871   -0.5515   -0.6383 O   0  0  0  0  0  0  0  0  0  0  0  0
    6.0147    0.5198   -0.1888 C   0  0  0  0  0  0  0  0  0  0  0  0
    2.9259   -1.0058    0.0423 C   0  0  0  0  0  0  0  0  0  0  0  0
    3.2941   -2.1514    0.9102 C   0  0  0  0  0  0  0  0  0  0  0  0
    4.6507   -2.6764    1.1724 C   0  0  0  0  0  0  0  0  0  0  0  0
    5.2285   -3.6055    0.2968 C   0  0  0  0  0  0  0  0  0  0  0  0
    6.4989   -4.1217    0.5576 C   0  0  0  0  0  0  0  0  0  0  0  0
    7.1953   -3.7184    1.6973 C   0  0  0  0  0  0  0  0  0  0  0  0
    6.6276   -2.7948    2.5736 C   0  0  0  0  0  0  0  0  0  0  0  0
    5.3577   -2.2752    2.3149 C   0  0  0  0  0  0  0  0  0  0  0  0
    2.3209   -2.8175    1.5511 C   0  0  0  0  0  0  0  0  0  0  0  0
    0.9044   -2.4718    1.4454 C   0  0  0  0  0  0  0  0  0  0  0  0
    0.0492   -3.0979    2.0606 O   0  0  0  0  0  0  0  0  0  0  0  0
    0.5962   -1.4057    0.6269 O   0  0  0  0  0  0  0  0  0  0  0  0
    1.5660   -0.6632   -0.0855 C   0  0  0  0  0  0  0  0  0  0  0  0
    1.1000    0.4030   -0.8881 C   0  0  0  0  0  0  0  0  0  0  0  0
   -0.3811    0.7761   -1.0457 C   0  0  0  0  0  0  0  0  0  0  0  0
   -1.3579   -0.4200   -1.2040 C   0  0  0  0  0  0  0  0  0  0  0  0
   -2.7223    0.0170   -1.7702 C   0  0  0  0  0  0  0  0  0  0  0  0
   -3.5982   -1.1237   -2.1076 N   0  0  0  0  0  0  0  0  0  0  0  0
   -4.7508   -0.6467   -2.8920 C   0  0  0  0  0  0  0  0  0  0  0  0
   -5.6590   -1.7975   -3.3255 C   0  0  0  0  0  0  0  0  0  0  0  0
   -6.1212   -2.6242   -2.1302 C   0  0  0  0  0  0  0  0  0  0  0  0
   -4.9433   -3.0530   -1.2485 C   0  0  0  0  0  0  0  0  0  0  0  0
   -4.1260   -4.1728   -1.9034 C   0  0  0  0  0  0  0  0  0  0  0  0
   -4.0614   -1.8378   -0.9032 C   0  0  0  0  0  0  0  0  0  0  0  0
   -0.8348    1.7779    0.0134 C   0  0  0  0  0  0  0  0  0  0  0  0
   -1.0420    3.1166   -0.3329 C   0  0  0  0  0  0  0  0  0  0  0  0
   -1.4673    4.0552    0.6202 C   0  0  0  0  0  0  0  0  0  0  0  0
   -1.6948    3.7127    1.9630 C   0  0  0  0  0  0  0  0  0  0  0  0
   -2.1390    4.6451    2.9091 N   0  0  0  0  0  0  0  0  0  0  0  0
   -2.0026    4.3229    4.3283 C   0  0  0  0  0  0  0  0  0  0  0  0
   -2.1104    6.0672    2.5779 C   0  0  0  0  0  0  0  0  0  0  0  0
   -1.4919    2.3595    2.2861 C   0  0  0  0  0  0  0  0  0  0  0  0
   -1.0675    1.4124    1.3402 C   0  0  0  0  0  0  0  0  0  0  0  0
    1.6915    4.2576   -2.4167 H   0  0  0  0  0  0  0  0  0  0  0  0
    2.2389    3.5903   -0.8702 H   0  0  0  0  0  0  0  0  0  0  0  0
    3.2980    3.5270   -2.3240 H   0  0  0  0  0  0  0  0  0  0  0  0
    4.1562    1.3837   -2.0638 H   0  0  0  0  0  0  0  0  0  0  0  0
    5.5576    1.0773    0.6378 H   0  0  0  0  0  0  0  0  0  0  0  0
    6.2532    1.1918   -1.0202 H   0  0  0  0  0  0  0  0  0  0  0  0
    6.9524    0.0883    0.1746 H   0  0  0  0  0  0  0  0  0  0  0  0
    4.6954   -3.9228   -0.5969 H   0  0  0  0  0  0  0  0  0  0  0  0
    6.9441   -4.8381   -0.1274 H   0  0  0  0  0  0  0  0  0  0  0  0
    8.1846   -4.1220    1.8978 H   0  0  0  0  0  0  0  0  0  0  0  0
    7.1724   -2.4806    3.4602 H   0  0  0  0  0  0  0  0  0  0  0  0
    4.9257   -1.5552    3.0050 H   0  0  0  0  0  0  0  0  0  0  0  0
    2.5246   -3.6663    2.1968 H   0  0  0  0  0  0  0  0  0  0  0  0
   -0.4555    1.2842   -2.0174 H   0  0  0  0  0  0  0  0  0  0  0  0
   -1.5194   -0.9172   -0.2447 H   0  0  0  0  0  0  0  0  0  0  0  0
   -0.9142   -1.1592   -1.8849 H   0  0  0  0  0  0  0  0  0  0  0  0
   -3.2290    0.6940   -1.0712 H   0  0  0  0  0  0  0  0  0  0  0  0
   -2.5285    0.5905   -2.6860 H   0  0  0  0  0  0  0  0  0  0  0  0
   -4.3976   -0.1413   -3.7995 H   0  0  0  0  0  0  0  0  0  0  0  0
   -5.3353    0.0851   -2.3185 H   0  0  0  0  0  0  0  0  0  0  0  0
   -6.5324   -1.3953   -3.8515 H   0  0  0  0  0  0  0  0  0  0  0  0
   -5.1294   -2.4373   -4.0416 H   0  0  0  0  0  0  0  0  0  0  0  0
   -6.8125   -2.0193   -1.5295 H   0  0  0  0  0  0  0  0  0  0  0  0
   -6.6869   -3.4971   -2.4750 H   0  0  0  0  0  0  0  0  0  0  0  0
   -5.3510   -3.4544   -0.3117 H   0  0  0  0  0  0  0  0  0  0  0  0
   -3.6581   -3.8534   -2.8401 H   0  0  0  0  0  0  0  0  0  0  0  0
   -3.3297   -4.5095   -1.2310 H   0  0  0  0  0  0  0  0  0  0  0  0
   -4.7628   -5.0371   -2.1215 H   0  0  0  0  0  0  0  0  0  0  0  0
   -3.2102   -2.2046   -0.3196 H   0  0  0  0  0  0  0  0  0  0  0  0
   -4.6254   -1.1567   -0.2514 H   0  0  0  0  0  0  0  0  0  0  0  0
   -0.8835    3.4506   -1.3562 H   0  0  0  0  0  0  0  0  0  0  0  0
   -1.6180    5.0713    0.2676 H   0  0  0  0  0  0  0  0  0  0  0  0
   -2.3432    5.1517    4.9598 H   0  0  0  0  0  0  0  0  0  0  0  0
   -0.9579    4.1204    4.5892 H   0  0  0  0  0  0  0  0  0  0  0  0
   -2.6244    3.4637    4.6011 H   0  0  0  0  0  0  0  0  0  0  0  0
   -1.0864    6.4077    2.3886 H   0  0  0  0  0  0  0  0  0  0  0  0
   -2.5154    6.6727    3.3969 H   0  0  0  0  0  0  0  0  0  0  0  0
   -2.7394    6.2853    1.7078 H   0  0  0  0  0  0  0  0  0  0  0  0
   -1.6707    1.9922    3.2925 H   0  0  0  0  0  0  0  0  0  0  0  0
   -0.9371    0.3839    1.6669 H   0  0  0  0  0  0  0  0  0  0  0  0
  1  2  1  0
  2  3  1  0
  3  4  2  0
  4  5  1  0
  5  6  1  0
  6  7  1  0
  5  8  2  0
  8  9  1  0
  9 10  1  0
 10 11  2  0
 11 12  1  0
 12 13  2  0
 13 14  1  0
 14 15  2  0
  9 16  2  0
 16 17  1  0
 17 18  2  0
 17 19  1  0
 19 20  1  0
 20 21  2  0
 21 22  1  0
 22 23  1  0
 23 24  1  0
 24 25  1  0
 25 26  1  0
 26 27  1  0
 27 28  1  0
 28 29  1  0
 29 30  1  0
 29 31  1  0
 22 32  1  0
 32 33  2  0
 33 34  1  0
 34 35  2  0
 35 36  1  0
 36 37  1  0
 36 38  1  0
 35 39  1  0
 39 40  2  0
 21  3  1  0
 31 25  1  0
 40 32  1  0
 20  8  1  0
 15 10  1  0
  1 41  1  0
  1 42  1  0
  1 43  1  0
  4 44  1  0
  7 45  1  0
  7 46  1  0
  7 47  1  0
 11 48  1  0
 12 49  1  0
 13 50  1  0
 14 51  1  0
 15 52  1  0
 16 53  1  0
 22 54  1  0
 23 55  1  0
 23 56  1  0
 24 57  1  0
 24 58  1  0
 26 59  1  0
 26 60  1  0
 27 61  1  0
 27 62  1  0
 28 63  1  0
 28 64  1  0
 29 65  1  0
 30 66  1  0
 30 67  1  0
 30 68  1  0
 31 69  1  0
 31 70  1  0
 33 71  1  0
 34 72  1  0
 37 73  1  0
 37 74  1  0
 37 75  1  0
 38 76  1  0
 38 77  1  0
 38 78  1  0
 39 79  1  0
 40 80  1  0
M  END
$$$$
