
     RDKit          3D

 80 84  0  0  0  0  0  0  0  0999 V2000
    0.6878    2.6793   -2.0739 C   0  0  0  0  0  0  0  0  0  0  0  0
    0.1486    1.3804   -1.8176 O   0  0  0  0  0  0  0  0  0  0  0  0
    0.9565    0.6219   -1.0105 C   0  0  0  0  0  0  0  0  0  0  0  0
    2.2766    0.3562   -1.3937 C   0  0  0  0  0  0  0  0  0  0  0  0
    3.1205   -0.4278   -0.5965 C   0  0  0  0  0  0  0  0  0  0  0  0
    4.4186   -0.7032   -0.9361 O   0  0  0  0  0  0  0  0  0  0  0  0
    4.9775   -0.0721   -2.0790 C   0  0  0  0  0  0  0  0  0  0  0  0
    2.6320   -0.9822    0.6046 C   0  0  0  0  0  0  0  0  0  0  0  0
    3.4412   -1.8177    1.5290 C   0  0  0  0  0  0  0  0  0  0  0  0
    4.8625   -2.1984    1.3842 C   0  0  0  0  0  0  0  0  0  0  0  0
    5.8698   -1.3837    1.9198 C   0  0  0  0  0  0  0  0  0  0  0  0
    7.2103   -1.7564    1.8051 C   0  0  0  0  0  0  0  0  0  0  0  0
    7.5515   -2.9445    1.1591 C   0  0  0  0  0  0  0  0  0  0  0  0
    6.5548   -3.7610    0.6250 C   0  0  0  0  0  0  0  0  0  0  0  0
    5.2132   -3.3918    0.7383 C   0  0  0  0  0  0  0  0  0  0  0  0
    2.8656   -2.2978    2.6432 C   0  0  0  0  0  0  0  0  0  0  0  0
    1.4727   -2.0443    3.0080 C   0  0  0  0  0  0  0  0  0  0  0  0
    0.9948   -2.4978    4.0404 O   0  0  0  0  0  0  0  0  0  0  0  0
    0.7432   -1.2683    2.1322 O   0  0  0  0  0  0  0  0  0  0  0  0
    1.2907   -0.7256    0.9429 C   0  0  0  0  0  0  0  0  0  0  0  0
    0.4210    0.0613    0.1552 C   0  0  0  0  0  0  0  0  0  0  0  0
   -1.0284    0.3014    0.5926 C   0  0  0  0  0  0  0  0  0  0  0  0
   -2.0767   -0.2275   -0.4236 C   0  0  0  0  0  0  0  0  0  0  0  0
   -1.9755   -1.7503   -0.6311 C   0  0  0  0  0  0  0  0  0  0  0  0
   -2.9456   -2.3394   -1.5627 N   0  0  0  0  0  0  0  0  0  0  0  0
   -2.6414   -2.0584   -2.9716 C   0  0  0  0  0  0  0  0  0  0  0  0
   -3.8533   -2.2099   -3.9026 C   0  0  0  0  0  0  0  0  0  0  0  0
   -4.7787   -3.3207   -3.4250 C   0  0  0  0  0  0  0  0  0  0  0  0
   -5.2674   -3.0580   -1.9864 C   0  0  0  0  0  0  0  0  0  0  0  0
   -5.4338   -4.3836   -1.2396 C   0  0  0  0  0  0  0  0  0  0  0  0
   -4.3424   -2.0856   -1.2231 C   0  0  0  0  0  0  0  0  0  0  0  0
   -1.2462    1.7469    1.0465 C   0  0  0  0  0  0  0  0  0  0  0  0
   -1.9388    2.6944    0.2917 C   0  0  0  0  0  0  0  0  0  0  0  0
   -2.0881    4.0150    0.7474 C   0  0  0  0  0  0  0  0  0  0  0  0
   -1.5506    4.4600    1.9665 C   0  0  0  0  0  0  0  0  0  0  0  0
   -1.7128    5.7756    2.4176 N   0  0  0  0  0  0  0  0  0  0  0  0
   -0.9143    6.2399    3.5500 C   0  0  0  0  0  0  0  0  0  0  0  0
   -2.1179    6.8051    1.4634 C   0  0  0  0  0  0  0  0  0  0  0  0
   -0.8772    3.4860    2.7207 C   0  0  0  0  0  0  0  0  0  0  0  0
   -0.7211    2.1646    2.2745 C   0  0  0  0  0  0  0  0  0  0  0  0
    1.1247    3.1261   -1.1739 H   0  0  0  0  0  0  0  0  0  0  0  0
    1.4253    2.6374   -2.8816 H   0  0  0  0  0  0  0  0  0  0  0  0
   -0.1331    3.3223   -2.4054 H   0  0  0  0  0  0  0  0  0  0  0  0
    2.6227    0.7578   -2.3391 H   0  0  0  0  0  0  0  0  0  0  0  0
    4.4859   -0.4139   -2.9955 H   0  0  0  0  0  0  0  0  0  0  0  0
    4.9384    1.0185   -1.9896 H   0  0  0  0  0  0  0  0  0  0  0  0
    6.0305   -0.3634   -2.1393 H   0  0  0  0  0  0  0  0  0  0  0  0
    5.6149   -0.4532    2.4214 H   0  0  0  0  0  0  0  0  0  0  0  0
    7.9877   -1.1195    2.2189 H   0  0  0  0  0  0  0  0  0  0  0  0
    8.5956   -3.2336    1.0697 H   0  0  0  0  0  0  0  0  0  0  0  0
    6.8220   -4.6852    0.1190 H   0  0  0  0  0  0  0  0  0  0  0  0
    4.4441   -4.0329    0.3139 H   0  0  0  0  0  0  0  0  0  0  0  0
    3.4064   -2.9113    3.3572 H   0  0  0  0  0  0  0  0  0  0  0  0
   -1.2307   -0.2908    1.4956 H   0  0  0  0  0  0  0  0  0  0  0  0
   -1.9916    0.2854   -1.3853 H   0  0  0  0  0  0  0  0  0  0  0  0
   -3.0755    0.0118   -0.0364 H   0  0  0  0  0  0  0  0  0  0  0  0
   -2.0967   -2.2464    0.3405 H   0  0  0  0  0  0  0  0  0  0  0  0
   -0.9682   -2.0209   -0.9695 H   0  0  0  0  0  0  0  0  0  0  0  0
   -2.2401   -1.0489   -3.1167 H   0  0  0  0  0  0  0  0  0  0  0  0
   -1.8580   -2.7563   -3.2919 H   0  0  0  0  0  0  0  0  0  0  0  0
   -3.5125   -2.4154   -4.9236 H   0  0  0  0  0  0  0  0  0  0  0  0
   -4.4121   -1.2661   -3.9376 H   0  0  0  0  0  0  0  0  0  0  0  0
   -5.6404   -3.4099   -4.0968 H   0  0  0  0  0  0  0  0  0  0  0  0
   -4.2400   -4.2754   -3.4839 H   0  0  0  0  0  0  0  0  0  0  0  0
   -6.2577   -2.5866   -2.0430 H   0  0  0  0  0  0  0  0  0  0  0  0
   -4.4759   -4.9007   -1.1208 H   0  0  0  0  0  0  0  0  0  0  0  0
   -6.1149   -5.0485   -1.7809 H   0  0  0  0  0  0  0  0  0  0  0  0
   -5.8534   -4.2173   -0.2416 H   0  0  0  0  0  0  0  0  0  0  0  0
   -4.6169   -1.0515   -1.4695 H   0  0  0  0  0  0  0  0  0  0  0  0
   -4.5089   -2.2041   -0.1451 H   0  0  0  0  0  0  0  0  0  0  0  0
   -2.3703    2.4344   -0.6711 H   0  0  0  0  0  0  0  0  0  0  0  0
   -2.6497    4.6880    0.1072 H   0  0  0  0  0  0  0  0  0  0  0  0
   -1.1355    5.6632    4.4544 H   0  0  0  0  0  0  0  0  0  0  0  0
   -1.1431    7.2827    3.7961 H   0  0  0  0  0  0  0  0  0  0  0  0
    0.1566    6.1805    3.3277 H   0  0  0  0  0  0  0  0  0  0  0  0
   -1.3966    6.8865    0.6426 H   0  0  0  0  0  0  0  0  0  0  0  0
   -3.1149    6.6008    1.0587 H   0  0  0  0  0  0  0  0  0  0  0  0
   -2.1840    7.7887    1.9425 H   0  0  0  0  0  0  0  0  0  0  0  0
   -0.4499    3.7242    3.6896 H   0  0  0  0  0  0  0  0  0  0  0  0
   -0.1834    1.4616    2.9078 H   0  0  0  0  0  0  0  0  0  0  0  0
  1  2  1  0
  2  3  1  0
  3  4  2  0
  4  5  1  0
  5  6  1  0
  6  7  1  0
  5  8  2  0
  8  9  1  0
  9 10  1  0
 10 11  2  0
 11 12  1  0
 12 13  2  0
 13 14  1  0
 14 15  2  0
  9 16  2  0
 16 17  1  0
 17 18  2  0
 17 19  1  0
 19 20  1  0
 20 21  2  0
 21 22  1  0
 22 23  1  0
 23 24  1  0
 24 25  1  0
 25 26  1  0
 26 27  1  0
 27 28  1  0
 28 29  1  0
 29 30  1  0
 29 31  1  0
 22 32  1  0
 32 33  2  0
 33 34  1  0
 34 35  2  0
 35 36  1  0
 36 37  1  0
 36 38  1  0
 35 39  1  0
 39 40  2  0
 21  3  1  0
 31 25  1  0
 40 32  1  0
 20  8  1  0
 15 10  1  0
  1 41  1  0
  1 42  1  0
  1 43  1  0
  4 44  1  0
  7 45  1  0
  7 46  1  0
  7 47  1  0
 11 48  1  0
 12 49  1  0
 13 50  1  0
 14 51  1  0
 15 52  1  0
 16 53  1  0
 22 54  1  0
 23 55  1  0
 23 56  1  0
 24 57  1  0
 24 58  1  0
 26 59  1  0
 26 60  1  0
 27 61  1  0
 27 62  1  0
 28 63  1  0
 28 64  1  0
 29 65  1  0
 30 66  1  0
 30 67  1  0
 30 68  1  0
 31 69  1  0
 31 70  1  0
 33 71  1  0
 34 72  1  0
 37 73  1  0
 37 74  1  0
 37 75  1  0
 38 76  1  0
 38 77  1  0
 38 78  1  0
 39 79  1  0
 40 80  1  0
M  END
$$$$
