
     RDKit          3D

 40 42  0  0  0  0  0  0  0  0999 V2000
    5.9744    0.1567   -1.1455 C   0  0  0  0  0  0  0  0  0  0  0  0
    5.4738    0.2946    0.2842 C   0  0  0  0  0  0  0  0  0  0  0  0
    3.9705    0.2093    0.3620 C   0  0  0  0  0  0  0  0  0  0  0  0
    3.3368   -1.0264    0.5434 C   0  0  0  0  0  0  0  0  0  0  0  0
    1.9420   -1.1103    0.5994 C   0  0  0  0  0  0  0  0  0  0  0  0
    1.1641    0.0441    0.4684 C   0  0  0  0  0  0  0  0  0  0  0  0
   -0.3158   -0.0089    0.5210 C   0  0  0  0  0  0  0  0  0  0  0  0
   -1.0600    1.0552    0.5730 N   0  0  0  0  0  0  0  0  0  0  0  0
   -2.4883    0.5719    0.5760 N   0  0  0  0  0  0  0  0  0  0  0  0
   -3.4602    1.0403    1.9016 S   0  0  0  0  0  6  0  0  0  0  0  0
   -3.3126    2.8119    1.8304 C   0  0  0  0  0  0  0  0  0  0  0  0
   -2.8269    0.5571    3.1130 O   0  0  0  0  0  0  0  0  0  0  0  0
   -4.8308    0.6793    1.5981 O   0  0  0  0  0  0  0  0  0  0  0  0
   -2.5023   -0.8901    0.3144 C   0  0  0  0  0  0  0  0  0  0  0  0
   -3.0127   -1.1229   -1.0892 C   0  0  0  0  0  0  0  0  0  0  0  0
   -4.2653   -1.5949   -1.4440 C   0  0  0  0  0  0  0  0  0  0  0  0
   -4.4387   -1.6935   -2.8541 C   0  0  0  0  0  0  0  0  0  0  0  0
   -3.3182   -1.2842   -3.5389 C   0  0  0  0  0  0  0  0  0  0  0  0
   -2.0721   -0.7788   -2.4861 S   0  0  0  0  0  0  0  0  0  0  0  0
   -1.0590   -1.3211    0.5622 C   0  0  0  0  0  0  0  0  0  0  0  0
    1.7932    1.2806    0.2841 C   0  0  0  0  0  0  0  0  0  0  0  0
    3.1868    1.3616    0.2283 C   0  0  0  0  0  0  0  0  0  0  0  0
    5.5715    0.9486   -1.7859 H   0  0  0  0  0  0  0  0  0  0  0  0
    5.6814   -0.8062   -1.5774 H   0  0  0  0  0  0  0  0  0  0  0  0
    7.0667    0.2219   -1.1719 H   0  0  0  0  0  0  0  0  0  0  0  0
    5.8111    1.2495    0.7055 H   0  0  0  0  0  0  0  0  0  0  0  0
    5.9209   -0.4874    0.9102 H   0  0  0  0  0  0  0  0  0  0  0  0
    3.9285   -1.9342    0.6440 H   0  0  0  0  0  0  0  0  0  0  0  0
    1.4918   -2.0864    0.7518 H   0  0  0  0  0  0  0  0  0  0  0  0
   -3.9483    3.2317    2.6132 H   0  0  0  0  0  0  0  0  0  0  0  0
   -3.6549    3.1561    0.8527 H   0  0  0  0  0  0  0  0  0  0  0  0
   -2.2745    3.0960    2.0089 H   0  0  0  0  0  0  0  0  0  0  0  0
   -3.1547   -1.4316    1.0104 H   0  0  0  0  0  0  0  0  0  0  0  0
   -5.0307   -1.8483   -0.7186 H   0  0  0  0  0  0  0  0  0  0  0  0
   -5.3432   -2.0377   -3.3403 H   0  0  0  0  0  0  0  0  0  0  0  0
   -3.1736   -1.2475   -4.6099 H   0  0  0  0  0  0  0  0  0  0  0  0
   -0.6803   -2.0484   -0.1599 H   0  0  0  0  0  0  0  0  0  0  0  0
   -0.9528   -1.7297    1.5739 H   0  0  0  0  0  0  0  0  0  0  0  0
    1.2061    2.1903    0.1774 H   0  0  0  0  0  0  0  0  0  0  0  0
    3.6562    2.3318    0.0787 H   0  0  0  0  0  0  0  0  0  0  0  0
  1  2  1  0
  2  3  1  0
  3  4  2  0
  4  5  1  0
  5  6  2  0
  6  7  1  0
  7  8  2  0
  8  9  1  0
  9 10  1  0
 10 11  1  0
 10 12  2  0
 10 13  2  0
  9 14  1  0
 14 15  1  0
 15 16  2  0
 16 17  1  0
 17 18  2  0
 18 19  1  0
 14 20  1  0
  6 21  1  0
 21 22  2  0
 22  3  1  0
 20  7  1  0
 19 15  1  0
  1 23  1  0
  1 24  1  0
  1 25  1  0
  2 26  1  0
  2 27  1  0
  4 28  1  0
  5 29  1  0
 11 30  1  0
 11 31  1  0
 11 32  1  0
 14 33  1  0
 16 34  1  0
 17 35  1  0
 18 36  1  0
 20 37  1  0
 20 38  1  0
 21 39  1  0
 22 40  1  0
M  END
$$$$
