
     RDKit          3D

 40 41  0  0  0  0  0  0  0  0999 V2000
   -3.5968   -1.2980    2.8027 C   0  0  0  0  0  0  0  0  0  0  0  0
   -4.0090   -0.2386    1.8476 C   0  0  0  0  0  0  0  0  0  0  0  0
   -5.2986    0.0932    1.7363 N   0  0  0  0  0  0  0  0  0  0  0  0
   -5.3137    1.0547    0.7981 N   0  0  0  0  0  0  0  0  0  0  0  0
   -6.5797    1.6418    0.4237 C   0  0  0  0  0  0  0  0  0  0  0  0
   -4.0708    1.3597    0.3040 C   0  0  0  0  0  0  0  0  0  0  0  0
   -3.8279    2.3898   -0.7400 C   0  0  0  0  0  0  0  0  0  0  0  0
   -3.1859    0.5262    0.9758 C   0  0  0  0  0  0  0  0  0  0  0  0
   -1.7460    0.4339    0.8384 C   0  0  0  0  0  0  0  0  0  0  0  0
   -1.1289    1.1939   -0.0092 N   0  0  0  0  0  0  0  0  0  0  0  0
    0.2303    1.0616   -0.1477 N   0  0  0  0  0  0  0  0  0  0  0  0
    0.9373   -0.1326   -0.0379 C   0  0  0  0  0  0  0  0  0  0  0  0
    0.4778   -1.2126    0.3196 O   0  0  0  0  0  0  0  0  0  0  0  0
    2.3847    0.0367   -0.4381 C   0  0  0  0  0  0  0  0  0  0  0  0
    3.1660   -1.2450   -0.1872 C   0  0  0  0  0  0  0  0  0  0  0  0
    4.5459   -1.1336   -0.6250 N   0  0  0  0  0  0  0  0  0  0  0  0
    5.1568   -1.8629   -1.6039 C   0  0  0  0  0  0  0  0  0  0  0  0
    6.4592   -1.4079   -1.6503 C   0  0  0  0  0  0  0  0  0  0  0  0
    7.5035   -1.8611   -2.5128 N   0  0  0  0  0  4  0  0  0  0  0  0
    7.2221   -2.7589   -3.3165 O   0  0  0  0  0  0  0  0  0  0  0  0
    8.6060   -1.3142   -2.3876 O   0  0  0  0  0  1  0  0  0  0  0  0
    6.5303   -0.4058   -0.6677 C   0  0  0  0  0  0  0  0  0  0  0  0
    5.3606   -0.2302   -0.0421 N   0  0  0  0  0  0  0  0  0  0  0  0
   -3.0849   -2.1090    2.2748 H   0  0  0  0  0  0  0  0  0  0  0  0
   -4.4576   -1.7271    3.3260 H   0  0  0  0  0  0  0  0  0  0  0  0
   -2.9145   -0.8884    3.5543 H   0  0  0  0  0  0  0  0  0  0  0  0
   -6.7403    1.4653   -0.6426 H   0  0  0  0  0  0  0  0  0  0  0  0
   -6.5416    2.7120    0.6413 H   0  0  0  0  0  0  0  0  0  0  0  0
   -7.3844    1.1769    0.9996 H   0  0  0  0  0  0  0  0  0  0  0  0
   -3.1568    3.1662   -0.3584 H   0  0  0  0  0  0  0  0  0  0  0  0
   -4.7459    2.8842   -1.0691 H   0  0  0  0  0  0  0  0  0  0  0  0
   -3.3664    1.9346   -1.6223 H   0  0  0  0  0  0  0  0  0  0  0  0
   -1.2372   -0.2777    1.5081 H   0  0  0  0  0  0  0  0  0  0  0  0
    0.6475    1.8144   -0.6890 H   0  0  0  0  0  0  0  0  0  0  0  0
    2.8125    0.8676    0.1354 H   0  0  0  0  0  0  0  0  0  0  0  0
    2.4225    0.3033   -1.5012 H   0  0  0  0  0  0  0  0  0  0  0  0
    3.1889   -1.4969    0.8797 H   0  0  0  0  0  0  0  0  0  0  0  0
    2.7175   -2.0921   -0.7193 H   0  0  0  0  0  0  0  0  0  0  0  0
    4.6382   -2.6268   -2.1680 H   0  0  0  0  0  0  0  0  0  0  0  0
    7.3793    0.2033   -0.3813 H   0  0  0  0  0  0  0  0  0  0  0  0
  1  2  1  0
  2  3  2  0
  3  4  1  0
  4  5  1  0
  4  6  1  0
  6  7  1  0
  6  8  2  0
  8  9  1  0
  9 10  2  3
 10 11  1  0
 11 12  1  0
 12 13  2  0
 12 14  1  0
 14 15  1  0
 15 16  1  0
 16 17  1  0
 17 18  2  0
 18 19  1  0
 19 20  2  0
 19 21  1  0
 18 22  1  0
 22 23  2  0
  8  2  1  0
 23 16  1  0
  1 24  1  0
  1 25  1  0
  1 26  1  0
  5 27  1  0
  5 28  1  0
  5 29  1  0
  7 30  1  0
  7 31  1  0
  7 32  1  0
  9 33  1  0
 11 34  1  0
 14 35  1  0
 14 36  1  0
 15 37  1  0
 15 38  1  0
 17 39  1  0
 22 40  1  0
M  CHG  2  19   1  21  -1
M  END
$$$$
