
     RDKit          3D

 45 47  0  0  0  0  0  0  0  0999 V2000
   -3.2400   -3.0620   -0.1699 C   0  0  0  0  0  0  0  0  0  0  0  0
   -3.2929   -1.8640    0.7750 C   0  0  0  0  0  0  0  0  0  0  0  0
   -2.8793   -0.6082    0.1250 N   0  0  0  0  0  0  0  0  0  0  0  0
   -3.9122   -0.1160   -0.8055 C   0  0  0  0  0  0  0  0  0  0  0  0
   -3.3461    0.8560   -1.8377 C   0  0  0  0  0  0  0  0  0  0  0  0
   -2.5359    0.4311    1.1197 C   0  0  0  0  0  0  0  0  0  0  0  0
   -1.2195    0.1781    1.8299 C   0  0  0  0  0  0  0  0  0  0  0  0
   -1.1441   -0.1866    3.1839 C   0  0  0  0  0  0  0  0  0  0  0  0
   -2.2421   -0.3921    3.9714 O   0  0  0  0  0  0  0  0  0  0  0  0
    0.0843   -0.3653    3.8222 C   0  0  0  0  0  0  0  0  0  0  0  0
    1.2710   -0.2047    3.1124 C   0  0  0  0  0  0  0  0  0  0  0  0
    1.2228    0.1451    1.7613 C   0  0  0  0  0  0  0  0  0  0  0  0
    2.4740    0.3170    0.9980 C   0  0  0  0  0  0  0  0  0  0  0  0
    3.5615    0.1664    1.5436 O   0  0  0  0  0  0  0  0  0  0  0  0
    2.3366    0.6729   -0.4412 C   0  0  0  0  0  0  0  0  0  0  0  0
    3.4990    0.8656   -1.3283 C   0  0  0  0  0  0  0  0  0  0  0  0
    3.5625    0.2366   -2.5822 C   0  0  0  0  0  0  0  0  0  0  0  0
    4.6617    0.4297   -3.4232 C   0  0  0  0  0  0  0  0  0  0  0  0
    5.7125    1.2505   -3.0203 C   0  0  0  0  0  0  0  0  0  0  0  0
    5.6674    1.8748   -1.7760 C   0  0  0  0  0  0  0  0  0  0  0  0
    4.5682    1.6825   -0.9350 C   0  0  0  0  0  0  0  0  0  0  0  0
    1.0893    0.8476   -0.9025 C   0  0  0  0  0  0  0  0  0  0  0  0
   -0.0784    0.7157   -0.1954 O   0  0  0  0  0  0  0  0  0  0  0  0
   -0.0057    0.3414    1.1264 C   0  0  0  0  0  0  0  0  0  0  0  0
   -4.0007   -3.0104   -0.9534 H   0  0  0  0  0  0  0  0  0  0  0  0
   -2.2570   -3.1439   -0.6457 H   0  0  0  0  0  0  0  0  0  0  0  0
   -3.4156   -3.9852    0.3926 H   0  0  0  0  0  0  0  0  0  0  0  0
   -2.6114   -2.1078    1.5969 H   0  0  0  0  0  0  0  0  0  0  0  0
   -4.2944   -1.7707    1.2132 H   0  0  0  0  0  0  0  0  0  0  0  0
   -4.7442    0.3493   -0.2621 H   0  0  0  0  0  0  0  0  0  0  0  0
   -4.3433   -0.9433   -1.3784 H   0  0  0  0  0  0  0  0  0  0  0  0
   -2.4981    0.4128   -2.3707 H   0  0  0  0  0  0  0  0  0  0  0  0
   -3.0176    1.7975   -1.3891 H   0  0  0  0  0  0  0  0  0  0  0  0
   -4.1152    1.0993   -2.5786 H   0  0  0  0  0  0  0  0  0  0  0  0
   -3.3593    0.5665    1.8314 H   0  0  0  0  0  0  0  0  0  0  0  0
   -2.4325    1.4139    0.6437 H   0  0  0  0  0  0  0  0  0  0  0  0
   -3.0033   -0.6173    3.4152 H   0  0  0  0  0  0  0  0  0  0  0  0
    0.1146   -0.6401    4.8739 H   0  0  0  0  0  0  0  0  0  0  0  0
    2.2260   -0.3532    3.6114 H   0  0  0  0  0  0  0  0  0  0  0  0
    2.7619   -0.4216   -2.9126 H   0  0  0  0  0  0  0  0  0  0  0  0
    4.6999   -0.0665   -4.3894 H   0  0  0  0  0  0  0  0  0  0  0  0
    6.5701    1.3973   -3.6715 H   0  0  0  0  0  0  0  0  0  0  0  0
    6.4903    2.5075   -1.4534 H   0  0  0  0  0  0  0  0  0  0  0  0
    4.5590    2.1727    0.0368 H   0  0  0  0  0  0  0  0  0  0  0  0
    0.8559    1.1312   -1.9220 H   0  0  0  0  0  0  0  0  0  0  0  0
  1  2  1  0
  2  3  1  0
  3  4  1  0
  4  5  1  0
  3  6  1  0
  6  7  1  0
  7  8  2  0
  8  9  1  0
  8 10  1  0
 10 11  2  0
 11 12  1  0
 12 13  1  0
 13 14  2  0
 13 15  1  0
 15 16  1  0
 16 17  2  0
 17 18  1  0
 18 19  2  0
 19 20  1  0
 20 21  2  0
 15 22  2  0
 22 23  1  0
 23 24  1  0
 24  7  1  0
 24 12  2  0
 21 16  1  0
  1 25  1  0
  1 26  1  0
  1 27  1  0
  2 28  1  0
  2 29  1  0
  4 30  1  0
  4 31  1  0
  5 32  1  0
  5 33  1  0
  5 34  1  0
  6 35  1  0
  6 36  1  0
  9 37  1  0
 10 38  1  0
 11 39  1  0
 17 40  1  0
 18 41  1  0
 19 42  1  0
 20 43  1  0
 21 44  1  0
 22 45  1  0
M  END
$$$$
