
     RDKit          3D

 49 51  0  0  0  0  0  0  0  0999 V2000
   -4.6030   -1.2597   -3.9603 C   0  0  0  0  0  0  0  0  0  0  0  0
   -5.3197   -0.9842   -2.7642 O   0  0  0  0  0  0  0  0  0  0  0  0
   -4.5922   -0.7428   -1.6285 C   0  0  0  0  0  0  0  0  0  0  0  0
   -3.2005   -0.6799   -1.5708 C   0  0  0  0  0  0  0  0  0  0  0  0
   -2.5559   -0.4427   -0.3481 C   0  0  0  0  0  0  0  0  0  0  0  0
   -1.0704   -0.3888   -0.3440 C   0  0  0  0  0  0  0  0  0  0  0  0
   -0.4642    0.0256   -1.3281 O   0  0  0  0  0  0  0  0  0  0  0  0
   -0.4426   -0.8721    0.7965 N   0  0  0  0  0  0  0  0  0  0  0  0
    0.9101   -0.8820    1.1140 C   0  0  0  0  0  0  0  0  0  0  0  0
    1.2916   -1.5764    2.5817 S   0  0  0  0  0  0  0  0  0  0  0  0
    1.7233   -0.3176    0.1596 N   0  0  0  0  0  0  0  0  0  0  0  0
    3.1104   -0.0670    0.0781 C   0  0  0  0  0  0  0  0  0  0  0  0
    3.5629    0.4494   -1.1669 C   0  0  0  0  0  0  0  0  0  0  0  0
    4.9098    0.7530   -1.4017 C   0  0  0  0  0  0  0  0  0  0  0  0
    5.7875    0.5332   -0.3648 C   0  0  0  0  0  0  0  0  0  0  0  0
    5.3612    0.0389    0.8525 C   0  0  0  0  0  0  0  0  0  0  0  0
    4.0340   -0.2684    1.1068 C   0  0  0  0  0  0  0  0  0  0  0  0
    6.5345   -0.0599    1.7215 C   0  0  0  0  0  0  0  0  0  0  0  0
    6.5025   -0.4480    2.8732 O   0  0  0  0  0  0  0  0  0  0  0  0
    7.6018    0.3669    0.9807 N   0  0  0  0  0  0  0  0  0  0  0  0
    8.9577    0.4404    1.4650 C   0  0  0  0  0  0  0  0  0  0  0  0
    7.2304    0.7471   -0.2791 C   0  0  0  0  0  0  0  0  0  0  0  0
    7.9132    1.1863   -1.1843 O   0  0  0  0  0  0  0  0  0  0  0  0
   -3.2983   -0.2362    0.8242 C   0  0  0  0  0  0  0  0  0  0  0  0
   -4.6920   -0.2966    0.7838 C   0  0  0  0  0  0  0  0  0  0  0  0
   -5.5150   -0.1165    1.8646 O   0  0  0  0  0  0  0  0  0  0  0  0
   -4.9132    0.0093    3.1457 C   0  0  0  0  0  0  0  0  0  0  0  0
   -5.3282   -0.5390   -0.4477 C   0  0  0  0  0  0  0  0  0  0  0  0
   -6.7012   -0.6521   -0.4809 O   0  0  0  0  0  0  0  0  0  0  0  0
   -7.2879    0.6168   -0.7666 C   0  0  0  0  0  0  0  0  0  0  0  0
   -3.9782   -2.1522   -3.8508 H   0  0  0  0  0  0  0  0  0  0  0  0
   -4.0079   -0.3946   -4.2703 H   0  0  0  0  0  0  0  0  0  0  0  0
   -5.3341   -1.4601   -4.7494 H   0  0  0  0  0  0  0  0  0  0  0  0
   -2.5908   -0.8175   -2.4591 H   0  0  0  0  0  0  0  0  0  0  0  0
   -1.0105   -1.3165    1.5056 H   0  0  0  0  0  0  0  0  0  0  0  0
    1.2047   -0.0542   -0.6817 H   0  0  0  0  0  0  0  0  0  0  0  0
    2.8529    0.6173   -1.9770 H   0  0  0  0  0  0  0  0  0  0  0  0
    5.2485    1.1454   -2.3549 H   0  0  0  0  0  0  0  0  0  0  0  0
    3.7778   -0.6348    2.0902 H   0  0  0  0  0  0  0  0  0  0  0  0
    9.6081   -0.1182    0.7851 H   0  0  0  0  0  0  0  0  0  0  0  0
    9.2742    1.4877    1.4609 H   0  0  0  0  0  0  0  0  0  0  0  0
    9.0359    0.0337    2.4763 H   0  0  0  0  0  0  0  0  0  0  0  0
   -2.7843   -0.0005    1.7490 H   0  0  0  0  0  0  0  0  0  0  0  0
   -5.7149    0.0711    3.8878 H   0  0  0  0  0  0  0  0  0  0  0  0
   -4.3031   -0.8679    3.3856 H   0  0  0  0  0  0  0  0  0  0  0  0
   -4.3253    0.9305    3.2130 H   0  0  0  0  0  0  0  0  0  0  0  0
   -7.0422    1.3534    0.0062 H   0  0  0  0  0  0  0  0  0  0  0  0
   -6.9832    0.9862   -1.7518 H   0  0  0  0  0  0  0  0  0  0  0  0
   -8.3744    0.4880   -0.7764 H   0  0  0  0  0  0  0  0  0  0  0  0
  1  2  1  0
  2  3  1  0
  3  4  2  0
  4  5  1  0
  5  6  1  0
  6  7  2  0
  6  8  1  0
  8  9  1  0
  9 10  2  0
  9 11  1  0
 11 12  1  0
 12 13  2  0
 13 14  1  0
 14 15  2  0
 15 16  1  0
 16 17  2  0
 16 18  1  0
 18 19  2  0
 18 20  1  0
 20 21  1  0
 20 22  1  0
 22 23  2  0
  5 24  2  0
 24 25  1  0
 25 26  1  0
 26 27  1  0
 25 28  2  0
 28 29  1  0
 29 30  1  0
 28  3  1  0
 17 12  1  0
 22 15  1  0
  1 31  1  0
  1 32  1  0
  1 33  1  0
  4 34  1  0
  8 35  1  0
 11 36  1  0
 13 37  1  0
 14 38  1  0
 17 39  1  0
 21 40  1  0
 21 41  1  0
 21 42  1  0
 24 43  1  0
 27 44  1  0
 27 45  1  0
 27 46  1  0
 30 47  1  0
 30 48  1  0
 30 49  1  0
M  END
$$$$
