
     RDKit          3D

 70 75  0  0  0  0  0  0  0  0999 V2000
   -2.0645   -5.2081   -4.7180 C   0  0  0  0  0  0  0  0  0  0  0  0
   -1.7874   -3.8657   -4.1092 C   0  0  0  0  0  0  0  0  0  0  0  0
   -2.7868   -2.8881   -4.0727 C   0  0  0  0  0  0  0  0  0  0  0  0
   -2.5434   -1.6474   -3.4787 C   0  0  0  0  0  0  0  0  0  0  0  0
   -1.2977   -1.3608   -2.9034 C   0  0  0  0  0  0  0  0  0  0  0  0
   -1.0439   -0.0205   -2.2430 C   0  0  0  0  0  0  0  0  0  0  0  0
   -1.5745    0.0458   -0.8812 N   0  0  0  0  0  0  0  0  0  0  0  0
   -2.8987    0.4779   -0.7317 C   0  0  0  0  0  0  0  0  0  0  0  0
   -3.5394    1.0190   -1.6375 O   0  0  0  0  0  0  0  0  0  0  0  0
   -3.5115    0.3399    0.6713 C   0  0  0  0  0  0  0  0  0  0  0  0
   -3.1947    1.6001    1.4947 C   0  0  0  0  0  0  0  0  0  0  0  0
   -3.9821    1.6771    2.7823 C   0  0  0  0  0  0  0  0  0  0  0  0
   -3.4288    1.2162    3.9847 C   0  0  0  0  0  0  0  0  0  0  0  0
   -4.1662    1.2717    5.1681 C   0  0  0  0  0  0  0  0  0  0  0  0
   -5.4608    1.7873    5.1604 C   0  0  0  0  0  0  0  0  0  0  0  0
   -6.0211    2.2453    3.9694 C   0  0  0  0  0  0  0  0  0  0  0  0
   -5.2865    2.1898    2.7844 C   0  0  0  0  0  0  0  0  0  0  0  0
   -3.0596   -0.8947    1.3157 N   0  0  0  0  0  0  0  0  0  0  0  0
   -1.6802   -1.0867    1.2857 C   0  0  0  0  0  0  0  0  0  0  0  0
   -1.1805   -1.7564    2.3328 N   0  0  0  0  0  0  0  0  0  0  0  0
    0.1324   -1.9845    2.3014 C   0  0  0  0  0  0  0  0  0  0  0  0
    0.9849   -1.5534    1.3659 N   0  0  0  0  0  0  0  0  0  0  0  0
    0.4720   -0.8442    0.3358 C   0  0  0  0  0  0  0  0  0  0  0  0
    1.4037   -0.2085   -0.5204 N   0  0  0  0  0  0  0  0  0  0  0  0
    1.5492    1.2186   -0.1121 C   0  0  0  0  0  0  0  0  0  0  0  0
    2.8954    1.8271   -0.5673 C   0  0  0  0  0  0  0  0  0  0  0  0
    4.0329    1.0842    0.0022 N   0  0  0  0  0  0  0  0  0  0  0  0
    5.2713    1.6728    0.1939 C   0  0  0  0  0  0  0  0  0  0  0  0
    6.2284    1.1178    1.0601 C   0  0  0  0  0  0  0  0  0  0  0  0
    7.4827    1.7082    1.2613 C   0  0  0  0  0  0  0  0  0  0  0  0
    7.8152    2.8809    0.5959 C   0  0  0  0  0  0  0  0  0  0  0  0
    6.8924    3.4578   -0.2671 C   0  0  0  0  0  0  0  0  0  0  0  0
    5.6406    2.8596   -0.4604 C   0  0  0  0  0  0  0  0  0  0  0  0
    3.8037   -0.3479    0.2845 C   0  0  0  0  0  0  0  0  0  0  0  0
    2.7008   -0.9262   -0.6293 C   0  0  0  0  0  0  0  0  0  0  0  0
   -0.9100   -0.6244    0.2109 C   0  0  0  0  0  0  0  0  0  0  0  0
   -0.3046   -2.3481   -2.9294 C   0  0  0  0  0  0  0  0  0  0  0  0
   -0.5484   -3.5904   -3.5210 C   0  0  0  0  0  0  0  0  0  0  0  0
   -2.7028   -5.1078   -5.6023 H   0  0  0  0  0  0  0  0  0  0  0  0
   -1.1375   -5.6932   -5.0409 H   0  0  0  0  0  0  0  0  0  0  0  0
   -2.5644   -5.8544   -3.9897 H   0  0  0  0  0  0  0  0  0  0  0  0
   -3.7652   -3.0854   -4.5053 H   0  0  0  0  0  0  0  0  0  0  0  0
   -3.3384   -0.9036   -3.4657 H   0  0  0  0  0  0  0  0  0  0  0  0
    0.0120    0.2412   -2.2952 H   0  0  0  0  0  0  0  0  0  0  0  0
   -1.5272    0.7522   -2.8556 H   0  0  0  0  0  0  0  0  0  0  0  0
   -4.5957    0.2470    0.5306 H   0  0  0  0  0  0  0  0  0  0  0  0
   -2.1231    1.6706    1.7220 H   0  0  0  0  0  0  0  0  0  0  0  0
   -3.4151    2.4973    0.9005 H   0  0  0  0  0  0  0  0  0  0  0  0
   -2.4209    0.8058    4.0077 H   0  0  0  0  0  0  0  0  0  0  0  0
   -3.7306    0.9116    6.0969 H   0  0  0  0  0  0  0  0  0  0  0  0
   -6.0339    1.8312    6.0829 H   0  0  0  0  0  0  0  0  0  0  0  0
   -7.0311    2.6465    3.9634 H   0  0  0  0  0  0  0  0  0  0  0  0
   -5.7394    2.5511    1.8634 H   0  0  0  0  0  0  0  0  0  0  0  0
   -3.4251   -1.0942    2.2420 H   0  0  0  0  0  0  0  0  0  0  0  0
    0.5515   -2.5588    3.1203 H   0  0  0  0  0  0  0  0  0  0  0  0
    0.7327    1.8075   -0.5453 H   0  0  0  0  0  0  0  0  0  0  0  0
    1.4858    1.3188    0.9810 H   0  0  0  0  0  0  0  0  0  0  0  0
    2.9625    1.8117   -1.6618 H   0  0  0  0  0  0  0  0  0  0  0  0
    2.9082    2.8723   -0.2365 H   0  0  0  0  0  0  0  0  0  0  0  0
    6.0053    0.2154    1.6222 H   0  0  0  0  0  0  0  0  0  0  0  0
    8.1929    1.2488    1.9435 H   0  0  0  0  0  0  0  0  0  0  0  0
    8.7864    3.3426    0.7490 H   0  0  0  0  0  0  0  0  0  0  0  0
    7.1415    4.3726   -0.7980 H   0  0  0  0  0  0  0  0  0  0  0  0
    4.9630    3.3379   -1.1618 H   0  0  0  0  0  0  0  0  0  0  0  0
    3.5319   -0.4661    1.3395 H   0  0  0  0  0  0  0  0  0  0  0  0
    4.7137   -0.9306    0.0985 H   0  0  0  0  0  0  0  0  0  0  0  0
    3.0296   -0.8212   -1.6718 H   0  0  0  0  0  0  0  0  0  0  0  0
    2.5933   -2.0065   -0.4684 H   0  0  0  0  0  0  0  0  0  0  0  0
    0.6684   -2.1591   -2.4842 H   0  0  0  0  0  0  0  0  0  0  0  0
    0.2374   -4.3420   -3.5190 H   0  0  0  0  0  0  0  0  0  0  0  0
  1  2  1  0
  2  3  2  0
  3  4  1  0
  4  5  2  0
  5  6  1  0
  6  7  1  0
  7  8  1  0
  8  9  2  0
  8 10  1  0
 10 11  1  0
 11 12  1  0
 12 13  2  0
 13 14  1  0
 14 15  2  0
 15 16  1  0
 16 17  2  0
 10 18  1  0
 18 19  1  0
 19 20  2  0
 20 21  1  0
 21 22  2  0
 22 23  1  0
 23 24  1  0
 24 25  1  0
 25 26  1  0
 26 27  1  0
 27 28  1  0
 28 29  2  0
 29 30  1  0
 30 31  2  0
 31 32  1  0
 32 33  2  0
 27 34  1  0
 34 35  1  0
 23 36  2  0
  5 37  1  0
 37 38  2  0
 38  2  1  0
 36  7  1  0
 17 12  1  0
 36 19  1  0
 35 24  1  0
 33 28  1  0
  1 39  1  0
  1 40  1  0
  1 41  1  0
  3 42  1  0
  4 43  1  0
  6 44  1  0
  6 45  1  0
 10 46  1  0
 11 47  1  0
 11 48  1  0
 13 49  1  0
 14 50  1  0
 15 51  1  0
 16 52  1  0
 17 53  1  0
 18 54  1  0
 21 55  1  0
 25 56  1  0
 25 57  1  0
 26 58  1  0
 26 59  1  0
 29 60  1  0
 30 61  1  0
 31 62  1  0
 32 63  1  0
 33 64  1  0
 34 65  1  0
 34 66  1  0
 35 67  1  0
 35 68  1  0
 37 69  1  0
 38 70  1  0
M  END
$$$$
