
     RDKit          3D

 41 43  0  0  0  0  0  0  0  0999 V2000
   -3.6707   -2.8217    2.2862 C   0  0  0  0  0  0  0  0  0  0  0  0
   -2.3443   -2.5086    2.9602 C   0  0  0  0  0  0  0  0  0  0  0  0
   -1.7595   -1.1863    2.4599 C   0  0  0  0  0  0  0  0  0  0  0  0
   -0.4273   -0.8854    3.1464 C   0  0  0  0  0  0  0  0  0  0  0  0
    0.2653    0.7020    2.5965 S   0  0  0  0  0  0  0  0  0  0  0  0
    0.7685    0.3168    0.9778 C   0  0  0  0  0  0  0  0  0  0  0  0
    1.1255   -0.8936    0.6748 N   0  0  0  0  0  0  0  0  0  0  0  0
    1.3443   -0.8648   -0.6835 C   0  0  0  0  0  0  0  0  0  0  0  0
    1.7446   -1.9517   -1.3595 C   0  0  0  0  0  0  0  0  0  0  0  0
    2.0038   -2.1247   -2.7547 C   0  0  0  0  0  0  0  0  0  0  0  0
    1.2270   -1.6308   -3.8445 C   0  0  0  0  0  0  0  0  0  0  0  0
    1.7409   -2.0045   -5.0679 C   0  0  0  0  0  0  0  0  0  0  0  0
    3.1392   -2.9738   -4.9081 S   0  0  0  0  0  0  0  0  0  0  0  0
    3.0607   -2.8938   -3.1996 C   0  0  0  0  0  0  0  0  0  0  0  0
    1.0873    0.5206   -1.1897 C   0  0  0  0  0  0  0  0  0  0  0  0
    1.2088    0.9069   -2.3378 O   0  0  0  0  0  0  0  0  0  0  0  0
    0.7457    1.2194   -0.0504 N   0  0  0  0  0  0  0  0  0  0  0  0
    0.4741    2.6163   -0.0480 C   0  0  0  0  0  0  0  0  0  0  0  0
   -0.1232    3.2238   -1.1657 C   0  0  0  0  0  0  0  0  0  0  0  0
   -0.3976    4.5955   -1.1911 C   0  0  0  0  0  0  0  0  0  0  0  0
   -0.0675    5.3925   -0.1015 C   0  0  0  0  0  0  0  0  0  0  0  0
    0.5457    4.8186    1.0063 C   0  0  0  0  0  0  0  0  0  0  0  0
    0.8185    3.4454    1.0290 C   0  0  0  0  0  0  0  0  0  0  0  0
   -3.5492   -2.9065    1.2015 H   0  0  0  0  0  0  0  0  0  0  0  0
   -4.0704   -3.7702    2.6583 H   0  0  0  0  0  0  0  0  0  0  0  0
   -4.4084   -2.0389    2.4894 H   0  0  0  0  0  0  0  0  0  0  0  0
   -2.4943   -2.4631    4.0452 H   0  0  0  0  0  0  0  0  0  0  0  0
   -1.6397   -3.3251    2.7633 H   0  0  0  0  0  0  0  0  0  0  0  0
   -1.6292   -1.2438    1.3727 H   0  0  0  0  0  0  0  0  0  0  0  0
   -2.4745   -0.3781    2.6594 H   0  0  0  0  0  0  0  0  0  0  0  0
   -0.5844   -0.8099    4.2280 H   0  0  0  0  0  0  0  0  0  0  0  0
    0.2951   -1.6927    2.9882 H   0  0  0  0  0  0  0  0  0  0  0  0
    1.9176   -2.8390   -0.7501 H   0  0  0  0  0  0  0  0  0  0  0  0
    0.3345   -1.0236   -3.7531 H   0  0  0  0  0  0  0  0  0  0  0  0
    1.3586   -1.7563   -6.0483 H   0  0  0  0  0  0  0  0  0  0  0  0
    3.8067   -3.4107   -2.6110 H   0  0  0  0  0  0  0  0  0  0  0  0
   -0.4122    2.6391   -2.0365 H   0  0  0  0  0  0  0  0  0  0  0  0
   -0.8685    5.0363   -2.0664 H   0  0  0  0  0  0  0  0  0  0  0  0
   -0.2763    6.4589   -0.1206 H   0  0  0  0  0  0  0  0  0  0  0  0
    0.8281    5.4398    1.8530 H   0  0  0  0  0  0  0  0  0  0  0  0
    1.3567    3.0655    1.8919 H   0  0  0  0  0  0  0  0  0  0  0  0
  1  2  1  0
  2  3  1  0
  3  4  1  0
  4  5  1  0
  5  6  1  0
  6  7  2  0
  7  8  1  0
  8  9  2  3
  9 10  1  0
 10 11  1  0
 11 12  2  0
 12 13  1  0
 13 14  1  0
  8 15  1  0
 15 16  2  0
 15 17  1  0
 17 18  1  0
 18 19  2  0
 19 20  1  0
 20 21  2  0
 21 22  1  0
 22 23  2  0
 17  6  1  0
 23 18  1  0
 14 10  2  0
  1 24  1  0
  1 25  1  0
  1 26  1  0
  2 27  1  0
  2 28  1  0
  3 29  1  0
  3 30  1  0
  4 31  1  0
  4 32  1  0
  9 33  1  0
 11 34  1  0
 12 35  1  0
 14 36  1  0
 19 37  1  0
 20 38  1  0
 21 39  1  0
 22 40  1  0
 23 41  1  0
M  END
$$$$
