
     RDKit          3D

 62 65  0  0  0  0  0  0  0  0999 V2000
   -2.8205   -1.8528   -2.3726 O   0  0  0  0  0  0  0  0  0  0  0  0
   -2.1050   -1.1046   -1.7128 C   0  0  0  0  0  0  0  0  0  0  0  0
   -2.6005   -0.2170   -0.7832 N   0  0  0  0  0  0  0  0  0  0  0  0
   -4.0329   -0.0464   -0.6137 C   0  0  0  0  0  0  0  0  0  0  0  0
   -4.3625    0.6779    0.6934 C   0  0  0  0  0  0  0  0  0  0  0  0
   -5.8453    0.8844    0.8947 C   0  0  0  0  0  0  0  0  0  0  0  0
   -6.4251    2.0830    0.7008 C   0  0  0  0  0  0  0  0  0  0  0  0
   -7.8840    2.3531    0.9346 C   0  0  0  0  0  0  0  0  0  0  0  0
   -8.5839    1.2464    1.7224 C   0  0  0  0  0  0  0  0  0  0  0  0
   -8.1541   -0.1313    1.2317 C   0  0  0  0  0  0  0  0  0  0  0  0
   -6.6397   -0.3159    1.3579 C   0  0  0  0  0  0  0  0  0  0  0  0
   -0.5890   -1.1014   -1.8817 C   0  0  0  0  0  0  0  0  0  0  0  0
    0.1306   -1.4197   -0.5674 C   0  0  0  0  0  0  0  0  0  0  0  0
    1.6475   -1.4333   -0.7515 C   0  0  0  0  0  0  0  0  0  0  0  0
    2.1626   -0.1129   -1.3515 C   0  0  0  0  0  0  0  0  0  0  0  0
    3.6812   -0.1561   -1.5983 C   0  0  0  0  0  0  0  0  0  0  0  0
    4.4034   -0.2836   -0.3413 N   0  0  0  0  0  0  0  0  0  0  0  0
    5.7789   -0.4058   -0.1903 C   0  0  0  0  0  0  0  0  0  0  0  0
    6.5503   -0.6564   -1.2942 N   0  0  0  0  0  0  0  0  0  0  0  0
    7.9131   -0.7922   -1.3085 C   0  0  0  0  0  0  0  0  0  0  0  0
    8.6485   -1.1076   -2.7827 S   0  0  0  0  0  0  0  0  0  0  0  0
    8.5967   -0.6600   -0.1335 N   0  0  0  0  0  0  0  0  0  0  0  0
    7.9052   -0.4340    0.9370 C   0  0  0  0  0  0  0  0  0  0  0  0
    8.6297   -0.2887    2.2311 C   0  0  0  0  0  0  0  0  0  0  0  0
    7.9624   -0.0707    3.3716 C   0  0  0  0  0  0  0  0  0  0  0  0
    6.5242    0.0264    3.4112 C   0  0  0  0  0  0  0  0  0  0  0  0
    5.7873   -0.0780    2.2963 C   0  0  0  0  0  0  0  0  0  0  0  0
    6.4112   -0.2959    1.0010 C   0  0  0  0  0  0  0  0  0  0  0  0
    1.4264    0.2053   -2.6634 C   0  0  0  0  0  0  0  0  0  0  0  0
   -0.0904    0.2176   -2.4786 C   0  0  0  0  0  0  0  0  0  0  0  0
   -1.9987    0.5333   -0.4743 H   0  0  0  0  0  0  0  0  0  0  0  0
   -4.5064   -1.0337   -0.6470 H   0  0  0  0  0  0  0  0  0  0  0  0
   -4.3959    0.5244   -1.4766 H   0  0  0  0  0  0  0  0  0  0  0  0
   -3.9557    0.1181    1.5454 H   0  0  0  0  0  0  0  0  0  0  0  0
   -3.8430    1.6455    0.7058 H   0  0  0  0  0  0  0  0  0  0  0  0
   -5.8332    2.9279    0.3569 H   0  0  0  0  0  0  0  0  0  0  0  0
   -8.3708    2.4794   -0.0392 H   0  0  0  0  0  0  0  0  0  0  0  0
   -7.9970    3.2996    1.4742 H   0  0  0  0  0  0  0  0  0  0  0  0
   -9.6704    1.3579    1.6317 H   0  0  0  0  0  0  0  0  0  0  0  0
   -8.3414    1.3440    2.7887 H   0  0  0  0  0  0  0  0  0  0  0  0
   -8.6693   -0.9125    1.8018 H   0  0  0  0  0  0  0  0  0  0  0  0
   -8.4523   -0.2544    0.1821 H   0  0  0  0  0  0  0  0  0  0  0  0
   -6.3550   -1.2060    0.7859 H   0  0  0  0  0  0  0  0  0  0  0  0
   -6.3839   -0.5136    2.4066 H   0  0  0  0  0  0  0  0  0  0  0  0
   -0.3590   -1.9060   -2.5942 H   0  0  0  0  0  0  0  0  0  0  0  0
   -0.1270   -0.6831    0.2038 H   0  0  0  0  0  0  0  0  0  0  0  0
   -0.2012   -2.3934   -0.1870 H   0  0  0  0  0  0  0  0  0  0  0  0
    1.9247   -2.2717   -1.4031 H   0  0  0  0  0  0  0  0  0  0  0  0
    2.1182   -1.6191    0.2207 H   0  0  0  0  0  0  0  0  0  0  0  0
    1.9466    0.6933   -0.6370 H   0  0  0  0  0  0  0  0  0  0  0  0
    3.9210   -0.9970   -2.2594 H   0  0  0  0  0  0  0  0  0  0  0  0
    3.9999    0.7661   -2.0984 H   0  0  0  0  0  0  0  0  0  0  0  0
    3.9536    0.1813    0.4402 H   0  0  0  0  0  0  0  0  0  0  0  0
    6.0980   -0.7723   -2.1879 H   0  0  0  0  0  0  0  0  0  0  0  0
    9.7098   -0.3693    2.1989 H   0  0  0  0  0  0  0  0  0  0  0  0
    8.5015    0.0308    4.3087 H   0  0  0  0  0  0  0  0  0  0  0  0
    6.0526    0.1774    4.3782 H   0  0  0  0  0  0  0  0  0  0  0  0
    4.7083   -0.0202    2.3693 H   0  0  0  0  0  0  0  0  0  0  0  0
    1.6907   -0.5363   -3.4277 H   0  0  0  0  0  0  0  0  0  0  0  0
    1.7494    1.1813   -3.0444 H   0  0  0  0  0  0  0  0  0  0  0  0
   -0.5770    0.3962   -3.4446 H   0  0  0  0  0  0  0  0  0  0  0  0
   -0.3630    1.0633   -1.8362 H   0  0  0  0  0  0  0  0  0  0  0  0
  1  2  2  0
  2  3  1  0
  3  4  1  0
  4  5  1  0
  5  6  1  0
  6  7  2  0
  7  8  1  0
  8  9  1  0
  9 10  1  0
 10 11  1  0
  2 12  1  0
 12 13  1  0
 13 14  1  0
 14 15  1  0
 15 16  1  0
 16 17  1  0
 17 18  1  0
 18 19  1  0
 19 20  1  0
 20 21  2  0
 20 22  1  0
 22 23  2  0
 23 24  1  0
 24 25  2  0
 25 26  1  0
 26 27  2  0
 27 28  1  0
 15 29  1  0
 29 30  1  0
 11  6  1  0
 30 12  1  0
 28 18  2  0
 28 23  1  0
  3 31  1  0
  4 32  1  0
  4 33  1  0
  5 34  1  0
  5 35  1  0
  7 36  1  0
  8 37  1  0
  8 38  1  0
  9 39  1  0
  9 40  1  0
 10 41  1  0
 10 42  1  0
 11 43  1  0
 11 44  1  0
 12 45  1  0
 13 46  1  0
 13 47  1  0
 14 48  1  0
 14 49  1  0
 15 50  1  0
 16 51  1  0
 16 52  1  0
 17 53  1  0
 19 54  1  0
 24 55  1  0
 25 56  1  0
 26 57  1  0
 27 58  1  0
 29 59  1  0
 29 60  1  0
 30 61  1  0
 30 62  1  0
M  END
$$$$
