
     RDKit          3D

 37 39  0  0  0  0  0  0  0  0999 V2000
    4.7811   -0.8497   -1.2546 C   0  0  0  0  0  0  0  0  0  0  0  0
    4.2549   -0.2287    0.0068 C   0  0  0  0  0  0  0  0  0  0  0  0
    5.1329    0.3707    0.9184 C   0  0  0  0  0  0  0  0  0  0  0  0
    4.6474    0.9562    2.0882 C   0  0  0  0  0  0  0  0  0  0  0  0
    3.2798    0.9644    2.3439 C   0  0  0  0  0  0  0  0  0  0  0  0
    2.8827    1.5299    3.5261 O   0  0  0  0  0  0  0  0  0  0  0  0
    2.3790    0.4179    1.4202 C   0  0  0  0  0  0  0  0  0  0  0  0
    0.9231    0.4727    1.7057 C   0  0  0  0  0  0  0  0  0  0  0  0
    0.5527    0.4985    2.8794 O   0  0  0  0  0  0  0  0  0  0  0  0
   -0.0976    0.5201    0.6405 C   0  0  0  0  0  0  0  0  0  0  0  0
    0.0923    1.2268   -0.5392 C   0  0  0  0  0  0  0  0  0  0  0  0
   -0.8247    1.2872   -1.5347 N   0  0  0  0  0  0  0  0  0  0  0  0
   -1.9961    0.6527   -1.3229 C   0  0  0  0  0  0  0  0  0  0  0  0
   -2.2936   -0.0544   -0.1714 C   0  0  0  0  0  0  0  0  0  0  0  0
   -1.3220   -0.1225    0.8307 C   0  0  0  0  0  0  0  0  0  0  0  0
   -3.5922   -0.7809   -0.0833 C   0  0  0  0  0  0  0  0  0  0  0  0
   -4.5851   -0.3104   -1.0325 N   0  0  0  0  0  0  0  0  0  0  0  0
   -5.9254   -0.8503   -0.9005 C   0  0  0  0  0  0  0  0  0  0  0  0
   -4.2227    0.2770   -2.2282 C   0  0  0  0  0  0  0  0  0  0  0  0
   -4.9968    0.4361   -3.1697 O   0  0  0  0  0  0  0  0  0  0  0  0
   -2.9418    0.7225   -2.3257 N   0  0  0  0  0  0  0  0  0  0  0  0
    2.8751   -0.1970    0.2608 C   0  0  0  0  0  0  0  0  0  0  0  0
    4.8013   -0.1057   -2.0568 H   0  0  0  0  0  0  0  0  0  0  0  0
    5.7940   -1.2385   -1.1066 H   0  0  0  0  0  0  0  0  0  0  0  0
    4.1531   -1.6909   -1.5663 H   0  0  0  0  0  0  0  0  0  0  0  0
    6.2050    0.3736    0.7312 H   0  0  0  0  0  0  0  0  0  0  0  0
    5.3350    1.3993    2.8040 H   0  0  0  0  0  0  0  0  0  0  0  0
    1.9427    1.2822    3.6757 H   0  0  0  0  0  0  0  0  0  0  0  0
    0.9996    1.7923   -0.7338 H   0  0  0  0  0  0  0  0  0  0  0  0
   -1.5121   -0.6732    1.7497 H   0  0  0  0  0  0  0  0  0  0  0  0
   -4.0111   -0.6623    0.9227 H   0  0  0  0  0  0  0  0  0  0  0  0
   -3.4254   -1.8473   -0.2753 H   0  0  0  0  0  0  0  0  0  0  0  0
   -5.9055   -1.9104   -1.1704 H   0  0  0  0  0  0  0  0  0  0  0  0
   -6.6307   -0.3305   -1.5549 H   0  0  0  0  0  0  0  0  0  0  0  0
   -6.2594   -0.7390    0.1350 H   0  0  0  0  0  0  0  0  0  0  0  0
   -2.6921    1.2270   -3.1627 H   0  0  0  0  0  0  0  0  0  0  0  0
    2.2029   -0.6734   -0.4493 H   0  0  0  0  0  0  0  0  0  0  0  0
  1  2  1  0
  2  3  2  0
  3  4  1  0
  4  5  2  0
  5  6  1  0
  5  7  1  0
  7  8  1  0
  8  9  2  0
  8 10  1  0
 10 11  2  0
 11 12  1  0
 12 13  2  0
 13 14  1  0
 14 15  2  0
 14 16  1  0
 16 17  1  0
 17 18  1  0
 17 19  1  0
 19 20  2  0
 19 21  1  0
  7 22  2  0
 22  2  1  0
 15 10  1  0
 21 13  1  0
  1 23  1  0
  1 24  1  0
  1 25  1  0
  3 26  1  0
  4 27  1  0
  6 28  1  0
 11 29  1  0
 15 30  1  0
 16 31  1  0
 16 32  1  0
 18 33  1  0
 18 34  1  0
 18 35  1  0
 21 36  1  0
 22 37  1  0
M  END
$$$$
