
     RDKit          3D

 46 49  0  0  0  0  0  0  0  0999 V2000
    6.1914    0.3799    2.5520 N   0  0  0  0  0  0  0  0  0  0  0  0
    5.9966    0.0076    0.9196 S   0  0  0  0  0  6  0  0  0  0  0  0
    6.4279   -1.3546    0.7178 O   0  0  0  0  0  0  0  0  0  0  0  0
    6.5730    1.1221    0.2023 O   0  0  0  0  0  0  0  0  0  0  0  0
    4.2353    0.0737    0.7520 C   0  0  0  0  0  0  0  0  0  0  0  0
    3.4696   -1.0156    1.1597 C   0  0  0  0  0  0  0  0  0  0  0  0
    2.0778   -0.9583    1.0346 C   0  0  0  0  0  0  0  0  0  0  0  0
    1.4203    0.1658    0.4987 C   0  0  0  0  0  0  0  0  0  0  0  0
    0.0313    0.1900    0.3890 N   0  0  0  0  0  0  0  0  0  0  0  0
   -0.7237   -0.8536    0.8437 N   0  0  0  0  0  0  0  0  0  0  0  0
   -1.9692   -0.4966    0.7529 C   0  0  0  0  0  0  0  0  0  0  0  0
   -3.0952   -1.3818    1.1328 C   0  0  0  0  0  0  0  0  0  0  0  0
   -2.8208   -2.6996    1.5197 C   0  0  0  0  0  0  0  0  0  0  0  0
   -3.8603   -3.5579    1.8826 C   0  0  0  0  0  0  0  0  0  0  0  0
   -5.1777   -3.1041    1.8618 C   0  0  0  0  0  0  0  0  0  0  0  0
   -5.4575   -1.7927    1.4792 C   0  0  0  0  0  0  0  0  0  0  0  0
   -4.4197   -0.9303    1.1152 C   0  0  0  0  0  0  0  0  0  0  0  0
   -2.1952    0.9069    0.2628 C   0  0  0  0  0  0  0  0  0  0  0  0
   -0.7740    1.2842   -0.1596 C   0  0  0  0  0  0  0  0  0  0  0  0
   -0.6748    1.4174   -1.6722 C   0  0  0  0  0  0  0  0  0  0  0  0
   -0.7909    2.6875   -2.2625 C   0  0  0  0  0  0  0  0  0  0  0  0
   -0.7281    2.8376   -3.6493 C   0  0  0  0  0  0  0  0  0  0  0  0
   -0.5547    1.7218   -4.4650 C   0  0  0  0  0  0  0  0  0  0  0  0
   -0.4462    0.4551   -3.8962 C   0  0  0  0  0  0  0  0  0  0  0  0
   -0.5099    0.3026   -2.5103 C   0  0  0  0  0  0  0  0  0  0  0  0
    2.2291    1.2380    0.0844 C   0  0  0  0  0  0  0  0  0  0  0  0
    3.6243    1.1991    0.2038 C   0  0  0  0  0  0  0  0  0  0  0  0
    6.6864    1.2700    2.6274 H   0  0  0  0  0  0  0  0  0  0  0  0
    5.3115    0.3880    3.0669 H   0  0  0  0  0  0  0  0  0  0  0  0
    3.9375   -1.9095    1.5661 H   0  0  0  0  0  0  0  0  0  0  0  0
    1.4918   -1.8179    1.3558 H   0  0  0  0  0  0  0  0  0  0  0  0
   -1.7964   -3.0665    1.5392 H   0  0  0  0  0  0  0  0  0  0  0  0
   -3.6399   -4.5800    2.1806 H   0  0  0  0  0  0  0  0  0  0  0  0
   -5.9869   -3.7733    2.1442 H   0  0  0  0  0  0  0  0  0  0  0  0
   -6.4866   -1.4415    1.4649 H   0  0  0  0  0  0  0  0  0  0  0  0
   -4.6707    0.0853    0.8256 H   0  0  0  0  0  0  0  0  0  0  0  0
   -2.5309    1.5229    1.1039 H   0  0  0  0  0  0  0  0  0  0  0  0
   -2.9295    0.9471   -0.5463 H   0  0  0  0  0  0  0  0  0  0  0  0
   -0.4956    2.2335    0.3158 H   0  0  0  0  0  0  0  0  0  0  0  0
   -0.9293    3.5728   -1.6455 H   0  0  0  0  0  0  0  0  0  0  0  0
   -0.8134    3.8256   -4.0945 H   0  0  0  0  0  0  0  0  0  0  0  0
   -0.5023    1.8384   -5.5443 H   0  0  0  0  0  0  0  0  0  0  0  0
   -0.3080   -0.4172   -4.5300 H   0  0  0  0  0  0  0  0  0  0  0  0
   -0.4186   -0.6961   -2.0848 H   0  0  0  0  0  0  0  0  0  0  0  0
    1.7883    2.1285   -0.3543 H   0  0  0  0  0  0  0  0  0  0  0  0
    4.2144    2.0457   -0.1398 H   0  0  0  0  0  0  0  0  0  0  0  0
  1  2  1  0
  2  3  2  0
  2  4  2  0
  2  5  1  0
  5  6  2  0
  6  7  1  0
  7  8  2  0
  8  9  1  0
  9 10  1  0
 10 11  2  0
 11 12  1  0
 12 13  2  0
 13 14  1  0
 14 15  2  0
 15 16  1  0
 16 17  2  0
 11 18  1  0
 18 19  1  0
 19 20  1  0
 20 21  2  0
 21 22  1  0
 22 23  2  0
 23 24  1  0
 24 25  2  0
  8 26  1  0
 26 27  2  0
 27  5  1  0
 19  9  1  0
 25 20  1  0
 17 12  1  0
  1 28  1  0
  1 29  1  0
  6 30  1  0
  7 31  1  0
 13 32  1  0
 14 33  1  0
 15 34  1  0
 16 35  1  0
 17 36  1  0
 18 37  1  0
 18 38  1  0
 19 39  1  0
 21 40  1  0
 22 41  1  0
 23 42  1  0
 24 43  1  0
 25 44  1  0
 26 45  1  0
 27 46  1  0
M  END
$$$$
