
     RDKit          3D

 44 45  0  0  0  0  0  0  0  0999 V2000
    3.6182   -1.8957    0.5729 C   0  0  0  0  0  0  0  0  0  0  0  0
    4.0359   -1.0183   -0.5762 C   0  0  0  0  0  0  0  0  0  0  0  0
    5.1931   -0.9727   -0.9791 O   0  0  0  0  0  0  0  0  0  0  0  0
    3.0033   -0.3166   -1.1478 N   0  0  0  0  0  0  0  0  0  0  0  0
    3.2423    0.6696   -2.1846 C   0  0  0  0  0  0  0  0  0  0  0  0
    1.9522    1.1807   -2.8315 C   0  0  0  0  0  0  0  0  0  0  0  0
    1.3012    2.1517   -2.0067 O   0  0  0  0  0  0  0  0  0  0  0  0
    0.3204    1.6582   -1.1747 C   0  0  0  0  0  0  0  0  0  0  0  0
   -0.4598    2.5824   -0.6436 N   0  0  0  0  0  0  0  0  0  0  0  0
   -1.3736    2.1371    0.2060 C   0  0  0  0  0  0  0  0  0  0  0  0
   -2.2587    3.0508    0.7872 N   0  0  0  0  0  0  0  0  0  0  0  0
   -1.8129    4.4363    0.7467 C   0  0  0  0  0  0  0  0  0  0  0  0
   -2.8681    2.5996    2.0285 C   0  0  0  0  0  0  0  0  0  0  0  0
   -1.5004    0.8446    0.5056 N   0  0  0  0  0  0  0  0  0  0  0  0
   -0.6793   -0.0199   -0.0779 C   0  0  0  0  0  0  0  0  0  0  0  0
   -0.7708   -1.3755    0.2304 N   0  0  0  0  0  0  0  0  0  0  0  0
   -0.3911   -2.2697   -0.8809 C   0  0  0  0  0  0  0  0  0  0  0  0
   -0.9061   -3.6934   -0.6219 C   0  0  0  0  0  0  0  0  0  0  0  0
   -2.3355   -3.7609   -0.4984 O   0  0  0  0  0  0  0  0  0  0  0  0
   -2.9158   -2.5863    0.0959 C   0  0  0  0  0  0  0  0  0  0  0  0
   -1.9442   -1.8189    1.0043 C   0  0  0  0  0  0  0  0  0  0  0  0
    0.2745    0.3576   -0.9189 N   0  0  0  0  0  0  0  0  0  0  0  0
    3.4726   -2.9168    0.2099 H   0  0  0  0  0  0  0  0  0  0  0  0
    2.6899   -1.5410    1.0305 H   0  0  0  0  0  0  0  0  0  0  0  0
    4.4007   -1.8838    1.3371 H   0  0  0  0  0  0  0  0  0  0  0  0
    2.1134   -0.2684   -0.6567 H   0  0  0  0  0  0  0  0  0  0  0  0
    3.7989    1.4943   -1.7261 H   0  0  0  0  0  0  0  0  0  0  0  0
    3.8798    0.2039   -2.9442 H   0  0  0  0  0  0  0  0  0  0  0  0
    1.2836    0.3667   -3.1398 H   0  0  0  0  0  0  0  0  0  0  0  0
    2.2256    1.7140   -3.7494 H   0  0  0  0  0  0  0  0  0  0  0  0
   -1.6591    4.7829   -0.2816 H   0  0  0  0  0  0  0  0  0  0  0  0
   -2.5750    5.0930    1.1818 H   0  0  0  0  0  0  0  0  0  0  0  0
   -0.8877    4.5750    1.3180 H   0  0  0  0  0  0  0  0  0  0  0  0
   -3.4471    1.6795    1.8863 H   0  0  0  0  0  0  0  0  0  0  0  0
   -2.1138    2.4335    2.8064 H   0  0  0  0  0  0  0  0  0  0  0  0
   -3.5725    3.3519    2.4016 H   0  0  0  0  0  0  0  0  0  0  0  0
   -0.8318   -1.9137   -1.8218 H   0  0  0  0  0  0  0  0  0  0  0  0
    0.6987   -2.2949   -0.9887 H   0  0  0  0  0  0  0  0  0  0  0  0
   -0.6166   -4.3547   -1.4447 H   0  0  0  0  0  0  0  0  0  0  0  0
   -0.4681   -4.1029    0.2959 H   0  0  0  0  0  0  0  0  0  0  0  0
   -3.7916   -2.9101    0.6668 H   0  0  0  0  0  0  0  0  0  0  0  0
   -3.2715   -1.9436   -0.7176 H   0  0  0  0  0  0  0  0  0  0  0  0
   -2.4727   -1.0109    1.5206 H   0  0  0  0  0  0  0  0  0  0  0  0
   -1.5809   -2.4946    1.7887 H   0  0  0  0  0  0  0  0  0  0  0  0
  1  2  1  0
  2  3  2  0
  2  4  1  0
  4  5  1  0
  5  6  1  0
  6  7  1  0
  7  8  1  0
  8  9  2  0
  9 10  1  0
 10 11  1  0
 11 12  1  0
 11 13  1  0
 10 14  2  0
 14 15  1  0
 15 16  1  0
 16 17  1  0
 17 18  1  0
 18 19  1  0
 19 20  1  0
 20 21  1  0
 15 22  2  0
 22  8  1  0
 21 16  1  0
  1 23  1  0
  1 24  1  0
  1 25  1  0
  4 26  1  0
  5 27  1  0
  5 28  1  0
  6 29  1  0
  6 30  1  0
 12 31  1  0
 12 32  1  0
 12 33  1  0
 13 34  1  0
 13 35  1  0
 13 36  1  0
 17 37  1  0
 17 38  1  0
 18 39  1  0
 18 40  1  0
 20 41  1  0
 20 42  1  0
 21 43  1  0
 21 44  1  0
M  END
$$$$
