
     RDKit          3D

 33 35  0  0  0  0  0  0  0  0999 V2000
    4.2360    1.0999    1.3034 C   0  0  0  0  0  0  0  0  0  0  0  0
    3.4051    0.4349    0.2812 C   0  0  0  0  0  0  0  0  0  0  0  0
    3.6232    0.0620   -1.0225 C   0  0  0  0  0  0  0  0  0  0  0  0
    2.4212   -0.5417   -1.4617 C   0  0  0  0  0  0  0  0  0  0  0  0
    1.5204   -0.5240   -0.4007 C   0  0  0  0  0  0  0  0  0  0  0  0
    0.1638   -0.9998   -0.3271 C   0  0  0  0  0  0  0  0  0  0  0  0
   -0.9630   -0.0761   -0.0910 C   0  0  0  0  0  0  0  0  0  0  0  0
   -2.2166   -0.5526    0.0151 C   0  0  0  0  0  0  0  0  0  0  0  0
   -2.4456   -1.8979   -0.1147 N   0  0  0  0  0  0  0  0  0  0  0  0
   -1.4725   -2.8413   -0.3445 C   0  0  0  0  0  0  0  0  0  0  0  0
   -1.9898   -4.4344   -0.4849 S   0  0  0  0  0  0  0  0  0  0  0  0
   -0.0608   -2.3340   -0.4419 C   0  0  0  0  0  0  0  0  0  0  0  0
    0.9923   -3.2813   -0.6343 C   0  0  0  0  0  0  0  0  0  0  0  0
    1.8582   -4.0354   -0.8082 N   0  0  0  0  0  0  0  0  0  0  0  0
   -3.4224    0.3107    0.2842 C   0  0  0  0  0  0  0  0  0  0  0  0
   -3.0599    1.7175    0.7574 C   0  0  0  0  0  0  0  0  0  0  0  0
   -1.9223    2.2897   -0.0763 C   0  0  0  0  0  0  0  0  0  0  0  0
   -0.6735    1.4079    0.0161 C   0  0  0  0  0  0  0  0  0  0  0  0
    2.1448    0.0967    0.6589 O   0  0  0  0  0  0  0  0  0  0  0  0
    3.7652    2.0312    1.6329 H   0  0  0  0  0  0  0  0  0  0  0  0
    5.2277    1.3404    0.9081 H   0  0  0  0  0  0  0  0  0  0  0  0
    4.3645    0.4499    2.1743 H   0  0  0  0  0  0  0  0  0  0  0  0
    4.5341    0.2043   -1.5872 H   0  0  0  0  0  0  0  0  0  0  0  0
    2.2296   -0.9529   -2.4440 H   0  0  0  0  0  0  0  0  0  0  0  0
   -3.3971   -2.2476   -0.0391 H   0  0  0  0  0  0  0  0  0  0  0  0
   -4.0142    0.3779   -0.6375 H   0  0  0  0  0  0  0  0  0  0  0  0
   -4.0615   -0.1578    1.0426 H   0  0  0  0  0  0  0  0  0  0  0  0
   -2.7613    1.6875    1.8131 H   0  0  0  0  0  0  0  0  0  0  0  0
   -3.9399    2.3672    0.6930 H   0  0  0  0  0  0  0  0  0  0  0  0
   -1.6815    3.3045    0.2603 H   0  0  0  0  0  0  0  0  0  0  0  0
   -2.2403    2.3687   -1.1238 H   0  0  0  0  0  0  0  0  0  0  0  0
   -0.1769    1.5990    0.9760 H   0  0  0  0  0  0  0  0  0  0  0  0
    0.0129    1.7267   -0.7775 H   0  0  0  0  0  0  0  0  0  0  0  0
  1  2  1  0
  2  3  2  0
  3  4  1  0
  4  5  2  0
  5  6  1  0
  6  7  1  0
  7  8  2  0
  8  9  1  0
  9 10  1  0
 10 11  2  0
 10 12  1  0
 12 13  1  0
 13 14  3  0
  8 15  1  0
 15 16  1  0
 16 17  1  0
 17 18  1  0
  5 19  1  0
 19  2  1  0
 12  6  2  0
 18  7  1  0
  1 20  1  0
  1 21  1  0
  1 22  1  0
  3 23  1  0
  4 24  1  0
  9 25  1  0
 15 26  1  0
 15 27  1  0
 16 28  1  0
 16 29  1  0
 17 30  1  0
 17 31  1  0
 18 32  1  0
 18 33  1  0
M  END
$$$$
