
     RDKit          3D

 52 55  0  0  0  0  0  0  0  0999 V2000
    8.0696   -1.0103   -0.0477 C   0  0  0  0  0  0  0  0  0  0  0  0
    7.0575   -1.4431   -0.9497 O   0  0  0  0  0  0  0  0  0  0  0  0
    5.7628   -1.1996   -0.5849 C   0  0  0  0  0  0  0  0  0  0  0  0
    4.8034   -1.7053   -1.4620 C   0  0  0  0  0  0  0  0  0  0  0  0
    3.4402   -1.5246   -1.2070 C   0  0  0  0  0  0  0  0  0  0  0  0
    3.0158   -0.8283   -0.0706 C   0  0  0  0  0  0  0  0  0  0  0  0
    1.6311   -0.6908    0.1195 N   0  0  0  0  0  0  0  0  0  0  0  0
    0.9649    0.0022    1.1129 C   0  0  0  0  0  0  0  0  0  0  0  0
    1.4698    0.6548    2.0218 O   0  0  0  0  0  0  0  0  0  0  0  0
   -0.5610   -0.0709    0.9564 C   0  0  0  0  0  0  0  0  0  0  0  0
   -0.9562   -1.1709    0.1335 O   0  0  0  0  0  0  0  0  0  0  0  0
   -2.3653   -1.3040    0.0534 C   0  0  0  0  0  0  0  0  0  0  0  0
   -2.9735   -1.5879    1.3099 O   0  0  0  0  0  0  0  0  0  0  0  0
   -4.3474   -1.2178    1.1244 C   0  0  0  0  0  0  0  0  0  0  0  0
   -5.1722   -2.4567    0.7838 C   0  0  0  0  0  0  0  0  0  0  0  0
   -4.8575   -0.5686    2.4032 C   0  0  0  0  0  0  0  0  0  0  0  0
   -4.4527   -0.2877    0.0356 O   0  0  0  0  0  0  0  0  0  0  0  0
   -3.1037   -0.0720   -0.4282 C   0  0  0  0  0  0  0  0  0  0  0  0
   -2.5575    1.2435    0.1539 C   0  0  0  0  0  0  0  0  0  0  0  0
   -2.7490    2.3071   -0.8048 O   0  0  0  0  0  0  0  0  0  0  0  0
   -1.4964    2.4369   -1.4977 C   0  0  0  0  0  0  0  0  0  0  0  0
   -0.9760    3.8597   -1.3054 C   0  0  0  0  0  0  0  0  0  0  0  0
   -1.6850    2.1324   -2.9781 C   0  0  0  0  0  0  0  0  0  0  0  0
   -0.5649    1.4954   -0.9468 O   0  0  0  0  0  0  0  0  0  0  0  0
   -1.0623    1.2442    0.3778 C   0  0  0  0  0  0  0  0  0  0  0  0
    3.9766   -0.3199    0.8028 C   0  0  0  0  0  0  0  0  0  0  0  0
    5.3434   -0.5056    0.5491 C   0  0  0  0  0  0  0  0  0  0  0  0
    7.9776   -1.5216    0.9198 H   0  0  0  0  0  0  0  0  0  0  0  0
    8.0532    0.0807    0.0763 H   0  0  0  0  0  0  0  0  0  0  0  0
    9.0387   -1.2829   -0.4799 H   0  0  0  0  0  0  0  0  0  0  0  0
    5.1185   -2.2463   -2.3511 H   0  0  0  0  0  0  0  0  0  0  0  0
    2.7214   -1.9320   -1.9113 H   0  0  0  0  0  0  0  0  0  0  0  0
    1.0188   -1.1332   -0.5632 H   0  0  0  0  0  0  0  0  0  0  0  0
   -0.9606   -0.2297    1.9656 H   0  0  0  0  0  0  0  0  0  0  0  0
   -2.5732   -2.1525   -0.6086 H   0  0  0  0  0  0  0  0  0  0  0  0
   -5.0836   -3.2186    1.5650 H   0  0  0  0  0  0  0  0  0  0  0  0
   -4.8289   -2.9097   -0.1510 H   0  0  0  0  0  0  0  0  0  0  0  0
   -6.2285   -2.2035    0.6455 H   0  0  0  0  0  0  0  0  0  0  0  0
   -4.7932   -1.2576    3.2519 H   0  0  0  0  0  0  0  0  0  0  0  0
   -5.8925   -0.2318    2.2906 H   0  0  0  0  0  0  0  0  0  0  0  0
   -4.2564    0.3109    2.6626 H   0  0  0  0  0  0  0  0  0  0  0  0
   -3.1250   -0.0309   -1.5207 H   0  0  0  0  0  0  0  0  0  0  0  0
   -3.0961    1.5213    1.0652 H   0  0  0  0  0  0  0  0  0  0  0  0
    0.0140    3.9834   -1.7580 H   0  0  0  0  0  0  0  0  0  0  0  0
   -1.6633    4.5934   -1.7386 H   0  0  0  0  0  0  0  0  0  0  0  0
   -0.8791    4.1039   -0.2414 H   0  0  0  0  0  0  0  0  0  0  0  0
   -1.9714    1.0874   -3.1301 H   0  0  0  0  0  0  0  0  0  0  0  0
   -2.4742    2.7532   -3.4174 H   0  0  0  0  0  0  0  0  0  0  0  0
   -0.7559    2.2888   -3.5343 H   0  0  0  0  0  0  0  0  0  0  0  0
   -0.7594    2.0868    1.0115 H   0  0  0  0  0  0  0  0  0  0  0  0
    3.6963    0.2229    1.7013 H   0  0  0  0  0  0  0  0  0  0  0  0
    6.0487   -0.0942    1.2626 H   0  0  0  0  0  0  0  0  0  0  0  0
  1  2  1  0
  2  3  1  0
  3  4  2  0
  4  5  1  0
  5  6  2  0
  6  7  1  0
  7  8  1  0
  8  9  2  0
  8 10  1  0
 10 11  1  0
 11 12  1  0
 12 13  1  0
 13 14  1  0
 14 15  1  0
 14 16  1  0
 14 17  1  0
 17 18  1  0
 18 19  1  0
 19 20  1  0
 20 21  1  0
 21 22  1  0
 21 23  1  0
 21 24  1  0
 24 25  1  0
  6 26  1  0
 26 27  2  0
 27  3  1  0
 25 10  1  0
 18 12  1  0
 25 19  1  0
  1 28  1  0
  1 29  1  0
  1 30  1  0
  4 31  1  0
  5 32  1  0
  7 33  1  0
 10 34  1  0
 12 35  1  0
 15 36  1  0
 15 37  1  0
 15 38  1  0
 16 39  1  0
 16 40  1  0
 16 41  1  0
 18 42  1  0
 19 43  1  0
 22 44  1  0
 22 45  1  0
 22 46  1  0
 23 47  1  0
 23 48  1  0
 23 49  1  0
 25 50  1  0
 26 51  1  0
 27 52  1  0
M  END
$$$$
