
     RDKit          3D

 65 69  0  0  0  0  0  0  0  0999 V2000
   -5.0007    4.9266    0.5295 C   0  0  0  0  0  0  0  0  0  0  0  0
   -3.6618    4.9545    1.2465 C   0  0  0  0  0  0  0  0  0  0  0  0
   -3.4509    3.7411    1.9666 O   0  0  0  0  0  0  0  0  0  0  0  0
   -2.7668    2.7261    1.3613 C   0  0  0  0  0  0  0  0  0  0  0  0
   -2.4259    2.6461    0.0134 C   0  0  0  0  0  0  0  0  0  0  0  0
   -1.7143    1.5418   -0.4710 C   0  0  0  0  0  0  0  0  0  0  0  0
   -1.3440    0.4918    0.3829 C   0  0  0  0  0  0  0  0  0  0  0  0
   -0.5248   -0.6673   -0.1645 C   0  0  0  0  0  0  0  0  0  0  0  0
    0.9713   -0.4852    0.1835 C   0  0  0  0  0  0  0  0  0  0  0  0
    1.8280   -0.4646   -1.0601 C   0  0  0  0  0  0  0  0  0  0  0  0
    1.4684   -1.0295   -2.0934 O   0  0  0  0  0  0  0  0  0  0  0  0
    3.1381    0.2572   -1.0473 C   0  0  0  0  0  0  0  0  0  0  0  0
    3.7580    0.5179   -2.2912 C   0  0  0  0  0  0  0  0  0  0  0  0
    4.9779    1.1974   -2.3597 C   0  0  0  0  0  0  0  0  0  0  0  0
    5.5521    1.6084   -1.1768 C   0  0  0  0  0  0  0  0  0  0  0  0
    4.9644    1.3497    0.0506 C   0  0  0  0  0  0  0  0  0  0  0  0
    3.7607    0.6677    0.1410 C   0  0  0  0  0  0  0  0  0  0  0  0
    5.8559    1.8339    1.1308 C   0  0  0  0  0  0  0  0  0  0  0  0
    6.8015    2.7110    0.2948 C   0  0  0  0  0  0  0  0  0  0  0  0
    8.2409    2.6407    0.7777 C   0  0  0  0  0  0  0  0  0  0  0  0
    6.7456    2.2727   -1.0889 O   0  0  0  0  0  0  0  0  0  0  0  0
    1.2571   -1.6879    1.0223 C   0  0  0  0  0  0  0  0  0  0  0  0
    2.2907   -1.9067    1.6273 O   0  0  0  0  0  0  0  0  0  0  0  0
    0.0618   -2.6247    1.0119 C   0  0  0  0  0  0  0  0  0  0  0  0
    0.0631   -3.7492    1.4619 O   0  0  0  0  0  0  0  0  0  0  0  0
   -0.9526   -1.9498    0.3769 N   0  0  0  0  0  0  0  0  0  0  0  0
   -2.1845   -2.6018   -0.0449 C   0  0  0  0  0  0  0  0  0  0  0  0
   -1.9763   -3.4541   -1.2994 C   0  0  0  0  0  0  0  0  0  0  0  0
   -3.2888   -3.9260   -1.9227 C   0  0  0  0  0  0  0  0  0  0  0  0
   -4.0927   -4.7545   -1.0522 N   0  0  0  0  0  0  0  0  0  0  0  0
   -5.2064   -4.3614   -0.3647 C   0  0  0  0  0  0  0  0  0  0  0  0
   -5.6359   -5.4932    0.2873 C   0  0  0  0  0  0  0  0  0  0  0  0
   -4.8169   -6.5559    0.0064 N   0  0  0  0  0  0  0  0  0  0  0  0
   -3.8958   -6.0817   -0.8017 C   0  0  0  0  0  0  0  0  0  0  0  0
   -1.7016    0.5744    1.7354 C   0  0  0  0  0  0  0  0  0  0  0  0
   -2.4108    1.6794    2.2135 C   0  0  0  0  0  0  0  0  0  0  0  0
   -5.1897    5.8846    0.0349 H   0  0  0  0  0  0  0  0  0  0  0  0
   -5.8124    4.7292    1.2377 H   0  0  0  0  0  0  0  0  0  0  0  0
   -5.0358    4.1321   -0.2229 H   0  0  0  0  0  0  0  0  0  0  0  0
   -3.6828    5.7586    1.9905 H   0  0  0  0  0  0  0  0  0  0  0  0
   -2.8355    5.1963    0.5699 H   0  0  0  0  0  0  0  0  0  0  0  0
   -2.7048    3.4203   -0.6931 H   0  0  0  0  0  0  0  0  0  0  0  0
   -1.4583    1.5106   -1.5284 H   0  0  0  0  0  0  0  0  0  0  0  0
   -0.6959   -0.7161   -1.2463 H   0  0  0  0  0  0  0  0  0  0  0  0
    1.1250    0.4242    0.7732 H   0  0  0  0  0  0  0  0  0  0  0  0
    3.2914    0.1859   -3.2177 H   0  0  0  0  0  0  0  0  0  0  0  0
    5.4594    1.3947   -3.3117 H   0  0  0  0  0  0  0  0  0  0  0  0
    3.3548    0.4487    1.1226 H   0  0  0  0  0  0  0  0  0  0  0  0
    5.3338    2.4192    1.8931 H   0  0  0  0  0  0  0  0  0  0  0  0
    6.3734    0.9892    1.5982 H   0  0  0  0  0  0  0  0  0  0  0  0
    6.4640    3.7566    0.3142 H   0  0  0  0  0  0  0  0  0  0  0  0
    8.6297    1.6188    0.7060 H   0  0  0  0  0  0  0  0  0  0  0  0
    8.8840    3.2653    0.1483 H   0  0  0  0  0  0  0  0  0  0  0  0
    8.3282    2.9795    1.8147 H   0  0  0  0  0  0  0  0  0  0  0  0
   -2.9461   -1.8316   -0.2083 H   0  0  0  0  0  0  0  0  0  0  0  0
   -2.5192   -3.2409    0.7807 H   0  0  0  0  0  0  0  0  0  0  0  0
   -1.3437   -4.3169   -1.0544 H   0  0  0  0  0  0  0  0  0  0  0  0
   -1.4294   -2.8749   -2.0538 H   0  0  0  0  0  0  0  0  0  0  0  0
   -3.8997   -3.0685   -2.2289 H   0  0  0  0  0  0  0  0  0  0  0  0
   -3.0826   -4.5132   -2.8258 H   0  0  0  0  0  0  0  0  0  0  0  0
   -5.5907   -3.3524   -0.3904 H   0  0  0  0  0  0  0  0  0  0  0  0
   -6.4913   -5.6010    0.9411 H   0  0  0  0  0  0  0  0  0  0  0  0
   -3.0781   -6.6504   -1.2257 H   0  0  0  0  0  0  0  0  0  0  0  0
   -1.4437   -0.2195    2.4342 H   0  0  0  0  0  0  0  0  0  0  0  0
   -2.6882    1.7268    3.2652 H   0  0  0  0  0  0  0  0  0  0  0  0
  1  2  1  0
  2  3  1  0
  3  4  1  0
  4  5  2  0
  5  6  1  0
  6  7  2  0
  7  8  1  0
  8  9  1  0
  9 10  1  0
 10 11  2  0
 10 12  1  0
 12 13  2  0
 13 14  1  0
 14 15  2  0
 15 16  1  0
 16 17  2  0
 16 18  1  0
 18 19  1  0
 19 20  1  0
 19 21  1  0
  9 22  1  0
 22 23  2  0
 22 24  1  0
 24 25  2  0
 24 26  1  0
 26 27  1  0
 27 28  1  0
 28 29  1  0
 29 30  1  0
 30 31  1  0
 31 32  2  0
 32 33  1  0
 33 34  2  0
  7 35  1  0
 35 36  2  0
 36  4  1  0
 26  8  1  0
 34 30  1  0
 17 12  1  0
 21 15  1  0
  1 37  1  0
  1 38  1  0
  1 39  1  0
  2 40  1  0
  2 41  1  0
  5 42  1  0
  6 43  1  0
  8 44  1  0
  9 45  1  0
 13 46  1  0
 14 47  1  0
 17 48  1  0
 18 49  1  0
 18 50  1  0
 19 51  1  0
 20 52  1  0
 20 53  1  0
 20 54  1  0
 27 55  1  0
 27 56  1  0
 28 57  1  0
 28 58  1  0
 29 59  1  0
 29 60  1  0
 31 61  1  0
 32 62  1  0
 34 63  1  0
 35 64  1  0
 36 65  1  0
M  END
$$$$
