
     RDKit          3D

 28 29  0  0  0  0  0  0  0  0999 V2000
    3.9572   -2.0147    1.9880 O   0  0  0  0  0  0  0  0  0  0  0  0
    4.0409   -1.1608    1.1246 C   0  0  0  0  0  0  0  0  0  0  0  0
    5.2308   -0.6578    0.7521 O   0  0  0  0  0  0  0  0  0  0  0  0
    2.9052   -0.5700    0.3779 C   0  0  0  0  0  0  0  0  0  0  0  0
    3.0936    0.3686   -0.6400 C   0  0  0  0  0  0  0  0  0  0  0  0
    1.9893    0.8938   -1.3081 C   0  0  0  0  0  0  0  0  0  0  0  0
    0.6981    0.4823   -0.9638 C   0  0  0  0  0  0  0  0  0  0  0  0
    0.4882   -0.4646    0.0458 C   0  0  0  0  0  0  0  0  0  0  0  0
   -0.7951   -0.8717    0.4697 N   0  0  0  0  0  0  0  0  0  0  0  0
   -2.0572   -0.3449    0.1371 C   0  0  0  0  0  0  0  0  0  0  0  0
   -2.9954   -1.1966   -0.4612 C   0  0  0  0  0  0  0  0  0  0  0  0
   -4.2161   -0.6823   -0.8811 C   0  0  0  0  0  0  0  0  0  0  0  0
   -4.5696    0.6145   -0.7529 N   0  0  0  0  0  0  0  0  0  0  0  0
   -3.6642    1.4348   -0.1718 C   0  0  0  0  0  0  0  0  0  0  0  0
   -2.4260    0.9976    0.2746 C   0  0  0  0  0  0  0  0  0  0  0  0
   -1.5970    1.9610    0.9533 N   0  0  0  0  0  4  0  0  0  0  0  0
   -1.3162    2.9939    0.3276 O   0  0  0  0  0  0  0  0  0  0  0  0
   -1.2747    1.7202    2.1242 O   0  0  0  0  0  1  0  0  0  0  0  0
    1.6070   -0.9768    0.7183 C   0  0  0  0  0  0  0  0  0  0  0  0
    5.8740   -1.1239    1.3263 H   0  0  0  0  0  0  0  0  0  0  0  0
    4.0915    0.6999   -0.9163 H   0  0  0  0  0  0  0  0  0  0  0  0
    2.1307    1.6286   -2.0974 H   0  0  0  0  0  0  0  0  0  0  0  0
   -0.1352    0.9053   -1.5183 H   0  0  0  0  0  0  0  0  0  0  0  0
   -0.8112   -1.8481    0.7553 H   0  0  0  0  0  0  0  0  0  0  0  0
   -2.7771   -2.2474   -0.6239 H   0  0  0  0  0  0  0  0  0  0  0  0
   -4.9589   -1.3206   -1.3534 H   0  0  0  0  0  0  0  0  0  0  0  0
   -3.9833    2.4691   -0.0681 H   0  0  0  0  0  0  0  0  0  0  0  0
    1.4708   -1.6895    1.5299 H   0  0  0  0  0  0  0  0  0  0  0  0
  1  2  2  0
  2  3  1  0
  2  4  1  0
  4  5  2  0
  5  6  1  0
  6  7  2  0
  7  8  1  0
  8  9  1  0
  9 10  1  0
 10 11  2  0
 11 12  1  0
 12 13  2  0
 13 14  1  0
 14 15  2  0
 15 16  1  0
 16 17  2  0
 16 18  1  0
  8 19  2  0
 19  4  1  0
 15 10  1  0
  3 20  1  0
  5 21  1  0
  6 22  1  0
  7 23  1  0
  9 24  1  0
 11 25  1  0
 12 26  1  0
 14 27  1  0
 19 28  1  0
M  CHG  2  16   1  18  -1
M  END
$$$$
