
     RDKit          3D

 56 59  0  0  0  0  0  0  0  0999 V2000
   -1.7010   -1.6916   -0.8149 C   0  0  0  0  0  0  0  0  0  0  0  0
   -1.7616   -0.5453    0.1999 C   0  0  0  0  0  0  0  0  0  0  0  0
   -2.9200   -0.7919    1.2008 C   0  0  0  0  0  0  0  0  0  0  0  0
   -2.6851   -1.1932    2.3511 O   0  0  0  0  0  0  0  0  0  0  0  0
   -4.2415   -0.6041    0.8183 N   0  0  0  0  0  0  0  0  0  0  0  0
   -5.2843   -0.8956    1.8178 C   0  0  0  0  0  0  0  0  0  0  0  0
   -6.6435   -0.7428    1.1446 C   0  0  0  0  0  0  0  0  0  0  0  0
   -6.2621   -0.1403   -0.1677 C   0  0  0  0  0  0  0  0  0  0  0  0
   -7.1480    0.3008   -1.1437 C   0  0  0  0  0  0  0  0  0  0  0  0
   -6.6274    0.8092   -2.3284 C   0  0  0  0  0  0  0  0  0  0  0  0
   -5.2431    0.8616   -2.5168 C   0  0  0  0  0  0  0  0  0  0  0  0
   -4.3608    0.4090   -1.5238 C   0  0  0  0  0  0  0  0  0  0  0  0
   -4.8713   -0.0963   -0.3390 C   0  0  0  0  0  0  0  0  0  0  0  0
   -0.4784   -0.2828    0.9192 N   0  0  0  0  0  0  0  0  0  0  0  0
    0.4624    0.5192    0.1140 C   0  0  0  0  0  0  0  0  0  0  0  0
    1.7507    0.8787    0.8870 C   0  0  0  0  0  0  0  0  0  0  0  0
    2.4215   -0.3178    1.4808 N   0  0  0  0  0  0  0  0  0  0  0  0
    3.4434   -1.2165    0.4615 S   0  0  0  0  0  6  0  0  0  0  0  0
    3.9972   -2.3187    1.2176 O   0  0  0  0  0  0  0  0  0  0  0  0
    2.7537   -1.4398   -0.7914 O   0  0  0  0  0  0  0  0  0  0  0  0
    4.7776   -0.0795    0.1629 C   0  0  0  0  0  0  0  0  0  0  0  0
    5.0441    0.3686   -1.1326 C   0  0  0  0  0  0  0  0  0  0  0  0
    6.0971    1.2609   -1.3460 C   0  0  0  0  0  0  0  0  0  0  0  0
    6.8924    1.6999   -0.2730 C   0  0  0  0  0  0  0  0  0  0  0  0
    8.0168    2.6824   -0.5039 C   0  0  0  0  0  0  0  0  0  0  0  0
    7.6063    3.9736   -0.3704 F   0  0  0  0  0  0  0  0  0  0  0  0
    8.5612    2.5895   -1.7490 F   0  0  0  0  0  0  0  0  0  0  0  0
    9.0517    2.5256    0.3675 F   0  0  0  0  0  0  0  0  0  0  0  0
    6.6062    1.2388    1.0236 C   0  0  0  0  0  0  0  0  0  0  0  0
    5.5552    0.3468    1.2429 C   0  0  0  0  0  0  0  0  0  0  0  0
    1.4383   -1.1267    2.2681 C   0  0  0  0  0  0  0  0  0  0  0  0
    0.2017   -1.4930    1.4274 C   0  0  0  0  0  0  0  0  0  0  0  0
   -1.5377   -2.6572   -0.3236 H   0  0  0  0  0  0  0  0  0  0  0  0
   -2.6385   -1.7937   -1.3686 H   0  0  0  0  0  0  0  0  0  0  0  0
   -0.9040   -1.5364   -1.5485 H   0  0  0  0  0  0  0  0  0  0  0  0
   -1.9980    0.3963   -0.2958 H   0  0  0  0  0  0  0  0  0  0  0  0
   -5.1717   -0.1845    2.6459 H   0  0  0  0  0  0  0  0  0  0  0  0
   -5.1471   -1.9055    2.2215 H   0  0  0  0  0  0  0  0  0  0  0  0
   -7.3069   -0.0929    1.7226 H   0  0  0  0  0  0  0  0  0  0  0  0
   -7.1196   -1.7171    0.9941 H   0  0  0  0  0  0  0  0  0  0  0  0
   -8.2215    0.2483   -0.9902 H   0  0  0  0  0  0  0  0  0  0  0  0
   -7.2955    1.1622   -3.1101 H   0  0  0  0  0  0  0  0  0  0  0  0
   -4.8448    1.2582   -3.4485 H   0  0  0  0  0  0  0  0  0  0  0  0
   -3.3078    0.4787   -1.7460 H   0  0  0  0  0  0  0  0  0  0  0  0
    0.7157   -0.0012   -0.8151 H   0  0  0  0  0  0  0  0  0  0  0  0
   -0.0167    1.4631   -0.1740 H   0  0  0  0  0  0  0  0  0  0  0  0
    1.5070    1.5630    1.7101 H   0  0  0  0  0  0  0  0  0  0  0  0
    2.4384    1.4252    0.2344 H   0  0  0  0  0  0  0  0  0  0  0  0
    4.4451    0.0290   -1.9750 H   0  0  0  0  0  0  0  0  0  0  0  0
    6.3021    1.6107   -2.3576 H   0  0  0  0  0  0  0  0  0  0  0  0
    7.2084    1.5709    1.8689 H   0  0  0  0  0  0  0  0  0  0  0  0
    5.3449   -0.0134    2.2485 H   0  0  0  0  0  0  0  0  0  0  0  0
    1.9134   -2.0314    2.6614 H   0  0  0  0  0  0  0  0  0  0  0  0
    1.1383   -0.5376    3.1442 H   0  0  0  0  0  0  0  0  0  0  0  0
   -0.4666   -2.0807    2.0635 H   0  0  0  0  0  0  0  0  0  0  0  0
    0.5133   -2.1427    0.6015 H   0  0  0  0  0  0  0  0  0  0  0  0
  1  2  1  0
  2  3  1  0
  3  4  2  0
  3  5  1  0
  5  6  1  0
  6  7  1  0
  7  8  1  0
  8  9  2  0
  9 10  1  0
 10 11  2  0
 11 12  1  0
 12 13  2  0
  2 14  1  0
 14 15  1  0
 15 16  1  0
 16 17  1  0
 17 18  1  0
 18 19  2  0
 18 20  2  0
 18 21  1  0
 21 22  2  0
 22 23  1  0
 23 24  2  0
 24 25  1  0
 25 26  1  0
 25 27  1  0
 25 28  1  0
 24 29  1  0
 29 30  2  0
 17 31  1  0
 31 32  1  0
 13  5  1  0
 32 14  1  0
 13  8  1  0
 30 21  1  0
  1 33  1  0
  1 34  1  0
  1 35  1  0
  2 36  1  0
  6 37  1  0
  6 38  1  0
  7 39  1  0
  7 40  1  0
  9 41  1  0
 10 42  1  0
 11 43  1  0
 12 44  1  0
 15 45  1  0
 15 46  1  0
 16 47  1  0
 16 48  1  0
 22 49  1  0
 23 50  1  0
 29 51  1  0
 30 52  1  0
 31 53  1  0
 31 54  1  0
 32 55  1  0
 32 56  1  0
M  END
$$$$
