
     RDKit          3D

 45 47  0  0  0  0  0  0  0  0999 V2000
   -0.1785    2.8382   -0.6131 C   0  0  0  0  0  0  0  0  0  0  0  0
    0.5120    1.6517   -0.0206 C   0  0  0  0  0  0  0  0  0  0  0  0
   -0.0677    0.4861    0.3178 C   0  0  0  0  0  0  0  0  0  0  0  0
   -1.3415   -0.0365    0.2104 N   0  0  0  0  0  0  0  0  0  0  0  0
   -2.1036   -0.0847   -1.0385 C   0  0  0  0  0  0  0  0  0  0  0  0
   -1.4087   -0.9657   -2.0812 C   0  0  0  0  0  0  0  0  0  0  0  0
   -3.5180   -0.5692   -0.7542 C   0  0  0  0  0  0  0  0  0  0  0  0
   -4.6086    0.2199   -1.1622 C   0  0  0  0  0  0  0  0  0  0  0  0
   -5.9225   -0.1956   -0.9330 C   0  0  0  0  0  0  0  0  0  0  0  0
   -6.1693   -1.4068   -0.2918 C   0  0  0  0  0  0  0  0  0  0  0  0
   -5.1041   -2.2037    0.1240 C   0  0  0  0  0  0  0  0  0  0  0  0
   -3.7929   -1.7837   -0.1072 C   0  0  0  0  0  0  0  0  0  0  0  0
   -2.7505   -2.5634    0.3130 O   0  0  0  0  0  0  0  0  0  0  0  0
    1.0416   -0.3300    0.9394 C   0  0  0  0  0  0  0  0  0  0  0  0
    0.8688   -1.4723    1.3426 O   0  0  0  0  0  0  0  0  0  0  0  0
    2.2043    0.4429    0.8576 N   0  0  0  0  0  0  0  0  0  0  0  0
    3.5298   -0.0653    0.8318 C   0  0  0  0  0  0  0  0  0  0  0  0
    4.5542    0.6065    0.1460 C   0  0  0  0  0  0  0  0  0  0  0  0
    5.8599    0.1055    0.1239 C   0  0  0  0  0  0  0  0  0  0  0  0
    6.1626   -1.0795    0.7872 C   0  0  0  0  0  0  0  0  0  0  0  0
    5.1596   -1.7641    1.4668 C   0  0  0  0  0  0  0  0  0  0  0  0
    3.8540   -1.2616    1.4861 C   0  0  0  0  0  0  0  0  0  0  0  0
    1.8808    1.7135    0.2995 N   0  0  0  0  0  0  0  0  0  0  0  0
    2.3478    2.8458    1.1192 C   0  0  0  0  0  0  0  0  0  0  0  0
   -1.2642    2.7185   -0.6421 H   0  0  0  0  0  0  0  0  0  0  0  0
    0.0131    3.7418   -0.0264 H   0  0  0  0  0  0  0  0  0  0  0  0
    0.1750    3.0089   -1.6348 H   0  0  0  0  0  0  0  0  0  0  0  0
   -1.3514   -0.9759    0.6316 H   0  0  0  0  0  0  0  0  0  0  0  0
   -2.1680    0.9261   -1.4541 H   0  0  0  0  0  0  0  0  0  0  0  0
   -0.4382   -0.5432   -2.3639 H   0  0  0  0  0  0  0  0  0  0  0  0
   -2.0136   -1.0462   -2.9913 H   0  0  0  0  0  0  0  0  0  0  0  0
   -1.2229   -1.9798   -1.7120 H   0  0  0  0  0  0  0  0  0  0  0  0
   -4.4405    1.1715   -1.6620 H   0  0  0  0  0  0  0  0  0  0  0  0
   -6.7526    0.4287   -1.2539 H   0  0  0  0  0  0  0  0  0  0  0  0
   -7.1920   -1.7283   -0.1128 H   0  0  0  0  0  0  0  0  0  0  0  0
   -5.3127   -3.1435    0.6257 H   0  0  0  0  0  0  0  0  0  0  0  0
   -3.1011   -3.3315    0.7937 H   0  0  0  0  0  0  0  0  0  0  0  0
    4.3437    1.5149   -0.4114 H   0  0  0  0  0  0  0  0  0  0  0  0
    6.6352    0.6378   -0.4206 H   0  0  0  0  0  0  0  0  0  0  0  0
    7.1755   -1.4727    0.7695 H   0  0  0  0  0  0  0  0  0  0  0  0
    5.3870   -2.6924    1.9848 H   0  0  0  0  0  0  0  0  0  0  0  0
    3.1020   -1.8188    2.0392 H   0  0  0  0  0  0  0  0  0  0  0  0
    1.7417    2.9467    2.0271 H   0  0  0  0  0  0  0  0  0  0  0  0
    2.2827    3.7769    0.5467 H   0  0  0  0  0  0  0  0  0  0  0  0
    3.3919    2.7325    1.4249 H   0  0  0  0  0  0  0  0  0  0  0  0
  1  2  1  0
  2  3  2  0
  3  4  1  0
  4  5  1  0
  5  6  1  0
  5  7  1  0
  7  8  2  0
  8  9  1  0
  9 10  2  0
 10 11  1  0
 11 12  2  0
 12 13  1  0
  3 14  1  0
 14 15  2  0
 14 16  1  0
 16 17  1  0
 17 18  2  0
 18 19  1  0
 19 20  2  0
 20 21  1  0
 21 22  2  0
 16 23  1  0
 23 24  1  0
 23  2  1  0
 12  7  1  0
 22 17  1  0
  1 25  1  0
  1 26  1  0
  1 27  1  0
  4 28  1  0
  5 29  1  0
  6 30  1  0
  6 31  1  0
  6 32  1  0
  8 33  1  0
  9 34  1  0
 10 35  1  0
 11 36  1  0
 13 37  1  0
 18 38  1  0
 19 39  1  0
 20 40  1  0
 21 41  1  0
 22 42  1  0
 24 43  1  0
 24 44  1  0
 24 45  1  0
M  END
$$$$
