
     RDKit          3D

 41 42  0  0  0  0  0  0  0  0999 V2000
   -1.7618    3.3996    0.4663 O   0  0  0  0  0  0  0  0  0  0  0  0
   -1.1910    2.3120    0.4997 C   0  0  0  0  0  0  0  0  0  0  0  0
    0.3196    2.1932    0.6787 C   0  0  0  0  0  0  0  0  0  0  0  0
    0.7929    0.9217    0.2396 O   0  0  0  0  0  0  0  0  0  0  0  0
    2.1738    0.8502    0.4811 N   0  0  0  0  0  0  0  0  0  0  0  0
    2.6191   -0.2852    0.0474 C   0  0  0  0  0  0  0  0  0  0  0  0
    4.0420   -0.6593    0.1570 C   0  0  0  0  0  0  0  0  0  0  0  0
    4.9699    0.2131    0.7382 C   0  0  0  0  0  0  0  0  0  0  0  0
    6.3139   -0.1545    0.8341 C   0  0  0  0  0  0  0  0  0  0  0  0
    6.7355   -1.3939    0.3501 C   0  0  0  0  0  0  0  0  0  0  0  0
    5.8009   -2.2636   -0.2299 C   0  0  0  0  0  0  0  0  0  0  0  0
    6.2418   -3.5685   -0.7386 N   0  0  0  0  0  4  0  0  0  0  0  0
    7.4374   -3.8652   -0.6085 O   0  0  0  0  0  0  0  0  0  0  0  0
    5.3888   -4.2953   -1.2678 O   0  0  0  0  0  1  0  0  0  0  0  0
    4.4495   -1.9034   -0.3307 C   0  0  0  0  0  0  0  0  0  0  0  0
   -1.8571    1.1045    0.4291 N   0  0  0  0  0  0  0  0  0  0  0  0
   -3.2805    1.0214    0.1421 C   0  0  0  0  0  0  0  0  0  0  0  0
   -3.5415    1.1661   -1.3633 C   0  0  0  0  0  0  0  0  0  0  0  0
   -5.0234    1.0107   -1.6954 C   0  0  0  0  0  0  0  0  0  0  0  0
   -5.5868   -0.3012   -1.1576 C   0  0  0  0  0  0  0  0  0  0  0  0
   -5.3306   -0.4504    0.3389 C   0  0  0  0  0  0  0  0  0  0  0  0
   -3.8493   -0.2986    0.6738 C   0  0  0  0  0  0  0  0  0  0  0  0
    0.5482    2.3310    1.7410 H   0  0  0  0  0  0  0  0  0  0  0  0
    0.7979    2.9781    0.0829 H   0  0  0  0  0  0  0  0  0  0  0  0
    1.9399   -1.0185   -0.4246 H   0  0  0  0  0  0  0  0  0  0  0  0
    4.6519    1.1824    1.1187 H   0  0  0  0  0  0  0  0  0  0  0  0
    7.0313    0.5278    1.2859 H   0  0  0  0  0  0  0  0  0  0  0  0
    7.7867   -1.6648    0.4319 H   0  0  0  0  0  0  0  0  0  0  0  0
    3.7246   -2.5784   -0.7801 H   0  0  0  0  0  0  0  0  0  0  0  0
   -1.2781    0.2866    0.2696 H   0  0  0  0  0  0  0  0  0  0  0  0
   -3.7745    1.8525    0.6625 H   0  0  0  0  0  0  0  0  0  0  0  0
   -2.9639    0.4121   -1.9144 H   0  0  0  0  0  0  0  0  0  0  0  0
   -3.1908    2.1429   -1.7176 H   0  0  0  0  0  0  0  0  0  0  0  0
   -5.5826    1.8509   -1.2660 H   0  0  0  0  0  0  0  0  0  0  0  0
   -5.1641    1.0555   -2.7810 H   0  0  0  0  0  0  0  0  0  0  0  0
   -6.6639   -0.3481   -1.3539 H   0  0  0  0  0  0  0  0  0  0  0  0
   -5.1272   -1.1418   -1.6920 H   0  0  0  0  0  0  0  0  0  0  0  0
   -5.9071    0.3061    0.8853 H   0  0  0  0  0  0  0  0  0  0  0  0
   -5.6869   -1.4296    0.6785 H   0  0  0  0  0  0  0  0  0  0  0  0
   -3.7119   -0.3535    1.7607 H   0  0  0  0  0  0  0  0  0  0  0  0
   -3.2927   -1.1444    0.2487 H   0  0  0  0  0  0  0  0  0  0  0  0
  1  2  2  0
  2  3  1  0
  3  4  1  0
  4  5  1  0
  5  6  2  3
  6  7  1  0
  7  8  2  0
  8  9  1  0
  9 10  2  0
 10 11  1  0
 11 12  1  0
 12 13  2  0
 12 14  1  0
 11 15  2  0
  2 16  1  0
 16 17  1  0
 17 18  1  0
 18 19  1  0
 19 20  1  0
 20 21  1  0
 21 22  1  0
 15  7  1  0
 22 17  1  0
  3 23  1  0
  3 24  1  0
  6 25  1  0
  8 26  1  0
  9 27  1  0
 10 28  1  0
 15 29  1  0
 16 30  1  0
 17 31  1  0
 18 32  1  0
 18 33  1  0
 19 34  1  0
 19 35  1  0
 20 36  1  0
 20 37  1  0
 21 38  1  0
 21 39  1  0
 22 40  1  0
 22 41  1  0
M  CHG  2  12   1  14  -1
M  END
$$$$
