
     RDKit          3D

 55 57  0  0  0  0  0  0  0  0999 V2000
   -0.8536   -3.3671    2.4756 C   0  0  0  0  0  0  0  0  0  0  0  0
   -0.4918   -2.9389    1.0673 C   0  0  0  0  0  0  0  0  0  0  0  0
   -0.9977   -1.6236    0.8587 O   0  0  0  0  0  0  0  0  0  0  0  0
   -0.7229   -1.1319   -0.4544 C   0  0  0  0  0  0  0  0  0  0  0  0
    0.6854   -0.9188   -0.6519 O   0  0  0  0  0  0  0  0  0  0  0  0
    1.1967    0.1993   -0.0087 C   0  0  0  0  0  0  0  0  0  0  0  0
    2.6954    0.2808    0.1652 C   0  0  0  0  0  0  0  0  0  0  0  0
    3.2275    1.2353    0.7176 O   0  0  0  0  0  0  0  0  0  0  0  0
    3.3184   -0.8282   -0.3719 N   0  0  0  0  0  0  0  0  0  0  0  0
    4.6939   -1.1218   -0.4037 C   0  0  0  0  0  0  0  0  0  0  0  0
    5.6801   -0.2945    0.1355 C   0  0  0  0  0  0  0  0  0  0  0  0
    7.0284   -0.6598    0.0632 C   0  0  0  0  0  0  0  0  0  0  0  0
    7.4009   -1.8545   -0.5483 C   0  0  0  0  0  0  0  0  0  0  0  0
    6.4250   -2.6867   -1.0892 C   0  0  0  0  0  0  0  0  0  0  0  0
    5.0780   -2.3217   -1.0168 C   0  0  0  0  0  0  0  0  0  0  0  0
    0.4337    1.1986    0.4660 C   0  0  0  0  0  0  0  0  0  0  0  0
   -1.0643    1.2297    0.3012 C   0  0  0  0  0  0  0  0  0  0  0  0
   -1.5596    2.6228   -0.0667 C   0  0  0  0  0  0  0  0  0  0  0  0
   -1.1073    3.2853   -1.2196 C   0  0  0  0  0  0  0  0  0  0  0  0
   -1.5844    4.5566   -1.5439 C   0  0  0  0  0  0  0  0  0  0  0  0
   -2.5183    5.1828   -0.7217 C   0  0  0  0  0  0  0  0  0  0  0  0
   -2.9739    4.5404    0.4271 C   0  0  0  0  0  0  0  0  0  0  0  0
   -2.4975    3.2695    0.7540 C   0  0  0  0  0  0  0  0  0  0  0  0
   -1.5080    0.1630   -0.7294 C   0  0  0  0  0  0  0  0  0  0  0  0
   -3.0391   -0.0378   -0.8222 C   0  0  0  0  0  0  0  0  0  0  0  0
   -3.7518   -0.5471    0.4351 C   0  0  0  0  0  0  0  0  0  0  0  0
   -5.2722   -0.4889    0.3052 C   0  0  0  0  0  0  0  0  0  0  0  0
   -5.7224   -1.3144   -0.7597 O   0  0  0  0  0  0  0  0  0  0  0  0
   -1.9393   -3.3485    2.6171 H   0  0  0  0  0  0  0  0  0  0  0  0
   -0.4249   -2.6772    3.2100 H   0  0  0  0  0  0  0  0  0  0  0  0
   -0.4873   -4.3764    2.6831 H   0  0  0  0  0  0  0  0  0  0  0  0
   -0.9404   -3.6283    0.3438 H   0  0  0  0  0  0  0  0  0  0  0  0
    0.5966   -2.9484    0.9468 H   0  0  0  0  0  0  0  0  0  0  0  0
   -1.0337   -1.8870   -1.1873 H   0  0  0  0  0  0  0  0  0  0  0  0
    2.6939   -1.5058   -0.7936 H   0  0  0  0  0  0  0  0  0  0  0  0
    5.4336    0.6445    0.6211 H   0  0  0  0  0  0  0  0  0  0  0  0
    7.7857   -0.0054    0.4877 H   0  0  0  0  0  0  0  0  0  0  0  0
    8.4496   -2.1343   -0.6023 H   0  0  0  0  0  0  0  0  0  0  0  0
    6.7109   -3.6197   -1.5675 H   0  0  0  0  0  0  0  0  0  0  0  0
    4.3355   -2.9883   -1.4469 H   0  0  0  0  0  0  0  0  0  0  0  0
    0.8945    2.0340    0.9910 H   0  0  0  0  0  0  0  0  0  0  0  0
   -1.4697    0.9760    1.2891 H   0  0  0  0  0  0  0  0  0  0  0  0
   -0.3713    2.8194   -1.8715 H   0  0  0  0  0  0  0  0  0  0  0  0
   -1.2220    5.0604   -2.4362 H   0  0  0  0  0  0  0  0  0  0  0  0
   -2.8859    6.1741   -0.9731 H   0  0  0  0  0  0  0  0  0  0  0  0
   -3.6976    5.0315    1.0726 H   0  0  0  0  0  0  0  0  0  0  0  0
   -2.8636    2.7882    1.6584 H   0  0  0  0  0  0  0  0  0  0  0  0
   -1.1940    0.5034   -1.7284 H   0  0  0  0  0  0  0  0  0  0  0  0
   -3.4984    0.9094   -1.1313 H   0  0  0  0  0  0  0  0  0  0  0  0
   -3.2339   -0.7411   -1.6425 H   0  0  0  0  0  0  0  0  0  0  0  0
   -3.4654   -1.5893    0.6109 H   0  0  0  0  0  0  0  0  0  0  0  0
   -3.4607    0.0372    1.3125 H   0  0  0  0  0  0  0  0  0  0  0  0
   -5.7352   -0.8539    1.2273 H   0  0  0  0  0  0  0  0  0  0  0  0
   -5.6226    0.5347    0.1356 H   0  0  0  0  0  0  0  0  0  0  0  0
   -5.5533   -0.8377   -1.5899 H   0  0  0  0  0  0  0  0  0  0  0  0
  1  2  1  0
  2  3  1  0
  3  4  1  0
  4  5  1  0
  5  6  1  0
  6  7  1  0
  7  8  2  0
  7  9  1  0
  9 10  1  0
 10 11  2  0
 11 12  1  0
 12 13  2  0
 13 14  1  0
 14 15  2  0
  6 16  2  0
 16 17  1  0
 17 18  1  0
 18 19  2  0
 19 20  1  0
 20 21  2  0
 21 22  1  0
 22 23  2  0
 17 24  1  0
 24 25  1  0
 25 26  1  0
 26 27  1  0
 27 28  1  0
 24  4  1  0
 15 10  1  0
 23 18  1  0
  1 29  1  0
  1 30  1  0
  1 31  1  0
  2 32  1  0
  2 33  1  0
  4 34  1  0
  9 35  1  0
 11 36  1  0
 12 37  1  0
 13 38  1  0
 14 39  1  0
 15 40  1  0
 16 41  1  0
 17 42  1  0
 19 43  1  0
 20 44  1  0
 21 45  1  0
 22 46  1  0
 23 47  1  0
 24 48  1  0
 25 49  1  0
 25 50  1  0
 26 51  1  0
 26 52  1  0
 27 53  1  0
 27 54  1  0
 28 55  1  0
M  END
$$$$
