
     RDKit          3D

 49 51  0  0  0  0  0  0  0  0999 V2000
    5.7383    1.0866   -0.7247 C   0  0  0  0  0  0  0  0  0  0  0  0
    5.3012    1.5648    0.6494 C   0  0  0  0  0  0  0  0  0  0  0  0
    3.8218    2.6150    0.5555 S   0  0  0  0  0  0  0  0  0  0  0  0
    2.5608    1.4342    0.2878 C   0  0  0  0  0  0  0  0  0  0  0  0
    2.7740    0.1779    0.4777 N   0  0  0  0  0  0  0  0  0  0  0  0
    1.7301   -0.6923    0.2622 C   0  0  0  0  0  0  0  0  0  0  0  0
    1.8166   -1.8902    0.5149 O   0  0  0  0  0  0  0  0  0  0  0  0
    0.4460   -0.1545   -0.2872 C   0  0  0  0  0  0  0  0  0  0  0  0
    0.3038    1.1755   -0.4241 C   0  0  0  0  0  0  0  0  0  0  0  0
    1.3789    1.9551   -0.1156 N   0  0  0  0  0  0  0  0  0  0  0  0
   -0.8599    1.7463   -0.8772 N   0  0  0  0  0  0  0  0  0  0  0  0
   -1.9451    1.0325   -0.9147 C   0  0  0  0  0  0  0  0  0  0  0  0
   -3.2189    1.7007   -1.3721 C   0  0  0  0  0  0  0  0  0  0  0  0
   -2.0331   -0.4217   -0.5024 C   0  0  0  0  0  0  0  0  0  0  0  0
   -2.6266   -0.5657    0.8792 C   0  0  0  0  0  0  0  0  0  0  0  0
   -3.6655   -1.1712    1.1057 O   0  0  0  0  0  0  0  0  0  0  0  0
   -1.8670    0.0637    1.8132 O   0  0  0  0  0  0  0  0  0  0  0  0
   -2.3253   -0.0076    3.1767 C   0  0  0  0  0  0  0  0  0  0  0  0
   -3.3495    1.0932    3.4249 C   0  0  0  0  0  0  0  0  0  0  0  0
   -1.1027    0.1790    4.0661 C   0  0  0  0  0  0  0  0  0  0  0  0
   -0.6659   -1.1202   -0.5774 C   0  0  0  0  0  0  0  0  0  0  0  0
   -0.4572   -1.8228   -1.9175 C   0  0  0  0  0  0  0  0  0  0  0  0
   -0.1716   -3.1936   -1.9437 C   0  0  0  0  0  0  0  0  0  0  0  0
    0.0192   -3.8175   -3.1672 C   0  0  0  0  0  0  0  0  0  0  0  0
   -0.0537   -3.1801   -4.3538 N   0  0  0  0  0  0  0  0  0  0  0  0
   -0.3109   -1.8574   -4.3139 C   0  0  0  0  0  0  0  0  0  0  0  0
   -0.5150   -1.1439   -3.1415 C   0  0  0  0  0  0  0  0  0  0  0  0
    4.9798    0.4601   -1.2039 H   0  0  0  0  0  0  0  0  0  0  0  0
    5.9613    1.9288   -1.3888 H   0  0  0  0  0  0  0  0  0  0  0  0
    6.6506    0.4875   -0.6357 H   0  0  0  0  0  0  0  0  0  0  0  0
    5.1390    0.7217    1.3281 H   0  0  0  0  0  0  0  0  0  0  0  0
    6.1029    2.1703    1.0852 H   0  0  0  0  0  0  0  0  0  0  0  0
    1.2775    2.9490   -0.2646 H   0  0  0  0  0  0  0  0  0  0  0  0
   -3.0261    2.7330   -1.6765 H   0  0  0  0  0  0  0  0  0  0  0  0
   -3.9442    1.6993   -0.5542 H   0  0  0  0  0  0  0  0  0  0  0  0
   -3.6323    1.1504   -2.2216 H   0  0  0  0  0  0  0  0  0  0  0  0
   -2.7427   -0.9123   -1.1832 H   0  0  0  0  0  0  0  0  0  0  0  0
   -2.7616   -0.9922    3.3833 H   0  0  0  0  0  0  0  0  0  0  0  0
   -3.6832    1.0961    4.4671 H   0  0  0  0  0  0  0  0  0  0  0  0
   -2.9318    2.0775    3.1860 H   0  0  0  0  0  0  0  0  0  0  0  0
   -4.2268    0.9619    2.7831 H   0  0  0  0  0  0  0  0  0  0  0  0
   -0.6118    1.1377    3.8646 H   0  0  0  0  0  0  0  0  0  0  0  0
   -1.3709    0.1369    5.1261 H   0  0  0  0  0  0  0  0  0  0  0  0
   -0.3614   -0.6014    3.8619 H   0  0  0  0  0  0  0  0  0  0  0  0
   -0.6600   -1.8963    0.2015 H   0  0  0  0  0  0  0  0  0  0  0  0
   -0.0809   -3.7731   -1.0293 H   0  0  0  0  0  0  0  0  0  0  0  0
    0.2464   -4.8783   -3.2234 H   0  0  0  0  0  0  0  0  0  0  0  0
   -0.3466   -1.3651   -5.2818 H   0  0  0  0  0  0  0  0  0  0  0  0
   -0.7000   -0.0770   -3.2041 H   0  0  0  0  0  0  0  0  0  0  0  0
  1  2  1  0
  2  3  1  0
  3  4  1  0
  4  5  2  0
  5  6  1  0
  6  7  2  0
  6  8  1  0
  8  9  2  0
  9 10  1  0
  9 11  1  0
 11 12  2  0
 12 13  1  0
 12 14  1  0
 14 15  1  0
 15 16  2  0
 15 17  1  0
 17 18  1  0
 18 19  1  0
 18 20  1  0
 14 21  1  0
 21 22  1  0
 22 23  2  0
 23 24  1  0
 24 25  2  0
 25 26  1  0
 26 27  2  0
 10  4  1  0
 27 22  1  0
 21  8  1  0
  1 28  1  0
  1 29  1  0
  1 30  1  0
  2 31  1  0
  2 32  1  0
 10 33  1  0
 13 34  1  0
 13 35  1  0
 13 36  1  0
 14 37  1  0
 18 38  1  0
 19 39  1  0
 19 40  1  0
 19 41  1  0
 20 42  1  0
 20 43  1  0
 20 44  1  0
 21 45  1  0
 23 46  1  0
 24 47  1  0
 26 48  1  0
 27 49  1  0
M  END
$$$$
