
     RDKit          3D

 45 47  0  0  0  0  0  0  0  0999 V2000
   -3.5571   -4.0220    1.3623 C   0  0  0  0  0  0  0  0  0  0  0  0
   -3.1073   -2.6895    1.1450 O   0  0  0  0  0  0  0  0  0  0  0  0
   -4.0550   -1.7683    0.7555 C   0  0  0  0  0  0  0  0  0  0  0  0
   -5.4125   -2.0465    0.5695 C   0  0  0  0  0  0  0  0  0  0  0  0
   -6.2868   -1.0327    0.1731 C   0  0  0  0  0  0  0  0  0  0  0  0
   -5.8101    0.2583   -0.0386 C   0  0  0  0  0  0  0  0  0  0  0  0
   -4.4561    0.5463    0.1446 C   0  0  0  0  0  0  0  0  0  0  0  0
   -3.5720   -0.4578    0.5428 C   0  0  0  0  0  0  0  0  0  0  0  0
   -2.1895   -0.2491    0.7486 N   0  0  0  0  0  0  0  0  0  0  0  0
   -1.4742    0.9285    0.6504 C   0  0  0  0  0  0  0  0  0  0  0  0
   -1.9403    2.0336    0.3952 O   0  0  0  0  0  0  0  0  0  0  0  0
    0.0161    0.7309    0.9394 C   0  0  0  0  0  0  0  0  0  0  0  0
    0.6733   -0.1770   -0.1069 C   0  0  0  0  0  0  0  0  0  0  0  0
    2.1734   -0.3213    0.1296 C   0  0  0  0  0  0  0  0  0  0  0  0
    2.8530    0.9878    0.2646 N   0  0  0  0  0  0  0  0  0  0  0  0
    3.3976    1.7352   -1.1699 S   0  0  0  0  0  6  0  0  0  0  0  0
    4.0369    2.9842   -0.8173 O   0  0  0  0  0  0  0  0  0  0  0  0
    2.3322    1.6598   -2.1444 O   0  0  0  0  0  0  0  0  0  0  0  0
    4.7274    0.7251   -1.7924 C   0  0  0  0  0  0  0  0  0  0  0  0
    5.5785   -0.1699   -1.1701 C   0  0  0  0  0  0  0  0  0  0  0  0
    6.5167   -0.7449   -2.0751 C   0  0  0  0  0  0  0  0  0  0  0  0
    6.3583   -0.2599   -3.3546 C   0  0  0  0  0  0  0  0  0  0  0  0
    5.0890    0.8836   -3.4566 S   0  0  0  0  0  0  0  0  0  0  0  0
    2.2300    1.8756    1.2732 C   0  0  0  0  0  0  0  0  0  0  0  0
    0.7500    2.0769    0.9921 C   0  0  0  0  0  0  0  0  0  0  0  0
   -3.9659   -4.4561    0.4439 H   0  0  0  0  0  0  0  0  0  0  0  0
   -4.2829   -4.0654    2.1810 H   0  0  0  0  0  0  0  0  0  0  0  0
   -2.6906   -4.6223    1.6554 H   0  0  0  0  0  0  0  0  0  0  0  0
   -5.8244   -3.0378    0.7239 H   0  0  0  0  0  0  0  0  0  0  0  0
   -7.3423   -1.2498    0.0284 H   0  0  0  0  0  0  0  0  0  0  0  0
   -6.4904    1.0476   -0.3495 H   0  0  0  0  0  0  0  0  0  0  0  0
   -4.1221    1.5632   -0.0347 H   0  0  0  0  0  0  0  0  0  0  0  0
   -1.7015   -1.0917    1.0342 H   0  0  0  0  0  0  0  0  0  0  0  0
    0.0921    0.2577    1.9282 H   0  0  0  0  0  0  0  0  0  0  0  0
    0.4811    0.2218   -1.1099 H   0  0  0  0  0  0  0  0  0  0  0  0
    0.2210   -1.1755   -0.0912 H   0  0  0  0  0  0  0  0  0  0  0  0
    2.3506   -0.8865    1.0530 H   0  0  0  0  0  0  0  0  0  0  0  0
    2.6237   -0.9116   -0.6751 H   0  0  0  0  0  0  0  0  0  0  0  0
    5.5262   -0.3909   -0.1107 H   0  0  0  0  0  0  0  0  0  0  0  0
    7.2746   -1.4694   -1.8022 H   0  0  0  0  0  0  0  0  0  0  0  0
    6.9312   -0.5133   -4.2367 H   0  0  0  0  0  0  0  0  0  0  0  0
    2.7453    2.8400    1.3211 H   0  0  0  0  0  0  0  0  0  0  0  0
    2.3681    1.4167    2.2604 H   0  0  0  0  0  0  0  0  0  0  0  0
    0.6204    2.6171    0.0453 H   0  0  0  0  0  0  0  0  0  0  0  0
    0.3146    2.7096    1.7752 H   0  0  0  0  0  0  0  0  0  0  0  0
  1  2  1  0
  2  3  1  0
  3  4  2  0
  4  5  1  0
  5  6  2  0
  6  7  1  0
  7  8  2  0
  8  9  1  0
  9 10  1  0
 10 11  2  0
 10 12  1  0
 12 13  1  0
 13 14  1  0
 14 15  1  0
 15 16  1  0
 16 17  2  0
 16 18  2  0
 16 19  1  0
 19 20  2  0
 20 21  1  0
 21 22  2  0
 22 23  1  0
 15 24  1  0
 24 25  1  0
  8  3  1  0
 25 12  1  0
 23 19  1  0
  1 26  1  0
  1 27  1  0
  1 28  1  0
  4 29  1  0
  5 30  1  0
  6 31  1  0
  7 32  1  0
  9 33  1  0
 12 34  1  0
 13 35  1  0
 13 36  1  0
 14 37  1  0
 14 38  1  0
 20 39  1  0
 21 40  1  0
 22 41  1  0
 24 42  1  0
 24 43  1  0
 25 44  1  0
 25 45  1  0
M  END
$$$$
