
     RDKit          3D

 62 66  0  0  0  0  0  0  0  0999 V2000
   -5.4721    2.0909    2.7780 C   0  0  0  0  0  0  0  0  0  0  0  0
   -5.6940    0.9346    1.8315 C   0  0  0  0  0  0  0  0  0  0  0  0
   -6.9118    0.7364    1.2901 C   0  0  0  0  0  0  0  0  0  0  0  0
   -7.1834   -0.3953    0.3897 C   0  0  0  0  0  0  0  0  0  0  0  0
   -8.4734   -0.5905   -0.1143 C   0  0  0  0  0  0  0  0  0  0  0  0
   -8.7471   -1.6880   -0.9289 C   0  0  0  0  0  0  0  0  0  0  0  0
   -7.7376   -2.5995   -1.2330 C   0  0  0  0  0  0  0  0  0  0  0  0
   -6.4410   -2.4120   -0.7448 C   0  0  0  0  0  0  0  0  0  0  0  0
   -6.1563   -1.2990    0.0501 C   0  0  0  0  0  0  0  0  0  0  0  0
   -4.8727   -1.0150    0.5854 N   0  0  0  0  0  0  0  0  0  0  0  0
   -3.6168   -1.5624    0.4014 C   0  0  0  0  0  0  0  0  0  0  0  0
   -3.1045   -2.6591   -0.8368 S   0  0  0  0  0  0  0  0  0  0  0  0
   -2.8111   -1.4722   -2.1854 C   0  0  0  0  0  0  0  0  0  0  0  0
   -1.3944   -0.9194   -2.2488 C   0  0  0  0  0  0  0  0  0  0  0  0
   -0.8571   -0.7841   -3.3503 O   0  0  0  0  0  0  0  0  0  0  0  0
   -0.8590   -0.5109   -1.0425 N   0  0  0  0  0  0  0  0  0  0  0  0
    0.3390    0.1985   -0.8208 C   0  0  0  0  0  0  0  0  0  0  0  0
    0.6791    0.4696    0.5133 C   0  0  0  0  0  0  0  0  0  0  0  0
    1.8286    1.2022    0.8265 C   0  0  0  0  0  0  0  0  0  0  0  0
    2.6508    1.6618   -0.2025 C   0  0  0  0  0  0  0  0  0  0  0  0
    4.0658    2.6756    0.1778 S   0  0  0  0  0  6  0  0  0  0  0  0
    3.8043    3.3216    1.4445 O   0  0  0  0  0  0  0  0  0  0  0  0
    4.3704    3.4555   -1.0033 O   0  0  0  0  0  0  0  0  0  0  0  0
    5.3209    1.5441    0.3979 N   0  0  0  0  0  0  0  0  0  0  0  0
    5.2525    0.7006    1.6146 C   0  0  0  0  0  0  0  0  0  0  0  0
    6.6354    0.1049    1.8911 C   0  0  0  0  0  0  0  0  0  0  0  0
    7.1479   -0.6949    0.6830 C   0  0  0  0  0  0  0  0  0  0  0  0
    8.5543   -1.2341    0.9428 C   0  0  0  0  0  0  0  0  0  0  0  0
    7.1252    0.1833   -0.5748 C   0  0  0  0  0  0  0  0  0  0  0  0
    5.7387    0.7827   -0.8045 C   0  0  0  0  0  0  0  0  0  0  0  0
    2.3168    1.4138   -1.5355 C   0  0  0  0  0  0  0  0  0  0  0  0
    1.1680    0.6744   -1.8393 C   0  0  0  0  0  0  0  0  0  0  0  0
   -2.7355   -0.9783    1.1832 N   0  0  0  0  0  0  0  0  0  0  0  0
   -3.3747    0.0245    1.8505 N   0  0  0  0  0  0  0  0  0  0  0  0
   -4.6403    0.0326    1.4732 C   0  0  0  0  0  0  0  0  0  0  0  0
   -5.1821    1.7184    3.7666 H   0  0  0  0  0  0  0  0  0  0  0  0
   -4.6681    2.7366    2.4042 H   0  0  0  0  0  0  0  0  0  0  0  0
   -6.3664    2.7089    2.9046 H   0  0  0  0  0  0  0  0  0  0  0  0
   -7.7477    1.3986    1.5246 H   0  0  0  0  0  0  0  0  0  0  0  0
   -9.2775    0.0986    0.1271 H   0  0  0  0  0  0  0  0  0  0  0  0
   -9.7515   -1.8371   -1.3147 H   0  0  0  0  0  0  0  0  0  0  0  0
   -7.9607   -3.4694   -1.8458 H   0  0  0  0  0  0  0  0  0  0  0  0
   -5.7075   -3.1739   -0.9849 H   0  0  0  0  0  0  0  0  0  0  0  0
   -3.5146   -0.6298   -2.1447 H   0  0  0  0  0  0  0  0  0  0  0  0
   -2.9971   -2.0092   -3.1234 H   0  0  0  0  0  0  0  0  0  0  0  0
   -1.3927   -0.7303   -0.2031 H   0  0  0  0  0  0  0  0  0  0  0  0
    0.0384    0.1306    1.3259 H   0  0  0  0  0  0  0  0  0  0  0  0
    2.0598    1.4239    1.8646 H   0  0  0  0  0  0  0  0  0  0  0  0
    4.5136   -0.0969    1.4784 H   0  0  0  0  0  0  0  0  0  0  0  0
    4.9616    1.2979    2.4864 H   0  0  0  0  0  0  0  0  0  0  0  0
    6.5876   -0.5393    2.7799 H   0  0  0  0  0  0  0  0  0  0  0  0
    7.3348    0.9184    2.1307 H   0  0  0  0  0  0  0  0  0  0  0  0
    6.4814   -1.5529    0.5185 H   0  0  0  0  0  0  0  0  0  0  0  0
    8.8902   -1.8641    0.1119 H   0  0  0  0  0  0  0  0  0  0  0  0
    8.5741   -1.8326    1.8568 H   0  0  0  0  0  0  0  0  0  0  0  0
    9.2725   -0.4178    1.0641 H   0  0  0  0  0  0  0  0  0  0  0  0
    7.8645    0.9911   -0.4780 H   0  0  0  0  0  0  0  0  0  0  0  0
    7.4131   -0.4053   -1.4558 H   0  0  0  0  0  0  0  0  0  0  0  0
    5.7889    1.4323   -1.6843 H   0  0  0  0  0  0  0  0  0  0  0  0
    5.0139   -0.0164   -1.0047 H   0  0  0  0  0  0  0  0  0  0  0  0
    2.9256    1.8086   -2.3464 H   0  0  0  0  0  0  0  0  0  0  0  0
    0.9313    0.5181   -2.8875 H   0  0  0  0  0  0  0  0  0  0  0  0
  1  2  1  0
  2  3  2  0
  3  4  1  0
  4  5  2  0
  5  6  1  0
  6  7  2  0
  7  8  1  0
  8  9  2  0
  9 10  1  0
 10 11  1  0
 11 12  1  0
 12 13  1  0
 13 14  1  0
 14 15  2  0
 14 16  1  0
 16 17  1  0
 17 18  2  0
 18 19  1  0
 19 20  2  0
 20 21  1  0
 21 22  2  0
 21 23  2  0
 21 24  1  0
 24 25  1  0
 25 26  1  0
 26 27  1  0
 27 28  1  0
 27 29  1  0
 29 30  1  0
 20 31  1  0
 31 32  2  0
 11 33  2  0
 33 34  1  0
 34 35  2  0
 35  2  1  0
  9  4  1  0
 35 10  1  0
 32 17  1  0
 30 24  1  0
  1 36  1  0
  1 37  1  0
  1 38  1  0
  3 39  1  0
  5 40  1  0
  6 41  1  0
  7 42  1  0
  8 43  1  0
 13 44  1  0
 13 45  1  0
 16 46  1  0
 18 47  1  0
 19 48  1  0
 25 49  1  0
 25 50  1  0
 26 51  1  0
 26 52  1  0
 27 53  1  0
 28 54  1  0
 28 55  1  0
 28 56  1  0
 29 57  1  0
 29 58  1  0
 30 59  1  0
 30 60  1  0
 31 61  1  0
 32 62  1  0
M  END
$$$$
