
     RDKit          3D

 55 58  0  0  0  0  0  0  0  0999 V2000
    2.6680   -3.2372    2.4131 C   0  0  0  0  0  0  0  0  0  0  0  0
    3.7726   -2.2057    2.2581 C   0  0  0  0  0  0  0  0  0  0  0  0
    4.0884   -1.9928    0.8844 O   0  0  0  0  0  0  0  0  0  0  0  0
    3.3367   -1.1277    0.1351 C   0  0  0  0  0  0  0  0  0  0  0  0
    2.2685   -0.3642    0.6171 C   0  0  0  0  0  0  0  0  0  0  0  0
    1.5251    0.4606   -0.2425 C   0  0  0  0  0  0  0  0  0  0  0  0
    0.4042    1.2315    0.3147 C   0  0  0  0  0  0  0  0  0  0  0  0
   -0.8553    1.2982   -0.1628 C   0  0  0  0  0  0  0  0  0  0  0  0
   -1.2963    0.5380   -1.3731 C   0  0  0  0  0  0  0  0  0  0  0  0
   -1.6442    1.1680   -2.3734 O   0  0  0  0  0  0  0  0  0  0  0  0
   -1.3432   -0.8399   -1.2989 N   0  0  0  0  0  0  0  0  0  0  0  0
   -1.2493   -1.6327   -0.0656 C   0  0  0  0  0  0  0  0  0  0  0  0
   -2.1380   -2.8788   -0.1514 C   0  0  0  0  0  0  0  0  0  0  0  0
   -1.8188   -3.7371   -1.2555 O   0  0  0  0  0  0  0  0  0  0  0  0
   -1.2322   -3.0583   -2.3763 C   0  0  0  0  0  0  0  0  0  0  0  0
   -1.6777   -1.5999   -2.5036 C   0  0  0  0  0  0  0  0  0  0  0  0
   -1.7792    2.1759    0.4718 C   0  0  0  0  0  0  0  0  0  0  0  0
   -1.8187    2.6310    1.7118 N   0  0  0  0  0  0  0  0  0  0  0  0
   -2.9180    3.4529    1.7754 C   0  0  0  0  0  0  0  0  0  0  0  0
   -3.4280    4.1877    2.8551 C   0  0  0  0  0  0  0  0  0  0  0  0
   -4.5779    4.9629    2.6560 C   0  0  0  0  0  0  0  0  0  0  0  0
   -5.2051    5.0058    1.4080 C   0  0  0  0  0  0  0  0  0  0  0  0
   -4.7093    4.2795    0.3188 C   0  0  0  0  0  0  0  0  0  0  0  0
   -3.5642    3.5144    0.5472 C   0  0  0  0  0  0  0  0  0  0  0  0
   -2.8183    2.7022   -0.2660 N   0  0  0  0  0  0  0  0  0  0  0  0
    1.8824    0.5502   -1.5915 C   0  0  0  0  0  0  0  0  0  0  0  0
    2.9469   -0.2044   -2.0838 C   0  0  0  0  0  0  0  0  0  0  0  0
    3.3238   -0.0883   -3.7656 Cl  0  0  0  0  0  0  0  0  0  0  0  0
    3.6827   -1.0284   -1.2239 C   0  0  0  0  0  0  0  0  0  0  0  0
    4.6998   -1.8013   -1.7360 O   0  0  0  0  0  0  0  0  0  0  0  0
    5.9633   -1.1815   -1.4954 C   0  0  0  0  0  0  0  0  0  0  0  0
    1.7302   -2.8928    1.9673 H   0  0  0  0  0  0  0  0  0  0  0  0
    2.4894   -3.4553    3.4699 H   0  0  0  0  0  0  0  0  0  0  0  0
    2.9386   -4.1674    1.9025 H   0  0  0  0  0  0  0  0  0  0  0  0
    3.5543   -1.2713    2.7858 H   0  0  0  0  0  0  0  0  0  0  0  0
    4.6813   -2.6043    2.7238 H   0  0  0  0  0  0  0  0  0  0  0  0
    1.9730   -0.4105    1.6607 H   0  0  0  0  0  0  0  0  0  0  0  0
    0.6612    1.8086    1.2043 H   0  0  0  0  0  0  0  0  0  0  0  0
   -1.5275   -1.0310    0.8038 H   0  0  0  0  0  0  0  0  0  0  0  0
   -0.2037   -1.9405    0.0342 H   0  0  0  0  0  0  0  0  0  0  0  0
   -3.1902   -2.5884   -0.2526 H   0  0  0  0  0  0  0  0  0  0  0  0
   -2.0476   -3.4722    0.7636 H   0  0  0  0  0  0  0  0  0  0  0  0
   -1.4998   -3.6180   -3.2778 H   0  0  0  0  0  0  0  0  0  0  0  0
   -0.1430   -3.1158   -2.2644 H   0  0  0  0  0  0  0  0  0  0  0  0
   -2.7664   -1.5449   -2.6200 H   0  0  0  0  0  0  0  0  0  0  0  0
   -1.2150   -1.1281   -3.3768 H   0  0  0  0  0  0  0  0  0  0  0  0
   -2.9354    4.1520    3.8201 H   0  0  0  0  0  0  0  0  0  0  0  0
   -4.9842    5.5389    3.4841 H   0  0  0  0  0  0  0  0  0  0  0  0
   -6.0959    5.6176    1.2791 H   0  0  0  0  0  0  0  0  0  0  0  0
   -5.1944    4.3147   -0.6506 H   0  0  0  0  0  0  0  0  0  0  0  0
   -2.9772    2.5325   -1.2523 H   0  0  0  0  0  0  0  0  0  0  0  0
    1.3337    1.2026   -2.2678 H   0  0  0  0  0  0  0  0  0  0  0  0
    5.9900   -0.1576   -1.8851 H   0  0  0  0  0  0  0  0  0  0  0  0
    6.2146   -1.1868   -0.4300 H   0  0  0  0  0  0  0  0  0  0  0  0
    6.7253   -1.7627   -2.0232 H   0  0  0  0  0  0  0  0  0  0  0  0
  1  2  1  0
  2  3  1  0
  3  4  1  0
  4  5  2  0
  5  6  1  0
  6  7  1  0
  7  8  2  3
  8  9  1  0
  9 10  2  0
  9 11  1  0
 11 12  1  0
 12 13  1  0
 13 14  1  0
 14 15  1  0
 15 16  1  0
  8 17  1  0
 17 18  2  0
 18 19  1  0
 19 20  2  0
 20 21  1  0
 21 22  2  0
 22 23  1  0
 23 24  2  0
 24 25  1  0
  6 26  2  0
 26 27  1  0
 27 28  1  0
 27 29  2  0
 29 30  1  0
 30 31  1  0
 29  4  1  0
 16 11  1  0
 25 17  1  0
 24 19  1  0
  1 32  1  0
  1 33  1  0
  1 34  1  0
  2 35  1  0
  2 36  1  0
  5 37  1  0
  7 38  1  0
 12 39  1  0
 12 40  1  0
 13 41  1  0
 13 42  1  0
 15 43  1  0
 15 44  1  0
 16 45  1  0
 16 46  1  0
 20 47  1  0
 21 48  1  0
 22 49  1  0
 23 50  1  0
 25 51  1  0
 26 52  1  0
 31 53  1  0
 31 54  1  0
 31 55  1  0
M  END
$$$$
