
     RDKit          3D

 62 64  0  0  0  0  0  0  0  0999 V2000
    7.5151    1.9097   -0.6205 C   0  0  0  0  0  0  0  0  0  0  0  0
    7.1810    0.9566    0.4960 C   0  0  0  0  0  0  0  0  0  0  0  0
    8.2323    0.6477    1.3830 C   0  0  0  0  0  0  0  0  0  0  0  0
    8.0767   -0.3082    2.3795 C   0  0  0  0  0  0  0  0  0  0  0  0
    6.8640   -0.9772    2.5063 C   0  0  0  0  0  0  0  0  0  0  0  0
    5.7815   -0.6694    1.6637 C   0  0  0  0  0  0  0  0  0  0  0  0
    4.4898   -1.4207    1.8773 C   0  0  0  0  0  0  0  0  0  0  0  0
    5.9256    0.3325    0.6696 C   0  0  0  0  0  0  0  0  0  0  0  0
    4.7955    0.6065   -0.1368 N   0  0  0  0  0  0  0  0  0  0  0  0
    4.3663    1.8476   -0.5794 C   0  0  0  0  0  0  0  0  0  0  0  0
    4.9023    2.9303   -0.3625 O   0  0  0  0  0  0  0  0  0  0  0  0
    3.0697    1.7666   -1.3914 C   0  0  0  0  0  0  0  0  0  0  0  0
    2.4999    0.4523   -1.3462 O   0  0  0  0  0  0  0  0  0  0  0  0
    1.3954    0.3080   -2.1323 C   0  0  0  0  0  0  0  0  0  0  0  0
    0.9123    1.1908   -2.8252 O   0  0  0  0  0  0  0  0  0  0  0  0
    0.9065   -1.1198   -2.0654 C   0  0  0  0  0  0  0  0  0  0  0  0
   -0.5683   -1.2495   -2.4367 C   0  0  0  0  0  0  0  0  0  0  0  0
   -1.4928   -0.7841   -1.3353 C   0  0  0  0  0  0  0  0  0  0  0  0
   -2.0099    0.5196   -1.3490 C   0  0  0  0  0  0  0  0  0  0  0  0
   -2.8610    0.9552   -0.3323 C   0  0  0  0  0  0  0  0  0  0  0  0
   -3.2149    0.0765    0.6945 C   0  0  0  0  0  0  0  0  0  0  0  0
   -4.2930    0.6349    1.9999 S   0  0  0  0  0  6  0  0  0  0  0  0
   -4.0437   -0.2019    3.1559 O   0  0  0  0  0  0  0  0  0  0  0  0
   -4.1651    2.0758    2.0785 O   0  0  0  0  0  0  0  0  0  0  0  0
   -5.8395    0.2692    1.4025 N   0  0  0  0  0  0  0  0  0  0  0  0
   -6.2535   -1.1531    1.3587 C   0  0  0  0  0  0  0  0  0  0  0  0
   -6.6603   -1.5673   -0.0486 C   0  0  0  0  0  0  0  0  0  0  0  0
   -7.8126   -0.7163   -0.5811 C   0  0  0  0  0  0  0  0  0  0  0  0
   -7.7920    0.7083   -0.0302 C   0  0  0  0  0  0  0  0  0  0  0  0
   -6.3776    1.1442    0.3357 C   0  0  0  0  0  0  0  0  0  0  0  0
   -2.6816   -1.2146    0.7395 C   0  0  0  0  0  0  0  0  0  0  0  0
   -1.8246   -1.6427   -0.2754 C   0  0  0  0  0  0  0  0  0  0  0  0
    6.9161    1.7184   -1.5147 H   0  0  0  0  0  0  0  0  0  0  0  0
    7.3891    2.9442   -0.2961 H   0  0  0  0  0  0  0  0  0  0  0  0
    8.5577    1.7816   -0.9330 H   0  0  0  0  0  0  0  0  0  0  0  0
    9.1977    1.1424    1.2777 H   0  0  0  0  0  0  0  0  0  0  0  0
    8.9046   -0.5412    3.0455 H   0  0  0  0  0  0  0  0  0  0  0  0
    6.7625   -1.7357    3.2795 H   0  0  0  0  0  0  0  0  0  0  0  0
    4.2966   -2.0886    1.0286 H   0  0  0  0  0  0  0  0  0  0  0  0
    4.5234   -2.0335    2.7834 H   0  0  0  0  0  0  0  0  0  0  0  0
    3.6503   -0.7265    1.9958 H   0  0  0  0  0  0  0  0  0  0  0  0
    4.0534   -0.0826   -0.1328 H   0  0  0  0  0  0  0  0  0  0  0  0
    2.3590    2.4817   -0.9593 H   0  0  0  0  0  0  0  0  0  0  0  0
    3.3119    2.0359   -2.4259 H   0  0  0  0  0  0  0  0  0  0  0  0
    1.0833   -1.5175   -1.0589 H   0  0  0  0  0  0  0  0  0  0  0  0
    1.5139   -1.6957   -2.7729 H   0  0  0  0  0  0  0  0  0  0  0  0
   -0.7918   -0.7060   -3.3629 H   0  0  0  0  0  0  0  0  0  0  0  0
   -0.7923   -2.3020   -2.6510 H   0  0  0  0  0  0  0  0  0  0  0  0
   -1.7455    1.2084   -2.1517 H   0  0  0  0  0  0  0  0  0  0  0  0
   -3.2395    1.9752   -0.3482 H   0  0  0  0  0  0  0  0  0  0  0  0
   -7.0940   -1.2828    2.0492 H   0  0  0  0  0  0  0  0  0  0  0  0
   -5.4576   -1.8164    1.7094 H   0  0  0  0  0  0  0  0  0  0  0  0
   -5.7977   -1.4646   -0.7181 H   0  0  0  0  0  0  0  0  0  0  0  0
   -6.9452   -2.6251   -0.0659 H   0  0  0  0  0  0  0  0  0  0  0  0
   -8.7729   -1.1815   -0.3287 H   0  0  0  0  0  0  0  0  0  0  0  0
   -7.7613   -0.6952   -1.6761 H   0  0  0  0  0  0  0  0  0  0  0  0
   -8.2263    1.3950   -0.7651 H   0  0  0  0  0  0  0  0  0  0  0  0
   -8.4292    0.7587    0.8622 H   0  0  0  0  0  0  0  0  0  0  0  0
   -6.4106    2.1788    0.6957 H   0  0  0  0  0  0  0  0  0  0  0  0
   -5.7385    1.1063   -0.5533 H   0  0  0  0  0  0  0  0  0  0  0  0
   -2.9237   -1.8879    1.5590 H   0  0  0  0  0  0  0  0  0  0  0  0
   -1.4170   -2.6514   -0.2331 H   0  0  0  0  0  0  0  0  0  0  0  0
  1  2  1  0
  2  3  2  0
  3  4  1  0
  4  5  2  0
  5  6  1  0
  6  7  1  0
  6  8  2  0
  8  9  1  0
  9 10  1  0
 10 11  2  0
 10 12  1  0
 12 13  1  0
 13 14  1  0
 14 15  2  0
 14 16  1  0
 16 17  1  0
 17 18  1  0
 18 19  2  0
 19 20  1  0
 20 21  2  0
 21 22  1  0
 22 23  2  0
 22 24  2  0
 22 25  1  0
 25 26  1  0
 26 27  1  0
 27 28  1  0
 28 29  1  0
 29 30  1  0
 21 31  1  0
 31 32  2  0
  8  2  1  0
 32 18  1  0
 30 25  1  0
  1 33  1  0
  1 34  1  0
  1 35  1  0
  3 36  1  0
  4 37  1  0
  5 38  1  0
  7 39  1  0
  7 40  1  0
  7 41  1  0
  9 42  1  0
 12 43  1  0
 12 44  1  0
 16 45  1  0
 16 46  1  0
 17 47  1  0
 17 48  1  0
 19 49  1  0
 20 50  1  0
 26 51  1  0
 26 52  1  0
 27 53  1  0
 27 54  1  0
 28 55  1  0
 28 56  1  0
 29 57  1  0
 29 58  1  0
 30 59  1  0
 30 60  1  0
 31 61  1  0
 32 62  1  0
M  END
$$$$
