
     RDKit          3D

 60 64  0  0  0  0  0  0  0  0999 V2000
   -5.8245   -2.3761    1.6216 C   0  0  0  0  0  0  0  0  0  0  0  0
   -4.8726   -1.3539    1.0176 C   0  0  0  0  0  0  0  0  0  0  0  0
   -4.5766   -1.6281   -0.4653 C   0  0  0  0  0  0  0  0  0  0  0  0
   -3.7534   -2.8162   -0.6478 N   0  0  0  0  0  0  0  0  0  0  0  0
   -2.4013   -2.6463   -0.3606 C   0  0  0  0  0  0  0  0  0  0  0  0
   -1.8018   -3.7513    0.1084 N   0  0  0  0  0  0  0  0  0  0  0  0
   -0.4953   -3.6465    0.3433 C   0  0  0  0  0  0  0  0  0  0  0  0
    0.2517   -2.5570    0.1492 N   0  0  0  0  0  0  0  0  0  0  0  0
   -0.3673   -1.4533   -0.3349 C   0  0  0  0  0  0  0  0  0  0  0  0
    0.4551   -0.3237   -0.5333 N   0  0  0  0  0  0  0  0  0  0  0  0
    1.1051    0.0921    0.7383 C   0  0  0  0  0  0  0  0  0  0  0  0
    2.5889   -0.3206    0.8431 C   0  0  0  0  0  0  0  0  0  0  0  0
    3.3710    0.2082   -0.2908 N   0  0  0  0  0  0  0  0  0  0  0  0
    4.7448    0.3722   -0.2195 C   0  0  0  0  0  0  0  0  0  0  0  0
    5.4398    1.1763   -1.1400 C   0  0  0  0  0  0  0  0  0  0  0  0
    6.8292    1.3543   -1.0740 C   0  0  0  0  0  0  0  0  0  0  0  0
    7.5660    0.7278   -0.0766 C   0  0  0  0  0  0  0  0  0  0  0  0
    6.9106   -0.0704    0.8527 C   0  0  0  0  0  0  0  0  0  0  0  0
    5.5209   -0.2404    0.7795 C   0  0  0  0  0  0  0  0  0  0  0  0
    2.6430    0.3675   -1.5610 C   0  0  0  0  0  0  0  0  0  0  0  0
    1.4286   -0.5859   -1.6284 C   0  0  0  0  0  0  0  0  0  0  0  0
   -1.7480   -1.4273   -0.5974 C   0  0  0  0  0  0  0  0  0  0  0  0
   -2.5354   -0.3032   -1.0515 N   0  0  0  0  0  0  0  0  0  0  0  0
   -1.9422    0.9604   -1.4664 C   0  0  0  0  0  0  0  0  0  0  0  0
   -1.8084    2.0171   -0.3815 C   0  0  0  0  0  0  0  0  0  0  0  0
   -1.4304    3.3189   -0.7613 C   0  0  0  0  0  0  0  0  0  0  0  0
   -1.3144    4.3323    0.1878 C   0  0  0  0  0  0  0  0  0  0  0  0
   -1.5656    4.0615    1.5333 C   0  0  0  0  0  0  0  0  0  0  0  0
   -1.9250    2.7791    1.9290 C   0  0  0  0  0  0  0  0  0  0  0  0
   -2.0437    1.7656    0.9795 C   0  0  0  0  0  0  0  0  0  0  0  0
   -3.9325   -0.3875   -1.1057 C   0  0  0  0  0  0  0  0  0  0  0  0
   -4.6478    0.5107   -1.5553 O   0  0  0  0  0  0  0  0  0  0  0  0
   -5.3909   -3.3786    1.6242 H   0  0  0  0  0  0  0  0  0  0  0  0
   -6.0521   -2.1056    2.6545 H   0  0  0  0  0  0  0  0  0  0  0  0
   -6.7666   -2.4117    1.0681 H   0  0  0  0  0  0  0  0  0  0  0  0
   -5.3249   -0.3586    1.1222 H   0  0  0  0  0  0  0  0  0  0  0  0
   -3.9484   -1.3304    1.6089 H   0  0  0  0  0  0  0  0  0  0  0  0
   -5.5179   -1.7995   -1.0014 H   0  0  0  0  0  0  0  0  0  0  0  0
   -4.0819   -3.6856   -0.2431 H   0  0  0  0  0  0  0  0  0  0  0  0
    0.0088   -4.5263    0.7262 H   0  0  0  0  0  0  0  0  0  0  0  0
    0.5545   -0.2678    1.6173 H   0  0  0  0  0  0  0  0  0  0  0  0
    1.0563    1.1866    0.7789 H   0  0  0  0  0  0  0  0  0  0  0  0
    2.6818   -1.4119    0.8716 H   0  0  0  0  0  0  0  0  0  0  0  0
    2.9687    0.0794    1.7907 H   0  0  0  0  0  0  0  0  0  0  0  0
    4.9011    1.7085   -1.9198 H   0  0  0  0  0  0  0  0  0  0  0  0
    7.3280    1.9896   -1.8020 H   0  0  0  0  0  0  0  0  0  0  0  0
    8.6425    0.8632   -0.0215 H   0  0  0  0  0  0  0  0  0  0  0  0
    7.4755   -0.5671    1.6380 H   0  0  0  0  0  0  0  0  0  0  0  0
    5.0579   -0.8892    1.5179 H   0  0  0  0  0  0  0  0  0  0  0  0
    3.2855    0.1375   -2.4185 H   0  0  0  0  0  0  0  0  0  0  0  0
    2.3124    1.4076   -1.6527 H   0  0  0  0  0  0  0  0  0  0  0  0
    0.9245   -0.4522   -2.5922 H   0  0  0  0  0  0  0  0  0  0  0  0
    1.8055   -1.6165   -1.6011 H   0  0  0  0  0  0  0  0  0  0  0  0
   -2.5939    1.3926   -2.2416 H   0  0  0  0  0  0  0  0  0  0  0  0
   -0.9949    0.8004   -1.9907 H   0  0  0  0  0  0  0  0  0  0  0  0
   -1.2366    3.5492   -1.8096 H   0  0  0  0  0  0  0  0  0  0  0  0
   -1.0373    5.3337   -0.1276 H   0  0  0  0  0  0  0  0  0  0  0  0
   -1.4852    4.8509    2.2702 H   0  0  0  0  0  0  0  0  0  0  0  0
   -2.1182    2.5697    2.9792 H   0  0  0  0  0  0  0  0  0  0  0  0
   -2.3227    0.7755    1.3218 H   0  0  0  0  0  0  0  0  0  0  0  0
  1  2  1  0
  2  3  1  0
  3  4  1  0
  4  5  1  0
  5  6  2  0
  6  7  1  0
  7  8  2  0
  8  9  1  0
  9 10  1  0
 10 11  1  0
 11 12  1  0
 12 13  1  0
 13 14  1  0
 14 15  2  0
 15 16  1  0
 16 17  2  0
 17 18  1  0
 18 19  2  0
 13 20  1  0
 20 21  1  0
  9 22  2  0
 22 23  1  0
 23 24  1  0
 24 25  1  0
 25 26  2  0
 26 27  1  0
 27 28  2  0
 28 29  1  0
 29 30  2  0
 23 31  1  0
 31 32  2  0
 31  3  1  0
 22  5  1  0
 30 25  1  0
 21 10  1  0
 19 14  1  0
  1 33  1  0
  1 34  1  0
  1 35  1  0
  2 36  1  0
  2 37  1  0
  3 38  1  0
  4 39  1  0
  7 40  1  0
 11 41  1  0
 11 42  1  0
 12 43  1  0
 12 44  1  0
 15 45  1  0
 16 46  1  0
 17 47  1  0
 18 48  1  0
 19 49  1  0
 20 50  1  0
 20 51  1  0
 21 52  1  0
 21 53  1  0
 24 54  1  0
 24 55  1  0
 26 56  1  0
 27 57  1  0
 28 58  1  0
 29 59  1  0
 30 60  1  0
M  END
$$$$
