
     RDKit          3D

 36 37  0  0  0  0  0  0  0  0999 V2000
    1.9944    1.9930   -0.1325 C   0  0  0  0  0  0  0  0  0  0  0  0
    1.7014    0.6274    0.2076 O   0  0  0  0  0  0  0  0  0  0  0  0
    2.5705   -0.3163   -0.2880 C   0  0  0  0  0  0  0  0  0  0  0  0
    3.6461   -0.0389   -1.1444 C   0  0  0  0  0  0  0  0  0  0  0  0
    4.4681   -1.0668   -1.6138 C   0  0  0  0  0  0  0  0  0  0  0  0
    4.2241   -2.3837   -1.2330 C   0  0  0  0  0  0  0  0  0  0  0  0
    3.1613   -2.6742   -0.3821 C   0  0  0  0  0  0  0  0  0  0  0  0
    2.3324   -1.6474    0.1052 C   0  0  0  0  0  0  0  0  0  0  0  0
    1.2010   -2.0159    1.0341 C   0  0  0  0  0  0  0  0  0  0  0  0
   -0.1355   -2.1356    0.3233 C   0  0  0  0  0  0  0  0  0  0  0  0
   -0.5021   -3.2001   -0.1725 O   0  0  0  0  0  0  0  0  0  0  0  0
   -0.8264   -0.9320    0.2799 N   0  0  0  0  0  0  0  0  0  0  0  0
   -2.1885   -0.8231    0.0731 C   0  0  0  0  0  0  0  0  0  0  0  0
   -2.9288   -1.7673   -0.2091 O   0  0  0  0  0  0  0  0  0  0  0  0
   -2.8195    0.5313    0.2208 C   0  0  0  0  0  0  0  0  0  0  0  0
   -2.0929    1.6831    0.5684 C   0  0  0  0  0  0  0  0  0  0  0  0
   -2.7418    2.9149    0.7421 C   0  0  0  0  0  0  0  0  0  0  0  0
   -4.1188    3.0158    0.5672 C   0  0  0  0  0  0  0  0  0  0  0  0
   -4.8538    1.8865    0.2133 C   0  0  0  0  0  0  0  0  0  0  0  0
   -4.2123    0.6571    0.0468 C   0  0  0  0  0  0  0  0  0  0  0  0
   -5.0399   -0.3912   -0.2571 O   0  0  0  0  0  0  0  0  0  0  0  0
    1.9309    2.1484   -1.2210 H   0  0  0  0  0  0  0  0  0  0  0  0
    1.2331    2.6261    0.3337 H   0  0  0  0  0  0  0  0  0  0  0  0
    2.9675    2.3006    0.2736 H   0  0  0  0  0  0  0  0  0  0  0  0
    3.8773    0.9698   -1.4722 H   0  0  0  0  0  0  0  0  0  0  0  0
    5.2993   -0.8404   -2.2797 H   0  0  0  0  0  0  0  0  0  0  0  0
    4.8609   -3.1876   -1.5962 H   0  0  0  0  0  0  0  0  0  0  0  0
    2.9764   -3.7103   -0.0991 H   0  0  0  0  0  0  0  0  0  0  0  0
    1.1290   -1.2984    1.8620 H   0  0  0  0  0  0  0  0  0  0  0  0
    1.4033   -2.9798    1.5193 H   0  0  0  0  0  0  0  0  0  0  0  0
   -0.2758   -0.1229    0.5062 H   0  0  0  0  0  0  0  0  0  0  0  0
   -1.0225    1.6707    0.7319 H   0  0  0  0  0  0  0  0  0  0  0  0
   -2.1713    3.7980    1.0242 H   0  0  0  0  0  0  0  0  0  0  0  0
   -4.6264    3.9681    0.7153 H   0  0  0  0  0  0  0  0  0  0  0  0
   -5.9307    1.9533    0.0844 H   0  0  0  0  0  0  0  0  0  0  0  0
   -4.4900   -1.2120   -0.3150 H   0  0  0  0  0  0  0  0  0  0  0  0
  1  2  1  0
  2  3  1  0
  3  4  2  0
  4  5  1  0
  5  6  2  0
  6  7  1  0
  7  8  2  0
  8  9  1  0
  9 10  1  0
 10 11  2  0
 10 12  1  0
 12 13  1  0
 13 14  2  0
 13 15  1  0
 15 16  2  0
 16 17  1  0
 17 18  2  0
 18 19  1  0
 19 20  2  0
 20 21  1  0
  8  3  1  0
 20 15  1  0
  1 22  1  0
  1 23  1  0
  1 24  1  0
  4 25  1  0
  5 26  1  0
  6 27  1  0
  7 28  1  0
  9 29  1  0
  9 30  1  0
 12 31  1  0
 16 32  1  0
 17 33  1  0
 18 34  1  0
 19 35  1  0
 21 36  1  0
M  END
$$$$
