
     RDKit          3D

 57 59  0  0  0  0  0  0  0  0999 V2000
    7.1579   -2.1258    1.1828 C   0  0  0  0  0  0  0  0  0  0  0  0
    7.1090   -0.7526    0.6717 N   0  0  0  0  0  0  0  0  0  0  0  0
    8.4741   -0.2523    0.4786 C   0  0  0  0  0  0  0  0  0  0  0  0
    6.3613   -0.6762   -0.6077 C   0  0  0  0  0  0  0  0  0  0  0  0
    4.8382   -0.8134   -0.4077 C   0  0  0  0  0  0  0  0  0  0  0  0
    4.4020    0.0801    0.6842 N   0  0  0  0  0  0  0  0  0  0  0  0
    3.9107    1.6360    0.2984 S   0  0  0  0  0  6  0  0  0  0  0  0
    4.1136    2.4465    1.4778 O   0  0  0  0  0  0  0  0  0  0  0  0
    4.4566    2.0034   -0.9884 O   0  0  0  0  0  0  0  0  0  0  0  0
    2.1601    1.4057    0.1112 C   0  0  0  0  0  0  0  0  0  0  0  0
    1.3289    1.4765    1.2282 C   0  0  0  0  0  0  0  0  0  0  0  0
   -0.0571    1.3148    1.0817 C   0  0  0  0  0  0  0  0  0  0  0  0
   -0.6588    1.0744   -0.1688 C   0  0  0  0  0  0  0  0  0  0  0  0
   -2.0328    0.8861   -0.2700 N   0  0  0  0  0  0  0  0  0  0  0  0
   -2.5478   -0.3307   -0.9444 C   0  0  0  0  0  0  0  0  0  0  0  0
   -3.7333   -0.9806   -0.1891 C   0  0  0  0  0  0  0  0  0  0  0  0
   -4.8204   -0.0196    0.0699 N   0  0  0  0  0  0  0  0  0  0  0  0
   -6.1279   -0.4291    0.2694 C   0  0  0  0  0  0  0  0  0  0  0  0
   -6.4486   -1.7576    0.6030 C   0  0  0  0  0  0  0  0  0  0  0  0
   -7.7705   -2.1723    0.8049 C   0  0  0  0  0  0  0  0  0  0  0  0
   -8.8010   -1.2574    0.6710 C   0  0  0  0  0  0  0  0  0  0  0  0
  -10.0667   -1.6498    0.8627 F   0  0  0  0  0  0  0  0  0  0  0  0
   -8.5325    0.0596    0.3383 C   0  0  0  0  0  0  0  0  0  0  0  0
   -7.2072    0.4643    0.1400 C   0  0  0  0  0  0  0  0  0  0  0  0
   -4.4255    1.3933    0.2303 C   0  0  0  0  0  0  0  0  0  0  0  0
   -2.9554    1.5184    0.6932 C   0  0  0  0  0  0  0  0  0  0  0  0
    0.2271    1.0470   -1.2689 C   0  0  0  0  0  0  0  0  0  0  0  0
   -0.2808    0.9148   -2.6174 N   0  0  0  0  0  4  0  0  0  0  0  0
   -0.1323   -0.1907   -3.1597 O   0  0  0  0  0  0  0  0  0  0  0  0
   -0.7792    1.9184   -3.1431 O   0  0  0  0  0  1  0  0  0  0  0  0
    1.6174    1.2080   -1.1536 C   0  0  0  0  0  0  0  0  0  0  0  0
    7.7206   -2.1644    2.1229 H   0  0  0  0  0  0  0  0  0  0  0  0
    7.6294   -2.8150    0.4727 H   0  0  0  0  0  0  0  0  0  0  0  0
    6.1548   -2.4981    1.4130 H   0  0  0  0  0  0  0  0  0  0  0  0
    8.4580    0.7942    0.1547 H   0  0  0  0  0  0  0  0  0  0  0  0
    9.0297   -0.2767    1.4228 H   0  0  0  0  0  0  0  0  0  0  0  0
    9.0274   -0.8375   -0.2647 H   0  0  0  0  0  0  0  0  0  0  0  0
    6.5428    0.3050   -1.0644 H   0  0  0  0  0  0  0  0  0  0  0  0
    6.7150   -1.4281   -1.3241 H   0  0  0  0  0  0  0  0  0  0  0  0
    4.2972   -0.6100   -1.3374 H   0  0  0  0  0  0  0  0  0  0  0  0
    4.5834   -1.8391   -0.1202 H   0  0  0  0  0  0  0  0  0  0  0  0
    5.0546    0.0815    1.4766 H   0  0  0  0  0  0  0  0  0  0  0  0
    1.7470    1.6513    2.2183 H   0  0  0  0  0  0  0  0  0  0  0  0
   -0.6577    1.3552    1.9876 H   0  0  0  0  0  0  0  0  0  0  0  0
   -1.7615   -1.0883   -1.0474 H   0  0  0  0  0  0  0  0  0  0  0  0
   -2.8827   -0.0494   -1.9500 H   0  0  0  0  0  0  0  0  0  0  0  0
   -4.0901   -1.8167   -0.8024 H   0  0  0  0  0  0  0  0  0  0  0  0
   -3.3791   -1.3852    0.7671 H   0  0  0  0  0  0  0  0  0  0  0  0
   -5.6670   -2.4999    0.7365 H   0  0  0  0  0  0  0  0  0  0  0  0
   -7.9935   -3.2009    1.0681 H   0  0  0  0  0  0  0  0  0  0  0  0
   -9.3487    0.7653    0.2269 H   0  0  0  0  0  0  0  0  0  0  0  0
   -7.0364    1.4981   -0.1476 H   0  0  0  0  0  0  0  0  0  0  0  0
   -5.0471    1.8919    0.9835 H   0  0  0  0  0  0  0  0  0  0  0  0
   -4.5604    1.9123   -0.7262 H   0  0  0  0  0  0  0  0  0  0  0  0
   -2.8560    1.0413    1.6763 H   0  0  0  0  0  0  0  0  0  0  0  0
   -2.7119    2.5822    0.7997 H   0  0  0  0  0  0  0  0  0  0  0  0
    2.2530    1.1917   -2.0365 H   0  0  0  0  0  0  0  0  0  0  0  0
  1  2  1  0
  2  3  1  0
  2  4  1  0
  4  5  1  0
  5  6  1  0
  6  7  1  0
  7  8  2  0
  7  9  2  0
  7 10  1  0
 10 11  2  0
 11 12  1  0
 12 13  2  0
 13 14  1  0
 14 15  1  0
 15 16  1  0
 16 17  1  0
 17 18  1  0
 18 19  2  0
 19 20  1  0
 20 21  2  0
 21 22  1  0
 21 23  1  0
 23 24  2  0
 17 25  1  0
 25 26  1  0
 13 27  1  0
 27 28  1  0
 28 29  2  0
 28 30  1  0
 27 31  2  0
 31 10  1  0
 26 14  1  0
 24 18  1  0
  1 32  1  0
  1 33  1  0
  1 34  1  0
  3 35  1  0
  3 36  1  0
  3 37  1  0
  4 38  1  0
  4 39  1  0
  5 40  1  0
  5 41  1  0
  6 42  1  0
 11 43  1  0
 12 44  1  0
 15 45  1  0
 15 46  1  0
 16 47  1  0
 16 48  1  0
 19 49  1  0
 20 50  1  0
 23 51  1  0
 24 52  1  0
 25 53  1  0
 25 54  1  0
 26 55  1  0
 26 56  1  0
 31 57  1  0
M  CHG  2  28   1  30  -1
M  END
$$$$
