
     RDKit          3D

 44 46  0  0  0  0  0  0  0  0999 V2000
    6.5942   -0.1360   -1.3061 C   0  0  0  0  0  0  0  0  0  0  0  0
    5.8886   -0.0858   -0.0732 O   0  0  0  0  0  0  0  0  0  0  0  0
    4.7269    0.7350   -0.1628 C   0  0  0  0  0  0  0  0  0  0  0  0
    4.0040    0.7152    1.1772 C   0  0  0  0  0  0  0  0  0  0  0  0
    3.4323   -0.6622    1.5491 C   0  0  0  0  0  0  0  0  0  0  0  0
    2.2430   -1.0384    0.7600 N   0  0  0  0  0  0  0  0  0  0  0  0
    2.2765   -2.0441   -0.2063 C   0  0  0  0  0  0  0  0  0  0  0  0
    3.5849   -2.9905   -0.6601 S   0  0  0  0  0  0  0  0  0  0  0  0
    1.1083   -2.3010   -0.8729 N   0  0  0  0  0  0  0  0  0  0  0  0
   -0.0927   -1.6444   -0.6298 C   0  0  0  0  0  0  0  0  0  0  0  0
   -1.2298   -1.9746   -1.3566 C   0  0  0  0  0  0  0  0  0  0  0  0
   -2.4315   -1.3063   -1.0952 C   0  0  0  0  0  0  0  0  0  0  0  0
   -2.5276   -0.2978   -0.1181 C   0  0  0  0  0  0  0  0  0  0  0  0
   -3.7640    0.3243    0.1112 N   0  0  0  0  0  0  0  0  0  0  0  0
   -3.9221    1.1326    1.3427 C   0  0  0  0  0  0  0  0  0  0  0  0
   -5.3943    1.5370    1.5189 C   0  0  0  0  0  0  0  0  0  0  0  0
   -5.8772    2.2630    0.3771 O   0  0  0  0  0  0  0  0  0  0  0  0
   -5.7746    1.4481   -0.8006 C   0  0  0  0  0  0  0  0  0  0  0  0
   -4.3221    1.0229   -1.0748 C   0  0  0  0  0  0  0  0  0  0  0  0
   -1.3650   -0.0017    0.6073 C   0  0  0  0  0  0  0  0  0  0  0  0
   -0.1574   -0.6679    0.3466 C   0  0  0  0  0  0  0  0  0  0  0  0
    1.0658   -0.3485    1.1037 C   0  0  0  0  0  0  0  0  0  0  0  0
    0.9995    0.4982    1.9938 O   0  0  0  0  0  0  0  0  0  0  0  0
    5.9620   -0.5555   -2.0944 H   0  0  0  0  0  0  0  0  0  0  0  0
    6.9373    0.8633   -1.5908 H   0  0  0  0  0  0  0  0  0  0  0  0
    7.4669   -0.7818   -1.1773 H   0  0  0  0  0  0  0  0  0  0  0  0
    5.0355    1.7618   -0.3909 H   0  0  0  0  0  0  0  0  0  0  0  0
    4.0717    0.3837   -0.9671 H   0  0  0  0  0  0  0  0  0  0  0  0
    3.2148    1.4739    1.1659 H   0  0  0  0  0  0  0  0  0  0  0  0
    4.7170    0.9999    1.9611 H   0  0  0  0  0  0  0  0  0  0  0  0
    3.1238   -0.6280    2.6023 H   0  0  0  0  0  0  0  0  0  0  0  0
    4.2123   -1.4254    1.4965 H   0  0  0  0  0  0  0  0  0  0  0  0
    1.1461   -3.0319   -1.5750 H   0  0  0  0  0  0  0  0  0  0  0  0
   -1.2077   -2.7498   -2.1170 H   0  0  0  0  0  0  0  0  0  0  0  0
   -3.3186   -1.6064   -1.6492 H   0  0  0  0  0  0  0  0  0  0  0  0
   -3.3113    2.0411    1.2685 H   0  0  0  0  0  0  0  0  0  0  0  0
   -3.6112    0.5601    2.2243 H   0  0  0  0  0  0  0  0  0  0  0  0
   -5.4985    2.1875    2.3930 H   0  0  0  0  0  0  0  0  0  0  0  0
   -6.0296    0.6574    1.6779 H   0  0  0  0  0  0  0  0  0  0  0  0
   -6.1536    2.0352   -1.6431 H   0  0  0  0  0  0  0  0  0  0  0  0
   -6.4243    0.5722   -0.6850 H   0  0  0  0  0  0  0  0  0  0  0  0
   -3.7146    1.9135   -1.2811 H   0  0  0  0  0  0  0  0  0  0  0  0
   -4.3158    0.3900   -1.9683 H   0  0  0  0  0  0  0  0  0  0  0  0
   -1.3681    0.7621    1.3797 H   0  0  0  0  0  0  0  0  0  0  0  0
  1  2  1  0
  2  3  1  0
  3  4  1  0
  4  5  1  0
  5  6  1  0
  6  7  1  0
  7  8  2  0
  7  9  1  0
  9 10  1  0
 10 11  2  0
 11 12  1  0
 12 13  2  0
 13 14  1  0
 14 15  1  0
 15 16  1  0
 16 17  1  0
 17 18  1  0
 18 19  1  0
 13 20  1  0
 20 21  2  0
 21 22  1  0
 22 23  2  0
 22  6  1  0
 21 10  1  0
 19 14  1  0
  1 24  1  0
  1 25  1  0
  1 26  1  0
  3 27  1  0
  3 28  1  0
  4 29  1  0
  4 30  1  0
  5 31  1  0
  5 32  1  0
  9 33  1  0
 11 34  1  0
 12 35  1  0
 15 36  1  0
 15 37  1  0
 16 38  1  0
 16 39  1  0
 18 40  1  0
 18 41  1  0
 19 42  1  0
 19 43  1  0
 20 44  1  0
M  END
$$$$
