
     RDKit          3D

 39 40  0  0  0  0  0  0  0  0999 V2000
    1.9178   -2.1748    2.7011 C   0  0  0  0  0  0  0  0  0  0  0  0
    0.9238   -1.0339    2.8961 C   0  0  0  0  0  0  0  0  0  0  0  0
    0.4006   -0.3545    1.6166 C   0  0  0  0  0  0  0  0  0  0  0  0
    1.7387    0.1434    0.4548 S   0  0  0  0  0  0  0  0  0  0  0  0
    2.3809    1.5217    1.2695 C   0  0  0  0  0  0  0  0  0  0  0  0
    1.7934    2.2238    2.2101 N   0  0  0  0  0  0  0  0  0  0  0  0
    2.6514    3.2383    2.5719 N   0  0  0  0  0  0  0  0  0  0  0  0
    3.7338    3.1237    1.8362 C   0  0  0  0  0  0  0  0  0  0  0  0
    3.6063    2.0566    0.9982 N   0  0  0  0  0  0  0  0  0  0  0  0
    4.5839    1.6093    0.0437 C   0  0  0  0  0  0  0  0  0  0  0  0
   -0.6096   -1.2322    0.8522 C   0  0  0  0  0  0  0  0  0  0  0  0
   -0.8436   -2.3943    1.1724 O   0  0  0  0  0  0  0  0  0  0  0  0
   -1.2268   -0.5461   -0.1812 N   0  0  0  0  0  0  0  0  0  0  0  0
   -2.2190   -0.9989   -1.0773 C   0  0  0  0  0  0  0  0  0  0  0  0
   -2.7825   -2.2751   -1.0282 C   0  0  0  0  0  0  0  0  0  0  0  0
   -3.7628   -2.6467   -1.9508 C   0  0  0  0  0  0  0  0  0  0  0  0
   -4.1848   -1.7463   -2.9254 C   0  0  0  0  0  0  0  0  0  0  0  0
   -3.6298   -0.4666   -2.9849 C   0  0  0  0  0  0  0  0  0  0  0  0
   -2.6483   -0.0849   -2.0652 C   0  0  0  0  0  0  0  0  0  0  0  0
   -2.0348    1.1475   -2.0338 O   0  0  0  0  0  0  0  0  0  0  0  0
   -2.4743    2.1120   -2.9823 C   0  0  0  0  0  0  0  0  0  0  0  0
    2.8744   -1.8163    2.3096 H   0  0  0  0  0  0  0  0  0  0  0  0
    1.5324   -2.9424    2.0247 H   0  0  0  0  0  0  0  0  0  0  0  0
    2.1235   -2.6531    3.6647 H   0  0  0  0  0  0  0  0  0  0  0  0
    1.3952   -0.2795    3.5384 H   0  0  0  0  0  0  0  0  0  0  0  0
    0.0690   -1.4186    3.4673 H   0  0  0  0  0  0  0  0  0  0  0  0
   -0.1609    0.5400    1.9169 H   0  0  0  0  0  0  0  0  0  0  0  0
    4.6016    3.7672    1.8756 H   0  0  0  0  0  0  0  0  0  0  0  0
    5.4642    2.2560    0.0920 H   0  0  0  0  0  0  0  0  0  0  0  0
    4.8726    0.5839    0.2883 H   0  0  0  0  0  0  0  0  0  0  0  0
    4.1485    1.6620   -0.9574 H   0  0  0  0  0  0  0  0  0  0  0  0
   -0.9155    0.4046   -0.3653 H   0  0  0  0  0  0  0  0  0  0  0  0
   -2.4810   -3.0038   -0.2829 H   0  0  0  0  0  0  0  0  0  0  0  0
   -4.1954   -3.6432   -1.9040 H   0  0  0  0  0  0  0  0  0  0  0  0
   -4.9483   -2.0418   -3.6409 H   0  0  0  0  0  0  0  0  0  0  0  0
   -3.9849    0.2043   -3.7594 H   0  0  0  0  0  0  0  0  0  0  0  0
   -3.5357    2.3446   -2.8473 H   0  0  0  0  0  0  0  0  0  0  0  0
   -2.2662    1.7820   -4.0053 H   0  0  0  0  0  0  0  0  0  0  0  0
   -1.9079    3.0321   -2.8087 H   0  0  0  0  0  0  0  0  0  0  0  0
  1  2  1  0
  2  3  1  0
  3  4  1  0
  4  5  1  0
  5  6  2  0
  6  7  1  0
  7  8  2  0
  8  9  1  0
  9 10  1  0
  3 11  1  0
 11 12  2  0
 11 13  1  0
 13 14  1  0
 14 15  2  0
 15 16  1  0
 16 17  2  0
 17 18  1  0
 18 19  2  0
 19 20  1  0
 20 21  1  0
  9  5  1  0
 19 14  1  0
  1 22  1  0
  1 23  1  0
  1 24  1  0
  2 25  1  0
  2 26  1  0
  3 27  1  0
  8 28  1  0
 10 29  1  0
 10 30  1  0
 10 31  1  0
 13 32  1  0
 15 33  1  0
 16 34  1  0
 17 35  1  0
 18 36  1  0
 21 37  1  0
 21 38  1  0
 21 39  1  0
M  END
$$$$
