
     RDKit          3D

 49 52  0  0  0  0  0  0  0  0999 V2000
    3.7030    1.6781    0.3557 O   0  0  0  0  0  0  0  0  0  0  0  0
    3.6149    0.4633    0.5152 C   0  0  0  0  0  0  0  0  0  0  0  0
    2.3491   -0.1862    1.0616 C   0  0  0  0  0  0  0  0  0  0  0  0
    0.8890    0.4265    0.1675 S   0  0  0  0  0  0  0  0  0  0  0  0
   -0.3559   -0.4340    1.0019 C   0  0  0  0  0  0  0  0  0  0  0  0
   -0.1691   -1.3960    1.8710 N   0  0  0  0  0  0  0  0  0  0  0  0
   -1.4014   -1.7789    2.3350 N   0  0  0  0  0  0  0  0  0  0  0  0
   -2.3250   -1.0575    1.7241 C   0  0  0  0  0  0  0  0  0  0  0  0
   -3.7546   -1.1385    1.9920 C   0  0  0  0  0  0  0  0  0  0  0  0
   -4.2366   -0.8288    3.2652 C   0  0  0  0  0  0  0  0  0  0  0  0
   -5.5996   -0.9095    3.4892 C   0  0  0  0  0  0  0  0  0  0  0  0
   -6.4949   -1.2736    2.5445 N   0  0  0  0  0  0  0  0  0  0  0  0
   -6.0012   -1.5975    1.3313 C   0  0  0  0  0  0  0  0  0  0  0  0
   -4.6558   -1.5509    1.0109 C   0  0  0  0  0  0  0  0  0  0  0  0
   -1.6956   -0.1806    0.8621 N   0  0  0  0  0  0  0  0  0  0  0  0
   -2.3029    0.9012    0.1040 C   0  0  0  0  0  0  0  0  0  0  0  0
   -2.3627    0.6237   -1.4056 C   0  0  0  0  0  0  0  0  0  0  0  0
   -2.5930    1.8948   -2.2176 C   0  0  0  0  0  0  0  0  0  0  0  0
   -4.0945    1.9509   -2.3388 C   0  0  0  0  0  0  0  0  0  0  0  0
   -4.4443    0.4886   -2.4752 C   0  0  0  0  0  0  0  0  0  0  0  0
   -3.4884   -0.2350   -1.6858 O   0  0  0  0  0  0  0  0  0  0  0  0
    4.6207   -0.4562    0.2643 N   0  0  0  0  0  0  0  0  0  0  0  0
    5.9256   -0.2122   -0.2312 C   0  0  0  0  0  0  0  0  0  0  0  0
    6.3857    1.0555   -0.5979 C   0  0  0  0  0  0  0  0  0  0  0  0
    7.6906    1.2285   -1.0758 C   0  0  0  0  0  0  0  0  0  0  0  0
    8.5501    0.1387   -1.1963 C   0  0  0  0  0  0  0  0  0  0  0  0
    8.1069   -1.1321   -0.8416 C   0  0  0  0  0  0  0  0  0  0  0  0
    6.8050   -1.3051   -0.3635 C   0  0  0  0  0  0  0  0  0  0  0  0
    6.3053   -2.9067    0.0706 Cl  0  0  0  0  0  0  0  0  0  0  0  0
    2.2787    0.0593    2.1269 H   0  0  0  0  0  0  0  0  0  0  0  0
    2.3959   -1.2747    0.9534 H   0  0  0  0  0  0  0  0  0  0  0  0
   -3.5660   -0.5348    4.0650 H   0  0  0  0  0  0  0  0  0  0  0  0
   -6.0197   -0.6770    4.4637 H   0  0  0  0  0  0  0  0  0  0  0  0
   -6.7389   -1.9097    0.5988 H   0  0  0  0  0  0  0  0  0  0  0  0
   -4.3249   -1.8478    0.0209 H   0  0  0  0  0  0  0  0  0  0  0  0
   -1.7108    1.7988    0.3177 H   0  0  0  0  0  0  0  0  0  0  0  0
   -3.3046    1.0777    0.5097 H   0  0  0  0  0  0  0  0  0  0  0  0
   -1.4575    0.1143   -1.7528 H   0  0  0  0  0  0  0  0  0  0  0  0
   -2.1571    2.7939   -1.7734 H   0  0  0  0  0  0  0  0  0  0  0  0
   -2.1549    1.7730   -3.2159 H   0  0  0  0  0  0  0  0  0  0  0  0
   -4.4464    2.5555   -3.1799 H   0  0  0  0  0  0  0  0  0  0  0  0
   -4.5281    2.3575   -1.4181 H   0  0  0  0  0  0  0  0  0  0  0  0
   -5.4548    0.2632   -2.1268 H   0  0  0  0  0  0  0  0  0  0  0  0
   -4.3456    0.1519   -3.5116 H   0  0  0  0  0  0  0  0  0  0  0  0
    4.4331   -1.4328    0.4751 H   0  0  0  0  0  0  0  0  0  0  0  0
    5.7572    1.9371   -0.5220 H   0  0  0  0  0  0  0  0  0  0  0  0
    8.0312    2.2237   -1.3546 H   0  0  0  0  0  0  0  0  0  0  0  0
    9.5630    0.2817   -1.5656 H   0  0  0  0  0  0  0  0  0  0  0  0
    8.7800   -1.9812   -0.9321 H   0  0  0  0  0  0  0  0  0  0  0  0
  1  2  2  0
  2  3  1  0
  3  4  1  0
  4  5  1  0
  5  6  2  0
  6  7  1  0
  7  8  2  0
  8  9  1  0
  9 10  2  0
 10 11  1  0
 11 12  2  0
 12 13  1  0
 13 14  2  0
  8 15  1  0
 15 16  1  0
 16 17  1  0
 17 18  1  0
 18 19  1  0
 19 20  1  0
 20 21  1  0
  2 22  1  0
 22 23  1  0
 23 24  2  0
 24 25  1  0
 25 26  2  0
 26 27  1  0
 27 28  2  0
 28 29  1  0
 15  5  1  0
 21 17  1  0
 28 23  1  0
 14  9  1  0
  3 30  1  0
  3 31  1  0
 10 32  1  0
 11 33  1  0
 13 34  1  0
 14 35  1  0
 16 36  1  0
 16 37  1  0
 17 38  1  0
 18 39  1  0
 18 40  1  0
 19 41  1  0
 19 42  1  0
 20 43  1  0
 20 44  1  0
 22 45  1  0
 24 46  1  0
 25 47  1  0
 26 48  1  0
 27 49  1  0
M  END
$$$$
