
     RDKit          3D

 42 44  0  0  0  0  0  0  0  0999 V2000
    4.0682    0.1155    1.2846 C   0  0  0  0  0  0  0  0  0  0  0  0
    4.0036   -0.1382   -0.2192 C   0  0  0  0  0  0  0  0  0  0  0  0
    5.3988   -0.4276   -0.7700 C   0  0  0  0  0  0  0  0  0  0  0  0
    2.9339   -1.5875   -0.5733 S   0  0  0  0  0  0  0  0  0  0  0  0
    1.3092   -0.8915   -0.3058 C   0  0  0  0  0  0  0  0  0  0  0  0
    0.2945   -1.7263    0.1124 C   0  0  0  0  0  0  0  0  0  0  0  0
   -0.9587   -1.1750    0.2771 C   0  0  0  0  0  0  0  0  0  0  0  0
   -2.0292   -1.9217    0.7036 N   0  0  0  0  0  0  0  0  0  0  0  0
   -3.3453   -1.3090    0.8361 C   0  0  0  0  0  0  0  0  0  0  0  0
   -4.2165   -2.4644    1.3202 C   0  0  0  0  0  0  0  0  0  0  0  0
   -3.6130   -3.6615    0.6028 C   0  0  0  0  0  0  0  0  0  0  0  0
   -2.1113   -3.3744    0.6265 C   0  0  0  0  0  0  0  0  0  0  0  0
   -1.1566    0.1331    0.0408 N   0  0  0  0  0  0  0  0  0  0  0  0
   -0.1092    0.8784   -0.3582 C   0  0  0  0  0  0  0  0  0  0  0  0
   -0.3805    2.2841   -0.6821 C   0  0  0  0  0  0  0  0  0  0  0  0
   -1.5037    2.5974   -1.4801 C   0  0  0  0  0  0  0  0  0  0  0  0
   -1.8075    3.9130   -1.8402 C   0  0  0  0  0  0  0  0  0  0  0  0
   -0.9958    4.9536   -1.4055 C   0  0  0  0  0  0  0  0  0  0  0  0
    0.1114    4.6766   -0.6059 C   0  0  0  0  0  0  0  0  0  0  0  0
    0.4172    3.3561   -0.2427 C   0  0  0  0  0  0  0  0  0  0  0  0
    1.7782    3.1449    0.8081 Cl  0  0  0  0  0  0  0  0  0  0  0  0
    1.1268    0.4093   -0.5649 N   0  0  0  0  0  0  0  0  0  0  0  0
    4.4889   -0.7412    1.8235 H   0  0  0  0  0  0  0  0  0  0  0  0
    4.7060    0.9811    1.4961 H   0  0  0  0  0  0  0  0  0  0  0  0
    3.0808    0.3302    1.7055 H   0  0  0  0  0  0  0  0  0  0  0  0
    3.6168    0.7470   -0.7339 H   0  0  0  0  0  0  0  0  0  0  0  0
    5.8537   -1.3048   -0.2958 H   0  0  0  0  0  0  0  0  0  0  0  0
    5.3730   -0.5952   -1.8526 H   0  0  0  0  0  0  0  0  0  0  0  0
    6.0632    0.4249   -0.5892 H   0  0  0  0  0  0  0  0  0  0  0  0
    0.4874   -2.7708    0.3131 H   0  0  0  0  0  0  0  0  0  0  0  0
   -3.7031   -0.9459   -0.1351 H   0  0  0  0  0  0  0  0  0  0  0  0
   -3.3536   -0.4850    1.5575 H   0  0  0  0  0  0  0  0  0  0  0  0
   -4.1133   -2.5875    2.4051 H   0  0  0  0  0  0  0  0  0  0  0  0
   -5.2749   -2.3178    1.0884 H   0  0  0  0  0  0  0  0  0  0  0  0
   -3.8641   -4.6142    1.0775 H   0  0  0  0  0  0  0  0  0  0  0  0
   -3.9705   -3.6923   -0.4337 H   0  0  0  0  0  0  0  0  0  0  0  0
   -1.6380   -3.7847   -0.2723 H   0  0  0  0  0  0  0  0  0  0  0  0
   -1.6458   -3.8197    1.5127 H   0  0  0  0  0  0  0  0  0  0  0  0
   -2.1515    1.7947   -1.8326 H   0  0  0  0  0  0  0  0  0  0  0  0
   -2.6770    4.1193   -2.4595 H   0  0  0  0  0  0  0  0  0  0  0  0
   -1.2266    5.9794   -1.6811 H   0  0  0  0  0  0  0  0  0  0  0  0
    0.7341    5.4975   -0.2577 H   0  0  0  0  0  0  0  0  0  0  0  0
  1  2  1  0
  2  3  1  0
  2  4  1  0
  4  5  1  0
  5  6  2  0
  6  7  1  0
  7  8  1  0
  8  9  1  0
  9 10  1  0
 10 11  1  0
 11 12  1  0
  7 13  2  0
 13 14  1  0
 14 15  1  0
 15 16  2  0
 16 17  1  0
 17 18  2  0
 18 19  1  0
 19 20  2  0
 20 21  1  0
 14 22  2  0
 22  5  1  0
 12  8  1  0
 20 15  1  0
  1 23  1  0
  1 24  1  0
  1 25  1  0
  2 26  1  0
  3 27  1  0
  3 28  1  0
  3 29  1  0
  6 30  1  0
  9 31  1  0
  9 32  1  0
 10 33  1  0
 10 34  1  0
 11 35  1  0
 11 36  1  0
 12 37  1  0
 12 38  1  0
 16 39  1  0
 17 40  1  0
 18 41  1  0
 19 42  1  0
M  END
$$$$
