
     RDKit          3D

 52 54  0  0  0  0  0  0  0  0999 V2000
    7.8454    1.6714    0.6340 C   0  0  0  0  0  0  0  0  0  0  0  0
    7.1591    1.4408    1.9658 C   0  0  0  0  0  0  0  0  0  0  0  0
    5.8291    0.9477    1.7459 O   0  0  0  0  0  0  0  0  0  0  0  0
    4.8551    1.8888    1.6158 C   0  0  0  0  0  0  0  0  0  0  0  0
    5.0535    3.0944    1.7093 O   0  0  0  0  0  0  0  0  0  0  0  0
    3.6148    1.3251    1.3745 N   0  0  0  0  0  0  0  0  0  0  0  0
    2.4401    2.1809    1.2843 C   0  0  0  0  0  0  0  0  0  0  0  0
    1.2046    1.4721    1.8253 C   0  0  0  0  0  0  0  0  0  0  0  0
    0.8979    0.1824    1.0422 C   0  0  0  0  0  0  0  0  0  0  0  0
   -0.1200    0.4359    0.0200 N   0  0  0  0  0  0  0  0  0  0  0  0
   -0.6448   -0.5880   -0.7546 C   0  0  0  0  0  0  0  0  0  0  0  0
   -0.2558   -1.7537   -0.6988 O   0  0  0  0  0  0  0  0  0  0  0  0
   -1.8276   -0.1523   -1.6241 C   0  0  0  0  0  0  0  0  0  0  0  0
   -3.0914   -0.4508   -0.9484 N   0  0  0  0  0  0  0  0  0  0  0  0
   -3.4376    0.3604    0.1291 C   0  0  0  0  0  0  0  0  0  0  0  0
   -2.7681    1.3461    0.4563 O   0  0  0  0  0  0  0  0  0  0  0  0
   -4.6203   -0.0681    0.9661 C   0  0  0  0  0  0  0  0  0  0  0  0
   -5.9325    0.4449    0.4192 C   0  0  0  0  0  0  0  0  0  0  0  0
   -6.1908    0.2119   -1.3633 S   0  0  0  0  0  0  0  0  0  0  0  0
   -5.3220   -1.3316   -1.6323 C   0  0  0  0  0  0  0  0  0  0  0  0
   -6.0837   -2.3824   -2.1704 C   0  0  0  0  0  0  0  0  0  0  0  0
   -5.4809   -3.5807   -2.5481 C   0  0  0  0  0  0  0  0  0  0  0  0
   -4.1063   -3.7319   -2.4134 C   0  0  0  0  0  0  0  0  0  0  0  0
   -3.3349   -2.6903   -1.8926 C   0  0  0  0  0  0  0  0  0  0  0  0
   -3.9251   -1.4828   -1.4818 C   0  0  0  0  0  0  0  0  0  0  0  0
    2.1679   -0.4405    0.4338 C   0  0  0  0  0  0  0  0  0  0  0  0
    3.4195   -0.1125    1.2340 C   0  0  0  0  0  0  0  0  0  0  0  0
    7.8597    0.7478    0.0445 H   0  0  0  0  0  0  0  0  0  0  0  0
    8.8731    2.0106    0.7807 H   0  0  0  0  0  0  0  0  0  0  0  0
    7.3096    2.4198    0.0419 H   0  0  0  0  0  0  0  0  0  0  0  0
    7.6989    0.6728    2.5313 H   0  0  0  0  0  0  0  0  0  0  0  0
    7.1596    2.3491    2.5769 H   0  0  0  0  0  0  0  0  0  0  0  0
    2.6080    3.1124    1.8341 H   0  0  0  0  0  0  0  0  0  0  0  0
    2.3037    2.4440    0.2285 H   0  0  0  0  0  0  0  0  0  0  0  0
    1.3912    1.2062    2.8745 H   0  0  0  0  0  0  0  0  0  0  0  0
    0.3486    2.1576    1.8274 H   0  0  0  0  0  0  0  0  0  0  0  0
    0.4464   -0.5375    1.7391 H   0  0  0  0  0  0  0  0  0  0  0  0
   -0.8166    1.1493    0.2472 H   0  0  0  0  0  0  0  0  0  0  0  0
   -1.7566   -0.6454   -2.5997 H   0  0  0  0  0  0  0  0  0  0  0  0
   -1.7687    0.9264   -1.8141 H   0  0  0  0  0  0  0  0  0  0  0  0
   -4.6263   -1.1575    1.0784 H   0  0  0  0  0  0  0  0  0  0  0  0
   -4.4734    0.3175    1.9826 H   0  0  0  0  0  0  0  0  0  0  0  0
   -6.0173    1.5189    0.6135 H   0  0  0  0  0  0  0  0  0  0  0  0
   -6.7592   -0.0392    0.9503 H   0  0  0  0  0  0  0  0  0  0  0  0
   -7.1577   -2.2695   -2.3159 H   0  0  0  0  0  0  0  0  0  0  0  0
   -6.0816   -4.3873   -2.9629 H   0  0  0  0  0  0  0  0  0  0  0  0
   -3.6286   -4.6629   -2.7107 H   0  0  0  0  0  0  0  0  0  0  0  0
   -2.2680   -2.8625   -1.7791 H   0  0  0  0  0  0  0  0  0  0  0  0
    2.3054   -0.0854   -0.5948 H   0  0  0  0  0  0  0  0  0  0  0  0
    2.0587   -1.5284    0.3730 H   0  0  0  0  0  0  0  0  0  0  0  0
    3.3519   -0.5308    2.2460 H   0  0  0  0  0  0  0  0  0  0  0  0
    4.2938   -0.5632    0.7472 H   0  0  0  0  0  0  0  0  0  0  0  0
  1  2  1  0
  2  3  1  0
  3  4  1  0
  4  5  2  0
  4  6  1  0
  6  7  1  0
  7  8  1  0
  8  9  1  0
  9 10  1  0
 10 11  1  0
 11 12  2  0
 11 13  1  0
 13 14  1  0
 14 15  1  0
 15 16  2  0
 15 17  1  0
 17 18  1  0
 18 19  1  0
 19 20  1  0
 20 21  2  0
 21 22  1  0
 22 23  2  0
 23 24  1  0
 24 25  2  0
  9 26  1  0
 26 27  1  0
 27  6  1  0
 25 14  1  0
 25 20  1  0
  1 28  1  0
  1 29  1  0
  1 30  1  0
  2 31  1  0
  2 32  1  0
  7 33  1  0
  7 34  1  0
  8 35  1  0
  8 36  1  0
  9 37  1  0
 10 38  1  0
 13 39  1  0
 13 40  1  0
 17 41  1  0
 17 42  1  0
 18 43  1  0
 18 44  1  0
 21 45  1  0
 22 46  1  0
 23 47  1  0
 24 48  1  0
 26 49  1  0
 26 50  1  0
 27 51  1  0
 27 52  1  0
M  END
$$$$
