
     RDKit          3D

 58 62  0  0  0  0  0  0  0  0999 V2000
   -3.9738   -0.8381   -4.2606 C   0  0  0  0  0  0  0  0  0  0  0  0
   -3.3944   -0.8737   -2.8471 C   0  0  0  0  0  0  0  0  0  0  0  0
   -3.6201   -2.2432   -2.1631 C   0  0  0  0  0  0  0  0  0  0  0  0
   -4.7555   -1.9607   -1.2326 C   0  0  0  0  0  0  0  0  0  0  0  0
   -5.4844   -2.8679   -0.4805 C   0  0  0  0  0  0  0  0  0  0  0  0
   -6.4933   -2.3775    0.3516 C   0  0  0  0  0  0  0  0  0  0  0  0
   -6.7590   -1.0004    0.4194 C   0  0  0  0  0  0  0  0  0  0  0  0
   -6.0113   -0.0951   -0.3371 C   0  0  0  0  0  0  0  0  0  0  0  0
   -5.0009   -0.5932   -1.1396 C   0  0  0  0  0  0  0  0  0  0  0  0
   -4.1359    0.1377   -2.0120 N   0  0  0  0  0  0  0  0  0  0  0  0
   -3.2233    1.4117   -1.3452 S   0  0  0  0  0  6  0  0  0  0  0  0
   -4.0951    2.3176   -0.6254 O   0  0  0  0  0  0  0  0  0  0  0  0
   -2.3390    1.9175   -2.3767 O   0  0  0  0  0  0  0  0  0  0  0  0
   -2.1966    0.5983   -0.1321 C   0  0  0  0  0  0  0  0  0  0  0  0
   -2.6602    0.4484    1.1807 C   0  0  0  0  0  0  0  0  0  0  0  0
   -1.8669   -0.2019    2.1283 C   0  0  0  0  0  0  0  0  0  0  0  0
   -0.6092   -0.6863    1.7685 C   0  0  0  0  0  0  0  0  0  0  0  0
   -0.1403   -0.4891    0.4652 C   0  0  0  0  0  0  0  0  0  0  0  0
    1.1669   -1.0358    0.0636 C   0  0  0  0  0  0  0  0  0  0  0  0
    1.1582   -2.0724   -0.5938 O   0  0  0  0  0  0  0  0  0  0  0  0
    2.3127   -0.3483    0.4351 N   0  0  0  0  0  0  0  0  0  0  0  0
    2.3243    0.9597    1.1095 C   0  0  0  0  0  0  0  0  0  0  0  0
    3.7027    1.3358    1.6817 C   0  0  0  0  0  0  0  0  0  0  0  0
    4.7384    1.2581    0.6525 N   0  0  0  0  0  0  0  0  0  0  0  0
    6.0090    1.6744    0.9987 C   0  0  0  0  0  0  0  0  0  0  0  0
    6.1849    2.3070    2.1727 N   0  0  0  0  0  0  0  0  0  0  0  0
    7.4274    2.7223    2.4847 C   0  0  0  0  0  0  0  0  0  0  0  0
    8.5144    2.5336    1.6738 C   0  0  0  0  0  0  0  0  0  0  0  0
    8.2494    1.8816    0.4987 C   0  0  0  0  0  0  0  0  0  0  0  0
    7.0232    1.4511    0.1466 N   0  0  0  0  0  0  0  0  0  0  0  0
    4.5959    0.2552   -0.4078 C   0  0  0  0  0  0  0  0  0  0  0  0
    3.6146   -0.8600   -0.0050 C   0  0  0  0  0  0  0  0  0  0  0  0
   -0.9238    0.1524   -0.4937 C   0  0  0  0  0  0  0  0  0  0  0  0
   -5.0481   -1.0544   -4.2646 H   0  0  0  0  0  0  0  0  0  0  0  0
   -3.8351    0.1522   -4.7088 H   0  0  0  0  0  0  0  0  0  0  0  0
   -3.4769   -1.5740   -4.9011 H   0  0  0  0  0  0  0  0  0  0  0  0
   -2.3225   -0.6654   -2.9136 H   0  0  0  0  0  0  0  0  0  0  0  0
   -3.8578   -3.0364   -2.8781 H   0  0  0  0  0  0  0  0  0  0  0  0
   -2.7371   -2.5300   -1.5814 H   0  0  0  0  0  0  0  0  0  0  0  0
   -5.2814   -3.9332   -0.5333 H   0  0  0  0  0  0  0  0  0  0  0  0
   -7.0840   -3.0688    0.9482 H   0  0  0  0  0  0  0  0  0  0  0  0
   -7.5588   -0.6357    1.0598 H   0  0  0  0  0  0  0  0  0  0  0  0
   -6.2348    0.9665   -0.3010 H   0  0  0  0  0  0  0  0  0  0  0  0
   -3.6409    0.8226    1.4687 H   0  0  0  0  0  0  0  0  0  0  0  0
   -2.2345   -0.3377    3.1431 H   0  0  0  0  0  0  0  0  0  0  0  0
    0.0024   -1.2135    2.4972 H   0  0  0  0  0  0  0  0  0  0  0  0
    1.5826    0.9703    1.9133 H   0  0  0  0  0  0  0  0  0  0  0  0
    2.0157    1.7016    0.3623 H   0  0  0  0  0  0  0  0  0  0  0  0
    3.9467    0.6524    2.5052 H   0  0  0  0  0  0  0  0  0  0  0  0
    3.6321    2.3508    2.0906 H   0  0  0  0  0  0  0  0  0  0  0  0
    7.5187    3.2289    3.4415 H   0  0  0  0  0  0  0  0  0  0  0  0
    9.5044    2.8736    1.9394 H   0  0  0  0  0  0  0  0  0  0  0  0
    9.0345    1.6778   -0.2222 H   0  0  0  0  0  0  0  0  0  0  0  0
    4.2203    0.7614   -1.3049 H   0  0  0  0  0  0  0  0  0  0  0  0
    5.5432   -0.2256   -0.6782 H   0  0  0  0  0  0  0  0  0  0  0  0
    4.0252   -1.4273    0.8395 H   0  0  0  0  0  0  0  0  0  0  0  0
    3.4920   -1.5586   -0.8393 H   0  0  0  0  0  0  0  0  0  0  0  0
   -0.5450    0.2840   -1.5038 H   0  0  0  0  0  0  0  0  0  0  0  0
  1  2  1  0
  2  3  1  0
  3  4  1  0
  4  5  2  0
  5  6  1  0
  6  7  2  0
  7  8  1  0
  8  9  2  0
  9 10  1  0
 10 11  1  0
 11 12  2  0
 11 13  2  0
 11 14  1  0
 14 15  2  0
 15 16  1  0
 16 17  2  0
 17 18  1  0
 18 19  1  0
 19 20  2  0
 19 21  1  0
 21 22  1  0
 22 23  1  0
 23 24  1  0
 24 25  1  0
 25 26  2  0
 26 27  1  0
 27 28  2  0
 28 29  1  0
 29 30  2  0
 24 31  1  0
 31 32  1  0
 18 33  2  0
 10  2  1  0
 33 14  1  0
  9  4  1  0
 32 21  1  0
 30 25  1  0
  1 34  1  0
  1 35  1  0
  1 36  1  0
  2 37  1  0
  3 38  1  0
  3 39  1  0
  5 40  1  0
  6 41  1  0
  7 42  1  0
  8 43  1  0
 15 44  1  0
 16 45  1  0
 17 46  1  0
 22 47  1  0
 22 48  1  0
 23 49  1  0
 23 50  1  0
 27 51  1  0
 28 52  1  0
 29 53  1  0
 31 54  1  0
 31 55  1  0
 32 56  1  0
 32 57  1  0
 33 58  1  0
M  END
$$$$
