
     RDKit          3D

 45 47  0  0  0  0  0  0  0  0999 V2000
   -5.6813   -0.8814    1.3920 C   0  0  0  0  0  0  0  0  0  0  0  0
   -4.2950   -0.5169    1.1064 N   0  0  0  0  0  0  0  0  0  0  0  0
   -3.6607   -1.4114    0.1194 C   0  0  0  0  0  0  0  0  0  0  0  0
   -4.1740   -0.9120   -1.2354 C   0  0  0  0  0  0  0  0  0  0  0  0
   -4.5131    0.5639   -0.9996 C   0  0  0  0  0  0  0  0  0  0  0  0
   -4.1699    0.8101    0.4746 C   0  0  0  0  0  0  0  0  0  0  0  0
   -2.7049    1.2391    0.6646 C   0  0  0  0  0  0  0  0  0  0  0  0
   -1.7210    0.2485    0.0228 C   0  0  0  0  0  0  0  0  0  0  0  0
   -0.4127    0.4949    0.5735 O   0  0  0  0  0  0  0  0  0  0  0  0
    0.6470    0.1441   -0.2083 C   0  0  0  0  0  0  0  0  0  0  0  0
    0.5663   -0.3662   -1.3174 O   0  0  0  0  0  0  0  0  0  0  0  0
    1.9337    0.4532    0.5135 C   0  0  0  0  0  0  0  0  0  0  0  0
    3.0914    0.5601   -0.4817 C   0  0  0  0  0  0  0  0  0  0  0  0
    4.3336    1.0041    0.1815 N   0  0  0  0  0  0  0  0  0  0  0  0
    5.3462    1.4219   -0.8041 C   0  0  0  0  0  0  0  0  0  0  0  0
    6.0358    0.1457   -1.2573 C   0  0  0  0  0  0  0  0  0  0  0  0
    5.8667   -0.8215   -0.0945 C   0  0  0  0  0  0  0  0  0  0  0  0
    4.9970   -0.0847    0.9181 C   0  0  0  0  0  0  0  0  0  0  0  0
   -2.1421   -1.2089    0.2715 C   0  0  0  0  0  0  0  0  0  0  0  0
   -5.7216   -1.8737    1.8506 H   0  0  0  0  0  0  0  0  0  0  0  0
   -6.1095   -0.1825    2.1177 H   0  0  0  0  0  0  0  0  0  0  0  0
   -6.3286   -0.8921    0.5109 H   0  0  0  0  0  0  0  0  0  0  0  0
   -3.8995   -2.4687    0.2873 H   0  0  0  0  0  0  0  0  0  0  0  0
   -3.4413   -1.0383   -2.0398 H   0  0  0  0  0  0  0  0  0  0  0  0
   -5.0812   -1.4538   -1.5284 H   0  0  0  0  0  0  0  0  0  0  0  0
   -5.5825    0.7254   -1.1793 H   0  0  0  0  0  0  0  0  0  0  0  0
   -3.9613    1.2220   -1.6798 H   0  0  0  0  0  0  0  0  0  0  0  0
   -4.8233    1.5629    0.9303 H   0  0  0  0  0  0  0  0  0  0  0  0
   -2.5421    2.2356    0.2324 H   0  0  0  0  0  0  0  0  0  0  0  0
   -2.4829    1.3445    1.7367 H   0  0  0  0  0  0  0  0  0  0  0  0
   -1.7005    0.4497   -1.0571 H   0  0  0  0  0  0  0  0  0  0  0  0
    2.1028   -0.3395    1.2477 H   0  0  0  0  0  0  0  0  0  0  0  0
    1.8174    1.4074    1.0423 H   0  0  0  0  0  0  0  0  0  0  0  0
    3.2285   -0.3911   -1.0150 H   0  0  0  0  0  0  0  0  0  0  0  0
    2.8069    1.3028   -1.2405 H   0  0  0  0  0  0  0  0  0  0  0  0
    6.0716    2.0730   -0.3006 H   0  0  0  0  0  0  0  0  0  0  0  0
    4.9355    1.9985   -1.6399 H   0  0  0  0  0  0  0  0  0  0  0  0
    7.0902    0.3184   -1.4972 H   0  0  0  0  0  0  0  0  0  0  0  0
    5.5498   -0.2631   -2.1509 H   0  0  0  0  0  0  0  0  0  0  0  0
    5.3766   -1.7409   -0.4386 H   0  0  0  0  0  0  0  0  0  0  0  0
    6.8334   -1.0977    0.3394 H   0  0  0  0  0  0  0  0  0  0  0  0
    4.3117   -0.7612    1.4400 H   0  0  0  0  0  0  0  0  0  0  0  0
    5.6381    0.3645    1.6879 H   0  0  0  0  0  0  0  0  0  0  0  0
   -1.6071   -1.8682   -0.4220 H   0  0  0  0  0  0  0  0  0  0  0  0
   -1.8242   -1.5167    1.2758 H   0  0  0  0  0  0  0  0  0  0  0  0
  1  2  1  0
  2  3  1  0
  3  4  1  0
  4  5  1  0
  5  6  1  0
  6  7  1  0
  7  8  1  0
  8  9  1  0
  9 10  1  0
 10 11  2  0
 10 12  1  0
 12 13  1  0
 13 14  1  0
 14 15  1  0
 15 16  1  0
 16 17  1  0
 17 18  1  0
  8 19  1  0
  6  2  1  0
 18 14  1  0
 19  3  1  0
  1 20  1  0
  1 21  1  0
  1 22  1  0
  3 23  1  0
  4 24  1  0
  4 25  1  0
  5 26  1  0
  5 27  1  0
  6 28  1  0
  7 29  1  0
  7 30  1  0
  8 31  1  0
 12 32  1  0
 12 33  1  0
 13 34  1  0
 13 35  1  0
 15 36  1  0
 15 37  1  0
 16 38  1  0
 16 39  1  0
 17 40  1  0
 17 41  1  0
 18 42  1  0
 18 43  1  0
 19 44  1  0
 19 45  1  0
M  END
$$$$
