
     RDKit          3D

 55 58  0  0  0  0  0  0  0  0999 V2000
   -1.8846    3.4415    3.6608 C   0  0  0  0  0  0  0  0  0  0  0  0
   -2.6162    2.8153    2.6044 O   0  0  0  0  0  0  0  0  0  0  0  0
   -1.9212    1.8617    1.9358 C   0  0  0  0  0  0  0  0  0  0  0  0
   -0.7636    1.5388    2.1647 O   0  0  0  0  0  0  0  0  0  0  0  0
   -2.7486    1.2298    0.8641 C   0  0  0  0  0  0  0  0  0  0  0  0
   -4.1004    1.5799    0.7266 C   0  0  0  0  0  0  0  0  0  0  0  0
   -4.8806    0.9791   -0.2585 C   0  0  0  0  0  0  0  0  0  0  0  0
   -6.1829    1.3919   -0.3855 O   0  0  0  0  0  0  0  0  0  0  0  0
   -7.0466    0.5374    0.3626 C   0  0  0  0  0  0  0  0  0  0  0  0
   -4.3319    0.0492   -1.1476 C   0  0  0  0  0  0  0  0  0  0  0  0
   -5.1837   -0.4665   -2.0884 O   0  0  0  0  0  0  0  0  0  0  0  0
   -4.6004   -1.2127   -3.1505 C   0  0  0  0  0  0  0  0  0  0  0  0
   -2.9847   -0.3019   -1.0083 C   0  0  0  0  0  0  0  0  0  0  0  0
   -2.1766    0.2784   -0.0159 C   0  0  0  0  0  0  0  0  0  0  0  0
   -0.8072   -0.0700    0.1247 N   0  0  0  0  0  0  0  0  0  0  0  0
   -0.0378   -0.8709   -0.6919 C   0  0  0  0  0  0  0  0  0  0  0  0
   -0.3687   -1.4161   -1.7353 O   0  0  0  0  0  0  0  0  0  0  0  0
    1.3699   -0.9971   -0.2538 C   0  0  0  0  0  0  0  0  0  0  0  0
    2.3336   -0.4930   -1.1276 C   0  0  0  0  0  0  0  0  0  0  0  0
    3.6620   -0.5421   -0.7438 C   0  0  0  0  0  0  0  0  0  0  0  0
    4.7609   -0.0153   -1.5784 C   0  0  0  0  0  0  0  0  0  0  0  0
    4.5953    1.1051   -2.4117 C   0  0  0  0  0  0  0  0  0  0  0  0
    5.6461    1.5906   -3.1969 C   0  0  0  0  0  0  0  0  0  0  0  0
    6.8882    0.9660   -3.1645 C   0  0  0  0  0  0  0  0  0  0  0  0
    7.0828   -0.1390   -2.3428 C   0  0  0  0  0  0  0  0  0  0  0  0
    6.0312   -0.6203   -1.5579 C   0  0  0  0  0  0  0  0  0  0  0  0
    4.0323   -1.0851    0.4430 N   0  0  0  0  0  0  0  0  0  0  0  0
    3.1034   -1.5921    1.2720 C   0  0  0  0  0  0  0  0  0  0  0  0
    3.5251   -2.1509    2.4716 C   0  0  0  0  0  0  0  0  0  0  0  0
    2.6285   -2.7146    3.3830 C   0  0  0  0  0  0  0  0  0  0  0  0
    1.2725   -2.7291    3.0921 C   0  0  0  0  0  0  0  0  0  0  0  0
    0.8223   -2.1716    1.8967 C   0  0  0  0  0  0  0  0  0  0  0  0
    1.7291   -1.5854    0.9762 C   0  0  0  0  0  0  0  0  0  0  0  0
   -0.9966    3.9450    3.2667 H   0  0  0  0  0  0  0  0  0  0  0  0
   -2.5320    4.1906    4.1253 H   0  0  0  0  0  0  0  0  0  0  0  0
   -1.6092    2.7066    4.4204 H   0  0  0  0  0  0  0  0  0  0  0  0
   -4.5630    2.3200    1.3732 H   0  0  0  0  0  0  0  0  0  0  0  0
   -8.0780    0.7785    0.0829 H   0  0  0  0  0  0  0  0  0  0  0  0
   -6.9291    0.7303    1.4343 H   0  0  0  0  0  0  0  0  0  0  0  0
   -6.8748   -0.5244    0.1496 H   0  0  0  0  0  0  0  0  0  0  0  0
   -4.1898   -2.1594   -2.7856 H   0  0  0  0  0  0  0  0  0  0  0  0
   -5.3939   -1.4503   -3.8657 H   0  0  0  0  0  0  0  0  0  0  0  0
   -3.8402   -0.6265   -3.6779 H   0  0  0  0  0  0  0  0  0  0  0  0
   -2.5635   -1.0451   -1.6732 H   0  0  0  0  0  0  0  0  0  0  0  0
   -0.3218    0.3819    0.9056 H   0  0  0  0  0  0  0  0  0  0  0  0
    2.0350   -0.0803   -2.0857 H   0  0  0  0  0  0  0  0  0  0  0  0
    3.6452    1.6325   -2.4472 H   0  0  0  0  0  0  0  0  0  0  0  0
    5.4935    2.4617   -3.8267 H   0  0  0  0  0  0  0  0  0  0  0  0
    7.7057    1.3435   -3.7722 H   0  0  0  0  0  0  0  0  0  0  0  0
    8.0517   -0.6285   -2.3073 H   0  0  0  0  0  0  0  0  0  0  0  0
    6.2054   -1.4859   -0.9219 H   0  0  0  0  0  0  0  0  0  0  0  0
    4.5879   -2.1507    2.7037 H   0  0  0  0  0  0  0  0  0  0  0  0
    2.9972   -3.1449    4.3109 H   0  0  0  0  0  0  0  0  0  0  0  0
    0.5668   -3.1753    3.7889 H   0  0  0  0  0  0  0  0  0  0  0  0
   -0.2438   -2.2103    1.6829 H   0  0  0  0  0  0  0  0  0  0  0  0
  1  2  1  0
  2  3  1  0
  3  4  2  0
  3  5  1  0
  5  6  2  0
  6  7  1  0
  7  8  1  0
  8  9  1  0
  7 10  2  0
 10 11  1  0
 11 12  1  0
 10 13  1  0
 13 14  2  0
 14 15  1  0
 15 16  1  0
 16 17  2  0
 16 18  1  0
 18 19  2  0
 19 20  1  0
 20 21  1  0
 21 22  2  0
 22 23  1  0
 23 24  2  0
 24 25  1  0
 25 26  2  0
 20 27  2  0
 27 28  1  0
 28 29  2  0
 29 30  1  0
 30 31  2  0
 31 32  1  0
 32 33  2  0
 14  5  1  0
 33 18  1  0
 26 21  1  0
 33 28  1  0
  1 34  1  0
  1 35  1  0
  1 36  1  0
  6 37  1  0
  9 38  1  0
  9 39  1  0
  9 40  1  0
 12 41  1  0
 12 42  1  0
 12 43  1  0
 13 44  1  0
 15 45  1  0
 19 46  1  0
 22 47  1  0
 23 48  1  0
 24 49  1  0
 25 50  1  0
 26 51  1  0
 29 52  1  0
 30 53  1  0
 31 54  1  0
 32 55  1  0
M  END
$$$$
