
     RDKit          3D

 45 47  0  0  0  0  0  0  0  0999 V2000
   -5.2438   -2.6913    0.1396 C   0  0  0  0  0  0  0  0  0  0  0  0
   -4.1984   -1.7258    0.1605 O   0  0  0  0  0  0  0  0  0  0  0  0
   -4.4579   -0.5394    0.8102 C   0  0  0  0  0  0  0  0  0  0  0  0
   -5.6297   -0.2537    1.5172 C   0  0  0  0  0  0  0  0  0  0  0  0
   -5.7889    0.9887    2.1348 C   0  0  0  0  0  0  0  0  0  0  0  0
   -4.7798    1.9455    2.0522 C   0  0  0  0  0  0  0  0  0  0  0  0
   -3.6010    1.6652    1.3569 C   0  0  0  0  0  0  0  0  0  0  0  0
   -3.4314    0.4282    0.7326 C   0  0  0  0  0  0  0  0  0  0  0  0
   -2.2749    0.0675    0.0061 N   0  0  0  0  0  0  0  0  0  0  0  0
   -1.1286    0.8059   -0.2114 C   0  0  0  0  0  0  0  0  0  0  0  0
   -0.9026    1.9343    0.2107 O   0  0  0  0  0  0  0  0  0  0  0  0
   -0.1084    0.0433   -1.0578 C   0  0  0  0  0  0  0  0  0  0  0  0
    0.4457   -1.1653   -0.2813 C   0  0  0  0  0  0  0  0  0  0  0  0
    1.9603   -1.1121   -0.1088 C   0  0  0  0  0  0  0  0  0  0  0  0
    2.5866   -0.9465   -1.4315 N   0  0  0  0  0  0  0  0  0  0  0  0
    4.2115   -1.4077   -1.5822 S   0  0  0  0  0  6  0  0  0  0  0  0
    4.6656   -1.1035   -2.9215 O   0  0  0  0  0  0  0  0  0  0  0  0
    4.3362   -2.7436   -1.0335 O   0  0  0  0  0  0  0  0  0  0  0  0
    5.1987   -0.4076   -0.4799 C   0  0  0  0  0  0  0  0  0  0  0  0
    5.9297   -0.7395    0.6477 C   0  0  0  0  0  0  0  0  0  0  0  0
    6.5719    0.3891    1.2334 C   0  0  0  0  0  0  0  0  0  0  0  0
    6.3147    1.5451    0.5309 C   0  0  0  0  0  0  0  0  0  0  0  0
    5.3022    1.2646   -0.8192 S   0  0  0  0  0  0  0  0  0  0  0  0
    2.1137    0.1921   -2.2484 C   0  0  0  0  0  0  0  0  0  0  0  0
    1.0078    0.9721   -1.5492 C   0  0  0  0  0  0  0  0  0  0  0  0
   -5.4517   -3.0669    1.1465 H   0  0  0  0  0  0  0  0  0  0  0  0
   -4.9038   -3.5363   -0.4659 H   0  0  0  0  0  0  0  0  0  0  0  0
   -6.1486   -2.2909   -0.3309 H   0  0  0  0  0  0  0  0  0  0  0  0
   -6.4371   -0.9729    1.6084 H   0  0  0  0  0  0  0  0  0  0  0  0
   -6.7031    1.2111    2.6800 H   0  0  0  0  0  0  0  0  0  0  0  0
   -4.9058    2.9136    2.5315 H   0  0  0  0  0  0  0  0  0  0  0  0
   -2.8368    2.4343    1.3177 H   0  0  0  0  0  0  0  0  0  0  0  0
   -2.3311   -0.8650   -0.3938 H   0  0  0  0  0  0  0  0  0  0  0  0
   -0.6467   -0.3279   -1.9411 H   0  0  0  0  0  0  0  0  0  0  0  0
    0.1869   -2.0775   -0.8351 H   0  0  0  0  0  0  0  0  0  0  0  0
   -0.0178   -1.2656    0.7071 H   0  0  0  0  0  0  0  0  0  0  0  0
    2.2507   -0.2917    0.5567 H   0  0  0  0  0  0  0  0  0  0  0  0
    2.2849   -2.0476    0.3585 H   0  0  0  0  0  0  0  0  0  0  0  0
    5.9962   -1.7548    1.0231 H   0  0  0  0  0  0  0  0  0  0  0  0
    7.1954    0.3535    2.1194 H   0  0  0  0  0  0  0  0  0  0  0  0
    6.6735    2.5434    0.7431 H   0  0  0  0  0  0  0  0  0  0  0  0
    2.9263    0.8809   -2.4926 H   0  0  0  0  0  0  0  0  0  0  0  0
    1.7361   -0.2111   -3.1958 H   0  0  0  0  0  0  0  0  0  0  0  0
    0.5951    1.7219   -2.2352 H   0  0  0  0  0  0  0  0  0  0  0  0
    1.4380    1.5342   -0.7097 H   0  0  0  0  0  0  0  0  0  0  0  0
  1  2  1  0
  2  3  1  0
  3  4  2  0
  4  5  1  0
  5  6  2  0
  6  7  1  0
  7  8  2  0
  8  9  1  0
  9 10  1  0
 10 11  2  0
 10 12  1  0
 12 13  1  0
 13 14  1  0
 14 15  1  0
 15 16  1  0
 16 17  2  0
 16 18  2  0
 16 19  1  0
 19 20  2  0
 20 21  1  0
 21 22  2  0
 22 23  1  0
 15 24  1  0
 24 25  1  0
  8  3  1  0
 25 12  1  0
 23 19  1  0
  1 26  1  0
  1 27  1  0
  1 28  1  0
  4 29  1  0
  5 30  1  0
  6 31  1  0
  7 32  1  0
  9 33  1  0
 12 34  1  0
 13 35  1  0
 13 36  1  0
 14 37  1  0
 14 38  1  0
 20 39  1  0
 21 40  1  0
 22 41  1  0
 24 42  1  0
 24 43  1  0
 25 44  1  0
 25 45  1  0
M  END
$$$$
