
     RDKit          3D

 39 40  0  0  0  0  0  0  0  0999 V2000
   -5.6783   -0.7086   -1.9567 C   0  0  0  0  0  0  0  0  0  0  0  0
   -5.0371   -0.8576   -0.5869 C   0  0  0  0  0  0  0  0  0  0  0  0
   -3.6809   -0.3039   -0.5569 N   0  0  0  0  0  0  0  0  0  0  0  0
   -3.5517    1.1075   -0.1783 C   0  0  0  0  0  0  0  0  0  0  0  0
   -3.6344    1.3190    1.3281 C   0  0  0  0  0  0  0  0  0  0  0  0
   -2.6336   -1.1447   -0.9312 C   0  0  0  0  0  0  0  0  0  0  0  0
   -2.8346   -2.3150   -1.2742 O   0  0  0  0  0  0  0  0  0  0  0  0
   -1.2075   -0.6208   -0.9192 C   0  0  0  0  0  0  0  0  0  0  0  0
   -0.4705   -0.8977    0.7193 S   0  0  0  0  0  0  0  0  0  0  0  0
    0.9675    0.0390    0.5316 C   0  0  0  0  0  0  0  0  0  0  0  0
    1.0290    1.3353    0.3540 N   0  0  0  0  0  0  0  0  0  0  0  0
    2.3608    1.6667    0.2597 N   0  0  0  0  0  0  0  0  0  0  0  0
    3.0927    0.5614    0.3550 C   0  0  0  0  0  0  0  0  0  0  0  0
    4.5575    0.5254    0.2987 C   0  0  0  0  0  0  0  0  0  0  0  0
    5.2744    1.6705    0.6651 C   0  0  0  0  0  0  0  0  0  0  0  0
    6.6575    1.6455    0.6029 C   0  0  0  0  0  0  0  0  0  0  0  0
    7.3681    0.5720    0.2021 N   0  0  0  0  0  0  0  0  0  0  0  0
    6.6640   -0.5195   -0.1583 C   0  0  0  0  0  0  0  0  0  0  0  0
    5.2798   -0.5883   -0.1314 C   0  0  0  0  0  0  0  0  0  0  0  0
    2.2288   -0.5038    0.5478 N   0  0  0  0  0  0  0  0  0  0  0  0
    2.5563   -1.8983    0.7383 N   0  0  0  0  0  0  0  0  0  0  0  0
   -6.6819   -1.1452   -1.9572 H   0  0  0  0  0  0  0  0  0  0  0  0
   -5.0881   -1.2138   -2.7279 H   0  0  0  0  0  0  0  0  0  0  0  0
   -5.7618    0.3460   -2.2390 H   0  0  0  0  0  0  0  0  0  0  0  0
   -5.6485   -0.3646    0.1782 H   0  0  0  0  0  0  0  0  0  0  0  0
   -5.0018   -1.9212   -0.3216 H   0  0  0  0  0  0  0  0  0  0  0  0
   -2.6107    1.5260   -0.5397 H   0  0  0  0  0  0  0  0  0  0  0  0
   -4.3493    1.6698   -0.6784 H   0  0  0  0  0  0  0  0  0  0  0  0
   -2.8800    0.7289    1.8553 H   0  0  0  0  0  0  0  0  0  0  0  0
   -4.6144    1.0317    1.7223 H   0  0  0  0  0  0  0  0  0  0  0  0
   -3.4709    2.3769    1.5649 H   0  0  0  0  0  0  0  0  0  0  0  0
   -0.6364   -1.2043   -1.6507 H   0  0  0  0  0  0  0  0  0  0  0  0
   -1.1425    0.4186   -1.2473 H   0  0  0  0  0  0  0  0  0  0  0  0
    4.7662    2.5725    0.9911 H   0  0  0  0  0  0  0  0  0  0  0  0
    7.2451    2.5162    0.8794 H   0  0  0  0  0  0  0  0  0  0  0  0
    7.2605   -1.3666   -0.4871 H   0  0  0  0  0  0  0  0  0  0  0  0
    4.7960   -1.5001   -0.4633 H   0  0  0  0  0  0  0  0  0  0  0  0
    1.7397   -2.4697    0.5143 H   0  0  0  0  0  0  0  0  0  0  0  0
    2.7709   -2.0851    1.7181 H   0  0  0  0  0  0  0  0  0  0  0  0
  1  2  1  0
  2  3  1  0
  3  4  1  0
  4  5  1  0
  3  6  1  0
  6  7  2  0
  6  8  1  0
  8  9  1  0
  9 10  1  0
 10 11  2  0
 11 12  1  0
 12 13  2  0
 13 14  1  0
 14 15  2  0
 15 16  1  0
 16 17  2  0
 17 18  1  0
 18 19  2  0
 13 20  1  0
 20 21  1  0
 20 10  1  0
 19 14  1  0
  1 22  1  0
  1 23  1  0
  1 24  1  0
  2 25  1  0
  2 26  1  0
  4 27  1  0
  4 28  1  0
  5 29  1  0
  5 30  1  0
  5 31  1  0
  8 32  1  0
  8 33  1  0
 15 34  1  0
 16 35  1  0
 18 36  1  0
 19 37  1  0
 21 38  1  0
 21 39  1  0
M  END
$$$$
