
     RDKit          3D

 49 52  0  0  0  0  0  0  0  0999 V2000
    8.0595    0.8223   -0.4432 C   0  0  0  0  0  0  0  0  0  0  0  0
    7.4030   -0.3409    0.1482 N   0  0  0  0  0  0  0  0  0  0  0  0
    8.2436   -1.1837    0.9956 C   0  0  0  0  0  0  0  0  0  0  0  0
    6.0247   -0.3037    0.3870 C   0  0  0  0  0  0  0  0  0  0  0  0
    5.2038    0.7283   -0.1001 C   0  0  0  0  0  0  0  0  0  0  0  0
    3.8185    0.7607    0.1278 C   0  0  0  0  0  0  0  0  0  0  0  0
    3.1931   -0.2615    0.8359 C   0  0  0  0  0  0  0  0  0  0  0  0
    1.7597   -0.2406    1.1416 C   0  0  0  0  0  0  0  0  0  0  0  0
    0.7410   -0.1580    0.2734 C   0  0  0  0  0  0  0  0  0  0  0  0
   -0.6363   -0.1461    0.6502 C   0  0  0  0  0  0  0  0  0  0  0  0
   -1.3259   -0.0685   -0.4863 C   0  0  0  0  0  0  0  0  0  0  0  0
   -2.7861   -0.0333   -0.6610 C   0  0  0  0  0  0  0  0  0  0  0  0
   -3.3555   -0.3268   -1.9067 C   0  0  0  0  0  0  0  0  0  0  0  0
   -4.7402   -0.2885   -2.0929 C   0  0  0  0  0  0  0  0  0  0  0  0
   -5.5942    0.0548   -1.0384 C   0  0  0  0  0  0  0  0  0  0  0  0
   -5.0450    0.3387    0.2221 C   0  0  0  0  0  0  0  0  0  0  0  0
   -3.6486    0.3063    0.3931 C   0  0  0  0  0  0  0  0  0  0  0  0
   -5.9162    0.7438    1.3869 C   0  0  0  0  0  0  0  0  0  0  0  0
   -7.3873    0.3799    1.1957 C   0  0  0  0  0  0  0  0  0  0  0  0
   -7.8637    0.8002   -0.1886 C   0  0  0  0  0  0  0  0  0  0  0  0
   -7.0853    0.0535   -1.2701 C   0  0  0  0  0  0  0  0  0  0  0  0
   -0.5352   -0.0316   -1.6522 O   0  0  0  0  0  0  0  0  0  0  0  0
    0.7739   -0.0867   -1.2177 C   0  0  0  0  0  0  0  0  0  0  0  0
    1.7458   -0.0751   -1.9500 O   0  0  0  0  0  0  0  0  0  0  0  0
    3.9800   -1.3010    1.3280 C   0  0  0  0  0  0  0  0  0  0  0  0
    5.3646   -1.3213    1.0977 C   0  0  0  0  0  0  0  0  0  0  0  0
    7.6365    1.0611   -1.4251 H   0  0  0  0  0  0  0  0  0  0  0  0
    7.9812    1.6950    0.2145 H   0  0  0  0  0  0  0  0  0  0  0  0
    9.1248    0.6312   -0.6151 H   0  0  0  0  0  0  0  0  0  0  0  0
    8.1339   -0.9143    2.0520 H   0  0  0  0  0  0  0  0  0  0  0  0
    8.0059   -2.2441    0.8597 H   0  0  0  0  0  0  0  0  0  0  0  0
    9.3036   -1.0779    0.7385 H   0  0  0  0  0  0  0  0  0  0  0  0
    5.6181    1.5480   -0.6787 H   0  0  0  0  0  0  0  0  0  0  0  0
    3.2441    1.5933   -0.2708 H   0  0  0  0  0  0  0  0  0  0  0  0
    1.5435   -0.3191    2.2058 H   0  0  0  0  0  0  0  0  0  0  0  0
   -1.0167   -0.2017    1.6561 H   0  0  0  0  0  0  0  0  0  0  0  0
   -2.7274   -0.5959   -2.7538 H   0  0  0  0  0  0  0  0  0  0  0  0
   -5.1482   -0.5289   -3.0726 H   0  0  0  0  0  0  0  0  0  0  0  0
   -3.2439    0.5634    1.3694 H   0  0  0  0  0  0  0  0  0  0  0  0
   -5.5535    0.2691    2.3065 H   0  0  0  0  0  0  0  0  0  0  0  0
   -5.8255    1.8297    1.5164 H   0  0  0  0  0  0  0  0  0  0  0  0
   -7.9907    0.8691    1.9684 H   0  0  0  0  0  0  0  0  0  0  0  0
   -7.5235   -0.7022    1.3180 H   0  0  0  0  0  0  0  0  0  0  0  0
   -7.7282    1.8824   -0.3106 H   0  0  0  0  0  0  0  0  0  0  0  0
   -8.9346    0.5961   -0.2988 H   0  0  0  0  0  0  0  0  0  0  0  0
   -7.4224   -0.9902   -1.3036 H   0  0  0  0  0  0  0  0  0  0  0  0
   -7.3124    0.5062   -2.2428 H   0  0  0  0  0  0  0  0  0  0  0  0
    3.5311   -2.1180    1.8877 H   0  0  0  0  0  0  0  0  0  0  0  0
    5.9123   -2.1736    1.4874 H   0  0  0  0  0  0  0  0  0  0  0  0
  1  2  1  0
  2  3  1  0
  2  4  1  0
  4  5  2  0
  5  6  1  0
  6  7  2  0
  7  8  1  0
  8  9  2  3
  9 10  1  0
 10 11  2  0
 11 12  1  0
 12 13  2  0
 13 14  1  0
 14 15  2  0
 15 16  1  0
 16 17  2  0
 16 18  1  0
 18 19  1  0
 19 20  1  0
 20 21  1  0
 11 22  1  0
 22 23  1  0
 23 24  2  0
  7 25  1  0
 25 26  2  0
 26  4  1  0
 23  9  1  0
 17 12  1  0
 21 15  1  0
  1 27  1  0
  1 28  1  0
  1 29  1  0
  3 30  1  0
  3 31  1  0
  3 32  1  0
  5 33  1  0
  6 34  1  0
  8 35  1  0
 10 36  1  0
 13 37  1  0
 14 38  1  0
 17 39  1  0
 18 40  1  0
 18 41  1  0
 19 42  1  0
 19 43  1  0
 20 44  1  0
 20 45  1  0
 21 46  1  0
 21 47  1  0
 25 48  1  0
 26 49  1  0
M  END
$$$$
