
     RDKit          3D

 45 47  0  0  0  0  0  0  0  0999 V2000
    1.6945   -0.1716   -1.9646 O   0  0  0  0  0  0  0  0  0  0  0  0
    1.6848   -0.2822   -0.7494 C   0  0  0  0  0  0  0  0  0  0  0  0
    2.7095   -0.7359    0.0414 N   0  0  0  0  0  0  0  0  0  0  0  0
    4.0266   -0.9069   -0.5216 C   0  0  0  0  0  0  0  0  0  0  0  0
    4.8333   -1.7312    0.4082 C   0  0  0  0  0  0  0  0  0  0  0  0
    5.4055   -2.9832    0.3137 C   0  0  0  0  0  0  0  0  0  0  0  0
    6.0555   -3.2202    1.5491 C   0  0  0  0  0  0  0  0  0  0  0  0
    5.8381   -2.1013    2.3178 C   0  0  0  0  0  0  0  0  0  0  0  0
    5.0953   -1.1927    1.6356 O   0  0  0  0  0  0  0  0  0  0  0  0
    0.4161    0.0864    0.0169 C   0  0  0  0  0  0  0  0  0  0  0  0
   -0.6210   -0.9850   -0.0064 C   0  0  0  0  0  0  0  0  0  0  0  0
   -1.7802   -0.8496    0.6560 C   0  0  0  0  0  0  0  0  0  0  0  0
   -2.8688   -1.8843    0.6584 C   0  0  0  0  0  0  0  0  0  0  0  0
   -4.1526   -1.3590    0.0630 C   0  0  0  0  0  0  0  0  0  0  0  0
   -4.3448   -1.3626   -1.3262 C   0  0  0  0  0  0  0  0  0  0  0  0
   -5.5240   -0.8605   -1.8791 C   0  0  0  0  0  0  0  0  0  0  0  0
   -6.5194   -0.3455   -1.0509 C   0  0  0  0  0  0  0  0  0  0  0  0
   -6.3359   -0.3292    0.3305 C   0  0  0  0  0  0  0  0  0  0  0  0
   -5.1574   -0.8306    0.8858 C   0  0  0  0  0  0  0  0  0  0  0  0
    0.2339    1.2291    0.6085 N   0  0  0  0  0  0  0  0  0  0  0  0
    1.2670    2.1317    0.5654 C   0  0  0  0  0  0  0  0  0  0  0  0
    2.3779    1.9027    1.0287 O   0  0  0  0  0  0  0  0  0  0  0  0
    0.8583    3.3764   -0.0526 C   0  0  0  0  0  0  0  0  0  0  0  0
   -0.3427    3.8043   -0.5948 C   0  0  0  0  0  0  0  0  0  0  0  0
   -0.1369    5.1258   -1.0607 C   0  0  0  0  0  0  0  0  0  0  0  0
    1.1736    5.4305   -0.7777 C   0  0  0  0  0  0  0  0  0  0  0  0
    2.0277    7.0826   -1.1759 Br  0  0  0  0  0  0  0  0  0  0  0  0
    1.7840    4.3810   -0.1688 O   0  0  0  0  0  0  0  0  0  0  0  0
    2.6872   -0.4477    1.0162 H   0  0  0  0  0  0  0  0  0  0  0  0
    4.4738    0.0838   -0.6545 H   0  0  0  0  0  0  0  0  0  0  0  0
    3.9473   -1.3818   -1.5052 H   0  0  0  0  0  0  0  0  0  0  0  0
    5.3582   -3.6419   -0.5423 H   0  0  0  0  0  0  0  0  0  0  0  0
    6.6143   -4.0971    1.8441 H   0  0  0  0  0  0  0  0  0  0  0  0
    6.1286   -1.8102    3.3177 H   0  0  0  0  0  0  0  0  0  0  0  0
   -0.3968   -1.8691   -0.5947 H   0  0  0  0  0  0  0  0  0  0  0  0
   -1.9773    0.0513    1.2351 H   0  0  0  0  0  0  0  0  0  0  0  0
   -3.0454   -2.2096    1.6913 H   0  0  0  0  0  0  0  0  0  0  0  0
   -2.5629   -2.7862    0.1126 H   0  0  0  0  0  0  0  0  0  0  0  0
   -3.5742   -1.7549   -1.9860 H   0  0  0  0  0  0  0  0  0  0  0  0
   -5.6647   -0.8691   -2.9568 H   0  0  0  0  0  0  0  0  0  0  0  0
   -7.4369    0.0458   -1.4822 H   0  0  0  0  0  0  0  0  0  0  0  0
   -7.1106    0.0762    0.9762 H   0  0  0  0  0  0  0  0  0  0  0  0
   -5.0278   -0.8054    1.9654 H   0  0  0  0  0  0  0  0  0  0  0  0
   -1.2545    3.2236   -0.6444 H   0  0  0  0  0  0  0  0  0  0  0  0
   -0.8560    5.7731   -1.5427 H   0  0  0  0  0  0  0  0  0  0  0  0
  1  2  2  0
  2  3  1  0
  3  4  1  0
  4  5  1  0
  5  6  2  0
  6  7  1  0
  7  8  2  0
  8  9  1  0
  2 10  1  0
 10 11  1  0
 11 12  2  3
 12 13  1  0
 13 14  1  0
 14 15  2  0
 15 16  1  0
 16 17  2  0
 17 18  1  0
 18 19  2  0
 10 20  2  3
 20 21  1  0
 21 22  2  0
 21 23  1  0
 23 24  2  0
 24 25  1  0
 25 26  2  0
 26 27  1  0
 26 28  1  0
  9  5  1  0
 19 14  1  0
 28 23  1  0
  3 29  1  0
  4 30  1  0
  4 31  1  0
  6 32  1  0
  7 33  1  0
  8 34  1  0
 11 35  1  0
 12 36  1  0
 13 37  1  0
 13 38  1  0
 15 39  1  0
 16 40  1  0
 17 41  1  0
 18 42  1  0
 19 43  1  0
 24 44  1  0
 25 45  1  0
M  END
$$$$
