
     RDKit          3D

 58 61  0  0  0  0  0  0  0  0999 V2000
    8.6812   -1.4525   -0.4457 C   0  0  0  0  0  0  0  0  0  0  0  0
    7.4666   -0.5999   -0.6683 C   0  0  0  0  0  0  0  0  0  0  0  0
    7.3250    0.6308   -0.0245 C   0  0  0  0  0  0  0  0  0  0  0  0
    6.1912    1.4211   -0.2392 C   0  0  0  0  0  0  0  0  0  0  0  0
    5.1839    0.9986   -1.1117 C   0  0  0  0  0  0  0  0  0  0  0  0
    3.9494    1.8343   -1.3337 C   0  0  0  0  0  0  0  0  0  0  0  0
    2.8639    1.3812   -0.4926 N   0  0  0  0  0  0  0  0  0  0  0  0
    1.9318    0.4729   -0.9457 C   0  0  0  0  0  0  0  0  0  0  0  0
    1.8778    0.0830   -2.1078 O   0  0  0  0  0  0  0  0  0  0  0  0
    0.9488    0.0214    0.1311 C   0  0  0  0  0  0  0  0  0  0  0  0
   -0.0145    1.1605    0.4771 C   0  0  0  0  0  0  0  0  0  0  0  0
   -1.0755    0.7323    1.4936 C   0  0  0  0  0  0  0  0  0  0  0  0
   -1.8474   -0.5130    1.0296 C   0  0  0  0  0  0  0  0  0  0  0  0
   -2.8744   -0.9941    2.0725 C   0  0  0  0  0  0  0  0  0  0  0  0
   -3.9252   -0.0086    2.3408 N   0  0  0  0  0  0  0  0  0  0  0  0
   -4.7612    0.5208    1.3620 C   0  0  0  0  0  0  0  0  0  0  0  0
   -4.7704    1.8911    1.2505 N   0  0  0  0  0  0  0  0  0  0  0  0
   -5.4985    2.6149    0.3444 C   0  0  0  0  0  0  0  0  0  0  0  0
   -5.3896    4.2902    0.4159 S   0  0  0  0  0  0  0  0  0  0  0  0
   -6.2597    1.9405   -0.5673 N   0  0  0  0  0  0  0  0  0  0  0  0
   -6.2990    0.6476   -0.4784 C   0  0  0  0  0  0  0  0  0  0  0  0
   -7.1184   -0.1115   -1.4677 C   0  0  0  0  0  0  0  0  0  0  0  0
   -7.2398   -1.4454   -1.3873 C   0  0  0  0  0  0  0  0  0  0  0  0
   -6.6064   -2.2060   -0.3387 C   0  0  0  0  0  0  0  0  0  0  0  0
   -5.8212   -1.6140    0.5735 C   0  0  0  0  0  0  0  0  0  0  0  0
   -5.5714   -0.1827    0.5406 C   0  0  0  0  0  0  0  0  0  0  0  0
   -0.8632   -1.6500    0.7136 C   0  0  0  0  0  0  0  0  0  0  0  0
    0.1759   -1.2220   -0.3196 C   0  0  0  0  0  0  0  0  0  0  0  0
    5.3292   -0.2331   -1.7598 C   0  0  0  0  0  0  0  0  0  0  0  0
    6.4609   -1.0232   -1.5403 C   0  0  0  0  0  0  0  0  0  0  0  0
    9.3476   -1.0032    0.2989 H   0  0  0  0  0  0  0  0  0  0  0  0
    8.3863   -2.4469   -0.0887 H   0  0  0  0  0  0  0  0  0  0  0  0
    9.2422   -1.5558   -1.3831 H   0  0  0  0  0  0  0  0  0  0  0  0
    8.1030    0.9939    0.6474 H   0  0  0  0  0  0  0  0  0  0  0  0
    6.1079    2.3726    0.2754 H   0  0  0  0  0  0  0  0  0  0  0  0
    4.1462    2.8810   -1.0722 H   0  0  0  0  0  0  0  0  0  0  0  0
    3.6561    1.8150   -2.3900 H   0  0  0  0  0  0  0  0  0  0  0  0
    2.9664    1.5165    0.5026 H   0  0  0  0  0  0  0  0  0  0  0  0
    1.5322   -0.2404    1.0226 H   0  0  0  0  0  0  0  0  0  0  0  0
   -0.5105    1.5151   -0.4345 H   0  0  0  0  0  0  0  0  0  0  0  0
    0.5376    2.0179    0.8766 H   0  0  0  0  0  0  0  0  0  0  0  0
   -1.7625    1.5722    1.6495 H   0  0  0  0  0  0  0  0  0  0  0  0
   -0.5915    0.5335    2.4601 H   0  0  0  0  0  0  0  0  0  0  0  0
   -2.3784   -0.2641    0.1006 H   0  0  0  0  0  0  0  0  0  0  0  0
   -3.3150   -1.9392    1.7480 H   0  0  0  0  0  0  0  0  0  0  0  0
   -2.3671   -1.2082    3.0184 H   0  0  0  0  0  0  0  0  0  0  0  0
   -3.5683    0.7318    2.9370 H   0  0  0  0  0  0  0  0  0  0  0  0
   -4.2079    2.4452    1.8803 H   0  0  0  0  0  0  0  0  0  0  0  0
   -7.6105    0.4658   -2.2423 H   0  0  0  0  0  0  0  0  0  0  0  0
   -7.8450   -1.9877   -2.1104 H   0  0  0  0  0  0  0  0  0  0  0  0
   -6.8032   -3.2683   -0.2995 H   0  0  0  0  0  0  0  0  0  0  0  0
   -5.3982   -2.1981    1.3779 H   0  0  0  0  0  0  0  0  0  0  0  0
   -1.4086   -2.5226    0.3336 H   0  0  0  0  0  0  0  0  0  0  0  0
   -0.3534   -1.9669    1.6321 H   0  0  0  0  0  0  0  0  0  0  0  0
    0.8746   -2.0485   -0.5003 H   0  0  0  0  0  0  0  0  0  0  0  0
   -0.3287   -1.0296   -1.2755 H   0  0  0  0  0  0  0  0  0  0  0  0
    4.5499   -0.5906   -2.4361 H   0  0  0  0  0  0  0  0  0  0  0  0
    6.5489   -1.9756   -2.0575 H   0  0  0  0  0  0  0  0  0  0  0  0
  1  2  1  0
  2  3  2  0
  3  4  1  0
  4  5  2  0
  5  6  1  0
  6  7  1  0
  7  8  1  0
  8  9  2  0
  8 10  1  0
 10 11  1  0
 11 12  1  0
 12 13  1  0
 13 14  1  0
 14 15  1  0
 15 16  1  0
 16 17  1  0
 17 18  1  0
 18 19  2  0
 18 20  1  0
 20 21  2  0
 21 22  1  0
 22 23  2  0
 23 24  1  0
 24 25  2  0
 25 26  1  0
 13 27  1  0
 27 28  1  0
  5 29  1  0
 29 30  2  0
 30  2  1  0
 28 10  1  0
 26 16  2  0
 26 21  1  0
  1 31  1  0
  1 32  1  0
  1 33  1  0
  3 34  1  0
  4 35  1  0
  6 36  1  0
  6 37  1  0
  7 38  1  0
 10 39  1  0
 11 40  1  0
 11 41  1  0
 12 42  1  0
 12 43  1  0
 13 44  1  0
 14 45  1  0
 14 46  1  0
 15 47  1  0
 17 48  1  0
 22 49  1  0
 23 50  1  0
 24 51  1  0
 25 52  1  0
 27 53  1  0
 27 54  1  0
 28 55  1  0
 28 56  1  0
 29 57  1  0
 30 58  1  0
M  END
$$$$
