
     RDKit          3D

 52 55  0  0  0  0  0  0  0  0999 V2000
    4.9873    2.4046   -2.6028 N   0  0  0  0  0  0  0  0  0  0  0  0
    3.3915    2.4382   -2.0877 S   0  0  0  0  0  6  0  0  0  0  0  0
    3.3164    3.4724   -1.0833 O   0  0  0  0  0  0  0  0  0  0  0  0
    2.5823    2.4659   -3.2841 O   0  0  0  0  0  0  0  0  0  0  0  0
    3.2176    0.8580   -1.3142 C   0  0  0  0  0  0  0  0  0  0  0  0
    2.8372   -0.2449   -2.0800 C   0  0  0  0  0  0  0  0  0  0  0  0
    2.6686   -1.4863   -1.4631 C   0  0  0  0  0  0  0  0  0  0  0  0
    2.8592   -1.6313   -0.0795 C   0  0  0  0  0  0  0  0  0  0  0  0
    2.6663   -2.9871    0.5679 C   0  0  0  0  0  0  0  0  0  0  0  0
    1.7854   -2.9922    1.8256 C   0  0  0  0  0  0  0  0  0  0  0  0
    0.4966   -2.3699    1.5867 N   0  0  0  0  0  0  0  0  0  0  0  0
    0.0637   -1.2856    2.3182 C   0  0  0  0  0  0  0  0  0  0  0  0
    0.6162   -0.8497    3.3182 O   0  0  0  0  0  0  0  0  0  0  0  0
   -1.1482   -0.6319    1.7813 C   0  0  0  0  0  0  0  0  0  0  0  0
   -1.0662   -0.1182    0.4860 C   0  0  0  0  0  0  0  0  0  0  0  0
   -2.1842    0.4905   -0.0564 C   0  0  0  0  0  0  0  0  0  0  0  0
   -2.2038    1.0581   -1.4211 C   0  0  0  0  0  0  0  0  0  0  0  0
   -1.0583    1.6225   -2.0142 C   0  0  0  0  0  0  0  0  0  0  0  0
   -1.0888    2.1378   -3.3146 C   0  0  0  0  0  0  0  0  0  0  0  0
   -2.2691    2.1054   -4.0502 C   0  0  0  0  0  0  0  0  0  0  0  0
   -3.4200    1.5661   -3.4846 C   0  0  0  0  0  0  0  0  0  0  0  0
   -3.3860    1.0521   -2.1844 C   0  0  0  0  0  0  0  0  0  0  0  0
   -3.3447    0.5759    0.6401 N   0  0  0  0  0  0  0  0  0  0  0  0
   -3.4133    0.1001    1.8968 C   0  0  0  0  0  0  0  0  0  0  0  0
   -4.6125    0.2245    2.5862 C   0  0  0  0  0  0  0  0  0  0  0  0
   -4.7699   -0.2497    3.8911 C   0  0  0  0  0  0  0  0  0  0  0  0
   -3.7045   -0.8658    4.5312 C   0  0  0  0  0  0  0  0  0  0  0  0
   -2.4905   -1.0039    3.8621 C   0  0  0  0  0  0  0  0  0  0  0  0
   -2.3288   -0.5227    2.5389 C   0  0  0  0  0  0  0  0  0  0  0  0
    3.2428   -0.5108    0.6732 C   0  0  0  0  0  0  0  0  0  0  0  0
    3.4119    0.7339    0.0624 C   0  0  0  0  0  0  0  0  0  0  0  0
    5.5220    3.1300   -2.1231 H   0  0  0  0  0  0  0  0  0  0  0  0
    5.0266    2.4672   -3.6198 H   0  0  0  0  0  0  0  0  0  0  0  0
    2.6726   -0.1487   -3.1509 H   0  0  0  0  0  0  0  0  0  0  0  0
    2.3803   -2.3400   -2.0724 H   0  0  0  0  0  0  0  0  0  0  0  0
    2.2142   -3.6707   -0.1626 H   0  0  0  0  0  0  0  0  0  0  0  0
    3.6526   -3.4007    0.8112 H   0  0  0  0  0  0  0  0  0  0  0  0
    1.5902   -4.0264    2.1296 H   0  0  0  0  0  0  0  0  0  0  0  0
    2.2976   -2.4979    2.6575 H   0  0  0  0  0  0  0  0  0  0  0  0
   -0.0548   -2.6887    0.8005 H   0  0  0  0  0  0  0  0  0  0  0  0
   -0.1415   -0.1989   -0.0755 H   0  0  0  0  0  0  0  0  0  0  0  0
   -0.1233    1.6917   -1.4636 H   0  0  0  0  0  0  0  0  0  0  0  0
   -0.1892    2.5706   -3.7468 H   0  0  0  0  0  0  0  0  0  0  0  0
   -2.2929    2.5089   -5.0586 H   0  0  0  0  0  0  0  0  0  0  0  0
   -4.3478    1.5467   -4.0497 H   0  0  0  0  0  0  0  0  0  0  0  0
   -4.2998    0.6384   -1.7599 H   0  0  0  0  0  0  0  0  0  0  0  0
   -5.4520    0.7089    2.0920 H   0  0  0  0  0  0  0  0  0  0  0  0
   -5.7227   -0.1313    4.4008 H   0  0  0  0  0  0  0  0  0  0  0  0
   -3.8131   -1.2350    5.5476 H   0  0  0  0  0  0  0  0  0  0  0  0
   -1.6628   -1.4828    4.3833 H   0  0  0  0  0  0  0  0  0  0  0  0
    3.3982   -0.5913    1.7479 H   0  0  0  0  0  0  0  0  0  0  0  0
    3.6917    1.5938    0.6671 H   0  0  0  0  0  0  0  0  0  0  0  0
  1  2  1  0
  2  3  2  0
  2  4  2  0
  2  5  1  0
  5  6  2  0
  6  7  1  0
  7  8  2  0
  8  9  1  0
  9 10  1  0
 10 11  1  0
 11 12  1  0
 12 13  2  0
 12 14  1  0
 14 15  2  0
 15 16  1  0
 16 17  1  0
 17 18  2  0
 18 19  1  0
 19 20  2  0
 20 21  1  0
 21 22  2  0
 16 23  2  0
 23 24  1  0
 24 25  2  0
 25 26  1  0
 26 27  2  0
 27 28  1  0
 28 29  2  0
  8 30  1  0
 30 31  2  0
 31  5  1  0
 29 14  1  0
 22 17  1  0
 29 24  1  0
  1 32  1  0
  1 33  1  0
  6 34  1  0
  7 35  1  0
  9 36  1  0
  9 37  1  0
 10 38  1  0
 10 39  1  0
 11 40  1  0
 15 41  1  0
 18 42  1  0
 19 43  1  0
 20 44  1  0
 21 45  1  0
 22 46  1  0
 25 47  1  0
 26 48  1  0
 27 49  1  0
 28 50  1  0
 30 51  1  0
 31 52  1  0
M  END
$$$$
