
     RDKit          3D

 53 56  0  0  0  0  0  0  0  0999 V2000
   -9.1782    1.4815   -0.1484 C   0  0  0  0  0  0  0  0  0  0  0  0
   -8.1310    0.6197    0.2687 O   0  0  0  0  0  0  0  0  0  0  0  0
   -7.5548   -0.0877   -0.8275 C   0  0  0  0  0  0  0  0  0  0  0  0
   -6.3136   -0.8079   -0.3206 C   0  0  0  0  0  0  0  0  0  0  0  0
   -5.5935   -1.6311   -1.3833 C   0  0  0  0  0  0  0  0  0  0  0  0
   -4.1938   -1.7925   -0.8001 C   0  0  0  0  0  0  0  0  0  0  0  0
   -3.9841   -0.5792   -0.0289 N   0  0  0  0  0  0  0  0  0  0  0  0
   -2.7849   -0.0434    0.4223 C   0  0  0  0  0  0  0  0  0  0  0  0
   -2.7495    1.0973    0.8846 O   0  0  0  0  0  0  0  0  0  0  0  0
   -1.5454   -0.8323    0.3376 C   0  0  0  0  0  0  0  0  0  0  0  0
   -0.2336   -0.3131    0.5166 C   0  0  0  0  0  0  0  0  0  0  0  0
    0.6003   -1.3965    0.3844 C   0  0  0  0  0  0  0  0  0  0  0  0
    2.0659   -1.5970    0.4593 C   0  0  0  0  0  0  0  0  0  0  0  0
    2.6659   -0.3401    0.1570 O   0  0  0  0  0  0  0  0  0  0  0  0
    4.0353   -0.2382    0.2233 C   0  0  0  0  0  0  0  0  0  0  0  0
    4.8801   -1.2784    0.6190 C   0  0  0  0  0  0  0  0  0  0  0  0
    6.2606   -1.0843    0.6779 C   0  0  0  0  0  0  0  0  0  0  0  0
    6.8196    0.1501    0.3413 C   0  0  0  0  0  0  0  0  0  0  0  0
    8.1677    0.4178    0.3844 O   0  0  0  0  0  0  0  0  0  0  0  0
    9.0413   -0.6208    0.8156 C   0  0  0  0  0  0  0  0  0  0  0  0
    5.9832    1.2171   -0.0696 C   0  0  0  0  0  0  0  0  0  0  0  0
    6.5014    2.4841   -0.4242 C   0  0  0  0  0  0  0  0  0  0  0  0
    5.6736    3.5317   -0.8278 C   0  0  0  0  0  0  0  0  0  0  0  0
    4.3024    3.3378   -0.8901 C   0  0  0  0  0  0  0  0  0  0  0  0
    3.7642    2.0983   -0.5417 C   0  0  0  0  0  0  0  0  0  0  0  0
    4.5792    1.0206   -0.1283 C   0  0  0  0  0  0  0  0  0  0  0  0
   -0.1521   -2.5062    0.1541 O   0  0  0  0  0  0  0  0  0  0  0  0
   -1.4889   -2.1587    0.1234 N   0  0  0  0  0  0  0  0  0  0  0  0
   -5.2241    0.1575    0.1406 C   0  0  0  0  0  0  0  0  0  0  0  0
   -9.6076    1.9552    0.7364 H   0  0  0  0  0  0  0  0  0  0  0  0
   -8.7943    2.2609   -0.8050 H   0  0  0  0  0  0  0  0  0  0  0  0
   -9.9587    0.9147   -0.6650 H   0  0  0  0  0  0  0  0  0  0  0  0
   -7.2931    0.6142   -1.6285 H   0  0  0  0  0  0  0  0  0  0  0  0
   -8.2849   -0.8099   -1.2158 H   0  0  0  0  0  0  0  0  0  0  0  0
   -6.5803   -1.4573    0.5220 H   0  0  0  0  0  0  0  0  0  0  0  0
   -5.5419   -1.0777   -2.3268 H   0  0  0  0  0  0  0  0  0  0  0  0
   -6.0743   -2.5932   -1.5777 H   0  0  0  0  0  0  0  0  0  0  0  0
   -3.4395   -1.9021   -1.5817 H   0  0  0  0  0  0  0  0  0  0  0  0
   -4.1512   -2.6444   -0.1164 H   0  0  0  0  0  0  0  0  0  0  0  0
    0.0477    0.7109    0.7189 H   0  0  0  0  0  0  0  0  0  0  0  0
    2.3255   -1.9210    1.4737 H   0  0  0  0  0  0  0  0  0  0  0  0
    2.3813   -2.3495   -0.2749 H   0  0  0  0  0  0  0  0  0  0  0  0
    4.5005   -2.2550    0.8965 H   0  0  0  0  0  0  0  0  0  0  0  0
    6.8721   -1.9191    1.0039 H   0  0  0  0  0  0  0  0  0  0  0  0
    8.8128   -0.9344    1.8388 H   0  0  0  0  0  0  0  0  0  0  0  0
    9.0140   -1.4683    0.1216 H   0  0  0  0  0  0  0  0  0  0  0  0
   10.0632   -0.2243    0.8142 H   0  0  0  0  0  0  0  0  0  0  0  0
    7.5749    2.6620   -0.3844 H   0  0  0  0  0  0  0  0  0  0  0  0
    6.1040    4.4930   -1.0909 H   0  0  0  0  0  0  0  0  0  0  0  0
    3.6490    4.1443   -1.2085 H   0  0  0  0  0  0  0  0  0  0  0  0
    2.6834    1.9752   -0.6037 H   0  0  0  0  0  0  0  0  0  0  0  0
   -5.3463    0.4663    1.1826 H   0  0  0  0  0  0  0  0  0  0  0  0
   -5.1694    1.0534   -0.4885 H   0  0  0  0  0  0  0  0  0  0  0  0
  1  2  1  0
  2  3  1  0
  3  4  1  0
  4  5  1  0
  5  6  1  0
  6  7  1  0
  7  8  1  0
  8  9  2  0
  8 10  1  0
 10 11  1  0
 11 12  2  0
 12 13  1  0
 13 14  1  0
 14 15  1  0
 15 16  2  0
 16 17  1  0
 17 18  2  0
 18 19  1  0
 19 20  1  0
 18 21  1  0
 21 22  2  0
 22 23  1  0
 23 24  2  0
 24 25  1  0
 25 26  2  0
 12 27  1  0
 27 28  1  0
  7 29  1  0
 29  4  1  0
 28 10  2  0
 26 15  1  0
 26 21  1  0
  1 30  1  0
  1 31  1  0
  1 32  1  0
  3 33  1  0
  3 34  1  0
  4 35  1  0
  5 36  1  0
  5 37  1  0
  6 38  1  0
  6 39  1  0
 11 40  1  0
 13 41  1  0
 13 42  1  0
 16 43  1  0
 17 44  1  0
 20 45  1  0
 20 46  1  0
 20 47  1  0
 22 48  1  0
 23 49  1  0
 24 50  1  0
 25 51  1  0
 29 52  1  0
 29 53  1  0
M  END
$$$$
