
     RDKit          3D

 43 45  0  0  0  0  0  0  0  0999 V2000
   -5.4796    1.6014   -1.1436 C   0  0  0  0  0  0  0  0  0  0  0  0
   -4.1183    1.5695   -1.8210 C   0  0  0  0  0  0  0  0  0  0  0  0
   -3.2253    0.4235   -1.3420 C   0  0  0  0  0  0  0  0  0  0  0  0
   -2.7951    0.5642    0.1196 C   0  0  0  0  0  0  0  0  0  0  0  0
   -1.9157   -0.5240    0.5517 N   0  0  0  0  0  0  0  0  0  0  0  0
   -2.3565   -1.7708    1.0208 C   0  0  0  0  0  0  0  0  0  0  0  0
   -3.8670   -2.2448    1.5014 S   0  0  0  0  0  0  0  0  0  0  0  0
   -1.2682   -2.6296    1.0454 N   0  0  0  0  0  0  0  0  0  0  0  0
   -0.0469   -1.9250    0.7652 C   0  0  0  0  0  0  0  0  0  0  0  0
   -0.5289   -0.6429    0.0768 C   0  0  0  0  0  0  0  0  0  0  0  0
    0.3488    0.5812    0.3704 C   0  0  0  0  0  0  0  0  0  0  0  0
    1.7705    0.4243   -0.1383 C   0  0  0  0  0  0  0  0  0  0  0  0
    1.9671    0.5477   -1.5277 C   0  0  0  0  0  0  0  0  0  0  0  0
    3.2287    0.3933   -2.0884 C   0  0  0  0  0  0  0  0  0  0  0  0
    4.3172    0.1119   -1.2705 C   0  0  0  0  0  0  0  0  0  0  0  0
    4.1627   -0.0148    0.1170 C   0  0  0  0  0  0  0  0  0  0  0  0
    5.2827   -0.2987    0.9161 C   0  0  0  0  0  0  0  0  0  0  0  0
    5.1659   -0.4297    2.2976 C   0  0  0  0  0  0  0  0  0  0  0  0
    3.9251   -0.2761    2.8980 C   0  0  0  0  0  0  0  0  0  0  0  0
    2.8013    0.0068    2.1164 C   0  0  0  0  0  0  0  0  0  0  0  0
    2.8818    0.1429    0.7094 C   0  0  0  0  0  0  0  0  0  0  0  0
   -5.9951    0.6419   -1.2515 H   0  0  0  0  0  0  0  0  0  0  0  0
   -6.1065    2.3755   -1.5977 H   0  0  0  0  0  0  0  0  0  0  0  0
   -5.3930    1.8303   -0.0776 H   0  0  0  0  0  0  0  0  0  0  0  0
   -4.2709    1.4615   -2.9015 H   0  0  0  0  0  0  0  0  0  0  0  0
   -3.6104    2.5286   -1.6672 H   0  0  0  0  0  0  0  0  0  0  0  0
   -2.3341    0.3989   -1.9806 H   0  0  0  0  0  0  0  0  0  0  0  0
   -3.7384   -0.5336   -1.4944 H   0  0  0  0  0  0  0  0  0  0  0  0
   -2.2740    1.5129    0.2806 H   0  0  0  0  0  0  0  0  0  0  0  0
   -3.6729    0.5741    0.7719 H   0  0  0  0  0  0  0  0  0  0  0  0
   -1.3323   -3.5335    1.4975 H   0  0  0  0  0  0  0  0  0  0  0  0
    0.4373   -1.7351    1.7273 H   0  0  0  0  0  0  0  0  0  0  0  0
    0.6048   -2.5354    0.1349 H   0  0  0  0  0  0  0  0  0  0  0  0
   -0.5848   -0.8278   -1.0040 H   0  0  0  0  0  0  0  0  0  0  0  0
   -0.0759    1.4663   -0.1219 H   0  0  0  0  0  0  0  0  0  0  0  0
    0.3156    0.8293    1.4354 H   0  0  0  0  0  0  0  0  0  0  0  0
    1.1276    0.7691   -2.1847 H   0  0  0  0  0  0  0  0  0  0  0  0
    3.3657    0.4924   -3.1620 H   0  0  0  0  0  0  0  0  0  0  0  0
    5.2972   -0.0059   -1.7287 H   0  0  0  0  0  0  0  0  0  0  0  0
    6.2648   -0.4199    0.4635 H   0  0  0  0  0  0  0  0  0  0  0  0
    6.0428   -0.6482    2.9009 H   0  0  0  0  0  0  0  0  0  0  0  0
    3.8259   -0.3728    3.9762 H   0  0  0  0  0  0  0  0  0  0  0  0
    1.8566    0.1213    2.6399 H   0  0  0  0  0  0  0  0  0  0  0  0
  1  2  1  0
  2  3  1  0
  3  4  1  0
  4  5  1  0
  5  6  1  0
  6  7  2  0
  6  8  1  0
  8  9  1  0
  9 10  1  0
 10 11  1  0
 11 12  1  0
 12 13  2  0
 13 14  1  0
 14 15  2  0
 15 16  1  0
 16 17  2  0
 17 18  1  0
 18 19  2  0
 19 20  1  0
 20 21  2  0
 10  5  1  0
 21 12  1  0
 21 16  1  0
  1 22  1  0
  1 23  1  0
  1 24  1  0
  2 25  1  0
  2 26  1  0
  3 27  1  0
  3 28  1  0
  4 29  1  0
  4 30  1  0
  8 31  1  0
  9 32  1  0
  9 33  1  0
 10 34  1  0
 11 35  1  0
 11 36  1  0
 13 37  1  0
 14 38  1  0
 15 39  1  0
 17 40  1  0
 18 41  1  0
 19 42  1  0
 20 43  1  0
M  END
$$$$
