
     RDKit          3D

 47 49  0  0  0  0  0  0  0  0999 V2000
    4.8679    1.6642    2.5976 C   0  0  0  0  0  0  0  0  0  0  0  0
    4.1371    1.0935    1.5188 O   0  0  0  0  0  0  0  0  0  0  0  0
    4.8709    0.5572    0.4836 C   0  0  0  0  0  0  0  0  0  0  0  0
    6.2678    0.5232    0.4275 C   0  0  0  0  0  0  0  0  0  0  0  0
    6.9111   -0.0455   -0.6734 C   0  0  0  0  0  0  0  0  0  0  0  0
    6.1644   -0.5784   -1.7207 C   0  0  0  0  0  0  0  0  0  0  0  0
    4.7692   -0.5493   -1.6741 C   0  0  0  0  0  0  0  0  0  0  0  0
    4.1131    0.0104   -0.5760 C   0  0  0  0  0  0  0  0  0  0  0  0
    2.7067    0.0856   -0.4581 N   0  0  0  0  0  0  0  0  0  0  0  0
    1.7459   -0.4755   -1.2650 C   0  0  0  0  0  0  0  0  0  0  0  0
    1.9804   -1.2275   -2.2078 O   0  0  0  0  0  0  0  0  0  0  0  0
    0.4351   -0.1307   -0.9219 N   0  0  0  0  0  0  0  0  0  0  0  0
    0.0818    0.9239    0.0283 C   0  0  0  0  0  0  0  0  0  0  0  0
   -1.3788    1.3463   -0.0706 C   0  0  0  0  0  0  0  0  0  0  0  0
   -2.3182    0.1361    0.0571 C   0  0  0  0  0  0  0  0  0  0  0  0
   -3.7493    0.5235   -0.3158 C   0  0  0  0  0  0  0  0  0  0  0  0
   -3.9869    1.4820   -1.0498 O   0  0  0  0  0  0  0  0  0  0  0  0
   -4.9014   -0.2810    0.2085 C   0  0  0  0  0  0  0  0  0  0  0  0
   -4.7342   -1.4370    0.9846 C   0  0  0  0  0  0  0  0  0  0  0  0
   -5.8514   -2.1431    1.4433 C   0  0  0  0  0  0  0  0  0  0  0  0
   -7.1293   -1.6967    1.1277 C   0  0  0  0  0  0  0  0  0  0  0  0
   -8.1937   -2.3774    1.5705 F   0  0  0  0  0  0  0  0  0  0  0  0
   -7.3155   -0.5558    0.3591 C   0  0  0  0  0  0  0  0  0  0  0  0
   -6.2025    0.1516   -0.1010 C   0  0  0  0  0  0  0  0  0  0  0  0
   -1.8441   -1.0562   -0.7920 C   0  0  0  0  0  0  0  0  0  0  0  0
   -0.6584   -0.7184   -1.6914 C   0  0  0  0  0  0  0  0  0  0  0  0
    5.4763    2.5094    2.2593 H   0  0  0  0  0  0  0  0  0  0  0  0
    5.4797    0.9097    3.1028 H   0  0  0  0  0  0  0  0  0  0  0  0
    4.1447    2.0460    3.3247 H   0  0  0  0  0  0  0  0  0  0  0  0
    6.8862    0.9288    1.2206 H   0  0  0  0  0  0  0  0  0  0  0  0
    7.9972   -0.0711   -0.7157 H   0  0  0  0  0  0  0  0  0  0  0  0
    6.6646   -1.0180   -2.5802 H   0  0  0  0  0  0  0  0  0  0  0  0
    4.2206   -0.9655   -2.5131 H   0  0  0  0  0  0  0  0  0  0  0  0
    2.4081    0.5035    0.4102 H   0  0  0  0  0  0  0  0  0  0  0  0
    0.7276    1.7922   -0.1447 H   0  0  0  0  0  0  0  0  0  0  0  0
    0.2940    0.5414    1.0337 H   0  0  0  0  0  0  0  0  0  0  0  0
   -1.6092    2.0820    0.7094 H   0  0  0  0  0  0  0  0  0  0  0  0
   -1.5344    1.8587   -1.0290 H   0  0  0  0  0  0  0  0  0  0  0  0
   -2.3122   -0.1487    1.1166 H   0  0  0  0  0  0  0  0  0  0  0  0
   -3.7524   -1.8190    1.2453 H   0  0  0  0  0  0  0  0  0  0  0  0
   -5.7327   -3.0404    2.0436 H   0  0  0  0  0  0  0  0  0  0  0  0
   -8.3210   -0.2230    0.1210 H   0  0  0  0  0  0  0  0  0  0  0  0
   -6.3562    1.0451   -0.7047 H   0  0  0  0  0  0  0  0  0  0  0  0
   -2.6539   -1.4646   -1.4079 H   0  0  0  0  0  0  0  0  0  0  0  0
   -1.5394   -1.8613   -0.1102 H   0  0  0  0  0  0  0  0  0  0  0  0
   -0.3285   -1.6281   -2.2042 H   0  0  0  0  0  0  0  0  0  0  0  0
   -0.9465    0.0015   -2.4667 H   0  0  0  0  0  0  0  0  0  0  0  0
  1  2  1  0
  2  3  1  0
  3  4  2  0
  4  5  1  0
  5  6  2  0
  6  7  1  0
  7  8  2  0
  8  9  1  0
  9 10  1  0
 10 11  2  0
 10 12  1  0
 12 13  1  0
 13 14  1  0
 14 15  1  0
 15 16  1  0
 16 17  2  0
 16 18  1  0
 18 19  2  0
 19 20  1  0
 20 21  2  0
 21 22  1  0
 21 23  1  0
 23 24  2  0
 15 25  1  0
 25 26  1  0
  8  3  1  0
 26 12  1  0
 24 18  1  0
  1 27  1  0
  1 28  1  0
  1 29  1  0
  4 30  1  0
  5 31  1  0
  6 32  1  0
  7 33  1  0
  9 34  1  0
 13 35  1  0
 13 36  1  0
 14 37  1  0
 14 38  1  0
 15 39  1  0
 19 40  1  0
 20 41  1  0
 23 42  1  0
 24 43  1  0
 25 44  1  0
 25 45  1  0
 26 46  1  0
 26 47  1  0
M  END
$$$$
