
     RDKit          3D

 55 57  0  0  0  0  0  0  0  0999 V2000
   -7.3711   -1.0127    1.6875 C   0  0  0  0  0  0  0  0  0  0  0  0
   -6.5911   -0.3919    0.5662 C   0  0  0  0  0  0  0  0  0  0  0  0
   -7.2029   -0.1348   -0.6636 C   0  0  0  0  0  0  0  0  0  0  0  0
   -6.4744    0.4238   -1.7166 C   0  0  0  0  0  0  0  0  0  0  0  0
   -5.1109    0.7205   -1.5722 C   0  0  0  0  0  0  0  0  0  0  0  0
   -4.3656    1.3201   -2.7328 C   0  0  0  0  0  0  0  0  0  0  0  0
   -4.4920    0.4529   -0.3373 C   0  0  0  0  0  0  0  0  0  0  0  0
   -3.0520    0.7587   -0.1221 C   0  0  0  0  0  0  0  0  0  0  0  0
   -2.5919    1.8409   -0.4790 O   0  0  0  0  0  0  0  0  0  0  0  0
   -2.2060   -0.3182    0.5517 C   0  0  0  0  0  0  0  0  0  0  0  0
   -0.8111   -0.1571    0.2837 O   0  0  0  0  0  0  0  0  0  0  0  0
   -0.4561   -0.4738   -0.9866 C   0  0  0  0  0  0  0  0  0  0  0  0
   -1.1873   -0.9753   -1.8260 O   0  0  0  0  0  0  0  0  0  0  0  0
    0.9803   -0.1666   -1.2221 C   0  0  0  0  0  0  0  0  0  0  0  0
    1.5546   -0.5797   -2.4257 C   0  0  0  0  0  0  0  0  0  0  0  0
    2.8972   -0.3060   -2.6966 C   0  0  0  0  0  0  0  0  0  0  0  0
    3.7080    0.3708   -1.7668 C   0  0  0  0  0  0  0  0  0  0  0  0
    5.1268    0.6655   -2.1698 C   0  0  0  0  0  0  0  0  0  0  0  0
    3.1300    0.7667   -0.5432 C   0  0  0  0  0  0  0  0  0  0  0  0
    4.0310    1.6523    0.7349 S   0  0  0  0  0  6  0  0  0  0  0  0
    5.2323    2.2167    0.1610 O   0  0  0  0  0  0  0  0  0  0  0  0
    3.0778    2.4983    1.4221 O   0  0  0  0  0  0  0  0  0  0  0  0
    4.4975    0.4297    1.8057 N   0  0  0  0  0  0  0  0  0  0  0  0
    3.4771   -0.1800    2.7009 C   0  0  0  0  0  0  0  0  0  0  0  0
    3.3828   -1.6913    2.4677 C   0  0  0  0  0  0  0  0  0  0  0  0
    4.6186   -2.3855    2.6884 O   0  0  0  0  0  0  0  0  0  0  0  0
    5.7812   -1.5772    2.4511 C   0  0  0  0  0  0  0  0  0  0  0  0
    5.5568   -0.5159    1.3690 C   0  0  0  0  0  0  0  0  0  0  0  0
    1.7660    0.5214   -0.2911 C   0  0  0  0  0  0  0  0  0  0  0  0
   -5.2292   -0.1047    0.7203 C   0  0  0  0  0  0  0  0  0  0  0  0
   -6.9945   -0.6747    2.6586 H   0  0  0  0  0  0  0  0  0  0  0  0
   -8.4276   -0.7297    1.6332 H   0  0  0  0  0  0  0  0  0  0  0  0
   -7.2941   -2.1031    1.6374 H   0  0  0  0  0  0  0  0  0  0  0  0
   -8.2571   -0.3615   -0.8117 H   0  0  0  0  0  0  0  0  0  0  0  0
   -6.9818    0.6229   -2.6589 H   0  0  0  0  0  0  0  0  0  0  0  0
   -4.9406    1.2332   -3.6612 H   0  0  0  0  0  0  0  0  0  0  0  0
   -3.4176    0.7983   -2.8986 H   0  0  0  0  0  0  0  0  0  0  0  0
   -4.1767    2.3830   -2.5540 H   0  0  0  0  0  0  0  0  0  0  0  0
   -2.5347   -1.3219    0.2585 H   0  0  0  0  0  0  0  0  0  0  0  0
   -2.3330   -0.2199    1.6346 H   0  0  0  0  0  0  0  0  0  0  0  0
    0.9558   -1.1040   -3.1693 H   0  0  0  0  0  0  0  0  0  0  0  0
    3.3054   -0.6208   -3.6567 H   0  0  0  0  0  0  0  0  0  0  0  0
    5.3920    0.1495   -3.0996 H   0  0  0  0  0  0  0  0  0  0  0  0
    5.2558    1.7370   -2.3494 H   0  0  0  0  0  0  0  0  0  0  0  0
    5.8362    0.3174   -1.4156 H   0  0  0  0  0  0  0  0  0  0  0  0
    3.7912    0.0198    3.7323 H   0  0  0  0  0  0  0  0  0  0  0  0
    2.4928    0.2754    2.5708 H   0  0  0  0  0  0  0  0  0  0  0  0
    3.0628   -1.9027    1.4410 H   0  0  0  0  0  0  0  0  0  0  0  0
    2.6368   -2.1304    3.1377 H   0  0  0  0  0  0  0  0  0  0  0  0
    6.0663   -1.1103    3.4010 H   0  0  0  0  0  0  0  0  0  0  0  0
    6.5932   -2.2504    2.1588 H   0  0  0  0  0  0  0  0  0  0  0  0
    5.2483   -1.0132    0.4445 H   0  0  0  0  0  0  0  0  0  0  0  0
    6.4885    0.0316    1.1975 H   0  0  0  0  0  0  0  0  0  0  0  0
    1.3138    0.8852    0.6296 H   0  0  0  0  0  0  0  0  0  0  0  0
   -4.7573   -0.2976    1.6807 H   0  0  0  0  0  0  0  0  0  0  0  0
  1  2  1  0
  2  3  2  0
  3  4  1  0
  4  5  2  0
  5  6  1  0
  5  7  1  0
  7  8  1  0
  8  9  2  0
  8 10  1  0
 10 11  1  0
 11 12  1  0
 12 13  2  0
 12 14  1  0
 14 15  2  0
 15 16  1  0
 16 17  2  0
 17 18  1  0
 17 19  1  0
 19 20  1  0
 20 21  2  0
 20 22  2  0
 20 23  1  0
 23 24  1  0
 24 25  1  0
 25 26  1  0
 26 27  1  0
 27 28  1  0
 19 29  2  0
  7 30  2  0
 30  2  1  0
 29 14  1  0
 28 23  1  0
  1 31  1  0
  1 32  1  0
  1 33  1  0
  3 34  1  0
  4 35  1  0
  6 36  1  0
  6 37  1  0
  6 38  1  0
 10 39  1  0
 10 40  1  0
 15 41  1  0
 16 42  1  0
 18 43  1  0
 18 44  1  0
 18 45  1  0
 24 46  1  0
 24 47  1  0
 25 48  1  0
 25 49  1  0
 27 50  1  0
 27 51  1  0
 28 52  1  0
 28 53  1  0
 29 54  1  0
 30 55  1  0
M  END
$$$$
