
     RDKit          3D

 37 38  0  0  0  0  0  0  0  0999 V2000
    4.3767    1.2892    0.7600 C   0  0  0  0  0  0  0  0  0  0  0  0
    3.7346    0.1409    1.5435 C   0  0  0  0  0  0  0  0  0  0  0  0
    4.4132    0.0075    2.9091 C   0  0  0  0  0  0  0  0  0  0  0  0
    2.2200    0.3439    1.7308 C   0  0  0  0  0  0  0  0  0  0  0  0
    1.4586    0.2726    0.4449 C   0  0  0  0  0  0  0  0  0  0  0  0
    1.0928    1.3178   -0.2682 N   0  0  0  0  0  0  0  0  0  0  0  0
    0.4233    0.9519   -1.4183 N   0  0  0  0  0  0  0  0  0  0  0  0
    0.2753   -0.3471   -1.5121 C   0  0  0  0  0  0  0  0  0  0  0  0
   -0.4398   -1.0152   -2.5729 N   0  0  0  0  0  0  0  0  0  0  0  0
   -1.3210   -0.0763   -3.6241 S   0  0  0  0  0  6  0  0  0  0  0  0
   -0.4163    0.8009   -4.3373 O   0  0  0  0  0  0  0  0  0  0  0  0
   -2.1304   -1.0201   -4.3749 O   0  0  0  0  0  0  0  0  0  0  0  0
   -2.4391    0.9287   -2.6169 C   0  0  0  0  0  0  0  0  0  0  0  0
   -3.0750    0.1116   -1.5183 C   0  0  0  0  0  0  0  0  0  0  0  0
   -2.7680    0.3817   -0.1754 C   0  0  0  0  0  0  0  0  0  0  0  0
   -3.3410   -0.3707    0.8506 C   0  0  0  0  0  0  0  0  0  0  0  0
   -4.2374   -1.3928    0.5485 C   0  0  0  0  0  0  0  0  0  0  0  0
   -4.5681   -1.6573   -0.7785 C   0  0  0  0  0  0  0  0  0  0  0  0
   -3.9963   -0.9057   -1.8063 C   0  0  0  0  0  0  0  0  0  0  0  0
    0.9559   -1.2332   -0.2165 S   0  0  0  0  0  0  0  0  0  0  0  0
    4.2044    2.2519    1.2532 H   0  0  0  0  0  0  0  0  0  0  0  0
    3.9763    1.3510   -0.2567 H   0  0  0  0  0  0  0  0  0  0  0  0
    5.4590    1.1427    0.6755 H   0  0  0  0  0  0  0  0  0  0  0  0
    3.9129   -0.7897    0.9895 H   0  0  0  0  0  0  0  0  0  0  0  0
    3.9999   -0.8388    3.4679 H   0  0  0  0  0  0  0  0  0  0  0  0
    4.2757    0.9120    3.5116 H   0  0  0  0  0  0  0  0  0  0  0  0
    5.4889   -0.1634    2.7945 H   0  0  0  0  0  0  0  0  0  0  0  0
    1.8264   -0.4115    2.4233 H   0  0  0  0  0  0  0  0  0  0  0  0
    2.0297    1.3168    2.2022 H   0  0  0  0  0  0  0  0  0  0  0  0
   -0.8896   -1.8891   -2.3130 H   0  0  0  0  0  0  0  0  0  0  0  0
   -1.8719    1.7769   -2.2236 H   0  0  0  0  0  0  0  0  0  0  0  0
   -3.2079    1.3266   -3.2878 H   0  0  0  0  0  0  0  0  0  0  0  0
   -2.0771    1.1837    0.0840 H   0  0  0  0  0  0  0  0  0  0  0  0
   -3.0945   -0.1526    1.8868 H   0  0  0  0  0  0  0  0  0  0  0  0
   -4.6891   -1.9751    1.3478 H   0  0  0  0  0  0  0  0  0  0  0  0
   -5.2794   -2.4453   -1.0146 H   0  0  0  0  0  0  0  0  0  0  0  0
   -4.2816   -1.1240   -2.8351 H   0  0  0  0  0  0  0  0  0  0  0  0
  1  2  1  0
  2  3  1  0
  2  4  1  0
  4  5  1  0
  5  6  2  0
  6  7  1  0
  7  8  2  0
  8  9  1  0
  9 10  1  0
 10 11  2  0
 10 12  2  0
 10 13  1  0
 13 14  1  0
 14 15  2  0
 15 16  1  0
 16 17  2  0
 17 18  1  0
 18 19  2  0
  8 20  1  0
 20  5  1  0
 19 14  1  0
  1 21  1  0
  1 22  1  0
  1 23  1  0
  2 24  1  0
  3 25  1  0
  3 26  1  0
  3 27  1  0
  4 28  1  0
  4 29  1  0
  9 30  1  0
 13 31  1  0
 13 32  1  0
 15 33  1  0
 16 34  1  0
 17 35  1  0
 18 36  1  0
 19 37  1  0
M  END
$$$$
