
     RDKit          3D

 38 39  0  0  0  0  0  0  0  0999 V2000
   -2.5616    0.0736    2.2490 C   0  0  0  0  0  0  0  0  0  0  0  0
   -3.2890    0.5375    1.1169 O   0  0  0  0  0  0  0  0  0  0  0  0
   -2.7414    0.3196   -0.1208 C   0  0  0  0  0  0  0  0  0  0  0  0
   -1.5806   -0.4367   -0.3406 C   0  0  0  0  0  0  0  0  0  0  0  0
   -1.0795   -0.6418   -1.6347 C   0  0  0  0  0  0  0  0  0  0  0  0
    0.1126   -1.4612   -1.8901 C   0  0  0  0  0  0  0  0  0  0  0  0
    1.3253   -1.3938   -1.3166 C   0  0  0  0  0  0  0  0  0  0  0  0
    1.7816   -0.4068   -0.2945 C   0  0  0  0  0  0  0  0  0  0  0  0
    1.1997    0.6493   -0.0799 O   0  0  0  0  0  0  0  0  0  0  0  0
    3.0338   -0.7164    0.4495 C   0  0  0  0  0  0  0  0  0  0  0  0
    3.8054    0.3572    0.9195 C   0  0  0  0  0  0  0  0  0  0  0  0
    4.9858    0.1242    1.6294 C   0  0  0  0  0  0  0  0  0  0  0  0
    5.3858   -1.1850    1.8741 C   0  0  0  0  0  0  0  0  0  0  0  0
    6.5297   -1.4622    2.5607 O   0  0  0  0  0  0  0  0  0  0  0  0
    4.6231   -2.2598    1.4300 C   0  0  0  0  0  0  0  0  0  0  0  0
    3.4416   -2.0294    0.7208 C   0  0  0  0  0  0  0  0  0  0  0  0
   -1.7842   -0.1259   -2.7249 C   0  0  0  0  0  0  0  0  0  0  0  0
   -2.9460    0.6175   -2.5217 C   0  0  0  0  0  0  0  0  0  0  0  0
   -3.4136    0.8645   -1.2277 C   0  0  0  0  0  0  0  0  0  0  0  0
   -4.5652    1.6094   -1.1857 O   0  0  0  0  0  0  0  0  0  0  0  0
   -4.6305    2.5771   -0.1324 C   0  0  0  0  0  0  0  0  0  0  0  0
   -5.4762    3.7080   -0.5523 C   0  0  0  0  0  0  0  0  0  0  0  0
   -6.1368    4.6108   -0.8676 N   0  0  0  0  0  0  0  0  0  0  0  0
   -3.1084    0.3830    3.1454 H   0  0  0  0  0  0  0  0  0  0  0  0
   -1.5660    0.5276    2.2948 H   0  0  0  0  0  0  0  0  0  0  0  0
   -2.5038   -1.0197    2.2579 H   0  0  0  0  0  0  0  0  0  0  0  0
   -1.0402   -0.8792    0.4892 H   0  0  0  0  0  0  0  0  0  0  0  0
   -0.0368   -2.2157   -2.6627 H   0  0  0  0  0  0  0  0  0  0  0  0
    2.0791   -2.0983   -1.6559 H   0  0  0  0  0  0  0  0  0  0  0  0
    3.4861    1.3813    0.7309 H   0  0  0  0  0  0  0  0  0  0  0  0
    5.5707    0.9692    1.9792 H   0  0  0  0  0  0  0  0  0  0  0  0
    6.9463   -0.6265    2.8280 H   0  0  0  0  0  0  0  0  0  0  0  0
    4.9459   -3.2759    1.6429 H   0  0  0  0  0  0  0  0  0  0  0  0
    2.8479   -2.8850    0.4122 H   0  0  0  0  0  0  0  0  0  0  0  0
   -1.4333   -0.2897   -3.7412 H   0  0  0  0  0  0  0  0  0  0  0  0
   -3.4842    1.0193   -3.3772 H   0  0  0  0  0  0  0  0  0  0  0  0
   -5.0868    2.1158    0.7499 H   0  0  0  0  0  0  0  0  0  0  0  0
   -3.6362    2.9639    0.1231 H   0  0  0  0  0  0  0  0  0  0  0  0
  1  2  1  0
  2  3  1  0
  3  4  2  0
  4  5  1  0
  5  6  1  0
  6  7  2  3
  7  8  1  0
  8  9  2  0
  8 10  1  0
 10 11  2  0
 11 12  1  0
 12 13  2  0
 13 14  1  0
 13 15  1  0
 15 16  2  0
  5 17  2  0
 17 18  1  0
 18 19  2  0
 19 20  1  0
 20 21  1  0
 21 22  1  0
 22 23  3  0
 19  3  1  0
 16 10  1  0
  1 24  1  0
  1 25  1  0
  1 26  1  0
  4 27  1  0
  6 28  1  0
  7 29  1  0
 11 30  1  0
 12 31  1  0
 14 32  1  0
 15 33  1  0
 16 34  1  0
 17 35  1  0
 18 36  1  0
 21 37  1  0
 21 38  1  0
M  END
$$$$
