
     RDKit          3D

 45 47  0  0  0  0  0  0  0  0999 V2000
   -0.1017    0.2411   -2.0772 C   0  0  0  0  0  0  0  0  0  0  0  0
    0.3937   -0.1046   -0.7216 C   0  0  0  0  0  0  0  0  0  0  0  0
    1.6622   -0.0839   -0.3642 N   0  0  0  0  0  0  0  0  0  0  0  0
    1.6553   -0.6151    0.9101 C   0  0  0  0  0  0  0  0  0  0  0  0
    2.9018   -0.7880    1.6917 C   0  0  0  0  0  0  0  0  0  0  0  0
    2.9216   -1.2510    2.8274 O   0  0  0  0  0  0  0  0  0  0  0  0
    4.0059   -0.3597    0.9731 N   0  0  0  0  0  0  0  0  0  0  0  0
    5.3643   -0.3529    1.3531 C   0  0  0  0  0  0  0  0  0  0  0  0
    5.8122   -0.8070    2.5969 C   0  0  0  0  0  0  0  0  0  0  0  0
    7.1748   -0.7748    2.9167 C   0  0  0  0  0  0  0  0  0  0  0  0
    8.0981   -0.2894    1.9943 C   0  0  0  0  0  0  0  0  0  0  0  0
    9.7699   -0.2540    2.3957 Cl  0  0  0  0  0  0  0  0  0  0  0  0
    7.6758    0.1689    0.7513 C   0  0  0  0  0  0  0  0  0  0  0  0
    6.3156    0.1363    0.4355 C   0  0  0  0  0  0  0  0  0  0  0  0
    5.8324    0.7171   -1.1236 Cl  0  0  0  0  0  0  0  0  0  0  0  0
    0.4347   -0.9503    1.3446 N   0  0  0  0  0  0  0  0  0  0  0  0
   -0.3779   -0.5956    0.3265 N   0  0  0  0  0  0  0  0  0  0  0  0
   -1.7909   -0.6636    0.4638 C   0  0  0  0  0  0  0  0  0  0  0  0
   -2.5795    0.3394   -0.1260 C   0  0  0  0  0  0  0  0  0  0  0  0
   -3.9705    0.3288    0.0146 C   0  0  0  0  0  0  0  0  0  0  0  0
   -4.6550    1.3696   -0.5559 O   0  0  0  0  0  0  0  0  0  0  0  0
   -5.3313    0.9899   -1.7686 C   0  0  0  0  0  0  0  0  0  0  0  0
   -4.4513    1.3413   -2.9664 C   0  0  0  0  0  0  0  0  0  0  0  0
   -6.6356    1.7793   -1.8265 C   0  0  0  0  0  0  0  0  0  0  0  0
   -4.5887   -0.6481    0.7963 C   0  0  0  0  0  0  0  0  0  0  0  0
   -6.2892   -0.6521    1.0802 Cl  0  0  0  0  0  0  0  0  0  0  0  0
   -3.8166   -1.6489    1.3843 C   0  0  0  0  0  0  0  0  0  0  0  0
   -2.4237   -1.6683    1.2185 C   0  0  0  0  0  0  0  0  0  0  0  0
   -1.6152   -3.0460    1.8855 Cl  0  0  0  0  0  0  0  0  0  0  0  0
    0.7000    0.1080   -2.8115 H   0  0  0  0  0  0  0  0  0  0  0  0
   -0.4154    1.2880   -2.1206 H   0  0  0  0  0  0  0  0  0  0  0  0
   -0.9322   -0.4014   -2.3847 H   0  0  0  0  0  0  0  0  0  0  0  0
    3.7926   -0.0037    0.0414 H   0  0  0  0  0  0  0  0  0  0  0  0
    5.1285   -1.1948    3.3467 H   0  0  0  0  0  0  0  0  0  0  0  0
    7.5031   -1.1331    3.8898 H   0  0  0  0  0  0  0  0  0  0  0  0
    8.3980    0.5487    0.0342 H   0  0  0  0  0  0  0  0  0  0  0  0
   -2.1386    1.1816   -0.6518 H   0  0  0  0  0  0  0  0  0  0  0  0
   -5.5659   -0.0822   -1.7930 H   0  0  0  0  0  0  0  0  0  0  0  0
   -4.1719    2.4003   -2.9480 H   0  0  0  0  0  0  0  0  0  0  0  0
   -4.9626    1.1289   -3.9103 H   0  0  0  0  0  0  0  0  0  0  0  0
   -3.5192    0.7684   -2.9470 H   0  0  0  0  0  0  0  0  0  0  0  0
   -6.4422    2.8580   -1.8084 H   0  0  0  0  0  0  0  0  0  0  0  0
   -7.2037    1.5408   -2.7309 H   0  0  0  0  0  0  0  0  0  0  0  0
   -7.2601    1.5587   -0.9544 H   0  0  0  0  0  0  0  0  0  0  0  0
   -4.3016   -2.4243    1.9747 H   0  0  0  0  0  0  0  0  0  0  0  0
  1  2  1  0
  2  3  2  0
  3  4  1  0
  4  5  1  0
  5  6  2  0
  5  7  1  0
  7  8  1  0
  8  9  2  0
  9 10  1  0
 10 11  2  0
 11 12  1  0
 11 13  1  0
 13 14  2  0
 14 15  1  0
  4 16  2  0
 16 17  1  0
 17 18  1  0
 18 19  2  0
 19 20  1  0
 20 21  1  0
 21 22  1  0
 22 23  1  0
 22 24  1  0
 20 25  2  0
 25 26  1  0
 25 27  1  0
 27 28  2  0
 28 29  1  0
 17  2  1  0
 28 18  1  0
 14  8  1  0
  1 30  1  0
  1 31  1  0
  1 32  1  0
  7 33  1  0
  9 34  1  0
 10 35  1  0
 13 36  1  0
 19 37  1  0
 22 38  1  0
 23 39  1  0
 23 40  1  0
 23 41  1  0
 24 42  1  0
 24 43  1  0
 24 44  1  0
 27 45  1  0
M  END
$$$$
