
     RDKit          3D

 49 51  0  0  0  0  0  0  0  0999 V2000
   -7.9591   -0.1453    1.6996 C   0  0  0  0  0  0  0  0  0  0  0  0
   -6.9160   -1.1193    1.2145 C   0  0  0  0  0  0  0  0  0  0  0  0
   -7.0414   -2.3246    1.4308 O   0  0  0  0  0  0  0  0  0  0  0  0
   -5.8331   -0.5953    0.5329 N   0  0  0  0  0  0  0  0  0  0  0  0
   -4.8342   -1.5174   -0.0211 C   0  0  0  0  0  0  0  0  0  0  0  0
   -4.0821   -0.9108   -1.2150 C   0  0  0  0  0  0  0  0  0  0  0  0
   -3.4113    0.3568   -0.8569 N   0  0  0  0  0  0  0  0  0  0  0  0
   -2.0173    0.3921   -0.7271 C   0  0  0  0  0  0  0  0  0  0  0  0
   -1.2333   -0.7308   -0.4530 C   0  0  0  0  0  0  0  0  0  0  0  0
    0.1602   -0.6324   -0.3230 C   0  0  0  0  0  0  0  0  0  0  0  0
    0.8220    0.5939   -0.4600 C   0  0  0  0  0  0  0  0  0  0  0  0
    2.2249    0.5620   -0.3097 N   0  0  0  0  0  0  0  0  0  0  0  0
    3.2043    1.5257   -0.2906 C   0  0  0  0  0  0  0  0  0  0  0  0
    3.0864    3.1887   -0.3830 S   0  0  0  0  0  0  0  0  0  0  0  0
    4.4970    1.0299   -0.1705 N   0  0  0  0  0  0  0  0  0  0  0  0
    4.9247   -0.2862   -0.0479 C   0  0  0  0  0  0  0  0  0  0  0  0
    4.1591   -1.2391    0.0718 O   0  0  0  0  0  0  0  0  0  0  0  0
    6.3967   -0.4973   -0.0146 C   0  0  0  0  0  0  0  0  0  0  0  0
    6.8952   -1.5768    0.7254 C   0  0  0  0  0  0  0  0  0  0  0  0
    8.2698   -1.8107    0.7848 C   0  0  0  0  0  0  0  0  0  0  0  0
    9.1490   -0.9747    0.0977 C   0  0  0  0  0  0  0  0  0  0  0  0
    8.6569    0.0907   -0.6563 C   0  0  0  0  0  0  0  0  0  0  0  0
    7.2820    0.3301   -0.7185 C   0  0  0  0  0  0  0  0  0  0  0  0
    0.0537    1.7157   -0.7426 C   0  0  0  0  0  0  0  0  0  0  0  0
   -1.3413    1.6125   -0.8700 C   0  0  0  0  0  0  0  0  0  0  0  0
   -4.1064    1.1844    0.1607 C   0  0  0  0  0  0  0  0  0  0  0  0
   -5.6022    0.8345    0.2834 C   0  0  0  0  0  0  0  0  0  0  0  0
   -7.5655    0.4346    2.5382 H   0  0  0  0  0  0  0  0  0  0  0  0
   -8.2748    0.5171    0.8893 H   0  0  0  0  0  0  0  0  0  0  0  0
   -8.8389   -0.6990    2.0415 H   0  0  0  0  0  0  0  0  0  0  0  0
   -4.1366   -1.7559    0.7904 H   0  0  0  0  0  0  0  0  0  0  0  0
   -5.3230   -2.4493   -0.3257 H   0  0  0  0  0  0  0  0  0  0  0  0
   -4.8088   -0.6786   -2.0047 H   0  0  0  0  0  0  0  0  0  0  0  0
   -3.3991   -1.6434   -1.6580 H   0  0  0  0  0  0  0  0  0  0  0  0
   -1.6813   -1.7079   -0.3040 H   0  0  0  0  0  0  0  0  0  0  0  0
    0.7195   -1.5395   -0.1021 H   0  0  0  0  0  0  0  0  0  0  0  0
    2.5996   -0.3761   -0.1535 H   0  0  0  0  0  0  0  0  0  0  0  0
    5.1924    1.7626   -0.1386 H   0  0  0  0  0  0  0  0  0  0  0  0
    6.2149   -2.2373    1.2599 H   0  0  0  0  0  0  0  0  0  0  0  0
    8.6538   -2.6475    1.3636 H   0  0  0  0  0  0  0  0  0  0  0  0
   10.2198   -1.1607    0.1416 H   0  0  0  0  0  0  0  0  0  0  0  0
    9.3465    0.7284   -1.2049 H   0  0  0  0  0  0  0  0  0  0  0  0
    6.9252    1.1440   -1.3435 H   0  0  0  0  0  0  0  0  0  0  0  0
    0.4839    2.6958   -0.8934 H   0  0  0  0  0  0  0  0  0  0  0  0
   -1.9005    2.5123   -1.1163 H   0  0  0  0  0  0  0  0  0  0  0  0
   -4.0170    2.2463   -0.0956 H   0  0  0  0  0  0  0  0  0  0  0  0
   -3.6407    1.0317    1.1441 H   0  0  0  0  0  0  0  0  0  0  0  0
   -6.0502    1.4348    1.0802 H   0  0  0  0  0  0  0  0  0  0  0  0
   -6.1230    1.0788   -0.6502 H   0  0  0  0  0  0  0  0  0  0  0  0
  1  2  1  0
  2  3  2  0
  2  4  1  0
  4  5  1  0
  5  6  1  0
  6  7  1  0
  7  8  1  0
  8  9  2  0
  9 10  1  0
 10 11  2  0
 11 12  1  0
 12 13  1  0
 13 14  2  0
 13 15  1  0
 15 16  1  0
 16 17  2  0
 16 18  1  0
 18 19  2  0
 19 20  1  0
 20 21  2  0
 21 22  1  0
 22 23  2  0
 11 24  1  0
 24 25  2  0
  7 26  1  0
 26 27  1  0
 27  4  1  0
 25  8  1  0
 23 18  1  0
  1 28  1  0
  1 29  1  0
  1 30  1  0
  5 31  1  0
  5 32  1  0
  6 33  1  0
  6 34  1  0
  9 35  1  0
 10 36  1  0
 12 37  1  0
 15 38  1  0
 19 39  1  0
 20 40  1  0
 21 41  1  0
 22 42  1  0
 23 43  1  0
 24 44  1  0
 25 45  1  0
 26 46  1  0
 26 47  1  0
 27 48  1  0
 27 49  1  0
M  END
$$$$
