
     RDKit          3D

 41 42  0  0  0  0  0  0  0  0999 V2000
   -4.3304   -0.1802    1.7508 C   0  0  0  0  0  0  0  0  0  0  0  0
   -3.6023   -0.9212    0.6403 C   0  0  0  0  0  0  0  0  0  0  0  0
   -2.6099   -0.0518   -0.0210 N   0  0  0  0  0  0  0  0  0  0  0  0
   -3.1824    0.8451   -1.0467 C   0  0  0  0  0  0  0  0  0  0  0  0
   -3.0953    2.3034   -0.6180 C   0  0  0  0  0  0  0  0  0  0  0  0
   -1.2266   -0.1355    0.2411 C   0  0  0  0  0  0  0  0  0  0  0  0
   -0.2668    0.3423   -0.5791 C   0  0  0  0  0  0  0  0  0  0  0  0
    1.1510    0.1907   -0.3109 C   0  0  0  0  0  0  0  0  0  0  0  0
    2.0254    0.0374   -1.3236 C   0  0  0  0  0  0  0  0  0  0  0  0
    3.4516   -0.2502   -1.1320 C   0  0  0  0  0  0  0  0  0  0  0  0
    4.3231   -0.3789   -2.1659 C   0  0  0  0  0  0  0  0  0  0  0  0
    3.9222   -0.2358   -3.5272 C   0  0  0  0  0  0  0  0  0  0  0  0
    3.5862   -0.1173   -4.6319 N   0  0  0  0  0  0  0  0  0  0  0  0
    5.7063   -0.6450   -1.9398 C   0  0  0  0  0  0  0  0  0  0  0  0
    6.8290   -0.8603   -1.7391 N   0  0  0  0  0  0  0  0  0  0  0  0
    3.8949   -0.4178    0.3191 C   0  0  0  0  0  0  0  0  0  0  0  0
    2.7658   -0.8361    1.2680 C   0  0  0  0  0  0  0  0  0  0  0  0
    1.5885    0.1344    1.1341 C   0  0  0  0  0  0  0  0  0  0  0  0
    0.4631   -0.1745    2.1310 C   0  0  0  0  0  0  0  0  0  0  0  0
   -0.7593   -0.8436    1.5065 C   0  0  0  0  0  0  0  0  0  0  0  0
   -3.6320    0.2340    2.4843 H   0  0  0  0  0  0  0  0  0  0  0  0
   -4.9239    0.6477    1.3506 H   0  0  0  0  0  0  0  0  0  0  0  0
   -5.0130   -0.8583    2.2726 H   0  0  0  0  0  0  0  0  0  0  0  0
   -4.3313   -1.2834   -0.0953 H   0  0  0  0  0  0  0  0  0  0  0  0
   -3.1322   -1.8265    1.0406 H   0  0  0  0  0  0  0  0  0  0  0  0
   -4.2380    0.6053   -1.2248 H   0  0  0  0  0  0  0  0  0  0  0  0
   -2.6822    0.6958   -2.0100 H   0  0  0  0  0  0  0  0  0  0  0  0
   -3.6056    2.4669    0.3363 H   0  0  0  0  0  0  0  0  0  0  0  0
   -2.0585    2.6322   -0.5005 H   0  0  0  0  0  0  0  0  0  0  0  0
   -3.5665    2.9449   -1.3693 H   0  0  0  0  0  0  0  0  0  0  0  0
   -0.5311    0.7887   -1.5320 H   0  0  0  0  0  0  0  0  0  0  0  0
    1.6414    0.0787   -2.3427 H   0  0  0  0  0  0  0  0  0  0  0  0
    4.6900   -1.1673    0.4068 H   0  0  0  0  0  0  0  0  0  0  0  0
    4.3114    0.5381    0.6636 H   0  0  0  0  0  0  0  0  0  0  0  0
    3.1445   -0.8351    2.2972 H   0  0  0  0  0  0  0  0  0  0  0  0
    2.4467   -1.8626    1.0434 H   0  0  0  0  0  0  0  0  0  0  0  0
    1.9628    1.1355    1.3972 H   0  0  0  0  0  0  0  0  0  0  0  0
    0.1332    0.7762    2.5744 H   0  0  0  0  0  0  0  0  0  0  0  0
    0.8289   -0.7785    2.9701 H   0  0  0  0  0  0  0  0  0  0  0  0
   -0.5397   -1.8919    1.2687 H   0  0  0  0  0  0  0  0  0  0  0  0
   -1.5391   -0.8457    2.2743 H   0  0  0  0  0  0  0  0  0  0  0  0
  1  2  1  0
  2  3  1  0
  3  4  1  0
  4  5  1  0
  3  6  1  0
  6  7  2  0
  7  8  1  0
  8  9  2  0
  9 10  1  0
 10 11  2  3
 11 12  1  0
 12 13  3  0
 11 14  1  0
 14 15  3  0
 10 16  1  0
 16 17  1  0
 17 18  1  0
 18 19  1  0
 19 20  1  0
 20  6  1  0
 18  8  1  0
  1 21  1  0
  1 22  1  0
  1 23  1  0
  2 24  1  0
  2 25  1  0
  4 26  1  0
  4 27  1  0
  5 28  1  0
  5 29  1  0
  5 30  1  0
  7 31  1  0
  9 32  1  0
 16 33  1  0
 16 34  1  0
 17 35  1  0
 17 36  1  0
 18 37  1  0
 19 38  1  0
 19 39  1  0
 20 40  1  0
 20 41  1  0
M  END
$$$$
