
     RDKit          3D

 59 62  0  0  0  0  0  0  0  0999 V2000
   -3.1948   -1.1995   -3.2942 C   0  0  0  0  0  0  0  0  0  0  0  0
   -2.3455   -1.9342   -2.2748 C   0  0  0  0  0  0  0  0  0  0  0  0
   -1.8965   -0.9819   -1.3052 O   0  0  0  0  0  0  0  0  0  0  0  0
   -1.1154   -1.4925   -0.3158 C   0  0  0  0  0  0  0  0  0  0  0  0
   -0.7931   -2.6724   -0.2385 O   0  0  0  0  0  0  0  0  0  0  0  0
   -0.7315   -0.4244    0.7194 C   0  0  0  0  0  0  0  0  0  0  0  0
   -1.7479   -0.4925    1.8958 C   0  0  0  0  0  0  0  0  0  0  0  0
   -3.2160   -0.3483    1.5625 C   0  0  0  0  0  0  0  0  0  0  0  0
   -3.9810   -1.4724    1.2206 C   0  0  0  0  0  0  0  0  0  0  0  0
   -5.3404   -1.3497    0.9101 C   0  0  0  0  0  0  0  0  0  0  0  0
   -5.9569   -0.1004    0.9454 C   0  0  0  0  0  0  0  0  0  0  0  0
   -7.2702    0.1587    0.6664 O   0  0  0  0  0  0  0  0  0  0  0  0
   -8.0863   -0.9553    0.3265 C   0  0  0  0  0  0  0  0  0  0  0  0
   -5.2019    1.0204    1.2970 C   0  0  0  0  0  0  0  0  0  0  0  0
   -3.8450    0.9003    1.6082 C   0  0  0  0  0  0  0  0  0  0  0  0
    0.6655   -0.8003    1.3074 C   0  0  0  0  0  0  0  0  0  0  0  0
    1.8165   -0.2330    0.4809 C   0  0  0  0  0  0  0  0  0  0  0  0
    1.7642    1.2281    0.4366 N   0  0  0  0  0  0  0  0  0  0  0  0
    2.8859    2.0587    0.4983 C   0  0  0  0  0  0  0  0  0  0  0  0
    2.7816    3.2250    0.8813 O   0  0  0  0  0  0  0  0  0  0  0  0
    4.1842    1.5411    0.1124 C   0  0  0  0  0  0  0  0  0  0  0  0
    4.5876    0.5281   -0.7417 C   0  0  0  0  0  0  0  0  0  0  0  0
    6.0097    0.4820   -0.7533 C   0  0  0  0  0  0  0  0  0  0  0  0
    6.9597   -0.3285   -1.4037 C   0  0  0  0  0  0  0  0  0  0  0  0
    8.3226   -0.0889   -1.1914 C   0  0  0  0  0  0  0  0  0  0  0  0
    8.7413    0.9409   -0.3518 C   0  0  0  0  0  0  0  0  0  0  0  0
    7.8151    1.7610    0.2998 C   0  0  0  0  0  0  0  0  0  0  0  0
    6.4575    1.5041    0.0787 C   0  0  0  0  0  0  0  0  0  0  0  0
    5.3422    2.1424    0.5622 N   0  0  0  0  0  0  0  0  0  0  0  0
    0.4583    1.8448    0.6465 C   0  0  0  0  0  0  0  0  0  0  0  0
   -0.6551    0.9835    0.0642 C   0  0  0  0  0  0  0  0  0  0  0  0
   -3.5719   -1.8868   -4.0569 H   0  0  0  0  0  0  0  0  0  0  0  0
   -4.0445   -0.7084   -2.8071 H   0  0  0  0  0  0  0  0  0  0  0  0
   -2.6104   -0.4140   -3.7841 H   0  0  0  0  0  0  0  0  0  0  0  0
   -1.4828   -2.3933   -2.7707 H   0  0  0  0  0  0  0  0  0  0  0  0
   -2.9457   -2.7074   -1.7838 H   0  0  0  0  0  0  0  0  0  0  0  0
   -1.4898    0.2720    2.6427 H   0  0  0  0  0  0  0  0  0  0  0  0
   -1.6267   -1.4505    2.4226 H   0  0  0  0  0  0  0  0  0  0  0  0
   -3.5244   -2.4607    1.1933 H   0  0  0  0  0  0  0  0  0  0  0  0
   -5.8861   -2.2499    0.6491 H   0  0  0  0  0  0  0  0  0  0  0  0
   -8.1383   -1.6736    1.1514 H   0  0  0  0  0  0  0  0  0  0  0  0
   -9.0999   -0.5844    0.1457 H   0  0  0  0  0  0  0  0  0  0  0  0
   -7.7372   -1.4340   -0.5949 H   0  0  0  0  0  0  0  0  0  0  0  0
   -5.6774    1.9978    1.3332 H   0  0  0  0  0  0  0  0  0  0  0  0
   -3.2900    1.7923    1.8896 H   0  0  0  0  0  0  0  0  0  0  0  0
    0.7572   -0.4047    2.3291 H   0  0  0  0  0  0  0  0  0  0  0  0
    0.7877   -1.8861    1.3986 H   0  0  0  0  0  0  0  0  0  0  0  0
    2.7613   -0.5619    0.9235 H   0  0  0  0  0  0  0  0  0  0  0  0
    1.7633   -0.6010   -0.5495 H   0  0  0  0  0  0  0  0  0  0  0  0
    3.9372   -0.1156   -1.3169 H   0  0  0  0  0  0  0  0  0  0  0  0
    6.6426   -1.1308   -2.0631 H   0  0  0  0  0  0  0  0  0  0  0  0
    9.0608   -0.7125   -1.6902 H   0  0  0  0  0  0  0  0  0  0  0  0
    9.8049    1.1122   -0.2017 H   0  0  0  0  0  0  0  0  0  0  0  0
    8.1428    2.5654    0.9499 H   0  0  0  0  0  0  0  0  0  0  0  0
    5.3486    2.9512    1.1693 H   0  0  0  0  0  0  0  0  0  0  0  0
    0.4461    2.8337    0.1734 H   0  0  0  0  0  0  0  0  0  0  0  0
    0.3192    1.9960    1.7238 H   0  0  0  0  0  0  0  0  0  0  0  0
   -1.6058    1.5164    0.1441 H   0  0  0  0  0  0  0  0  0  0  0  0
   -0.4550    0.8937   -1.0122 H   0  0  0  0  0  0  0  0  0  0  0  0
  1  2  1  0
  2  3  1  0
  3  4  1  0
  4  5  2  0
  4  6  1  0
  6  7  1  0
  7  8  1  0
  8  9  2  0
  9 10  1  0
 10 11  2  0
 11 12  1  0
 12 13  1  0
 11 14  1  0
 14 15  2  0
  6 16  1  0
 16 17  1  0
 17 18  1  0
 18 19  1  0
 19 20  2  0
 19 21  1  0
 21 22  2  0
 22 23  1  0
 23 24  2  0
 24 25  1  0
 25 26  2  0
 26 27  1  0
 27 28  2  0
 28 29  1  0
 18 30  1  0
 30 31  1  0
 31  6  1  0
 15  8  1  0
 29 21  1  0
 28 23  1  0
  1 32  1  0
  1 33  1  0
  1 34  1  0
  2 35  1  0
  2 36  1  0
  7 37  1  0
  7 38  1  0
  9 39  1  0
 10 40  1  0
 13 41  1  0
 13 42  1  0
 13 43  1  0
 14 44  1  0
 15 45  1  0
 16 46  1  0
 16 47  1  0
 17 48  1  0
 17 49  1  0
 22 50  1  0
 24 51  1  0
 25 52  1  0
 26 53  1  0
 27 54  1  0
 29 55  1  0
 30 56  1  0
 30 57  1  0
 31 58  1  0
 31 59  1  0
M  END
$$$$
