
     RDKit          3D

 38 42  0  0  0  0  0  0  0  0999 V2000
    0.3529    2.6354   -0.2871 O   0  0  0  0  0  0  0  0  0  0  0  0
   -0.1367    1.4006   -0.2874 C   0  0  0  0  0  0  0  0  0  0  0  0
   -1.3473    0.9545    0.1673 C   0  0  0  0  0  0  0  0  0  0  0  0
   -1.4030   -0.4666   -0.0144 C   0  0  0  0  0  0  0  0  0  0  0  0
   -0.2240   -0.8731   -0.5742 C   0  0  0  0  0  0  0  0  0  0  0  0
    0.1817   -2.0975   -0.8914 O   0  0  0  0  0  0  0  0  0  0  0  0
    0.5260    0.2828   -0.7958 N   0  0  0  0  0  0  0  0  0  0  0  0
    1.7539    0.3227   -1.5864 C   0  0  0  0  0  0  0  0  0  0  0  0
    2.9706   -0.1634   -0.8338 C   0  0  0  0  0  0  0  0  0  0  0  0
    3.9807   -0.8385   -1.5390 C   0  0  0  0  0  0  0  0  0  0  0  0
    5.1338   -1.2800   -0.8876 C   0  0  0  0  0  0  0  0  0  0  0  0
    5.2986   -1.0438    0.4746 C   0  0  0  0  0  0  0  0  0  0  0  0
    4.3138   -0.3619    1.1848 C   0  0  0  0  0  0  0  0  0  0  0  0
    3.1602    0.0821    0.5352 C   0  0  0  0  0  0  0  0  0  0  0  0
   -2.7024   -1.0909    0.4776 C   0  0  0  0  0  0  0  0  0  0  0  0
   -2.8169   -0.6260    1.9549 C   0  0  0  0  0  0  0  0  0  0  0  0
   -2.7648    0.7214    2.1271 C   0  0  0  0  0  0  0  0  0  0  0  0
   -2.6010    1.5320    0.8129 C   0  0  0  0  0  0  0  0  0  0  0  0
   -3.7702    1.1463   -0.1528 C   0  0  0  0  0  0  0  0  0  0  0  0
   -5.0118    0.3654    0.2264 C   0  0  0  0  0  0  0  0  0  0  0  0
   -3.8296   -0.3874   -0.3488 C   0  0  0  0  0  0  0  0  0  0  0  0
    1.3154    2.6150   -0.4098 H   0  0  0  0  0  0  0  0  0  0  0  0
    1.1539   -2.1191   -0.9104 H   0  0  0  0  0  0  0  0  0  0  0  0
    1.5673   -0.3014   -2.4694 H   0  0  0  0  0  0  0  0  0  0  0  0
    1.9180    1.3445   -1.9425 H   0  0  0  0  0  0  0  0  0  0  0  0
    3.8792   -1.0273   -2.6065 H   0  0  0  0  0  0  0  0  0  0  0  0
    5.9059   -1.8062   -1.4437 H   0  0  0  0  0  0  0  0  0  0  0  0
    6.1957   -1.3882    0.9829 H   0  0  0  0  0  0  0  0  0  0  0  0
    4.4425   -0.1752    2.2484 H   0  0  0  0  0  0  0  0  0  0  0  0
    2.4099    0.6104    1.1216 H   0  0  0  0  0  0  0  0  0  0  0  0
   -2.7286   -2.1781    0.3763 H   0  0  0  0  0  0  0  0  0  0  0  0
   -2.9195   -1.3389    2.7606 H   0  0  0  0  0  0  0  0  0  0  0  0
   -2.8211    1.2145    3.0871 H   0  0  0  0  0  0  0  0  0  0  0  0
   -2.5435    2.6086    0.9880 H   0  0  0  0  0  0  0  0  0  0  0  0
   -3.7917    1.7650   -1.0417 H   0  0  0  0  0  0  0  0  0  0  0  0
   -5.2731    0.2421    1.2699 H   0  0  0  0  0  0  0  0  0  0  0  0
   -5.8850    0.4802   -0.4085 H   0  0  0  0  0  0  0  0  0  0  0  0
   -3.8895   -0.7597   -1.3642 H   0  0  0  0  0  0  0  0  0  0  0  0
  1  2  1  0
  2  3  2  0
  3  4  1  0
  4  5  2  0
  5  6  1  0
  5  7  1  0
  7  8  1  0
  8  9  1  0
  9 10  2  0
 10 11  1  0
 11 12  2  0
 12 13  1  0
 13 14  2  0
  4 15  1  0
 15 16  1  0
 16 17  2  0
 17 18  1  0
 18 19  1  0
 19 20  1  0
 20 21  1  0
  7  2  1  0
 14  9  1  0
 21 15  1  0
 18  3  1  0
 21 19  1  0
  1 22  1  0
  6 23  1  0
  8 24  1  0
  8 25  1  0
 10 26  1  0
 11 27  1  0
 12 28  1  0
 13 29  1  0
 14 30  1  0
 15 31  1  0
 16 32  1  0
 17 33  1  0
 18 34  1  0
 19 35  1  0
 20 36  1  0
 20 37  1  0
 21 38  1  0
M  END
$$$$
