
     RDKit          3D

 61 64  0  0  0  0  0  0  0  0999 V2000
   -4.7492   -3.2037   -2.2638 C   0  0  0  0  0  0  0  0  0  0  0  0
   -5.0062   -2.8084   -0.9157 O   0  0  0  0  0  0  0  0  0  0  0  0
   -4.0389   -3.1828   -0.0332 C   0  0  0  0  0  0  0  0  0  0  0  0
   -3.0352   -3.8221   -0.3189 O   0  0  0  0  0  0  0  0  0  0  0  0
   -4.4067   -2.7330    1.3599 C   0  0  0  0  0  0  0  0  0  0  0  0
   -3.1849   -2.2695    2.1491 C   0  0  0  0  0  0  0  0  0  0  0  0
   -2.6900   -0.9231    1.6844 C   0  0  0  0  0  0  0  0  0  0  0  0
   -1.5648   -0.5953    1.0073 C   0  0  0  0  0  0  0  0  0  0  0  0
   -0.6021   -1.6424    0.6234 C   0  0  0  0  0  0  0  0  0  0  0  0
    0.5996   -1.3640    0.0762 C   0  0  0  0  0  0  0  0  0  0  0  0
    1.5539   -2.4534   -0.3160 C   0  0  0  0  0  0  0  0  0  0  0  0
    2.9642   -1.9405   -0.1342 C   0  0  0  0  0  0  0  0  0  0  0  0
    3.7321   -2.4635    0.6748 O   0  0  0  0  0  0  0  0  0  0  0  0
    3.3272   -0.6995   -0.9653 C   0  0  0  0  0  0  0  0  0  0  0  0
    3.2111   -0.9520   -2.4771 C   0  0  0  0  0  0  0  0  0  0  0  0
    4.6250   -0.1852   -0.6116 O   0  0  0  0  0  0  0  0  0  0  0  0
    5.7220   -0.9462   -0.8802 C   0  0  0  0  0  0  0  0  0  0  0  0
    5.6879   -2.0006   -1.5046 O   0  0  0  0  0  0  0  0  0  0  0  0
    6.9363   -0.3402   -0.3607 C   0  0  0  0  0  0  0  0  0  0  0  0
    8.2188   -0.8512   -0.4712 C   0  0  0  0  0  0  0  0  0  0  0  0
    9.1996   -0.0195    0.1413 C   0  0  0  0  0  0  0  0  0  0  0  0
    8.6378    1.1035    0.7045 C   0  0  0  0  0  0  0  0  0  0  0  0
    6.9425    1.1475    0.4925 S   0  0  0  0  0  0  0  0  0  0  0  0
    2.3353    0.4266   -0.6424 C   0  0  0  0  0  0  0  0  0  0  0  0
    2.6045    1.6143   -0.8310 O   0  0  0  0  0  0  0  0  0  0  0  0
    0.9816    0.0271   -0.1317 C   0  0  0  0  0  0  0  0  0  0  0  0
    0.0811    0.9857    0.1444 C   0  0  0  0  0  0  0  0  0  0  0  0
   -1.1989    0.7348    0.6537 N   0  0  0  0  0  0  0  0  0  0  0  0
   -2.1189    1.8295    0.7277 C   0  0  0  0  0  0  0  0  0  0  0  0
   -1.8042    2.9863    1.4582 C   0  0  0  0  0  0  0  0  0  0  0  0
   -2.6945    4.0660    1.5209 C   0  0  0  0  0  0  0  0  0  0  0  0
   -3.9142    4.0081    0.8473 C   0  0  0  0  0  0  0  0  0  0  0  0
   -4.8704    4.9854    0.8262 O   0  0  0  0  0  0  0  0  0  0  0  0
   -4.5724    6.1905    1.5201 C   0  0  0  0  0  0  0  0  0  0  0  0
   -4.2329    2.8657    0.1112 C   0  0  0  0  0  0  0  0  0  0  0  0
   -3.3451    1.7881    0.0473 C   0  0  0  0  0  0  0  0  0  0  0  0
   -4.6340   -4.2904   -2.3329 H   0  0  0  0  0  0  0  0  0  0  0  0
   -3.8571   -2.6944   -2.6452 H   0  0  0  0  0  0  0  0  0  0  0  0
   -5.6084   -2.9074   -2.8737 H   0  0  0  0  0  0  0  0  0  0  0  0
   -4.8798   -3.5843    1.8618 H   0  0  0  0  0  0  0  0  0  0  0  0
   -5.1472   -1.9262    1.3060 H   0  0  0  0  0  0  0  0  0  0  0  0
   -2.4046   -3.0354    2.1411 H   0  0  0  0  0  0  0  0  0  0  0  0
   -3.4737   -2.1609    3.2025 H   0  0  0  0  0  0  0  0  0  0  0  0
   -3.3525   -0.1157    1.9937 H   0  0  0  0  0  0  0  0  0  0  0  0
   -0.8778   -2.6816    0.7716 H   0  0  0  0  0  0  0  0  0  0  0  0
    1.4094   -2.7494   -1.3595 H   0  0  0  0  0  0  0  0  0  0  0  0
    1.4248   -3.3470    0.3051 H   0  0  0  0  0  0  0  0  0  0  0  0
    2.1703   -0.9256   -2.8209 H   0  0  0  0  0  0  0  0  0  0  0  0
    3.6052   -1.9344   -2.7576 H   0  0  0  0  0  0  0  0  0  0  0  0
    3.7681   -0.1978   -3.0447 H   0  0  0  0  0  0  0  0  0  0  0  0
    8.4364   -1.7876   -0.9730 H   0  0  0  0  0  0  0  0  0  0  0  0
   10.2607   -0.2354    0.1682 H   0  0  0  0  0  0  0  0  0  0  0  0
    9.1400    1.9027    1.2328 H   0  0  0  0  0  0  0  0  0  0  0  0
    0.3016    2.0361   -0.0329 H   0  0  0  0  0  0  0  0  0  0  0  0
   -0.8629    3.0461    1.9998 H   0  0  0  0  0  0  0  0  0  0  0  0
   -2.4025    4.9317    2.1050 H   0  0  0  0  0  0  0  0  0  0  0  0
   -3.6916    6.6830    1.0951 H   0  0  0  0  0  0  0  0  0  0  0  0
   -5.4240    6.8667    1.3962 H   0  0  0  0  0  0  0  0  0  0  0  0
   -4.4455    6.0086    2.5923 H   0  0  0  0  0  0  0  0  0  0  0  0
   -5.1784    2.8163   -0.4238 H   0  0  0  0  0  0  0  0  0  0  0  0
   -3.6078    0.9191   -0.5505 H   0  0  0  0  0  0  0  0  0  0  0  0
  1  2  1  0
  2  3  1  0
  3  4  2  0
  3  5  1  0
  5  6  1  0
  6  7  1  0
  7  8  2  3
  8  9  1  0
  9 10  2  0
 10 11  1  0
 11 12  1  0
 12 13  2  0
 12 14  1  0
 14 15  1  0
 14 16  1  0
 16 17  1  0
 17 18  2  0
 17 19  1  0
 19 20  2  0
 20 21  1  0
 21 22  2  0
 22 23  1  0
 14 24  1  0
 24 25  2  0
 24 26  1  0
 26 27  2  0
 27 28  1  0
 28 29  1  0
 29 30  2  0
 30 31  1  0
 31 32  2  0
 32 33  1  0
 33 34  1  0
 32 35  1  0
 35 36  2  0
 28  8  1  0
 36 29  1  0
 26 10  1  0
 23 19  1  0
  1 37  1  0
  1 38  1  0
  1 39  1  0
  5 40  1  0
  5 41  1  0
  6 42  1  0
  6 43  1  0
  7 44  1  0
  9 45  1  0
 11 46  1  0
 11 47  1  0
 15 48  1  0
 15 49  1  0
 15 50  1  0
 20 51  1  0
 21 52  1  0
 22 53  1  0
 27 54  1  0
 30 55  1  0
 31 56  1  0
 34 57  1  0
 34 58  1  0
 34 59  1  0
 35 60  1  0
 36 61  1  0
M  END
$$$$
