
     RDKit          3D

 56 59  0  0  0  0  0  0  0  0999 V2000
    1.4702   -0.5834    2.4847 C   0  0  0  0  0  0  0  0  0  0  0  0
    2.4227   -0.2272    1.3415 C   0  0  0  0  0  0  0  0  0  0  0  0
    3.6813    0.4739    1.8820 C   0  0  0  0  0  0  0  0  0  0  0  0
    4.7336    0.7807    0.8052 C   0  0  0  0  0  0  0  0  0  0  0  0
    5.4545   -0.4414    0.2918 C   0  0  0  0  0  0  0  0  0  0  0  0
    6.5929   -0.9227    0.9538 C   0  0  0  0  0  0  0  0  0  0  0  0
    7.2644   -2.0495    0.4751 C   0  0  0  0  0  0  0  0  0  0  0  0
    6.7984   -2.7121   -0.6608 C   0  0  0  0  0  0  0  0  0  0  0  0
    5.6609   -2.2491   -1.3184 C   0  0  0  0  0  0  0  0  0  0  0  0
    4.9926   -1.1188   -0.8466 C   0  0  0  0  0  0  0  0  0  0  0  0
    1.7345    0.6302    0.3815 N   0  0  0  0  0  0  0  0  0  0  0  0
    1.0484    0.1060   -0.6995 C   0  0  0  0  0  0  0  0  0  0  0  0
    1.0482   -1.0875   -0.9947 O   0  0  0  0  0  0  0  0  0  0  0  0
    0.2623    1.1437   -1.5062 C   0  0  0  0  0  0  0  0  0  0  0  0
   -1.1411    0.8870   -1.4954 O   0  0  0  0  0  0  0  0  0  0  0  0
   -1.7276    1.0990   -0.2893 C   0  0  0  0  0  0  0  0  0  0  0  0
   -1.1924    1.5451    0.7138 O   0  0  0  0  0  0  0  0  0  0  0  0
   -3.1581    0.7489   -0.3971 C   0  0  0  0  0  0  0  0  0  0  0  0
   -3.5290   -0.6239   -0.4751 C   0  0  0  0  0  0  0  0  0  0  0  0
   -2.6176   -1.7100   -0.4412 C   0  0  0  0  0  0  0  0  0  0  0  0
   -3.0499   -3.0351   -0.5269 C   0  0  0  0  0  0  0  0  0  0  0  0
   -4.4043   -3.3134   -0.6434 C   0  0  0  0  0  0  0  0  0  0  0  0
   -5.3237   -2.2663   -0.6711 C   0  0  0  0  0  0  0  0  0  0  0  0
   -4.9030   -0.9278   -0.5872 C   0  0  0  0  0  0  0  0  0  0  0  0
   -5.8472    0.1104   -0.6117 C   0  0  0  0  0  0  0  0  0  0  0  0
   -5.4743    1.4603   -0.5219 C   0  0  0  0  0  0  0  0  0  0  0  0
   -6.4550    2.4665   -0.5461 C   0  0  0  0  0  0  0  0  0  0  0  0
   -6.1069    3.8127   -0.4587 C   0  0  0  0  0  0  0  0  0  0  0  0
   -4.7709    4.1730   -0.3453 C   0  0  0  0  0  0  0  0  0  0  0  0
   -3.7857    3.1842   -0.3202 C   0  0  0  0  0  0  0  0  0  0  0  0
   -4.1106    1.8060   -0.4079 C   0  0  0  0  0  0  0  0  0  0  0  0
    0.5944   -1.1224    2.1090 H   0  0  0  0  0  0  0  0  0  0  0  0
    1.9649   -1.2194    3.2261 H   0  0  0  0  0  0  0  0  0  0  0  0
    1.1114    0.3181    2.9921 H   0  0  0  0  0  0  0  0  0  0  0  0
    2.7027   -1.1640    0.8463 H   0  0  0  0  0  0  0  0  0  0  0  0
    4.1327   -0.1388    2.6728 H   0  0  0  0  0  0  0  0  0  0  0  0
    3.3885    1.4252    2.3491 H   0  0  0  0  0  0  0  0  0  0  0  0
    4.2882    1.3291   -0.0339 H   0  0  0  0  0  0  0  0  0  0  0  0
    5.4799    1.4662    1.2295 H   0  0  0  0  0  0  0  0  0  0  0  0
    6.9673   -0.4185    1.8447 H   0  0  0  0  0  0  0  0  0  0  0  0
    8.1512   -2.4114    0.9894 H   0  0  0  0  0  0  0  0  0  0  0  0
    7.3203   -3.5891   -1.0326 H   0  0  0  0  0  0  0  0  0  0  0  0
    5.2883   -2.7701   -2.1973 H   0  0  0  0  0  0  0  0  0  0  0  0
    4.1013   -0.7760   -1.3693 H   0  0  0  0  0  0  0  0  0  0  0  0
    1.3954    1.5208    0.7344 H   0  0  0  0  0  0  0  0  0  0  0  0
    0.4651    2.1666   -1.1622 H   0  0  0  0  0  0  0  0  0  0  0  0
    0.6105    1.0854   -2.5443 H   0  0  0  0  0  0  0  0  0  0  0  0
   -1.5453   -1.5404   -0.3487 H   0  0  0  0  0  0  0  0  0  0  0  0
   -2.3218   -3.8428   -0.5028 H   0  0  0  0  0  0  0  0  0  0  0  0
   -4.7473   -4.3420   -0.7110 H   0  0  0  0  0  0  0  0  0  0  0  0
   -6.3809   -2.5076   -0.7576 H   0  0  0  0  0  0  0  0  0  0  0  0
   -6.9048   -0.1403   -0.7005 H   0  0  0  0  0  0  0  0  0  0  0  0
   -7.5077    2.2065   -0.6343 H   0  0  0  0  0  0  0  0  0  0  0  0
   -6.8794    4.5768   -0.4763 H   0  0  0  0  0  0  0  0  0  0  0  0
   -4.4920    5.2216   -0.2736 H   0  0  0  0  0  0  0  0  0  0  0  0
   -2.7504    3.5070   -0.2224 H   0  0  0  0  0  0  0  0  0  0  0  0
  1  2  1  0
  2  3  1  0
  3  4  1  0
  4  5  1  0
  5  6  2  0
  6  7  1  0
  7  8  2  0
  8  9  1  0
  9 10  2  0
  2 11  1  0
 11 12  1  0
 12 13  2  0
 12 14  1  0
 14 15  1  0
 15 16  1  0
 16 17  2  0
 16 18  1  0
 18 19  1  0
 19 20  2  0
 20 21  1  0
 21 22  2  0
 22 23  1  0
 23 24  2  0
 24 25  1  0
 25 26  2  0
 26 27  1  0
 27 28  2  0
 28 29  1  0
 29 30  2  0
 30 31  1  0
 10  5  1  0
 31 18  2  0
 24 19  1  0
 31 26  1  0
  1 32  1  0
  1 33  1  0
  1 34  1  0
  2 35  1  0
  3 36  1  0
  3 37  1  0
  4 38  1  0
  4 39  1  0
  6 40  1  0
  7 41  1  0
  8 42  1  0
  9 43  1  0
 10 44  1  0
 11 45  1  0
 14 46  1  0
 14 47  1  0
 20 48  1  0
 21 49  1  0
 22 50  1  0
 23 51  1  0
 25 52  1  0
 27 53  1  0
 28 54  1  0
 29 55  1  0
 30 56  1  0
M  END
$$$$
