
     RDKit          3D

 47 50  0  0  0  0  0  0  0  0999 V2000
    0.5816    4.3515   -6.5820 C   0  0  0  0  0  0  0  0  0  0  0  0
    0.3442    4.3283   -5.0997 C   0  0  0  0  0  0  0  0  0  0  0  0
   -0.4093    5.3384   -4.4924 C   0  0  0  0  0  0  0  0  0  0  0  0
   -0.6245    5.3608   -3.1101 C   0  0  0  0  0  0  0  0  0  0  0  0
   -0.0482    4.3405   -2.3471 C   0  0  0  0  0  0  0  0  0  0  0  0
   -0.0959    4.1156   -0.9864 N   0  0  0  0  0  0  0  0  0  0  0  0
    0.6259    2.9983   -0.6829 C   0  0  0  0  0  0  0  0  0  0  0  0
    0.8461    2.4060    0.6027 C   0  0  0  0  0  0  0  0  0  0  0  0
    0.4022    2.8855    1.6420 O   0  0  0  0  0  0  0  0  0  0  0  0
    1.6399    1.2457    0.5378 N   0  0  0  0  0  0  0  0  0  0  0  0
    1.8779    0.4990    1.7591 C   0  0  0  0  0  0  0  0  0  0  0  0
    0.7249   -0.4614    2.0604 C   0  0  0  0  0  0  0  0  0  0  0  0
   -0.3351   -0.4948    1.4408 O   0  0  0  0  0  0  0  0  0  0  0  0
    0.9797   -1.3001    3.1344 N   0  0  0  0  0  0  0  0  0  0  0  0
    0.0090   -2.2875    3.5684 C   0  0  0  0  0  0  0  0  0  0  0  0
    0.0030   -3.5277    2.6713 C   0  0  0  0  0  0  0  0  0  0  0  0
   -0.9925   -4.5570    3.1471 C   0  0  0  0  0  0  0  0  0  0  0  0
   -2.3421   -4.4524    2.7804 C   0  0  0  0  0  0  0  0  0  0  0  0
   -3.2723   -5.3910    3.2314 C   0  0  0  0  0  0  0  0  0  0  0  0
   -2.8570   -6.4361    4.0532 C   0  0  0  0  0  0  0  0  0  0  0  0
   -4.0023   -7.5933    4.6104 Cl  0  0  0  0  0  0  0  0  0  0  0  0
   -1.5201   -6.5499    4.4288 C   0  0  0  0  0  0  0  0  0  0  0  0
   -0.5892   -5.6110    3.9783 C   0  0  0  0  0  0  0  0  0  0  0  0
    2.1792    0.7050   -0.6458 N   0  0  0  0  0  0  0  0  0  0  0  0
    1.9365    1.2923   -1.7834 C   0  0  0  0  0  0  0  0  0  0  0  0
    1.1386    2.4843   -1.8470 C   0  0  0  0  0  0  0  0  0  0  0  0
    0.7242    3.3205   -2.9148 C   0  0  0  0  0  0  0  0  0  0  0  0
    0.9255    3.3213   -4.3102 C   0  0  0  0  0  0  0  0  0  0  0  0
    0.7052    3.3363   -6.9738 H   0  0  0  0  0  0  0  0  0  0  0  0
   -0.2684    4.8000   -7.1070 H   0  0  0  0  0  0  0  0  0  0  0  0
    1.4826    4.9302   -6.8072 H   0  0  0  0  0  0  0  0  0  0  0  0
   -0.8457    6.1294   -5.1002 H   0  0  0  0  0  0  0  0  0  0  0  0
   -1.2175    6.1467   -2.6534 H   0  0  0  0  0  0  0  0  0  0  0  0
   -0.5895    4.6848   -0.3109 H   0  0  0  0  0  0  0  0  0  0  0  0
    1.9816    1.1905    2.6021 H   0  0  0  0  0  0  0  0  0  0  0  0
    2.8076   -0.0704    1.6519 H   0  0  0  0  0  0  0  0  0  0  0  0
    1.8890   -1.2855    3.5778 H   0  0  0  0  0  0  0  0  0  0  0  0
    0.2658   -2.5565    4.5991 H   0  0  0  0  0  0  0  0  0  0  0  0
   -0.9813   -1.8173    3.5847 H   0  0  0  0  0  0  0  0  0  0  0  0
    1.0072   -3.9699    2.6394 H   0  0  0  0  0  0  0  0  0  0  0  0
   -0.2280   -3.2548    1.6338 H   0  0  0  0  0  0  0  0  0  0  0  0
   -2.6748   -3.6369    2.1396 H   0  0  0  0  0  0  0  0  0  0  0  0
   -4.3146   -5.2999    2.9384 H   0  0  0  0  0  0  0  0  0  0  0  0
   -1.1969   -7.3652    5.0703 H   0  0  0  0  0  0  0  0  0  0  0  0
    0.4515   -5.7101    4.2786 H   0  0  0  0  0  0  0  0  0  0  0  0
    2.3497    0.8743   -2.7145 H   0  0  0  0  0  0  0  0  0  0  0  0
    1.5262    2.5433   -4.7732 H   0  0  0  0  0  0  0  0  0  0  0  0
  1  2  1  0
  2  3  2  0
  3  4  1  0
  4  5  2  0
  5  6  1  0
  6  7  1  0
  7  8  1  0
  8  9  2  0
  8 10  1  0
 10 11  1  0
 11 12  1  0
 12 13  2  0
 12 14  1  0
 14 15  1  0
 15 16  1  0
 16 17  1  0
 17 18  2  0
 18 19  1  0
 19 20  2  0
 20 21  1  0
 20 22  1  0
 22 23  2  0
 10 24  1  0
 24 25  2  0
 25 26  1  0
 26 27  1  0
 27 28  2  0
 28  2  1  0
 27  5  1  0
 26  7  2  0
 23 17  1  0
  1 29  1  0
  1 30  1  0
  1 31  1  0
  3 32  1  0
  4 33  1  0
  6 34  1  0
 11 35  1  0
 11 36  1  0
 14 37  1  0
 15 38  1  0
 15 39  1  0
 16 40  1  0
 16 41  1  0
 18 42  1  0
 19 43  1  0
 22 44  1  0
 23 45  1  0
 25 46  1  0
 28 47  1  0
M  END
$$$$
