
     RDKit          3D

 39 39  0  0  0  0  0  0  0  0999 V2000
   -1.5627   -3.8041   -1.3910 C   0  0  0  0  0  0  0  0  0  0  0  0
   -1.4198   -2.4667   -0.9164 O   0  0  0  0  0  0  0  0  0  0  0  0
   -2.1233   -1.5433   -1.6405 C   0  0  0  0  0  0  0  0  0  0  0  0
   -2.8913   -1.8304   -2.5511 O   0  0  0  0  0  0  0  0  0  0  0  0
   -1.9035   -0.1157   -1.1040 C   0  0  0  0  0  0  0  0  0  0  0  0
   -3.1675    0.3833   -0.3936 C   0  0  0  0  0  0  0  0  0  0  0  0
   -4.3634    0.6936   -1.2966 C   0  0  0  0  0  0  0  0  0  0  0  0
   -4.0652    1.9418   -2.5911 S   0  0  0  0  0  0  0  0  0  0  0  0
   -3.6811    3.3762   -1.5599 C   0  0  0  0  0  0  0  0  0  0  0  0
   -0.7835   -0.0709   -0.1486 N   0  0  0  0  0  0  0  0  0  0  0  0
    0.4955    0.0872   -0.6148 C   0  0  0  0  0  0  0  0  0  0  0  0
    0.7848    0.3315   -1.7772 O   0  0  0  0  0  0  0  0  0  0  0  0
    1.4103   -0.0783    0.3849 N   0  0  0  0  0  0  0  0  0  0  0  0
    2.8141    0.1602    0.1194 C   0  0  0  0  0  0  0  0  0  0  0  0
    3.6467    0.0208    1.3741 C   0  0  0  0  0  0  0  0  0  0  0  0
    4.9815   -0.3658    1.2854 C   0  0  0  0  0  0  0  0  0  0  0  0
    5.7361   -0.4464    2.4524 C   0  0  0  0  0  0  0  0  0  0  0  0
    5.1487   -0.1256    3.6694 C   0  0  0  0  0  0  0  0  0  0  0  0
    3.8198    0.2535    3.6737 C   0  0  0  0  0  0  0  0  0  0  0  0
    3.0560    0.3355    2.5607 N   0  0  0  0  0  0  0  0  0  0  0  0
   -0.9652   -4.4538   -0.7460 H   0  0  0  0  0  0  0  0  0  0  0  0
   -2.6052   -4.1252   -1.3360 H   0  0  0  0  0  0  0  0  0  0  0  0
   -1.1804   -3.8929   -2.4117 H   0  0  0  0  0  0  0  0  0  0  0  0
   -1.6391    0.5134   -1.9560 H   0  0  0  0  0  0  0  0  0  0  0  0
   -2.9252    1.2750    0.1998 H   0  0  0  0  0  0  0  0  0  0  0  0
   -3.4875   -0.3707    0.3369 H   0  0  0  0  0  0  0  0  0  0  0  0
   -4.7143   -0.2215   -1.7855 H   0  0  0  0  0  0  0  0  0  0  0  0
   -5.1979    1.0465   -0.6805 H   0  0  0  0  0  0  0  0  0  0  0  0
   -2.7117    3.2513   -1.0691 H   0  0  0  0  0  0  0  0  0  0  0  0
   -4.4589    3.5299   -0.8105 H   0  0  0  0  0  0  0  0  0  0  0  0
   -3.6300    4.2655   -2.1925 H   0  0  0  0  0  0  0  0  0  0  0  0
   -0.8296   -0.7522    0.5964 H   0  0  0  0  0  0  0  0  0  0  0  0
    1.1177    0.1918    1.3156 H   0  0  0  0  0  0  0  0  0  0  0  0
    2.9288    1.1782   -0.2739 H   0  0  0  0  0  0  0  0  0  0  0  0
    3.1331   -0.5480   -0.6532 H   0  0  0  0  0  0  0  0  0  0  0  0
    5.4277   -0.6049    0.3266 H   0  0  0  0  0  0  0  0  0  0  0  0
    6.7762   -0.7498    2.4081 H   0  0  0  0  0  0  0  0  0  0  0  0
    5.7127   -0.1793    4.5934 H   0  0  0  0  0  0  0  0  0  0  0  0
    3.3163    0.5056    4.6029 H   0  0  0  0  0  0  0  0  0  0  0  0
  1  2  1  0
  2  3  1  0
  3  4  2  0
  3  5  1  0
  5  6  1  0
  6  7  1  0
  7  8  1  0
  8  9  1  0
  5 10  1  0
 10 11  1  0
 11 12  2  0
 11 13  1  0
 13 14  1  0
 14 15  1  0
 15 16  2  0
 16 17  1  0
 17 18  2  0
 18 19  1  0
 19 20  2  0
 20 15  1  0
  1 21  1  0
  1 22  1  0
  1 23  1  0
  5 24  1  0
  6 25  1  0
  6 26  1  0
  7 27  1  0
  7 28  1  0
  9 29  1  0
  9 30  1  0
  9 31  1  0
 10 32  1  0
 13 33  1  0
 14 34  1  0
 14 35  1  0
 16 36  1  0
 17 37  1  0
 18 38  1  0
 19 39  1  0
M  END
$$$$
