
     RDKit          3D

 48 51  0  0  0  0  0  0  0  0999 V2000
    6.4979   -2.2110    2.4060 O   0  0  0  0  0  0  0  0  0  0  0  0
    5.2251   -2.3175    1.7253 S   0  0  0  0  0  6  0  0  0  0  0  0
    4.6802   -3.6014    1.3434 O   0  0  0  0  0  0  0  0  0  0  0  0
    4.1085   -1.4858    2.6760 N   0  0  0  0  0  0  0  0  0  0  0  0
    2.8475   -1.1217    2.1319 C   0  0  0  0  0  0  0  0  0  0  0  0
    2.5244    0.2290    2.0274 C   0  0  0  0  0  0  0  0  0  0  0  0
    1.3074    0.6182    1.4533 C   0  0  0  0  0  0  0  0  0  0  0  0
    0.3859   -0.3307    0.9725 C   0  0  0  0  0  0  0  0  0  0  0  0
   -0.8981    0.0599    0.3583 C   0  0  0  0  0  0  0  0  0  0  0  0
   -1.1072    1.2485   -0.3238 C   0  0  0  0  0  0  0  0  0  0  0  0
   -2.3655    1.5173   -0.8717 C   0  0  0  0  0  0  0  0  0  0  0  0
   -3.4062    0.6075   -0.7333 C   0  0  0  0  0  0  0  0  0  0  0  0
   -4.6581    0.8486   -1.2934 N   0  0  0  0  0  0  0  0  0  0  0  0
   -5.2439    2.1960   -1.1742 C   0  0  0  0  0  0  0  0  0  0  0  0
   -6.6564    2.1303   -0.5676 C   0  0  0  0  0  0  0  0  0  0  0  0
   -7.5620    1.3024   -1.3089 O   0  0  0  0  0  0  0  0  0  0  0  0
   -6.9350    0.1442   -1.8840 C   0  0  0  0  0  0  0  0  0  0  0  0
   -5.6223   -0.2617   -1.1956 C   0  0  0  0  0  0  0  0  0  0  0  0
   -3.1546   -0.5487   -0.0873 N   0  0  0  0  0  0  0  0  0  0  0  0
   -1.9108   -0.8226    0.4652 N   0  0  0  0  0  0  0  0  0  0  0  0
    0.7334   -1.6885    1.1102 C   0  0  0  0  0  0  0  0  0  0  0  0
    1.9490   -2.0821    1.6813 C   0  0  0  0  0  0  0  0  0  0  0  0
    5.3286   -1.3083    0.2621 C   0  0  0  0  0  0  0  0  0  0  0  0
    4.6364   -1.6818   -0.8932 C   0  0  0  0  0  0  0  0  0  0  0  0
    4.7198   -0.8799   -2.0328 C   0  0  0  0  0  0  0  0  0  0  0  0
    5.4981    0.2831   -2.0200 C   0  0  0  0  0  0  0  0  0  0  0  0
    5.5426    1.2344   -3.4611 Cl  0  0  0  0  0  0  0  0  0  0  0  0
    6.2038    0.6401   -0.8626 C   0  0  0  0  0  0  0  0  0  0  0  0
    7.1804    2.0626   -0.7767 Cl  0  0  0  0  0  0  0  0  0  0  0  0
    6.1259   -0.1601    0.2801 C   0  0  0  0  0  0  0  0  0  0  0  0
    4.5518   -0.8546    3.3411 H   0  0  0  0  0  0  0  0  0  0  0  0
    3.2085    0.9947    2.3831 H   0  0  0  0  0  0  0  0  0  0  0  0
    1.0837    1.6820    1.4049 H   0  0  0  0  0  0  0  0  0  0  0  0
   -0.3073    1.9664   -0.4668 H   0  0  0  0  0  0  0  0  0  0  0  0
   -2.5073    2.4337   -1.4348 H   0  0  0  0  0  0  0  0  0  0  0  0
   -4.6381    2.8671   -0.5548 H   0  0  0  0  0  0  0  0  0  0  0  0
   -5.3013    2.6243   -2.1816 H   0  0  0  0  0  0  0  0  0  0  0  0
   -7.0913    3.1340   -0.5239 H   0  0  0  0  0  0  0  0  0  0  0  0
   -6.6154    1.7500    0.4601 H   0  0  0  0  0  0  0  0  0  0  0  0
   -6.7553    0.3635   -2.9430 H   0  0  0  0  0  0  0  0  0  0  0  0
   -7.6569   -0.6773   -1.8372 H   0  0  0  0  0  0  0  0  0  0  0  0
   -5.2252   -1.1567   -1.6890 H   0  0  0  0  0  0  0  0  0  0  0  0
   -5.8236   -0.4980   -0.1428 H   0  0  0  0  0  0  0  0  0  0  0  0
    0.0481   -2.4641    0.7669 H   0  0  0  0  0  0  0  0  0  0  0  0
    2.1705   -3.1428    1.7756 H   0  0  0  0  0  0  0  0  0  0  0  0
    4.0282   -2.5849   -0.9129 H   0  0  0  0  0  0  0  0  0  0  0  0
    4.1745   -1.1673   -2.9296 H   0  0  0  0  0  0  0  0  0  0  0  0
    6.6818    0.1098    1.1755 H   0  0  0  0  0  0  0  0  0  0  0  0
  1  2  2  0
  2  3  2  0
  2  4  1  0
  4  5  1  0
  5  6  2  0
  6  7  1  0
  7  8  2  0
  8  9  1  0
  9 10  2  0
 10 11  1  0
 11 12  2  0
 12 13  1  0
 13 14  1  0
 14 15  1  0
 15 16  1  0
 16 17  1  0
 17 18  1  0
 12 19  1  0
 19 20  2  0
  8 21  1  0
 21 22  2  0
  2 23  1  0
 23 24  2  0
 24 25  1  0
 25 26  2  0
 26 27  1  0
 26 28  1  0
 28 29  1  0
 28 30  2  0
 22  5  1  0
 30 23  1  0
 20  9  1  0
 18 13  1  0
  4 31  1  0
  6 32  1  0
  7 33  1  0
 10 34  1  0
 11 35  1  0
 14 36  1  0
 14 37  1  0
 15 38  1  0
 15 39  1  0
 17 40  1  0
 17 41  1  0
 18 42  1  0
 18 43  1  0
 21 44  1  0
 22 45  1  0
 24 46  1  0
 25 47  1  0
 30 48  1  0
M  END
$$$$
