
     RDKit          3D

 53 56  0  0  0  0  0  0  0  0999 V2000
   -7.4654    2.0483    1.1840 C   0  0  0  0  0  0  0  0  0  0  0  0
   -7.5071    0.8747    0.3830 O   0  0  0  0  0  0  0  0  0  0  0  0
   -6.7821    1.0000   -0.8399 C   0  0  0  0  0  0  0  0  0  0  0  0
   -5.2929    0.7577   -0.6328 C   0  0  0  0  0  0  0  0  0  0  0  0
   -4.9676   -0.6253   -0.0597 C   0  0  0  0  0  0  0  0  0  0  0  0
   -3.4962   -0.8005   -0.4154 C   0  0  0  0  0  0  0  0  0  0  0  0
   -3.3227   -0.0358   -1.6435 N   0  0  0  0  0  0  0  0  0  0  0  0
   -2.3436   -0.2135   -2.6158 C   0  0  0  0  0  0  0  0  0  0  0  0
   -2.4605    0.3054   -3.7266 O   0  0  0  0  0  0  0  0  0  0  0  0
   -1.1711   -1.0232   -2.2647 C   0  0  0  0  0  0  0  0  0  0  0  0
   -0.4025   -1.0107   -1.0708 C   0  0  0  0  0  0  0  0  0  0  0  0
    0.5946   -1.9316   -1.2816 C   0  0  0  0  0  0  0  0  0  0  0  0
    1.7462   -2.4256   -0.4939 C   0  0  0  0  0  0  0  0  0  0  0  0
    2.0130   -1.4820    0.5513 O   0  0  0  0  0  0  0  0  0  0  0  0
    3.1788   -0.7670    0.4030 C   0  0  0  0  0  0  0  0  0  0  0  0
    3.4944   -0.1312   -0.7993 C   0  0  0  0  0  0  0  0  0  0  0  0
    4.6662    0.6148   -0.9121 C   0  0  0  0  0  0  0  0  0  0  0  0
    5.5282    0.7480    0.1799 C   0  0  0  0  0  0  0  0  0  0  0  0
    6.7014    1.4651    0.1456 O   0  0  0  0  0  0  0  0  0  0  0  0
    7.0585    2.0933   -1.0786 C   0  0  0  0  0  0  0  0  0  0  0  0
    5.2080    0.1321    1.4179 C   0  0  0  0  0  0  0  0  0  0  0  0
    6.0390    0.2493    2.5554 C   0  0  0  0  0  0  0  0  0  0  0  0
    5.7122   -0.3531    3.7710 C   0  0  0  0  0  0  0  0  0  0  0  0
    4.5427   -1.0905    3.8812 C   0  0  0  0  0  0  0  0  0  0  0  0
    3.7046   -1.2258    2.7745 C   0  0  0  0  0  0  0  0  0  0  0  0
    4.0147   -0.6270    1.5328 C   0  0  0  0  0  0  0  0  0  0  0  0
    0.4426   -2.4693   -2.5191 O   0  0  0  0  0  0  0  0  0  0  0  0
   -0.6467   -1.8960   -3.1427 N   0  0  0  0  0  0  0  0  0  0  0  0
   -4.5014    0.7623   -1.9358 C   0  0  0  0  0  0  0  0  0  0  0  0
   -8.0762    1.8756    2.0743 H   0  0  0  0  0  0  0  0  0  0  0  0
   -6.4442    2.2676    1.5059 H   0  0  0  0  0  0  0  0  0  0  0  0
   -7.8813    2.9010    0.6387 H   0  0  0  0  0  0  0  0  0  0  0  0
   -7.1901    0.2477   -1.5246 H   0  0  0  0  0  0  0  0  0  0  0  0
   -6.9667    1.9797   -1.2970 H   0  0  0  0  0  0  0  0  0  0  0  0
   -4.8755    1.5121    0.0464 H   0  0  0  0  0  0  0  0  0  0  0  0
   -5.5655   -1.3988   -0.5578 H   0  0  0  0  0  0  0  0  0  0  0  0
   -5.1460   -0.6968    1.0173 H   0  0  0  0  0  0  0  0  0  0  0  0
   -2.8600   -0.3522    0.3545 H   0  0  0  0  0  0  0  0  0  0  0  0
   -3.2244   -1.8506   -0.5543 H   0  0  0  0  0  0  0  0  0  0  0  0
   -0.5347   -0.3958   -0.1934 H   0  0  0  0  0  0  0  0  0  0  0  0
    1.4701   -3.3698   -0.0114 H   0  0  0  0  0  0  0  0  0  0  0  0
    2.6209   -2.6306   -1.1235 H   0  0  0  0  0  0  0  0  0  0  0  0
    2.8322   -0.1889   -1.6586 H   0  0  0  0  0  0  0  0  0  0  0  0
    4.8715    1.0873   -1.8670 H   0  0  0  0  0  0  0  0  0  0  0  0
    8.0130    2.6057   -0.9245 H   0  0  0  0  0  0  0  0  0  0  0  0
    6.3191    2.8482   -1.3652 H   0  0  0  0  0  0  0  0  0  0  0  0
    7.2029    1.3551   -1.8742 H   0  0  0  0  0  0  0  0  0  0  0  0
    6.9615    0.8248    2.4969 H   0  0  0  0  0  0  0  0  0  0  0  0
    6.3726   -0.2416    4.6268 H   0  0  0  0  0  0  0  0  0  0  0  0
    4.2793   -1.5606    4.8248 H   0  0  0  0  0  0  0  0  0  0  0  0
    2.7924   -1.8087    2.8867 H   0  0  0  0  0  0  0  0  0  0  0  0
   -4.2106    1.7689   -2.2524 H   0  0  0  0  0  0  0  0  0  0  0  0
   -5.0456    0.2780   -2.7551 H   0  0  0  0  0  0  0  0  0  0  0  0
  1  2  1  0
  2  3  1  0
  3  4  1  0
  4  5  1  0
  5  6  1  0
  6  7  1  0
  7  8  1  0
  8  9  2  0
  8 10  1  0
 10 11  1  0
 11 12  2  0
 12 13  1  0
 13 14  1  0
 14 15  1  0
 15 16  2  0
 16 17  1  0
 17 18  2  0
 18 19  1  0
 19 20  1  0
 18 21  1  0
 21 22  2  0
 22 23  1  0
 23 24  2  0
 24 25  1  0
 25 26  2  0
 12 27  1  0
 27 28  1  0
  7 29  1  0
 29  4  1  0
 28 10  2  0
 26 15  1  0
 26 21  1  0
  1 30  1  0
  1 31  1  0
  1 32  1  0
  3 33  1  0
  3 34  1  0
  4 35  1  0
  5 36  1  0
  5 37  1  0
  6 38  1  0
  6 39  1  0
 11 40  1  0
 13 41  1  0
 13 42  1  0
 16 43  1  0
 17 44  1  0
 20 45  1  0
 20 46  1  0
 20 47  1  0
 22 48  1  0
 23 49  1  0
 24 50  1  0
 25 51  1  0
 29 52  1  0
 29 53  1  0
M  END
$$$$
