
     RDKit          3D

 40 43  0  0  0  0  0  0  0  0999 V2000
    6.7380    1.9974    1.4238 O   0  0  0  0  0  0  0  0  0  0  0  0
    6.1885    0.9969    1.9068 N   0  0  0  0  0  4  0  0  0  0  0  0
    6.6770    0.2887    2.7986 O   0  0  0  0  0  1  0  0  0  0  0  0
    4.8702    0.6220    1.3797 C   0  0  0  0  0  0  0  0  0  0  0  0
    4.2233   -0.5175    1.8726 C   0  0  0  0  0  0  0  0  0  0  0  0
    2.9678   -0.8672    1.3664 C   0  0  0  0  0  0  0  0  0  0  0  0
    2.3567   -0.0935    0.3677 C   0  0  0  0  0  0  0  0  0  0  0  0
    1.0439   -0.4720   -0.1515 C   0  0  0  0  0  0  0  0  0  0  0  0
    0.0703   -0.9674    0.7008 N   0  0  0  0  0  0  0  0  0  0  0  0
   -1.0335   -1.1608   -0.1114 N   0  0  0  0  0  0  0  0  0  0  0  0
   -2.2937   -1.6639    0.3903 C   0  0  0  0  0  0  0  0  0  0  0  0
   -3.2331   -0.5440    0.7650 C   0  0  0  0  0  0  0  0  0  0  0  0
   -3.0055    0.2198    1.9200 C   0  0  0  0  0  0  0  0  0  0  0  0
   -3.8734    1.2555    2.2684 C   0  0  0  0  0  0  0  0  0  0  0  0
   -4.9766    1.5404    1.4663 C   0  0  0  0  0  0  0  0  0  0  0  0
   -5.2107    0.7929    0.3136 C   0  0  0  0  0  0  0  0  0  0  0  0
   -4.3433   -0.2432   -0.0368 C   0  0  0  0  0  0  0  0  0  0  0  0
   -0.7058   -0.8459   -1.3833 C   0  0  0  0  0  0  0  0  0  0  0  0
   -1.2691   -0.8359   -2.6008 C   0  0  0  0  0  0  0  0  0  0  0  0
   -2.5076   -1.2103   -2.8848 O   0  0  0  0  0  0  0  0  0  0  0  0
   -0.3531   -0.3798   -3.5405 N   0  0  0  0  0  0  0  0  0  0  0  0
    0.8441   -0.1217   -2.8498 C   0  0  0  0  0  0  0  0  0  0  0  0
    1.9141    0.2858   -3.5164 O   0  0  0  0  0  0  0  0  0  0  0  0
    0.5919   -0.4000   -1.5360 C   0  0  0  0  0  0  0  0  0  0  0  0
    3.0115    1.0517   -0.1093 C   0  0  0  0  0  0  0  0  0  0  0  0
    4.2676    1.4114    0.3908 C   0  0  0  0  0  0  0  0  0  0  0  0
    4.6723   -1.1368    2.6464 H   0  0  0  0  0  0  0  0  0  0  0  0
    2.4594   -1.7485    1.7563 H   0  0  0  0  0  0  0  0  0  0  0  0
   -2.7286   -2.3215   -0.3703 H   0  0  0  0  0  0  0  0  0  0  0  0
   -2.0825   -2.2878    1.2668 H   0  0  0  0  0  0  0  0  0  0  0  0
   -2.1400    0.0144    2.5486 H   0  0  0  0  0  0  0  0  0  0  0  0
   -3.6845    1.8421    3.1635 H   0  0  0  0  0  0  0  0  0  0  0  0
   -5.6508    2.3485    1.7372 H   0  0  0  0  0  0  0  0  0  0  0  0
   -6.0678    1.0190   -0.3151 H   0  0  0  0  0  0  0  0  0  0  0  0
   -4.5351   -0.8115   -0.9446 H   0  0  0  0  0  0  0  0  0  0  0  0
   -2.6737   -1.0816   -3.8348 H   0  0  0  0  0  0  0  0  0  0  0  0
   -0.4754   -0.2697   -4.5372 H   0  0  0  0  0  0  0  0  0  0  0  0
    2.6592    0.2935   -2.8879 H   0  0  0  0  0  0  0  0  0  0  0  0
    2.5360    1.6915   -0.8505 H   0  0  0  0  0  0  0  0  0  0  0  0
    4.7519    2.3091    0.0113 H   0  0  0  0  0  0  0  0  0  0  0  0
  1  2  2  0
  2  3  1  0
  2  4  1  0
  4  5  2  0
  5  6  1  0
  6  7  2  0
  7  8  1  0
  8  9  2  0
  9 10  1  0
 10 11  1  0
 11 12  1  0
 12 13  2  0
 13 14  1  0
 14 15  2  0
 15 16  1  0
 16 17  2  0
 10 18  1  0
 18 19  2  0
 19 20  1  0
 19 21  1  0
 21 22  1  0
 22 23  1  0
 22 24  2  0
  7 25  1  0
 25 26  2  0
 26  4  1  0
 24  8  1  0
 17 12  1  0
 24 18  1  0
  5 27  1  0
  6 28  1  0
 11 29  1  0
 11 30  1  0
 13 31  1  0
 14 32  1  0
 15 33  1  0
 16 34  1  0
 17 35  1  0
 20 36  1  0
 21 37  1  0
 23 38  1  0
 25 39  1  0
 26 40  1  0
M  CHG  2   2   1   3  -1
M  END
$$$$
