
     RDKit          3D

 59 63  0  0  0  0  0  0  0  0999 V2000
   -5.4700   -1.1559    2.9399 C   0  0  0  0  0  0  0  0  0  0  0  0
   -4.8834   -0.6790    1.7375 O   0  0  0  0  0  0  0  0  0  0  0  0
   -4.5750   -1.6032    0.7706 C   0  0  0  0  0  0  0  0  0  0  0  0
   -4.7182   -2.9872    0.9257 C   0  0  0  0  0  0  0  0  0  0  0  0
   -4.3635   -3.8587   -0.1085 C   0  0  0  0  0  0  0  0  0  0  0  0
   -3.8602   -3.3589   -1.3058 C   0  0  0  0  0  0  0  0  0  0  0  0
   -3.7117   -1.9835   -1.4730 C   0  0  0  0  0  0  0  0  0  0  0  0
   -4.0686   -1.0963   -0.4442 C   0  0  0  0  0  0  0  0  0  0  0  0
   -3.8848    0.3443   -0.6637 C   0  0  0  0  0  0  0  0  0  0  0  0
   -5.2143    1.2533   -1.2357 S   0  0  0  0  0  0  0  0  0  0  0  0
   -4.3108    2.7149   -1.2721 C   0  0  0  0  0  0  0  0  0  0  0  0
   -4.7771    3.9858   -1.6649 C   0  0  0  0  0  0  0  0  0  0  0  0
   -3.8997    5.0714   -1.6310 C   0  0  0  0  0  0  0  0  0  0  0  0
   -2.5875    4.9025   -1.2152 C   0  0  0  0  0  0  0  0  0  0  0  0
   -2.1296    3.6400   -0.8269 C   0  0  0  0  0  0  0  0  0  0  0  0
   -2.9938    2.5140   -0.8526 C   0  0  0  0  0  0  0  0  0  0  0  0
   -2.7563    1.1308   -0.5040 C   0  0  0  0  0  0  0  0  0  0  0  0
   -1.4922    0.5693   -0.0436 C   0  0  0  0  0  0  0  0  0  0  0  0
   -1.3254    0.2015    1.2933 C   0  0  0  0  0  0  0  0  0  0  0  0
   -0.1070   -0.3288    1.7235 C   0  0  0  0  0  0  0  0  0  0  0  0
    0.9550   -0.4980    0.8303 C   0  0  0  0  0  0  0  0  0  0  0  0
    2.0866   -1.0211    1.3910 O   0  0  0  0  0  0  0  0  0  0  0  0
    3.1796   -1.3657    0.5344 C   0  0  0  0  0  0  0  0  0  0  0  0
    4.1307   -0.1697    0.3561 C   0  0  0  0  0  0  0  0  0  0  0  0
    5.2144   -0.4063   -0.6165 N   0  0  0  0  0  0  0  0  0  0  0  0
    6.1826   -1.4170   -0.1352 C   0  0  0  0  0  0  0  0  0  0  0  0
    7.3621   -1.5781   -1.1096 C   0  0  0  0  0  0  0  0  0  0  0  0
    8.0398   -0.3330   -1.3178 O   0  0  0  0  0  0  0  0  0  0  0  0
    7.1242    0.6401   -1.8362 C   0  0  0  0  0  0  0  0  0  0  0  0
    5.9452    0.8563   -0.8751 C   0  0  0  0  0  0  0  0  0  0  0  0
    0.7900   -0.1207   -0.5029 C   0  0  0  0  0  0  0  0  0  0  0  0
   -0.4294    0.4113   -0.9385 C   0  0  0  0  0  0  0  0  0  0  0  0
   -5.6867   -0.2895    3.5722 H   0  0  0  0  0  0  0  0  0  0  0  0
   -6.4172   -1.6689    2.7433 H   0  0  0  0  0  0  0  0  0  0  0  0
   -4.7752   -1.8007    3.4879 H   0  0  0  0  0  0  0  0  0  0  0  0
   -5.0988   -3.4233    1.8431 H   0  0  0  0  0  0  0  0  0  0  0  0
   -4.4779   -4.9316    0.0249 H   0  0  0  0  0  0  0  0  0  0  0  0
   -3.5817   -4.0375   -2.1075 H   0  0  0  0  0  0  0  0  0  0  0  0
   -3.3149   -1.5996   -2.4101 H   0  0  0  0  0  0  0  0  0  0  0  0
   -5.8055    4.1202   -1.9879 H   0  0  0  0  0  0  0  0  0  0  0  0
   -4.2515    6.0556   -1.9306 H   0  0  0  0  0  0  0  0  0  0  0  0
   -1.9111    5.7531   -1.1872 H   0  0  0  0  0  0  0  0  0  0  0  0
   -1.0999    3.5232   -0.4969 H   0  0  0  0  0  0  0  0  0  0  0  0
   -2.1398    0.3225    2.0039 H   0  0  0  0  0  0  0  0  0  0  0  0
    0.0135   -0.6157    2.7652 H   0  0  0  0  0  0  0  0  0  0  0  0
    3.7103   -2.1771    1.0447 H   0  0  0  0  0  0  0  0  0  0  0  0
    2.8405   -1.7845   -0.4203 H   0  0  0  0  0  0  0  0  0  0  0  0
    3.5361    0.6890    0.0207 H   0  0  0  0  0  0  0  0  0  0  0  0
    4.5322    0.1214    1.3362 H   0  0  0  0  0  0  0  0  0  0  0  0
    5.6963   -2.3921   -0.0298 H   0  0  0  0  0  0  0  0  0  0  0  0
    6.5726   -1.1215    0.8475 H   0  0  0  0  0  0  0  0  0  0  0  0
    7.0272   -1.9742   -2.0761 H   0  0  0  0  0  0  0  0  0  0  0  0
    8.0890   -2.2844   -0.6958 H   0  0  0  0  0  0  0  0  0  0  0  0
    7.6752    1.5775   -1.9631 H   0  0  0  0  0  0  0  0  0  0  0  0
    6.7777    0.3210   -2.8266 H   0  0  0  0  0  0  0  0  0  0  0  0
    5.2667    1.5961   -1.3152 H   0  0  0  0  0  0  0  0  0  0  0  0
    6.3279    1.2653    0.0694 H   0  0  0  0  0  0  0  0  0  0  0  0
    1.5871   -0.2176   -1.2322 H   0  0  0  0  0  0  0  0  0  0  0  0
   -0.5440    0.6990   -1.9812 H   0  0  0  0  0  0  0  0  0  0  0  0
  1  2  1  0
  2  3  1  0
  3  4  2  0
  4  5  1  0
  5  6  2  0
  6  7  1  0
  7  8  2  0
  8  9  1  0
  9 10  1  0
 10 11  1  0
 11 12  2  0
 12 13  1  0
 13 14  2  0
 14 15  1  0
 15 16  2  0
 16 17  1  0
 17 18  1  0
 18 19  2  0
 19 20  1  0
 20 21  2  0
 21 22  1  0
 22 23  1  0
 23 24  1  0
 24 25  1  0
 25 26  1  0
 26 27  1  0
 27 28  1  0
 28 29  1  0
 29 30  1  0
 21 31  1  0
 31 32  2  0
  8  3  1  0
 17  9  2  0
 32 18  1  0
 16 11  1  0
 30 25  1  0
  1 33  1  0
  1 34  1  0
  1 35  1  0
  4 36  1  0
  5 37  1  0
  6 38  1  0
  7 39  1  0
 12 40  1  0
 13 41  1  0
 14 42  1  0
 15 43  1  0
 19 44  1  0
 20 45  1  0
 23 46  1  0
 23 47  1  0
 24 48  1  0
 24 49  1  0
 26 50  1  0
 26 51  1  0
 27 52  1  0
 27 53  1  0
 29 54  1  0
 29 55  1  0
 30 56  1  0
 30 57  1  0
 31 58  1  0
 32 59  1  0
M  END
$$$$
