
     RDKit          3D

 55 58  0  0  0  0  0  0  0  0999 V2000
   -0.7458    2.4950   -2.8933 C   0  0  0  0  0  0  0  0  0  0  0  0
   -1.2658    1.7663   -1.7762 O   0  0  0  0  0  0  0  0  0  0  0  0
   -2.4188    2.2740   -1.2689 C   0  0  0  0  0  0  0  0  0  0  0  0
   -2.9887    3.2665   -1.6969 O   0  0  0  0  0  0  0  0  0  0  0  0
   -2.9378    1.4597   -0.1230 C   0  0  0  0  0  0  0  0  0  0  0  0
   -4.2203    1.8268    0.3327 C   0  0  0  0  0  0  0  0  0  0  0  0
   -4.8328    1.1538    1.3911 C   0  0  0  0  0  0  0  0  0  0  0  0
   -6.0771    1.4525    1.8858 O   0  0  0  0  0  0  0  0  0  0  0  0
   -6.7760    2.5483    1.3119 C   0  0  0  0  0  0  0  0  0  0  0  0
   -4.1573    0.0905    2.0113 C   0  0  0  0  0  0  0  0  0  0  0  0
   -4.8249   -0.5261    3.0412 O   0  0  0  0  0  0  0  0  0  0  0  0
   -4.1687   -1.5932    3.7130 C   0  0  0  0  0  0  0  0  0  0  0  0
   -2.8805   -0.2762    1.5638 C   0  0  0  0  0  0  0  0  0  0  0  0
   -2.2511    0.3952    0.5042 C   0  0  0  0  0  0  0  0  0  0  0  0
   -0.9572    0.0217    0.0629 N   0  0  0  0  0  0  0  0  0  0  0  0
   -0.1236   -0.9651    0.5481 C   0  0  0  0  0  0  0  0  0  0  0  0
   -0.3045   -1.6949    1.5126 O   0  0  0  0  0  0  0  0  0  0  0  0
    1.1639   -1.0709   -0.1793 C   0  0  0  0  0  0  0  0  0  0  0  0
    2.3169   -0.8937    0.5875 C   0  0  0  0  0  0  0  0  0  0  0  0
    3.5449   -0.9078   -0.0497 C   0  0  0  0  0  0  0  0  0  0  0  0
    4.8292   -0.7154    0.6589 C   0  0  0  0  0  0  0  0  0  0  0  0
    4.9340    0.0563    1.8318 C   0  0  0  0  0  0  0  0  0  0  0  0
    6.1585    0.2221    2.4890 C   0  0  0  0  0  0  0  0  0  0  0  0
    7.3087   -0.3775    1.9858 C   0  0  0  0  0  0  0  0  0  0  0  0
    7.2372   -1.1388    0.8241 C   0  0  0  0  0  0  0  0  0  0  0  0
    6.0123   -1.3022    0.1698 C   0  0  0  0  0  0  0  0  0  0  0  0
    3.6356   -1.1010   -1.3900 N   0  0  0  0  0  0  0  0  0  0  0  0
    2.5279   -1.3049   -2.1221 C   0  0  0  0  0  0  0  0  0  0  0  0
    2.6724   -1.5174   -3.4867 C   0  0  0  0  0  0  0  0  0  0  0  0
    1.5772   -1.7549   -4.3200 C   0  0  0  0  0  0  0  0  0  0  0  0
    0.3002   -1.7916   -3.7809 C   0  0  0  0  0  0  0  0  0  0  0  0
    0.1279   -1.5786   -2.4148 C   0  0  0  0  0  0  0  0  0  0  0  0
    1.2364   -1.3136   -1.5681 C   0  0  0  0  0  0  0  0  0  0  0  0
   -0.5045    3.5216   -2.6011 H   0  0  0  0  0  0  0  0  0  0  0  0
    0.1741    2.0010   -3.2182 H   0  0  0  0  0  0  0  0  0  0  0  0
   -1.4589    2.4820   -3.7233 H   0  0  0  0  0  0  0  0  0  0  0  0
   -4.7289    2.6495   -0.1629 H   0  0  0  0  0  0  0  0  0  0  0  0
   -6.2216    3.4835    1.4428 H   0  0  0  0  0  0  0  0  0  0  0  0
   -6.9996    2.3636    0.2562 H   0  0  0  0  0  0  0  0  0  0  0  0
   -7.7289    2.6506    1.8401 H   0  0  0  0  0  0  0  0  0  0  0  0
   -3.9790   -2.4303    3.0332 H   0  0  0  0  0  0  0  0  0  0  0  0
   -3.2453   -1.2511    4.1915 H   0  0  0  0  0  0  0  0  0  0  0  0
   -4.8373   -1.9521    4.5015 H   0  0  0  0  0  0  0  0  0  0  0  0
   -2.3727   -1.0992    2.0496 H   0  0  0  0  0  0  0  0  0  0  0  0
   -0.5981    0.5699   -0.7171 H   0  0  0  0  0  0  0  0  0  0  0  0
    2.2360   -0.7547    1.6609 H   0  0  0  0  0  0  0  0  0  0  0  0
    4.0635    0.5579    2.2478 H   0  0  0  0  0  0  0  0  0  0  0  0
    6.2117    0.8247    3.3924 H   0  0  0  0  0  0  0  0  0  0  0  0
    8.2599   -0.2483    2.4952 H   0  0  0  0  0  0  0  0  0  0  0  0
    8.1316   -1.6071    0.4218 H   0  0  0  0  0  0  0  0  0  0  0  0
    5.9821   -1.9029   -0.7384 H   0  0  0  0  0  0  0  0  0  0  0  0
    3.6729   -1.5046   -3.9149 H   0  0  0  0  0  0  0  0  0  0  0  0
    1.7305   -1.9234   -5.3830 H   0  0  0  0  0  0  0  0  0  0  0  0
   -0.5581   -1.9953   -4.4167 H   0  0  0  0  0  0  0  0  0  0  0  0
   -0.8817   -1.6402   -2.0128 H   0  0  0  0  0  0  0  0  0  0  0  0
  1  2  1  0
  2  3  1  0
  3  4  2  0
  3  5  1  0
  5  6  2  0
  6  7  1  0
  7  8  1  0
  8  9  1  0
  7 10  2  0
 10 11  1  0
 11 12  1  0
 10 13  1  0
 13 14  2  0
 14 15  1  0
 15 16  1  0
 16 17  2  0
 16 18  1  0
 18 19  2  0
 19 20  1  0
 20 21  1  0
 21 22  2  0
 22 23  1  0
 23 24  2  0
 24 25  1  0
 25 26  2  0
 20 27  2  0
 27 28  1  0
 28 29  2  0
 29 30  1  0
 30 31  2  0
 31 32  1  0
 32 33  2  0
 14  5  1  0
 33 18  1  0
 26 21  1  0
 33 28  1  0
  1 34  1  0
  1 35  1  0
  1 36  1  0
  6 37  1  0
  9 38  1  0
  9 39  1  0
  9 40  1  0
 12 41  1  0
 12 42  1  0
 12 43  1  0
 13 44  1  0
 15 45  1  0
 19 46  1  0
 22 47  1  0
 23 48  1  0
 24 49  1  0
 25 50  1  0
 26 51  1  0
 29 52  1  0
 30 53  1  0
 31 54  1  0
 32 55  1  0
M  END
$$$$
