
     RDKit          3D

 51 53  0  0  0  0  0  0  0  0999 V2000
   -4.2560   -4.0516    1.9136 C   0  0  0  0  0  0  0  0  0  0  0  0
   -3.2878   -3.9735    0.8775 O   0  0  0  0  0  0  0  0  0  0  0  0
   -2.8195   -2.7287    0.5350 C   0  0  0  0  0  0  0  0  0  0  0  0
   -3.2422   -1.5337    1.1274 C   0  0  0  0  0  0  0  0  0  0  0  0
   -2.7041   -0.3018    0.7243 C   0  0  0  0  0  0  0  0  0  0  0  0
   -1.7458   -0.2572   -0.3008 C   0  0  0  0  0  0  0  0  0  0  0  0
   -1.3294   -1.4616   -0.8991 C   0  0  0  0  0  0  0  0  0  0  0  0
   -1.8524   -2.6924   -0.4871 C   0  0  0  0  0  0  0  0  0  0  0  0
   -1.4867   -3.9061   -1.0153 O   0  0  0  0  0  0  0  0  0  0  0  0
   -0.5043   -3.9123   -2.0409 C   0  0  0  0  0  0  0  0  0  0  0  0
   -1.1357    1.0661   -0.7574 C   0  0  0  0  0  0  0  0  0  0  0  0
    0.3670    1.1853   -0.4973 C   0  0  0  0  0  0  0  0  0  0  0  0
    0.9584    0.7093    0.6837 C   0  0  0  0  0  0  0  0  0  0  0  0
    2.3325    0.8340    0.8855 C   0  0  0  0  0  0  0  0  0  0  0  0
    2.9048    0.3852    2.0484 O   0  0  0  0  0  0  0  0  0  0  0  0
    2.8793   -1.0412    2.1101 C   0  0  0  0  0  0  0  0  0  0  0  0
    3.1265    1.4859   -0.0633 C   0  0  0  0  0  0  0  0  0  0  0  0
    4.4839    1.5760    0.1390 O   0  0  0  0  0  0  0  0  0  0  0  0
    4.7874    2.7831    0.8367 C   0  0  0  0  0  0  0  0  0  0  0  0
    2.5620    1.9696   -1.2528 C   0  0  0  0  0  0  0  0  0  0  0  0
    3.4245    2.5717   -2.1316 O   0  0  0  0  0  0  0  0  0  0  0  0
    2.8984    3.0024   -3.3791 C   0  0  0  0  0  0  0  0  0  0  0  0
    1.1846    1.8211   -1.4559 C   0  0  0  0  0  0  0  0  0  0  0  0
   -1.8556    2.2594   -0.2749 N   0  0  0  0  0  0  0  0  0  0  0  0
   -2.2399    2.1455    1.1303 C   0  0  0  0  0  0  0  0  0  0  0  0
   -3.2035    0.9769    1.3482 C   0  0  0  0  0  0  0  0  0  0  0  0
   -3.8538   -3.6732    2.8595 H   0  0  0  0  0  0  0  0  0  0  0  0
   -5.1764   -3.5275    1.6352 H   0  0  0  0  0  0  0  0  0  0  0  0
   -4.5070   -5.1069    2.0586 H   0  0  0  0  0  0  0  0  0  0  0  0
   -3.9962   -1.5307    1.9078 H   0  0  0  0  0  0  0  0  0  0  0  0
   -0.5840   -1.4088   -1.6865 H   0  0  0  0  0  0  0  0  0  0  0  0
    0.4491   -3.5133   -1.6779 H   0  0  0  0  0  0  0  0  0  0  0  0
   -0.3366   -4.9524   -2.3378 H   0  0  0  0  0  0  0  0  0  0  0  0
   -0.8523   -3.3676   -2.9249 H   0  0  0  0  0  0  0  0  0  0  0  0
   -1.2733    1.0744   -1.8479 H   0  0  0  0  0  0  0  0  0  0  0  0
    0.3504    0.2416    1.4534 H   0  0  0  0  0  0  0  0  0  0  0  0
    3.2295   -1.4957    1.1750 H   0  0  0  0  0  0  0  0  0  0  0  0
    1.8746   -1.4016    2.3583 H   0  0  0  0  0  0  0  0  0  0  0  0
    3.5560   -1.3524    2.9120 H   0  0  0  0  0  0  0  0  0  0  0  0
    4.3224    2.7988    1.8290 H   0  0  0  0  0  0  0  0  0  0  0  0
    4.4841    3.6654    0.2611 H   0  0  0  0  0  0  0  0  0  0  0  0
    5.8723    2.8254    0.9731 H   0  0  0  0  0  0  0  0  0  0  0  0
    2.4819    2.1624   -3.9447 H   0  0  0  0  0  0  0  0  0  0  0  0
    2.1550    3.7942   -3.2402 H   0  0  0  0  0  0  0  0  0  0  0  0
    3.7235    3.4206   -3.9640 H   0  0  0  0  0  0  0  0  0  0  0  0
    0.7141    2.1967   -2.3600 H   0  0  0  0  0  0  0  0  0  0  0  0
   -1.2609    3.0761   -0.4031 H   0  0  0  0  0  0  0  0  0  0  0  0
   -2.7348    3.0731    1.4399 H   0  0  0  0  0  0  0  0  0  0  0  0
   -1.3560    2.0391    1.7692 H   0  0  0  0  0  0  0  0  0  0  0  0
   -3.3480    0.8355    2.4260 H   0  0  0  0  0  0  0  0  0  0  0  0
   -4.1798    1.2151    0.9074 H   0  0  0  0  0  0  0  0  0  0  0  0
  1  2  1  0
  2  3  1  0
  3  4  2  0
  4  5  1  0
  5  6  2  0
  6  7  1  0
  7  8  2  0
  8  9  1  0
  9 10  1  0
  6 11  1  0
 11 12  1  0
 12 13  2  0
 13 14  1  0
 14 15  1  0
 15 16  1  0
 14 17  2  0
 17 18  1  0
 18 19  1  0
 17 20  1  0
 20 21  1  0
 21 22  1  0
 20 23  2  0
 11 24  1  0
 24 25  1  0
 25 26  1  0
  8  3  1  0
 23 12  1  0
 26  5  1  0
  1 27  1  0
  1 28  1  0
  1 29  1  0
  4 30  1  0
  7 31  1  0
 10 32  1  0
 10 33  1  0
 10 34  1  0
 11 35  1  0
 13 36  1  0
 16 37  1  0
 16 38  1  0
 16 39  1  0
 19 40  1  0
 19 41  1  0
 19 42  1  0
 22 43  1  0
 22 44  1  0
 22 45  1  0
 23 46  1  0
 24 47  1  0
 25 48  1  0
 25 49  1  0
 26 50  1  0
 26 51  1  0
M  END
$$$$
