
     RDKit          3D

 64 67  0  0  0  0  0  0  0  0999 V2000
   -1.1907    1.9161   -4.1880 C   0  0  0  0  0  0  0  0  0  0  0  0
   -0.9747    1.2004   -2.9791 O   0  0  0  0  0  0  0  0  0  0  0  0
   -1.3262    1.7990   -1.7949 C   0  0  0  0  0  0  0  0  0  0  0  0
   -1.9931    3.0331   -1.7167 C   0  0  0  0  0  0  0  0  0  0  0  0
   -2.3261    3.6017   -0.4809 C   0  0  0  0  0  0  0  0  0  0  0  0
   -2.9747    4.8024   -0.3292 O   0  0  0  0  0  0  0  0  0  0  0  0
   -3.2943    5.5404   -1.5015 C   0  0  0  0  0  0  0  0  0  0  0  0
   -1.9919    2.9223    0.6997 C   0  0  0  0  0  0  0  0  0  0  0  0
   -2.2989    3.4563    2.0264 C   0  0  0  0  0  0  0  0  0  0  0  0
   -1.9635    2.7809    3.1285 C   0  0  0  0  0  0  0  0  0  0  0  0
   -1.2842    1.4813    3.0675 C   0  0  0  0  0  0  0  0  0  0  0  0
   -0.9999    0.8650    4.0875 O   0  0  0  0  0  0  0  0  0  0  0  0
   -1.0011    0.9969    1.8014 O   0  0  0  0  0  0  0  0  0  0  0  0
   -1.3356    1.6889    0.6115 C   0  0  0  0  0  0  0  0  0  0  0  0
   -0.9882    1.0966   -0.6185 C   0  0  0  0  0  0  0  0  0  0  0  0
   -0.2445   -0.2463   -0.6942 C   0  0  0  0  0  0  0  0  0  0  0  0
   -1.0683   -1.3976   -0.0554 C   0  0  0  0  0  0  0  0  0  0  0  0
   -0.5478   -2.7843   -0.4770 C   0  0  0  0  0  0  0  0  0  0  0  0
   -1.2136   -3.9498    0.1041 N   0  0  0  0  0  0  0  0  0  0  0  0
   -2.6538   -4.0311   -0.1037 C   0  0  0  0  0  0  0  0  0  0  0  0
   -3.0340   -5.2171    0.7695 C   0  0  0  0  0  0  0  0  0  0  0  0
   -2.0005   -5.2280    1.8927 C   0  0  0  0  0  0  0  0  0  0  0  0
   -1.0064   -4.1290    1.5375 C   0  0  0  0  0  0  0  0  0  0  0  0
    1.2079   -0.1144   -0.2387 C   0  0  0  0  0  0  0  0  0  0  0  0
    1.6529   -0.4692    1.0357 C   0  0  0  0  0  0  0  0  0  0  0  0
    2.9994   -0.3093    1.4031 C   0  0  0  0  0  0  0  0  0  0  0  0
    3.9685    0.1979    0.5221 C   0  0  0  0  0  0  0  0  0  0  0  0
    5.3090    0.3688    0.8944 N   0  0  0  0  0  0  0  0  0  0  0  0
    6.3162    0.4383   -0.1633 C   0  0  0  0  0  0  0  0  0  0  0  0
    5.7683   -0.1916    2.1635 C   0  0  0  0  0  0  0  0  0  0  0  0
    3.4963    0.5708   -0.7467 C   0  0  0  0  0  0  0  0  0  0  0  0
    2.1528    0.4187   -1.1226 C   0  0  0  0  0  0  0  0  0  0  0  0
   -2.2600    2.0632   -4.3713 H   0  0  0  0  0  0  0  0  0  0  0  0
   -0.6516    2.8693   -4.1868 H   0  0  0  0  0  0  0  0  0  0  0  0
   -0.7935    1.3114   -5.0090 H   0  0  0  0  0  0  0  0  0  0  0  0
   -2.2568    3.5532   -2.6281 H   0  0  0  0  0  0  0  0  0  0  0  0
   -4.0008    4.9910   -2.1320 H   0  0  0  0  0  0  0  0  0  0  0  0
   -2.3907    5.8101   -2.0578 H   0  0  0  0  0  0  0  0  0  0  0  0
   -3.7813    6.4691   -1.1887 H   0  0  0  0  0  0  0  0  0  0  0  0
   -2.8009    4.4154    2.0998 H   0  0  0  0  0  0  0  0  0  0  0  0
   -2.1788    3.1594    4.1197 H   0  0  0  0  0  0  0  0  0  0  0  0
   -0.1782   -0.5394   -1.7505 H   0  0  0  0  0  0  0  0  0  0  0  0
   -2.1092   -1.2964   -0.3883 H   0  0  0  0  0  0  0  0  0  0  0  0
   -1.0857   -1.3186    1.0342 H   0  0  0  0  0  0  0  0  0  0  0  0
    0.5233   -2.8659   -0.2585 H   0  0  0  0  0  0  0  0  0  0  0  0
   -0.6260   -2.8670   -1.5688 H   0  0  0  0  0  0  0  0  0  0  0  0
   -2.9158   -4.2034   -1.1520 H   0  0  0  0  0  0  0  0  0  0  0  0
   -3.1809   -3.1384    0.2512 H   0  0  0  0  0  0  0  0  0  0  0  0
   -4.0547   -5.1289    1.1547 H   0  0  0  0  0  0  0  0  0  0  0  0
   -2.9695   -6.1519    0.1996 H   0  0  0  0  0  0  0  0  0  0  0  0
   -2.4653   -5.0407    2.8664 H   0  0  0  0  0  0  0  0  0  0  0  0
   -1.5082   -6.2063    1.9376 H   0  0  0  0  0  0  0  0  0  0  0  0
   -1.2450   -3.2272    2.1120 H   0  0  0  0  0  0  0  0  0  0  0  0
    0.0202   -4.4279    1.7718 H   0  0  0  0  0  0  0  0  0  0  0  0
    0.9685   -0.8664    1.7809 H   0  0  0  0  0  0  0  0  0  0  0  0
    3.2606   -0.6009    2.4158 H   0  0  0  0  0  0  0  0  0  0  0  0
    6.1887    1.3374   -0.7751 H   0  0  0  0  0  0  0  0  0  0  0  0
    7.3274    0.5014    0.2545 H   0  0  0  0  0  0  0  0  0  0  0  0
    6.2798   -0.4509   -0.8025 H   0  0  0  0  0  0  0  0  0  0  0  0
    5.2115    0.2277    3.0085 H   0  0  0  0  0  0  0  0  0  0  0  0
    5.6802   -1.2837    2.1679 H   0  0  0  0  0  0  0  0  0  0  0  0
    6.8198    0.0577    2.3460 H   0  0  0  0  0  0  0  0  0  0  0  0
    4.1626    1.0080   -1.4834 H   0  0  0  0  0  0  0  0  0  0  0  0
    1.8513    0.7317   -2.1205 H   0  0  0  0  0  0  0  0  0  0  0  0
  1  2  1  0
  2  3  1  0
  3  4  2  0
  4  5  1  0
  5  6  1  0
  6  7  1  0
  5  8  2  0
  8  9  1  0
  9 10  2  0
 10 11  1  0
 11 12  2  0
 11 13  1  0
 13 14  1  0
 14 15  2  0
 15 16  1  0
 16 17  1  0
 17 18  1  0
 18 19  1  0
 19 20  1  0
 20 21  1  0
 21 22  1  0
 22 23  1  0
 16 24  1  0
 24 25  2  0
 25 26  1  0
 26 27  2  0
 27 28  1  0
 28 29  1  0
 28 30  1  0
 27 31  1  0
 31 32  2  0
 15  3  1  0
 23 19  1  0
 32 24  1  0
 14  8  1  0
  1 33  1  0
  1 34  1  0
  1 35  1  0
  4 36  1  0
  7 37  1  0
  7 38  1  0
  7 39  1  0
  9 40  1  0
 10 41  1  0
 16 42  1  0
 17 43  1  0
 17 44  1  0
 18 45  1  0
 18 46  1  0
 20 47  1  0
 20 48  1  0
 21 49  1  0
 21 50  1  0
 22 51  1  0
 22 52  1  0
 23 53  1  0
 23 54  1  0
 25 55  1  0
 26 56  1  0
 29 57  1  0
 29 58  1  0
 29 59  1  0
 30 60  1  0
 30 61  1  0
 30 62  1  0
 31 63  1  0
 32 64  1  0
M  END
$$$$
