
     RDKit          3D

 50 52  0  0  0  0  0  0  0  0999 V2000
   -3.3187   -1.4695   -3.0082 C   0  0  0  0  0  0  0  0  0  0  0  0
   -4.0202   -1.4640   -1.7724 O   0  0  0  0  0  0  0  0  0  0  0  0
   -3.4865   -0.7344   -0.7423 C   0  0  0  0  0  0  0  0  0  0  0  0
   -2.3549    0.0731   -0.8412 C   0  0  0  0  0  0  0  0  0  0  0  0
   -1.8894    0.7565    0.2893 C   0  0  0  0  0  0  0  0  0  0  0  0
   -0.6913    1.6206    0.2013 C   0  0  0  0  0  0  0  0  0  0  0  0
   -0.7986    2.7872    0.5703 O   0  0  0  0  0  0  0  0  0  0  0  0
    0.4919    1.0819   -0.2882 N   0  0  0  0  0  0  0  0  0  0  0  0
    0.7696   -0.3585   -0.4244 C   0  0  0  0  0  0  0  0  0  0  0  0
    2.2489   -0.6979   -0.1650 C   0  0  0  0  0  0  0  0  0  0  0  0
    3.1390    0.0584   -1.0763 N   0  0  0  0  0  0  0  0  0  0  0  0
    4.4985   -0.1067   -0.7481 C   0  0  0  0  0  0  0  0  0  0  0  0
    5.1522    0.7797    0.1255 C   0  0  0  0  0  0  0  0  0  0  0  0
    6.4949    0.5947    0.4646 C   0  0  0  0  0  0  0  0  0  0  0  0
    7.2614    1.6996    1.5387 Cl  0  0  0  0  0  0  0  0  0  0  0  0
    7.2171   -0.4768   -0.0514 C   0  0  0  0  0  0  0  0  0  0  0  0
    6.5904   -1.3746   -0.9137 C   0  0  0  0  0  0  0  0  0  0  0  0
    5.2452   -1.1946   -1.2569 C   0  0  0  0  0  0  0  0  0  0  0  0
    4.5433   -2.3392   -2.3518 Cl  0  0  0  0  0  0  0  0  0  0  0  0
    2.6842    1.4205   -1.4400 C   0  0  0  0  0  0  0  0  0  0  0  0
    1.6393    1.9785   -0.4608 C   0  0  0  0  0  0  0  0  0  0  0  0
   -2.5665    0.6833    1.5126 C   0  0  0  0  0  0  0  0  0  0  0  0
   -3.7025   -0.1156    1.6277 C   0  0  0  0  0  0  0  0  0  0  0  0
   -4.4321   -0.2802    2.7763 O   0  0  0  0  0  0  0  0  0  0  0  0
   -4.0011    0.4230    3.9338 C   0  0  0  0  0  0  0  0  0  0  0  0
   -4.1578   -0.8140    0.4929 C   0  0  0  0  0  0  0  0  0  0  0  0
   -5.2482   -1.6493    0.6098 O   0  0  0  0  0  0  0  0  0  0  0  0
   -6.4448   -0.9257    0.3262 C   0  0  0  0  0  0  0  0  0  0  0  0
   -2.3036   -1.8617   -2.8863 H   0  0  0  0  0  0  0  0  0  0  0  0
   -3.8528   -2.1351   -3.6932 H   0  0  0  0  0  0  0  0  0  0  0  0
   -3.3061   -0.4709   -3.4569 H   0  0  0  0  0  0  0  0  0  0  0  0
   -1.8247    0.1985   -1.7788 H   0  0  0  0  0  0  0  0  0  0  0  0
    0.1396   -0.9289    0.2649 H   0  0  0  0  0  0  0  0  0  0  0  0
    0.5025   -0.6379   -1.4501 H   0  0  0  0  0  0  0  0  0  0  0  0
    2.4873   -0.4585    0.8802 H   0  0  0  0  0  0  0  0  0  0  0  0
    2.3932   -1.7755   -0.3022 H   0  0  0  0  0  0  0  0  0  0  0  0
    4.6115    1.6139    0.5632 H   0  0  0  0  0  0  0  0  0  0  0  0
    8.2617   -0.6192    0.2128 H   0  0  0  0  0  0  0  0  0  0  0  0
    7.1530   -2.2115   -1.3197 H   0  0  0  0  0  0  0  0  0  0  0  0
    2.2239    1.3455   -2.4334 H   0  0  0  0  0  0  0  0  0  0  0  0
    3.5166    2.1264   -1.5454 H   0  0  0  0  0  0  0  0  0  0  0  0
    2.0851    2.1223    0.5308 H   0  0  0  0  0  0  0  0  0  0  0  0
    1.2876    2.9563   -0.8085 H   0  0  0  0  0  0  0  0  0  0  0  0
   -2.1796    1.2570    2.3489 H   0  0  0  0  0  0  0  0  0  0  0  0
   -2.9992    0.1040    4.2394 H   0  0  0  0  0  0  0  0  0  0  0  0
   -4.6902    0.1799    4.7484 H   0  0  0  0  0  0  0  0  0  0  0  0
   -4.0418    1.5057    3.7758 H   0  0  0  0  0  0  0  0  0  0  0  0
   -6.5980   -0.1095    1.0404 H   0  0  0  0  0  0  0  0  0  0  0  0
   -6.4439   -0.5371   -0.6981 H   0  0  0  0  0  0  0  0  0  0  0  0
   -7.2854   -1.6194    0.4223 H   0  0  0  0  0  0  0  0  0  0  0  0
  1  2  1  0
  2  3  1  0
  3  4  2  0
  4  5  1  0
  5  6  1  0
  6  7  2  0
  6  8  1  0
  8  9  1  0
  9 10  1  0
 10 11  1  0
 11 12  1  0
 12 13  2  0
 13 14  1  0
 14 15  1  0
 14 16  2  0
 16 17  1  0
 17 18  2  0
 18 19  1  0
 11 20  1  0
 20 21  1  0
  5 22  2  0
 22 23  1  0
 23 24  1  0
 24 25  1  0
 23 26  2  0
 26 27  1  0
 27 28  1  0
 26  3  1  0
 21  8  1  0
 18 12  1  0
  1 29  1  0
  1 30  1  0
  1 31  1  0
  4 32  1  0
  9 33  1  0
  9 34  1  0
 10 35  1  0
 10 36  1  0
 13 37  1  0
 16 38  1  0
 17 39  1  0
 20 40  1  0
 20 41  1  0
 21 42  1  0
 21 43  1  0
 22 44  1  0
 25 45  1  0
 25 46  1  0
 25 47  1  0
 28 48  1  0
 28 49  1  0
 28 50  1  0
M  END
$$$$
