
     RDKit          3D

 47 49  0  0  0  0  0  0  0  0999 V2000
    7.1180    1.1967    1.2338 C   0  0  0  0  0  0  0  0  0  0  0  0
    6.1884    0.2121    0.5331 C   0  0  0  0  0  0  0  0  0  0  0  0
    6.2678   -1.1670    1.1835 C   0  0  0  0  0  0  0  0  0  0  0  0
    4.8248    0.7097    0.5564 N   0  0  0  0  0  0  0  0  0  0  0  0
    3.8826    0.3242   -0.3728 C   0  0  0  0  0  0  0  0  0  0  0  0
    4.0849   -0.3518   -1.3704 O   0  0  0  0  0  0  0  0  0  0  0  0
    2.4597    0.8183   -0.0483 C   0  0  0  0  0  0  0  0  0  0  0  0
    2.2242    1.4048    1.0021 O   0  0  0  0  0  0  0  0  0  0  0  0
    1.5339    0.5211   -1.0254 N   0  0  0  0  0  0  0  0  0  0  0  0
    0.1725    0.6663   -0.7124 N   0  0  0  0  0  0  0  0  0  0  0  0
   -0.6775   -0.3559   -1.0926 C   0  0  0  0  0  0  0  0  0  0  0  0
   -0.3013   -1.2647   -1.8323 O   0  0  0  0  0  0  0  0  0  0  0  0
   -2.1008   -0.2680   -0.5226 C   0  0  0  0  0  0  0  0  0  0  0  0
   -2.9671   -1.4242   -1.0863 C   0  0  0  0  0  0  0  0  0  0  0  0
   -4.3977   -1.3581   -0.5275 C   0  0  0  0  0  0  0  0  0  0  0  0
   -4.3454   -1.4684    1.0045 C   0  0  0  0  0  0  0  0  0  0  0  0
   -3.5100   -0.3169    1.5860 C   0  0  0  0  0  0  0  0  0  0  0  0
   -4.1465    1.0244    1.1833 C   0  0  0  0  0  0  0  0  0  0  0  0
   -4.1998    1.1457   -0.3494 C   0  0  0  0  0  0  0  0  0  0  0  0
   -5.0311   -0.0140   -0.9205 C   0  0  0  0  0  0  0  0  0  0  0  0
   -2.7694    1.0725   -0.9123 C   0  0  0  0  0  0  0  0  0  0  0  0
   -2.0803   -0.3879    1.0206 C   0  0  0  0  0  0  0  0  0  0  0  0
    8.1560    0.8504    1.1957 H   0  0  0  0  0  0  0  0  0  0  0  0
    6.8396    1.3281    2.2855 H   0  0  0  0  0  0  0  0  0  0  0  0
    7.0711    2.1810    0.7553 H   0  0  0  0  0  0  0  0  0  0  0  0
    6.4965    0.1194   -0.5153 H   0  0  0  0  0  0  0  0  0  0  0  0
    7.2924   -1.5524    1.1584 H   0  0  0  0  0  0  0  0  0  0  0  0
    5.6252   -1.8847    0.6623 H   0  0  0  0  0  0  0  0  0  0  0  0
    5.9406   -1.1314    2.2286 H   0  0  0  0  0  0  0  0  0  0  0  0
    4.4640    1.1597    1.3944 H   0  0  0  0  0  0  0  0  0  0  0  0
    1.7749   -0.1731   -1.7389 H   0  0  0  0  0  0  0  0  0  0  0  0
   -0.0333    1.2594    0.0893 H   0  0  0  0  0  0  0  0  0  0  0  0
   -2.5186   -2.3941   -0.8331 H   0  0  0  0  0  0  0  0  0  0  0  0
   -2.9973   -1.3758   -2.1829 H   0  0  0  0  0  0  0  0  0  0  0  0
   -4.9935   -2.1813   -0.9374 H   0  0  0  0  0  0  0  0  0  0  0  0
   -3.9101   -2.4320    1.2966 H   0  0  0  0  0  0  0  0  0  0  0  0
   -5.3614   -1.4399    1.4171 H   0  0  0  0  0  0  0  0  0  0  0  0
   -3.4791   -0.3981    2.6783 H   0  0  0  0  0  0  0  0  0  0  0  0
   -3.5679    1.8555    1.6051 H   0  0  0  0  0  0  0  0  0  0  0  0
   -5.1588    1.0979    1.5995 H   0  0  0  0  0  0  0  0  0  0  0  0
   -4.6578    2.1011   -0.6289 H   0  0  0  0  0  0  0  0  0  0  0  0
   -6.0593    0.0403   -0.5424 H   0  0  0  0  0  0  0  0  0  0  0  0
   -5.0887    0.0685   -2.0128 H   0  0  0  0  0  0  0  0  0  0  0  0
   -2.1904    1.9236   -0.5322 H   0  0  0  0  0  0  0  0  0  0  0  0
   -2.7903    1.1800   -2.0047 H   0  0  0  0  0  0  0  0  0  0  0  0
   -1.6056   -1.3319    1.3188 H   0  0  0  0  0  0  0  0  0  0  0  0
   -1.4780    0.4113    1.4696 H   0  0  0  0  0  0  0  0  0  0  0  0
  1  2  1  0
  2  3  1  0
  2  4  1  0
  4  5  1  0
  5  6  2  0
  5  7  1  0
  7  8  2  0
  7  9  1  0
  9 10  1  0
 10 11  1  0
 11 12  2  0
 11 13  1  0
 13 14  1  0
 14 15  1  0
 15 16  1  0
 16 17  1  0
 17 18  1  0
 18 19  1  0
 19 20  1  0
 19 21  1  0
 17 22  1  0
 21 13  1  0
 22 13  1  0
 20 15  1  0
  1 23  1  0
  1 24  1  0
  1 25  1  0
  2 26  1  0
  3 27  1  0
  3 28  1  0
  3 29  1  0
  4 30  1  0
  9 31  1  0
 10 32  1  0
 14 33  1  0
 14 34  1  0
 15 35  1  0
 16 36  1  0
 16 37  1  0
 17 38  1  0
 18 39  1  0
 18 40  1  0
 19 41  1  0
 20 42  1  0
 20 43  1  0
 21 44  1  0
 21 45  1  0
 22 46  1  0
 22 47  1  0
M  END
$$$$
