
     RDKit          3D

 37 39  0  0  0  0  0  0  0  0999 V2000
   -4.4424   -2.6996   -0.8592 C   0  0  0  0  0  0  0  0  0  0  0  0
   -4.4008   -1.6366   -1.8045 O   0  0  0  0  0  0  0  0  0  0  0  0
   -3.3369   -0.7735   -1.7168 C   0  0  0  0  0  0  0  0  0  0  0  0
   -2.2983   -0.8440   -0.7898 C   0  0  0  0  0  0  0  0  0  0  0  0
   -1.2607    0.1003   -0.8171 C   0  0  0  0  0  0  0  0  0  0  0  0
   -0.1946    0.0020    0.1896 C   0  0  0  0  0  0  0  0  0  0  0  0
    1.1098    0.1489   -0.0949 C   0  0  0  0  0  0  0  0  0  0  0  0
    2.0954    0.0252    0.9278 C   0  0  0  0  0  0  0  0  0  0  0  0
    1.8826   -0.2349    2.2031 N   0  0  0  0  0  0  0  0  0  0  0  0
    3.0759   -0.2804    2.9030 C   0  0  0  0  0  0  0  0  0  0  0  0
    3.2157   -0.5334    4.2828 C   0  0  0  0  0  0  0  0  0  0  0  0
    4.4888   -0.5503    4.8620 C   0  0  0  0  0  0  0  0  0  0  0  0
    5.6189   -0.3189    4.0844 C   0  0  0  0  0  0  0  0  0  0  0  0
    5.5061   -0.0655    2.7137 C   0  0  0  0  0  0  0  0  0  0  0  0
    4.2220   -0.0510    2.1436 C   0  0  0  0  0  0  0  0  0  0  0  0
    3.7624    0.2274    0.5112 S   0  0  0  0  0  0  0  0  0  0  0  0
   -1.2859    1.1372   -1.7653 C   0  0  0  0  0  0  0  0  0  0  0  0
   -2.3203    1.2240   -2.7008 C   0  0  0  0  0  0  0  0  0  0  0  0
   -2.4324    2.1889   -3.6661 O   0  0  0  0  0  0  0  0  0  0  0  0
   -1.4386    3.2022   -3.7022 C   0  0  0  0  0  0  0  0  0  0  0  0
   -3.3337    0.2597   -2.6650 C   0  0  0  0  0  0  0  0  0  0  0  0
   -4.3620    0.3205   -3.5761 O   0  0  0  0  0  0  0  0  0  0  0  0
   -5.3412   -3.2902   -1.0608 H   0  0  0  0  0  0  0  0  0  0  0  0
   -4.5187   -2.3154    0.1633 H   0  0  0  0  0  0  0  0  0  0  0  0
   -3.5771   -3.3613   -0.9714 H   0  0  0  0  0  0  0  0  0  0  0  0
   -2.2661   -1.6291   -0.0409 H   0  0  0  0  0  0  0  0  0  0  0  0
   -0.5183   -0.2278    1.2040 H   0  0  0  0  0  0  0  0  0  0  0  0
    1.4369    0.3501   -1.1106 H   0  0  0  0  0  0  0  0  0  0  0  0
    2.3308   -0.7131    4.8851 H   0  0  0  0  0  0  0  0  0  0  0  0
    4.5921   -0.7457    5.9268 H   0  0  0  0  0  0  0  0  0  0  0  0
    6.6037   -0.3347    4.5469 H   0  0  0  0  0  0  0  0  0  0  0  0
    6.3888    0.1152    2.1078 H   0  0  0  0  0  0  0  0  0  0  0  0
   -0.4921    1.8766   -1.7490 H   0  0  0  0  0  0  0  0  0  0  0  0
   -1.6889    3.8880   -4.5174 H   0  0  0  0  0  0  0  0  0  0  0  0
   -0.4512    2.7794   -3.9151 H   0  0  0  0  0  0  0  0  0  0  0  0
   -1.4295    3.7806   -2.7724 H   0  0  0  0  0  0  0  0  0  0  0  0
   -4.9402   -0.4345   -3.3597 H   0  0  0  0  0  0  0  0  0  0  0  0
  1  2  1  0
  2  3  1  0
  3  4  2  0
  4  5  1  0
  5  6  1  0
  6  7  2  3
  7  8  1  0
  8  9  2  0
  9 10  1  0
 10 11  2  0
 11 12  1  0
 12 13  2  0
 13 14  1  0
 14 15  2  0
 15 16  1  0
  5 17  2  0
 17 18  1  0
 18 19  1  0
 19 20  1  0
 18 21  2  0
 21 22  1  0
 21  3  1  0
 16  8  1  0
 15 10  1  0
  1 23  1  0
  1 24  1  0
  1 25  1  0
  4 26  1  0
  6 27  1  0
  7 28  1  0
 11 29  1  0
 12 30  1  0
 13 31  1  0
 14 32  1  0
 17 33  1  0
 20 34  1  0
 20 35  1  0
 20 36  1  0
 22 37  1  0
M  END
$$$$
