
     RDKit          3D

 55 58  0  0  0  0  0  0  0  0999 V2000
   -7.8712    0.9190   -0.4005 C   0  0  0  0  0  0  0  0  0  0  0  0
   -6.8968    0.0511    0.1606 O   0  0  0  0  0  0  0  0  0  0  0  0
   -5.5837    0.2949   -0.1467 C   0  0  0  0  0  0  0  0  0  0  0  0
   -5.1403    1.2638   -1.0459 C   0  0  0  0  0  0  0  0  0  0  0  0
   -3.7702    1.4280   -1.2908 C   0  0  0  0  0  0  0  0  0  0  0  0
   -2.8007    0.6372   -0.6485 C   0  0  0  0  0  0  0  0  0  0  0  0
   -1.3610    0.8450   -0.9142 C   0  0  0  0  0  0  0  0  0  0  0  0
   -0.4230   -0.1693   -0.8352 C   0  0  0  0  0  0  0  0  0  0  0  0
    0.9119    0.1448   -1.0860 C   0  0  0  0  0  0  0  0  0  0  0  0
    1.8843   -0.9556   -0.9582 C   0  0  0  0  0  0  0  0  0  0  0  0
    1.8923   -1.8139   -1.8354 O   0  0  0  0  0  0  0  0  0  0  0  0
    2.7273   -0.9726    0.1517 N   0  0  0  0  0  0  0  0  0  0  0  0
    2.6119   -0.0594    1.2947 C   0  0  0  0  0  0  0  0  0  0  0  0
    3.0296   -0.7382    2.5934 C   0  0  0  0  0  0  0  0  0  0  0  0
    4.4560   -1.2892    2.5323 C   0  0  0  0  0  0  0  0  0  0  0  0
    4.9148   -1.6276    1.1045 C   0  0  0  0  0  0  0  0  0  0  0  0
    5.9646   -2.7196    1.1029 C   0  0  0  0  0  0  0  0  0  0  0  0
    6.4181   -2.9594   -0.1452 F   0  0  0  0  0  0  0  0  0  0  0  0
    5.4782   -3.8778    1.5961 F   0  0  0  0  0  0  0  0  0  0  0  0
    7.0274   -2.3647    1.8585 F   0  0  0  0  0  0  0  0  0  0  0  0
    3.7356   -2.0336    0.2288 C   0  0  0  0  0  0  0  0  0  0  0  0
    1.3077    1.4426   -1.4617 C   0  0  0  0  0  0  0  0  0  0  0  0
    2.6343    1.8227   -1.7861 C   0  0  0  0  0  0  0  0  0  0  0  0
    2.9358    3.1358   -2.1391 C   0  0  0  0  0  0  0  0  0  0  0  0
    1.9206    4.0809   -2.1777 C   0  0  0  0  0  0  0  0  0  0  0  0
    0.6107    3.7039   -1.8704 C   0  0  0  0  0  0  0  0  0  0  0  0
    0.2830    2.4012   -1.5181 C   0  0  0  0  0  0  0  0  0  0  0  0
   -1.0019    2.1117   -1.2457 N   0  0  0  0  0  0  0  0  0  0  0  0
   -3.2634   -0.3320    0.2588 C   0  0  0  0  0  0  0  0  0  0  0  0
   -4.6345   -0.5165    0.4921 C   0  0  0  0  0  0  0  0  0  0  0  0
   -5.0883   -1.4364    1.4065 O   0  0  0  0  0  0  0  0  0  0  0  0
   -4.5305   -2.7356    1.2296 C   0  0  0  0  0  0  0  0  0  0  0  0
   -8.8495    0.6161   -0.0154 H   0  0  0  0  0  0  0  0  0  0  0  0
   -7.7011    1.9570   -0.0957 H   0  0  0  0  0  0  0  0  0  0  0  0
   -7.9001    0.8256   -1.4910 H   0  0  0  0  0  0  0  0  0  0  0  0
   -5.8289    1.9126   -1.5765 H   0  0  0  0  0  0  0  0  0  0  0  0
   -3.4568    2.1969   -1.9971 H   0  0  0  0  0  0  0  0  0  0  0  0
   -0.7027   -1.1898   -0.5971 H   0  0  0  0  0  0  0  0  0  0  0  0
    3.2591    0.8015    1.0915 H   0  0  0  0  0  0  0  0  0  0  0  0
    1.5859    0.3071    1.3896 H   0  0  0  0  0  0  0  0  0  0  0  0
    2.3424   -1.5704    2.7925 H   0  0  0  0  0  0  0  0  0  0  0  0
    2.9342   -0.0449    3.4358 H   0  0  0  0  0  0  0  0  0  0  0  0
    5.1509   -0.5529    2.9565 H   0  0  0  0  0  0  0  0  0  0  0  0
    4.5152   -2.1689    3.1853 H   0  0  0  0  0  0  0  0  0  0  0  0
    5.3660   -0.7238    0.6732 H   0  0  0  0  0  0  0  0  0  0  0  0
    3.2347   -2.9244    0.6281 H   0  0  0  0  0  0  0  0  0  0  0  0
    4.0742   -2.2784   -0.7846 H   0  0  0  0  0  0  0  0  0  0  0  0
    3.4394    1.0903   -1.7752 H   0  0  0  0  0  0  0  0  0  0  0  0
    3.9560    3.4158   -2.3888 H   0  0  0  0  0  0  0  0  0  0  0  0
    2.1384    5.1094   -2.4538 H   0  0  0  0  0  0  0  0  0  0  0  0
   -0.1805    4.4497   -1.9116 H   0  0  0  0  0  0  0  0  0  0  0  0
   -2.5521   -0.9262    0.8240 H   0  0  0  0  0  0  0  0  0  0  0  0
   -4.4581   -3.0125    0.1713 H   0  0  0  0  0  0  0  0  0  0  0  0
   -5.1943   -3.4539    1.7202 H   0  0  0  0  0  0  0  0  0  0  0  0
   -3.5509   -2.8014    1.7140 H   0  0  0  0  0  0  0  0  0  0  0  0
  1  2  1  0
  2  3  1  0
  3  4  2  0
  4  5  1  0
  5  6  2  0
  6  7  1  0
  7  8  2  0
  8  9  1  0
  9 10  1  0
 10 11  2  0
 10 12  1  0
 12 13  1  0
 13 14  1  0
 14 15  1  0
 15 16  1  0
 16 17  1  0
 17 18  1  0
 17 19  1  0
 17 20  1  0
 16 21  1  0
  9 22  2  0
 22 23  1  0
 23 24  2  0
 24 25  1  0
 25 26  2  0
 26 27  1  0
 27 28  2  0
  6 29  1  0
 29 30  2  0
 30 31  1  0
 31 32  1  0
 30  3  1  0
 28  7  1  0
 21 12  1  0
 27 22  1  0
  1 33  1  0
  1 34  1  0
  1 35  1  0
  4 36  1  0
  5 37  1  0
  8 38  1  0
 13 39  1  0
 13 40  1  0
 14 41  1  0
 14 42  1  0
 15 43  1  0
 15 44  1  0
 16 45  1  0
 21 46  1  0
 21 47  1  0
 23 48  1  0
 24 49  1  0
 25 50  1  0
 26 51  1  0
 29 52  1  0
 32 53  1  0
 32 54  1  0
 32 55  1  0
M  END
$$$$
