
     RDKit          3D

 53 55  0  0  0  0  0  0  0  0999 V2000
    6.5976    1.4309   -0.7757 C   0  0  0  0  0  0  0  0  0  0  0  0
    5.8599    0.1869   -1.0851 C   0  0  0  0  0  0  0  0  0  0  0  0
    6.5986   -0.8356   -1.6000 O   0  0  0  0  0  0  0  0  0  0  0  0
    5.7575   -1.8820   -1.7812 C   0  0  0  0  0  0  0  0  0  0  0  0
    4.4836   -1.5449   -1.3919 C   0  0  0  0  0  0  0  0  0  0  0  0
    4.5302   -0.1848   -0.9600 C   0  0  0  0  0  0  0  0  0  0  0  0
    3.4847    0.6694   -0.4075 C   0  0  0  0  0  0  0  0  0  0  0  0
    3.7374    1.4079    0.5438 O   0  0  0  0  0  0  0  0  0  0  0  0
    2.2046    0.6107   -0.9700 N   0  0  0  0  0  0  0  0  0  0  0  0
    1.8769   -0.0556   -2.2232 C   0  0  0  0  0  0  0  0  0  0  0  0
    1.0936    1.2309   -0.2440 C   0  0  0  0  0  0  0  0  0  0  0  0
    0.1854    0.2065    0.4608 C   0  0  0  0  0  0  0  0  0  0  0  0
    0.9369   -0.5766    1.5454 C   0  0  0  0  0  0  0  0  0  0  0  0
   -0.0193   -1.4855    2.3083 C   0  0  0  0  0  0  0  0  0  0  0  0
   -1.2186   -0.7071    2.8445 C   0  0  0  0  0  0  0  0  0  0  0  0
   -1.9296   -0.0113    1.7604 N   0  0  0  0  0  0  0  0  0  0  0  0
   -3.1333    0.6563    2.2944 C   0  0  0  0  0  0  0  0  0  0  0  0
   -4.0782    1.2746    1.2414 C   0  0  0  0  0  0  0  0  0  0  0  0
   -4.5573    0.3758    0.1241 C   0  0  0  0  0  0  0  0  0  0  0  0
   -4.7820   -0.9969    0.2969 C   0  0  0  0  0  0  0  0  0  0  0  0
   -5.2598   -1.7810   -0.7586 C   0  0  0  0  0  0  0  0  0  0  0  0
   -5.5321   -1.2034   -1.9975 C   0  0  0  0  0  0  0  0  0  0  0  0
   -5.3291    0.1616   -2.1803 C   0  0  0  0  0  0  0  0  0  0  0  0
   -4.8511    0.9354   -1.1253 C   0  0  0  0  0  0  0  0  0  0  0  0
   -4.6760    2.2501   -1.3263 F   0  0  0  0  0  0  0  0  0  0  0  0
   -1.0332    0.9283    1.0676 C   0  0  0  0  0  0  0  0  0  0  0  0
    6.0061    2.3113   -1.0457 H   0  0  0  0  0  0  0  0  0  0  0  0
    7.5392    1.4788   -1.3327 H   0  0  0  0  0  0  0  0  0  0  0  0
    6.8265    1.4805    0.2930 H   0  0  0  0  0  0  0  0  0  0  0  0
    6.2096   -2.7827   -2.1729 H   0  0  0  0  0  0  0  0  0  0  0  0
    3.6285   -2.2042   -1.4001 H   0  0  0  0  0  0  0  0  0  0  0  0
    1.5013   -1.0584   -2.0038 H   0  0  0  0  0  0  0  0  0  0  0  0
    1.1050    0.5148   -2.7492 H   0  0  0  0  0  0  0  0  0  0  0  0
    2.7461   -0.1191   -2.8816 H   0  0  0  0  0  0  0  0  0  0  0  0
    1.4744    1.9472    0.4930 H   0  0  0  0  0  0  0  0  0  0  0  0
    0.5156    1.8174   -0.9688 H   0  0  0  0  0  0  0  0  0  0  0  0
   -0.1821   -0.5112   -0.2858 H   0  0  0  0  0  0  0  0  0  0  0  0
    1.7321   -1.1860    1.1020 H   0  0  0  0  0  0  0  0  0  0  0  0
    1.4154    0.1183    2.2471 H   0  0  0  0  0  0  0  0  0  0  0  0
   -0.3674   -2.2887    1.6463 H   0  0  0  0  0  0  0  0  0  0  0  0
    0.5114   -1.9645    3.1389 H   0  0  0  0  0  0  0  0  0  0  0  0
   -1.8921   -1.4219    3.3328 H   0  0  0  0  0  0  0  0  0  0  0  0
   -0.8861    0.0040    3.6121 H   0  0  0  0  0  0  0  0  0  0  0  0
   -2.8446    1.4429    3.0047 H   0  0  0  0  0  0  0  0  0  0  0  0
   -3.7158   -0.0733    2.8720 H   0  0  0  0  0  0  0  0  0  0  0  0
   -3.5875    2.1581    0.8143 H   0  0  0  0  0  0  0  0  0  0  0  0
   -4.9693    1.6486    1.7627 H   0  0  0  0  0  0  0  0  0  0  0  0
   -4.5798   -1.4780    1.2505 H   0  0  0  0  0  0  0  0  0  0  0  0
   -5.4188   -2.8465   -0.6096 H   0  0  0  0  0  0  0  0  0  0  0  0
   -5.9047   -1.8148   -2.8150 H   0  0  0  0  0  0  0  0  0  0  0  0
   -5.5426    0.6315   -3.1346 H   0  0  0  0  0  0  0  0  0  0  0  0
   -0.7013    1.7191    1.7538 H   0  0  0  0  0  0  0  0  0  0  0  0
   -1.5665    1.4164    0.2445 H   0  0  0  0  0  0  0  0  0  0  0  0
  1  2  1  0
  2  3  1  0
  3  4  1  0
  4  5  2  0
  5  6  1  0
  6  7  1  0
  7  8  2  0
  7  9  1  0
  9 10  1  0
  9 11  1  0
 11 12  1  0
 12 13  1  0
 13 14  1  0
 14 15  1  0
 15 16  1  0
 16 17  1  0
 17 18  1  0
 18 19  1  0
 19 20  2  0
 20 21  1  0
 21 22  2  0
 22 23  1  0
 23 24  2  0
 24 25  1  0
 16 26  1  0
  6  2  2  0
 26 12  1  0
 24 19  1  0
  1 27  1  0
  1 28  1  0
  1 29  1  0
  4 30  1  0
  5 31  1  0
 10 32  1  0
 10 33  1  0
 10 34  1  0
 11 35  1  0
 11 36  1  0
 12 37  1  0
 13 38  1  0
 13 39  1  0
 14 40  1  0
 14 41  1  0
 15 42  1  0
 15 43  1  0
 17 44  1  0
 17 45  1  0
 18 46  1  0
 18 47  1  0
 20 48  1  0
 21 49  1  0
 22 50  1  0
 23 51  1  0
 26 52  1  0
 26 53  1  0
M  END
$$$$
