
     RDKit          3D

 44 47  0  0  0  0  0  0  0  0999 V2000
   -7.2714    0.2809   -0.5622 C   0  0  0  0  0  0  0  0  0  0  0  0
   -6.0646    0.7537   -1.3582 C   0  0  0  0  0  0  0  0  0  0  0  0
   -4.7817    0.1607   -0.8361 C   0  0  0  0  0  0  0  0  0  0  0  0
   -4.3109   -1.0618   -1.3277 C   0  0  0  0  0  0  0  0  0  0  0  0
   -3.1280   -1.6246   -0.8337 C   0  0  0  0  0  0  0  0  0  0  0  0
   -2.3998   -0.9770    0.1633 C   0  0  0  0  0  0  0  0  0  0  0  0
   -1.2014   -1.4696    0.7152 N   0  0  0  0  0  0  0  0  0  0  0  0
   -0.5298   -2.6394    0.3939 C   0  0  0  0  0  0  0  0  0  0  0  0
   -0.9013   -3.4889   -0.4127 O   0  0  0  0  0  0  0  0  0  0  0  0
    0.7495   -2.8434    1.2101 C   0  0  0  0  0  0  0  0  0  0  0  0
    1.7700   -1.8509    0.8814 N   0  0  0  0  0  0  0  0  0  0  0  0
    2.7702   -2.2609    0.0002 N   0  0  0  0  0  0  0  0  0  0  0  0
    3.7144   -1.4216   -0.3079 C   0  0  0  0  0  0  0  0  0  0  0  0
    3.7494   -0.1417    0.2283 N   0  0  0  0  0  0  0  0  0  0  0  0
    2.7888    0.2920    1.1000 C   0  0  0  0  0  0  0  0  0  0  0  0
    3.0865    1.5881    1.4588 C   0  0  0  0  0  0  0  0  0  0  0  0
    4.2787    1.9562    0.7775 C   0  0  0  0  0  0  0  0  0  0  0  0
    5.0546    3.1309    0.7451 C   0  0  0  0  0  0  0  0  0  0  0  0
    6.2043    3.1745   -0.0501 C   0  0  0  0  0  0  0  0  0  0  0  0
    6.5854    2.0702   -0.8067 C   0  0  0  0  0  0  0  0  0  0  0  0
    5.8329    0.8919   -0.7926 C   0  0  0  0  0  0  0  0  0  0  0  0
    4.6797    0.8568    0.0091 C   0  0  0  0  0  0  0  0  0  0  0  0
    1.7116   -0.5793    1.4722 C   0  0  0  0  0  0  0  0  0  0  0  0
    0.7945   -0.2428    2.2207 O   0  0  0  0  0  0  0  0  0  0  0  0
   -2.8728    0.2437    0.6598 C   0  0  0  0  0  0  0  0  0  0  0  0
   -4.0540    0.8072    0.1677 C   0  0  0  0  0  0  0  0  0  0  0  0
   -8.1873    0.7268   -0.9629 H   0  0  0  0  0  0  0  0  0  0  0  0
   -7.3760   -0.8084   -0.6084 H   0  0  0  0  0  0  0  0  0  0  0  0
   -7.1884    0.5658    0.4921 H   0  0  0  0  0  0  0  0  0  0  0  0
   -6.0050    1.8485   -1.3257 H   0  0  0  0  0  0  0  0  0  0  0  0
   -6.1905    0.4884   -2.4150 H   0  0  0  0  0  0  0  0  0  0  0  0
   -4.8613   -1.5917   -2.1022 H   0  0  0  0  0  0  0  0  0  0  0  0
   -2.8057   -2.5727   -1.2519 H   0  0  0  0  0  0  0  0  0  0  0  0
   -0.7731   -0.8848    1.4336 H   0  0  0  0  0  0  0  0  0  0  0  0
    0.5030   -2.7816    2.2762 H   0  0  0  0  0  0  0  0  0  0  0  0
    1.1450   -3.8461    1.0137 H   0  0  0  0  0  0  0  0  0  0  0  0
    4.5096   -1.7256   -1.0059 H   0  0  0  0  0  0  0  0  0  0  0  0
    2.5081    2.2033    2.1370 H   0  0  0  0  0  0  0  0  0  0  0  0
    4.7652    3.9987    1.3315 H   0  0  0  0  0  0  0  0  0  0  0  0
    6.8042    4.0813   -0.0765 H   0  0  0  0  0  0  0  0  0  0  0  0
    7.4830    2.1250   -1.4196 H   0  0  0  0  0  0  0  0  0  0  0  0
    6.1440    0.0402   -1.3897 H   0  0  0  0  0  0  0  0  0  0  0  0
   -2.3288    0.7736    1.4381 H   0  0  0  0  0  0  0  0  0  0  0  0
   -4.4009    1.7541    0.5749 H   0  0  0  0  0  0  0  0  0  0  0  0
  1  2  1  0
  2  3  1  0
  3  4  2  0
  4  5  1  0
  5  6  2  0
  6  7  1  0
  7  8  1  0
  8  9  2  0
  8 10  1  0
 10 11  1  0
 11 12  1  0
 12 13  2  0
 13 14  1  0
 14 15  1  0
 15 16  2  0
 16 17  1  0
 17 18  2  0
 18 19  1  0
 19 20  2  0
 20 21  1  0
 21 22  2  0
 15 23  1  0
 23 24  2  0
  6 25  1  0
 25 26  2  0
 26  3  1  0
 23 11  1  0
 22 14  1  0
 22 17  1  0
  1 27  1  0
  1 28  1  0
  1 29  1  0
  2 30  1  0
  2 31  1  0
  4 32  1  0
  5 33  1  0
  7 34  1  0
 10 35  1  0
 10 36  1  0
 13 37  1  0
 16 38  1  0
 18 39  1  0
 19 40  1  0
 20 41  1  0
 21 42  1  0
 25 43  1  0
 26 44  1  0
M  END
$$$$
