
     RDKit          3D

 38 39  0  0  0  0  0  0  0  0999 V2000
    4.7125    0.5965    1.3823 C   0  0  0  0  0  0  0  0  0  0  0  0
    5.2769    0.2537    0.0100 C   0  0  0  0  0  0  0  0  0  0  0  0
    4.3466    0.6469   -1.1374 C   0  0  0  0  0  0  0  0  0  0  0  0
    3.1212   -0.1832   -1.1821 C   0  0  0  0  0  0  0  0  0  0  0  0
    2.9454   -1.3924   -1.6683 N   0  0  0  0  0  0  0  0  0  0  0  0
    1.6195   -1.7060   -1.4521 N   0  0  0  0  0  0  0  0  0  0  0  0
    1.0781   -0.6657   -0.8496 C   0  0  0  0  0  0  0  0  0  0  0  0
   -0.2900   -0.4570   -0.3893 C   0  0  0  0  0  0  0  0  0  0  0  0
   -0.6821    0.7370    0.2403 C   0  0  0  0  0  0  0  0  0  0  0  0
   -1.9979    0.9189    0.6736 C   0  0  0  0  0  0  0  0  0  0  0  0
   -2.4689    2.0474    1.2934 O   0  0  0  0  0  0  0  0  0  0  0  0
   -1.5157    3.0184    1.7027 C   0  0  0  0  0  0  0  0  0  0  0  0
   -2.9332   -0.1060    0.4532 C   0  0  0  0  0  0  0  0  0  0  0  0
   -4.2219    0.0493    0.9155 O   0  0  0  0  0  0  0  0  0  0  0  0
   -5.0384    0.6141   -0.1088 C   0  0  0  0  0  0  0  0  0  0  0  0
   -2.5606   -1.3161   -0.1543 C   0  0  0  0  0  0  0  0  0  0  0  0
   -3.5486   -2.2554   -0.2967 O   0  0  0  0  0  0  0  0  0  0  0  0
   -3.1684   -3.5406   -0.7699 C   0  0  0  0  0  0  0  0  0  0  0  0
   -1.2398   -1.4763   -0.5788 C   0  0  0  0  0  0  0  0  0  0  0  0
    1.9795    0.3490   -0.6465 O   0  0  0  0  0  0  0  0  0  0  0  0
    5.4454    0.3588    2.1599 H   0  0  0  0  0  0  0  0  0  0  0  0
    3.8032    0.0264    1.5960 H   0  0  0  0  0  0  0  0  0  0  0  0
    4.4765    1.6630    1.4543 H   0  0  0  0  0  0  0  0  0  0  0  0
    5.5023   -0.8189   -0.0307 H   0  0  0  0  0  0  0  0  0  0  0  0
    6.2281    0.7849   -0.1144 H   0  0  0  0  0  0  0  0  0  0  0  0
    4.0833    1.7085   -1.0635 H   0  0  0  0  0  0  0  0  0  0  0  0
    4.8826    0.5218   -2.0859 H   0  0  0  0  0  0  0  0  0  0  0  0
    0.0571    1.5192    0.3813 H   0  0  0  0  0  0  0  0  0  0  0  0
   -0.7649    2.5830    2.3706 H   0  0  0  0  0  0  0  0  0  0  0  0
   -2.0477    3.7946    2.2612 H   0  0  0  0  0  0  0  0  0  0  0  0
   -1.0462    3.4953    0.8364 H   0  0  0  0  0  0  0  0  0  0  0  0
   -4.6776    1.6045   -0.4072 H   0  0  0  0  0  0  0  0  0  0  0  0
   -5.0990   -0.0453   -0.9815 H   0  0  0  0  0  0  0  0  0  0  0  0
   -6.0484    0.7312    0.2954 H   0  0  0  0  0  0  0  0  0  0  0  0
   -2.4140   -3.9966   -0.1201 H   0  0  0  0  0  0  0  0  0  0  0  0
   -2.8203   -3.4893   -1.8066 H   0  0  0  0  0  0  0  0  0  0  0  0
   -4.0559   -4.1804   -0.7490 H   0  0  0  0  0  0  0  0  0  0  0  0
   -0.9188   -2.3931   -1.0669 H   0  0  0  0  0  0  0  0  0  0  0  0
  1  2  1  0
  2  3  1  0
  3  4  1  0
  4  5  2  0
  5  6  1  0
  6  7  2  0
  7  8  1  0
  8  9  2  0
  9 10  1  0
 10 11  1  0
 11 12  1  0
 10 13  2  0
 13 14  1  0
 14 15  1  0
 13 16  1  0
 16 17  1  0
 17 18  1  0
 16 19  2  0
  7 20  1  0
 20  4  1  0
 19  8  1  0
  1 21  1  0
  1 22  1  0
  1 23  1  0
  2 24  1  0
  2 25  1  0
  3 26  1  0
  3 27  1  0
  9 28  1  0
 12 29  1  0
 12 30  1  0
 12 31  1  0
 15 32  1  0
 15 33  1  0
 15 34  1  0
 18 35  1  0
 18 36  1  0
 18 37  1  0
 19 38  1  0
M  END
$$$$
