
     RDKit          3D

 32 33  0  0  0  0  0  0  0  0999 V2000
    0.1155   -2.4115    0.4741 O   0  0  0  0  0  0  0  0  0  0  0  0
    0.0873   -1.3136   -0.0617 C   0  0  0  0  0  0  0  0  0  0  0  0
   -1.0677   -0.5729   -0.2030 N   0  0  0  0  0  0  0  0  0  0  0  0
   -2.3260   -1.1683    0.1946 C   0  0  0  0  0  0  0  0  0  0  0  0
   -3.4442   -0.1708    0.0590 C   0  0  0  0  0  0  0  0  0  0  0  0
   -4.3089   -0.2088   -1.0446 C   0  0  0  0  0  0  0  0  0  0  0  0
   -5.3296    0.7351   -1.1784 C   0  0  0  0  0  0  0  0  0  0  0  0
   -5.4920    1.7302   -0.2148 C   0  0  0  0  0  0  0  0  0  0  0  0
   -4.6319    1.7783    0.8799 C   0  0  0  0  0  0  0  0  0  0  0  0
   -4.8241    3.0112    2.0645 Cl  0  0  0  0  0  0  0  0  0  0  0  0
   -3.6118    0.8377    1.0202 C   0  0  0  0  0  0  0  0  0  0  0  0
    1.1720   -0.6216   -0.5336 N   0  0  0  0  0  0  0  0  0  0  0  0
    2.4136   -1.2138   -0.5295 C   0  0  0  0  0  0  0  0  0  0  0  0
    2.6511   -2.2866   -1.0744 O   0  0  0  0  0  0  0  0  0  0  0  0
    3.5072   -0.3858   -0.0009 C   0  0  0  0  0  0  0  0  0  0  0  0
    3.3745    0.6941    0.8583 C   0  0  0  0  0  0  0  0  0  0  0  0
    4.8782    1.4113    1.2687 S   0  0  0  0  0  0  0  0  0  0  0  0
    5.7325    0.2777    0.3400 C   0  0  0  0  0  0  0  0  0  0  0  0
    7.1700    0.3253    0.2590 N   0  0  0  0  0  4  0  0  0  0  0  0
    7.7655    1.1965    0.9055 O   0  0  0  0  0  0  0  0  0  0  0  0
    7.7069   -0.5205   -0.4686 O   0  0  0  0  0  1  0  0  0  0  0  0
    4.9021   -0.6288   -0.2808 C   0  0  0  0  0  0  0  0  0  0  0  0
   -1.1062   -0.0149   -1.0450 H   0  0  0  0  0  0  0  0  0  0  0  0
   -2.5053   -2.0493   -0.4334 H   0  0  0  0  0  0  0  0  0  0  0  0
   -2.2499   -1.5210    1.2301 H   0  0  0  0  0  0  0  0  0  0  0  0
   -4.1965   -0.9780   -1.8069 H   0  0  0  0  0  0  0  0  0  0  0  0
   -5.9997    0.6940   -2.0341 H   0  0  0  0  0  0  0  0  0  0  0  0
   -6.2880    2.4622   -0.3229 H   0  0  0  0  0  0  0  0  0  0  0  0
   -2.9447    0.8869    1.8780 H   0  0  0  0  0  0  0  0  0  0  0  0
    1.1185    0.3560   -0.3060 H   0  0  0  0  0  0  0  0  0  0  0  0
    2.4760    1.1075    1.2965 H   0  0  0  0  0  0  0  0  0  0  0  0
    5.2553   -1.4379   -0.9139 H   0  0  0  0  0  0  0  0  0  0  0  0
  1  2  2  0
  2  3  1  0
  3  4  1  0
  4  5  1  0
  5  6  2  0
  6  7  1  0
  7  8  2  0
  8  9  1  0
  9 10  1  0
  9 11  2  0
  2 12  1  0
 12 13  1  0
 13 14  2  0
 13 15  1  0
 15 16  2  0
 16 17  1  0
 17 18  1  0
 18 19  1  0
 19 20  2  0
 19 21  1  0
 18 22  2  0
 11  5  1  0
 22 15  1  0
  3 23  1  0
  4 24  1  0
  4 25  1  0
  6 26  1  0
  7 27  1  0
  8 28  1  0
 11 29  1  0
 12 30  1  0
 16 31  1  0
 22 32  1  0
M  CHG  2  19   1  21  -1
M  END
$$$$
