
     RDKit          3D

 85 88  0  0  0  0  0  0  0  0999 V2000
    5.8711   -5.3582   -0.4584 C   0  0  0  0  0  0  0  0  0  0  0  0
    4.4444   -4.8867   -0.6949 C   0  0  0  0  0  0  0  0  0  0  0  0
    4.3552   -3.5556   -1.4452 C   0  0  0  0  0  0  0  0  0  0  0  0
    4.9149   -2.3706   -0.6488 C   0  0  0  0  0  0  0  0  0  0  0  0
    4.8383   -1.0386   -1.4156 C   0  0  0  0  0  0  0  0  0  0  0  0
    3.4314   -0.5478   -1.6868 C   0  0  0  0  0  0  0  0  0  0  0  0
    2.9473   -0.6859   -2.9325 C   0  0  0  0  0  0  0  0  0  0  0  0
    1.5924   -0.3110   -3.3315 C   0  0  0  0  0  0  0  0  0  0  0  0
    1.2079   -0.4457   -4.4867 O   0  0  0  0  0  0  0  0  0  0  0  0
    0.7823    0.1699   -2.3281 O   0  0  0  0  0  0  0  0  0  0  0  0
    1.2412    0.3945   -1.0043 C   0  0  0  0  0  0  0  0  0  0  0  0
    0.2900    0.9498   -0.1171 C   0  0  0  0  0  0  0  0  0  0  0  0
   -1.1436    1.2352   -0.5787 C   0  0  0  0  0  0  0  0  0  0  0  0
   -2.1888    0.3170    0.1119 C   0  0  0  0  0  0  0  0  0  0  0  0
   -1.9761   -1.1694   -0.2265 C   0  0  0  0  0  0  0  0  0  0  0  0
   -2.9697   -2.0537    0.4060 N   0  0  0  0  0  0  0  0  0  0  0  0
   -4.3061   -1.9458   -0.1795 C   0  0  0  0  0  0  0  0  0  0  0  0
   -5.3260   -2.6892    0.6925 C   0  0  0  0  0  0  0  0  0  0  0  0
   -4.7962   -4.0089    1.2593 C   0  0  0  0  0  0  0  0  0  0  0  0
   -3.6095   -4.5117    0.4396 C   0  0  0  0  0  0  0  0  0  0  0  0
   -3.0869   -5.8440    0.9713 C   0  0  0  0  0  0  0  0  0  0  0  0
   -2.4884   -3.4502    0.4048 C   0  0  0  0  0  0  0  0  0  0  0  0
   -1.4735    2.7303   -0.5509 C   0  0  0  0  0  0  0  0  0  0  0  0
   -2.3792    3.3020    0.3443 C   0  0  0  0  0  0  0  0  0  0  0  0
   -2.6401    4.6822    0.3283 C   0  0  0  0  0  0  0  0  0  0  0  0
   -2.0262    5.5572   -0.5833 C   0  0  0  0  0  0  0  0  0  0  0  0
   -2.2789    6.9365   -0.5845 N   0  0  0  0  0  0  0  0  0  0  0  0
   -3.4347    7.4401    0.1557 C   0  0  0  0  0  0  0  0  0  0  0  0
   -1.9106    7.7096   -1.7704 C   0  0  0  0  0  0  0  0  0  0  0  0
   -1.1055    4.9655   -1.4636 C   0  0  0  0  0  0  0  0  0  0  0  0
   -0.8382    3.5878   -1.4566 C   0  0  0  0  0  0  0  0  0  0  0  0
    0.7227    1.2217    1.1832 C   0  0  0  0  0  0  0  0  0  0  0  0
   -0.1660    1.7169    2.1017 O   0  0  0  0  0  0  0  0  0  0  0  0
    0.2421    2.9859    2.6174 C   0  0  0  0  0  0  0  0  0  0  0  0
    2.0302    0.9245    1.5782 C   0  0  0  0  0  0  0  0  0  0  0  0
    2.9600    0.3804    0.6794 C   0  0  0  0  0  0  0  0  0  0  0  0
    4.2547    0.1180    1.0452 O   0  0  0  0  0  0  0  0  0  0  0  0
    4.7181    0.5836    2.3065 C   0  0  0  0  0  0  0  0  0  0  0  0
    2.5702    0.0786   -0.6451 C   0  0  0  0  0  0  0  0  0  0  0  0
    6.4358   -5.3874   -1.3941 H   0  0  0  0  0  0  0  0  0  0  0  0
    5.8665   -6.3663   -0.0335 H   0  0  0  0  0  0  0  0  0  0  0  0
    6.3979   -4.7078    0.2440 H   0  0  0  0  0  0  0  0  0  0  0  0
    3.9207   -5.6502   -1.2831 H   0  0  0  0  0  0  0  0  0  0  0  0
    3.9201   -4.8113    0.2647 H   0  0  0  0  0  0  0  0  0  0  0  0
    3.2986   -3.3756   -1.6750 H   0  0  0  0  0  0  0  0  0  0  0  0
    4.8802   -3.6398   -2.4042 H   0  0  0  0  0  0  0  0  0  0  0  0
    5.9697   -2.5532   -0.4138 H   0  0  0  0  0  0  0  0  0  0  0  0
    4.3858   -2.3018    0.3080 H   0  0  0  0  0  0  0  0  0  0  0  0
    5.3730   -1.1761   -2.3672 H   0  0  0  0  0  0  0  0  0  0  0  0
    5.4234   -0.2654   -0.9064 H   0  0  0  0  0  0  0  0  0  0  0  0
    3.5365   -1.1248   -3.7308 H   0  0  0  0  0  0  0  0  0  0  0  0
   -1.2363    0.9811   -1.6434 H   0  0  0  0  0  0  0  0  0  0  0  0
   -3.1843    0.6271   -0.2256 H   0  0  0  0  0  0  0  0  0  0  0  0
   -2.1742    0.4420    1.2012 H   0  0  0  0  0  0  0  0  0  0  0  0
   -0.9816   -1.4552    0.1384 H   0  0  0  0  0  0  0  0  0  0  0  0
   -1.9722   -1.3148   -1.3145 H   0  0  0  0  0  0  0  0  0  0  0  0
   -4.6418   -0.9065   -0.2484 H   0  0  0  0  0  0  0  0  0  0  0  0
   -4.3146   -2.3436   -1.2027 H   0  0  0  0  0  0  0  0  0  0  0  0
   -6.2230   -2.8825    0.0916 H   0  0  0  0  0  0  0  0  0  0  0  0
   -5.6433   -2.0502    1.5268 H   0  0  0  0  0  0  0  0  0  0  0  0
   -4.4850   -3.8539    2.3012 H   0  0  0  0  0  0  0  0  0  0  0  0
   -5.6028   -4.7508    1.2817 H   0  0  0  0  0  0  0  0  0  0  0  0
   -3.9566   -4.6833   -0.5894 H   0  0  0  0  0  0  0  0  0  0  0  0
   -2.2471   -6.2007    0.3663 H   0  0  0  0  0  0  0  0  0  0  0  0
   -3.8719   -6.6067    0.9408 H   0  0  0  0  0  0  0  0  0  0  0  0
   -2.7454   -5.7544    2.0082 H   0  0  0  0  0  0  0  0  0  0  0  0
   -1.8292   -3.5710    1.2732 H   0  0  0  0  0  0  0  0  0  0  0  0
   -1.8782   -3.6528   -0.4860 H   0  0  0  0  0  0  0  0  0  0  0  0
   -2.8892    2.6940    1.0875 H   0  0  0  0  0  0  0  0  0  0  0  0
   -3.3476    5.0484    1.0657 H   0  0  0  0  0  0  0  0  0  0  0  0
   -3.3467    7.2258    1.2261 H   0  0  0  0  0  0  0  0  0  0  0  0
   -3.5107    8.5305    0.0762 H   0  0  0  0  0  0  0  0  0  0  0  0
   -4.3673    7.0147   -0.2309 H   0  0  0  0  0  0  0  0  0  0  0  0
   -0.8264    7.7075   -1.9246 H   0  0  0  0  0  0  0  0  0  0  0  0
   -2.1948    8.7628   -1.6625 H   0  0  0  0  0  0  0  0  0  0  0  0
   -2.4124    7.3239   -2.6649 H   0  0  0  0  0  0  0  0  0  0  0  0
   -0.5588    5.5626   -2.1867 H   0  0  0  0  0  0  0  0  0  0  0  0
   -0.1192    3.1928   -2.1718 H   0  0  0  0  0  0  0  0  0  0  0  0
   -0.6310    3.4546    3.0797 H   0  0  0  0  0  0  0  0  0  0  0  0
    0.6066    3.6506    1.8264 H   0  0  0  0  0  0  0  0  0  0  0  0
    1.0026    2.8618    3.3938 H   0  0  0  0  0  0  0  0  0  0  0  0
    2.2958    1.1065    2.6135 H   0  0  0  0  0  0  0  0  0  0  0  0
    5.7917    0.3800    2.3616 H   0  0  0  0  0  0  0  0  0  0  0  0
    4.2363    0.0399    3.1255 H   0  0  0  0  0  0  0  0  0  0  0  0
    4.5802    1.6654    2.4085 H   0  0  0  0  0  0  0  0  0  0  0  0
  1  2  1  0
  2  3  1  0
  3  4  1  0
  4  5  1  0
  5  6  1  0
  6  7  2  0
  7  8  1  0
  8  9  2  0
  8 10  1  0
 10 11  1  0
 11 12  2  0
 12 13  1  0
 13 14  1  0
 14 15  1  0
 15 16  1  0
 16 17  1  0
 17 18  1  0
 18 19  1  0
 19 20  1  0
 20 21  1  0
 20 22  1  0
 13 23  1  0
 23 24  2  0
 24 25  1  0
 25 26  2  0
 26 27  1  0
 27 28  1  0
 27 29  1  0
 26 30  1  0
 30 31  2  0
 12 32  1  0
 32 33  1  0
 33 34  1  0
 32 35  2  0
 35 36  1  0
 36 37  1  0
 37 38  1  0
 36 39  2  0
 39  6  1  0
 39 11  1  0
 22 16  1  0
 31 23  1  0
  1 40  1  0
  1 41  1  0
  1 42  1  0
  2 43  1  0
  2 44  1  0
  3 45  1  0
  3 46  1  0
  4 47  1  0
  4 48  1  0
  5 49  1  0
  5 50  1  0
  7 51  1  0
 13 52  1  0
 14 53  1  0
 14 54  1  0
 15 55  1  0
 15 56  1  0
 17 57  1  0
 17 58  1  0
 18 59  1  0
 18 60  1  0
 19 61  1  0
 19 62  1  0
 20 63  1  0
 21 64  1  0
 21 65  1  0
 21 66  1  0
 22 67  1  0
 22 68  1  0
 24 69  1  0
 25 70  1  0
 28 71  1  0
 28 72  1  0
 28 73  1  0
 29 74  1  0
 29 75  1  0
 29 76  1  0
 30 77  1  0
 31 78  1  0
 34 79  1  0
 34 80  1  0
 34 81  1  0
 35 82  1  0
 38 83  1  0
 38 84  1  0
 38 85  1  0
M  END
$$$$
