
     RDKit          3D

 42 44  0  0  0  0  0  0  0  0999 V2000
   -7.2819    0.0200    1.3413 N   0  0  0  0  0  0  0  0  0  0  0  0
   -6.4812    0.1658    0.5144 C   0  0  0  0  0  0  0  0  0  0  0  0
   -5.4573    0.3393   -0.5241 C   0  0  0  0  0  0  0  0  0  0  0  0
   -4.0552    0.2650    0.0961 C   0  0  0  0  0  0  0  0  0  0  0  0
   -2.9838    0.5326   -0.8815 N   0  0  0  0  0  0  0  0  0  0  0  0
   -2.7566   -0.5831   -1.8266 C   0  0  0  0  0  0  0  0  0  0  0  0
   -2.0760   -1.8325   -1.2272 C   0  0  0  0  0  0  0  0  0  0  0  0
   -0.8541   -1.5047   -0.4730 N   0  0  0  0  0  0  0  0  0  0  0  0
    0.1666   -2.4534   -0.2721 C   0  0  0  0  0  0  0  0  0  0  0  0
    0.0480   -4.0878   -0.6729 S   0  0  0  0  0  0  0  0  0  0  0  0
    1.4372   -2.0147    0.2826 C   0  0  0  0  0  0  0  0  0  0  0  0
    2.3668   -2.6115    1.1179 C   0  0  0  0  0  0  0  0  0  0  0  0
    3.4348   -1.6935    1.2762 C   0  0  0  0  0  0  0  0  0  0  0  0
    3.1187   -0.5828    0.5217 C   0  0  0  0  0  0  0  0  0  0  0  0
    3.7715    0.6961    0.2513 C   0  0  0  0  0  0  0  0  0  0  0  0
    4.9956    1.0153    0.8566 C   0  0  0  0  0  0  0  0  0  0  0  0
    5.6236    2.2403    0.6049 C   0  0  0  0  0  0  0  0  0  0  0  0
    5.0363    3.1678   -0.2574 C   0  0  0  0  0  0  0  0  0  0  0  0
    5.8642    4.6603   -0.5202 Cl  0  0  0  0  0  0  0  0  0  0  0  0
    3.8173    2.8652   -0.8695 C   0  0  0  0  0  0  0  0  0  0  0  0
    3.0252    3.9606   -1.9465 Cl  0  0  0  0  0  0  0  0  0  0  0  0
    3.1934    1.6376   -0.6156 C   0  0  0  0  0  0  0  0  0  0  0  0
    1.9117   -0.7804   -0.0841 O   0  0  0  0  0  0  0  0  0  0  0  0
   -1.0178   -0.3719    0.4547 C   0  0  0  0  0  0  0  0  0  0  0  0
   -1.6989    0.8383   -0.2105 C   0  0  0  0  0  0  0  0  0  0  0  0
   -5.5897   -0.4369   -1.2848 H   0  0  0  0  0  0  0  0  0  0  0  0
   -5.5972    1.3078   -1.0183 H   0  0  0  0  0  0  0  0  0  0  0  0
   -4.0091    1.0285    0.8852 H   0  0  0  0  0  0  0  0  0  0  0  0
   -3.9154   -0.6995    0.5997 H   0  0  0  0  0  0  0  0  0  0  0  0
   -2.1148   -0.2008   -2.6321 H   0  0  0  0  0  0  0  0  0  0  0  0
   -3.6892   -0.8754   -2.3204 H   0  0  0  0  0  0  0  0  0  0  0  0
   -2.7568   -2.3557   -0.5456 H   0  0  0  0  0  0  0  0  0  0  0  0
   -1.8361   -2.5141   -2.0494 H   0  0  0  0  0  0  0  0  0  0  0  0
    2.2839   -3.5952    1.5606 H   0  0  0  0  0  0  0  0  0  0  0  0
    4.3286   -1.8380    1.8663 H   0  0  0  0  0  0  0  0  0  0  0  0
    5.4804    0.3158    1.5343 H   0  0  0  0  0  0  0  0  0  0  0  0
    6.5728    2.4631    1.0872 H   0  0  0  0  0  0  0  0  0  0  0  0
    2.2462    1.4159   -1.1044 H   0  0  0  0  0  0  0  0  0  0  0  0
   -0.0713   -0.0532    0.8927 H   0  0  0  0  0  0  0  0  0  0  0  0
   -1.6257   -0.7384    1.2913 H   0  0  0  0  0  0  0  0  0  0  0  0
   -1.0157    1.2518   -0.9644 H   0  0  0  0  0  0  0  0  0  0  0  0
   -1.8392    1.6368    0.5282 H   0  0  0  0  0  0  0  0  0  0  0  0
  1  2  3  0
  2  3  1  0
  3  4  1  0
  4  5  1  0
  5  6  1  0
  6  7  1  0
  7  8  1  0
  8  9  1  0
  9 10  2  0
  9 11  1  0
 11 12  2  0
 12 13  1  0
 13 14  2  0
 14 15  1  0
 15 16  2  0
 16 17  1  0
 17 18  2  0
 18 19  1  0
 18 20  1  0
 20 21  1  0
 20 22  2  0
 14 23  1  0
  8 24  1  0
 24 25  1  0
 25  5  1  0
 23 11  1  0
 22 15  1  0
  3 26  1  0
  3 27  1  0
  4 28  1  0
  4 29  1  0
  6 30  1  0
  6 31  1  0
  7 32  1  0
  7 33  1  0
 12 34  1  0
 13 35  1  0
 16 36  1  0
 17 37  1  0
 22 38  1  0
 24 39  1  0
 24 40  1  0
 25 41  1  0
 25 42  1  0
M  END
$$$$
