
     RDKit          3D

 38 40  0  0  0  0  0  0  0  0999 V2000
    3.9267    3.1881    2.8780 N   0  0  0  0  0  0  0  0  0  0  0  0
    3.6911    2.3495    2.1109 C   0  0  0  0  0  0  0  0  0  0  0  0
    3.4585    1.2823    1.1981 C   0  0  0  0  0  0  0  0  0  0  0  0
    4.4846    0.5049    0.8023 C   0  0  0  0  0  0  0  0  0  0  0  0
    4.3951   -0.5375   -0.1652 C   0  0  0  0  0  0  0  0  0  0  0  0
    3.7179   -0.5999   -1.3744 C   0  0  0  0  0  0  0  0  0  0  0  0
    3.8956   -1.8448   -2.0508 C   0  0  0  0  0  0  0  0  0  0  0  0
    4.7180   -2.6784   -1.3411 C   0  0  0  0  0  0  0  0  0  0  0  0
    5.1969   -4.4340   -1.9233 Br  0  0  0  0  0  0  0  0  0  0  0  0
    5.2771   -1.9975    0.1021 S   0  0  0  0  0  0  0  0  0  0  0  0
    2.0590    1.1180    0.7279 C   0  0  0  0  0  0  0  0  0  0  0  0
    1.4638    2.0347    0.1751 O   0  0  0  0  0  0  0  0  0  0  0  0
    1.5027   -0.1116    0.9956 N   0  0  0  0  0  0  0  0  0  0  0  0
    0.1433   -0.4332    0.5986 C   0  0  0  0  0  0  0  0  0  0  0  0
   -0.8988    0.1439    1.5598 C   0  0  0  0  0  0  0  0  0  0  0  0
   -2.2936   -0.2085    1.1529 C   0  0  0  0  0  0  0  0  0  0  0  0
   -3.0774   -1.2168    1.6790 C   0  0  0  0  0  0  0  0  0  0  0  0
   -4.2837   -1.2054    1.0309 N   0  0  0  0  0  0  0  0  0  0  0  0
   -4.3062   -0.2099    0.0828 C   0  0  0  0  0  0  0  0  0  0  0  0
   -5.3181    0.1648   -0.8093 C   0  0  0  0  0  0  0  0  0  0  0  0
   -5.0583    1.2348   -1.6709 C   0  0  0  0  0  0  0  0  0  0  0  0
   -3.8361    1.9019   -1.6385 C   0  0  0  0  0  0  0  0  0  0  0  0
   -2.8356    1.5144   -0.7399 C   0  0  0  0  0  0  0  0  0  0  0  0
   -3.0719    0.4371    0.1388 C   0  0  0  0  0  0  0  0  0  0  0  0
    5.4695    0.6796    1.2366 H   0  0  0  0  0  0  0  0  0  0  0  0
    3.1160    0.2117   -1.7698 H   0  0  0  0  0  0  0  0  0  0  0  0
    3.4457   -2.0955   -3.0038 H   0  0  0  0  0  0  0  0  0  0  0  0
    2.0421   -0.8240    1.4719 H   0  0  0  0  0  0  0  0  0  0  0  0
    0.0709   -1.5260    0.5624 H   0  0  0  0  0  0  0  0  0  0  0  0
   -0.0174   -0.0569   -0.4186 H   0  0  0  0  0  0  0  0  0  0  0  0
   -0.7048   -0.2282    2.5742 H   0  0  0  0  0  0  0  0  0  0  0  0
   -0.8008    1.2350    1.6164 H   0  0  0  0  0  0  0  0  0  0  0  0
   -2.8818   -1.9377    2.4617 H   0  0  0  0  0  0  0  0  0  0  0  0
   -5.0527   -1.8335    1.2182 H   0  0  0  0  0  0  0  0  0  0  0  0
   -6.2723   -0.3505   -0.8359 H   0  0  0  0  0  0  0  0  0  0  0  0
   -5.8237    1.5519   -2.3755 H   0  0  0  0  0  0  0  0  0  0  0  0
   -3.6547    2.7334   -2.3150 H   0  0  0  0  0  0  0  0  0  0  0  0
   -1.8863    2.0436   -0.7213 H   0  0  0  0  0  0  0  0  0  0  0  0
  1  2  3  0
  2  3  1  0
  3  4  2  3
  4  5  1  0
  5  6  2  0
  6  7  1  0
  7  8  2  0
  8  9  1  0
  8 10  1  0
  3 11  1  0
 11 12  2  0
 11 13  1  0
 13 14  1  0
 14 15  1  0
 15 16  1  0
 16 17  2  0
 17 18  1  0
 18 19  1  0
 19 20  2  0
 20 21  1  0
 21 22  2  0
 22 23  1  0
 23 24  2  0
 10  5  1  0
 24 16  1  0
 24 19  1  0
  4 25  1  0
  6 26  1  0
  7 27  1  0
 13 28  1  0
 14 29  1  0
 14 30  1  0
 15 31  1  0
 15 32  1  0
 17 33  1  0
 18 34  1  0
 20 35  1  0
 21 36  1  0
 22 37  1  0
 23 38  1  0
M  END
$$$$
