
     RDKit          3D

 49 51  0  0  0  0  0  0  0  0999 V2000
   -7.4238    1.3399    1.6026 C   0  0  0  0  0  0  0  0  0  0  0  0
   -6.9157   -0.0151    1.1816 C   0  0  0  0  0  0  0  0  0  0  0  0
   -7.1183   -1.0007    1.8905 O   0  0  0  0  0  0  0  0  0  0  0  0
   -6.2345   -0.0860   -0.0245 N   0  0  0  0  0  0  0  0  0  0  0  0
   -5.6326   -1.3674   -0.4042 C   0  0  0  0  0  0  0  0  0  0  0  0
   -4.1347   -1.4005   -0.0357 C   0  0  0  0  0  0  0  0  0  0  0  0
   -3.4303   -0.2226   -0.6233 N   0  0  0  0  0  0  0  0  0  0  0  0
   -2.0314   -0.3104   -0.5490 C   0  0  0  0  0  0  0  0  0  0  0  0
   -1.2269    0.6292    0.1020 C   0  0  0  0  0  0  0  0  0  0  0  0
    0.1695    0.4961    0.1380 C   0  0  0  0  0  0  0  0  0  0  0  0
    0.8172   -0.5786   -0.4823 C   0  0  0  0  0  0  0  0  0  0  0  0
    2.2243   -0.6001   -0.3768 N   0  0  0  0  0  0  0  0  0  0  0  0
    3.1965   -1.4896   -0.7666 C   0  0  0  0  0  0  0  0  0  0  0  0
    3.0641   -2.9824   -1.5024 S   0  0  0  0  0  0  0  0  0  0  0  0
    4.4958   -1.0753   -0.4989 N   0  0  0  0  0  0  0  0  0  0  0  0
    4.9371    0.0891    0.1172 C   0  0  0  0  0  0  0  0  0  0  0  0
    4.1828    0.9180    0.6197 O   0  0  0  0  0  0  0  0  0  0  0  0
    6.4112    0.2738    0.1911 C   0  0  0  0  0  0  0  0  0  0  0  0
    7.2712   -0.2091   -0.8043 C   0  0  0  0  0  0  0  0  0  0  0  0
    8.6492   -0.0098   -0.6901 C   0  0  0  0  0  0  0  0  0  0  0  0
    9.1693    0.6757    0.4078 C   0  0  0  0  0  0  0  0  0  0  0  0
    8.3149    1.1731    1.3910 C   0  0  0  0  0  0  0  0  0  0  0  0
    6.9374    0.9778    1.2816 C   0  0  0  0  0  0  0  0  0  0  0  0
    0.0314   -1.5060   -1.1534 C   0  0  0  0  0  0  0  0  0  0  0  0
   -1.3666   -1.3694   -1.1847 C   0  0  0  0  0  0  0  0  0  0  0  0
   -4.0631    1.0725   -0.2756 C   0  0  0  0  0  0  0  0  0  0  0  0
   -5.5617    1.0591   -0.6492 C   0  0  0  0  0  0  0  0  0  0  0  0
   -8.1093    1.2219    2.4475 H   0  0  0  0  0  0  0  0  0  0  0  0
   -7.9774    1.8114    0.7863 H   0  0  0  0  0  0  0  0  0  0  0  0
   -6.5892    1.9710    1.9185 H   0  0  0  0  0  0  0  0  0  0  0  0
   -5.7538   -1.4747   -1.4889 H   0  0  0  0  0  0  0  0  0  0  0  0
   -6.1557   -2.2035    0.0709 H   0  0  0  0  0  0  0  0  0  0  0  0
   -4.0203   -1.3802    1.0560 H   0  0  0  0  0  0  0  0  0  0  0  0
   -3.7219   -2.3471   -0.4003 H   0  0  0  0  0  0  0  0  0  0  0  0
   -1.6589    1.4811    0.6168 H   0  0  0  0  0  0  0  0  0  0  0  0
    0.7429    1.2532    0.6693 H   0  0  0  0  0  0  0  0  0  0  0  0
    2.6107    0.2038    0.1221 H   0  0  0  0  0  0  0  0  0  0  0  0
    5.1859   -1.7597   -0.7760 H   0  0  0  0  0  0  0  0  0  0  0  0
    6.8918   -0.7138   -1.6884 H   0  0  0  0  0  0  0  0  0  0  0  0
    9.3192   -0.3799   -1.4630 H   0  0  0  0  0  0  0  0  0  0  0  0
   10.2424    0.8320    0.4924 H   0  0  0  0  0  0  0  0  0  0  0  0
    8.7206    1.7165    2.2411 H   0  0  0  0  0  0  0  0  0  0  0  0
    6.2764    1.3738    2.0504 H   0  0  0  0  0  0  0  0  0  0  0  0
    0.4487   -2.3472   -1.6889 H   0  0  0  0  0  0  0  0  0  0  0  0
   -1.9361   -2.1022   -1.7518 H   0  0  0  0  0  0  0  0  0  0  0  0
   -3.5826    1.8920   -0.8232 H   0  0  0  0  0  0  0  0  0  0  0  0
   -3.9645    1.2608    0.8012 H   0  0  0  0  0  0  0  0  0  0  0  0
   -5.6775    0.9516   -1.7344 H   0  0  0  0  0  0  0  0  0  0  0  0
   -6.0236    2.0055   -0.3599 H   0  0  0  0  0  0  0  0  0  0  0  0
  1  2  1  0
  2  3  2  0
  2  4  1  0
  4  5  1  0
  5  6  1  0
  6  7  1  0
  7  8  1  0
  8  9  2  0
  9 10  1  0
 10 11  2  0
 11 12  1  0
 12 13  1  0
 13 14  2  0
 13 15  1  0
 15 16  1  0
 16 17  2  0
 16 18  1  0
 18 19  2  0
 19 20  1  0
 20 21  2  0
 21 22  1  0
 22 23  2  0
 11 24  1  0
 24 25  2  0
  7 26  1  0
 26 27  1  0
 27  4  1  0
 25  8  1  0
 23 18  1  0
  1 28  1  0
  1 29  1  0
  1 30  1  0
  5 31  1  0
  5 32  1  0
  6 33  1  0
  6 34  1  0
  9 35  1  0
 10 36  1  0
 12 37  1  0
 15 38  1  0
 19 39  1  0
 20 40  1  0
 21 41  1  0
 22 42  1  0
 23 43  1  0
 24 44  1  0
 25 45  1  0
 26 46  1  0
 26 47  1  0
 27 48  1  0
 27 49  1  0
M  END
$$$$
