
     RDKit          3D

 48 51  0  0  0  0  0  0  0  0999 V2000
    9.0506    0.2614   -0.4860 C   0  0  0  0  0  0  0  0  0  0  0  0
    8.1778    1.0979    0.2627 O   0  0  0  0  0  0  0  0  0  0  0  0
    6.8387    0.8469    0.1526 C   0  0  0  0  0  0  0  0  0  0  0  0
    6.0214    1.6845    0.9112 C   0  0  0  0  0  0  0  0  0  0  0  0
    4.6287    1.5385    0.8915 C   0  0  0  0  0  0  0  0  0  0  0  0
    4.0117    0.5499    0.1072 C   0  0  0  0  0  0  0  0  0  0  0  0
    2.5451    0.3752    0.0668 C   0  0  0  0  0  0  0  0  0  0  0  0
    1.6496    1.4308    0.2026 C   0  0  0  0  0  0  0  0  0  0  0  0
    0.2793    1.1727    0.1489 C   0  0  0  0  0  0  0  0  0  0  0  0
   -0.1926   -0.1326   -0.0422 C   0  0  0  0  0  0  0  0  0  0  0  0
   -1.6299   -0.3678   -0.0996 C   0  0  0  0  0  0  0  0  0  0  0  0
   -2.2197   -1.4487   -0.6311 N   0  0  0  0  0  0  0  0  0  0  0  0
   -3.5800   -1.2028   -0.4726 O   0  0  0  0  0  0  0  0  0  0  0  0
   -3.6972    0.0186    0.1223 C   0  0  0  0  0  0  0  0  0  0  0  0
   -5.0381    0.5206    0.4305 C   0  0  0  0  0  0  0  0  0  0  0  0
   -5.1308    1.6153    1.3151 C   0  0  0  0  0  0  0  0  0  0  0  0
   -6.3643    2.1594    1.6717 C   0  0  0  0  0  0  0  0  0  0  0  0
   -7.5302    1.6192    1.1454 C   0  0  0  0  0  0  0  0  0  0  0  0
   -7.4642    0.5398    0.2610 C   0  0  0  0  0  0  0  0  0  0  0  0
   -6.2289   -0.0172   -0.1054 C   0  0  0  0  0  0  0  0  0  0  0  0
   -6.1059   -1.0602   -0.9871 O   0  0  0  0  0  0  0  0  0  0  0  0
   -7.2911   -1.6636   -1.4889 C   0  0  0  0  0  0  0  0  0  0  0  0
   -2.5283    0.5711    0.3746 N   0  0  0  0  0  0  0  0  0  0  0  0
    0.7716   -1.1317   -0.1658 C   0  0  0  0  0  0  0  0  0  0  0  0
    0.3607   -2.4409   -0.3092 O   0  0  0  0  0  0  0  0  0  0  0  0
    1.4260   -3.3743   -0.4444 C   0  0  0  0  0  0  0  0  0  0  0  0
    2.1101   -0.8951   -0.1213 N   0  0  0  0  0  0  0  0  0  0  0  0
    4.8552   -0.2897   -0.6437 C   0  0  0  0  0  0  0  0  0  0  0  0
    6.2496   -0.1450   -0.6259 C   0  0  0  0  0  0  0  0  0  0  0  0
    8.8672    0.3603   -1.5611 H   0  0  0  0  0  0  0  0  0  0  0  0
   10.0762    0.5900   -0.2922 H   0  0  0  0  0  0  0  0  0  0  0  0
    8.9688   -0.7823   -0.1646 H   0  0  0  0  0  0  0  0  0  0  0  0
    6.4718    2.4559    1.5312 H   0  0  0  0  0  0  0  0  0  0  0  0
    4.0373    2.2012    1.5187 H   0  0  0  0  0  0  0  0  0  0  0  0
    1.9945    2.4518    0.3308 H   0  0  0  0  0  0  0  0  0  0  0  0
   -0.4187    2.0019    0.2494 H   0  0  0  0  0  0  0  0  0  0  0  0
   -4.2257    2.0505    1.7379 H   0  0  0  0  0  0  0  0  0  0  0  0
   -6.4109    3.0017    2.3573 H   0  0  0  0  0  0  0  0  0  0  0  0
   -8.4954    2.0394    1.4180 H   0  0  0  0  0  0  0  0  0  0  0  0
   -8.4019    0.1587   -0.1320 H   0  0  0  0  0  0  0  0  0  0  0  0
   -7.8631   -0.9573   -2.0995 H   0  0  0  0  0  0  0  0  0  0  0  0
   -7.9012   -2.0736   -0.6771 H   0  0  0  0  0  0  0  0  0  0  0  0
   -6.9944   -2.4965   -2.1345 H   0  0  0  0  0  0  0  0  0  0  0  0
    2.0537   -3.3938    0.4533 H   0  0  0  0  0  0  0  0  0  0  0  0
    2.0234   -3.1694   -1.3396 H   0  0  0  0  0  0  0  0  0  0  0  0
    0.9847   -4.3687   -0.5607 H   0  0  0  0  0  0  0  0  0  0  0  0
    4.4207   -1.0751   -1.2612 H   0  0  0  0  0  0  0  0  0  0  0  0
    6.8380   -0.8270   -1.2306 H   0  0  0  0  0  0  0  0  0  0  0  0
  1  2  1  0
  2  3  1  0
  3  4  2  0
  4  5  1  0
  5  6  2  0
  6  7  1  0
  7  8  2  0
  8  9  1  0
  9 10  2  0
 10 11  1  0
 11 12  2  0
 12 13  1  0
 13 14  1  0
 14 15  1  0
 15 16  2  0
 16 17  1  0
 17 18  2  0
 18 19  1  0
 19 20  2  0
 20 21  1  0
 21 22  1  0
 14 23  2  0
 10 24  1  0
 24 25  1  0
 25 26  1  0
 24 27  2  0
  6 28  1  0
 28 29  2  0
 29  3  1  0
 27  7  1  0
 23 11  1  0
 20 15  1  0
  1 30  1  0
  1 31  1  0
  1 32  1  0
  4 33  1  0
  5 34  1  0
  8 35  1  0
  9 36  1  0
 16 37  1  0
 17 38  1  0
 18 39  1  0
 19 40  1  0
 22 41  1  0
 22 42  1  0
 22 43  1  0
 26 44  1  0
 26 45  1  0
 26 46  1  0
 28 47  1  0
 29 48  1  0
M  END
$$$$
