
     RDKit          3D

 23 24  0  0  0  0  0  0  0  0999 V2000
   -5.0545    0.3267    0.3471 C   0  0  0  0  0  0  0  0  0  0  0  0
   -4.3111    1.4935   -0.8131 S   0  0  0  0  0  0  0  0  0  0  0  0
   -2.6384    0.9748   -0.7734 C   0  0  0  0  0  0  0  0  0  0  0  0
   -2.2333   -0.0142   -0.0116 N   0  0  0  0  0  0  0  0  0  0  0  0
   -0.8734   -0.2065   -0.1795 C   0  0  0  0  0  0  0  0  0  0  0  0
   -0.0923   -1.1837    0.4726 C   0  0  0  0  0  0  0  0  0  0  0  0
    1.2795   -1.2695    0.2115 C   0  0  0  0  0  0  0  0  0  0  0  0
    1.8725   -0.3831   -0.6870 C   0  0  0  0  0  0  0  0  0  0  0  0
    3.6051   -0.5194   -1.0311 S   0  0  0  0  0  6  0  0  0  0  0  0
    4.2585    0.5675    0.0676 N   0  0  0  0  0  0  0  0  0  0  0  0
    4.0687   -1.8249   -0.6248 O   0  0  0  0  0  0  0  0  0  0  0  0
    3.8696    0.0265   -2.3412 O   0  0  0  0  0  0  0  0  0  0  0  0
    1.1226    0.5901   -1.3611 C   0  0  0  0  0  0  0  0  0  0  0  0
   -0.2526    0.6593   -1.0835 C   0  0  0  0  0  0  0  0  0  0  0  0
   -1.4359    1.7319   -1.7274 S   0  0  0  0  0  0  0  0  0  0  0  0
   -4.6117    0.4334    1.3414 H   0  0  0  0  0  0  0  0  0  0  0  0
   -6.1257    0.5321    0.4245 H   0  0  0  0  0  0  0  0  0  0  0  0
   -4.9263   -0.7018   -0.0019 H   0  0  0  0  0  0  0  0  0  0  0  0
   -0.5657   -1.8662    1.1726 H   0  0  0  0  0  0  0  0  0  0  0  0
    1.8709   -2.0317    0.7155 H   0  0  0  0  0  0  0  0  0  0  0  0
    4.8596    0.0735    0.7283 H   0  0  0  0  0  0  0  0  0  0  0  0
    4.7320    1.3223   -0.4303 H   0  0  0  0  0  0  0  0  0  0  0  0
    1.5819    1.2696   -2.0736 H   0  0  0  0  0  0  0  0  0  0  0  0
  1  2  1  0
  2  3  1  0
  3  4  2  0
  4  5  1  0
  5  6  2  0
  6  7  1  0
  7  8  2  0
  8  9  1  0
  9 10  1  0
  9 11  2  0
  9 12  2  0
  8 13  1  0
 13 14  2  0
 14 15  1  0
 15  3  1  0
 14  5  1  0
  1 16  1  0
  1 17  1  0
  1 18  1  0
  6 19  1  0
  7 20  1  0
 10 21  1  0
 10 22  1  0
 13 23  1  0
M  END
$$$$
