
     RDKit          3D

 36 38  0  0  0  0  0  0  0  0999 V2000
   -1.5762    4.3187    0.3277 C   0  0  0  0  0  0  0  0  0  0  0  0
   -2.0743    2.9127    0.1797 C   0  0  0  0  0  0  0  0  0  0  0  0
   -3.4324    2.6471    0.0316 C   0  0  0  0  0  0  0  0  0  0  0  0
   -3.8740    1.3307   -0.1307 C   0  0  0  0  0  0  0  0  0  0  0  0
   -2.9945    0.2564   -0.1663 C   0  0  0  0  0  0  0  0  0  0  0  0
   -3.5043   -0.9720   -0.3034 N   0  0  0  0  0  0  0  0  0  0  0  0
   -2.6588   -2.0247   -0.3322 C   0  0  0  0  0  0  0  0  0  0  0  0
   -3.2527   -3.4402   -0.4181 C   0  0  0  0  0  0  0  0  0  0  0  0
   -3.6396   -4.0236    1.2387 Cl  0  0  0  0  0  0  0  0  0  0  0  0
   -2.1048   -4.6085   -1.1722 Cl  0  0  0  0  0  0  0  0  0  0  0  0
   -4.7593   -3.4796   -1.4038 Cl  0  0  0  0  0  0  0  0  0  0  0  0
   -1.3220   -1.8894   -0.2055 N   0  0  0  0  0  0  0  0  0  0  0  0
   -0.8156   -0.6439   -0.1031 C   0  0  0  0  0  0  0  0  0  0  0  0
    0.5957   -0.6060   -0.0108 N   0  0  0  0  0  0  0  0  0  0  0  0
    1.2459    0.2585   -0.8439 N   0  0  0  0  0  0  0  0  0  0  0  0
    2.5466    0.2263   -0.8599 C   0  0  0  0  0  0  0  0  0  0  0  0
    3.4718   -0.5523   -0.0131 C   0  0  0  0  0  0  0  0  0  0  0  0
    3.2357   -0.7537    1.3440 C   0  0  0  0  0  0  0  0  0  0  0  0
    4.1773   -1.4684    2.0606 C   0  0  0  0  0  0  0  0  0  0  0  0
    5.3091   -1.9683    1.5187 N   0  0  0  0  0  0  0  0  0  0  0  0
    5.5178   -1.7388    0.2047 C   0  0  0  0  0  0  0  0  0  0  0  0
    4.6401   -1.0344   -0.5987 C   0  0  0  0  0  0  0  0  0  0  0  0
   -1.6248    0.5032   -0.0502 C   0  0  0  0  0  0  0  0  0  0  0  0
   -1.1775    1.8407    0.1289 C   0  0  0  0  0  0  0  0  0  0  0  0
   -1.3460    4.7398   -0.6557 H   0  0  0  0  0  0  0  0  0  0  0  0
   -0.6735    4.3493    0.9471 H   0  0  0  0  0  0  0  0  0  0  0  0
   -2.3260    4.9503    0.8158 H   0  0  0  0  0  0  0  0  0  0  0  0
   -4.1605    3.4550    0.0457 H   0  0  0  0  0  0  0  0  0  0  0  0
   -4.9408    1.1407   -0.2314 H   0  0  0  0  0  0  0  0  0  0  0  0
    0.8835   -1.5850   -0.0940 H   0  0  0  0  0  0  0  0  0  0  0  0
    3.0347    0.8644   -1.6178 H   0  0  0  0  0  0  0  0  0  0  0  0
    2.3601   -0.3526    1.8417 H   0  0  0  0  0  0  0  0  0  0  0  0
    4.0484   -1.6590    3.1226 H   0  0  0  0  0  0  0  0  0  0  0  0
    6.4407   -2.1498   -0.1955 H   0  0  0  0  0  0  0  0  0  0  0  0
    4.8621   -0.8819   -1.6488 H   0  0  0  0  0  0  0  0  0  0  0  0
   -0.1125    2.0384    0.2330 H   0  0  0  0  0  0  0  0  0  0  0  0
  1  2  1  0
  2  3  2  0
  3  4  1  0
  4  5  2  0
  5  6  1  0
  6  7  2  0
  7  8  1  0
  8  9  1  0
  8 10  1  0
  8 11  1  0
  7 12  1  0
 12 13  2  0
 13 14  1  0
 14 15  1  0
 15 16  2  3
 16 17  1  0
 17 18  2  0
 18 19  1  0
 19 20  2  0
 20 21  1  0
 21 22  2  0
 13 23  1  0
 23 24  2  0
 24  2  1  0
 23  5  1  0
 22 17  1  0
  1 25  1  0
  1 26  1  0
  1 27  1  0
  3 28  1  0
  4 29  1  0
 14 30  1  0
 16 31  1  0
 18 32  1  0
 19 33  1  0
 21 34  1  0
 22 35  1  0
 24 36  1  0
M  END
$$$$
