
     RDKit          3D

 55 58  0  0  0  0  0  0  0  0999 V2000
    3.3249   -0.9717    3.9397 C   0  0  0  0  0  0  0  0  0  0  0  0
    2.5859   -0.8048    2.6240 C   0  0  0  0  0  0  0  0  0  0  0  0
    3.5601   -0.6735    1.5866 O   0  0  0  0  0  0  0  0  0  0  0  0
    3.0965   -0.2021    0.3846 C   0  0  0  0  0  0  0  0  0  0  0  0
    1.7836   -0.3828   -0.0654 C   0  0  0  0  0  0  0  0  0  0  0  0
    1.3608    0.1614   -1.2849 C   0  0  0  0  0  0  0  0  0  0  0  0
   -0.0093   -0.0280   -1.7821 C   0  0  0  0  0  0  0  0  0  0  0  0
   -1.1655    0.3725   -1.2156 C   0  0  0  0  0  0  0  0  0  0  0  0
   -2.4173    0.1278   -2.0011 C   0  0  0  0  0  0  0  0  0  0  0  0
   -3.0859    1.0934   -2.3730 O   0  0  0  0  0  0  0  0  0  0  0  0
   -2.7785   -1.1829   -2.2530 N   0  0  0  0  0  0  0  0  0  0  0  0
   -2.1936   -2.3639   -1.6013 C   0  0  0  0  0  0  0  0  0  0  0  0
   -3.2296   -3.4848   -1.4596 C   0  0  0  0  0  0  0  0  0  0  0  0
   -3.7934   -3.8992   -2.7111 O   0  0  0  0  0  0  0  0  0  0  0  0
   -3.9009   -2.8496   -3.6840 C   0  0  0  0  0  0  0  0  0  0  0  0
   -3.9589   -1.4454   -3.0769 C   0  0  0  0  0  0  0  0  0  0  0  0
   -1.2513    1.1133   -0.0058 C   0  0  0  0  0  0  0  0  0  0  0  0
   -0.6137    0.9926    1.1442 N   0  0  0  0  0  0  0  0  0  0  0  0
   -1.1039    1.9859    1.9566 C   0  0  0  0  0  0  0  0  0  0  0  0
   -0.7635    2.3168    3.2759 C   0  0  0  0  0  0  0  0  0  0  0  0
   -1.4238    3.3887    3.8902 C   0  0  0  0  0  0  0  0  0  0  0  0
   -2.4022    4.1141    3.2053 C   0  0  0  0  0  0  0  0  0  0  0  0
   -2.7544    3.7976    1.8882 C   0  0  0  0  0  0  0  0  0  0  0  0
   -2.0790    2.7259    1.3015 C   0  0  0  0  0  0  0  0  0  0  0  0
   -2.1581    2.1512    0.0607 N   0  0  0  0  0  0  0  0  0  0  0  0
    2.2779    0.8563   -2.0800 C   0  0  0  0  0  0  0  0  0  0  0  0
    3.5986    1.0137   -1.6546 C   0  0  0  0  0  0  0  0  0  0  0  0
    4.6906    1.8774   -2.6787 Cl  0  0  0  0  0  0  0  0  0  0  0  0
    4.0168    0.4682   -0.4355 C   0  0  0  0  0  0  0  0  0  0  0  0
    5.3106    0.6683   -0.0150 O   0  0  0  0  0  0  0  0  0  0  0  0
    6.0907   -0.5080   -0.2271 C   0  0  0  0  0  0  0  0  0  0  0  0
    3.9906   -1.8408    3.9012 H   0  0  0  0  0  0  0  0  0  0  0  0
    3.9527   -0.0969    4.1423 H   0  0  0  0  0  0  0  0  0  0  0  0
    2.6219   -1.1008    4.7685 H   0  0  0  0  0  0  0  0  0  0  0  0
    1.9710   -1.6944    2.4460 H   0  0  0  0  0  0  0  0  0  0  0  0
    1.9499    0.0872    2.6816 H   0  0  0  0  0  0  0  0  0  0  0  0
    1.0669   -0.9363    0.5344 H   0  0  0  0  0  0  0  0  0  0  0  0
   -0.0428   -0.5145   -2.7569 H   0  0  0  0  0  0  0  0  0  0  0  0
   -1.3710   -2.6993   -2.2430 H   0  0  0  0  0  0  0  0  0  0  0  0
   -1.7921   -2.0994   -0.6187 H   0  0  0  0  0  0  0  0  0  0  0  0
   -4.0543   -3.1621   -0.8132 H   0  0  0  0  0  0  0  0  0  0  0  0
   -2.7743   -4.3650   -0.9952 H   0  0  0  0  0  0  0  0  0  0  0  0
   -3.0362   -2.9359   -4.3525 H   0  0  0  0  0  0  0  0  0  0  0  0
   -4.7971   -3.0432   -4.2815 H   0  0  0  0  0  0  0  0  0  0  0  0
   -4.8318   -1.3509   -2.4199 H   0  0  0  0  0  0  0  0  0  0  0  0
   -4.0399   -0.6879   -3.8638 H   0  0  0  0  0  0  0  0  0  0  0  0
   -0.0015    1.7528    3.8010 H   0  0  0  0  0  0  0  0  0  0  0  0
   -1.1680    3.6595    4.9122 H   0  0  0  0  0  0  0  0  0  0  0  0
   -2.8989    4.9439    3.7048 H   0  0  0  0  0  0  0  0  0  0  0  0
   -3.5116    4.3623    1.3552 H   0  0  0  0  0  0  0  0  0  0  0  0
   -2.7740    2.4309   -0.6936 H   0  0  0  0  0  0  0  0  0  0  0  0
    1.9667    1.2823   -3.0308 H   0  0  0  0  0  0  0  0  0  0  0  0
    6.0025   -0.8713   -1.2578 H   0  0  0  0  0  0  0  0  0  0  0  0
    7.1389   -0.2488   -0.0512 H   0  0  0  0  0  0  0  0  0  0  0  0
    5.8181   -1.2999    0.4780 H   0  0  0  0  0  0  0  0  0  0  0  0
  1  2  1  0
  2  3  1  0
  3  4  1  0
  4  5  2  0
  5  6  1  0
  6  7  1  0
  7  8  2  3
  8  9  1  0
  9 10  2  0
  9 11  1  0
 11 12  1  0
 12 13  1  0
 13 14  1  0
 14 15  1  0
 15 16  1  0
  8 17  1  0
 17 18  2  0
 18 19  1  0
 19 20  2  0
 20 21  1  0
 21 22  2  0
 22 23  1  0
 23 24  2  0
 24 25  1  0
  6 26  2  0
 26 27  1  0
 27 28  1  0
 27 29  2  0
 29 30  1  0
 30 31  1  0
 29  4  1  0
 16 11  1  0
 25 17  1  0
 24 19  1  0
  1 32  1  0
  1 33  1  0
  1 34  1  0
  2 35  1  0
  2 36  1  0
  5 37  1  0
  7 38  1  0
 12 39  1  0
 12 40  1  0
 13 41  1  0
 13 42  1  0
 15 43  1  0
 15 44  1  0
 16 45  1  0
 16 46  1  0
 20 47  1  0
 21 48  1  0
 22 49  1  0
 23 50  1  0
 25 51  1  0
 26 52  1  0
 31 53  1  0
 31 54  1  0
 31 55  1  0
M  END
$$$$
