
     RDKit          3D

 57 61  0  0  0  0  0  0  0  0999 V2000
   -6.7338    2.8336   -0.7591 C   0  0  0  0  0  0  0  0  0  0  0  0
   -6.8046    2.5915    0.6098 C   0  0  0  0  0  0  0  0  0  0  0  0
   -5.7203    2.0146    1.2755 C   0  0  0  0  0  0  0  0  0  0  0  0
   -4.5388    1.6749    0.5875 C   0  0  0  0  0  0  0  0  0  0  0  0
   -3.4034    1.0266    1.3730 C   0  0  0  0  0  0  0  0  0  0  0  0
   -3.2264   -0.4846    1.2801 C   0  0  0  0  0  0  0  0  0  0  0  0
   -3.8446   -1.2754    0.2973 C   0  0  0  0  0  0  0  0  0  0  0  0
   -3.6489   -2.6594    0.2612 C   0  0  0  0  0  0  0  0  0  0  0  0
   -2.8343   -3.2789    1.2059 C   0  0  0  0  0  0  0  0  0  0  0  0
   -2.2158   -2.5169    2.1928 C   0  0  0  0  0  0  0  0  0  0  0  0
   -2.4112   -1.1349    2.2309 C   0  0  0  0  0  0  0  0  0  0  0  0
   -2.1039    1.6550    0.9519 C   0  0  0  0  0  0  0  0  0  0  0  0
   -1.4743    2.5544    1.7295 N   0  0  0  0  0  0  0  0  0  0  0  0
   -0.2949    2.8205    1.0334 O   0  0  0  0  0  0  0  0  0  0  0  0
   -0.3290    2.0576   -0.0967 C   0  0  0  0  0  0  0  0  0  0  0  0
    0.8452    2.1495   -1.0133 C   0  0  0  0  0  0  0  0  0  0  0  0
    1.9674    1.2634   -0.6361 N   0  0  0  0  0  0  0  0  0  0  0  0
    1.6344   -0.1577   -0.7706 C   0  0  0  0  0  0  0  0  0  0  0  0
    2.7179   -1.0205   -0.1095 C   0  0  0  0  0  0  0  0  0  0  0  0
    4.1349   -0.4381   -0.2766 C   0  0  0  0  0  0  0  0  0  0  0  0
    5.1928   -1.5249   -0.2784 C   0  0  0  0  0  0  0  0  0  0  0  0
    6.0370   -1.6814    0.8261 C   0  0  0  0  0  0  0  0  0  0  0  0
    6.9883   -2.6911    0.8068 C   0  0  0  0  0  0  0  0  0  0  0  0
    7.1547   -3.5489   -0.2218 N   0  0  0  0  0  0  0  0  0  0  0  0
    6.3295   -3.3884   -1.2769 C   0  0  0  0  0  0  0  0  0  0  0  0
    5.3489   -2.4095   -1.3513 C   0  0  0  0  0  0  0  0  0  0  0  0
    4.1960    0.4680   -1.5115 C   0  0  0  0  0  0  0  0  0  0  0  0
    3.1741    1.6097   -1.4060 C   0  0  0  0  0  0  0  0  0  0  0  0
   -1.4224    1.3365   -0.2070 N   0  0  0  0  0  0  0  0  0  0  0  0
   -4.4975    1.9150   -0.7988 C   0  0  0  0  0  0  0  0  0  0  0  0
   -5.5824    2.4932   -1.4636 C   0  0  0  0  0  0  0  0  0  0  0  0
   -7.5769    3.2826   -1.2774 H   0  0  0  0  0  0  0  0  0  0  0  0
   -7.7053    2.8493    1.1617 H   0  0  0  0  0  0  0  0  0  0  0  0
   -5.8064    1.8295    2.3452 H   0  0  0  0  0  0  0  0  0  0  0  0
   -3.5644    1.2621    2.4359 H   0  0  0  0  0  0  0  0  0  0  0  0
   -4.4898   -0.8326   -0.4577 H   0  0  0  0  0  0  0  0  0  0  0  0
   -4.1349   -3.2526   -0.5097 H   0  0  0  0  0  0  0  0  0  0  0  0
   -2.6833   -4.3544    1.1739 H   0  0  0  0  0  0  0  0  0  0  0  0
   -1.5783   -2.9958    2.9318 H   0  0  0  0  0  0  0  0  0  0  0  0
   -1.9130   -0.5595    3.0108 H   0  0  0  0  0  0  0  0  0  0  0  0
    1.1888    3.1925   -1.0009 H   0  0  0  0  0  0  0  0  0  0  0  0
    0.5170    1.9369   -2.0391 H   0  0  0  0  0  0  0  0  0  0  0  0
    1.5236   -0.4309   -1.8285 H   0  0  0  0  0  0  0  0  0  0  0  0
    0.6851   -0.4038   -0.2821 H   0  0  0  0  0  0  0  0  0  0  0  0
    2.5087   -1.1170    0.9647 H   0  0  0  0  0  0  0  0  0  0  0  0
    2.6432   -2.0347   -0.5222 H   0  0  0  0  0  0  0  0  0  0  0  0
    4.3262    0.2098    0.5921 H   0  0  0  0  0  0  0  0  0  0  0  0
    5.9608   -1.0328    1.6931 H   0  0  0  0  0  0  0  0  0  0  0  0
    7.6596   -2.8410    1.6476 H   0  0  0  0  0  0  0  0  0  0  0  0
    6.4769   -4.0938   -2.0903 H   0  0  0  0  0  0  0  0  0  0  0  0
    4.7185   -2.3530   -2.2320 H   0  0  0  0  0  0  0  0  0  0  0  0
    3.9844   -0.1129   -2.4189 H   0  0  0  0  0  0  0  0  0  0  0  0
    5.2017    0.8878   -1.6373 H   0  0  0  0  0  0  0  0  0  0  0  0
    3.6498    2.4698   -0.9186 H   0  0  0  0  0  0  0  0  0  0  0  0
    2.9213    1.9236   -2.4277 H   0  0  0  0  0  0  0  0  0  0  0  0
   -3.6212    1.6441   -1.3851 H   0  0  0  0  0  0  0  0  0  0  0  0
   -5.5268    2.6735   -2.5343 H   0  0  0  0  0  0  0  0  0  0  0  0
  1  2  2  0
  2  3  1  0
  3  4  2  0
  4  5  1  0
  5  6  1  0
  6  7  2  0
  7  8  1  0
  8  9  2  0
  9 10  1  0
 10 11  2  0
  5 12  1  0
 12 13  2  0
 13 14  1  0
 14 15  1  0
 15 16  1  0
 16 17  1  0
 17 18  1  0
 18 19  1  0
 19 20  1  0
 20 21  1  0
 21 22  2  0
 22 23  1  0
 23 24  2  0
 24 25  1  0
 25 26  2  0
 20 27  1  0
 27 28  1  0
 15 29  2  0
  4 30  1  0
 30 31  2  0
 31  1  1  0
 11  6  1  0
 29 12  1  0
 28 17  1  0
 26 21  1  0
  1 32  1  0
  2 33  1  0
  3 34  1  0
  5 35  1  0
  7 36  1  0
  8 37  1  0
  9 38  1  0
 10 39  1  0
 11 40  1  0
 16 41  1  0
 16 42  1  0
 18 43  1  0
 18 44  1  0
 19 45  1  0
 19 46  1  0
 20 47  1  0
 22 48  1  0
 23 49  1  0
 25 50  1  0
 26 51  1  0
 27 52  1  0
 27 53  1  0
 28 54  1  0
 28 55  1  0
 30 56  1  0
 31 57  1  0
M  END
$$$$
