
     RDKit          3D

 56 59  0  0  0  0  0  0  0  0999 V2000
    2.5326   -1.4848   -4.8563 C   0  0  0  0  0  0  0  0  0  0  0  0
    2.2135   -1.4738   -3.3687 C   0  0  0  0  0  0  0  0  0  0  0  0
    3.4357   -1.2657   -2.6634 O   0  0  0  0  0  0  0  0  0  0  0  0
    3.3575   -1.1151   -1.3087 C   0  0  0  0  0  0  0  0  0  0  0  0
    2.1954   -1.2647   -0.5434 C   0  0  0  0  0  0  0  0  0  0  0  0
    2.2179   -1.0560    0.8463 C   0  0  0  0  0  0  0  0  0  0  0  0
    1.0265   -1.2334    1.6881 C   0  0  0  0  0  0  0  0  0  0  0  0
   -0.1986   -0.7064    1.5395 C   0  0  0  0  0  0  0  0  0  0  0  0
   -1.4621   -1.0629    2.6511 S   0  0  0  0  0  0  0  0  0  0  0  0
   -2.6175   -0.0263    1.8292 C   0  0  0  0  0  0  0  0  0  0  0  0
   -3.8186    0.2265    2.2461 N   0  0  0  0  0  0  0  0  0  0  0  0
   -4.3058   -0.3451    3.4302 C   0  0  0  0  0  0  0  0  0  0  0  0
   -5.0805   -1.5108    3.3793 C   0  0  0  0  0  0  0  0  0  0  0  0
   -5.5794   -2.0792    4.5549 C   0  0  0  0  0  0  0  0  0  0  0  0
   -5.3192   -1.4758    5.7883 C   0  0  0  0  0  0  0  0  0  0  0  0
   -4.5655   -0.2995    5.8453 C   0  0  0  0  0  0  0  0  0  0  0  0
   -4.0653    0.2676    4.6683 C   0  0  0  0  0  0  0  0  0  0  0  0
   -2.0511    0.5226    0.6886 N   0  0  0  0  0  0  0  0  0  0  0  0
   -2.7877    1.3287   -0.2513 C   0  0  0  0  0  0  0  0  0  0  0  0
   -2.1504    2.3199   -1.0210 C   0  0  0  0  0  0  0  0  0  0  0  0
   -2.8486    3.0677   -1.9796 C   0  0  0  0  0  0  0  0  0  0  0  0
   -4.2052    2.8396   -2.1930 C   0  0  0  0  0  0  0  0  0  0  0  0
   -4.8644    1.8842   -1.4296 C   0  0  0  0  0  0  0  0  0  0  0  0
   -4.1643    1.1355   -0.4705 C   0  0  0  0  0  0  0  0  0  0  0  0
   -0.7032    0.2279    0.4857 C   0  0  0  0  0  0  0  0  0  0  0  0
    0.0121    0.6215   -0.4257 O   0  0  0  0  0  0  0  0  0  0  0  0
    3.4405   -0.7624    1.4811 C   0  0  0  0  0  0  0  0  0  0  0  0
    4.6105   -0.6391    0.7333 C   0  0  0  0  0  0  0  0  0  0  0  0
    4.5579   -0.7947   -0.6537 C   0  0  0  0  0  0  0  0  0  0  0  0
    5.7329   -0.6803   -1.3514 O   0  0  0  0  0  0  0  0  0  0  0  0
    5.8735    0.6415   -1.8806 C   0  0  0  0  0  0  0  0  0  0  0  0
    6.9677    1.3995   -1.1516 C   0  0  0  0  0  0  0  0  0  0  0  0
    7.6424    1.0251   -0.2027 O   0  0  0  0  0  0  0  0  0  0  0  0
    7.1602    2.6391   -1.6645 O   0  0  0  0  0  0  0  0  0  0  0  0
    1.6257   -1.6369   -5.4555 H   0  0  0  0  0  0  0  0  0  0  0  0
    3.0004   -0.5361   -5.1563 H   0  0  0  0  0  0  0  0  0  0  0  0
    3.2481   -2.2851   -5.0899 H   0  0  0  0  0  0  0  0  0  0  0  0
    1.5076   -0.6596   -3.1619 H   0  0  0  0  0  0  0  0  0  0  0  0
    1.7740   -2.4378   -3.0869 H   0  0  0  0  0  0  0  0  0  0  0  0
    1.2598   -1.5447   -1.0109 H   0  0  0  0  0  0  0  0  0  0  0  0
    1.2156   -1.8748    2.5476 H   0  0  0  0  0  0  0  0  0  0  0  0
   -5.3023   -1.9740    2.4199 H   0  0  0  0  0  0  0  0  0  0  0  0
   -6.1751   -2.9888    4.5065 H   0  0  0  0  0  0  0  0  0  0  0  0
   -5.7126   -1.9171    6.7030 H   0  0  0  0  0  0  0  0  0  0  0  0
   -4.3733    0.1824    6.8024 H   0  0  0  0  0  0  0  0  0  0  0  0
   -3.4971    1.1963    4.7152 H   0  0  0  0  0  0  0  0  0  0  0  0
   -1.0963    2.5643   -0.8719 H   0  0  0  0  0  0  0  0  0  0  0  0
   -2.3171    3.8118   -2.5646 H   0  0  0  0  0  0  0  0  0  0  0  0
   -4.7475    3.4129   -2.9430 H   0  0  0  0  0  0  0  0  0  0  0  0
   -5.9261    1.7038   -1.5825 H   0  0  0  0  0  0  0  0  0  0  0  0
   -4.7277    0.3844    0.0713 H   0  0  0  0  0  0  0  0  0  0  0  0
    3.4955   -0.6360    2.5628 H   0  0  0  0  0  0  0  0  0  0  0  0
    5.5610   -0.4266    1.2286 H   0  0  0  0  0  0  0  0  0  0  0  0
    4.9478    1.2323   -1.8232 H   0  0  0  0  0  0  0  0  0  0  0  0
    6.1718    0.5453   -2.9302 H   0  0  0  0  0  0  0  0  0  0  0  0
    7.8781    3.0131   -1.1049 H   0  0  0  0  0  0  0  0  0  0  0  0
  1  2  1  0
  2  3  1  0
  3  4  1  0
  4  5  2  0
  5  6  1  0
  6  7  1  0
  7  8  2  3
  8  9  1  0
  9 10  1  0
 10 11  2  3
 11 12  1  0
 12 13  2  0
 13 14  1  0
 14 15  2  0
 15 16  1  0
 16 17  2  0
 10 18  1  0
 18 19  1  0
 19 20  2  0
 20 21  1  0
 21 22  2  0
 22 23  1  0
 23 24  2  0
 18 25  1  0
 25 26  2  0
  6 27  2  0
 27 28  1  0
 28 29  2  0
 29 30  1  0
 30 31  1  0
 31 32  1  0
 32 33  2  0
 32 34  1  0
 29  4  1  0
 25  8  1  0
 17 12  1  0
 24 19  1  0
  1 35  1  0
  1 36  1  0
  1 37  1  0
  2 38  1  0
  2 39  1  0
  5 40  1  0
  7 41  1  0
 13 42  1  0
 14 43  1  0
 15 44  1  0
 16 45  1  0
 17 46  1  0
 20 47  1  0
 21 48  1  0
 22 49  1  0
 23 50  1  0
 24 51  1  0
 27 52  1  0
 28 53  1  0
 31 54  1  0
 31 55  1  0
 34 56  1  0
M  END
$$$$
