
     RDKit          3D

 34 34  0  0  0  0  0  0  0  0999 V2000
    4.8842    1.3061   -1.4386 C   0  0  0  0  0  0  0  0  0  0  0  0
    4.1277    0.9860   -0.2807 O   0  0  0  0  0  0  0  0  0  0  0  0
    2.9686    0.2702   -0.4532 C   0  0  0  0  0  0  0  0  0  0  0  0
    2.4599   -0.1226   -1.6959 C   0  0  0  0  0  0  0  0  0  0  0  0
    1.2680   -0.8480   -1.7775 C   0  0  0  0  0  0  0  0  0  0  0  0
    0.5703   -1.1983   -0.6175 C   0  0  0  0  0  0  0  0  0  0  0  0
   -0.7279   -1.9600   -0.6954 C   0  0  0  0  0  0  0  0  0  0  0  0
   -1.8562   -1.0644   -0.5688 N   0  0  0  0  0  0  0  0  0  0  0  0
   -2.4996   -0.8923    0.6285 C   0  0  0  0  0  0  0  0  0  0  0  0
   -2.2417   -1.5112    1.6532 O   0  0  0  0  0  0  0  0  0  0  0  0
   -3.5249    0.1737    0.6509 C   0  0  0  0  0  0  0  0  0  0  0  0
   -4.3065    0.4610   -0.3981 C   0  0  0  0  0  0  0  0  0  0  0  0
   -5.3262    1.5041   -0.2600 C   0  0  0  0  0  0  0  0  0  0  0  0
   -5.5627    2.1837    0.7185 O   0  0  0  0  0  0  0  0  0  0  0  0
   -6.0036    1.6363   -1.4104 O   0  0  0  0  0  0  0  0  0  0  0  0
    1.0778   -0.7987    0.6292 C   0  0  0  0  0  0  0  0  0  0  0  0
    2.2683   -0.0678    0.7217 C   0  0  0  0  0  0  0  0  0  0  0  0
    2.8257    0.3588    1.9022 O   0  0  0  0  0  0  0  0  0  0  0  0
    2.1248    0.0659    3.1030 C   0  0  0  0  0  0  0  0  0  0  0  0
    5.2174    0.4010   -1.9570 H   0  0  0  0  0  0  0  0  0  0  0  0
    4.3203    1.9625   -2.1094 H   0  0  0  0  0  0  0  0  0  0  0  0
    5.7767    1.8505   -1.1153 H   0  0  0  0  0  0  0  0  0  0  0  0
    2.9674    0.1230   -2.6226 H   0  0  0  0  0  0  0  0  0  0  0  0
    0.8928   -1.1384   -2.7564 H   0  0  0  0  0  0  0  0  0  0  0  0
   -0.8203   -2.4601   -1.6658 H   0  0  0  0  0  0  0  0  0  0  0  0
   -0.7582   -2.7390    0.0749 H   0  0  0  0  0  0  0  0  0  0  0  0
   -1.9684   -0.3692   -1.2922 H   0  0  0  0  0  0  0  0  0  0  0  0
   -3.6520    0.6595    1.6142 H   0  0  0  0  0  0  0  0  0  0  0  0
   -4.2471   -0.0528   -1.3482 H   0  0  0  0  0  0  0  0  0  0  0  0
   -6.6558    2.3435   -1.2202 H   0  0  0  0  0  0  0  0  0  0  0  0
    0.5154   -1.0722    1.5182 H   0  0  0  0  0  0  0  0  0  0  0  0
    1.1348    0.5338    3.1081 H   0  0  0  0  0  0  0  0  0  0  0  0
    2.0550   -1.0146    3.2659 H   0  0  0  0  0  0  0  0  0  0  0  0
    2.6959    0.4899    3.9347 H   0  0  0  0  0  0  0  0  0  0  0  0
  1  2  1  0
  2  3  1  0
  3  4  2  0
  4  5  1  0
  5  6  2  0
  6  7  1  0
  7  8  1  0
  8  9  1  0
  9 10  2  0
  9 11  1  0
 11 12  2  3
 12 13  1  0
 13 14  2  0
 13 15  1  0
  6 16  1  0
 16 17  2  0
 17 18  1  0
 18 19  1  0
 17  3  1  0
  1 20  1  0
  1 21  1  0
  1 22  1  0
  4 23  1  0
  5 24  1  0
  7 25  1  0
  7 26  1  0
  8 27  1  0
 11 28  1  0
 12 29  1  0
 15 30  1  0
 16 31  1  0
 19 32  1  0
 19 33  1  0
 19 34  1  0
M  END
$$$$
