
     RDKit          3D

 41 42  0  0  0  0  0  0  0  0999 V2000
   -2.4500    2.1116    1.2444 C   0  0  0  0  0  0  0  0  0  0  0  0
   -2.1139    1.6765   -0.0672 O   0  0  0  0  0  0  0  0  0  0  0  0
   -2.8500    0.6413   -0.5848 C   0  0  0  0  0  0  0  0  0  0  0  0
   -4.0532    0.1759   -0.0425 C   0  0  0  0  0  0  0  0  0  0  0  0
   -4.7300   -0.8949   -0.6325 C   0  0  0  0  0  0  0  0  0  0  0  0
   -4.2106   -1.5110   -1.7664 C   0  0  0  0  0  0  0  0  0  0  0  0
   -3.0179   -1.0498   -2.3191 C   0  0  0  0  0  0  0  0  0  0  0  0
   -2.3350    0.0375   -1.7471 C   0  0  0  0  0  0  0  0  0  0  0  0
   -1.0352    0.4930   -2.3633 C   0  0  0  0  0  0  0  0  0  0  0  0
    0.0942   -0.0811   -1.6757 N   0  0  0  0  0  0  0  0  0  0  0  0
    0.6732   -1.2684   -2.0606 C   0  0  0  0  0  0  0  0  0  0  0  0
    0.4200   -1.8417   -3.1175 O   0  0  0  0  0  0  0  0  0  0  0  0
    1.7314   -1.7791   -1.0855 C   0  0  0  0  0  0  0  0  0  0  0  0
    1.2957   -1.5775    0.2622 O   0  0  0  0  0  0  0  0  0  0  0  0
    2.3220   -1.1053    1.0394 C   0  0  0  0  0  0  0  0  0  0  0  0
    3.2000   -2.0220    1.6186 C   0  0  0  0  0  0  0  0  0  0  0  0
    4.2302   -1.5626    2.4346 C   0  0  0  0  0  0  0  0  0  0  0  0
    4.3678   -0.1953    2.6750 C   0  0  0  0  0  0  0  0  0  0  0  0
    3.4731    0.7195    2.1066 C   0  0  0  0  0  0  0  0  0  0  0  0
    2.4358    0.2715    1.2861 C   0  0  0  0  0  0  0  0  0  0  0  0
    1.5007    1.0694    0.6808 O   0  0  0  0  0  0  0  0  0  0  0  0
    1.6139    2.4719    0.8829 C   0  0  0  0  0  0  0  0  0  0  0  0
   -1.6950    2.8390    1.5579 H   0  0  0  0  0  0  0  0  0  0  0  0
   -2.4283    1.2820    1.9593 H   0  0  0  0  0  0  0  0  0  0  0  0
   -3.4206    2.6178    1.2518 H   0  0  0  0  0  0  0  0  0  0  0  0
   -4.4941    0.6265    0.8401 H   0  0  0  0  0  0  0  0  0  0  0  0
   -5.6615   -1.2517   -0.2010 H   0  0  0  0  0  0  0  0  0  0  0  0
   -4.7288   -2.3524   -2.2187 H   0  0  0  0  0  0  0  0  0  0  0  0
   -2.6087   -1.5479   -3.1970 H   0  0  0  0  0  0  0  0  0  0  0  0
   -0.9995    0.2280   -3.4263 H   0  0  0  0  0  0  0  0  0  0  0  0
   -0.9423    1.5831   -2.3081 H   0  0  0  0  0  0  0  0  0  0  0  0
    0.2459    0.2057   -0.7102 H   0  0  0  0  0  0  0  0  0  0  0  0
    2.6748   -1.2696   -1.3225 H   0  0  0  0  0  0  0  0  0  0  0  0
    1.8544   -2.8559   -1.2429 H   0  0  0  0  0  0  0  0  0  0  0  0
    3.0765   -3.0861    1.4393 H   0  0  0  0  0  0  0  0  0  0  0  0
    4.9211   -2.2683    2.8883 H   0  0  0  0  0  0  0  0  0  0  0  0
    5.1716    0.1617    3.3149 H   0  0  0  0  0  0  0  0  0  0  0  0
    3.6139    1.7717    2.3289 H   0  0  0  0  0  0  0  0  0  0  0  0
    1.4812    2.7293    1.9388 H   0  0  0  0  0  0  0  0  0  0  0  0
    2.5662    2.8513    0.4981 H   0  0  0  0  0  0  0  0  0  0  0  0
    0.8111    2.9562    0.3183 H   0  0  0  0  0  0  0  0  0  0  0  0
  1  2  1  0
  2  3  1  0
  3  4  2  0
  4  5  1  0
  5  6  2  0
  6  7  1  0
  7  8  2  0
  8  9  1  0
  9 10  1  0
 10 11  1  0
 11 12  2  0
 11 13  1  0
 13 14  1  0
 14 15  1  0
 15 16  2  0
 16 17  1  0
 17 18  2  0
 18 19  1  0
 19 20  2  0
 20 21  1  0
 21 22  1  0
  8  3  1  0
 20 15  1  0
  1 23  1  0
  1 24  1  0
  1 25  1  0
  4 26  1  0
  5 27  1  0
  6 28  1  0
  7 29  1  0
  9 30  1  0
  9 31  1  0
 10 32  1  0
 13 33  1  0
 13 34  1  0
 16 35  1  0
 17 36  1  0
 18 37  1  0
 19 38  1  0
 22 39  1  0
 22 40  1  0
 22 41  1  0
M  END
$$$$
