
     RDKit          3D

 40 42  0  0  0  0  0  0  0  0999 V2000
    6.1405    0.6680    0.2918 C   0  0  0  0  0  0  0  0  0  0  0  0
    5.2069    0.8978   -0.8867 C   0  0  0  0  0  0  0  0  0  0  0  0
    3.7792    0.5519   -0.5466 C   0  0  0  0  0  0  0  0  0  0  0  0
    3.2972   -0.7488   -0.7407 C   0  0  0  0  0  0  0  0  0  0  0  0
    1.9780   -1.0762   -0.4119 C   0  0  0  0  0  0  0  0  0  0  0  0
    1.1263   -0.1031    0.1193 C   0  0  0  0  0  0  0  0  0  0  0  0
   -0.2758   -0.4149    0.4780 C   0  0  0  0  0  0  0  0  0  0  0  0
   -1.0394    0.4021    1.1420 N   0  0  0  0  0  0  0  0  0  0  0  0
   -2.3431   -0.3033    1.2673 N   0  0  0  0  0  0  0  0  0  0  0  0
   -3.7515    0.5130    1.7135 S   0  0  0  0  0  6  0  0  0  0  0  0
   -3.2413    1.2243    3.2607 C   0  0  0  0  0  0  0  0  0  0  0  0
   -4.7679   -0.4785    2.0069 O   0  0  0  0  0  0  0  0  0  0  0  0
   -4.0051    1.5979    0.7882 O   0  0  0  0  0  0  0  0  0  0  0  0
   -2.4080   -1.4373    0.3254 C   0  0  0  0  0  0  0  0  0  0  0  0
   -3.0674   -1.0982   -0.9876 C   0  0  0  0  0  0  0  0  0  0  0  0
   -2.9597    0.0391   -1.7684 C   0  0  0  0  0  0  0  0  0  0  0  0
   -3.7363   -0.0373   -2.9597 C   0  0  0  0  0  0  0  0  0  0  0  0
   -4.4056   -1.2347   -3.0618 C   0  0  0  0  0  0  0  0  0  0  0  0
   -4.0973   -2.2574   -1.7289 S   0  0  0  0  0  0  0  0  0  0  0  0
   -0.9167   -1.7390    0.1175 C   0  0  0  0  0  0  0  0  0  0  0  0
    1.6064    1.1952    0.3248 C   0  0  0  0  0  0  0  0  0  0  0  0
    2.9246    1.5196   -0.0051 C   0  0  0  0  0  0  0  0  0  0  0  0
    7.1679    0.9267    0.0166 H   0  0  0  0  0  0  0  0  0  0  0  0
    5.8542    1.2833    1.1514 H   0  0  0  0  0  0  0  0  0  0  0  0
    6.1281   -0.3800    0.6101 H   0  0  0  0  0  0  0  0  0  0  0  0
    5.2662    1.9448   -1.2082 H   0  0  0  0  0  0  0  0  0  0  0  0
    5.5372    0.2985   -1.7439 H   0  0  0  0  0  0  0  0  0  0  0  0
    3.9502   -1.5178   -1.1491 H   0  0  0  0  0  0  0  0  0  0  0  0
    1.6467   -2.0976   -0.5725 H   0  0  0  0  0  0  0  0  0  0  0  0
   -2.4313    1.9335    3.0821 H   0  0  0  0  0  0  0  0  0  0  0  0
   -4.0996    1.7469    3.6889 H   0  0  0  0  0  0  0  0  0  0  0  0
   -2.9242    0.4243    3.9324 H   0  0  0  0  0  0  0  0  0  0  0  0
   -2.8933   -2.2921    0.8100 H   0  0  0  0  0  0  0  0  0  0  0  0
   -2.3695    0.9039   -1.4849 H   0  0  0  0  0  0  0  0  0  0  0  0
   -3.8076    0.7525   -3.6973 H   0  0  0  0  0  0  0  0  0  0  0  0
   -5.0677   -1.5571   -3.8536 H   0  0  0  0  0  0  0  0  0  0  0  0
   -0.5692   -2.4880    0.8383 H   0  0  0  0  0  0  0  0  0  0  0  0
   -0.6721   -2.0625   -0.8977 H   0  0  0  0  0  0  0  0  0  0  0  0
    0.9605    1.9663    0.7398 H   0  0  0  0  0  0  0  0  0  0  0  0
    3.2795    2.5343    0.1639 H   0  0  0  0  0  0  0  0  0  0  0  0
  1  2  1  0
  2  3  1  0
  3  4  2  0
  4  5  1  0
  5  6  2  0
  6  7  1  0
  7  8  2  0
  8  9  1  0
  9 10  1  0
 10 11  1  0
 10 12  2  0
 10 13  2  0
  9 14  1  0
 14 15  1  0
 15 16  2  0
 16 17  1  0
 17 18  2  0
 18 19  1  0
 14 20  1  0
  6 21  1  0
 21 22  2  0
 22  3  1  0
 20  7  1  0
 19 15  1  0
  1 23  1  0
  1 24  1  0
  1 25  1  0
  2 26  1  0
  2 27  1  0
  4 28  1  0
  5 29  1  0
 11 30  1  0
 11 31  1  0
 11 32  1  0
 14 33  1  0
 16 34  1  0
 17 35  1  0
 18 36  1  0
 20 37  1  0
 20 38  1  0
 21 39  1  0
 22 40  1  0
M  END
$$$$
