
     RDKit          3D

 57 59  0  0  0  0  0  0  0  0999 V2000
   -3.7579   -1.1787    2.3867 C   0  0  0  0  0  0  0  0  0  0  0  0
   -4.4118   -1.0824    1.0148 C   0  0  0  0  0  0  0  0  0  0  0  0
   -3.7429   -0.1208    0.1329 N   0  0  0  0  0  0  0  0  0  0  0  0
   -2.5666   -0.4637   -0.5613 C   0  0  0  0  0  0  0  0  0  0  0  0
   -1.8653    0.4038   -1.0949 O   0  0  0  0  0  0  0  0  0  0  0  0
   -2.1908   -1.9526   -0.6823 C   0  0  0  0  0  0  0  0  0  0  0  0
   -0.8653   -2.1330   -1.1908 O   0  0  0  0  0  0  0  0  0  0  0  0
    0.0956   -1.8355   -0.2900 C   0  0  0  0  0  0  0  0  0  0  0  0
   -0.0535   -1.5140    0.8764 O   0  0  0  0  0  0  0  0  0  0  0  0
    1.4059   -1.8572   -0.9519 C   0  0  0  0  0  0  0  0  0  0  0  0
    2.1122   -0.6502   -1.0141 C   0  0  0  0  0  0  0  0  0  0  0  0
    3.4030   -0.6075   -1.5731 C   0  0  0  0  0  0  0  0  0  0  0  0
    4.1921    0.9884   -1.6455 S   0  0  0  0  0  6  0  0  0  0  0  0
    5.1387    1.0079   -2.7385 O   0  0  0  0  0  0  0  0  0  0  0  0
    3.1311    1.9750   -1.5961 O   0  0  0  0  0  0  0  0  0  0  0  0
    5.0471    1.0932   -0.1888 N   0  0  0  0  0  0  0  0  0  0  0  0
    4.2590    1.1401    1.0729 C   0  0  0  0  0  0  0  0  0  0  0  0
    5.1622    1.5948    2.2265 C   0  0  0  0  0  0  0  0  0  0  0  0
    6.3032    0.7315    2.3602 O   0  0  0  0  0  0  0  0  0  0  0  0
    7.0877    0.7486    1.1593 C   0  0  0  0  0  0  0  0  0  0  0  0
    6.2709    0.2560   -0.0434 C   0  0  0  0  0  0  0  0  0  0  0  0
    3.9688   -1.7770   -2.0907 C   0  0  0  0  0  0  0  0  0  0  0  0
    5.5491   -1.8980   -2.7720 Cl  0  0  0  0  0  0  0  0  0  0  0  0
    3.2464   -2.9814   -2.0269 C   0  0  0  0  0  0  0  0  0  0  0  0
    1.9720   -3.0285   -1.4537 C   0  0  0  0  0  0  0  0  0  0  0  0
    1.1877   -4.5645   -1.3493 Cl  0  0  0  0  0  0  0  0  0  0  0  0
   -4.0509    1.3286    0.1947 C   0  0  0  0  0  0  0  0  0  0  0  0
   -5.1771    1.8006    1.1360 C   0  0  0  0  0  0  0  0  0  0  0  0
   -6.5193    1.6055    0.4430 C   0  0  0  0  0  0  0  0  0  0  0  0
   -6.1910    1.7348   -1.3013 S   0  0  0  0  0  6  0  0  0  0  0  0
   -6.7485    2.9818   -1.7866 O   0  0  0  0  0  0  0  0  0  0  0  0
   -6.5063    0.4583   -1.9109 O   0  0  0  0  0  0  0  0  0  0  0  0
   -4.4248    1.9033   -1.1815 C   0  0  0  0  0  0  0  0  0  0  0  0
   -2.7123   -1.4927    2.3148 H   0  0  0  0  0  0  0  0  0  0  0  0
   -4.2875   -1.9091    3.0047 H   0  0  0  0  0  0  0  0  0  0  0  0
   -3.7728   -0.2182    2.9078 H   0  0  0  0  0  0  0  0  0  0  0  0
   -5.4674   -0.8232    1.1103 H   0  0  0  0  0  0  0  0  0  0  0  0
   -4.3995   -2.0707    0.5430 H   0  0  0  0  0  0  0  0  0  0  0  0
   -2.2846   -2.4852    0.2666 H   0  0  0  0  0  0  0  0  0  0  0  0
   -2.8779   -2.4093   -1.4019 H   0  0  0  0  0  0  0  0  0  0  0  0
    1.6448    0.2544   -0.6206 H   0  0  0  0  0  0  0  0  0  0  0  0
    3.4193    1.8359    0.9822 H   0  0  0  0  0  0  0  0  0  0  0  0
    3.8740    0.1374    1.2897 H   0  0  0  0  0  0  0  0  0  0  0  0
    5.5048    2.6260    2.0839 H   0  0  0  0  0  0  0  0  0  0  0  0
    4.6068    1.5527    3.1685 H   0  0  0  0  0  0  0  0  0  0  0  0
    7.9472    0.0905    1.3182 H   0  0  0  0  0  0  0  0  0  0  0  0
    7.4676    1.7635    0.9925 H   0  0  0  0  0  0  0  0  0  0  0  0
    5.9757   -0.7865    0.1213 H   0  0  0  0  0  0  0  0  0  0  0  0
    6.8933    0.3224   -0.9420 H   0  0  0  0  0  0  0  0  0  0  0  0
    3.6909   -3.8975   -2.4176 H   0  0  0  0  0  0  0  0  0  0  0  0
   -3.1207    1.8059    0.5284 H   0  0  0  0  0  0  0  0  0  0  0  0
   -5.1616    1.3326    2.1249 H   0  0  0  0  0  0  0  0  0  0  0  0
   -5.0386    2.8785    1.3093 H   0  0  0  0  0  0  0  0  0  0  0  0
   -7.2373    2.3762    0.7352 H   0  0  0  0  0  0  0  0  0  0  0  0
   -6.9536    0.6233    0.6368 H   0  0  0  0  0  0  0  0  0  0  0  0
   -4.2065    2.9731   -1.2110 H   0  0  0  0  0  0  0  0  0  0  0  0
   -3.9651    1.4126   -2.0392 H   0  0  0  0  0  0  0  0  0  0  0  0
  1  2  1  0
  2  3  1  0
  3  4  1  0
  4  5  2  0
  4  6  1  0
  6  7  1  0
  7  8  1  0
  8  9  2  0
  8 10  1  0
 10 11  2  0
 11 12  1  0
 12 13  1  0
 13 14  2  0
 13 15  2  0
 13 16  1  0
 16 17  1  0
 17 18  1  0
 18 19  1  0
 19 20  1  0
 20 21  1  0
 12 22  2  0
 22 23  1  0
 22 24  1  0
 24 25  2  0
 25 26  1  0
  3 27  1  0
 27 28  1  0
 28 29  1  0
 29 30  1  0
 30 31  2  0
 30 32  2  0
 30 33  1  0
 25 10  1  0
 33 27  1  0
 21 16  1  0
  1 34  1  0
  1 35  1  0
  1 36  1  0
  2 37  1  0
  2 38  1  0
  6 39  1  0
  6 40  1  0
 11 41  1  0
 17 42  1  0
 17 43  1  0
 18 44  1  0
 18 45  1  0
 20 46  1  0
 20 47  1  0
 21 48  1  0
 21 49  1  0
 24 50  1  0
 27 51  1  0
 28 52  1  0
 28 53  1  0
 29 54  1  0
 29 55  1  0
 33 56  1  0
 33 57  1  0
M  END
$$$$
