
     RDKit          3D

 51 53  0  0  0  0  0  0  0  0999 V2000
    2.2430   -0.1647    1.7658 O   0  0  0  0  0  0  0  0  0  0  0  0
    2.1129   -0.6876    0.6644 C   0  0  0  0  0  0  0  0  0  0  0  0
    3.1764   -1.1446   -0.0824 N   0  0  0  0  0  0  0  0  0  0  0  0
    4.5527   -1.0045    0.3603 C   0  0  0  0  0  0  0  0  0  0  0  0
    5.2837    0.1784   -0.2958 C   0  0  0  0  0  0  0  0  0  0  0  0
    4.8366    1.5495    0.1891 C   0  0  0  0  0  0  0  0  0  0  0  0
    5.7404    1.7906    1.3716 C   0  0  0  0  0  0  0  0  0  0  0  0
    7.0347    1.1646    0.9045 C   0  0  0  0  0  0  0  0  0  0  0  0
    6.6865    0.0803    0.0296 O   0  0  0  0  0  0  0  0  0  0  0  0
    0.7607   -0.8954   -0.0008 C   0  0  0  0  0  0  0  0  0  0  0  0
    0.4099   -2.3872   -0.0640 C   0  0  0  0  0  0  0  0  0  0  0  0
   -0.9888   -2.6065   -0.6364 C   0  0  0  0  0  0  0  0  0  0  0  0
   -2.0455   -1.7646    0.0734 C   0  0  0  0  0  0  0  0  0  0  0  0
   -1.6605   -0.3327    0.1441 N   0  0  0  0  0  0  0  0  0  0  0  0
   -2.0085    0.6616   -1.1940 S   0  0  0  0  0  6  0  0  0  0  0  0
   -1.6056    2.0156   -0.8818 O   0  0  0  0  0  0  0  0  0  0  0  0
   -1.5210   -0.0061   -2.3833 O   0  0  0  0  0  0  0  0  0  0  0  0
   -3.7847    0.6508   -1.2298 C   0  0  0  0  0  0  0  0  0  0  0  0
   -4.4622    0.1323   -2.3353 C   0  0  0  0  0  0  0  0  0  0  0  0
   -5.8561    0.1325   -2.3438 C   0  0  0  0  0  0  0  0  0  0  0  0
   -6.5641    0.6534   -1.2565 C   0  0  0  0  0  0  0  0  0  0  0  0
   -5.8883    1.1912   -0.1478 C   0  0  0  0  0  0  0  0  0  0  0  0
   -6.6592    1.7357    1.0305 C   0  0  0  0  0  0  0  0  0  0  0  0
   -6.9220    0.7753    1.9589 F   0  0  0  0  0  0  0  0  0  0  0  0
   -7.8669    2.2604    0.6818 F   0  0  0  0  0  0  0  0  0  0  0  0
   -5.9990    2.7259    1.6914 F   0  0  0  0  0  0  0  0  0  0  0  0
   -4.4852    1.1804   -0.1400 C   0  0  0  0  0  0  0  0  0  0  0  0
   -0.3209   -0.1375    0.7692 C   0  0  0  0  0  0  0  0  0  0  0  0
    3.0125   -1.5078   -1.0135 H   0  0  0  0  0  0  0  0  0  0  0  0
    4.5934   -0.9317    1.4546 H   0  0  0  0  0  0  0  0  0  0  0  0
    5.0625   -1.9386    0.0958 H   0  0  0  0  0  0  0  0  0  0  0  0
    5.1814    0.1048   -1.3845 H   0  0  0  0  0  0  0  0  0  0  0  0
    3.7740    1.6268    0.4276 H   0  0  0  0  0  0  0  0  0  0  0  0
    5.0559    2.2958   -0.5852 H   0  0  0  0  0  0  0  0  0  0  0  0
    5.3590    1.2590    2.2507 H   0  0  0  0  0  0  0  0  0  0  0  0
    5.8478    2.8460    1.6338 H   0  0  0  0  0  0  0  0  0  0  0  0
    7.6423    0.7875    1.7313 H   0  0  0  0  0  0  0  0  0  0  0  0
    7.6352    1.8770    0.3285 H   0  0  0  0  0  0  0  0  0  0  0  0
    0.8296   -0.4923   -1.0195 H   0  0  0  0  0  0  0  0  0  0  0  0
    0.4649   -2.8249    0.9414 H   0  0  0  0  0  0  0  0  0  0  0  0
    1.1391   -2.9311   -0.6757 H   0  0  0  0  0  0  0  0  0  0  0  0
   -1.2539   -3.6666   -0.5549 H   0  0  0  0  0  0  0  0  0  0  0  0
   -0.9767   -2.3741   -1.7062 H   0  0  0  0  0  0  0  0  0  0  0  0
   -2.1811   -2.1273    1.1003 H   0  0  0  0  0  0  0  0  0  0  0  0
   -3.0158   -1.8848   -0.4175 H   0  0  0  0  0  0  0  0  0  0  0  0
   -3.9170   -0.2666   -3.1882 H   0  0  0  0  0  0  0  0  0  0  0  0
   -6.3943   -0.2700   -3.1997 H   0  0  0  0  0  0  0  0  0  0  0  0
   -7.6541    0.6455   -1.2798 H   0  0  0  0  0  0  0  0  0  0  0  0
   -3.9368    1.5874    0.7096 H   0  0  0  0  0  0  0  0  0  0  0  0
   -0.3823   -0.4913    1.8074 H   0  0  0  0  0  0  0  0  0  0  0  0
   -0.0845    0.9302    0.8397 H   0  0  0  0  0  0  0  0  0  0  0  0
  1  2  2  0
  2  3  1  0
  3  4  1  0
  4  5  1  0
  5  6  1  0
  6  7  1  0
  7  8  1  0
  8  9  1  0
  2 10  1  0
 10 11  1  0
 11 12  1  0
 12 13  1  0
 13 14  1  0
 14 15  1  0
 15 16  2  0
 15 17  2  0
 15 18  1  0
 18 19  2  0
 19 20  1  0
 20 21  2  0
 21 22  1  0
 22 23  1  0
 23 24  1  0
 23 25  1  0
 23 26  1  0
 22 27  2  0
 14 28  1  0
  9  5  1  0
 28 10  1  0
 27 18  1  0
  3 29  1  0
  4 30  1  0
  4 31  1  0
  5 32  1  0
  6 33  1  0
  6 34  1  0
  7 35  1  0
  7 36  1  0
  8 37  1  0
  8 38  1  0
 10 39  1  0
 11 40  1  0
 11 41  1  0
 12 42  1  0
 12 43  1  0
 13 44  1  0
 13 45  1  0
 19 46  1  0
 20 47  1  0
 21 48  1  0
 27 49  1  0
 28 50  1  0
 28 51  1  0
M  END
$$$$
