
     RDKit          3D

 51 54  0  0  0  0  0  0  0  0999 V2000
    3.0073   -0.6101   -2.8098 C   0  0  0  0  0  0  0  0  0  0  0  0
    2.3927    0.2481   -1.6961 C   0  0  0  0  0  0  0  0  0  0  0  0
    1.0177    0.7901   -2.1428 C   0  0  0  0  0  0  0  0  0  0  0  0
    0.0850   -0.1463   -1.4399 C   0  0  0  0  0  0  0  0  0  0  0  0
   -1.2840   -0.2675   -1.6265 C   0  0  0  0  0  0  0  0  0  0  0  0
   -1.9806   -1.1518   -0.7962 C   0  0  0  0  0  0  0  0  0  0  0  0
   -3.7371   -1.3690   -1.0205 S   0  0  0  0  0  6  0  0  0  0  0  0
   -4.0588   -0.9277   -2.3618 O   0  0  0  0  0  0  0  0  0  0  0  0
   -4.0675   -2.7059   -0.5742 O   0  0  0  0  0  0  0  0  0  0  0  0
   -4.4040   -0.2588    0.0758 N   0  0  0  0  0  0  0  0  0  0  0  0
   -4.3738   -0.6193    1.5118 C   0  0  0  0  0  0  0  0  0  0  0  0
   -5.0604    0.4646    2.3355 C   0  0  0  0  0  0  0  0  0  0  0  0
   -4.3375    1.8047    2.2079 C   0  0  0  0  0  0  0  0  0  0  0  0
   -3.6087    1.9525    0.8732 C   0  0  0  0  0  0  0  0  0  0  0  0
   -4.3066    1.1850   -0.2427 C   0  0  0  0  0  0  0  0  0  0  0  0
   -1.3083   -1.9130    0.1760 C   0  0  0  0  0  0  0  0  0  0  0  0
    0.0712   -1.7648    0.3580 C   0  0  0  0  0  0  0  0  0  0  0  0
    0.7586   -0.8820   -0.4594 C   0  0  0  0  0  0  0  0  0  0  0  0
    2.1342   -0.5637   -0.4789 N   0  0  0  0  0  0  0  0  0  0  0  0
    3.0669   -0.9588    0.4781 C   0  0  0  0  0  0  0  0  0  0  0  0
    2.7866   -1.7239    1.4093 O   0  0  0  0  0  0  0  0  0  0  0  0
    4.4918   -0.3450    0.3477 C   0  0  0  0  0  0  0  0  0  0  0  0
    4.7050    1.0766    0.9438 C   0  0  0  0  0  0  0  0  0  0  0  0
    6.1163    0.6246    1.3592 C   0  0  0  0  0  0  0  0  0  0  0  0
    5.5756   -0.8164    1.3637 C   0  0  0  0  0  0  0  0  0  0  0  0
    2.3372   -1.4270   -3.1012 H   0  0  0  0  0  0  0  0  0  0  0  0
    3.2033   -0.0008   -3.6984 H   0  0  0  0  0  0  0  0  0  0  0  0
    3.9508   -1.0673   -2.5018 H   0  0  0  0  0  0  0  0  0  0  0  0
    3.0727    1.0726   -1.4612 H   0  0  0  0  0  0  0  0  0  0  0  0
    0.8833    0.7842   -3.2284 H   0  0  0  0  0  0  0  0  0  0  0  0
    0.8632    1.8049   -1.7597 H   0  0  0  0  0  0  0  0  0  0  0  0
   -1.7952    0.3088   -2.3922 H   0  0  0  0  0  0  0  0  0  0  0  0
   -3.3425   -0.7460    1.8564 H   0  0  0  0  0  0  0  0  0  0  0  0
   -4.9082   -1.5641    1.6597 H   0  0  0  0  0  0  0  0  0  0  0  0
   -5.1102    0.1712    3.3887 H   0  0  0  0  0  0  0  0  0  0  0  0
   -6.0956    0.5816    1.9913 H   0  0  0  0  0  0  0  0  0  0  0  0
   -5.0660    2.6152    2.3307 H   0  0  0  0  0  0  0  0  0  0  0  0
   -3.6111    1.9174    3.0212 H   0  0  0  0  0  0  0  0  0  0  0  0
   -3.5298    3.0142    0.6130 H   0  0  0  0  0  0  0  0  0  0  0  0
   -2.5819    1.5798    0.9821 H   0  0  0  0  0  0  0  0  0  0  0  0
   -5.3231    1.5690   -0.3893 H   0  0  0  0  0  0  0  0  0  0  0  0
   -3.7721    1.3547   -1.1817 H   0  0  0  0  0  0  0  0  0  0  0  0
   -1.8520   -2.6253    0.7937 H   0  0  0  0  0  0  0  0  0  0  0  0
    0.5748   -2.3575    1.1146 H   0  0  0  0  0  0  0  0  0  0  0  0
    4.8890   -0.4221   -0.6715 H   0  0  0  0  0  0  0  0  0  0  0  0
    4.6731    1.9035    0.2295 H   0  0  0  0  0  0  0  0  0  0  0  0
    4.0480    1.3125    1.7892 H   0  0  0  0  0  0  0  0  0  0  0  0
    6.8804    0.8066    0.5950 H   0  0  0  0  0  0  0  0  0  0  0  0
    6.4744    1.0021    2.3198 H   0  0  0  0  0  0  0  0  0  0  0  0
    5.1876   -1.1327    2.3387 H   0  0  0  0  0  0  0  0  0  0  0  0
    6.2685   -1.5778    0.9960 H   0  0  0  0  0  0  0  0  0  0  0  0
  1  2  1  0
  2  3  1  0
  3  4  1  0
  4  5  2  0
  5  6  1  0
  6  7  1  0
  7  8  2  0
  7  9  2  0
  7 10  1  0
 10 11  1  0
 11 12  1  0
 12 13  1  0
 13 14  1  0
 14 15  1  0
  6 16  2  0
 16 17  1  0
 17 18  2  0
 18 19  1  0
 19 20  1  0
 20 21  2  0
 20 22  1  0
 22 23  1  0
 23 24  1  0
 24 25  1  0
 19  2  1  0
 25 22  1  0
 18  4  1  0
 15 10  1  0
  1 26  1  0
  1 27  1  0
  1 28  1  0
  2 29  1  0
  3 30  1  0
  3 31  1  0
  5 32  1  0
 11 33  1  0
 11 34  1  0
 12 35  1  0
 12 36  1  0
 13 37  1  0
 13 38  1  0
 14 39  1  0
 14 40  1  0
 15 41  1  0
 15 42  1  0
 16 43  1  0
 17 44  1  0
 22 45  1  0
 23 46  1  0
 23 47  1  0
 24 48  1  0
 24 49  1  0
 25 50  1  0
 25 51  1  0
M  END
$$$$
