
     RDKit          3D

 40 41  0  0  0  0  0  0  0  0999 V2000
   -5.5969    0.9529   -0.7429 C   0  0  0  0  0  0  0  0  0  0  0  0
   -4.2344    1.3881   -0.2022 C   0  0  0  0  0  0  0  0  0  0  0  0
   -4.0096    0.8780    1.2325 C   0  0  0  0  0  0  0  0  0  0  0  0
   -3.1191   -0.3589    1.2762 C   0  0  0  0  0  0  0  0  0  0  0  0
   -1.8151   -0.1086    0.6659 N   0  0  0  0  0  0  0  0  0  0  0  0
   -0.7661   -0.9582    1.0163 C   0  0  0  0  0  0  0  0  0  0  0  0
   -0.9119   -1.9526    1.7241 O   0  0  0  0  0  0  0  0  0  0  0  0
    0.5993   -0.6633    0.5206 C   0  0  0  0  0  0  0  0  0  0  0  0
    1.3384   -1.6970   -0.0653 C   0  0  0  0  0  0  0  0  0  0  0  0
    2.6380   -1.4549   -0.5149 C   0  0  0  0  0  0  0  0  0  0  0  0
    3.1945   -0.1835   -0.3750 C   0  0  0  0  0  0  0  0  0  0  0  0
    4.5332    0.0412   -0.8076 N   0  0  0  0  0  0  0  0  0  0  0  0
    5.7586   -0.1391    0.3493 S   0  0  0  0  0  6  0  0  0  0  0  0
    6.2338   -1.8363    0.1035 C   0  0  0  0  0  0  0  0  0  0  0  0
    5.2157    0.0207    1.6788 O   0  0  0  0  0  0  0  0  0  0  0  0
    6.8462    0.6937   -0.1203 O   0  0  0  0  0  0  0  0  0  0  0  0
    2.4732    0.8416    0.2403 C   0  0  0  0  0  0  0  0  0  0  0  0
    1.1748    0.6006    0.6959 C   0  0  0  0  0  0  0  0  0  0  0  0
   -1.7693    0.8429   -0.4484 C   0  0  0  0  0  0  0  0  0  0  0  0
   -3.1158    0.9432   -1.1587 C   0  0  0  0  0  0  0  0  0  0  0  0
   -5.7520    1.3349   -1.7574 H   0  0  0  0  0  0  0  0  0  0  0  0
   -6.4057    1.3389   -0.1134 H   0  0  0  0  0  0  0  0  0  0  0  0
   -5.6832   -0.1386   -0.7727 H   0  0  0  0  0  0  0  0  0  0  0  0
   -4.2383    2.4856   -0.1630 H   0  0  0  0  0  0  0  0  0  0  0  0
   -4.9622    0.6751    1.7350 H   0  0  0  0  0  0  0  0  0  0  0  0
   -3.5204    1.6746    1.8093 H   0  0  0  0  0  0  0  0  0  0  0  0
   -2.9777   -0.6794    2.3146 H   0  0  0  0  0  0  0  0  0  0  0  0
   -3.5852   -1.1923    0.7369 H   0  0  0  0  0  0  0  0  0  0  0  0
    0.9025   -2.6889   -0.1638 H   0  0  0  0  0  0  0  0  0  0  0  0
    3.2026   -2.2592   -0.9771 H   0  0  0  0  0  0  0  0  0  0  0  0
    4.6854    0.9236   -1.3006 H   0  0  0  0  0  0  0  0  0  0  0  0
    7.0967   -2.0378    0.7422 H   0  0  0  0  0  0  0  0  0  0  0  0
    6.5073   -1.9809   -0.9433 H   0  0  0  0  0  0  0  0  0  0  0  0
    5.4057   -2.4862    0.3892 H   0  0  0  0  0  0  0  0  0  0  0  0
    2.9232    1.8181    0.3983 H   0  0  0  0  0  0  0  0  0  0  0  0
    0.6290    1.3880    1.2089 H   0  0  0  0  0  0  0  0  0  0  0  0
   -1.0027    0.5429   -1.1693 H   0  0  0  0  0  0  0  0  0  0  0  0
   -1.4891    1.8186   -0.0355 H   0  0  0  0  0  0  0  0  0  0  0  0
   -3.3579   -0.0358   -1.5932 H   0  0  0  0  0  0  0  0  0  0  0  0
   -3.0458    1.6482   -1.9955 H   0  0  0  0  0  0  0  0  0  0  0  0
  1  2  1  0
  2  3  1  0
  3  4  1  0
  4  5  1  0
  5  6  1  0
  6  7  2  0
  6  8  1  0
  8  9  2  0
  9 10  1  0
 10 11  2  0
 11 12  1  0
 12 13  1  0
 13 14  1  0
 13 15  2  0
 13 16  2  0
 11 17  1  0
 17 18  2  0
  5 19  1  0
 19 20  1  0
 20  2  1  0
 18  8  1  0
  1 21  1  0
  1 22  1  0
  1 23  1  0
  2 24  1  0
  3 25  1  0
  3 26  1  0
  4 27  1  0
  4 28  1  0
  9 29  1  0
 10 30  1  0
 12 31  1  0
 14 32  1  0
 14 33  1  0
 14 34  1  0
 17 35  1  0
 18 36  1  0
 19 37  1  0
 19 38  1  0
 20 39  1  0
 20 40  1  0
M  END
$$$$
