
     RDKit          3D

 45 48  0  0  0  0  0  0  0  0999 V2000
   -0.7889   -2.4130    1.9911 O   0  0  0  0  0  0  0  0  0  0  0  0
   -0.9422   -2.0489    0.8294 C   0  0  0  0  0  0  0  0  0  0  0  0
   -1.4662   -0.8479    0.4353 N   0  0  0  0  0  0  0  0  0  0  0  0
   -1.0686    0.2395    0.9937 C   0  0  0  0  0  0  0  0  0  0  0  0
   -0.1352    0.3391    1.9806 N   0  0  0  0  0  0  0  0  0  0  0  0
    1.0936    0.1221    1.6434 C   0  0  0  0  0  0  0  0  0  0  0  0
    2.1555    0.0953    2.5172 N   0  0  0  0  0  0  0  0  0  0  0  0
    3.2122   -0.4237    1.8027 C   0  0  0  0  0  0  0  0  0  0  0  0
    4.4981   -0.7302    2.1799 C   0  0  0  0  0  0  0  0  0  0  0  0
    5.3756   -1.1784    1.1852 C   0  0  0  0  0  0  0  0  0  0  0  0
    4.9549   -1.2905   -0.1552 C   0  0  0  0  0  0  0  0  0  0  0  0
    3.6517   -0.9504   -0.5235 C   0  0  0  0  0  0  0  0  0  0  0  0
    2.8131   -0.5130    0.4775 C   0  0  0  0  0  0  0  0  0  0  0  0
    1.4855   -0.1392    0.3200 O   0  0  0  0  0  0  0  0  0  0  0  0
   -1.5858    1.4635    0.6578 N   0  0  0  0  0  0  0  0  0  0  0  0
   -2.5308    1.7486   -0.3121 C   0  0  0  0  0  0  0  0  0  0  0  0
   -3.0494    0.9497   -1.0823 O   0  0  0  0  0  0  0  0  0  0  0  0
   -2.9354    3.1799   -0.3918 C   0  0  0  0  0  0  0  0  0  0  0  0
   -2.0262    4.2227   -0.1672 C   0  0  0  0  0  0  0  0  0  0  0  0
   -2.4540    5.5498   -0.2530 C   0  0  0  0  0  0  0  0  0  0  0  0
   -3.7816    5.8385   -0.5700 C   0  0  0  0  0  0  0  0  0  0  0  0
   -4.6844    4.8038   -0.8120 C   0  0  0  0  0  0  0  0  0  0  0  0
   -4.2621    3.4763   -0.7288 C   0  0  0  0  0  0  0  0  0  0  0  0
   -0.5442   -2.9657   -0.2832 C   0  0  0  0  0  0  0  0  0  0  0  0
    0.1309   -4.1566    0.0177 C   0  0  0  0  0  0  0  0  0  0  0  0
    0.5284   -5.0178   -1.0071 C   0  0  0  0  0  0  0  0  0  0  0  0
    0.2526   -4.6949   -2.3356 C   0  0  0  0  0  0  0  0  0  0  0  0
   -0.4212   -3.5131   -2.6429 C   0  0  0  0  0  0  0  0  0  0  0  0
   -0.8195   -2.6486   -1.6208 C   0  0  0  0  0  0  0  0  0  0  0  0
    1.9789   -0.1910    3.4674 H   0  0  0  0  0  0  0  0  0  0  0  0
    4.8289   -0.6284    3.2071 H   0  0  0  0  0  0  0  0  0  0  0  0
    6.3989   -1.4392    1.4476 H   0  0  0  0  0  0  0  0  0  0  0  0
    5.6546   -1.6426   -0.9102 H   0  0  0  0  0  0  0  0  0  0  0  0
    3.3115   -1.0307   -1.5493 H   0  0  0  0  0  0  0  0  0  0  0  0
   -1.2692    2.1966    1.2700 H   0  0  0  0  0  0  0  0  0  0  0  0
   -0.9790    4.0251    0.0434 H   0  0  0  0  0  0  0  0  0  0  0  0
   -1.7500    6.3614   -0.0840 H   0  0  0  0  0  0  0  0  0  0  0  0
   -4.1114    6.8725   -0.6397 H   0  0  0  0  0  0  0  0  0  0  0  0
   -5.7163    5.0291   -1.0704 H   0  0  0  0  0  0  0  0  0  0  0  0
   -4.9686    2.6716   -0.9252 H   0  0  0  0  0  0  0  0  0  0  0  0
    0.3496   -4.4159    1.0514 H   0  0  0  0  0  0  0  0  0  0  0  0
    1.0503   -5.9408   -0.7678 H   0  0  0  0  0  0  0  0  0  0  0  0
    0.5588   -5.3677   -3.1329 H   0  0  0  0  0  0  0  0  0  0  0  0
   -0.6423   -3.2639   -3.6778 H   0  0  0  0  0  0  0  0  0  0  0  0
   -1.3511   -1.7332   -1.8757 H   0  0  0  0  0  0  0  0  0  0  0  0
  1  2  2  0
  2  3  1  0
  3  4  2  3
  4  5  1  0
  5  6  2  3
  6  7  1  0
  7  8  1  0
  8  9  2  0
  9 10  1  0
 10 11  2  0
 11 12  1  0
 12 13  2  0
 13 14  1  0
  4 15  1  0
 15 16  1  0
 16 17  2  0
 16 18  1  0
 18 19  2  0
 19 20  1  0
 20 21  2  0
 21 22  1  0
 22 23  2  0
  2 24  1  0
 24 25  2  0
 25 26  1  0
 26 27  2  0
 27 28  1  0
 28 29  2  0
 14  6  1  0
 23 18  1  0
 29 24  1  0
 13  8  1  0
  7 30  1  0
  9 31  1  0
 10 32  1  0
 11 33  1  0
 12 34  1  0
 15 35  1  0
 19 36  1  0
 20 37  1  0
 21 38  1  0
 22 39  1  0
 23 40  1  0
 25 41  1  0
 26 42  1  0
 27 43  1  0
 28 44  1  0
 29 45  1  0
M  END
$$$$
