
     RDKit          3D

 46 48  0  0  0  0  0  0  0  0999 V2000
    4.3158   -3.5247   -1.4057 C   0  0  0  0  0  0  0  0  0  0  0  0
    5.2927   -2.4983   -1.5345 O   0  0  0  0  0  0  0  0  0  0  0  0
    4.7466   -1.1895   -1.3649 C   0  0  0  0  0  0  0  0  0  0  0  0
    4.6525   -0.8062    0.1163 C   0  0  0  0  0  0  0  0  0  0  0  0
    4.1214    0.5442    0.3047 N   0  0  0  0  0  0  0  0  0  0  0  0
    2.7456    0.7142    0.2597 C   0  0  0  0  0  0  0  0  0  0  0  0
    1.9414   -0.1858    0.0670 O   0  0  0  0  0  0  0  0  0  0  0  0
    2.3963    2.1503    0.4508 C   0  0  0  0  0  0  0  0  0  0  0  0
    1.1764    2.7024    0.5020 C   0  0  0  0  0  0  0  0  0  0  0  0
   -0.0940    1.9815    0.3795 C   0  0  0  0  0  0  0  0  0  0  0  0
   -0.6638    1.8466   -0.8877 C   0  0  0  0  0  0  0  0  0  0  0  0
   -1.8820    1.1760   -1.0535 C   0  0  0  0  0  0  0  0  0  0  0  0
   -2.5761    0.6148    0.0264 C   0  0  0  0  0  0  0  0  0  0  0  0
   -3.7732   -0.0408   -0.1421 N   0  0  0  0  0  0  0  0  0  0  0  0
   -4.3397   -0.3908   -1.4428 C   0  0  0  0  0  0  0  0  0  0  0  0
   -5.4385   -1.3975   -1.1094 C   0  0  0  0  0  0  0  0  0  0  0  0
   -5.8955   -0.9640    0.2721 C   0  0  0  0  0  0  0  0  0  0  0  0
   -4.5906   -0.5583    0.9519 C   0  0  0  0  0  0  0  0  0  0  0  0
   -1.9824    0.7669    1.2911 C   0  0  0  0  0  0  0  0  0  0  0  0
   -0.7596    1.4425    1.4892 C   0  0  0  0  0  0  0  0  0  0  0  0
   -0.1930    1.5409    2.8790 C   0  0  0  0  0  0  0  0  0  0  0  0
    3.8393    3.0835    0.6080 S   0  0  0  0  0  0  0  0  0  0  0  0
    4.8863    1.6813    0.4415 C   0  0  0  0  0  0  0  0  0  0  0  0
    6.5483    1.8122    0.4569 S   0  0  0  0  0  0  0  0  0  0  0  0
    3.8805   -3.5290   -0.4029 H   0  0  0  0  0  0  0  0  0  0  0  0
    3.5306   -3.4032   -2.1580 H   0  0  0  0  0  0  0  0  0  0  0  0
    4.8082   -4.4868   -1.5717 H   0  0  0  0  0  0  0  0  0  0  0  0
    5.4236   -0.4952   -1.8746 H   0  0  0  0  0  0  0  0  0  0  0  0
    3.7770   -1.1085   -1.8707 H   0  0  0  0  0  0  0  0  0  0  0  0
    5.6357   -0.9050    0.5878 H   0  0  0  0  0  0  0  0  0  0  0  0
    3.9996   -1.5117    0.6430 H   0  0  0  0  0  0  0  0  0  0  0  0
    1.0609    3.7745    0.6471 H   0  0  0  0  0  0  0  0  0  0  0  0
   -0.1696    2.2587   -1.7640 H   0  0  0  0  0  0  0  0  0  0  0  0
   -2.2822    1.1083   -2.0608 H   0  0  0  0  0  0  0  0  0  0  0  0
   -4.7658    0.5000   -1.9182 H   0  0  0  0  0  0  0  0  0  0  0  0
   -3.6061   -0.8465   -2.1166 H   0  0  0  0  0  0  0  0  0  0  0  0
   -6.2460   -1.3953   -1.8467 H   0  0  0  0  0  0  0  0  0  0  0  0
   -5.0189   -2.4098   -1.0630 H   0  0  0  0  0  0  0  0  0  0  0  0
   -6.5630   -0.0976    0.1900 H   0  0  0  0  0  0  0  0  0  0  0  0
   -6.4227   -1.7535    0.8146 H   0  0  0  0  0  0  0  0  0  0  0  0
   -4.7848    0.1925    1.7252 H   0  0  0  0  0  0  0  0  0  0  0  0
   -4.1071   -1.4316    1.4048 H   0  0  0  0  0  0  0  0  0  0  0  0
   -2.4722    0.3405    2.1626 H   0  0  0  0  0  0  0  0  0  0  0  0
   -0.9059    1.1843    3.6301 H   0  0  0  0  0  0  0  0  0  0  0  0
    0.0414    2.5813    3.1269 H   0  0  0  0  0  0  0  0  0  0  0  0
    0.7128    0.9321    2.9624 H   0  0  0  0  0  0  0  0  0  0  0  0
  1  2  1  0
  2  3  1  0
  3  4  1  0
  4  5  1  0
  5  6  1  0
  6  7  2  0
  6  8  1  0
  8  9  2  3
  9 10  1  0
 10 11  2  0
 11 12  1  0
 12 13  2  0
 13 14  1  0
 14 15  1  0
 15 16  1  0
 16 17  1  0
 17 18  1  0
 13 19  1  0
 19 20  2  0
 20 21  1  0
  8 22  1  0
 22 23  1  0
 23 24  2  0
 23  5  1  0
 20 10  1  0
 18 14  1  0
  1 25  1  0
  1 26  1  0
  1 27  1  0
  3 28  1  0
  3 29  1  0
  4 30  1  0
  4 31  1  0
  9 32  1  0
 11 33  1  0
 12 34  1  0
 15 35  1  0
 15 36  1  0
 16 37  1  0
 16 38  1  0
 17 39  1  0
 17 40  1  0
 18 41  1  0
 18 42  1  0
 19 43  1  0
 21 44  1  0
 21 45  1  0
 21 46  1  0
M  END
$$$$
