
     RDKit          3D

 60 64  0  0  0  0  0  0  0  0999 V2000
   -5.8863   -1.8311    0.7059 C   0  0  0  0  0  0  0  0  0  0  0  0
   -4.7557   -2.8120    1.0006 C   0  0  0  0  0  0  0  0  0  0  0  0
   -3.3606   -2.3131    0.5959 C   0  0  0  0  0  0  0  0  0  0  0  0
   -3.3361   -2.0158   -0.8327 N   0  0  0  0  0  0  0  0  0  0  0  0
   -2.1027   -1.5162   -1.2563 C   0  0  0  0  0  0  0  0  0  0  0  0
   -1.7636   -1.8450   -2.5093 N   0  0  0  0  0  0  0  0  0  0  0  0
   -0.6172   -1.3278   -2.9501 C   0  0  0  0  0  0  0  0  0  0  0  0
    0.2366   -0.5832   -2.2392 N   0  0  0  0  0  0  0  0  0  0  0  0
   -0.0916   -0.3009   -0.9605 C   0  0  0  0  0  0  0  0  0  0  0  0
    0.9069    0.2963   -0.1675 N   0  0  0  0  0  0  0  0  0  0  0  0
    1.9263    1.0663   -0.9250 C   0  0  0  0  0  0  0  0  0  0  0  0
    3.1171    1.4292   -0.0132 C   0  0  0  0  0  0  0  0  0  0  0  0
    3.8159    0.2174    0.4799 N   0  0  0  0  0  0  0  0  0  0  0  0
    5.0957   -0.0774   -0.0150 C   0  0  0  0  0  0  0  0  0  0  0  0
    5.5443    0.2997   -1.2879 C   0  0  0  0  0  0  0  0  0  0  0  0
    6.8272   -0.0378   -1.7346 C   0  0  0  0  0  0  0  0  0  0  0  0
    7.6869   -0.7621   -0.9141 C   0  0  0  0  0  0  0  0  0  0  0  0
    7.2633   -1.1504    0.3520 C   0  0  0  0  0  0  0  0  0  0  0  0
    5.9805   -0.8119    0.7918 C   0  0  0  0  0  0  0  0  0  0  0  0
    2.9603   -0.9983    0.5467 C   0  0  0  0  0  0  0  0  0  0  0  0
    1.4833   -0.6458    0.8352 C   0  0  0  0  0  0  0  0  0  0  0  0
   -1.3282   -0.6980   -0.4235 C   0  0  0  0  0  0  0  0  0  0  0  0
   -1.8359   -0.3616    0.8845 N   0  0  0  0  0  0  0  0  0  0  0  0
   -1.5347    0.9310    1.4988 C   0  0  0  0  0  0  0  0  0  0  0  0
   -2.3684    2.0560    0.9170 C   0  0  0  0  0  0  0  0  0  0  0  0
   -1.8850    2.8280   -0.1491 C   0  0  0  0  0  0  0  0  0  0  0  0
   -2.6629    3.8499   -0.6965 C   0  0  0  0  0  0  0  0  0  0  0  0
   -3.9327    4.1108   -0.1856 C   0  0  0  0  0  0  0  0  0  0  0  0
   -4.4267    3.3492    0.8713 C   0  0  0  0  0  0  0  0  0  0  0  0
   -3.6506    2.3263    1.4184 C   0  0  0  0  0  0  0  0  0  0  0  0
   -2.9053   -1.0912    1.4264 C   0  0  0  0  0  0  0  0  0  0  0  0
   -3.3973   -0.8363    2.5285 O   0  0  0  0  0  0  0  0  0  0  0  0
   -6.8406   -2.2546    1.0355 H   0  0  0  0  0  0  0  0  0  0  0  0
   -5.9683   -1.6248   -0.3656 H   0  0  0  0  0  0  0  0  0  0  0  0
   -5.7450   -0.8809    1.2289 H   0  0  0  0  0  0  0  0  0  0  0  0
   -4.7658   -3.0483    2.0715 H   0  0  0  0  0  0  0  0  0  0  0  0
   -4.9684   -3.7490    0.4705 H   0  0  0  0  0  0  0  0  0  0  0  0
   -2.6459   -3.1198    0.8126 H   0  0  0  0  0  0  0  0  0  0  0  0
   -3.6317   -2.7470   -1.4712 H   0  0  0  0  0  0  0  0  0  0  0  0
   -0.3418   -1.5443   -3.9763 H   0  0  0  0  0  0  0  0  0  0  0  0
    2.3144    0.5027   -1.7827 H   0  0  0  0  0  0  0  0  0  0  0  0
    1.4677    1.9877   -1.3021 H   0  0  0  0  0  0  0  0  0  0  0  0
    3.7918    2.1289   -0.5186 H   0  0  0  0  0  0  0  0  0  0  0  0
    2.7388    1.9664    0.8662 H   0  0  0  0  0  0  0  0  0  0  0  0
    4.8982    0.8418   -1.9706 H   0  0  0  0  0  0  0  0  0  0  0  0
    7.1503    0.2633   -2.7277 H   0  0  0  0  0  0  0  0  0  0  0  0
    8.6832   -1.0225   -1.2605 H   0  0  0  0  0  0  0  0  0  0  0  0
    7.9282   -1.7119    1.0025 H   0  0  0  0  0  0  0  0  0  0  0  0
    5.6737   -1.1080    1.7921 H   0  0  0  0  0  0  0  0  0  0  0  0
    3.3191   -1.6614    1.3428 H   0  0  0  0  0  0  0  0  0  0  0  0
    3.0118   -1.5508   -0.4018 H   0  0  0  0  0  0  0  0  0  0  0  0
    0.9085   -1.5772    0.9134 H   0  0  0  0  0  0  0  0  0  0  0  0
    1.4272   -0.1585    1.8165 H   0  0  0  0  0  0  0  0  0  0  0  0
   -1.7393    0.8730    2.5760 H   0  0  0  0  0  0  0  0  0  0  0  0
   -0.4788    1.1898    1.4499 H   0  0  0  0  0  0  0  0  0  0  0  0
   -0.8990    2.6346   -0.5633 H   0  0  0  0  0  0  0  0  0  0  0  0
   -2.2791    4.4392   -1.5249 H   0  0  0  0  0  0  0  0  0  0  0  0
   -4.5392    4.9045   -0.6133 H   0  0  0  0  0  0  0  0  0  0  0  0
   -5.4188    3.5474    1.2687 H   0  0  0  0  0  0  0  0  0  0  0  0
   -4.0544    1.7356    2.2390 H   0  0  0  0  0  0  0  0  0  0  0  0
  1  2  1  0
  2  3  1  0
  3  4  1  0
  4  5  1  0
  5  6  2  0
  6  7  1  0
  7  8  2  0
  8  9  1  0
  9 10  1  0
 10 11  1  0
 11 12  1  0
 12 13  1  0
 13 14  1  0
 14 15  2  0
 15 16  1  0
 16 17  2  0
 17 18  1  0
 18 19  2  0
 13 20  1  0
 20 21  1  0
  9 22  2  0
 22 23  1  0
 23 24  1  0
 24 25  1  0
 25 26  2  0
 26 27  1  0
 27 28  2  0
 28 29  1  0
 29 30  2  0
 23 31  1  0
 31 32  2  0
 31  3  1  0
 22  5  1  0
 30 25  1  0
 21 10  1  0
 19 14  1  0
  1 33  1  0
  1 34  1  0
  1 35  1  0
  2 36  1  0
  2 37  1  0
  3 38  1  0
  4 39  1  0
  7 40  1  0
 11 41  1  0
 11 42  1  0
 12 43  1  0
 12 44  1  0
 15 45  1  0
 16 46  1  0
 17 47  1  0
 18 48  1  0
 19 49  1  0
 20 50  1  0
 20 51  1  0
 21 52  1  0
 21 53  1  0
 24 54  1  0
 24 55  1  0
 26 56  1  0
 27 57  1  0
 28 58  1  0
 29 59  1  0
 30 60  1  0
M  END
$$$$
