
     RDKit          3D

 57 61  0  0  0  0  0  0  0  0999 V2000
    6.3603    1.0550   -2.1616 C   0  0  0  0  0  0  0  0  0  0  0  0
    5.4235   -0.1128   -2.0678 C   0  0  0  0  0  0  0  0  0  0  0  0
    4.0414    0.0757   -2.1754 C   0  0  0  0  0  0  0  0  0  0  0  0
    3.1672   -1.0069   -2.0550 C   0  0  0  0  0  0  0  0  0  0  0  0
    3.6603   -2.2977   -1.8195 C   0  0  0  0  0  0  0  0  0  0  0  0
    2.7174   -3.4657   -1.6779 C   0  0  0  0  0  0  0  0  0  0  0  0
    2.4523   -3.7699   -0.2876 N   0  0  0  0  0  0  0  0  0  0  0  0
    3.1103   -4.7743    0.3436 N   0  0  0  0  0  0  0  0  0  0  0  0
    2.6526   -4.8366    1.5943 N   0  0  0  0  0  0  0  0  0  0  0  0
    1.6958   -3.8777    1.7228 C   0  0  0  0  0  0  0  0  0  0  0  0
    0.8815   -3.5045    2.8471 C   0  0  0  0  0  0  0  0  0  0  0  0
    0.9104   -4.0202    3.9587 O   0  0  0  0  0  0  0  0  0  0  0  0
    0.0197   -2.4584    2.5407 N   0  0  0  0  0  0  0  0  0  0  0  0
   -0.0488   -1.8371    1.2947 C   0  0  0  0  0  0  0  0  0  0  0  0
   -1.0859   -0.7296    1.2030 C   0  0  0  0  0  0  0  0  0  0  0  0
   -0.8493    0.1953    0.0055 C   0  0  0  0  0  0  0  0  0  0  0  0
   -1.8921    1.3082   -0.0314 C   0  0  0  0  0  0  0  0  0  0  0  0
   -3.2767    0.8017    0.1877 N   0  0  0  0  0  0  0  0  0  0  0  0
   -4.1701    1.5562    1.4341 S   0  0  0  0  0  6  0  0  0  0  0  0
   -5.5127    1.0184    1.4284 O   0  0  0  0  0  0  0  0  0  0  0  0
   -3.3495    1.5191    2.6275 O   0  0  0  0  0  0  0  0  0  0  0  0
   -4.2743    3.2366    0.8666 C   0  0  0  0  0  0  0  0  0  0  0  0
   -4.9831    3.5092   -0.3100 C   0  0  0  0  0  0  0  0  0  0  0  0
   -5.0722    4.8244   -0.7660 C   0  0  0  0  0  0  0  0  0  0  0  0
   -4.4603    5.8446   -0.0430 C   0  0  0  0  0  0  0  0  0  0  0  0
   -4.5461    7.1061   -0.4843 F   0  0  0  0  0  0  0  0  0  0  0  0
   -3.7613    5.5774    1.1315 C   0  0  0  0  0  0  0  0  0  0  0  0
   -3.6668    4.2648    1.5956 C   0  0  0  0  0  0  0  0  0  0  0  0
   -3.4007   -0.6744    0.1346 C   0  0  0  0  0  0  0  0  0  0  0  0
   -2.4987   -1.3388    1.1691 C   0  0  0  0  0  0  0  0  0  0  0  0
    0.6728   -2.1826    0.2643 N   0  0  0  0  0  0  0  0  0  0  0  0
    1.5318   -3.1948    0.5415 C   0  0  0  0  0  0  0  0  0  0  0  0
    5.0436   -2.4800   -1.6885 C   0  0  0  0  0  0  0  0  0  0  0  0
    5.9163   -1.3964   -1.8088 C   0  0  0  0  0  0  0  0  0  0  0  0
    7.3289    0.7468   -2.5690 H   0  0  0  0  0  0  0  0  0  0  0  0
    5.9587    1.8254   -2.8283 H   0  0  0  0  0  0  0  0  0  0  0  0
    6.5156    1.4907   -1.1699 H   0  0  0  0  0  0  0  0  0  0  0  0
    3.6363    1.0697   -2.3513 H   0  0  0  0  0  0  0  0  0  0  0  0
    2.0960   -0.8331   -2.1363 H   0  0  0  0  0  0  0  0  0  0  0  0
    3.1356   -4.3604   -2.1541 H   0  0  0  0  0  0  0  0  0  0  0  0
    1.7576   -3.2634   -2.1672 H   0  0  0  0  0  0  0  0  0  0  0  0
   -0.5644   -2.1527    3.3064 H   0  0  0  0  0  0  0  0  0  0  0  0
   -0.9921   -0.1303    2.1195 H   0  0  0  0  0  0  0  0  0  0  0  0
   -0.8835   -0.3737   -0.9331 H   0  0  0  0  0  0  0  0  0  0  0  0
    0.1540    0.6366    0.0540 H   0  0  0  0  0  0  0  0  0  0  0  0
   -1.6258    2.0586    0.7208 H   0  0  0  0  0  0  0  0  0  0  0  0
   -1.8622    1.8129   -1.0034 H   0  0  0  0  0  0  0  0  0  0  0  0
   -5.4638    2.7057   -0.8640 H   0  0  0  0  0  0  0  0  0  0  0  0
   -5.6164    5.0621   -1.6748 H   0  0  0  0  0  0  0  0  0  0  0  0
   -3.3001    6.3947    1.6777 H   0  0  0  0  0  0  0  0  0  0  0  0
   -3.1281    4.0553    2.5170 H   0  0  0  0  0  0  0  0  0  0  0  0
   -4.4406   -0.9861    0.2769 H   0  0  0  0  0  0  0  0  0  0  0  0
   -3.1366   -1.0080   -0.8766 H   0  0  0  0  0  0  0  0  0  0  0  0
   -2.4682   -2.4162    0.9636 H   0  0  0  0  0  0  0  0  0  0  0  0
   -2.9468   -1.2393    2.1660 H   0  0  0  0  0  0  0  0  0  0  0  0
    5.4519   -3.4678   -1.4801 H   0  0  0  0  0  0  0  0  0  0  0  0
    6.9856   -1.5615   -1.6945 H   0  0  0  0  0  0  0  0  0  0  0  0
  1  2  1  0
  2  3  2  0
  3  4  1  0
  4  5  2  0
  5  6  1  0
  6  7  1  0
  7  8  1  0
  8  9  2  0
  9 10  1  0
 10 11  1  0
 11 12  2  0
 11 13  1  0
 13 14  1  0
 14 15  1  0
 15 16  1  0
 16 17  1  0
 17 18  1  0
 18 19  1  0
 19 20  2  0
 19 21  2  0
 19 22  1  0
 22 23  2  0
 23 24  1  0
 24 25  2  0
 25 26  1  0
 25 27  1  0
 27 28  2  0
 18 29  1  0
 29 30  1  0
 14 31  2  0
 31 32  1  0
  5 33  1  0
 33 34  2  0
 34  2  1  0
 32  7  1  0
 32 10  2  0
 30 15  1  0
 28 22  1  0
  1 35  1  0
  1 36  1  0
  1 37  1  0
  3 38  1  0
  4 39  1  0
  6 40  1  0
  6 41  1  0
 13 42  1  0
 15 43  1  0
 16 44  1  0
 16 45  1  0
 17 46  1  0
 17 47  1  0
 23 48  1  0
 24 49  1  0
 27 50  1  0
 28 51  1  0
 29 52  1  0
 29 53  1  0
 30 54  1  0
 30 55  1  0
 33 56  1  0
 34 57  1  0
M  END
$$$$
