
     RDKit          3D

 56 61  0  0  0  0  0  0  0  0999 V2000
    5.7190   -0.9229    3.3813 C   0  0  0  0  0  0  0  0  0  0  0  0
    4.6449   -0.9702    2.3351 C   0  0  0  0  0  0  0  0  0  0  0  0
    4.9539   -1.3030    1.0194 C   0  0  0  0  0  0  0  0  0  0  0  0
    3.9471   -1.3300    0.0541 C   0  0  0  0  0  0  0  0  0  0  0  0
    2.6128   -0.9967    0.3678 C   0  0  0  0  0  0  0  0  0  0  0  0
    2.3040   -0.6099    1.6779 C   0  0  0  0  0  0  0  0  0  0  0  0
    3.3244   -0.6254    2.6509 C   0  0  0  0  0  0  0  0  0  0  0  0
    1.0519   -0.2009    2.1584 N   0  0  0  0  0  0  0  0  0  0  0  0
   -0.0322    0.3153    1.5130 C   0  0  0  0  0  0  0  0  0  0  0  0
   -0.9921    0.6283    2.2228 O   0  0  0  0  0  0  0  0  0  0  0  0
    0.0338    0.6307    0.0079 C   0  0  0  0  0  0  0  0  0  0  0  0
    1.0298    1.7709   -0.2772 C   0  0  0  0  0  0  0  0  0  0  0  0
   -1.4060    0.9626   -0.5399 C   0  0  0  0  0  0  0  0  0  0  0  0
   -1.8448    2.4214   -0.5281 C   0  0  0  0  0  0  0  0  0  0  0  0
   -1.5654    3.3211   -1.5687 C   0  0  0  0  0  0  0  0  0  0  0  0
   -1.9830    4.6533   -1.4988 C   0  0  0  0  0  0  0  0  0  0  0  0
   -2.6866    5.1107   -0.3876 C   0  0  0  0  0  0  0  0  0  0  0  0
   -2.9764    4.2344    0.6520 C   0  0  0  0  0  0  0  0  0  0  0  0
   -2.5589    2.9035    0.5818 C   0  0  0  0  0  0  0  0  0  0  0  0
   -1.4024    0.2879   -1.9338 C   0  0  0  0  0  0  0  0  0  0  0  0
   -2.7781   -0.0194   -2.4972 C   0  0  0  0  0  0  0  0  0  0  0  0
   -3.5605   -0.8471   -1.6386 O   0  0  0  0  0  0  0  0  0  0  0  0
   -2.9194   -1.9728   -1.1983 C   0  0  0  0  0  0  0  0  0  0  0  0
   -3.7519   -2.9801   -0.7041 C   0  0  0  0  0  0  0  0  0  0  0  0
   -3.2055   -4.1692   -0.2263 C   0  0  0  0  0  0  0  0  0  0  0  0
   -1.8257   -4.3446   -0.2479 C   0  0  0  0  0  0  0  0  0  0  0  0
   -1.1438   -5.8154    0.3291 Cl  0  0  0  0  0  0  0  0  0  0  0  0
   -0.9903   -3.3354   -0.7291 C   0  0  0  0  0  0  0  0  0  0  0  0
   -1.5255   -2.1182   -1.1875 C   0  0  0  0  0  0  0  0  0  0  0  0
   -0.6274   -1.0023   -1.6854 C   0  0  0  0  0  0  0  0  0  0  0  0
    0.3949   -0.6107   -0.7097 N   0  0  0  0  0  0  0  0  0  0  0  0
    1.6264   -1.2288   -0.7200 C   0  0  0  0  0  0  0  0  0  0  0  0
    1.9337   -2.0164   -1.6165 O   0  0  0  0  0  0  0  0  0  0  0  0
    5.3048   -1.1169    4.3769 H   0  0  0  0  0  0  0  0  0  0  0  0
    6.1936    0.0623    3.3837 H   0  0  0  0  0  0  0  0  0  0  0  0
    6.4812   -1.6857    3.1919 H   0  0  0  0  0  0  0  0  0  0  0  0
    5.9713   -1.5654    0.7370 H   0  0  0  0  0  0  0  0  0  0  0  0
    4.2087   -1.6398   -0.9577 H   0  0  0  0  0  0  0  0  0  0  0  0
    3.0981   -0.3377    3.6773 H   0  0  0  0  0  0  0  0  0  0  0  0
    0.9211   -0.1770    3.1637 H   0  0  0  0  0  0  0  0  0  0  0  0
    1.0777    1.9972   -1.3477 H   0  0  0  0  0  0  0  0  0  0  0  0
    0.7559    2.6830    0.2647 H   0  0  0  0  0  0  0  0  0  0  0  0
    2.0524    1.5454    0.0323 H   0  0  0  0  0  0  0  0  0  0  0  0
   -2.1421    0.4228    0.0728 H   0  0  0  0  0  0  0  0  0  0  0  0
   -1.0023    3.0177   -2.4470 H   0  0  0  0  0  0  0  0  0  0  0  0
   -1.7495    5.3376   -2.3099 H   0  0  0  0  0  0  0  0  0  0  0  0
   -3.0077    6.1470   -0.3327 H   0  0  0  0  0  0  0  0  0  0  0  0
   -3.5226    4.5845    1.5237 H   0  0  0  0  0  0  0  0  0  0  0  0
   -2.7988    2.2408    1.4136 H   0  0  0  0  0  0  0  0  0  0  0  0
   -0.8396    0.8919   -2.6559 H   0  0  0  0  0  0  0  0  0  0  0  0
   -3.3400    0.9076   -2.6528 H   0  0  0  0  0  0  0  0  0  0  0  0
   -2.6978   -0.5070   -3.4774 H   0  0  0  0  0  0  0  0  0  0  0  0
   -4.8294   -2.8360   -0.6969 H   0  0  0  0  0  0  0  0  0  0  0  0
   -3.8578   -4.9497    0.1547 H   0  0  0  0  0  0  0  0  0  0  0  0
    0.0837   -3.5034   -0.7432 H   0  0  0  0  0  0  0  0  0  0  0  0
   -0.1614   -1.3400   -2.6199 H   0  0  0  0  0  0  0  0  0  0  0  0
  1  2  1  0
  2  3  2  0
  3  4  1  0
  4  5  2  0
  5  6  1  0
  6  7  2  0
  6  8  1  0
  8  9  1  0
  9 10  2  0
  9 11  1  0
 11 12  1  0
 11 13  1  0
 13 14  1  0
 14 15  2  0
 15 16  1  0
 16 17  2  0
 17 18  1  0
 18 19  2  0
 13 20  1  0
 20 21  1  0
 21 22  1  0
 22 23  1  0
 23 24  2  0
 24 25  1  0
 25 26  2  0
 26 27  1  0
 26 28  1  0
 28 29  2  0
 29 30  1  0
 30 31  1  0
 31 32  1  0
 32 33  2  0
  7  2  1  0
 31 11  1  0
 32  5  1  0
 19 14  1  0
 30 20  1  0
 29 23  1  0
  1 34  1  0
  1 35  1  0
  1 36  1  0
  3 37  1  0
  4 38  1  0
  7 39  1  0
  8 40  1  0
 12 41  1  0
 12 42  1  0
 12 43  1  0
 13 44  1  0
 15 45  1  0
 16 46  1  0
 17 47  1  0
 18 48  1  0
 19 49  1  0
 20 50  1  0
 21 51  1  0
 21 52  1  0
 24 53  1  0
 25 54  1  0
 28 55  1  0
 30 56  1  0
M  END
$$$$
