
     RDKit          3D

 49 52  0  0  0  0  0  0  0  0999 V2000
    6.1361   -2.9906   -3.5982 C   0  0  0  0  0  0  0  0  0  0  0  0
    5.2112   -2.0944   -2.8293 C   0  0  0  0  0  0  0  0  0  0  0  0
    5.5742   -1.6190   -1.5637 C   0  0  0  0  0  0  0  0  0  0  0  0
    4.7007   -0.8085   -0.8337 C   0  0  0  0  0  0  0  0  0  0  0  0
    3.4474   -0.4751   -1.3540 C   0  0  0  0  0  0  0  0  0  0  0  0
    2.5440    0.3754   -0.5777 C   0  0  0  0  0  0  0  0  0  0  0  0
    1.4266   -0.0728    0.0130 C   0  0  0  0  0  0  0  0  0  0  0  0
    0.8811   -1.4859    0.0175 C   0  0  0  0  0  0  0  0  0  0  0  0
   -0.3804   -1.4448    0.9025 C   0  0  0  0  0  0  0  0  0  0  0  0
   -0.4872   -0.0090    1.2909 C   0  0  0  0  0  0  0  0  0  0  0  0
    0.5164    0.7125    0.7997 C   0  0  0  0  0  0  0  0  0  0  0  0
    0.6722    2.0833    0.9364 O   0  0  0  0  0  0  0  0  0  0  0  0
   -0.2332    2.7372    1.7093 C   0  0  0  0  0  0  0  0  0  0  0  0
   -0.2936    4.0252    1.5984 N   0  0  0  0  0  0  0  0  0  0  0  0
   -1.0842    1.9516    2.6909 C   0  0  0  0  0  0  0  0  0  0  0  0
   -0.3073    1.7723    3.9296 C   0  0  0  0  0  0  0  0  0  0  0  0
    0.2710    1.6177    4.9240 N   0  0  0  0  0  0  0  0  0  0  0  0
   -1.5508    0.5857    2.1440 C   0  0  0  0  0  0  0  0  0  0  0  0
   -2.8862    0.7007    1.4194 C   0  0  0  0  0  0  0  0  0  0  0  0
   -4.0343    0.1286    1.9886 C   0  0  0  0  0  0  0  0  0  0  0  0
   -5.2759    0.2377    1.3570 C   0  0  0  0  0  0  0  0  0  0  0  0
   -5.4000    0.9305    0.1493 C   0  0  0  0  0  0  0  0  0  0  0  0
   -6.7263    1.0174   -0.5460 C   0  0  0  0  0  0  0  0  0  0  0  0
   -4.2577    1.4896   -0.4308 C   0  0  0  0  0  0  0  0  0  0  0  0
   -3.0148    1.3818    0.1988 C   0  0  0  0  0  0  0  0  0  0  0  0
    3.0776   -0.9560   -2.6136 C   0  0  0  0  0  0  0  0  0  0  0  0
    3.9513   -1.7661   -3.3436 C   0  0  0  0  0  0  0  0  0  0  0  0
    5.9960   -2.8635   -4.6769 H   0  0  0  0  0  0  0  0  0  0  0  0
    7.1823   -2.7545   -3.3770 H   0  0  0  0  0  0  0  0  0  0  0  0
    5.9462   -4.0363   -3.3374 H   0  0  0  0  0  0  0  0  0  0  0  0
    6.5415   -1.8748   -1.1371 H   0  0  0  0  0  0  0  0  0  0  0  0
    5.0032   -0.4455    0.1458 H   0  0  0  0  0  0  0  0  0  0  0  0
    2.8474    1.4159   -0.4860 H   0  0  0  0  0  0  0  0  0  0  0  0
    1.6102   -2.1937    0.4276 H   0  0  0  0  0  0  0  0  0  0  0  0
    0.6136   -1.8071   -0.9955 H   0  0  0  0  0  0  0  0  0  0  0  0
   -1.2599   -1.7779    0.3419 H   0  0  0  0  0  0  0  0  0  0  0  0
   -0.2616   -2.0850    1.7829 H   0  0  0  0  0  0  0  0  0  0  0  0
   -0.9848    4.4330    2.2344 H   0  0  0  0  0  0  0  0  0  0  0  0
   -1.9616    2.5638    2.9406 H   0  0  0  0  0  0  0  0  0  0  0  0
   -1.6957   -0.0967    2.9946 H   0  0  0  0  0  0  0  0  0  0  0  0
   -3.9769   -0.4142    2.9303 H   0  0  0  0  0  0  0  0  0  0  0  0
   -6.1482   -0.2236    1.8158 H   0  0  0  0  0  0  0  0  0  0  0  0
   -6.8021    1.9417   -1.1284 H   0  0  0  0  0  0  0  0  0  0  0  0
   -6.8527    0.1636   -1.2187 H   0  0  0  0  0  0  0  0  0  0  0  0
   -7.5475    1.0223    0.1784 H   0  0  0  0  0  0  0  0  0  0  0  0
   -4.3262    2.0141   -1.3819 H   0  0  0  0  0  0  0  0  0  0  0  0
   -2.1518    1.8306   -0.2899 H   0  0  0  0  0  0  0  0  0  0  0  0
    2.1083   -0.7016   -3.0354 H   0  0  0  0  0  0  0  0  0  0  0  0
    3.6425   -2.1357   -4.3187 H   0  0  0  0  0  0  0  0  0  0  0  0
  1  2  1  0
  2  3  2  0
  3  4  1  0
  4  5  2  0
  5  6  1  0
  6  7  2  3
  7  8  1  0
  8  9  1  0
  9 10  1  0
 10 11  2  0
 11 12  1  0
 12 13  1  0
 13 14  2  3
 13 15  1  0
 15 16  1  0
 16 17  3  0
 15 18  1  0
 18 19  1  0
 19 20  2  0
 20 21  1  0
 21 22  2  0
 22 23  1  0
 22 24  1  0
 24 25  2  0
  5 26  1  0
 26 27  2  0
 27  2  1  0
 11  7  1  0
 25 19  1  0
 18 10  1  0
  1 28  1  0
  1 29  1  0
  1 30  1  0
  3 31  1  0
  4 32  1  0
  6 33  1  0
  8 34  1  0
  8 35  1  0
  9 36  1  0
  9 37  1  0
 14 38  1  0
 15 39  1  0
 18 40  1  0
 20 41  1  0
 21 42  1  0
 23 43  1  0
 23 44  1  0
 23 45  1  0
 24 46  1  0
 25 47  1  0
 26 48  1  0
 27 49  1  0
M  END
$$$$
