
     RDKit          3D

 44 46  0  0  0  0  0  0  0  0999 V2000
    8.8762   -0.2322   -0.2111 C   0  0  0  0  0  0  0  0  0  0  0  0
    7.8946   -1.2301    0.0405 O   0  0  0  0  0  0  0  0  0  0  0  0
    6.5872   -0.8318    0.0388 C   0  0  0  0  0  0  0  0  0  0  0  0
    6.1264    0.4728   -0.1349 C   0  0  0  0  0  0  0  0  0  0  0  0
    4.7518    0.7506   -0.1141 C   0  0  0  0  0  0  0  0  0  0  0  0
    3.8216   -0.2751    0.0791 C   0  0  0  0  0  0  0  0  0  0  0  0
    2.4635   -0.1018    0.1096 O   0  0  0  0  0  0  0  0  0  0  0  0
    1.9526    1.2201   -0.0399 C   0  0  0  0  0  0  0  0  0  0  0  0
    0.4764    1.1191    0.0163 C   0  0  0  0  0  0  0  0  0  0  0  0
   -0.4434    0.1736   -0.3650 C   0  0  0  0  0  0  0  0  0  0  0  0
   -1.7054    0.7303   -0.0236 C   0  0  0  0  0  0  0  0  0  0  0  0
   -3.0187    0.1138   -0.2775 C   0  0  0  0  0  0  0  0  0  0  0  0
   -3.1206   -0.7309   -1.1679 O   0  0  0  0  0  0  0  0  0  0  0  0
   -4.1314    0.5107    0.4832 N   0  0  0  0  0  0  0  0  0  0  0  0
   -4.0118    1.1720    1.7786 C   0  0  0  0  0  0  0  0  0  0  0  0
   -5.4883    0.1445    0.0716 C   0  0  0  0  0  0  0  0  0  0  0  0
   -5.8316   -1.3255    0.1886 C   0  0  0  0  0  0  0  0  0  0  0  0
   -7.0890   -1.4201   -0.6527 C   0  0  0  0  0  0  0  0  0  0  0  0
   -7.0301   -0.3876   -1.6484 O   0  0  0  0  0  0  0  0  0  0  0  0
   -5.8919    0.4478   -1.3693 C   0  0  0  0  0  0  0  0  0  0  0  0
   -1.5428    1.9619    0.4942 N   0  0  0  0  0  0  0  0  0  0  0  0
   -0.1817    2.1910    0.5315 O   0  0  0  0  0  0  0  0  0  0  0  0
    4.2944   -1.5846    0.2545 C   0  0  0  0  0  0  0  0  0  0  0  0
    3.2061   -2.9073    0.4959 Cl  0  0  0  0  0  0  0  0  0  0  0  0
    5.6643   -1.8584    0.2359 C   0  0  0  0  0  0  0  0  0  0  0  0
    8.7393    0.2174   -1.2007 H   0  0  0  0  0  0  0  0  0  0  0  0
    8.8713    0.5320    0.5737 H   0  0  0  0  0  0  0  0  0  0  0  0
    9.8574   -0.7176   -0.1978 H   0  0  0  0  0  0  0  0  0  0  0  0
    6.8103    1.3021   -0.2890 H   0  0  0  0  0  0  0  0  0  0  0  0
    4.4490    1.7839   -0.2538 H   0  0  0  0  0  0  0  0  0  0  0  0
    2.3134    1.8586    0.7749 H   0  0  0  0  0  0  0  0  0  0  0  0
    2.2439    1.6380   -1.0106 H   0  0  0  0  0  0  0  0  0  0  0  0
   -0.2466   -0.7861   -0.8223 H   0  0  0  0  0  0  0  0  0  0  0  0
   -3.0360    0.9983    2.2379 H   0  0  0  0  0  0  0  0  0  0  0  0
   -4.7623    0.7650    2.4646 H   0  0  0  0  0  0  0  0  0  0  0  0
   -4.1888    2.2430    1.6438 H   0  0  0  0  0  0  0  0  0  0  0  0
   -6.1871    0.7027    0.7122 H   0  0  0  0  0  0  0  0  0  0  0  0
   -5.9896   -1.6542    1.2202 H   0  0  0  0  0  0  0  0  0  0  0  0
   -5.0530   -1.9643   -0.2412 H   0  0  0  0  0  0  0  0  0  0  0  0
   -7.9831   -1.2425   -0.0456 H   0  0  0  0  0  0  0  0  0  0  0  0
   -7.1912   -2.3935   -1.1405 H   0  0  0  0  0  0  0  0  0  0  0  0
   -5.1231    0.2091   -2.1084 H   0  0  0  0  0  0  0  0  0  0  0  0
   -6.1717    1.4972   -1.5048 H   0  0  0  0  0  0  0  0  0  0  0  0
    6.0195   -2.8772    0.3735 H   0  0  0  0  0  0  0  0  0  0  0  0
  1  2  1  0
  2  3  1  0
  3  4  2  0
  4  5  1  0
  5  6  2  0
  6  7  1  0
  7  8  1  0
  8  9  1  0
  9 10  2  0
 10 11  1  0
 11 12  1  0
 12 13  2  0
 12 14  1  0
 14 15  1  0
 14 16  1  0
 16 17  1  0
 17 18  1  0
 18 19  1  0
 19 20  1  0
 11 21  2  0
 21 22  1  0
  6 23  1  0
 23 24  1  0
 23 25  2  0
 25  3  1  0
 22  9  1  0
 20 16  1  0
  1 26  1  0
  1 27  1  0
  1 28  1  0
  4 29  1  0
  5 30  1  0
  8 31  1  0
  8 32  1  0
 10 33  1  0
 15 34  1  0
 15 35  1  0
 15 36  1  0
 16 37  1  0
 17 38  1  0
 17 39  1  0
 18 40  1  0
 18 41  1  0
 20 42  1  0
 20 43  1  0
 25 44  1  0
M  END
$$$$
