
     RDKit          3D

 50 52  0  0  0  0  0  0  0  0999 V2000
   -8.8199    1.1920    0.3021 C   0  0  0  0  0  0  0  0  0  0  0  0
   -8.0000    0.5337   -0.6526 O   0  0  0  0  0  0  0  0  0  0  0  0
   -6.6508    0.4764   -0.4086 C   0  0  0  0  0  0  0  0  0  0  0  0
   -6.0268    1.0317    0.7142 C   0  0  0  0  0  0  0  0  0  0  0  0
   -4.6432    0.9229    0.8828 C   0  0  0  0  0  0  0  0  0  0  0  0
   -3.8750    0.2475   -0.0701 C   0  0  0  0  0  0  0  0  0  0  0  0
   -2.4003    0.1049    0.0646 C   0  0  0  0  0  0  0  0  0  0  0  0
   -1.6936    0.0389   -0.9375 O   0  0  0  0  0  0  0  0  0  0  0  0
   -1.9083    0.0095    1.3599 N   0  0  0  0  0  0  0  0  0  0  0  0
   -0.5912   -0.0742    1.7963 C   0  0  0  0  0  0  0  0  0  0  0  0
   -0.4004   -0.1937    3.4506 S   0  0  0  0  0  0  0  0  0  0  0  0
    0.3446   -0.0441    0.7909 N   0  0  0  0  0  0  0  0  0  0  0  0
    1.7555   -0.0751    0.7637 C   0  0  0  0  0  0  0  0  0  0  0  0
    2.3474   -0.0756   -0.5028 C   0  0  0  0  0  0  0  0  0  0  0  0
    3.7423   -0.1042   -0.6560 C   0  0  0  0  0  0  0  0  0  0  0  0
    4.6089   -0.1306    0.4422 C   0  0  0  0  0  0  0  0  0  0  0  0
    5.9741   -0.1584    0.2945 N   0  0  0  0  0  0  0  0  0  0  0  0
    6.9231   -0.0522    1.3999 C   0  0  0  0  0  0  0  0  0  0  0  0
    8.2675    0.1645    0.7096 C   0  0  0  0  0  0  0  0  0  0  0  0
    8.1085   -0.5954   -0.5953 C   0  0  0  0  0  0  0  0  0  0  0  0
    6.6606   -0.3098   -0.9859 C   0  0  0  0  0  0  0  0  0  0  0  0
    3.9958   -0.1252    1.7021 C   0  0  0  0  0  0  0  0  0  0  0  0
    2.5984   -0.0978    1.8659 C   0  0  0  0  0  0  0  0  0  0  0  0
   -4.4899   -0.2934   -1.2068 C   0  0  0  0  0  0  0  0  0  0  0  0
   -5.8737   -0.1866   -1.3813 C   0  0  0  0  0  0  0  0  0  0  0  0
   -6.5601   -0.6958   -2.4558 O   0  0  0  0  0  0  0  0  0  0  0  0
   -5.8051   -1.2987   -3.4976 C   0  0  0  0  0  0  0  0  0  0  0  0
   -9.8546    1.1347   -0.0493 H   0  0  0  0  0  0  0  0  0  0  0  0
   -8.7715    0.6933    1.2756 H   0  0  0  0  0  0  0  0  0  0  0  0
   -8.5556    2.2514    0.3855 H   0  0  0  0  0  0  0  0  0  0  0  0
   -6.5907    1.5655    1.4728 H   0  0  0  0  0  0  0  0  0  0  0  0
   -4.1881    1.3981    1.7479 H   0  0  0  0  0  0  0  0  0  0  0  0
   -2.5700   -0.0425    2.1220 H   0  0  0  0  0  0  0  0  0  0  0  0
   -0.0807   -0.0132   -0.1377 H   0  0  0  0  0  0  0  0  0  0  0  0
    1.7342   -0.0540   -1.4011 H   0  0  0  0  0  0  0  0  0  0  0  0
    4.1344   -0.0958   -1.6687 H   0  0  0  0  0  0  0  0  0  0  0  0
    6.7028    0.7877    2.0673 H   0  0  0  0  0  0  0  0  0  0  0  0
    6.9340   -0.9836    1.9776 H   0  0  0  0  0  0  0  0  0  0  0  0
    9.1090   -0.1908    1.3109 H   0  0  0  0  0  0  0  0  0  0  0  0
    8.4175    1.2315    0.5047 H   0  0  0  0  0  0  0  0  0  0  0  0
    8.2462   -1.6693   -0.4208 H   0  0  0  0  0  0  0  0  0  0  0  0
    8.8198   -0.2789   -1.3631 H   0  0  0  0  0  0  0  0  0  0  0  0
    6.5943    0.6210   -1.5608 H   0  0  0  0  0  0  0  0  0  0  0  0
    6.2624   -1.1359   -1.5847 H   0  0  0  0  0  0  0  0  0  0  0  0
    4.5983   -0.1509    2.6061 H   0  0  0  0  0  0  0  0  0  0  0  0
    2.2312   -0.0915    2.8825 H   0  0  0  0  0  0  0  0  0  0  0  0
   -3.8663   -0.7986   -1.9385 H   0  0  0  0  0  0  0  0  0  0  0  0
   -5.1032   -0.5856   -3.9425 H   0  0  0  0  0  0  0  0  0  0  0  0
   -5.2878   -2.1951   -3.1406 H   0  0  0  0  0  0  0  0  0  0  0  0
   -6.5041   -1.6088   -4.2804 H   0  0  0  0  0  0  0  0  0  0  0  0
  1  2  1  0
  2  3  1  0
  3  4  2  0
  4  5  1  0
  5  6  2  0
  6  7  1  0
  7  8  2  0
  7  9  1  0
  9 10  1  0
 10 11  2  0
 10 12  1  0
 12 13  1  0
 13 14  2  0
 14 15  1  0
 15 16  2  0
 16 17  1  0
 17 18  1  0
 18 19  1  0
 19 20  1  0
 20 21  1  0
 16 22  1  0
 22 23  2  0
  6 24  1  0
 24 25  2  0
 25 26  1  0
 26 27  1  0
 25  3  1  0
 23 13  1  0
 21 17  1  0
  1 28  1  0
  1 29  1  0
  1 30  1  0
  4 31  1  0
  5 32  1  0
  9 33  1  0
 12 34  1  0
 14 35  1  0
 15 36  1  0
 18 37  1  0
 18 38  1  0
 19 39  1  0
 19 40  1  0
 20 41  1  0
 20 42  1  0
 21 43  1  0
 21 44  1  0
 22 45  1  0
 23 46  1  0
 24 47  1  0
 27 48  1  0
 27 49  1  0
 27 50  1  0
M  END
$$$$
