
     RDKit          3D

 47 50  0  0  0  0  0  0  0  0999 V2000
   -6.9888    0.3106   -0.3060 C   0  0  0  0  0  0  0  0  0  0  0  0
   -5.4979    0.2481   -0.6310 C   0  0  0  0  0  0  0  0  0  0  0  0
   -4.9092    1.6647   -0.7857 C   0  0  0  0  0  0  0  0  0  0  0  0
   -3.4388    1.6154   -1.2315 C   0  0  0  0  0  0  0  0  0  0  0  0
   -2.6329    0.6305   -0.4301 C   0  0  0  0  0  0  0  0  0  0  0  0
   -3.2594   -0.3459    0.3236 C   0  0  0  0  0  0  0  0  0  0  0  0
   -2.1660   -1.3103    1.1868 S   0  0  0  0  0  0  0  0  0  0  0  0
   -0.8334   -0.4464    0.5986 C   0  0  0  0  0  0  0  0  0  0  0  0
    0.4548   -0.7408    1.0098 N   0  0  0  0  0  0  0  0  0  0  0  0
    0.8895   -1.7501    1.8472 C   0  0  0  0  0  0  0  0  0  0  0  0
    0.1999   -2.6200    2.3666 O   0  0  0  0  0  0  0  0  0  0  0  0
    2.3288   -1.6943    2.0499 C   0  0  0  0  0  0  0  0  0  0  0  0
    3.1951   -2.5367    2.7192 C   0  0  0  0  0  0  0  0  0  0  0  0
    4.4950   -1.9951    2.5654 C   0  0  0  0  0  0  0  0  0  0  0  0
    4.3514   -0.8439    1.8197 C   0  0  0  0  0  0  0  0  0  0  0  0
    5.3016    0.1806    1.3224 C   0  0  0  0  0  0  0  0  0  0  0  0
    5.6016   -0.0364   -0.0864 N   0  0  0  0  0  0  0  0  0  0  0  0
    4.8312    0.3448   -1.1536 C   0  0  0  0  0  0  0  0  0  0  0  0
    5.5302   -0.0457   -2.2631 C   0  0  0  0  0  0  0  0  0  0  0  0
    5.0536    0.1505   -4.0554 Br  0  0  0  0  0  0  0  0  0  0  0  0
    6.7084   -0.6341   -1.7884 C   0  0  0  0  0  0  0  0  0  0  0  0
    6.7687   -0.6207   -0.4517 N   0  0  0  0  0  0  0  0  0  0  0  0
    3.0374   -0.6521    1.5104 O   0  0  0  0  0  0  0  0  0  0  0  0
   -1.1886    0.5500   -0.3067 C   0  0  0  0  0  0  0  0  0  0  0  0
   -0.1672    1.3676   -0.9668 C   0  0  0  0  0  0  0  0  0  0  0  0
   -0.5103    1.9371   -2.1588 N   0  0  0  0  0  0  0  0  0  0  0  0
    0.9772    1.4948   -0.5358 O   0  0  0  0  0  0  0  0  0  0  0  0
   -4.7401   -0.5423    0.4561 C   0  0  0  0  0  0  0  0  0  0  0  0
   -7.5372    0.8295   -1.0992 H   0  0  0  0  0  0  0  0  0  0  0  0
   -7.4076   -0.6969   -0.2124 H   0  0  0  0  0  0  0  0  0  0  0  0
   -7.1701    0.8424    0.6342 H   0  0  0  0  0  0  0  0  0  0  0  0
   -5.3818   -0.2764   -1.5896 H   0  0  0  0  0  0  0  0  0  0  0  0
   -4.9841    2.1987    0.1709 H   0  0  0  0  0  0  0  0  0  0  0  0
   -5.4859    2.2413   -1.5185 H   0  0  0  0  0  0  0  0  0  0  0  0
   -3.4023    1.3224   -2.2875 H   0  0  0  0  0  0  0  0  0  0  0  0
   -3.0101    2.6197   -1.1447 H   0  0  0  0  0  0  0  0  0  0  0  0
    1.1811   -0.1189    0.6519 H   0  0  0  0  0  0  0  0  0  0  0  0
    2.9101   -3.4401    3.2421 H   0  0  0  0  0  0  0  0  0  0  0  0
    5.4241   -2.3964    2.9477 H   0  0  0  0  0  0  0  0  0  0  0  0
    4.8824    1.1881    1.4156 H   0  0  0  0  0  0  0  0  0  0  0  0
    6.2452    0.1520    1.8777 H   0  0  0  0  0  0  0  0  0  0  0  0
    3.8755    0.8343   -1.0227 H   0  0  0  0  0  0  0  0  0  0  0  0
    7.5274   -1.0678   -2.3469 H   0  0  0  0  0  0  0  0  0  0  0  0
    0.2574    2.3433   -2.6776 H   0  0  0  0  0  0  0  0  0  0  0  0
   -1.2688    1.5501   -2.7003 H   0  0  0  0  0  0  0  0  0  0  0  0
   -4.9979   -1.6059    0.3804 H   0  0  0  0  0  0  0  0  0  0  0  0
   -5.0491   -0.1994    1.4521 H   0  0  0  0  0  0  0  0  0  0  0  0
  1  2  1  0
  2  3  1  0
  3  4  1  0
  4  5  1  0
  5  6  2  0
  6  7  1  0
  7  8  1  0
  8  9  1  0
  9 10  1  0
 10 11  2  0
 10 12  1  0
 12 13  2  0
 13 14  1  0
 14 15  2  0
 15 16  1  0
 16 17  1  0
 17 18  1  0
 18 19  2  0
 19 20  1  0
 19 21  1  0
 21 22  2  0
 15 23  1  0
  8 24  2  0
 24 25  1  0
 25 26  1  0
 25 27  2  0
  6 28  1  0
 28  2  1  0
 24  5  1  0
 23 12  1  0
 22 17  1  0
  1 29  1  0
  1 30  1  0
  1 31  1  0
  2 32  1  0
  3 33  1  0
  3 34  1  0
  4 35  1  0
  4 36  1  0
  9 37  1  0
 13 38  1  0
 14 39  1  0
 16 40  1  0
 16 41  1  0
 18 42  1  0
 21 43  1  0
 26 44  1  0
 26 45  1  0
 28 46  1  0
 28 47  1  0
M  END
$$$$
