
     RDKit          3D

 44 46  0  0  0  0  0  0  0  0999 V2000
    0.1759   -0.1058    3.1424 C   0  0  0  0  0  0  0  0  0  0  0  0
    0.8535   -0.3352    1.9130 O   0  0  0  0  0  0  0  0  0  0  0  0
    0.1627   -0.9708    0.9154 C   0  0  0  0  0  0  0  0  0  0  0  0
   -1.2028   -1.2789    0.9844 C   0  0  0  0  0  0  0  0  0  0  0  0
   -1.8459   -1.9579   -0.0631 C   0  0  0  0  0  0  0  0  0  0  0  0
   -3.2783   -2.2781    0.0027 C   0  0  0  0  0  0  0  0  0  0  0  0
   -4.2871   -1.3931    0.1497 C   0  0  0  0  0  0  0  0  0  0  0  0
   -5.6302   -1.8733    0.2231 C   0  0  0  0  0  0  0  0  0  0  0  0
   -6.7096   -2.3009    0.2460 N   0  0  0  0  0  0  0  0  0  0  0  0
   -4.0840    0.0619    0.2252 C   0  0  0  0  0  0  0  0  0  0  0  0
   -3.6054    0.7854   -0.8657 C   0  0  0  0  0  0  0  0  0  0  0  0
   -3.4288    2.1596   -0.7315 C   0  0  0  0  0  0  0  0  0  0  0  0
   -3.7392    2.7706    0.4772 C   0  0  0  0  0  0  0  0  0  0  0  0
   -4.2131    1.9780    1.5086 C   0  0  0  0  0  0  0  0  0  0  0  0
   -4.3874    0.6413    1.4120 N   0  0  0  0  0  0  0  0  0  0  0  0
   -1.1061   -2.3669   -1.1734 C   0  0  0  0  0  0  0  0  0  0  0  0
    0.2509   -2.0602   -1.2549 C   0  0  0  0  0  0  0  0  0  0  0  0
    0.8810   -1.3418   -0.2333 C   0  0  0  0  0  0  0  0  0  0  0  0
    2.2162   -1.1169   -0.4520 O   0  0  0  0  0  0  0  0  0  0  0  0
    2.6726    0.1901   -0.1037 C   0  0  0  0  0  0  0  0  0  0  0  0
    3.8096    0.5446   -1.0340 C   0  0  0  0  0  0  0  0  0  0  0  0
    3.5810    1.3319   -2.1724 C   0  0  0  0  0  0  0  0  0  0  0  0
    4.6321    1.6493   -3.0361 C   0  0  0  0  0  0  0  0  0  0  0  0
    5.9141    1.1739   -2.7701 C   0  0  0  0  0  0  0  0  0  0  0  0
    7.2086    1.5680   -3.8336 Cl  0  0  0  0  0  0  0  0  0  0  0  0
    6.1535    0.3773   -1.6526 C   0  0  0  0  0  0  0  0  0  0  0  0
    5.1026    0.0593   -0.7890 C   0  0  0  0  0  0  0  0  0  0  0  0
   -0.1779   -1.0448    3.5812 H   0  0  0  0  0  0  0  0  0  0  0  0
    0.8927    0.3376    3.8403 H   0  0  0  0  0  0  0  0  0  0  0  0
   -0.6442    0.6085    3.0119 H   0  0  0  0  0  0  0  0  0  0  0  0
   -1.7940   -0.9992    1.8524 H   0  0  0  0  0  0  0  0  0  0  0  0
   -3.5004   -3.3419   -0.0752 H   0  0  0  0  0  0  0  0  0  0  0  0
   -3.3698    0.2957   -1.8045 H   0  0  0  0  0  0  0  0  0  0  0  0
   -3.0559    2.7479   -1.5654 H   0  0  0  0  0  0  0  0  0  0  0  0
   -3.6183    3.8397    0.6111 H   0  0  0  0  0  0  0  0  0  0  0  0
   -4.4757    2.4100    2.4704 H   0  0  0  0  0  0  0  0  0  0  0  0
   -1.5748   -2.9166   -1.9861 H   0  0  0  0  0  0  0  0  0  0  0  0
    0.8254   -2.3746   -2.1234 H   0  0  0  0  0  0  0  0  0  0  0  0
    1.8825    0.9473   -0.1984 H   0  0  0  0  0  0  0  0  0  0  0  0
    3.0453    0.1945    0.9272 H   0  0  0  0  0  0  0  0  0  0  0  0
    2.5811    1.6983   -2.3936 H   0  0  0  0  0  0  0  0  0  0  0  0
    4.4435    2.2630   -3.9130 H   0  0  0  0  0  0  0  0  0  0  0  0
    7.1507   -0.0018   -1.4497 H   0  0  0  0  0  0  0  0  0  0  0  0
    5.2934   -0.5752    0.0739 H   0  0  0  0  0  0  0  0  0  0  0  0
  1  2  1  0
  2  3  1  0
  3  4  2  0
  4  5  1  0
  5  6  1  0
  6  7  2  3
  7  8  1  0
  8  9  3  0
  7 10  1  0
 10 11  2  0
 11 12  1  0
 12 13  2  0
 13 14  1  0
 14 15  2  0
  5 16  2  0
 16 17  1  0
 17 18  2  0
 18 19  1  0
 19 20  1  0
 20 21  1  0
 21 22  2  0
 22 23  1  0
 23 24  2  0
 24 25  1  0
 24 26  1  0
 26 27  2  0
 18  3  1  0
 27 21  1  0
 15 10  1  0
  1 28  1  0
  1 29  1  0
  1 30  1  0
  4 31  1  0
  6 32  1  0
 11 33  1  0
 12 34  1  0
 13 35  1  0
 14 36  1  0
 16 37  1  0
 17 38  1  0
 20 39  1  0
 20 40  1  0
 22 41  1  0
 23 42  1  0
 26 43  1  0
 27 44  1  0
M  END
$$$$
