
     RDKit          3D

 50 53  0  0  0  0  0  0  0  0999 V2000
   -4.2882   -4.6073   -1.5663 C   0  0  0  0  0  0  0  0  0  0  0  0
   -3.7669   -3.8528   -0.4799 O   0  0  0  0  0  0  0  0  0  0  0  0
   -2.9392   -2.8098   -0.7908 C   0  0  0  0  0  0  0  0  0  0  0  0
   -2.5702   -2.4080   -2.0737 C   0  0  0  0  0  0  0  0  0  0  0  0
   -1.7105   -1.3169   -2.2510 C   0  0  0  0  0  0  0  0  0  0  0  0
   -1.1999   -0.6128   -1.1486 C   0  0  0  0  0  0  0  0  0  0  0  0
   -0.2877    0.5837   -1.3775 C   0  0  0  0  0  0  0  0  0  0  0  0
   -1.0697    1.8954   -1.2853 C   0  0  0  0  0  0  0  0  0  0  0  0
   -0.4965    2.4654   -0.0173 C   0  0  0  0  0  0  0  0  0  0  0  0
   -1.0462    3.6925    0.6055 C   0  0  0  0  0  0  0  0  0  0  0  0
   -0.4994    4.1429    1.8137 C   0  0  0  0  0  0  0  0  0  0  0  0
   -0.9961    5.2953    2.4254 C   0  0  0  0  0  0  0  0  0  0  0  0
   -2.0402    6.0033    1.8331 C   0  0  0  0  0  0  0  0  0  0  0  0
   -2.5879    5.5613    0.6294 C   0  0  0  0  0  0  0  0  0  0  0  0
   -2.0933    4.4082    0.0138 C   0  0  0  0  0  0  0  0  0  0  0  0
    0.5232    1.8208    0.4637 N   0  0  0  0  0  0  0  0  0  0  0  0
    0.7371    0.7392   -0.3425 N   0  0  0  0  0  0  0  0  0  0  0  0
    1.8815   -0.0427   -0.1972 C   0  0  0  0  0  0  0  0  0  0  0  0
    2.8253    0.2466    0.8072 C   0  0  0  0  0  0  0  0  0  0  0  0
    3.9792   -0.5229    0.9867 C   0  0  0  0  0  0  0  0  0  0  0  0
    4.2033   -1.6178    0.1562 C   0  0  0  0  0  0  0  0  0  0  0  0
    5.6531   -2.6062    0.3918 S   0  0  0  0  0  6  0  0  0  0  0  0
    5.1669   -3.6187    1.6481 N   0  0  0  0  0  0  0  0  0  0  0  0
    6.7129   -1.7594    0.8843 O   0  0  0  0  0  0  0  0  0  0  0  0
    5.8165   -3.4683   -0.7567 O   0  0  0  0  0  0  0  0  0  0  0  0
    3.3016   -1.9288   -0.8590 C   0  0  0  0  0  0  0  0  0  0  0  0
    2.1530   -1.1449   -1.0260 C   0  0  0  0  0  0  0  0  0  0  0  0
   -1.5853   -1.0208    0.1364 C   0  0  0  0  0  0  0  0  0  0  0  0
   -2.4432   -2.1097    0.3098 C   0  0  0  0  0  0  0  0  0  0  0  0
   -4.9183   -5.3998   -1.1512 H   0  0  0  0  0  0  0  0  0  0  0  0
   -3.4849   -5.0852   -2.1368 H   0  0  0  0  0  0  0  0  0  0  0  0
   -4.9172   -3.9860   -2.2124 H   0  0  0  0  0  0  0  0  0  0  0  0
   -2.9334   -2.9201   -2.9584 H   0  0  0  0  0  0  0  0  0  0  0  0
   -1.4416   -1.0232   -3.2639 H   0  0  0  0  0  0  0  0  0  0  0  0
    0.1804    0.5118   -2.3677 H   0  0  0  0  0  0  0  0  0  0  0  0
   -0.8167    2.5622   -2.1165 H   0  0  0  0  0  0  0  0  0  0  0  0
   -2.1540    1.7676   -1.2257 H   0  0  0  0  0  0  0  0  0  0  0  0
    0.3165    3.5993    2.2862 H   0  0  0  0  0  0  0  0  0  0  0  0
   -0.5668    5.6389    3.3632 H   0  0  0  0  0  0  0  0  0  0  0  0
   -2.4264    6.9010    2.3099 H   0  0  0  0  0  0  0  0  0  0  0  0
   -3.4014    6.1171    0.1692 H   0  0  0  0  0  0  0  0  0  0  0  0
   -2.5389    4.0930   -0.9245 H   0  0  0  0  0  0  0  0  0  0  0  0
    2.6608    1.0972    1.4667 H   0  0  0  0  0  0  0  0  0  0  0  0
    4.6871   -0.2577    1.7689 H   0  0  0  0  0  0  0  0  0  0  0  0
    5.1345   -4.5789    1.3019 H   0  0  0  0  0  0  0  0  0  0  0  0
    4.2813   -3.3362    2.0675 H   0  0  0  0  0  0  0  0  0  0  0  0
    3.4750   -2.7726   -1.5231 H   0  0  0  0  0  0  0  0  0  0  0  0
    1.4685   -1.4234   -1.8219 H   0  0  0  0  0  0  0  0  0  0  0  0
   -1.2124   -0.4976    1.0159 H   0  0  0  0  0  0  0  0  0  0  0  0
   -2.7253   -2.4146    1.3147 H   0  0  0  0  0  0  0  0  0  0  0  0
  1  2  1  0
  2  3  1  0
  3  4  2  0
  4  5  1  0
  5  6  2  0
  6  7  1  0
  7  8  1  0
  8  9  1  0
  9 10  1  0
 10 11  2  0
 11 12  1  0
 12 13  2  0
 13 14  1  0
 14 15  2  0
  9 16  2  0
 16 17  1  0
 17 18  1  0
 18 19  2  0
 19 20  1  0
 20 21  2  0
 21 22  1  0
 22 23  1  0
 22 24  2  0
 22 25  2  0
 21 26  1  0
 26 27  2  0
  6 28  1  0
 28 29  2  0
 29  3  1  0
 17  7  1  0
 27 18  1  0
 15 10  1  0
  1 30  1  0
  1 31  1  0
  1 32  1  0
  4 33  1  0
  5 34  1  0
  7 35  1  0
  8 36  1  0
  8 37  1  0
 11 38  1  0
 12 39  1  0
 13 40  1  0
 14 41  1  0
 15 42  1  0
 19 43  1  0
 20 44  1  0
 23 45  1  0
 23 46  1  0
 26 47  1  0
 27 48  1  0
 28 49  1  0
 29 50  1  0
M  END
$$$$
