
     RDKit          3D

 47 50  0  0  0  0  0  0  0  0999 V2000
    2.2385    2.0845    3.2337 C   0  0  0  0  0  0  0  0  0  0  0  0
    2.9521    1.2664    2.3165 O   0  0  0  0  0  0  0  0  0  0  0  0
    2.2189    0.6133    1.3565 C   0  0  0  0  0  0  0  0  0  0  0  0
    0.8746    0.8756    1.0687 C   0  0  0  0  0  0  0  0  0  0  0  0
    0.2109    0.1661    0.0589 C   0  0  0  0  0  0  0  0  0  0  0  0
   -1.1875    0.4826   -0.2383 C   0  0  0  0  0  0  0  0  0  0  0  0
   -2.2441   -0.3240   -0.0740 C   0  0  0  0  0  0  0  0  0  0  0  0
   -3.5280    0.0581   -0.3752 N   0  0  0  0  0  0  0  0  0  0  0  0
   -4.2227   -0.9890   -0.0641 C   0  0  0  0  0  0  0  0  0  0  0  0
   -5.6806   -1.1484   -0.1836 C   0  0  0  0  0  0  0  0  0  0  0  0
   -6.4382   -0.0816   -0.6829 C   0  0  0  0  0  0  0  0  0  0  0  0
   -7.8232   -0.2041   -0.8077 C   0  0  0  0  0  0  0  0  0  0  0  0
   -8.4549   -1.3900   -0.4349 C   0  0  0  0  0  0  0  0  0  0  0  0
   -7.7049   -2.4553    0.0629 C   0  0  0  0  0  0  0  0  0  0  0  0
   -6.3189   -2.3378    0.1896 C   0  0  0  0  0  0  0  0  0  0  0  0
   -3.5588   -2.0606    0.4246 O   0  0  0  0  0  0  0  0  0  0  0  0
   -2.2400   -1.7190    0.4594 C   0  0  0  0  0  0  0  0  0  0  0  0
   -1.3250   -2.4181    0.8414 O   0  0  0  0  0  0  0  0  0  0  0  0
    0.9040   -0.8014   -0.6727 C   0  0  0  0  0  0  0  0  0  0  0  0
    2.2463   -1.0686   -0.3956 C   0  0  0  0  0  0  0  0  0  0  0  0
    2.9105   -0.3531    0.6036 C   0  0  0  0  0  0  0  0  0  0  0  0
    4.2256   -0.5720    0.9367 O   0  0  0  0  0  0  0  0  0  0  0  0
    5.1304   -0.8041   -0.1501 C   0  0  0  0  0  0  0  0  0  0  0  0
    5.3082    0.3663   -1.0176 C   0  0  0  0  0  0  0  0  0  0  0  0
    5.5825    1.7217   -0.7560 C   0  0  0  0  0  0  0  0  0  0  0  0
    5.7659    2.3993    0.5490 C   0  0  0  0  0  0  0  0  0  0  0  0
    5.6627    2.4233   -1.8919 N   0  0  0  0  0  0  0  0  0  0  0  0
    5.4314    1.5177   -2.9271 O   0  0  0  0  0  0  0  0  0  0  0  0
    5.1967    0.2339   -2.3359 N   0  0  0  0  0  4  0  0  0  0  0  0
    4.9825   -0.7219   -3.1149 O   0  0  0  0  0  1  0  0  0  0  0  0
    1.8304    2.9685    2.7332 H   0  0  0  0  0  0  0  0  0  0  0  0
    2.9466    2.4310    3.9927 H   0  0  0  0  0  0  0  0  0  0  0  0
    1.4521    1.5195    3.7454 H   0  0  0  0  0  0  0  0  0  0  0  0
    0.3225    1.6323    1.6168 H   0  0  0  0  0  0  0  0  0  0  0  0
   -1.3568    1.4884   -0.6161 H   0  0  0  0  0  0  0  0  0  0  0  0
   -5.9566    0.8487   -0.9776 H   0  0  0  0  0  0  0  0  0  0  0  0
   -8.4091    0.6256   -1.1960 H   0  0  0  0  0  0  0  0  0  0  0  0
   -9.5339   -1.4843   -0.5329 H   0  0  0  0  0  0  0  0  0  0  0  0
   -8.2006   -3.3791    0.3523 H   0  0  0  0  0  0  0  0  0  0  0  0
   -5.7544   -3.1812    0.5798 H   0  0  0  0  0  0  0  0  0  0  0  0
    0.4049   -1.3668   -1.4570 H   0  0  0  0  0  0  0  0  0  0  0  0
    2.7362   -1.8549   -0.9609 H   0  0  0  0  0  0  0  0  0  0  0  0
    6.0996   -1.0255    0.3139 H   0  0  0  0  0  0  0  0  0  0  0  0
    4.8621   -1.7201   -0.6871 H   0  0  0  0  0  0  0  0  0  0  0  0
    5.9828    1.6800    1.3447 H   0  0  0  0  0  0  0  0  0  0  0  0
    6.5992    3.1083    0.5060 H   0  0  0  0  0  0  0  0  0  0  0  0
    4.8600    2.9498    0.8213 H   0  0  0  0  0  0  0  0  0  0  0  0
  1  2  1  0
  2  3  1  0
  3  4  2  0
  4  5  1  0
  5  6  1  0
  6  7  2  3
  7  8  1  0
  8  9  2  0
  9 10  1  0
 10 11  2  0
 11 12  1  0
 12 13  2  0
 13 14  1  0
 14 15  2  0
  9 16  1  0
 16 17  1  0
 17 18  2  0
  5 19  2  0
 19 20  1  0
 20 21  2  0
 21 22  1  0
 22 23  1  0
 23 24  1  0
 24 25  1  0
 25 26  1  0
 25 27  2  0
 27 28  1  0
 28 29  1  0
 29 30  1  0
 21  3  1  0
 29 24  2  0
 17  7  1  0
 15 10  1  0
  1 31  1  0
  1 32  1  0
  1 33  1  0
  4 34  1  0
  6 35  1  0
 11 36  1  0
 12 37  1  0
 13 38  1  0
 14 39  1  0
 15 40  1  0
 19 41  1  0
 20 42  1  0
 23 43  1  0
 23 44  1  0
 26 45  1  0
 26 46  1  0
 26 47  1  0
M  CHG  2  29   1  30  -1
M  END
$$$$
