
     RDKit          3D

 46 48  0  0  0  0  0  0  0  0999 V2000
   -7.3031   -0.1944    1.0634 C   0  0  0  0  0  0  0  0  0  0  0  0
   -6.5143    0.9296    0.5110 C   0  0  0  0  0  0  0  0  0  0  0  0
   -7.0883    2.1615    0.6019 O   0  0  0  0  0  0  0  0  0  0  0  0
   -6.2259    3.0450    0.0466 C   0  0  0  0  0  0  0  0  0  0  0  0
   -5.0995    2.3977   -0.4017 C   0  0  0  0  0  0  0  0  0  0  0  0
   -5.2714    1.0107   -0.1013 C   0  0  0  0  0  0  0  0  0  0  0  0
   -4.3978   -0.1300   -0.3521 C   0  0  0  0  0  0  0  0  0  0  0  0
   -4.7361   -1.2844   -0.1098 O   0  0  0  0  0  0  0  0  0  0  0  0
   -3.1630    0.1897   -0.8709 N   0  0  0  0  0  0  0  0  0  0  0  0
   -2.1340   -0.8078   -1.0465 C   0  0  0  0  0  0  0  0  0  0  0  0
   -1.1445   -0.7584    0.0892 C   0  0  0  0  0  0  0  0  0  0  0  0
   -1.4382   -1.3845    1.3080 C   0  0  0  0  0  0  0  0  0  0  0  0
   -0.5366   -1.3254    2.3700 C   0  0  0  0  0  0  0  0  0  0  0  0
    0.6661   -0.6338    2.2289 C   0  0  0  0  0  0  0  0  0  0  0  0
    0.9739    0.0142    1.0258 C   0  0  0  0  0  0  0  0  0  0  0  0
    2.2824    0.7383    0.8581 C   0  0  0  0  0  0  0  0  0  0  0  0
    3.2422   -0.1000    0.1834 N   0  0  0  0  0  0  0  0  0  0  0  0
    4.4414    0.4181   -0.2483 C   0  0  0  0  0  0  0  0  0  0  0  0
    4.7071    1.6134   -0.1674 O   0  0  0  0  0  0  0  0  0  0  0  0
    5.3720   -0.5614   -0.7946 C   0  0  0  0  0  0  0  0  0  0  0  0
    5.1971   -1.9525   -1.0735 C   0  0  0  0  0  0  0  0  0  0  0  0
    6.3885   -2.4087   -1.5846 C   0  0  0  0  0  0  0  0  0  0  0  0
    7.2915   -1.4018   -1.6470 O   0  0  0  0  0  0  0  0  0  0  0  0
    6.6774   -0.2820   -1.1733 C   0  0  0  0  0  0  0  0  0  0  0  0
    7.4975    0.9500   -1.1600 C   0  0  0  0  0  0  0  0  0  0  0  0
    0.0639   -0.0580   -0.0409 C   0  0  0  0  0  0  0  0  0  0  0  0
   -8.2424    0.1571    1.5020 H   0  0  0  0  0  0  0  0  0  0  0  0
   -6.7390   -0.7108    1.8460 H   0  0  0  0  0  0  0  0  0  0  0  0
   -7.5472   -0.9141    0.2761 H   0  0  0  0  0  0  0  0  0  0  0  0
   -6.5511    4.0762    0.0428 H   0  0  0  0  0  0  0  0  0  0  0  0
   -4.2650    2.8775   -0.8912 H   0  0  0  0  0  0  0  0  0  0  0  0
   -2.8763    1.1554   -0.8911 H   0  0  0  0  0  0  0  0  0  0  0  0
   -2.5666   -1.8111   -1.1298 H   0  0  0  0  0  0  0  0  0  0  0  0
   -1.6339   -0.5927   -1.9973 H   0  0  0  0  0  0  0  0  0  0  0  0
   -2.3781   -1.9209    1.4338 H   0  0  0  0  0  0  0  0  0  0  0  0
   -0.7751   -1.8180    3.3095 H   0  0  0  0  0  0  0  0  0  0  0  0
    1.3594   -0.6006    3.0668 H   0  0  0  0  0  0  0  0  0  0  0  0
    2.7010    1.0233    1.8305 H   0  0  0  0  0  0  0  0  0  0  0  0
    2.1390    1.6644    0.2886 H   0  0  0  0  0  0  0  0  0  0  0  0
    3.1376   -1.0994    0.2720 H   0  0  0  0  0  0  0  0  0  0  0  0
    4.3123   -2.5560   -0.9325 H   0  0  0  0  0  0  0  0  0  0  0  0
    6.7355   -3.3703   -1.9367 H   0  0  0  0  0  0  0  0  0  0  0  0
    8.5159    0.7534   -1.5099 H   0  0  0  0  0  0  0  0  0  0  0  0
    7.5628    1.3565   -0.1461 H   0  0  0  0  0  0  0  0  0  0  0  0
    7.0573    1.7097   -1.8131 H   0  0  0  0  0  0  0  0  0  0  0  0
    0.3057    0.4354   -0.9813 H   0  0  0  0  0  0  0  0  0  0  0  0
  1  2  1  0
  2  3  1  0
  3  4  1  0
  4  5  2  0
  5  6  1  0
  6  7  1  0
  7  8  2  0
  7  9  1  0
  9 10  1  0
 10 11  1  0
 11 12  2  0
 12 13  1  0
 13 14  2  0
 14 15  1  0
 15 16  1  0
 16 17  1  0
 17 18  1  0
 18 19  2  0
 18 20  1  0
 20 21  1  0
 21 22  2  0
 22 23  1  0
 23 24  1  0
 24 25  1  0
 15 26  2  0
  6  2  2  0
 26 11  1  0
 24 20  2  0
  1 27  1  0
  1 28  1  0
  1 29  1  0
  4 30  1  0
  5 31  1  0
  9 32  1  0
 10 33  1  0
 10 34  1  0
 12 35  1  0
 13 36  1  0
 14 37  1  0
 16 38  1  0
 16 39  1  0
 17 40  1  0
 21 41  1  0
 22 42  1  0
 25 43  1  0
 25 44  1  0
 25 45  1  0
 26 46  1  0
M  END
$$$$
