
     RDKit          3D

 49 52  0  0  0  0  0  0  0  0999 V2000
    6.2101   -2.7338   -0.5338 C   0  0  0  0  0  0  0  0  0  0  0  0
    5.1333   -2.1620   -1.4432 C   0  0  0  0  0  0  0  0  0  0  0  0
    4.2287   -1.2075   -0.7080 C   0  0  0  0  0  0  0  0  0  0  0  0
    3.0751   -1.6696   -0.0642 C   0  0  0  0  0  0  0  0  0  0  0  0
    2.2402   -0.7863    0.6339 C   0  0  0  0  0  0  0  0  0  0  0  0
    2.5376    0.5792    0.7105 C   0  0  0  0  0  0  0  0  0  0  0  0
    1.7093    1.5622    1.4294 C   0  0  0  0  0  0  0  0  0  0  0  0
    0.4628    1.1446    2.1792 C   0  0  0  0  0  0  0  0  0  0  0  0
   -0.6156    0.6367    1.3203 N   0  0  0  0  0  0  0  0  0  0  0  0
   -1.6632    0.0076    2.1406 C   0  0  0  0  0  0  0  0  0  0  0  0
   -2.9067   -0.3461    1.3744 C   0  0  0  0  0  0  0  0  0  0  0  0
   -3.1775    0.1274    0.1437 C   0  0  0  0  0  0  0  0  0  0  0  0
   -4.4041   -0.2535   -0.5868 C   0  0  0  0  0  0  0  0  0  0  0  0
   -4.3561   -0.5650   -1.9531 C   0  0  0  0  0  0  0  0  0  0  0  0
   -5.5171   -0.9096   -2.6514 C   0  0  0  0  0  0  0  0  0  0  0  0
   -6.7441   -0.9417   -1.9937 C   0  0  0  0  0  0  0  0  0  0  0  0
   -6.8112   -0.6286   -0.6387 C   0  0  0  0  0  0  0  0  0  0  0  0
   -5.6497   -0.2852    0.0589 C   0  0  0  0  0  0  0  0  0  0  0  0
   -2.2051    1.0681   -0.5269 C   0  0  0  0  0  0  0  0  0  0  0  0
   -1.1999    1.6809    0.4651 C   0  0  0  0  0  0  0  0  0  0  0  0
    2.1166    2.8414    1.4366 C   0  0  0  0  0  0  0  0  0  0  0  0
    3.3246    3.3179    0.7500 C   0  0  0  0  0  0  0  0  0  0  0  0
    3.6324    4.5041    0.7839 O   0  0  0  0  0  0  0  0  0  0  0  0
    4.0808    2.3737    0.0830 O   0  0  0  0  0  0  0  0  0  0  0  0
    3.6946    1.0196    0.0646 C   0  0  0  0  0  0  0  0  0  0  0  0
    4.5382    0.1528   -0.6347 C   0  0  0  0  0  0  0  0  0  0  0  0
    6.8520   -3.4217   -1.0932 H   0  0  0  0  0  0  0  0  0  0  0  0
    6.8422   -1.9411   -0.1193 H   0  0  0  0  0  0  0  0  0  0  0  0
    5.7706   -3.2854    0.3042 H   0  0  0  0  0  0  0  0  0  0  0  0
    4.5388   -2.9780   -1.8720 H   0  0  0  0  0  0  0  0  0  0  0  0
    5.5998   -1.6481   -2.2924 H   0  0  0  0  0  0  0  0  0  0  0  0
    2.8112   -2.7248   -0.1027 H   0  0  0  0  0  0  0  0  0  0  0  0
    1.3495   -1.1948    1.1046 H   0  0  0  0  0  0  0  0  0  0  0  0
    0.7614    0.3675    2.8968 H   0  0  0  0  0  0  0  0  0  0  0  0
    0.0880    1.9762    2.7926 H   0  0  0  0  0  0  0  0  0  0  0  0
   -1.9573    0.6589    2.9740 H   0  0  0  0  0  0  0  0  0  0  0  0
   -1.2594   -0.9164    2.5720 H   0  0  0  0  0  0  0  0  0  0  0  0
   -3.5898   -1.0291    1.8718 H   0  0  0  0  0  0  0  0  0  0  0  0
   -3.4102   -0.5595   -2.4889 H   0  0  0  0  0  0  0  0  0  0  0  0
   -5.4602   -1.1545   -3.7088 H   0  0  0  0  0  0  0  0  0  0  0  0
   -7.6467   -1.2087   -2.5369 H   0  0  0  0  0  0  0  0  0  0  0  0
   -7.7677   -0.6467   -0.1229 H   0  0  0  0  0  0  0  0  0  0  0  0
   -5.7312   -0.0276    1.1121 H   0  0  0  0  0  0  0  0  0  0  0  0
   -1.6523    0.5231   -1.3027 H   0  0  0  0  0  0  0  0  0  0  0  0
   -2.7455    1.8866   -1.0180 H   0  0  0  0  0  0  0  0  0  0  0  0
   -1.6931    2.4513    1.0735 H   0  0  0  0  0  0  0  0  0  0  0  0
   -0.4267    2.1849   -0.1261 H   0  0  0  0  0  0  0  0  0  0  0  0
    1.5625    3.6160    1.9545 H   0  0  0  0  0  0  0  0  0  0  0  0
    5.4300    0.5449   -1.1170 H   0  0  0  0  0  0  0  0  0  0  0  0
  1  2  1  0
  2  3  1  0
  3  4  2  0
  4  5  1  0
  5  6  2  0
  6  7  1  0
  7  8  1  0
  8  9  1  0
  9 10  1  0
 10 11  1  0
 11 12  2  0
 12 13  1  0
 13 14  2  0
 14 15  1  0
 15 16  2  0
 16 17  1  0
 17 18  2  0
 12 19  1  0
 19 20  1  0
  7 21  2  0
 21 22  1  0
 22 23  2  0
 22 24  1  0
 24 25  1  0
 25 26  2  0
 26  3  1  0
 25  6  1  0
 20  9  1  0
 18 13  1  0
  1 27  1  0
  1 28  1  0
  1 29  1  0
  2 30  1  0
  2 31  1  0
  4 32  1  0
  5 33  1  0
  8 34  1  0
  8 35  1  0
 10 36  1  0
 10 37  1  0
 11 38  1  0
 14 39  1  0
 15 40  1  0
 16 41  1  0
 17 42  1  0
 18 43  1  0
 19 44  1  0
 19 45  1  0
 20 46  1  0
 20 47  1  0
 21 48  1  0
 26 49  1  0
M  END
$$$$
