
     RDKit          3D

 47 50  0  0  0  0  0  0  0  0999 V2000
    2.2551   -0.3786    2.6143 C   0  0  0  0  0  0  0  0  0  0  0  0
    2.5014   -0.8283    1.2642 N   0  0  0  0  0  0  0  0  0  0  0  0
    3.5748   -0.4747    0.4666 C   0  0  0  0  0  0  0  0  0  0  0  0
    4.6387    0.4543    0.8229 C   0  0  0  0  0  0  0  0  0  0  0  0
    4.3495    1.7961    1.1009 C   0  0  0  0  0  0  0  0  0  0  0  0
    5.3735    2.6843    1.4361 C   0  0  0  0  0  0  0  0  0  0  0  0
    6.6932    2.2385    1.4906 C   0  0  0  0  0  0  0  0  0  0  0  0
    6.9909    0.9065    1.2064 C   0  0  0  0  0  0  0  0  0  0  0  0
    5.9675    0.0177    0.8702 C   0  0  0  0  0  0  0  0  0  0  0  0
    3.3808   -1.1965   -0.6977 C   0  0  0  0  0  0  0  0  0  0  0  0
    2.2254   -1.9298   -0.6522 N   0  0  0  0  0  0  0  0  0  0  0  0
    1.7170   -1.6815    0.5316 C   0  0  0  0  0  0  0  0  0  0  0  0
    0.2123   -2.3280    1.0972 S   0  0  0  0  0  0  0  0  0  0  0  0
   -0.8828   -1.6915   -0.2160 C   0  0  0  0  0  0  0  0  0  0  0  0
   -1.2837   -0.2382    0.0463 C   0  0  0  0  0  0  0  0  0  0  0  0
   -0.5426    0.5290    0.6758 O   0  0  0  0  0  0  0  0  0  0  0  0
   -2.5642    0.1877   -0.3532 N   0  0  0  0  0  0  0  0  0  0  0  0
   -3.0823    1.3326    0.4021 C   0  0  0  0  0  0  0  0  0  0  0  0
   -4.4601    1.8265   -0.0069 C   0  0  0  0  0  0  0  0  0  0  0  0
   -5.3958    0.6432   -0.1616 C   0  0  0  0  0  0  0  0  0  0  0  0
   -4.8199   -0.2699   -1.2085 C   0  0  0  0  0  0  0  0  0  0  0  0
   -5.6862   -0.9390   -2.0881 C   0  0  0  0  0  0  0  0  0  0  0  0
   -5.1761   -1.7432   -3.1019 C   0  0  0  0  0  0  0  0  0  0  0  0
   -3.8005   -1.8669   -3.2527 C   0  0  0  0  0  0  0  0  0  0  0  0
   -2.9348   -1.2184   -2.3659 C   0  0  0  0  0  0  0  0  0  0  0  0
   -3.4255   -0.4550   -1.2990 C   0  0  0  0  0  0  0  0  0  0  0  0
    1.5651    0.4675    2.5752 H   0  0  0  0  0  0  0  0  0  0  0  0
    3.1946   -0.0781    3.0838 H   0  0  0  0  0  0  0  0  0  0  0  0
    1.8318   -1.1954    3.2036 H   0  0  0  0  0  0  0  0  0  0  0  0
    3.3257    2.1602    1.0456 H   0  0  0  0  0  0  0  0  0  0  0  0
    5.1411    3.7247    1.6480 H   0  0  0  0  0  0  0  0  0  0  0  0
    7.4906    2.9304    1.7494 H   0  0  0  0  0  0  0  0  0  0  0  0
    8.0200    0.5589    1.2444 H   0  0  0  0  0  0  0  0  0  0  0  0
    6.2130   -1.0193    0.6521 H   0  0  0  0  0  0  0  0  0  0  0  0
    4.0127   -1.2037   -1.5766 H   0  0  0  0  0  0  0  0  0  0  0  0
   -0.3816   -1.7734   -1.1824 H   0  0  0  0  0  0  0  0  0  0  0  0
   -1.7657   -2.3348   -0.1986 H   0  0  0  0  0  0  0  0  0  0  0  0
   -3.0989    1.0378    1.4601 H   0  0  0  0  0  0  0  0  0  0  0  0
   -2.3666    2.1598    0.3169 H   0  0  0  0  0  0  0  0  0  0  0  0
   -4.8454    2.5270    0.7420 H   0  0  0  0  0  0  0  0  0  0  0  0
   -4.3877    2.3757   -0.9550 H   0  0  0  0  0  0  0  0  0  0  0  0
   -6.3855    1.0055   -0.4626 H   0  0  0  0  0  0  0  0  0  0  0  0
   -5.5079    0.0961    0.7816 H   0  0  0  0  0  0  0  0  0  0  0  0
   -6.7636   -0.8197   -1.9965 H   0  0  0  0  0  0  0  0  0  0  0  0
   -5.8491   -2.2493   -3.7891 H   0  0  0  0  0  0  0  0  0  0  0  0
   -3.3947   -2.4582   -4.0702 H   0  0  0  0  0  0  0  0  0  0  0  0
   -1.8734   -1.2884   -2.5759 H   0  0  0  0  0  0  0  0  0  0  0  0
  1  2  1  0
  2  3  1  0
  3  4  1  0
  4  5  2  0
  5  6  1  0
  6  7  2  0
  7  8  1  0
  8  9  2  0
  3 10  2  0
 10 11  1  0
 11 12  2  0
 12 13  1  0
 13 14  1  0
 14 15  1  0
 15 16  2  0
 15 17  1  0
 17 18  1  0
 18 19  1  0
 19 20  1  0
 20 21  1  0
 21 22  2  0
 22 23  1  0
 23 24  2  0
 24 25  1  0
 25 26  2  0
 12  2  1  0
 26 17  1  0
  9  4  1  0
 26 21  1  0
  1 27  1  0
  1 28  1  0
  1 29  1  0
  5 30  1  0
  6 31  1  0
  7 32  1  0
  8 33  1  0
  9 34  1  0
 10 35  1  0
 14 36  1  0
 14 37  1  0
 18 38  1  0
 18 39  1  0
 19 40  1  0
 19 41  1  0
 20 42  1  0
 20 43  1  0
 22 44  1  0
 23 45  1  0
 24 46  1  0
 25 47  1  0
M  END
$$$$
