
     RDKit          3D

 49 52  0  0  0  0  0  0  0  0999 V2000
    4.9471   -1.1261   -2.2311 C   0  0  0  0  0  0  0  0  0  0  0  0
    5.7049   -0.7187   -1.0009 C   0  0  0  0  0  0  0  0  0  0  0  0
    6.6061   -1.6092   -0.3993 C   0  0  0  0  0  0  0  0  0  0  0  0
    7.3102   -1.2330    0.7469 C   0  0  0  0  0  0  0  0  0  0  0  0
    8.4169   -2.3364    1.4679 Cl  0  0  0  0  0  0  0  0  0  0  0  0
    7.1297    0.0293    1.3095 C   0  0  0  0  0  0  0  0  0  0  0  0
    6.2289    0.9206    0.7280 C   0  0  0  0  0  0  0  0  0  0  0  0
    5.5062    0.5360   -0.4058 C   0  0  0  0  0  0  0  0  0  0  0  0
    4.6413    1.4364   -0.9777 O   0  0  0  0  0  0  0  0  0  0  0  0
    3.4034    1.6114   -0.4960 C   0  0  0  0  0  0  0  0  0  0  0  0
    2.6555    2.5746   -0.9922 N   0  0  0  0  0  0  0  0  0  0  0  0
    1.4183    2.5765   -0.3814 C   0  0  0  0  0  0  0  0  0  0  0  0
    1.2204    1.6062    0.5789 C   0  0  0  0  0  0  0  0  0  0  0  0
    0.0101    1.3395    1.4197 C   0  0  0  0  0  0  0  0  0  0  0  0
   -0.7101    0.1263    1.0055 N   0  0  0  0  0  0  0  0  0  0  0  0
   -1.7538   -0.2469    1.9846 C   0  0  0  0  0  0  0  0  0  0  0  0
   -3.1844    0.2504    1.6694 C   0  0  0  0  0  0  0  0  0  0  0  0
   -3.6203   -0.1823    0.3313 N   0  0  0  0  0  0  0  0  0  0  0  0
   -4.9589   -0.4270    0.0660 C   0  0  0  0  0  0  0  0  0  0  0  0
   -5.3730   -1.3067   -0.9474 C   0  0  0  0  0  0  0  0  0  0  0  0
   -6.7268   -1.5468   -1.2166 C   0  0  0  0  0  0  0  0  0  0  0  0
   -7.7102   -0.9032   -0.4763 C   0  0  0  0  0  0  0  0  0  0  0  0
   -7.3365   -0.0210    0.5291 C   0  0  0  0  0  0  0  0  0  0  0  0
   -5.9802    0.2108    0.7912 C   0  0  0  0  0  0  0  0  0  0  0  0
   -2.5570   -0.5799   -0.6046 C   0  0  0  0  0  0  0  0  0  0  0  0
   -1.2844    0.2627   -0.3547 C   0  0  0  0  0  0  0  0  0  0  0  0
    2.6469    0.6661    0.7300 S   0  0  0  0  0  0  0  0  0  0  0  0
    3.9028   -1.3345   -1.9789 H   0  0  0  0  0  0  0  0  0  0  0  0
    4.9863   -0.3357   -2.9877 H   0  0  0  0  0  0  0  0  0  0  0  0
    5.3758   -2.0272   -2.6824 H   0  0  0  0  0  0  0  0  0  0  0  0
    6.7649   -2.5968   -0.8264 H   0  0  0  0  0  0  0  0  0  0  0  0
    7.6860    0.3235    2.1952 H   0  0  0  0  0  0  0  0  0  0  0  0
    6.0895    1.9095    1.1570 H   0  0  0  0  0  0  0  0  0  0  0  0
    0.6854    3.3155   -0.6827 H   0  0  0  0  0  0  0  0  0  0  0  0
   -0.6563    2.2122    1.4071 H   0  0  0  0  0  0  0  0  0  0  0  0
    0.3501    1.2306    2.4586 H   0  0  0  0  0  0  0  0  0  0  0  0
   -1.7794   -1.3447    2.0139 H   0  0  0  0  0  0  0  0  0  0  0  0
   -1.4758    0.0595    3.0007 H   0  0  0  0  0  0  0  0  0  0  0  0
   -3.2184    1.3450    1.7249 H   0  0  0  0  0  0  0  0  0  0  0  0
   -3.8455   -0.1514    2.4470 H   0  0  0  0  0  0  0  0  0  0  0  0
   -4.6438   -1.8485   -1.5425 H   0  0  0  0  0  0  0  0  0  0  0  0
   -7.0053   -2.2410   -2.0049 H   0  0  0  0  0  0  0  0  0  0  0  0
   -8.7606   -1.0862   -0.6833 H   0  0  0  0  0  0  0  0  0  0  0  0
   -8.0951    0.4961    1.1102 H   0  0  0  0  0  0  0  0  0  0  0  0
   -5.7359    0.9291    1.5687 H   0  0  0  0  0  0  0  0  0  0  0  0
   -2.8670   -0.4019   -1.6414 H   0  0  0  0  0  0  0  0  0  0  0  0
   -2.3349   -1.6480   -0.4912 H   0  0  0  0  0  0  0  0  0  0  0  0
   -0.5234   -0.0254   -1.0891 H   0  0  0  0  0  0  0  0  0  0  0  0
   -1.5493    1.3106   -0.5532 H   0  0  0  0  0  0  0  0  0  0  0  0
  1  2  1  0
  2  3  2  0
  3  4  1  0
  4  5  1  0
  4  6  2  0
  6  7  1  0
  7  8  2  0
  8  9  1  0
  9 10  1  0
 10 11  2  0
 11 12  1  0
 12 13  2  0
 13 14  1  0
 14 15  1  0
 15 16  1  0
 16 17  1  0
 17 18  1  0
 18 19  1  0
 19 20  2  0
 20 21  1  0
 21 22  2  0
 22 23  1  0
 23 24  2  0
 18 25  1  0
 25 26  1  0
 13 27  1  0
  8  2  1  0
 27 10  1  0
 26 15  1  0
 24 19  1  0
  1 28  1  0
  1 29  1  0
  1 30  1  0
  3 31  1  0
  6 32  1  0
  7 33  1  0
 12 34  1  0
 14 35  1  0
 14 36  1  0
 16 37  1  0
 16 38  1  0
 17 39  1  0
 17 40  1  0
 20 41  1  0
 21 42  1  0
 22 43  1  0
 23 44  1  0
 24 45  1  0
 25 46  1  0
 25 47  1  0
 26 48  1  0
 26 49  1  0
M  END
$$$$
