
     RDKit          3D

 49 51  0  0  0  0  0  0  0  0999 V2000
   -1.9377   -3.6406    2.9585 C   0  0  0  0  0  0  0  0  0  0  0  0
   -1.9952   -2.4536    2.0299 C   0  0  0  0  0  0  0  0  0  0  0  0
   -3.2119   -2.3136    1.1818 C   0  0  0  0  0  0  0  0  0  0  0  0
   -3.2333   -1.2279    0.3959 C   0  0  0  0  0  0  0  0  0  0  0  0
   -4.3571   -0.9465   -0.5556 C   0  0  0  0  0  0  0  0  0  0  0  0
   -2.1813   -0.3375    0.4339 N   0  0  0  0  0  0  0  0  0  0  0  0
   -1.0450   -0.5654    1.1728 C   0  0  0  0  0  0  0  0  0  0  0  0
    0.0402    0.1420    1.1744 N   0  0  0  0  0  0  0  0  0  0  0  0
    0.0725    1.2783    0.4277 C   0  0  0  0  0  0  0  0  0  0  0  0
    0.5628    1.2821   -0.7640 N   0  0  0  0  0  0  0  0  0  0  0  0
    1.1311   -0.0253   -1.5262 S   0  0  0  0  0  6  0  0  0  0  0  0
    1.6990    0.4540   -2.7762 O   0  0  0  0  0  0  0  0  0  0  0  0
    0.0842   -1.0307   -1.5727 O   0  0  0  0  0  0  0  0  0  0  0  0
    2.4893   -0.5759   -0.4848 C   0  0  0  0  0  0  0  0  0  0  0  0
    3.1603   -1.7658   -1.1258 C   0  0  0  0  0  0  0  0  0  0  0  0
    4.2173   -1.5924   -2.0303 C   0  0  0  0  0  0  0  0  0  0  0  0
    4.8309   -2.6982   -2.6206 C   0  0  0  0  0  0  0  0  0  0  0  0
    4.3946   -3.9858   -2.3146 C   0  0  0  0  0  0  0  0  0  0  0  0
    3.3417   -4.1699   -1.4208 C   0  0  0  0  0  0  0  0  0  0  0  0
    2.7257   -3.0663   -0.8294 C   0  0  0  0  0  0  0  0  0  0  0  0
   -0.4063    2.3924    1.0635 N   0  0  0  0  0  0  0  0  0  0  0  0
   -0.5373    3.7312    0.6499 C   0  0  0  0  0  0  0  0  0  0  0  0
   -0.2379    4.1749   -0.6447 C   0  0  0  0  0  0  0  0  0  0  0  0
   -0.3968    5.5175   -1.0110 C   0  0  0  0  0  0  0  0  0  0  0  0
   -0.8649    6.4484   -0.0897 C   0  0  0  0  0  0  0  0  0  0  0  0
   -1.1780    6.0385    1.2019 C   0  0  0  0  0  0  0  0  0  0  0  0
   -1.0173    4.6964    1.5634 C   0  0  0  0  0  0  0  0  0  0  0  0
   -1.4742    4.2086    3.3479 Br  0  0  0  0  0  0  0  0  0  0  0  0
   -0.9845   -1.6401    2.0268 N   0  0  0  0  0  0  0  0  0  0  0  0
   -1.8058   -3.2890    3.9860 H   0  0  0  0  0  0  0  0  0  0  0  0
   -2.8510   -4.2386    2.9055 H   0  0  0  0  0  0  0  0  0  0  0  0
   -1.0859   -4.2702    2.6851 H   0  0  0  0  0  0  0  0  0  0  0  0
   -3.9874   -3.0652    1.2088 H   0  0  0  0  0  0  0  0  0  0  0  0
   -4.8233    0.0156   -0.3188 H   0  0  0  0  0  0  0  0  0  0  0  0
   -3.9842   -0.9070   -1.5844 H   0  0  0  0  0  0  0  0  0  0  0  0
   -5.1351   -1.7160   -0.5103 H   0  0  0  0  0  0  0  0  0  0  0  0
   -2.1142    0.3089   -0.3436 H   0  0  0  0  0  0  0  0  0  0  0  0
    2.1242   -0.8528    0.5044 H   0  0  0  0  0  0  0  0  0  0  0  0
    3.1904    0.2580   -0.3778 H   0  0  0  0  0  0  0  0  0  0  0  0
    4.5627   -0.5939   -2.2922 H   0  0  0  0  0  0  0  0  0  0  0  0
    5.6455   -2.5538   -3.3255 H   0  0  0  0  0  0  0  0  0  0  0  0
    4.8706   -4.8455   -2.7784 H   0  0  0  0  0  0  0  0  0  0  0  0
    2.9954   -5.1733   -1.1877 H   0  0  0  0  0  0  0  0  0  0  0  0
    1.8977   -3.2270   -0.1404 H   0  0  0  0  0  0  0  0  0  0  0  0
   -0.6349    2.2384    2.0398 H   0  0  0  0  0  0  0  0  0  0  0  0
    0.1271    3.4951   -1.4089 H   0  0  0  0  0  0  0  0  0  0  0  0
   -0.1514    5.8302   -2.0238 H   0  0  0  0  0  0  0  0  0  0  0  0
   -0.9858    7.4894   -0.3787 H   0  0  0  0  0  0  0  0  0  0  0  0
   -1.5457    6.7677    1.9192 H   0  0  0  0  0  0  0  0  0  0  0  0
  1  2  1  0
  2  3  1  0
  3  4  2  0
  4  5  1  0
  4  6  1  0
  6  7  1  0
  7  8  2  3
  8  9  1  0
  9 10  2  3
 10 11  1  0
 11 12  2  0
 11 13  2  0
 11 14  1  0
 14 15  1  0
 15 16  2  0
 16 17  1  0
 17 18  2  0
 18 19  1  0
 19 20  2  0
  9 21  1  0
 21 22  1  0
 22 23  2  0
 23 24  1  0
 24 25  2  0
 25 26  1  0
 26 27  2  0
 27 28  1  0
  7 29  1  0
 29  2  2  0
 20 15  1  0
 27 22  1  0
  1 30  1  0
  1 31  1  0
  1 32  1  0
  3 33  1  0
  5 34  1  0
  5 35  1  0
  5 36  1  0
  6 37  1  0
 14 38  1  0
 14 39  1  0
 16 40  1  0
 17 41  1  0
 18 42  1  0
 19 43  1  0
 20 44  1  0
 21 45  1  0
 23 46  1  0
 24 47  1  0
 25 48  1  0
 26 49  1  0
M  END
$$$$
