
     RDKit          3D

 61 65  0  0  0  0  0  0  0  0999 V2000
   -0.6791   -3.2580    0.4462 C   0  0  0  0  0  0  0  0  0  0  0  0
   -2.1379   -3.2106    0.4928 N   0  0  0  0  0  0  0  0  0  0  0  0
   -2.6419   -3.6618    1.7869 C   0  0  0  0  0  0  0  0  0  0  0  0
   -2.6856   -1.9021    0.0961 C   0  0  0  0  0  0  0  0  0  0  0  0
   -2.4083   -0.7075    1.0348 C   0  0  0  0  0  0  0  0  0  0  0  0
   -2.8667    0.5807    0.4540 N   0  0  0  0  0  0  0  0  0  0  0  0
   -2.0129    1.4021   -0.2981 C   0  0  0  0  0  0  0  0  0  0  0  0
   -2.2932    2.4019   -0.9514 O   0  0  0  0  0  0  0  0  0  0  0  0
   -0.5812    1.0375   -0.3355 C   0  0  0  0  0  0  0  0  0  0  0  0
   -0.1040    0.2194   -1.3653 C   0  0  0  0  0  0  0  0  0  0  0  0
    1.2284   -0.1934   -1.3506 C   0  0  0  0  0  0  0  0  0  0  0  0
    2.0777    0.2523   -0.3307 C   0  0  0  0  0  0  0  0  0  0  0  0
    3.7547   -0.3527   -0.2391 S   0  0  0  0  0  6  0  0  0  0  0  0
    4.0557   -0.4866    1.1725 O   0  0  0  0  0  0  0  0  0  0  0  0
    3.8570   -1.4841   -1.1386 O   0  0  0  0  0  0  0  0  0  0  0  0
    4.6522    0.9490   -0.8933 N   0  0  0  0  0  0  0  0  0  0  0  0
    4.4005    1.2468   -2.3499 C   0  0  0  0  0  0  0  0  0  0  0  0
    5.6895    0.9059   -3.1142 C   0  0  0  0  0  0  0  0  0  0  0  0
    6.6947    0.8106   -2.0194 C   0  0  0  0  0  0  0  0  0  0  0  0
    8.0700    0.6850   -2.1342 C   0  0  0  0  0  0  0  0  0  0  0  0
    8.8240    0.5650   -0.9650 C   0  0  0  0  0  0  0  0  0  0  0  0
    8.1987    0.5751    0.2930 C   0  0  0  0  0  0  0  0  0  0  0  0
    6.8108    0.6981    0.3954 C   0  0  0  0  0  0  0  0  0  0  0  0
    6.0751    0.7983   -0.7728 C   0  0  0  0  0  0  0  0  0  0  0  0
    1.6074    1.1028    0.6783 C   0  0  0  0  0  0  0  0  0  0  0  0
    0.2716    1.5044    0.6716 C   0  0  0  0  0  0  0  0  0  0  0  0
   -4.2301    0.8842    0.6071 C   0  0  0  0  0  0  0  0  0  0  0  0
   -5.0683    0.0402    1.1720 N   0  0  0  0  0  0  0  0  0  0  0  0
   -6.3281    0.5952    1.2702 C   0  0  0  0  0  0  0  0  0  0  0  0
   -7.4579   -0.0284    1.8357 C   0  0  0  0  0  0  0  0  0  0  0  0
   -8.6707    0.6637    1.8888 C   0  0  0  0  0  0  0  0  0  0  0  0
   -8.7569    1.9539    1.3832 C   0  0  0  0  0  0  0  0  0  0  0  0
   -9.9255    2.6065    1.4592 F   0  0  0  0  0  0  0  0  0  0  0  0
   -7.6605    2.5974    0.8128 C   0  0  0  0  0  0  0  0  0  0  0  0
   -6.4457    1.8947    0.7736 C   0  0  0  0  0  0  0  0  0  0  0  0
   -4.9166    2.3871    0.1647 S   0  0  0  0  0  0  0  0  0  0  0  0
   -0.3254   -4.2813    0.6156 H   0  0  0  0  0  0  0  0  0  0  0  0
   -0.3172   -2.9666   -0.5440 H   0  0  0  0  0  0  0  0  0  0  0  0
   -0.2091   -2.6123    1.1947 H   0  0  0  0  0  0  0  0  0  0  0  0
   -2.3577   -4.7053    1.9625 H   0  0  0  0  0  0  0  0  0  0  0  0
   -3.7379   -3.6266    1.8138 H   0  0  0  0  0  0  0  0  0  0  0  0
   -2.2580   -3.0628    2.6206 H   0  0  0  0  0  0  0  0  0  0  0  0
   -3.7700   -2.0142   -0.0309 H   0  0  0  0  0  0  0  0  0  0  0  0
   -2.3227   -1.6678   -0.9124 H   0  0  0  0  0  0  0  0  0  0  0  0
   -2.9071   -0.8490    2.0025 H   0  0  0  0  0  0  0  0  0  0  0  0
   -1.3447   -0.6482    1.2717 H   0  0  0  0  0  0  0  0  0  0  0  0
   -0.7698   -0.1070   -2.1605 H   0  0  0  0  0  0  0  0  0  0  0  0
    1.5926   -0.8586   -2.1288 H   0  0  0  0  0  0  0  0  0  0  0  0
    3.5476    0.7056   -2.7685 H   0  0  0  0  0  0  0  0  0  0  0  0
    4.1774    2.3185   -2.4311 H   0  0  0  0  0  0  0  0  0  0  0  0
    5.5930   -0.0620   -3.6175 H   0  0  0  0  0  0  0  0  0  0  0  0
    5.9348    1.6777   -3.8508 H   0  0  0  0  0  0  0  0  0  0  0  0
    8.5535    0.6688   -3.1057 H   0  0  0  0  0  0  0  0  0  0  0  0
    9.9045    0.4589   -1.0249 H   0  0  0  0  0  0  0  0  0  0  0  0
    8.7983    0.4809    1.1955 H   0  0  0  0  0  0  0  0  0  0  0  0
    6.3310    0.7155    1.3686 H   0  0  0  0  0  0  0  0  0  0  0  0
    2.2724    1.4363    1.4727 H   0  0  0  0  0  0  0  0  0  0  0  0
   -0.1079    2.1613    1.4517 H   0  0  0  0  0  0  0  0  0  0  0  0
   -7.3766   -1.0392    2.2252 H   0  0  0  0  0  0  0  0  0  0  0  0
   -9.5477    0.2012    2.3295 H   0  0  0  0  0  0  0  0  0  0  0  0
   -7.7503    3.6035    0.4198 H   0  0  0  0  0  0  0  0  0  0  0  0
  1  2  1  0
  2  3  1  0
  2  4  1  0
  4  5  1  0
  5  6  1  0
  6  7  1  0
  7  8  2  0
  7  9  1  0
  9 10  2  0
 10 11  1  0
 11 12  2  0
 12 13  1  0
 13 14  2  0
 13 15  2  0
 13 16  1  0
 16 17  1  0
 17 18  1  0
 18 19  1  0
 19 20  2  0
 20 21  1  0
 21 22  2  0
 22 23  1  0
 23 24  2  0
 12 25  1  0
 25 26  2  0
  6 27  1  0
 27 28  2  0
 28 29  1  0
 29 30  2  0
 30 31  1  0
 31 32  2  0
 32 33  1  0
 32 34  1  0
 34 35  2  0
 35 36  1  0
 26  9  1  0
 36 27  1  0
 24 16  1  0
 35 29  1  0
 24 19  1  0
  1 37  1  0
  1 38  1  0
  1 39  1  0
  3 40  1  0
  3 41  1  0
  3 42  1  0
  4 43  1  0
  4 44  1  0
  5 45  1  0
  5 46  1  0
 10 47  1  0
 11 48  1  0
 17 49  1  0
 17 50  1  0
 18 51  1  0
 18 52  1  0
 20 53  1  0
 21 54  1  0
 22 55  1  0
 23 56  1  0
 25 57  1  0
 26 58  1  0
 30 59  1  0
 31 60  1  0
 34 61  1  0
M  END
$$$$
