
     RDKit          3D

 38 42  0  0  0  0  0  0  0  0999 V2000
   -0.1168   -0.4725   -2.7716 O   0  0  0  0  0  0  0  0  0  0  0  0
   -0.4468   -0.5599   -1.4894 C   0  0  0  0  0  0  0  0  0  0  0  0
   -1.6174   -0.2963   -0.8302 C   0  0  0  0  0  0  0  0  0  0  0  0
   -1.4073   -0.5692    0.5616 C   0  0  0  0  0  0  0  0  0  0  0  0
   -0.1121   -0.9752    0.7350 C   0  0  0  0  0  0  0  0  0  0  0  0
    0.5211   -1.3064    1.8549 O   0  0  0  0  0  0  0  0  0  0  0  0
    0.4669   -0.9893   -0.5323 N   0  0  0  0  0  0  0  0  0  0  0  0
    1.8056   -1.4811   -0.8534 C   0  0  0  0  0  0  0  0  0  0  0  0
    2.9023   -0.5808   -0.3326 C   0  0  0  0  0  0  0  0  0  0  0  0
    2.8991    0.7969   -0.5981 C   0  0  0  0  0  0  0  0  0  0  0  0
    3.9221    1.6155   -0.1174 C   0  0  0  0  0  0  0  0  0  0  0  0
    4.9664    1.0658    0.6231 C   0  0  0  0  0  0  0  0  0  0  0  0
    4.9947   -0.3040    0.8744 C   0  0  0  0  0  0  0  0  0  0  0  0
    3.9716   -1.1247    0.3963 C   0  0  0  0  0  0  0  0  0  0  0  0
   -2.6287   -0.3117    1.4259 C   0  0  0  0  0  0  0  0  0  0  0  0
   -3.7523   -1.1676    0.7671 C   0  0  0  0  0  0  0  0  0  0  0  0
   -3.9552   -0.9089   -0.5530 C   0  0  0  0  0  0  0  0  0  0  0  0
   -3.0242    0.1908   -1.1403 C   0  0  0  0  0  0  0  0  0  0  0  0
   -3.3273    1.4616   -0.2820 C   0  0  0  0  0  0  0  0  0  0  0  0
   -2.3104    2.2535    0.5139 C   0  0  0  0  0  0  0  0  0  0  0  0
   -3.0972    1.1681    1.2194 C   0  0  0  0  0  0  0  0  0  0  0  0
   -0.9110   -0.1713   -3.2475 H   0  0  0  0  0  0  0  0  0  0  0  0
    1.4807   -1.2343    1.7148 H   0  0  0  0  0  0  0  0  0  0  0  0
    1.9047   -1.5920   -1.9380 H   0  0  0  0  0  0  0  0  0  0  0  0
    1.8721   -2.4843   -0.4143 H   0  0  0  0  0  0  0  0  0  0  0  0
    2.0944    1.2432   -1.1810 H   0  0  0  0  0  0  0  0  0  0  0  0
    3.9024    2.6829   -0.3207 H   0  0  0  0  0  0  0  0  0  0  0  0
    5.7625    1.7046    0.9966 H   0  0  0  0  0  0  0  0  0  0  0  0
    5.8166   -0.7333    1.4418 H   0  0  0  0  0  0  0  0  0  0  0  0
    4.0201   -2.1936    0.5941 H   0  0  0  0  0  0  0  0  0  0  0  0
   -2.4760   -0.5557    2.4795 H   0  0  0  0  0  0  0  0  0  0  0  0
   -4.2981   -1.9083    1.3343 H   0  0  0  0  0  0  0  0  0  0  0  0
   -4.6864   -1.4175   -1.1662 H   0  0  0  0  0  0  0  0  0  0  0  0
   -3.1965    0.3589   -2.2057 H   0  0  0  0  0  0  0  0  0  0  0  0
   -4.2577    1.9403   -0.5614 H   0  0  0  0  0  0  0  0  0  0  0  0
   -1.2514    2.1149    0.3319 H   0  0  0  0  0  0  0  0  0  0  0  0
   -2.5560    3.2830    0.7553 H   0  0  0  0  0  0  0  0  0  0  0  0
   -3.8747    1.4577    1.9148 H   0  0  0  0  0  0  0  0  0  0  0  0
  1  2  1  0
  2  3  2  0
  3  4  1  0
  4  5  2  0
  5  6  1  0
  5  7  1  0
  7  8  1  0
  8  9  1  0
  9 10  2  0
 10 11  1  0
 11 12  2  0
 12 13  1  0
 13 14  2  0
  4 15  1  0
 15 16  1  0
 16 17  2  0
 17 18  1  0
 18 19  1  0
 19 20  1  0
 20 21  1  0
  7  2  1  0
 14  9  1  0
 21 15  1  0
 18  3  1  0
 21 19  1  0
  1 22  1  0
  6 23  1  0
  8 24  1  0
  8 25  1  0
 10 26  1  0
 11 27  1  0
 12 28  1  0
 13 29  1  0
 14 30  1  0
 15 31  1  0
 16 32  1  0
 17 33  1  0
 18 34  1  0
 19 35  1  0
 20 36  1  0
 20 37  1  0
 21 38  1  0
M  END
$$$$
