
     RDKit          3D

 43 46  0  0  0  0  0  0  0  0999 V2000
    7.9940    1.6616    0.8237 C   0  0  0  0  0  0  0  0  0  0  0  0
    6.5224    1.4027    0.6849 C   0  0  0  0  0  0  0  0  0  0  0  0
    6.0598    0.1501    0.2624 C   0  0  0  0  0  0  0  0  0  0  0  0
    4.6911   -0.0840    0.0994 C   0  0  0  0  0  0  0  0  0  0  0  0
    3.7697    0.9388    0.3572 C   0  0  0  0  0  0  0  0  0  0  0  0
    2.3002    0.7373    0.1984 C   0  0  0  0  0  0  0  0  0  0  0  0
    1.6187    1.6917   -0.1548 O   0  0  0  0  0  0  0  0  0  0  0  0
    1.8574   -0.5223    0.5132 N   0  0  0  0  0  0  0  0  0  0  0  0
    0.5511   -0.9740    0.4252 C   0  0  0  0  0  0  0  0  0  0  0  0
    0.3773   -2.2302    0.8694 N   0  0  0  0  0  0  0  0  0  0  0  0
   -0.8780   -2.7280    0.8032 C   0  0  0  0  0  0  0  0  0  0  0  0
   -1.9470   -2.0161    0.3109 C   0  0  0  0  0  0  0  0  0  0  0  0
   -1.6754   -0.7372   -0.1238 C   0  0  0  0  0  0  0  0  0  0  0  0
   -0.4308   -0.2137   -0.0757 N   0  0  0  0  0  0  0  0  0  0  0  0
   -2.7564    0.1285   -0.7105 C   0  0  0  0  0  0  0  0  0  0  0  0
   -4.1236   -0.2355   -0.1205 C   0  0  0  0  0  0  0  0  0  0  0  0
   -5.2050    0.6006   -0.7173 C   0  0  0  0  0  0  0  0  0  0  0  0
   -6.0685    1.5409   -0.1956 C   0  0  0  0  0  0  0  0  0  0  0  0
   -6.8672    1.9897   -1.2749 C   0  0  0  0  0  0  0  0  0  0  0  0
   -6.4405    1.2963   -2.3826 C   0  0  0  0  0  0  0  0  0  0  0  0
   -5.4316    0.4500   -2.0533 O   0  0  0  0  0  0  0  0  0  0  0  0
   -4.4081   -1.7274   -0.3160 C   0  0  0  0  0  0  0  0  0  0  0  0
   -3.3026   -2.5829    0.2590 C   0  0  0  0  0  0  0  0  0  0  0  0
   -3.4937   -3.7344    0.6376 O   0  0  0  0  0  0  0  0  0  0  0  0
    4.2313    2.2011    0.7473 C   0  0  0  0  0  0  0  0  0  0  0  0
    5.5994    2.4310    0.9102 C   0  0  0  0  0  0  0  0  0  0  0  0
    8.1868    2.4153    1.5944 H   0  0  0  0  0  0  0  0  0  0  0  0
    8.5242    0.7507    1.1209 H   0  0  0  0  0  0  0  0  0  0  0  0
    8.4030    2.0151   -0.1278 H   0  0  0  0  0  0  0  0  0  0  0  0
    6.7662   -0.6494    0.0474 H   0  0  0  0  0  0  0  0  0  0  0  0
    4.3681   -1.0570   -0.2600 H   0  0  0  0  0  0  0  0  0  0  0  0
    2.4767   -1.2052    0.9174 H   0  0  0  0  0  0  0  0  0  0  0  0
   -0.9935   -3.7450    1.1698 H   0  0  0  0  0  0  0  0  0  0  0  0
   -2.7485   -0.0034   -1.8001 H   0  0  0  0  0  0  0  0  0  0  0  0
   -2.5307    1.1837   -0.5107 H   0  0  0  0  0  0  0  0  0  0  0  0
   -4.0953   -0.0336    0.9606 H   0  0  0  0  0  0  0  0  0  0  0  0
   -6.1153    1.8652    0.8349 H   0  0  0  0  0  0  0  0  0  0  0  0
   -7.6557    2.7287   -1.2505 H   0  0  0  0  0  0  0  0  0  0  0  0
   -6.7351    1.2907   -3.4229 H   0  0  0  0  0  0  0  0  0  0  0  0
   -4.5151   -1.9868   -1.3762 H   0  0  0  0  0  0  0  0  0  0  0  0
   -5.3435   -1.9926    0.1920 H   0  0  0  0  0  0  0  0  0  0  0  0
    3.5248    3.0102    0.9238 H   0  0  0  0  0  0  0  0  0  0  0  0
    5.9388    3.4203    1.2101 H   0  0  0  0  0  0  0  0  0  0  0  0
  1  2  1  0
  2  3  2  0
  3  4  1  0
  4  5  2  0
  5  6  1  0
  6  7  2  0
  6  8  1  0
  8  9  1  0
  9 10  2  0
 10 11  1  0
 11 12  2  0
 12 13  1  0
 13 14  2  0
 13 15  1  0
 15 16  1  0
 16 17  1  0
 17 18  2  0
 18 19  1  0
 19 20  2  0
 20 21  1  0
 16 22  1  0
 22 23  1  0
 23 24  2  0
  5 25  1  0
 25 26  2  0
 26  2  1  0
 14  9  1  0
 21 17  1  0
 23 12  1  0
  1 27  1  0
  1 28  1  0
  1 29  1  0
  3 30  1  0
  4 31  1  0
  8 32  1  0
 11 33  1  0
 15 34  1  0
 15 35  1  0
 16 36  1  0
 18 37  1  0
 19 38  1  0
 20 39  1  0
 22 40  1  0
 22 41  1  0
 25 42  1  0
 26 43  1  0
M  END
$$$$
