
     RDKit          3D

 43 44  0  0  0  0  0  0  0  0999 V2000
   -5.2089    2.7709    1.1132 C   0  0  0  0  0  0  0  0  0  0  0  0
   -4.7405    2.5568   -0.3139 C   0  0  0  0  0  0  0  0  0  0  0  0
   -3.5116    1.8198   -0.3259 O   0  0  0  0  0  0  0  0  0  0  0  0
   -3.6228    0.4573   -0.3050 C   0  0  0  0  0  0  0  0  0  0  0  0
   -4.6928   -0.1397   -0.2600 O   0  0  0  0  0  0  0  0  0  0  0  0
   -2.3206   -0.2305   -0.3369 C   0  0  0  0  0  0  0  0  0  0  0  0
   -1.1781    0.4447   -0.5304 N   0  0  0  0  0  0  0  0  0  0  0  0
   -0.1813   -0.4734   -0.5170 N   0  0  0  0  0  0  0  0  0  0  0  0
    1.1710   -0.0052   -0.5374 C   0  0  0  0  0  0  0  0  0  0  0  0
    1.4205    1.3284   -0.8997 C   0  0  0  0  0  0  0  0  0  0  0  0
    2.7268    1.8267   -0.9284 C   0  0  0  0  0  0  0  0  0  0  0  0
    3.8084    1.0150   -0.5884 C   0  0  0  0  0  0  0  0  0  0  0  0
    5.0247    1.6314   -0.6563 O   0  0  0  0  0  0  0  0  0  0  0  0
    6.2053    0.8493   -0.4850 C   0  0  0  0  0  0  0  0  0  0  0  0
    6.6193    0.8142    0.9758 C   0  0  0  0  0  0  0  0  0  0  0  0
    3.5652   -0.2997   -0.1981 C   0  0  0  0  0  0  0  0  0  0  0  0
    2.2558   -0.8069   -0.1682 C   0  0  0  0  0  0  0  0  0  0  0  0
   -0.6998   -1.7624   -0.4723 C   0  0  0  0  0  0  0  0  0  0  0  0
    0.0876   -3.0109   -0.6700 C   0  0  0  0  0  0  0  0  0  0  0  0
   -2.0674   -1.6263   -0.2415 C   0  0  0  0  0  0  0  0  0  0  0  0
   -3.0079   -2.7224   -0.0208 C   0  0  0  0  0  0  0  0  0  0  0  0
   -4.0236   -2.6103    1.0885 C   0  0  0  0  0  0  0  0  0  0  0  0
   -2.9486   -3.7556   -0.6878 O   0  0  0  0  0  0  0  0  0  0  0  0
   -5.4191    1.8162    1.6056 H   0  0  0  0  0  0  0  0  0  0  0  0
   -6.1151    3.3826    1.1363 H   0  0  0  0  0  0  0  0  0  0  0  0
   -4.4314    3.2684    1.7023 H   0  0  0  0  0  0  0  0  0  0  0  0
   -4.5377    3.5251   -0.7831 H   0  0  0  0  0  0  0  0  0  0  0  0
   -5.5088    2.0619   -0.9189 H   0  0  0  0  0  0  0  0  0  0  0  0
    0.6077    1.9978   -1.1774 H   0  0  0  0  0  0  0  0  0  0  0  0
    2.8989    2.8601   -1.2207 H   0  0  0  0  0  0  0  0  0  0  0  0
    6.9947    1.3518   -1.0556 H   0  0  0  0  0  0  0  0  0  0  0  0
    6.1143   -0.1529   -0.9183 H   0  0  0  0  0  0  0  0  0  0  0  0
    6.7454    1.8311    1.3623 H   0  0  0  0  0  0  0  0  0  0  0  0
    7.5619    0.2729    1.0974 H   0  0  0  0  0  0  0  0  0  0  0  0
    5.8582    0.3323    1.5964 H   0  0  0  0  0  0  0  0  0  0  0  0
    4.3684   -0.9596    0.1124 H   0  0  0  0  0  0  0  0  0  0  0  0
    2.1330   -1.8191    0.1965 H   0  0  0  0  0  0  0  0  0  0  0  0
    0.8888   -2.8718   -1.4019 H   0  0  0  0  0  0  0  0  0  0  0  0
    0.5091   -3.3552    0.2792 H   0  0  0  0  0  0  0  0  0  0  0  0
   -0.5329   -3.8203   -1.0640 H   0  0  0  0  0  0  0  0  0  0  0  0
   -3.8191   -1.7543    1.7367 H   0  0  0  0  0  0  0  0  0  0  0  0
   -5.0260   -2.5250    0.6626 H   0  0  0  0  0  0  0  0  0  0  0  0
   -3.9709   -3.5129    1.7050 H   0  0  0  0  0  0  0  0  0  0  0  0
  1  2  1  0
  2  3  1  0
  3  4  1  0
  4  5  2  0
  4  6  1  0
  6  7  2  0
  7  8  1  0
  8  9  1  0
  9 10  2  0
 10 11  1  0
 11 12  2  0
 12 13  1  0
 13 14  1  0
 14 15  1  0
 12 16  1  0
 16 17  2  0
  8 18  1  0
 18 19  1  0
 18 20  2  0
 20 21  1  0
 21 22  1  0
 21 23  2  0
 20  6  1  0
 17  9  1  0
  1 24  1  0
  1 25  1  0
  1 26  1  0
  2 27  1  0
  2 28  1  0
 10 29  1  0
 11 30  1  0
 14 31  1  0
 14 32  1  0
 15 33  1  0
 15 34  1  0
 15 35  1  0
 16 36  1  0
 17 37  1  0
 19 38  1  0
 19 39  1  0
 19 40  1  0
 22 41  1  0
 22 42  1  0
 22 43  1  0
M  END
$$$$
