
     RDKit          3D

 49 52  0  0  0  0  0  0  0  0999 V2000
   -8.0063   -0.2116    3.0205 C   0  0  0  0  0  0  0  0  0  0  0  0
   -7.2456    0.7306    2.2758 O   0  0  0  0  0  0  0  0  0  0  0  0
   -6.5048    0.2436    1.2345 C   0  0  0  0  0  0  0  0  0  0  0  0
   -6.4013   -1.0947    0.8552 C   0  0  0  0  0  0  0  0  0  0  0  0
   -5.6023   -1.4590   -0.2354 C   0  0  0  0  0  0  0  0  0  0  0  0
   -4.9019   -0.4888   -0.9643 C   0  0  0  0  0  0  0  0  0  0  0  0
   -4.0221   -0.8765   -2.1246 C   0  0  0  0  0  0  0  0  0  0  0  0
   -2.6365   -0.9242   -1.7181 N   0  0  0  0  0  0  0  0  0  0  0  0
   -1.7566    0.1011   -2.0121 C   0  0  0  0  0  0  0  0  0  0  0  0
   -2.0963    1.0398   -2.7301 O   0  0  0  0  0  0  0  0  0  0  0  0
   -0.4368   -0.0254   -1.3995 C   0  0  0  0  0  0  0  0  0  0  0  0
    0.1418   -1.0858   -0.7004 C   0  0  0  0  0  0  0  0  0  0  0  0
    1.4505   -0.7656   -0.2788 C   0  0  0  0  0  0  0  0  0  0  0  0
    1.8212    0.4832   -0.6660 C   0  0  0  0  0  0  0  0  0  0  0  0
    0.6629    1.3191   -1.5208 S   0  0  0  0  0  0  0  0  0  0  0  0
    3.1920    0.8184   -0.2388 C   0  0  0  0  0  0  0  0  0  0  0  0
    3.7047   -0.5138    0.2106 N   0  0  0  0  0  0  0  0  0  0  0  0
    4.6035   -0.4228    1.3598 C   0  0  0  0  0  0  0  0  0  0  0  0
    5.8806    0.3304    1.0551 C   0  0  0  0  0  0  0  0  0  0  0  0
    6.7424   -0.1106    0.0394 C   0  0  0  0  0  0  0  0  0  0  0  0
    7.9238    0.5782   -0.2385 C   0  0  0  0  0  0  0  0  0  0  0  0
    8.2586    1.7130    0.4975 C   0  0  0  0  0  0  0  0  0  0  0  0
    7.4127    2.1599    1.5110 C   0  0  0  0  0  0  0  0  0  0  0  0
    6.2299    1.4724    1.7902 C   0  0  0  0  0  0  0  0  0  0  0  0
    2.5454   -1.4188    0.4748 C   0  0  0  0  0  0  0  0  0  0  0  0
   -5.0048    0.8520   -0.5742 C   0  0  0  0  0  0  0  0  0  0  0  0
   -5.8013    1.2116    0.5153 C   0  0  0  0  0  0  0  0  0  0  0  0
   -7.3559   -0.9395    3.5168 H   0  0  0  0  0  0  0  0  0  0  0  0
   -8.7477   -0.7102    2.3874 H   0  0  0  0  0  0  0  0  0  0  0  0
   -8.5474    0.3356    3.7985 H   0  0  0  0  0  0  0  0  0  0  0  0
   -6.9278   -1.8806    1.3862 H   0  0  0  0  0  0  0  0  0  0  0  0
   -5.5355   -2.5089   -0.5119 H   0  0  0  0  0  0  0  0  0  0  0  0
   -4.2855   -1.8774   -2.4841 H   0  0  0  0  0  0  0  0  0  0  0  0
   -4.1703   -0.1846   -2.9610 H   0  0  0  0  0  0  0  0  0  0  0  0
   -2.3982   -1.5757   -0.9880 H   0  0  0  0  0  0  0  0  0  0  0  0
   -0.3426   -2.0345   -0.5132 H   0  0  0  0  0  0  0  0  0  0  0  0
    3.1560    1.5477    0.5788 H   0  0  0  0  0  0  0  0  0  0  0  0
    3.8039    1.2037   -1.0595 H   0  0  0  0  0  0  0  0  0  0  0  0
    4.8975   -1.4318    1.6785 H   0  0  0  0  0  0  0  0  0  0  0  0
    4.0897    0.0327    2.2167 H   0  0  0  0  0  0  0  0  0  0  0  0
    6.4855   -0.9913   -0.5459 H   0  0  0  0  0  0  0  0  0  0  0  0
    8.5802    0.2302   -1.0316 H   0  0  0  0  0  0  0  0  0  0  0  0
    9.1779    2.2500    0.2797 H   0  0  0  0  0  0  0  0  0  0  0  0
    7.6743    3.0457    2.0841 H   0  0  0  0  0  0  0  0  0  0  0  0
    5.5825    1.8369    2.5843 H   0  0  0  0  0  0  0  0  0  0  0  0
    2.7593   -2.4254    0.1046 H   0  0  0  0  0  0  0  0  0  0  0  0
    2.2853   -1.4601    1.5391 H   0  0  0  0  0  0  0  0  0  0  0  0
   -4.4619    1.6247   -1.1169 H   0  0  0  0  0  0  0  0  0  0  0  0
   -5.8728    2.2571    0.8054 H   0  0  0  0  0  0  0  0  0  0  0  0
  1  2  1  0
  2  3  1  0
  3  4  2  0
  4  5  1  0
  5  6  2  0
  6  7  1  0
  7  8  1  0
  8  9  1  0
  9 10  2  0
  9 11  1  0
 11 12  2  0
 12 13  1  0
 13 14  2  0
 14 15  1  0
 14 16  1  0
 16 17  1  0
 17 18  1  0
 18 19  1  0
 19 20  2  0
 20 21  1  0
 21 22  2  0
 22 23  1  0
 23 24  2  0
 17 25  1  0
  6 26  1  0
 26 27  2  0
 27  3  1  0
 15 11  1  0
 24 19  1  0
 25 13  1  0
  1 28  1  0
  1 29  1  0
  1 30  1  0
  4 31  1  0
  5 32  1  0
  7 33  1  0
  7 34  1  0
  8 35  1  0
 12 36  1  0
 16 37  1  0
 16 38  1  0
 18 39  1  0
 18 40  1  0
 20 41  1  0
 21 42  1  0
 22 43  1  0
 23 44  1  0
 24 45  1  0
 25 46  1  0
 25 47  1  0
 26 48  1  0
 27 49  1  0
M  END
$$$$
