
     RDKit          3D

 55 58  0  0  0  0  0  0  0  0999 V2000
    4.0732   -2.0883    1.1731 C   0  0  0  0  0  0  0  0  0  0  0  0
    3.7720   -0.7810    0.6981 O   0  0  0  0  0  0  0  0  0  0  0  0
    4.8247    0.0542    0.4251 C   0  0  0  0  0  0  0  0  0  0  0  0
    6.1718   -0.2919    0.5858 C   0  0  0  0  0  0  0  0  0  0  0  0
    7.1827    0.6301    0.2981 C   0  0  0  0  0  0  0  0  0  0  0  0
    6.8581    1.9071   -0.1455 C   0  0  0  0  0  0  0  0  0  0  0  0
    5.5209    2.2627   -0.3087 C   0  0  0  0  0  0  0  0  0  0  0  0
    4.4907    1.3407   -0.0418 C   0  0  0  0  0  0  0  0  0  0  0  0
    3.0510    1.7775   -0.2102 C   0  0  0  0  0  0  0  0  0  0  0  0
    2.8277    2.4217   -1.5075 N   0  0  0  0  0  0  0  0  0  0  0  0
    1.4372    3.3239   -1.7311 S   0  0  0  0  0  6  0  0  0  0  0  0
    1.3873    4.3334   -0.6966 O   0  0  0  0  0  0  0  0  0  0  0  0
    1.3843    3.6675   -3.1346 O   0  0  0  0  0  0  0  0  0  0  0  0
    0.1458    2.1444   -1.4150 C   0  0  0  0  0  0  0  0  0  0  0  0
   -0.1559    1.1842   -2.3963 C   0  0  0  0  0  0  0  0  0  0  0  0
   -1.1610    0.2371   -2.1680 C   0  0  0  0  0  0  0  0  0  0  0  0
   -1.8647    0.2840   -0.9735 C   0  0  0  0  0  0  0  0  0  0  0  0
   -1.5573    1.2506   -0.0076 C   0  0  0  0  0  0  0  0  0  0  0  0
   -0.5568    2.1901   -0.2070 C   0  0  0  0  0  0  0  0  0  0  0  0
   -2.3772    1.0489    1.2281 C   0  0  0  0  0  0  0  0  0  0  0  0
   -3.4739    0.0978    0.7056 C   0  0  0  0  0  0  0  0  0  0  0  0
   -4.7294    0.9048    0.3363 C   0  0  0  0  0  0  0  0  0  0  0  0
   -2.9076   -0.5542   -0.5034 N   0  0  0  0  0  0  0  0  0  0  0  0
   -3.3661   -1.6951   -1.1621 C   0  0  0  0  0  0  0  0  0  0  0  0
   -3.0701   -1.9188   -2.3493 O   0  0  0  0  0  0  0  0  0  0  0  0
   -4.1747   -2.7692   -0.4135 C   0  0  0  0  0  0  0  0  0  0  0  0
   -5.4865   -2.5326    0.3655 C   0  0  0  0  0  0  0  0  0  0  0  0
   -5.0634   -3.6856    1.3003 C   0  0  0  0  0  0  0  0  0  0  0  0
   -3.6061   -3.4102    0.8781 C   0  0  0  0  0  0  0  0  0  0  0  0
    4.6461   -2.6571    0.4318 H   0  0  0  0  0  0  0  0  0  0  0  0
    4.5947   -2.0482    2.1353 H   0  0  0  0  0  0  0  0  0  0  0  0
    3.1252   -2.6121    1.3325 H   0  0  0  0  0  0  0  0  0  0  0  0
    6.4729   -1.2724    0.9403 H   0  0  0  0  0  0  0  0  0  0  0  0
    8.2251    0.3503    0.4289 H   0  0  0  0  0  0  0  0  0  0  0  0
    7.6426    2.6298   -0.3570 H   0  0  0  0  0  0  0  0  0  0  0  0
    5.2768    3.2692   -0.6478 H   0  0  0  0  0  0  0  0  0  0  0  0
    2.3786    0.9174   -0.1468 H   0  0  0  0  0  0  0  0  0  0  0  0
    2.8081    2.4603    0.6110 H   0  0  0  0  0  0  0  0  0  0  0  0
    3.1341    1.9116   -2.3336 H   0  0  0  0  0  0  0  0  0  0  0  0
    0.3854    1.1695   -3.3410 H   0  0  0  0  0  0  0  0  0  0  0  0
   -1.3770   -0.4982   -2.9364 H   0  0  0  0  0  0  0  0  0  0  0  0
   -0.3248    2.9285    0.5555 H   0  0  0  0  0  0  0  0  0  0  0  0
   -2.7746    1.9841    1.6336 H   0  0  0  0  0  0  0  0  0  0  0  0
   -1.7643    0.5496    1.9873 H   0  0  0  0  0  0  0  0  0  0  0  0
   -3.7244   -0.6407    1.4686 H   0  0  0  0  0  0  0  0  0  0  0  0
   -5.4695    0.2936   -0.1875 H   0  0  0  0  0  0  0  0  0  0  0  0
   -5.1971    1.3166    1.2368 H   0  0  0  0  0  0  0  0  0  0  0  0
   -4.4885    1.7417   -0.3296 H   0  0  0  0  0  0  0  0  0  0  0  0
   -4.3651   -3.5808   -1.1428 H   0  0  0  0  0  0  0  0  0  0  0  0
   -5.5968   -1.5910    0.9016 H   0  0  0  0  0  0  0  0  0  0  0  0
   -6.4045   -2.7116   -0.2022 H   0  0  0  0  0  0  0  0  0  0  0  0
   -5.4354   -4.6670    0.9851 H   0  0  0  0  0  0  0  0  0  0  0  0
   -5.2849   -3.5427    2.3607 H   0  0  0  0  0  0  0  0  0  0  0  0
   -2.9917   -4.3028    0.7268 H   0  0  0  0  0  0  0  0  0  0  0  0
   -3.0679   -2.7317    1.5471 H   0  0  0  0  0  0  0  0  0  0  0  0
  1  2  1  0
  2  3  1  0
  3  4  2  0
  4  5  1  0
  5  6  2  0
  6  7  1  0
  7  8  2  0
  8  9  1  0
  9 10  1  0
 10 11  1  0
 11 12  2  0
 11 13  2  0
 11 14  1  0
 14 15  2  0
 15 16  1  0
 16 17  2  0
 17 18  1  0
 18 19  2  0
 18 20  1  0
 20 21  1  0
 21 22  1  0
 21 23  1  0
 23 24  1  0
 24 25  2  0
 24 26  1  0
 26 27  1  0
 27 28  1  0
 28 29  1  0
  8  3  1  0
 19 14  1  0
 29 26  1  0
 23 17  1  0
  1 30  1  0
  1 31  1  0
  1 32  1  0
  4 33  1  0
  5 34  1  0
  6 35  1  0
  7 36  1  0
  9 37  1  0
  9 38  1  0
 10 39  1  0
 15 40  1  0
 16 41  1  0
 19 42  1  0
 20 43  1  0
 20 44  1  0
 21 45  1  0
 22 46  1  0
 22 47  1  0
 22 48  1  0
 26 49  1  0
 27 50  1  0
 27 51  1  0
 28 52  1  0
 28 53  1  0
 29 54  1  0
 29 55  1  0
M  END
$$$$
