
     RDKit          3D

 44 46  0  0  0  0  0  0  0  0999 V2000
    1.2692    2.2009    2.1423 C   0  0  0  0  0  0  0  0  0  0  0  0
    1.5155    1.0438    1.1987 C   0  0  0  0  0  0  0  0  0  0  0  0
    2.6344    1.0438    0.5603 N   0  0  0  0  0  0  0  0  0  0  0  0
    2.8987    0.0415   -0.4747 C   0  0  0  0  0  0  0  0  0  0  0  0
    3.8941    0.5332   -1.4908 C   0  0  0  0  0  0  0  0  0  0  0  0
    4.9316   -0.2832   -1.9516 C   0  0  0  0  0  0  0  0  0  0  0  0
    5.7977    0.1890   -2.9344 C   0  0  0  0  0  0  0  0  0  0  0  0
    5.5904    1.4643   -3.4368 C   0  0  0  0  0  0  0  0  0  0  0  0
    4.5979    2.2806   -3.0257 N   0  0  0  0  0  0  0  0  0  0  0  0
    3.7759    1.7983   -2.0636 C   0  0  0  0  0  0  0  0  0  0  0  0
    0.4485    0.0110    1.1391 C   0  0  0  0  0  0  0  0  0  0  0  0
    0.6802   -1.2125    1.6267 C   0  0  0  0  0  0  0  0  0  0  0  0
    1.8499   -1.6558    2.1835 O   0  0  0  0  0  0  0  0  0  0  0  0
   -0.2792   -2.1634    1.5914 N   0  0  0  0  0  0  0  0  0  0  0  0
   -1.5378   -1.9965    1.0776 C   0  0  0  0  0  0  0  0  0  0  0  0
   -2.2646   -2.9860    1.0004 O   0  0  0  0  0  0  0  0  0  0  0  0
   -1.8513   -0.7024    0.6517 N   0  0  0  0  0  0  0  0  0  0  0  0
   -3.1645   -0.4501    0.1219 C   0  0  0  0  0  0  0  0  0  0  0  0
   -3.2781    0.1516   -1.1467 C   0  0  0  0  0  0  0  0  0  0  0  0
   -4.5238    0.3751   -1.7352 C   0  0  0  0  0  0  0  0  0  0  0  0
   -5.6812    0.0028   -1.0653 C   0  0  0  0  0  0  0  0  0  0  0  0
   -5.5932   -0.5705    0.2021 C   0  0  0  0  0  0  0  0  0  0  0  0
   -4.3461   -0.7836    0.8215 C   0  0  0  0  0  0  0  0  0  0  0  0
   -4.3650   -1.3300    2.2247 C   0  0  0  0  0  0  0  0  0  0  0  0
   -0.9067    0.3282    0.6219 C   0  0  0  0  0  0  0  0  0  0  0  0
   -1.1128    1.4778    0.2300 O   0  0  0  0  0  0  0  0  0  0  0  0
    2.1160    2.2956    2.8286 H   0  0  0  0  0  0  0  0  0  0  0  0
    0.3587    2.0536    2.7294 H   0  0  0  0  0  0  0  0  0  0  0  0
    1.1749    3.1236    1.5623 H   0  0  0  0  0  0  0  0  0  0  0  0
    1.9884   -0.2365   -1.0204 H   0  0  0  0  0  0  0  0  0  0  0  0
    3.2962   -0.8611    0.0033 H   0  0  0  0  0  0  0  0  0  0  0  0
    5.0721   -1.2842   -1.5500 H   0  0  0  0  0  0  0  0  0  0  0  0
    6.6106   -0.4257   -3.3052 H   0  0  0  0  0  0  0  0  0  0  0  0
    6.2360    1.8752   -4.2075 H   0  0  0  0  0  0  0  0  0  0  0  0
    2.9879    2.4819   -1.7562 H   0  0  0  0  0  0  0  0  0  0  0  0
    2.5168   -0.9427    2.1769 H   0  0  0  0  0  0  0  0  0  0  0  0
   -0.0506   -3.0948    1.9187 H   0  0  0  0  0  0  0  0  0  0  0  0
   -2.3910    0.4324   -1.7108 H   0  0  0  0  0  0  0  0  0  0  0  0
   -4.5852    0.8319   -2.7198 H   0  0  0  0  0  0  0  0  0  0  0  0
   -6.6534    0.1670   -1.5225 H   0  0  0  0  0  0  0  0  0  0  0  0
   -6.5123   -0.8390    0.7205 H   0  0  0  0  0  0  0  0  0  0  0  0
   -5.2157   -0.9205    2.7814 H   0  0  0  0  0  0  0  0  0  0  0  0
   -3.4706   -1.0447    2.7864 H   0  0  0  0  0  0  0  0  0  0  0  0
   -4.4586   -2.4196    2.2107 H   0  0  0  0  0  0  0  0  0  0  0  0
  1  2  1  0
  2  3  2  3
  3  4  1  0
  4  5  1  0
  5  6  2  0
  6  7  1  0
  7  8  2  0
  8  9  1  0
  9 10  2  0
  2 11  1  0
 11 12  2  0
 12 13  1  0
 12 14  1  0
 14 15  1  0
 15 16  2  0
 15 17  1  0
 17 18  1  0
 18 19  2  0
 19 20  1  0
 20 21  2  0
 21 22  1  0
 22 23  2  0
 23 24  1  0
 17 25  1  0
 25 26  2  0
 10  5  1  0
 25 11  1  0
 23 18  1  0
  1 27  1  0
  1 28  1  0
  1 29  1  0
  4 30  1  0
  4 31  1  0
  6 32  1  0
  7 33  1  0
  8 34  1  0
 10 35  1  0
 13 36  1  0
 14 37  1  0
 19 38  1  0
 20 39  1  0
 21 40  1  0
 22 41  1  0
 24 42  1  0
 24 43  1  0
 24 44  1  0
M  END
$$$$
