
     RDKit          3D

 67 69  0  0  0  0  0  0  0  0999 V2000
   -0.6089    3.6691    0.7728 C   0  0  0  0  0  0  0  0  0  0  0  0
   -0.6592    2.1464    0.7407 C   0  0  0  0  0  0  0  0  0  0  0  0
   -1.9641    1.6922    0.2636 N   0  0  0  0  0  0  0  0  0  0  0  0
   -3.0522    1.5727    1.0960 C   0  0  0  0  0  0  0  0  0  0  0  0
   -3.0215    1.8807    2.2823 O   0  0  0  0  0  0  0  0  0  0  0  0
   -4.2916    1.0085    0.4914 C   0  0  0  0  0  0  0  0  0  0  0  0
   -4.5677    1.1062   -0.8741 C   0  0  0  0  0  0  0  0  0  0  0  0
   -5.7440    0.5540   -1.4001 C   0  0  0  0  0  0  0  0  0  0  0  0
   -6.6766   -0.1017   -0.5795 C   0  0  0  0  0  0  0  0  0  0  0  0
   -7.9707   -0.7288   -1.1289 C   0  0  0  0  0  0  0  0  0  0  0  0
   -9.1946   -0.0740   -0.4546 C   0  0  0  0  0  0  0  0  0  0  0  0
   -8.1486   -0.5623   -2.6554 C   0  0  0  0  0  0  0  0  0  0  0  0
   -7.9756   -2.2437   -0.8329 C   0  0  0  0  0  0  0  0  0  0  0  0
   -6.3863   -0.1733    0.7973 C   0  0  0  0  0  0  0  0  0  0  0  0
   -5.2148    0.3784    1.3275 C   0  0  0  0  0  0  0  0  0  0  0  0
    0.4053    1.5846   -0.2285 C   0  0  0  0  0  0  0  0  0  0  0  0
    0.0464    1.0839   -1.3027 O   0  0  0  0  0  0  0  0  0  0  0  0
    1.7472    1.7000    0.1079 N   0  0  0  0  0  0  0  0  0  0  0  0
    2.7472    1.1461   -0.8078 C   0  0  0  0  0  0  0  0  0  0  0  0
    3.3377   -0.1643   -0.2441 C   0  0  0  0  0  0  0  0  0  0  0  0
    3.8686   -0.0618    1.1422 N   0  0  0  0  0  0  0  0  0  0  0  0
    5.1450    0.6638    1.1991 C   0  0  0  0  0  0  0  0  0  0  0  0
    6.3470   -0.1003    0.7059 C   0  0  0  0  0  0  0  0  0  0  0  0
    6.4289   -1.4278    0.5107 C   0  0  0  0  0  0  0  0  0  0  0  0
    7.6188   -2.1316    0.0094 C   0  0  0  0  0  0  0  0  0  0  0  0
    8.9239   -1.7220    0.3146 C   0  0  0  0  0  0  0  0  0  0  0  0
   10.0263   -2.4372   -0.1614 C   0  0  0  0  0  0  0  0  0  0  0  0
    9.8352   -3.5770   -0.9390 C   0  0  0  0  0  0  0  0  0  0  0  0
    8.5421   -4.0052   -1.2386 C   0  0  0  0  0  0  0  0  0  0  0  0
    7.4406   -3.2892   -0.7626 C   0  0  0  0  0  0  0  0  0  0  0  0
    2.8468    0.5663    2.0137 C   0  0  0  0  0  0  0  0  0  0  0  0
    2.2544    1.8869    1.4709 C   0  0  0  0  0  0  0  0  0  0  0  0
    0.3584    4.0384    1.1261 H   0  0  0  0  0  0  0  0  0  0  0  0
   -1.3856    4.0774    1.4273 H   0  0  0  0  0  0  0  0  0  0  0  0
   -0.7698    4.0860   -0.2280 H   0  0  0  0  0  0  0  0  0  0  0  0
   -0.5106    1.7225    1.7370 H   0  0  0  0  0  0  0  0  0  0  0  0
   -1.9645    1.2583   -0.6549 H   0  0  0  0  0  0  0  0  0  0  0  0
   -3.8928    1.6246   -1.5483 H   0  0  0  0  0  0  0  0  0  0  0  0
   -5.9069    0.6577   -2.4694 H   0  0  0  0  0  0  0  0  0  0  0  0
   -9.2104    1.0070   -0.6326 H   0  0  0  0  0  0  0  0  0  0  0  0
  -10.1292   -0.4904   -0.8462 H   0  0  0  0  0  0  0  0  0  0  0  0
   -9.2049   -0.2271    0.6300 H   0  0  0  0  0  0  0  0  0  0  0  0
   -8.1937    0.4950   -2.9417 H   0  0  0  0  0  0  0  0  0  0  0  0
   -7.3312   -1.0341   -3.2128 H   0  0  0  0  0  0  0  0  0  0  0  0
   -9.0813   -1.0286   -2.9965 H   0  0  0  0  0  0  0  0  0  0  0  0
   -7.9826   -2.4547    0.2428 H   0  0  0  0  0  0  0  0  0  0  0  0
   -7.0917   -2.7320   -1.2603 H   0  0  0  0  0  0  0  0  0  0  0  0
   -8.8619   -2.7283   -1.2599 H   0  0  0  0  0  0  0  0  0  0  0  0
   -7.0729   -0.6636    1.4842 H   0  0  0  0  0  0  0  0  0  0  0  0
   -5.0239    0.3059    2.3964 H   0  0  0  0  0  0  0  0  0  0  0  0
    2.3218    0.9604   -1.7992 H   0  0  0  0  0  0  0  0  0  0  0  0
    3.5284    1.9036   -0.9356 H   0  0  0  0  0  0  0  0  0  0  0  0
    4.1007   -0.5445   -0.9325 H   0  0  0  0  0  0  0  0  0  0  0  0
    2.5458   -0.9257   -0.2330 H   0  0  0  0  0  0  0  0  0  0  0  0
    5.0898    1.6115    0.6527 H   0  0  0  0  0  0  0  0  0  0  0  0
    5.3709    0.9287    2.2405 H   0  0  0  0  0  0  0  0  0  0  0  0
    7.2121    0.5232    0.4965 H   0  0  0  0  0  0  0  0  0  0  0  0
    5.5638   -2.0546    0.7156 H   0  0  0  0  0  0  0  0  0  0  0  0
    9.0999   -0.8493    0.9379 H   0  0  0  0  0  0  0  0  0  0  0  0
   11.0338   -2.1078    0.0832 H   0  0  0  0  0  0  0  0  0  0  0  0
   10.6931   -4.1338   -1.3059 H   0  0  0  0  0  0  0  0  0  0  0  0
    8.3872   -4.8974   -1.8398 H   0  0  0  0  0  0  0  0  0  0  0  0
    6.4395   -3.6412   -1.0057 H   0  0  0  0  0  0  0  0  0  0  0  0
    2.0292   -0.1575    2.1373 H   0  0  0  0  0  0  0  0  0  0  0  0
    3.2505    0.7276    3.0212 H   0  0  0  0  0  0  0  0  0  0  0  0
    1.4780    2.2382    2.1522 H   0  0  0  0  0  0  0  0  0  0  0  0
    3.0255    2.6650    1.4288 H   0  0  0  0  0  0  0  0  0  0  0  0
  1  2  1  0
  2  3  1  0
  3  4  1  0
  4  5  2  0
  4  6  1  0
  6  7  2  0
  7  8  1  0
  8  9  2  0
  9 10  1  0
 10 11  1  0
 10 12  1  0
 10 13  1  0
  9 14  1  0
 14 15  2  0
  2 16  1  0
 16 17  2  0
 16 18  1  0
 18 19  1  0
 19 20  1  0
 20 21  1  0
 21 22  1  0
 22 23  1  0
 23 24  2  3
 24 25  1  0
 25 26  2  0
 26 27  1  0
 27 28  2  0
 28 29  1  0
 29 30  2  0
 21 31  1  0
 31 32  1  0
 15  6  1  0
 32 18  1  0
 30 25  1  0
  1 33  1  0
  1 34  1  0
  1 35  1  0
  2 36  1  0
  3 37  1  0
  7 38  1  0
  8 39  1  0
 11 40  1  0
 11 41  1  0
 11 42  1  0
 12 43  1  0
 12 44  1  0
 12 45  1  0
 13 46  1  0
 13 47  1  0
 13 48  1  0
 14 49  1  0
 15 50  1  0
 19 51  1  0
 19 52  1  0
 20 53  1  0
 20 54  1  0
 22 55  1  0
 22 56  1  0
 23 57  1  0
 24 58  1  0
 26 59  1  0
 27 60  1  0
 28 61  1  0
 29 62  1  0
 30 63  1  0
 31 64  1  0
 31 65  1  0
 32 66  1  0
 32 67  1  0
M  END
$$$$
