
     RDKit          3D

 52 55  0  0  0  0  0  0  0  0999 V2000
    7.6099    1.3334    3.9978 N   0  0  0  0  0  0  0  0  0  0  0  0
    6.3644    1.4694    5.1251 S   0  0  0  0  0  6  0  0  0  0  0  0
    6.2554    2.8569    5.5067 O   0  0  0  0  0  0  0  0  0  0  0  0
    6.5972    0.4127    6.0833 O   0  0  0  0  0  0  0  0  0  0  0  0
    4.9518    1.0422    4.1435 C   0  0  0  0  0  0  0  0  0  0  0  0
    4.4219   -0.2483    4.2071 C   0  0  0  0  0  0  0  0  0  0  0  0
    3.3070   -0.5714    3.4317 C   0  0  0  0  0  0  0  0  0  0  0  0
    2.7154    0.3923    2.6018 C   0  0  0  0  0  0  0  0  0  0  0  0
    1.5174    0.0428    1.7529 C   0  0  0  0  0  0  0  0  0  0  0  0
    1.9299   -0.4303    0.3574 C   0  0  0  0  0  0  0  0  0  0  0  0
    0.7849   -0.7601   -0.4695 N   0  0  0  0  0  0  0  0  0  0  0  0
    0.0497    0.2219   -1.0978 C   0  0  0  0  0  0  0  0  0  0  0  0
    0.2977    1.4185   -1.0272 O   0  0  0  0  0  0  0  0  0  0  0  0
   -1.1532   -0.2468   -1.8212 C   0  0  0  0  0  0  0  0  0  0  0  0
   -2.3581    0.3537   -1.4514 C   0  0  0  0  0  0  0  0  0  0  0  0
   -3.5279   -0.0830   -2.0474 C   0  0  0  0  0  0  0  0  0  0  0  0
   -4.8600    0.4710   -1.7208 C   0  0  0  0  0  0  0  0  0  0  0  0
   -5.1680    0.9907   -0.4493 C   0  0  0  0  0  0  0  0  0  0  0  0
   -6.4336    1.5146   -0.1623 C   0  0  0  0  0  0  0  0  0  0  0  0
   -7.4229    1.5278   -1.1405 C   0  0  0  0  0  0  0  0  0  0  0  0
   -7.1501    1.0132   -2.4036 C   0  0  0  0  0  0  0  0  0  0  0  0
   -5.8847    0.4898   -2.6867 C   0  0  0  0  0  0  0  0  0  0  0  0
   -3.5122   -1.0649   -2.9839 N   0  0  0  0  0  0  0  0  0  0  0  0
   -2.3489   -1.6183   -3.3643 C   0  0  0  0  0  0  0  0  0  0  0  0
   -2.3810   -2.6025   -4.3435 C   0  0  0  0  0  0  0  0  0  0  0  0
   -1.2193   -3.2167   -4.8155 C   0  0  0  0  0  0  0  0  0  0  0  0
    0.0130   -2.8362   -4.3060 C   0  0  0  0  0  0  0  0  0  0  0  0
    0.0720   -1.8534   -3.3196 C   0  0  0  0  0  0  0  0  0  0  0  0
   -1.1081   -1.2423   -2.8207 C   0  0  0  0  0  0  0  0  0  0  0  0
    3.2574    1.6855    2.5530 C   0  0  0  0  0  0  0  0  0  0  0  0
    4.3703    2.0153    3.3271 C   0  0  0  0  0  0  0  0  0  0  0  0
    7.2759    1.2081    3.0430 H   0  0  0  0  0  0  0  0  0  0  0  0
    8.2327    0.5772    4.2879 H   0  0  0  0  0  0  0  0  0  0  0  0
    4.8616   -1.0018    4.8573 H   0  0  0  0  0  0  0  0  0  0  0  0
    2.8961   -1.5777    3.4866 H   0  0  0  0  0  0  0  0  0  0  0  0
    0.9257   -0.7357    2.2515 H   0  0  0  0  0  0  0  0  0  0  0  0
    0.8533    0.9134    1.6858 H   0  0  0  0  0  0  0  0  0  0  0  0
    2.5497   -1.3316    0.4203 H   0  0  0  0  0  0  0  0  0  0  0  0
    2.5166    0.3424   -0.1537 H   0  0  0  0  0  0  0  0  0  0  0  0
    0.4288   -1.7084   -0.4513 H   0  0  0  0  0  0  0  0  0  0  0  0
   -2.3607    1.1512   -0.7151 H   0  0  0  0  0  0  0  0  0  0  0  0
   -4.4296    0.9816    0.3488 H   0  0  0  0  0  0  0  0  0  0  0  0
   -6.6453    1.9086    0.8286 H   0  0  0  0  0  0  0  0  0  0  0  0
   -8.4060    1.9340   -0.9181 H   0  0  0  0  0  0  0  0  0  0  0  0
   -7.9183    1.0161   -3.1722 H   0  0  0  0  0  0  0  0  0  0  0  0
   -5.6952    0.0926   -3.6832 H   0  0  0  0  0  0  0  0  0  0  0  0
   -3.3433   -2.8962   -4.7586 H   0  0  0  0  0  0  0  0  0  0  0  0
   -1.2839   -3.9791   -5.5877 H   0  0  0  0  0  0  0  0  0  0  0  0
    0.9255   -3.2935   -4.6800 H   0  0  0  0  0  0  0  0  0  0  0  0
    1.0526   -1.5514   -2.9570 H   0  0  0  0  0  0  0  0  0  0  0  0
    2.8060    2.4455    1.9159 H   0  0  0  0  0  0  0  0  0  0  0  0
    4.7703    3.0271    3.2950 H   0  0  0  0  0  0  0  0  0  0  0  0
  1  2  1  0
  2  3  2  0
  2  4  2  0
  2  5  1  0
  5  6  2  0
  6  7  1  0
  7  8  2  0
  8  9  1  0
  9 10  1  0
 10 11  1  0
 11 12  1  0
 12 13  2  0
 12 14  1  0
 14 15  2  0
 15 16  1  0
 16 17  1  0
 17 18  2  0
 18 19  1  0
 19 20  2  0
 20 21  1  0
 21 22  2  0
 16 23  2  0
 23 24  1  0
 24 25  2  0
 25 26  1  0
 26 27  2  0
 27 28  1  0
 28 29  2  0
  8 30  1  0
 30 31  2  0
 31  5  1  0
 29 14  1  0
 22 17  1  0
 29 24  1  0
  1 32  1  0
  1 33  1  0
  6 34  1  0
  7 35  1  0
  9 36  1  0
  9 37  1  0
 10 38  1  0
 10 39  1  0
 11 40  1  0
 15 41  1  0
 18 42  1  0
 19 43  1  0
 20 44  1  0
 21 45  1  0
 22 46  1  0
 25 47  1  0
 26 48  1  0
 27 49  1  0
 28 50  1  0
 30 51  1  0
 31 52  1  0
M  END
$$$$
