
     RDKit          3D

 54 57  0  0  0  0  0  0  0  0999 V2000
   -3.4014    5.1493    2.0485 C   0  0  0  0  0  0  0  0  0  0  0  0
   -3.1012    5.0912    0.6596 O   0  0  0  0  0  0  0  0  0  0  0  0
   -2.3694    4.0178    0.2327 C   0  0  0  0  0  0  0  0  0  0  0  0
   -1.8380    3.0132    1.0389 C   0  0  0  0  0  0  0  0  0  0  0  0
   -1.1039    1.9669    0.4685 C   0  0  0  0  0  0  0  0  0  0  0  0
   -0.8962    1.9004   -0.9179 C   0  0  0  0  0  0  0  0  0  0  0  0
   -0.0860    0.7869   -1.5664 C   0  0  0  0  0  0  0  0  0  0  0  0
    1.4094    1.1085   -1.5295 C   0  0  0  0  0  0  0  0  0  0  0  0
    1.8826    0.0838   -0.5357 C   0  0  0  0  0  0  0  0  0  0  0  0
    3.2689    0.0851   -0.0124 C   0  0  0  0  0  0  0  0  0  0  0  0
    4.2209    1.0014   -0.4673 C   0  0  0  0  0  0  0  0  0  0  0  0
    5.5177    0.9711    0.0495 C   0  0  0  0  0  0  0  0  0  0  0  0
    5.8704    0.0275    1.0181 C   0  0  0  0  0  0  0  0  0  0  0  0
    4.9273   -0.8924    1.4760 C   0  0  0  0  0  0  0  0  0  0  0  0
    5.1435   -1.8648    2.4133 O   0  0  0  0  0  0  0  0  0  0  0  0
    6.4457   -1.9391    2.9790 C   0  0  0  0  0  0  0  0  0  0  0  0
    3.6291   -0.8584    0.9580 C   0  0  0  0  0  0  0  0  0  0  0  0
    0.9987   -0.8078   -0.2041 N   0  0  0  0  0  0  0  0  0  0  0  0
   -0.1614   -0.4883   -0.8505 N   0  0  0  0  0  0  0  0  0  0  0  0
   -1.2555   -1.3512   -0.8221 C   0  0  0  0  0  0  0  0  0  0  0  0
   -1.1991   -2.5574   -0.0981 C   0  0  0  0  0  0  0  0  0  0  0  0
   -2.2801   -3.4439   -0.0449 C   0  0  0  0  0  0  0  0  0  0  0  0
   -3.4497   -3.1361   -0.7342 C   0  0  0  0  0  0  0  0  0  0  0  0
   -4.8292   -4.2351   -0.6452 S   0  0  0  0  0  6  0  0  0  0  0  0
   -4.4345   -5.3875   -1.8015 N   0  0  0  0  0  0  0  0  0  0  0  0
   -4.8111   -4.9233    0.6243 O   0  0  0  0  0  0  0  0  0  0  0  0
   -6.0087   -3.5700   -1.1477 O   0  0  0  0  0  0  0  0  0  0  0  0
   -3.5487   -1.9467   -1.4532 C   0  0  0  0  0  0  0  0  0  0  0  0
   -2.4567   -1.0699   -1.4952 C   0  0  0  0  0  0  0  0  0  0  0  0
   -1.4269    2.9225   -1.7187 C   0  0  0  0  0  0  0  0  0  0  0  0
   -2.1564    3.9675   -1.1458 C   0  0  0  0  0  0  0  0  0  0  0  0
   -4.0082    6.0428    2.2218 H   0  0  0  0  0  0  0  0  0  0  0  0
   -2.4883    5.2461    2.6443 H   0  0  0  0  0  0  0  0  0  0  0  0
   -3.9897    4.2811    2.3631 H   0  0  0  0  0  0  0  0  0  0  0  0
   -1.9742    3.0080    2.1150 H   0  0  0  0  0  0  0  0  0  0  0  0
   -0.7018    1.1917    1.1200 H   0  0  0  0  0  0  0  0  0  0  0  0
   -0.4040    0.6571   -2.6087 H   0  0  0  0  0  0  0  0  0  0  0  0
    1.8786    0.8998   -2.4968 H   0  0  0  0  0  0  0  0  0  0  0  0
    1.6421    2.1288   -1.2137 H   0  0  0  0  0  0  0  0  0  0  0  0
    3.9822    1.7431   -1.2225 H   0  0  0  0  0  0  0  0  0  0  0  0
    6.2591    1.6839   -0.3037 H   0  0  0  0  0  0  0  0  0  0  0  0
    6.8887    0.0363    1.3926 H   0  0  0  0  0  0  0  0  0  0  0  0
    7.1948   -2.1722    2.2152 H   0  0  0  0  0  0  0  0  0  0  0  0
    6.6983   -1.0171    3.5114 H   0  0  0  0  0  0  0  0  0  0  0  0
    6.4477   -2.7556    3.7067 H   0  0  0  0  0  0  0  0  0  0  0  0
    2.8973   -1.5780    1.3199 H   0  0  0  0  0  0  0  0  0  0  0  0
   -0.2912   -2.8130    0.4452 H   0  0  0  0  0  0  0  0  0  0  0  0
   -2.1956   -4.3595    0.5350 H   0  0  0  0  0  0  0  0  0  0  0  0
   -5.1277   -5.3748   -2.5495 H   0  0  0  0  0  0  0  0  0  0  0  0
   -4.3224   -6.2976   -1.3550 H   0  0  0  0  0  0  0  0  0  0  0  0
   -4.4644   -1.6866   -1.9786 H   0  0  0  0  0  0  0  0  0  0  0  0
   -2.5741   -0.1506   -2.0614 H   0  0  0  0  0  0  0  0  0  0  0  0
   -1.2813    2.9152   -2.7965 H   0  0  0  0  0  0  0  0  0  0  0  0
   -2.5660    4.7502   -1.7796 H   0  0  0  0  0  0  0  0  0  0  0  0
  1  2  1  0
  2  3  1  0
  3  4  2  0
  4  5  1  0
  5  6  2  0
  6  7  1  0
  7  8  1  0
  8  9  1  0
  9 10  1  0
 10 11  2  0
 11 12  1  0
 12 13  2  0
 13 14  1  0
 14 15  1  0
 15 16  1  0
 14 17  2  0
  9 18  2  0
 18 19  1  0
 19 20  1  0
 20 21  2  0
 21 22  1  0
 22 23  2  0
 23 24  1  0
 24 25  1  0
 24 26  2  0
 24 27  2  0
 23 28  1  0
 28 29  2  0
  6 30  1  0
 30 31  2  0
 31  3  1  0
 19  7  1  0
 29 20  1  0
 17 10  1  0
  1 32  1  0
  1 33  1  0
  1 34  1  0
  4 35  1  0
  5 36  1  0
  7 37  1  0
  8 38  1  0
  8 39  1  0
 11 40  1  0
 12 41  1  0
 13 42  1  0
 16 43  1  0
 16 44  1  0
 16 45  1  0
 17 46  1  0
 21 47  1  0
 22 48  1  0
 25 49  1  0
 25 50  1  0
 28 51  1  0
 29 52  1  0
 30 53  1  0
 31 54  1  0
M  END
$$$$
