
     RDKit          3D

 51 54  0  0  0  0  0  0  0  0999 V2000
   -1.0603   -0.8006   -2.6082 O   0  0  0  0  0  0  0  0  0  0  0  0
   -1.1155   -0.3789   -1.4504 C   0  0  0  0  0  0  0  0  0  0  0  0
    0.0628    0.2695   -0.8582 C   0  0  0  0  0  0  0  0  0  0  0  0
    1.4133    0.0581   -1.2449 C   0  0  0  0  0  0  0  0  0  0  0  0
    2.1460    0.9116   -0.4580 C   0  0  0  0  0  0  0  0  0  0  0  0
    3.5865    1.2272   -0.3224 C   0  0  0  0  0  0  0  0  0  0  0  0
    4.2992    0.0074   -0.5247 O   0  0  0  0  0  0  0  0  0  0  0  0
    5.6636    0.0655   -0.4634 C   0  0  0  0  0  0  0  0  0  0  0  0
    6.4295    1.2059   -0.2220 C   0  0  0  0  0  0  0  0  0  0  0  0
    7.8238    1.1189   -0.1835 C   0  0  0  0  0  0  0  0  0  0  0  0
    8.4588   -0.1062   -0.3877 C   0  0  0  0  0  0  0  0  0  0  0  0
    7.7051   -1.2604   -0.6399 C   0  0  0  0  0  0  0  0  0  0  0  0
    8.3788   -2.5946   -0.8377 C   0  0  0  0  0  0  0  0  0  0  0  0
    7.6934   -3.4224   -1.6751 F   0  0  0  0  0  0  0  0  0  0  0  0
    8.5237   -3.2792    0.3302 F   0  0  0  0  0  0  0  0  0  0  0  0
    9.6305   -2.4881   -1.3660 F   0  0  0  0  0  0  0  0  0  0  0  0
    6.3050   -1.1602   -0.6674 C   0  0  0  0  0  0  0  0  0  0  0  0
    1.2966    1.6173    0.3336 O   0  0  0  0  0  0  0  0  0  0  0  0
   -0.0051    1.2363    0.0742 N   0  0  0  0  0  0  0  0  0  0  0  0
   -2.2973   -0.4956   -0.7066 N   0  0  0  0  0  0  0  0  0  0  0  0
   -2.3881   -0.4739    0.7496 C   0  0  0  0  0  0  0  0  0  0  0  0
   -3.4896    0.4803    1.2063 C   0  0  0  0  0  0  0  0  0  0  0  0
   -4.7374    0.4242    0.2958 C   0  0  0  0  0  0  0  0  0  0  0  0
   -6.0164    0.6213    1.0861 C   0  0  0  0  0  0  0  0  0  0  0  0
   -6.5117   -0.3597    1.9521 C   0  0  0  0  0  0  0  0  0  0  0  0
   -7.6847   -0.1085    2.6493 C   0  0  0  0  0  0  0  0  0  0  0  0
   -8.3889    1.0376    2.5490 N   0  0  0  0  0  0  0  0  0  0  0  0
   -7.8948    1.9762    1.7151 C   0  0  0  0  0  0  0  0  0  0  0  0
   -6.7315    1.8186    0.9758 C   0  0  0  0  0  0  0  0  0  0  0  0
   -4.7583   -0.8540   -0.5597 C   0  0  0  0  0  0  0  0  0  0  0  0
   -3.4914   -0.9484   -1.4125 C   0  0  0  0  0  0  0  0  0  0  0  0
    1.7855   -0.6258   -1.9939 H   0  0  0  0  0  0  0  0  0  0  0  0
    3.7897    1.6212    0.6803 H   0  0  0  0  0  0  0  0  0  0  0  0
    3.8626    1.9649   -1.0847 H   0  0  0  0  0  0  0  0  0  0  0  0
    5.9792    2.1793   -0.0565 H   0  0  0  0  0  0  0  0  0  0  0  0
    8.4170    2.0107    0.0085 H   0  0  0  0  0  0  0  0  0  0  0  0
    9.5463   -0.1575   -0.3505 H   0  0  0  0  0  0  0  0  0  0  0  0
    5.7019   -2.0493   -0.8514 H   0  0  0  0  0  0  0  0  0  0  0  0
   -1.4433   -0.2408    1.2403 H   0  0  0  0  0  0  0  0  0  0  0  0
   -2.6275   -1.4979    1.0653 H   0  0  0  0  0  0  0  0  0  0  0  0
   -3.1059    1.5091    1.1985 H   0  0  0  0  0  0  0  0  0  0  0  0
   -3.7297    0.2582    2.2531 H   0  0  0  0  0  0  0  0  0  0  0  0
   -4.6529    1.2621   -0.4125 H   0  0  0  0  0  0  0  0  0  0  0  0
   -5.9996   -1.3050    2.0949 H   0  0  0  0  0  0  0  0  0  0  0  0
   -8.0989   -0.8472    3.3297 H   0  0  0  0  0  0  0  0  0  0  0  0
   -8.4759    2.8919    1.6531 H   0  0  0  0  0  0  0  0  0  0  0  0
   -6.3960    2.6221    0.3280 H   0  0  0  0  0  0  0  0  0  0  0  0
   -4.8227   -1.7415    0.0827 H   0  0  0  0  0  0  0  0  0  0  0  0
   -5.6415   -0.8807   -1.2094 H   0  0  0  0  0  0  0  0  0  0  0  0
   -3.3329   -1.9835   -1.7375 H   0  0  0  0  0  0  0  0  0  0  0  0
   -3.6011   -0.3356   -2.3156 H   0  0  0  0  0  0  0  0  0  0  0  0
  1  2  2  0
  2  3  1  0
  3  4  1  0
  4  5  2  0
  5  6  1  0
  6  7  1  0
  7  8  1  0
  8  9  2  0
  9 10  1  0
 10 11  2  0
 11 12  1  0
 12 13  1  0
 13 14  1  0
 13 15  1  0
 13 16  1  0
 12 17  2  0
  5 18  1  0
 18 19  1  0
  2 20  1  0
 20 21  1  0
 21 22  1  0
 22 23  1  0
 23 24  1  0
 24 25  2  0
 25 26  1  0
 26 27  2  0
 27 28  1  0
 28 29  2  0
 23 30  1  0
 30 31  1  0
 19  3  2  0
 31 20  1  0
 17  8  1  0
 29 24  1  0
  4 32  1  0
  6 33  1  0
  6 34  1  0
  9 35  1  0
 10 36  1  0
 11 37  1  0
 17 38  1  0
 21 39  1  0
 21 40  1  0
 22 41  1  0
 22 42  1  0
 23 43  1  0
 25 44  1  0
 26 45  1  0
 28 46  1  0
 29 47  1  0
 30 48  1  0
 30 49  1  0
 31 50  1  0
 31 51  1  0
M  END
$$$$
