
     RDKit          3D

 45 47  0  0  0  0  0  0  0  0999 V2000
   -0.6314   -2.8002    1.9967 C   0  0  0  0  0  0  0  0  0  0  0  0
    0.0254   -1.9452    0.9764 C   0  0  0  0  0  0  0  0  0  0  0  0
    1.3056   -1.6266    0.9919 N   0  0  0  0  0  0  0  0  0  0  0  0
    1.4055   -0.6088    0.0649 C   0  0  0  0  0  0  0  0  0  0  0  0
    2.6905    0.0728   -0.2136 C   0  0  0  0  0  0  0  0  0  0  0  0
    2.7956    0.9974   -1.0128 O   0  0  0  0  0  0  0  0  0  0  0  0
    3.7184   -0.4693    0.5394 N   0  0  0  0  0  0  0  0  0  0  0  0
    5.0821   -0.1103    0.5686 C   0  0  0  0  0  0  0  0  0  0  0  0
    5.6206    0.9110   -0.2194 C   0  0  0  0  0  0  0  0  0  0  0  0
    6.9839    1.2209   -0.1461 C   0  0  0  0  0  0  0  0  0  0  0  0
    7.8169    0.5115    0.7153 C   0  0  0  0  0  0  0  0  0  0  0  0
    9.4903    0.8996    0.7986 Cl  0  0  0  0  0  0  0  0  0  0  0  0
    7.3036   -0.5086    1.5084 C   0  0  0  0  0  0  0  0  0  0  0  0
    5.9431   -0.8155    1.4332 C   0  0  0  0  0  0  0  0  0  0  0  0
    5.3444   -2.0927    2.4392 Cl  0  0  0  0  0  0  0  0  0  0  0  0
    0.2369   -0.2868   -0.5055 N   0  0  0  0  0  0  0  0  0  0  0  0
   -0.6126   -1.2298   -0.0285 N   0  0  0  0  0  0  0  0  0  0  0  0
   -1.9488   -1.2663   -0.5037 C   0  0  0  0  0  0  0  0  0  0  0  0
   -2.5456   -0.0342   -0.8421 C   0  0  0  0  0  0  0  0  0  0  0  0
   -3.8779    0.0226   -1.2612 C   0  0  0  0  0  0  0  0  0  0  0  0
   -4.4648    1.2074   -1.6149 O   0  0  0  0  0  0  0  0  0  0  0  0
   -4.4170    2.2308   -0.6089 C   0  0  0  0  0  0  0  0  0  0  0  0
   -3.6917    3.4382   -1.1914 C   0  0  0  0  0  0  0  0  0  0  0  0
   -5.8558    2.5896   -0.2511 C   0  0  0  0  0  0  0  0  0  0  0  0
   -4.6030   -1.1615   -1.4101 C   0  0  0  0  0  0  0  0  0  0  0  0
   -6.2424   -1.1519   -1.9503 Cl  0  0  0  0  0  0  0  0  0  0  0  0
   -4.0035   -2.3903   -1.1303 C   0  0  0  0  0  0  0  0  0  0  0  0
   -2.6746   -2.4501   -0.6906 C   0  0  0  0  0  0  0  0  0  0  0  0
   -1.9828   -4.0313   -0.6053 Cl  0  0  0  0  0  0  0  0  0  0  0  0
   -0.2207   -2.5667    2.9853 H   0  0  0  0  0  0  0  0  0  0  0  0
   -1.7105   -2.6365    2.0555 H   0  0  0  0  0  0  0  0  0  0  0  0
   -0.4299   -3.8574    1.8046 H   0  0  0  0  0  0  0  0  0  0  0  0
    3.4363   -1.2326    1.1551 H   0  0  0  0  0  0  0  0  0  0  0  0
    5.0093    1.4899   -0.9057 H   0  0  0  0  0  0  0  0  0  0  0  0
    7.3841    2.0189   -0.7676 H   0  0  0  0  0  0  0  0  0  0  0  0
    7.9557   -1.0606    2.1795 H   0  0  0  0  0  0  0  0  0  0  0  0
   -1.9713    0.8886   -0.7719 H   0  0  0  0  0  0  0  0  0  0  0  0
   -3.9076    1.9020    0.3060 H   0  0  0  0  0  0  0  0  0  0  0  0
   -2.6656    3.1751   -1.4685 H   0  0  0  0  0  0  0  0  0  0  0  0
   -3.6564    4.2639   -0.4742 H   0  0  0  0  0  0  0  0  0  0  0  0
   -4.1830    3.7883   -2.1060 H   0  0  0  0  0  0  0  0  0  0  0  0
   -6.4160    2.9050   -1.1384 H   0  0  0  0  0  0  0  0  0  0  0  0
   -5.8926    3.3921    0.4919 H   0  0  0  0  0  0  0  0  0  0  0  0
   -6.3763    1.7155    0.1551 H   0  0  0  0  0  0  0  0  0  0  0  0
   -4.5664   -3.3076   -1.2916 H   0  0  0  0  0  0  0  0  0  0  0  0
  1  2  1  0
  2  3  2  0
  3  4  1  0
  4  5  1  0
  5  6  2  0
  5  7  1  0
  7  8  1  0
  8  9  2  0
  9 10  1  0
 10 11  2  0
 11 12  1  0
 11 13  1  0
 13 14  2  0
 14 15  1  0
  4 16  2  0
 16 17  1  0
 17 18  1  0
 18 19  2  0
 19 20  1  0
 20 21  1  0
 21 22  1  0
 22 23  1  0
 22 24  1  0
 20 25  2  0
 25 26  1  0
 25 27  1  0
 27 28  2  0
 28 29  1  0
 17  2  1  0
 28 18  1  0
 14  8  1  0
  1 30  1  0
  1 31  1  0
  1 32  1  0
  7 33  1  0
  9 34  1  0
 10 35  1  0
 13 36  1  0
 19 37  1  0
 22 38  1  0
 23 39  1  0
 23 40  1  0
 23 41  1  0
 24 42  1  0
 24 43  1  0
 24 44  1  0
 27 45  1  0
M  END
$$$$
