
     RDKit          3D

 41 42  0  0  0  0  0  0  0  0999 V2000
    2.1592    0.5159   -2.2689 C   0  0  0  0  0  0  0  0  0  0  0  0
    2.5478    0.3927   -0.8077 C   0  0  0  0  0  0  0  0  0  0  0  0
    1.7642    0.6785    0.1943 N   0  0  0  0  0  0  0  0  0  0  0  0
    0.4530    0.9839   -0.0621 N   0  0  0  0  0  0  0  0  0  0  0  0
   -0.4263   -0.0054   -0.5091 C   0  0  0  0  0  0  0  0  0  0  0  0
   -0.0840   -1.0886   -0.9837 O   0  0  0  0  0  0  0  0  0  0  0  0
   -1.8919    0.4067   -0.4705 C   0  0  0  0  0  0  0  0  0  0  0  0
   -2.2922    1.4202    0.9954 S   0  0  0  0  0  0  0  0  0  0  0  0
   -4.0483    1.7713    0.6472 C   0  0  0  0  0  0  0  0  0  0  0  0
   -4.9361    0.5536    0.7342 C   0  0  0  0  0  0  0  0  0  0  0  0
   -5.1541   -0.0230    2.0021 C   0  0  0  0  0  0  0  0  0  0  0  0
   -5.9627   -1.1500    2.1571 C   0  0  0  0  0  0  0  0  0  0  0  0
   -6.5740   -1.7231    1.0478 C   0  0  0  0  0  0  0  0  0  0  0  0
   -6.3771   -1.1679   -0.2152 C   0  0  0  0  0  0  0  0  0  0  0  0
   -5.5660   -0.0371   -0.3746 C   0  0  0  0  0  0  0  0  0  0  0  0
   -5.3749    0.6290   -2.1443 Br  0  0  0  0  0  0  0  0  0  0  0  0
    3.9417   -0.0587   -0.4996 C   0  0  0  0  0  0  0  0  0  0  0  0
    4.6568   -0.8652   -1.3958 C   0  0  0  0  0  0  0  0  0  0  0  0
    5.9527   -1.2890   -1.0875 C   0  0  0  0  0  0  0  0  0  0  0  0
    6.5426   -0.9152    0.1200 C   0  0  0  0  0  0  0  0  0  0  0  0
    5.8246   -0.1171    1.0207 C   0  0  0  0  0  0  0  0  0  0  0  0
    6.4433    0.2757    2.2926 N   0  0  0  0  0  4  0  0  0  0  0  0
    5.8323    1.0810    3.0087 O   0  0  0  0  0  0  0  0  0  0  0  0
    7.5460   -0.2165    2.5719 O   0  0  0  0  0  1  0  0  0  0  0  0
    4.5257    0.3113    0.7194 C   0  0  0  0  0  0  0  0  0  0  0  0
    1.7967   -0.4458   -2.6404 H   0  0  0  0  0  0  0  0  0  0  0  0
    3.0194    0.8271   -2.8694 H   0  0  0  0  0  0  0  0  0  0  0  0
    1.3861    1.2758   -2.4091 H   0  0  0  0  0  0  0  0  0  0  0  0
    0.0357    1.5686    0.6637 H   0  0  0  0  0  0  0  0  0  0  0  0
   -2.1066    0.9706   -1.3828 H   0  0  0  0  0  0  0  0  0  0  0  0
   -2.4926   -0.5068   -0.4467 H   0  0  0  0  0  0  0  0  0  0  0  0
   -4.3906    2.4979    1.3942 H   0  0  0  0  0  0  0  0  0  0  0  0
   -4.1178    2.2929   -0.3099 H   0  0  0  0  0  0  0  0  0  0  0  0
   -4.6835    0.4069    2.8859 H   0  0  0  0  0  0  0  0  0  0  0  0
   -6.1118   -1.5800    3.1447 H   0  0  0  0  0  0  0  0  0  0  0  0
   -7.2030   -2.6020    1.1649 H   0  0  0  0  0  0  0  0  0  0  0  0
   -6.8624   -1.6270   -1.0736 H   0  0  0  0  0  0  0  0  0  0  0  0
    4.2120   -1.1941   -2.3322 H   0  0  0  0  0  0  0  0  0  0  0  0
    6.4985   -1.9189   -1.7871 H   0  0  0  0  0  0  0  0  0  0  0  0
    7.5517   -1.2555    0.3454 H   0  0  0  0  0  0  0  0  0  0  0  0
    3.9659    0.9273    1.4211 H   0  0  0  0  0  0  0  0  0  0  0  0
  1  2  1  0
  2  3  2  3
  3  4  1  0
  4  5  1  0
  5  6  2  0
  5  7  1  0
  7  8  1  0
  8  9  1  0
  9 10  1  0
 10 11  2  0
 11 12  1  0
 12 13  2  0
 13 14  1  0
 14 15  2  0
 15 16  1  0
  2 17  1  0
 17 18  2  0
 18 19  1  0
 19 20  2  0
 20 21  1  0
 21 22  1  0
 22 23  2  0
 22 24  1  0
 21 25  2  0
 15 10  1  0
 25 17  1  0
  1 26  1  0
  1 27  1  0
  1 28  1  0
  4 29  1  0
  7 30  1  0
  7 31  1  0
  9 32  1  0
  9 33  1  0
 11 34  1  0
 12 35  1  0
 13 36  1  0
 14 37  1  0
 18 38  1  0
 19 39  1  0
 20 40  1  0
 25 41  1  0
M  CHG  2  22   1  24  -1
M  END
$$$$
