
     RDKit          3D

 36 38  0  0  0  0  0  0  0  0999 V2000
   -2.5552    0.7302   -0.1725 C   0  0  0  0  0  0  0  0  0  0  0  0
   -2.0246   -0.5153    0.5109 C   0  0  0  0  0  0  0  0  0  0  0  0
   -0.7781   -0.8923    0.4411 N   0  0  0  0  0  0  0  0  0  0  0  0
    0.0892   -0.1155   -0.2630 N   0  0  0  0  0  0  0  0  0  0  0  0
    1.4378   -0.5320   -0.3257 C   0  0  0  0  0  0  0  0  0  0  0  0
    1.7713   -1.7890    0.0730 N   0  0  0  0  0  0  0  0  0  0  0  0
    3.0503   -2.1726    0.0451 C   0  0  0  0  0  0  0  0  0  0  0  0
    4.1000   -1.4531   -0.3437 N   0  0  0  0  0  0  0  0  0  0  0  0
    3.7509   -0.2251   -0.7579 C   0  0  0  0  0  0  0  0  0  0  0  0
    4.9501    0.8458   -1.3029 S   0  0  0  0  0  0  0  0  0  0  0  0
    3.8084    2.0668   -1.6437 C   0  0  0  0  0  0  0  0  0  0  0  0
    4.2812    3.3700   -2.2042 C   0  0  0  0  0  0  0  0  0  0  0  0
    2.5088    1.6673   -1.3556 C   0  0  0  0  0  0  0  0  0  0  0  0
    1.3058    2.5244   -1.6005 C   0  0  0  0  0  0  0  0  0  0  0  0
    2.4737    0.3163   -0.7992 C   0  0  0  0  0  0  0  0  0  0  0  0
   -2.9854   -1.3403    1.3098 C   0  0  0  0  0  0  0  0  0  0  0  0
   -2.5861   -2.5683    1.8291 C   0  0  0  0  0  0  0  0  0  0  0  0
   -3.5022   -3.3036    2.5760 C   0  0  0  0  0  0  0  0  0  0  0  0
   -4.7783   -2.7922    2.7818 C   0  0  0  0  0  0  0  0  0  0  0  0
   -5.0885   -1.5595    2.2304 C   0  0  0  0  0  0  0  0  0  0  0  0
   -4.2240   -0.8203    1.5013 N   0  0  0  0  0  0  0  0  0  0  0  0
   -2.2009    0.7642   -1.2074 H   0  0  0  0  0  0  0  0  0  0  0  0
   -2.1917    1.6134    0.3610 H   0  0  0  0  0  0  0  0  0  0  0  0
   -3.6458    0.7651   -0.2051 H   0  0  0  0  0  0  0  0  0  0  0  0
    0.0026    0.8903   -0.1827 H   0  0  0  0  0  0  0  0  0  0  0  0
    3.2539   -3.1841    0.3809 H   0  0  0  0  0  0  0  0  0  0  0  0
    3.8822    4.2031   -1.6161 H   0  0  0  0  0  0  0  0  0  0  0  0
    5.3727    3.4570   -2.1999 H   0  0  0  0  0  0  0  0  0  0  0  0
    3.9385    3.4812   -3.2382 H   0  0  0  0  0  0  0  0  0  0  0  0
    1.5445    3.4030   -2.2076 H   0  0  0  0  0  0  0  0  0  0  0  0
    0.8931    2.8783   -0.6505 H   0  0  0  0  0  0  0  0  0  0  0  0
    0.5355    1.9639   -2.1396 H   0  0  0  0  0  0  0  0  0  0  0  0
   -1.5834   -2.9487    1.6571 H   0  0  0  0  0  0  0  0  0  0  0  0
   -3.2193   -4.2662    2.9929 H   0  0  0  0  0  0  0  0  0  0  0  0
   -5.5139   -3.3414    3.3592 H   0  0  0  0  0  0  0  0  0  0  0  0
   -6.0732   -1.1204    2.3662 H   0  0  0  0  0  0  0  0  0  0  0  0
  1  2  1  0
  2  3  2  3
  3  4  1  0
  4  5  1  0
  5  6  2  0
  6  7  1  0
  7  8  2  0
  8  9  1  0
  9 10  1  0
 10 11  1  0
 11 12  1  0
 11 13  2  0
 13 14  1  0
 13 15  1  0
  2 16  1  0
 16 17  2  0
 17 18  1  0
 18 19  2  0
 19 20  1  0
 20 21  2  0
 15  5  1  0
 21 16  1  0
 15  9  2  0
  1 22  1  0
  1 23  1  0
  1 24  1  0
  4 25  1  0
  7 26  1  0
 12 27  1  0
 12 28  1  0
 12 29  1  0
 14 30  1  0
 14 31  1  0
 14 32  1  0
 17 33  1  0
 18 34  1  0
 19 35  1  0
 20 36  1  0
M  END
$$$$
