
     RDKit          3D

 57 60  0  0  0  0  0  0  0  0999 V2000
    6.5241    0.9895   -2.3781 C   0  0  0  0  0  0  0  0  0  0  0  0
    5.2734    0.8944   -1.7090 O   0  0  0  0  0  0  0  0  0  0  0  0
    5.1146   -0.1250   -0.8056 C   0  0  0  0  0  0  0  0  0  0  0  0
    6.1329   -0.9951   -0.4047 C   0  0  0  0  0  0  0  0  0  0  0  0
    5.8712   -2.0141    0.5135 C   0  0  0  0  0  0  0  0  0  0  0  0
    4.5861   -2.1814    1.0273 C   0  0  0  0  0  0  0  0  0  0  0  0
    3.5459   -1.3279    0.6335 C   0  0  0  0  0  0  0  0  0  0  0  0
    2.1961   -1.5931    1.2122 C   0  0  0  0  0  0  0  0  0  0  0  0
    2.0879   -2.2169    2.2632 O   0  0  0  0  0  0  0  0  0  0  0  0
    1.1130   -1.1259    0.5066 N   0  0  0  0  0  0  0  0  0  0  0  0
   -0.2305   -1.1933    1.0381 C   0  0  0  0  0  0  0  0  0  0  0  0
   -0.4638   -0.0664    2.0727 C   0  0  0  0  0  0  0  0  0  0  0  0
   -1.9663    0.2310    2.3519 C   0  0  0  0  0  0  0  0  0  0  0  0
   -2.6527   -0.9953    2.9874 C   0  0  0  0  0  0  0  0  0  0  0  0
   -2.0626    1.3997    3.3512 C   0  0  0  0  0  0  0  0  0  0  0  0
   -2.6949    0.6400    1.0324 C   0  0  0  0  0  0  0  0  0  0  0  0
   -2.2953   -0.2393   -0.1067 C   0  0  0  0  0  0  0  0  0  0  0  0
   -1.1907   -1.0733   -0.0949 C   0  0  0  0  0  0  0  0  0  0  0  0
   -1.2734   -1.7886   -1.2937 C   0  0  0  0  0  0  0  0  0  0  0  0
   -2.3224   -1.4266   -2.0277 N   0  0  0  0  0  0  0  0  0  0  0  0
   -2.9316   -0.4247   -1.3279 N   0  0  0  0  0  0  0  0  0  0  0  0
   -4.0541    0.2379   -1.9152 C   0  0  0  0  0  0  0  0  0  0  0  0
   -4.6294   -0.3080   -3.0807 C   0  0  0  0  0  0  0  0  0  0  0  0
   -5.7287    0.2998   -3.6961 C   0  0  0  0  0  0  0  0  0  0  0  0
   -6.2621    1.4665   -3.1606 C   0  0  0  0  0  0  0  0  0  0  0  0
   -5.6860    2.0151   -2.0224 C   0  0  0  0  0  0  0  0  0  0  0  0
   -6.1874    3.1498   -1.5158 F   0  0  0  0  0  0  0  0  0  0  0  0
   -4.5906    1.4195   -1.3977 C   0  0  0  0  0  0  0  0  0  0  0  0
    3.8250   -0.2773   -0.2577 C   0  0  0  0  0  0  0  0  0  0  0  0
    2.8179    0.5821   -0.6417 O   0  0  0  0  0  0  0  0  0  0  0  0
    2.9183    1.8142    0.0789 C   0  0  0  0  0  0  0  0  0  0  0  0
    6.4548    1.8084   -3.1007 H   0  0  0  0  0  0  0  0  0  0  0  0
    6.7480    0.0731   -2.9342 H   0  0  0  0  0  0  0  0  0  0  0  0
    7.3274    1.2338   -1.6753 H   0  0  0  0  0  0  0  0  0  0  0  0
    7.1450   -0.9073   -0.7865 H   0  0  0  0  0  0  0  0  0  0  0  0
    6.6688   -2.6857    0.8235 H   0  0  0  0  0  0  0  0  0  0  0  0
    4.3937   -2.9888    1.7323 H   0  0  0  0  0  0  0  0  0  0  0  0
    1.2903   -0.5144   -0.2854 H   0  0  0  0  0  0  0  0  0  0  0  0
   -0.3671   -2.1669    1.5246 H   0  0  0  0  0  0  0  0  0  0  0  0
    0.0552   -0.3193    3.0066 H   0  0  0  0  0  0  0  0  0  0  0  0
    0.0105    0.8580    1.7104 H   0  0  0  0  0  0  0  0  0  0  0  0
   -2.1338   -1.3038    3.9020 H   0  0  0  0  0  0  0  0  0  0  0  0
   -3.6904   -0.7673    3.2569 H   0  0  0  0  0  0  0  0  0  0  0  0
   -2.6756   -1.8571    2.3134 H   0  0  0  0  0  0  0  0  0  0  0  0
   -1.5727    2.2983    2.9598 H   0  0  0  0  0  0  0  0  0  0  0  0
   -3.1074    1.6550    3.5609 H   0  0  0  0  0  0  0  0  0  0  0  0
   -1.5815    1.1472    4.3028 H   0  0  0  0  0  0  0  0  0  0  0  0
   -2.4201    1.6714    0.7778 H   0  0  0  0  0  0  0  0  0  0  0  0
   -3.7777    0.6008    1.1958 H   0  0  0  0  0  0  0  0  0  0  0  0
   -0.6193   -2.5705   -1.6593 H   0  0  0  0  0  0  0  0  0  0  0  0
   -4.2333   -1.2227   -3.5219 H   0  0  0  0  0  0  0  0  0  0  0  0
   -6.1613   -0.1409   -4.5908 H   0  0  0  0  0  0  0  0  0  0  0  0
   -7.1131    1.9546   -3.6243 H   0  0  0  0  0  0  0  0  0  0  0  0
   -4.1832    1.9372   -0.5422 H   0  0  0  0  0  0  0  0  0  0  0  0
    2.0159    2.3956   -0.1330 H   0  0  0  0  0  0  0  0  0  0  0  0
    3.7816    2.4015   -0.2484 H   0  0  0  0  0  0  0  0  0  0  0  0
    2.9616    1.6425    1.1605 H   0  0  0  0  0  0  0  0  0  0  0  0
  1  2  1  0
  2  3  1  0
  3  4  2  0
  4  5  1  0
  5  6  2  0
  6  7  1  0
  7  8  1  0
  8  9  2  0
  8 10  1  0
 10 11  1  0
 11 12  1  0
 12 13  1  0
 13 14  1  0
 13 15  1  0
 13 16  1  0
 16 17  1  0
 17 18  2  0
 18 19  1  0
 19 20  2  0
 20 21  1  0
 21 22  1  0
 22 23  2  0
 23 24  1  0
 24 25  2  0
 25 26  1  0
 26 27  1  0
 26 28  2  0
  7 29  2  0
 29 30  1  0
 30 31  1  0
 29  3  1  0
 18 11  1  0
 28 22  1  0
 21 17  1  0
  1 32  1  0
  1 33  1  0
  1 34  1  0
  4 35  1  0
  5 36  1  0
  6 37  1  0
 10 38  1  0
 11 39  1  0
 12 40  1  0
 12 41  1  0
 14 42  1  0
 14 43  1  0
 14 44  1  0
 15 45  1  0
 15 46  1  0
 15 47  1  0
 16 48  1  0
 16 49  1  0
 19 50  1  0
 23 51  1  0
 24 52  1  0
 25 53  1  0
 28 54  1  0
 31 55  1  0
 31 56  1  0
 31 57  1  0
M  END
$$$$
