
     RDKit          3D

 47 49  0  0  0  0  0  0  0  0999 V2000
    6.2337    0.9540    1.5498 C   0  0  0  0  0  0  0  0  0  0  0  0
    6.1990    0.2172    0.2129 C   0  0  0  0  0  0  0  0  0  0  0  0
    7.1888    0.8316   -0.7708 C   0  0  0  0  0  0  0  0  0  0  0  0
    4.8599    0.2387   -0.3471 N   0  0  0  0  0  0  0  0  0  0  0  0
    3.8784   -0.6424    0.0532 C   0  0  0  0  0  0  0  0  0  0  0  0
    4.0254   -1.5984    0.8000 O   0  0  0  0  0  0  0  0  0  0  0  0
    2.4874   -0.3189   -0.5250 C   0  0  0  0  0  0  0  0  0  0  0  0
    2.3043    0.6969   -1.1863 O   0  0  0  0  0  0  0  0  0  0  0  0
    1.5253   -1.2544   -0.2098 N   0  0  0  0  0  0  0  0  0  0  0  0
    0.1798   -0.9213   -0.4364 N   0  0  0  0  0  0  0  0  0  0  0  0
   -0.7238   -1.2175    0.5674 C   0  0  0  0  0  0  0  0  0  0  0  0
   -0.4067   -1.9066    1.5365 O   0  0  0  0  0  0  0  0  0  0  0  0
   -2.1272   -0.6229    0.3793 C   0  0  0  0  0  0  0  0  0  0  0  0
   -2.7453   -1.0814   -0.9637 C   0  0  0  0  0  0  0  0  0  0  0  0
   -4.1566   -0.4928   -1.1368 C   0  0  0  0  0  0  0  0  0  0  0  0
   -4.0706    1.0429   -1.1083 C   0  0  0  0  0  0  0  0  0  0  0  0
   -3.4842    1.5152    0.2331 C   0  0  0  0  0  0  0  0  0  0  0  0
   -4.3839    1.0259    1.3791 C   0  0  0  0  0  0  0  0  0  0  0  0
   -4.4695   -0.5085    1.3615 C   0  0  0  0  0  0  0  0  0  0  0  0
   -5.0523   -0.9712    0.0168 C   0  0  0  0  0  0  0  0  0  0  0  0
   -3.0576   -1.0934    1.5274 C   0  0  0  0  0  0  0  0  0  0  0  0
   -2.0735    0.9239    0.4043 C   0  0  0  0  0  0  0  0  0  0  0  0
    5.9349    2.0017    1.4324 H   0  0  0  0  0  0  0  0  0  0  0  0
    7.2392    0.9312    1.9825 H   0  0  0  0  0  0  0  0  0  0  0  0
    5.5470    0.4950    2.2692 H   0  0  0  0  0  0  0  0  0  0  0  0
    6.4762   -0.8295    0.3865 H   0  0  0  0  0  0  0  0  0  0  0  0
    7.1736    0.2912   -1.7237 H   0  0  0  0  0  0  0  0  0  0  0  0
    8.2091    0.7929   -0.3756 H   0  0  0  0  0  0  0  0  0  0  0  0
    6.9430    1.8784   -0.9820 H   0  0  0  0  0  0  0  0  0  0  0  0
    4.5405    1.0537   -0.8655 H   0  0  0  0  0  0  0  0  0  0  0  0
    1.7175   -1.9272    0.5382 H   0  0  0  0  0  0  0  0  0  0  0  0
    0.0205   -0.1542   -1.0870 H   0  0  0  0  0  0  0  0  0  0  0  0
   -2.1200   -0.7685   -1.8093 H   0  0  0  0  0  0  0  0  0  0  0  0
   -2.7886   -2.1777   -1.0042 H   0  0  0  0  0  0  0  0  0  0  0  0
   -4.5787   -0.8216   -2.0930 H   0  0  0  0  0  0  0  0  0  0  0  0
   -3.4456    1.3987   -1.9366 H   0  0  0  0  0  0  0  0  0  0  0  0
   -5.0680    1.4760   -1.2536 H   0  0  0  0  0  0  0  0  0  0  0  0
   -3.4297    2.6095    0.2479 H   0  0  0  0  0  0  0  0  0  0  0  0
   -5.3871    1.4582    1.2787 H   0  0  0  0  0  0  0  0  0  0  0  0
   -3.9845    1.3684    2.3416 H   0  0  0  0  0  0  0  0  0  0  0  0
   -5.1110   -0.8524    2.1805 H   0  0  0  0  0  0  0  0  0  0  0  0
   -5.1335   -2.0650   -0.0004 H   0  0  0  0  0  0  0  0  0  0  0  0
   -6.0675   -0.5747   -0.1077 H   0  0  0  0  0  0  0  0  0  0  0  0
   -2.6462   -0.7897    2.4992 H   0  0  0  0  0  0  0  0  0  0  0  0
   -3.1128   -2.1900    1.5456 H   0  0  0  0  0  0  0  0  0  0  0  0
   -1.4256    1.3083   -0.3930 H   0  0  0  0  0  0  0  0  0  0  0  0
   -1.6337    1.2705    1.3486 H   0  0  0  0  0  0  0  0  0  0  0  0
  1  2  1  0
  2  3  1  0
  2  4  1  0
  4  5  1  0
  5  6  2  0
  5  7  1  0
  7  8  2  0
  7  9  1  0
  9 10  1  0
 10 11  1  0
 11 12  2  0
 11 13  1  0
 13 14  1  0
 14 15  1  0
 15 16  1  0
 16 17  1  0
 17 18  1  0
 18 19  1  0
 19 20  1  0
 19 21  1  0
 17 22  1  0
 21 13  1  0
 22 13  1  0
 20 15  1  0
  1 23  1  0
  1 24  1  0
  1 25  1  0
  2 26  1  0
  3 27  1  0
  3 28  1  0
  3 29  1  0
  4 30  1  0
  9 31  1  0
 10 32  1  0
 14 33  1  0
 14 34  1  0
 15 35  1  0
 16 36  1  0
 16 37  1  0
 17 38  1  0
 18 39  1  0
 18 40  1  0
 19 41  1  0
 20 42  1  0
 20 43  1  0
 21 44  1  0
 21 45  1  0
 22 46  1  0
 22 47  1  0
M  END
$$$$
