
     RDKit          3D

 58 61  0  0  0  0  0  0  0  0999 V2000
    6.0668    1.5412   -5.3740 C   0  0  0  0  0  0  0  0  0  0  0  0
    5.1617    0.4648   -5.5887 O   0  0  0  0  0  0  0  0  0  0  0  0
    4.4550    0.0371   -4.4992 C   0  0  0  0  0  0  0  0  0  0  0  0
    4.3423    0.7091   -3.2822 C   0  0  0  0  0  0  0  0  0  0  0  0
    3.5796    0.1608   -2.2453 C   0  0  0  0  0  0  0  0  0  0  0  0
    2.9274   -1.0679   -2.4071 C   0  0  0  0  0  0  0  0  0  0  0  0
    2.0958   -1.6406   -1.2902 C   0  0  0  0  0  0  0  0  0  0  0  0
    0.7126   -1.2425   -1.4231 N   0  0  0  0  0  0  0  0  0  0  0  0
    0.1997   -0.1384   -0.7628 C   0  0  0  0  0  0  0  0  0  0  0  0
    0.9139    0.5400   -0.0201 O   0  0  0  0  0  0  0  0  0  0  0  0
   -1.2517    0.2372   -1.0768 C   0  0  0  0  0  0  0  0  0  0  0  0
   -2.0681   -0.9281   -1.4497 C   0  0  0  0  0  0  0  0  0  0  0  0
   -2.6695   -1.8629   -1.7909 N   0  0  0  0  0  0  0  0  0  0  0  0
   -1.9100    1.0257    0.0314 C   0  0  0  0  0  0  0  0  0  0  0  0
   -2.3828    2.2628   -0.3004 N   0  0  0  0  0  0  0  0  0  0  0  0
   -2.9911    2.9638    0.6722 C   0  0  0  0  0  0  0  0  0  0  0  0
   -3.4887    4.2321    0.3969 C   0  0  0  0  0  0  0  0  0  0  0  0
   -4.1309    4.9887    1.3780 C   0  0  0  0  0  0  0  0  0  0  0  0
   -4.2780    4.4675    2.6567 C   0  0  0  0  0  0  0  0  0  0  0  0
   -3.7801    3.1948    2.9427 C   0  0  0  0  0  0  0  0  0  0  0  0
   -3.1393    2.4329    1.9732 C   0  0  0  0  0  0  0  0  0  0  0  0
   -2.6793    1.2083    2.2901 N   0  0  0  0  0  0  0  0  0  0  0  0
   -2.0672    0.4930    1.3208 C   0  0  0  0  0  0  0  0  0  0  0  0
   -1.5834   -0.7982    1.6191 N   0  0  0  0  0  0  0  0  0  0  0  0
   -2.6836   -1.6667    2.1149 C   0  0  0  0  0  0  0  0  0  0  0  0
   -2.0934   -2.9284    2.7812 C   0  0  0  0  0  0  0  0  0  0  0  0
   -1.3030   -2.6335    4.0005 N   0  0  0  0  0  0  0  0  0  0  0  0
   -0.2386   -3.6181    4.1719 C   0  0  0  0  0  0  0  0  0  0  0  0
   -0.7754   -1.2501    3.9749 C   0  0  0  0  0  0  0  0  0  0  0  0
   -0.4370   -0.7081    2.5678 C   0  0  0  0  0  0  0  0  0  0  0  0
    3.0288   -1.7289   -3.6377 C   0  0  0  0  0  0  0  0  0  0  0  0
    3.7866   -1.1771   -4.6734 C   0  0  0  0  0  0  0  0  0  0  0  0
    6.6375    1.6877   -6.2968 H   0  0  0  0  0  0  0  0  0  0  0  0
    6.7800    1.3073   -4.5750 H   0  0  0  0  0  0  0  0  0  0  0  0
    5.5284    2.4715   -5.1636 H   0  0  0  0  0  0  0  0  0  0  0  0
    4.8226    1.6663   -3.1102 H   0  0  0  0  0  0  0  0  0  0  0  0
    3.4863    0.7075   -1.3065 H   0  0  0  0  0  0  0  0  0  0  0  0
    2.1265   -2.7356   -1.3215 H   0  0  0  0  0  0  0  0  0  0  0  0
    2.4925   -1.3369   -0.3148 H   0  0  0  0  0  0  0  0  0  0  0  0
    0.1801   -1.7036   -2.1511 H   0  0  0  0  0  0  0  0  0  0  0  0
   -1.1866    0.8900   -1.9592 H   0  0  0  0  0  0  0  0  0  0  0  0
   -3.3725    4.6381   -0.6048 H   0  0  0  0  0  0  0  0  0  0  0  0
   -4.5144    5.9782    1.1402 H   0  0  0  0  0  0  0  0  0  0  0  0
   -4.7774    5.0437    3.4314 H   0  0  0  0  0  0  0  0  0  0  0  0
   -3.8971    2.7839    3.9424 H   0  0  0  0  0  0  0  0  0  0  0  0
   -3.3371   -1.1548    2.8350 H   0  0  0  0  0  0  0  0  0  0  0  0
   -3.3086   -1.9703    1.2661 H   0  0  0  0  0  0  0  0  0  0  0  0
   -1.4747   -3.4416    2.0317 H   0  0  0  0  0  0  0  0  0  0  0  0
   -2.9071   -3.6108    3.0521 H   0  0  0  0  0  0  0  0  0  0  0  0
    0.4950   -3.5808    3.3592 H   0  0  0  0  0  0  0  0  0  0  0  0
   -0.6549   -4.6309    4.2151 H   0  0  0  0  0  0  0  0  0  0  0  0
    0.2870   -3.4540    5.1192 H   0  0  0  0  0  0  0  0  0  0  0  0
    0.1017   -1.1561    4.6277 H   0  0  0  0  0  0  0  0  0  0  0  0
   -1.5392   -0.6000    4.4222 H   0  0  0  0  0  0  0  0  0  0  0  0
   -0.0473    0.3152    2.6558 H   0  0  0  0  0  0  0  0  0  0  0  0
    0.3791   -1.3097    2.1469 H   0  0  0  0  0  0  0  0  0  0  0  0
    2.5209   -2.6760   -3.8012 H   0  0  0  0  0  0  0  0  0  0  0  0
    3.8603   -1.6986   -5.6243 H   0  0  0  0  0  0  0  0  0  0  0  0
  1  2  1  0
  2  3  1  0
  3  4  2  0
  4  5  1  0
  5  6  2  0
  6  7  1  0
  7  8  1  0
  8  9  1  0
  9 10  2  0
  9 11  1  0
 11 12  1  0
 12 13  3  0
 11 14  1  0
 14 15  2  0
 15 16  1  0
 16 17  2  0
 17 18  1  0
 18 19  2  0
 19 20  1  0
 20 21  2  0
 21 22  1  0
 22 23  2  0
 23 24  1  0
 24 25  1  0
 25 26  1  0
 26 27  1  0
 27 28  1  0
 27 29  1  0
 29 30  1  0
  6 31  1  0
 31 32  2  0
 32  3  1  0
 23 14  1  0
 30 24  1  0
 21 16  1  0
  1 33  1  0
  1 34  1  0
  1 35  1  0
  4 36  1  0
  5 37  1  0
  7 38  1  0
  7 39  1  0
  8 40  1  0
 11 41  1  0
 17 42  1  0
 18 43  1  0
 19 44  1  0
 20 45  1  0
 25 46  1  0
 25 47  1  0
 26 48  1  0
 26 49  1  0
 28 50  1  0
 28 51  1  0
 28 52  1  0
 29 53  1  0
 29 54  1  0
 30 55  1  0
 30 56  1  0
 31 57  1  0
 32 58  1  0
M  END
$$$$
