
     RDKit          3D

 49 52  0  0  0  0  0  0  0  0999 V2000
   -1.4410    2.7847    2.6933 C   0  0  0  0  0  0  0  0  0  0  0  0
   -0.5430    3.4207    1.6407 C   0  0  0  0  0  0  0  0  0  0  0  0
   -0.9121    3.0202    0.2112 C   0  0  0  0  0  0  0  0  0  0  0  0
   -0.6417    1.5683   -0.0750 C   0  0  0  0  0  0  0  0  0  0  0  0
    0.6280    1.2130   -0.3505 N   0  0  0  0  0  0  0  0  0  0  0  0
    0.8954   -0.0873   -0.5890 C   0  0  0  0  0  0  0  0  0  0  0  0
    2.2174   -0.4727   -0.8963 N   0  0  0  0  0  0  0  0  0  0  0  0
    2.8749   -1.1310    0.2573 C   0  0  0  0  0  0  0  0  0  0  0  0
    4.2836   -1.6279   -0.1486 C   0  0  0  0  0  0  0  0  0  0  0  0
    5.1404   -0.5424   -0.6761 N   0  0  0  0  0  0  0  0  0  0  0  0
    6.4336   -1.0687   -1.1064 C   0  0  0  0  0  0  0  0  0  0  0  0
    4.4468    0.1238   -1.8025 C   0  0  0  0  0  0  0  0  0  0  0  0
    3.0448    0.6443   -1.4065 C   0  0  0  0  0  0  0  0  0  0  0  0
   -0.1266   -1.0203   -0.5571 C   0  0  0  0  0  0  0  0  0  0  0  0
   -0.1199   -2.7422   -0.9301 S   0  0  0  0  0  0  0  0  0  0  0  0
   -1.8616   -2.8731   -0.6005 C   0  0  0  0  0  0  0  0  0  0  0  0
   -2.6088   -4.3702   -0.6151 S   0  0  0  0  0  0  0  0  0  0  0  0
   -2.3742   -1.6110   -0.2747 N   0  0  0  0  0  0  0  0  0  0  0  0
   -3.7384   -1.2914   -0.0088 C   0  0  0  0  0  0  0  0  0  0  0  0
   -4.0944   -0.4508    1.0585 C   0  0  0  0  0  0  0  0  0  0  0  0
   -5.4331   -0.1459    1.3238 C   0  0  0  0  0  0  0  0  0  0  0  0
   -6.4404   -0.6750    0.5234 C   0  0  0  0  0  0  0  0  0  0  0  0
   -6.1088   -1.5056   -0.5426 C   0  0  0  0  0  0  0  0  0  0  0  0
   -4.7691   -1.8104   -0.8060 C   0  0  0  0  0  0  0  0  0  0  0  0
   -1.3952   -0.5718   -0.2504 C   0  0  0  0  0  0  0  0  0  0  0  0
   -1.6767    0.7183   -0.0102 N   0  0  0  0  0  0  0  0  0  0  0  0
   -2.4945    3.0117    2.5009 H   0  0  0  0  0  0  0  0  0  0  0  0
   -1.3206    1.6975    2.7195 H   0  0  0  0  0  0  0  0  0  0  0  0
   -1.1875    3.1708    3.6859 H   0  0  0  0  0  0  0  0  0  0  0  0
    0.5015    3.1628    1.8530 H   0  0  0  0  0  0  0  0  0  0  0  0
   -0.6267    4.5105    1.7285 H   0  0  0  0  0  0  0  0  0  0  0  0
   -0.3275    3.6243   -0.4932 H   0  0  0  0  0  0  0  0  0  0  0  0
   -1.9676    3.2447    0.0156 H   0  0  0  0  0  0  0  0  0  0  0  0
    2.3003   -1.9941    0.6098 H   0  0  0  0  0  0  0  0  0  0  0  0
    2.9620   -0.4277    1.0970 H   0  0  0  0  0  0  0  0  0  0  0  0
    4.1749   -2.4238   -0.8979 H   0  0  0  0  0  0  0  0  0  0  0  0
    4.7591   -2.0697    0.7352 H   0  0  0  0  0  0  0  0  0  0  0  0
    7.0761   -0.2579   -1.4672 H   0  0  0  0  0  0  0  0  0  0  0  0
    6.9570   -1.5344   -0.2641 H   0  0  0  0  0  0  0  0  0  0  0  0
    6.3364   -1.8126   -1.9053 H   0  0  0  0  0  0  0  0  0  0  0  0
    4.3429   -0.5697   -2.6480 H   0  0  0  0  0  0  0  0  0  0  0  0
    5.0452    0.9760   -2.1461 H   0  0  0  0  0  0  0  0  0  0  0  0
    3.1589    1.4319   -0.6491 H   0  0  0  0  0  0  0  0  0  0  0  0
    2.5755    1.0849   -2.2950 H   0  0  0  0  0  0  0  0  0  0  0  0
   -3.3363   -0.0399    1.7206 H   0  0  0  0  0  0  0  0  0  0  0  0
   -5.6850    0.5020    2.1594 H   0  0  0  0  0  0  0  0  0  0  0  0
   -7.4813   -0.4388    0.7280 H   0  0  0  0  0  0  0  0  0  0  0  0
   -6.8910   -1.9146   -1.1772 H   0  0  0  0  0  0  0  0  0  0  0  0
   -4.5519   -2.4296   -1.6722 H   0  0  0  0  0  0  0  0  0  0  0  0
  1  2  1  0
  2  3  1  0
  3  4  1  0
  4  5  2  0
  5  6  1  0
  6  7  1  0
  7  8  1  0
  8  9  1  0
  9 10  1  0
 10 11  1  0
 10 12  1  0
 12 13  1  0
  6 14  2  0
 14 15  1  0
 15 16  1  0
 16 17  2  0
 16 18  1  0
 18 19  1  0
 19 20  2  0
 20 21  1  0
 21 22  2  0
 22 23  1  0
 23 24  2  0
 18 25  1  0
 25 26  2  0
 26  4  1  0
 13  7  1  0
 25 14  1  0
 24 19  1  0
  1 27  1  0
  1 28  1  0
  1 29  1  0
  2 30  1  0
  2 31  1  0
  3 32  1  0
  3 33  1  0
  8 34  1  0
  8 35  1  0
  9 36  1  0
  9 37  1  0
 11 38  1  0
 11 39  1  0
 11 40  1  0
 12 41  1  0
 12 42  1  0
 13 43  1  0
 13 44  1  0
 20 45  1  0
 21 46  1  0
 22 47  1  0
 23 48  1  0
 24 49  1  0
M  END
$$$$
