
     RDKit          3D

 24 25  0  0  0  0  0  0  0  0999 V2000
    2.2025    1.3118   -2.8822 C   0  0  0  0  0  0  0  0  0  0  0  0
    1.9423    1.1294   -1.4761 N   0  0  0  0  0  0  0  0  0  0  0  0
    2.8182    1.5981   -0.5602 N   0  0  0  0  0  0  0  0  0  0  0  0
    2.2115    1.2277    0.5810 C   0  0  0  0  0  0  0  0  0  0  0  0
    2.7948    1.5221    1.8829 N   0  0  0  0  0  4  0  0  0  0  0  0
    2.1644    1.1421    2.8820 O   0  0  0  0  0  0  0  0  0  0  0  0
    3.8770    2.1295    1.9131 O   0  0  0  0  0  1  0  0  0  0  0  0
    1.0193    0.5614    0.4351 N   0  0  0  0  0  0  0  0  0  0  0  0
    0.8780    0.5156   -0.8701 C   0  0  0  0  0  0  0  0  0  0  0  0
   -0.4256   -0.1941   -1.7635 S   0  0  0  0  0  0  0  0  0  0  0  0
   -1.4241   -0.7900   -0.4130 C   0  0  0  0  0  0  0  0  0  0  0  0
   -2.4231    0.0217    0.1376 C   0  0  0  0  0  0  0  0  0  0  0  0
   -3.2193   -0.4526    1.1839 C   0  0  0  0  0  0  0  0  0  0  0  0
   -3.0211   -1.7413    1.6755 C   0  0  0  0  0  0  0  0  0  0  0  0
   -4.0038   -2.3266    2.9604 Cl  0  0  0  0  0  0  0  0  0  0  0  0
   -2.0351   -2.5606    1.1293 C   0  0  0  0  0  0  0  0  0  0  0  0
   -1.2390   -2.0861    0.0830 C   0  0  0  0  0  0  0  0  0  0  0  0
    3.1476    1.8462   -3.0112 H   0  0  0  0  0  0  0  0  0  0  0  0
    1.3884    1.8984   -3.3148 H   0  0  0  0  0  0  0  0  0  0  0  0
    2.2704    0.3291   -3.3552 H   0  0  0  0  0  0  0  0  0  0  0  0
   -2.5855    1.0297   -0.2360 H   0  0  0  0  0  0  0  0  0  0  0  0
   -3.9873    0.1873    1.6102 H   0  0  0  0  0  0  0  0  0  0  0  0
   -1.8791   -3.5652    1.5130 H   0  0  0  0  0  0  0  0  0  0  0  0
   -0.4713   -2.7336   -0.3335 H   0  0  0  0  0  0  0  0  0  0  0  0
  1  2  1  0
  2  3  1  0
  3  4  2  0
  4  5  1  0
  5  6  2  0
  5  7  1  0
  4  8  1  0
  8  9  2  0
  9 10  1  0
 10 11  1  0
 11 12  2  0
 12 13  1  0
 13 14  2  0
 14 15  1  0
 14 16  1  0
 16 17  2  0
  9  2  1  0
 17 11  1  0
  1 18  1  0
  1 19  1  0
  1 20  1  0
 12 21  1  0
 13 22  1  0
 16 23  1  0
 17 24  1  0
M  CHG  2   5   1   7  -1
M  END
$$$$
