
     RDKit          3D

 46 48  0  0  0  0  0  0  0  0999 V2000
   -4.3033    2.4988   -3.1704 C   0  0  0  0  0  0  0  0  0  0  0  0
   -4.5564    1.3299   -2.2655 C   0  0  0  0  0  0  0  0  0  0  0  0
   -5.8518    0.8390   -2.0847 C   0  0  0  0  0  0  0  0  0  0  0  0
   -6.0812   -0.2277   -1.2173 C   0  0  0  0  0  0  0  0  0  0  0  0
   -5.0216   -0.8083   -0.5138 C   0  0  0  0  0  0  0  0  0  0  0  0
   -3.7230   -0.3237   -0.6683 C   0  0  0  0  0  0  0  0  0  0  0  0
   -2.5936   -0.8390    0.0033 N   0  0  0  0  0  0  0  0  0  0  0  0
   -2.5370   -1.8786    0.9030 C   0  0  0  0  0  0  0  0  0  0  0  0
   -3.5061   -2.5404    1.2667 O   0  0  0  0  0  0  0  0  0  0  0  0
   -1.2316   -2.2016    1.4477 C   0  0  0  0  0  0  0  0  0  0  0  0
   -1.1064   -3.2411    2.3514 N   0  0  0  0  0  0  0  0  0  0  0  0
    0.1966   -3.3574    2.7195 C   0  0  0  0  0  0  0  0  0  0  0  0
    0.9395   -2.4622    2.1180 N   0  0  0  0  0  0  0  0  0  0  0  0
    0.0674   -1.7221    1.3171 C   0  0  0  0  0  0  0  0  0  0  0  0
    0.5754   -0.6204    0.4963 C   0  0  0  0  0  0  0  0  0  0  0  0
   -0.1325    0.0469   -0.2515 O   0  0  0  0  0  0  0  0  0  0  0  0
    1.9229   -0.4228    0.6533 N   0  0  0  0  0  0  0  0  0  0  0  0
    2.6786    0.5628   -0.0887 C   0  0  0  0  0  0  0  0  0  0  0  0
    2.9372    0.0994   -1.5255 C   0  0  0  0  0  0  0  0  0  0  0  0
    3.9631    0.8913    0.6495 C   0  0  0  0  0  0  0  0  0  0  0  0
    5.0099   -0.0391    0.7600 C   0  0  0  0  0  0  0  0  0  0  0  0
    6.1775    0.2805    1.4559 C   0  0  0  0  0  0  0  0  0  0  0  0
    6.3130    1.5302    2.0559 C   0  0  0  0  0  0  0  0  0  0  0  0
    5.2801    2.4600    1.9645 C   0  0  0  0  0  0  0  0  0  0  0  0
    4.1116    2.1423    1.2691 C   0  0  0  0  0  0  0  0  0  0  0  0
   -3.5022    0.7503   -1.5439 C   0  0  0  0  0  0  0  0  0  0  0  0
   -4.3658    3.4321   -2.6024 H   0  0  0  0  0  0  0  0  0  0  0  0
   -5.0360    2.5303   -3.9837 H   0  0  0  0  0  0  0  0  0  0  0  0
   -3.3118    2.4286   -3.6300 H   0  0  0  0  0  0  0  0  0  0  0  0
   -6.6896    1.2825   -2.6176 H   0  0  0  0  0  0  0  0  0  0  0  0
   -7.0896   -0.6109   -1.0829 H   0  0  0  0  0  0  0  0  0  0  0  0
   -5.2502   -1.6353    0.1496 H   0  0  0  0  0  0  0  0  0  0  0  0
   -1.7171   -0.3711   -0.2203 H   0  0  0  0  0  0  0  0  0  0  0  0
   -1.8815   -3.8093    2.6706 H   0  0  0  0  0  0  0  0  0  0  0  0
    0.5411   -4.1052    3.4221 H   0  0  0  0  0  0  0  0  0  0  0  0
    2.3951   -1.0587    1.2915 H   0  0  0  0  0  0  0  0  0  0  0  0
    2.0591    1.4670   -0.1508 H   0  0  0  0  0  0  0  0  0  0  0  0
    1.9947   -0.0305   -2.0686 H   0  0  0  0  0  0  0  0  0  0  0  0
    3.4597   -0.8630   -1.5582 H   0  0  0  0  0  0  0  0  0  0  0  0
    3.5411    0.8320   -2.0720 H   0  0  0  0  0  0  0  0  0  0  0  0
    4.9228   -1.0249    0.3087 H   0  0  0  0  0  0  0  0  0  0  0  0
    6.9804   -0.4482    1.5324 H   0  0  0  0  0  0  0  0  0  0  0  0
    7.2214    1.7777    2.5987 H   0  0  0  0  0  0  0  0  0  0  0  0
    5.3820    3.4332    2.4378 H   0  0  0  0  0  0  0  0  0  0  0  0
    3.3139    2.8806    1.2166 H   0  0  0  0  0  0  0  0  0  0  0  0
   -2.4959    1.1463   -1.6713 H   0  0  0  0  0  0  0  0  0  0  0  0
  1  2  1  0
  2  3  2  0
  3  4  1  0
  4  5  2  0
  5  6  1  0
  6  7  1  0
  7  8  1  0
  8  9  2  0
  8 10  1  0
 10 11  1  0
 11 12  1  0
 12 13  2  0
 13 14  1  0
 14 15  1  0
 15 16  2  0
 15 17  1  0
 17 18  1  0
 18 19  1  0
 18 20  1  0
 20 21  2  0
 21 22  1  0
 22 23  2  0
 23 24  1  0
 24 25  2  0
  6 26  2  0
 26  2  1  0
 14 10  2  0
 25 20  1  0
  1 27  1  0
  1 28  1  0
  1 29  1  0
  3 30  1  0
  4 31  1  0
  5 32  1  0
  7 33  1  0
 11 34  1  0
 12 35  1  0
 17 36  1  0
 18 37  1  0
 19 38  1  0
 19 39  1  0
 19 40  1  0
 21 41  1  0
 22 42  1  0
 23 43  1  0
 24 44  1  0
 25 45  1  0
 26 46  1  0
M  END
$$$$
