
     RDKit          3D

 67 69  0  0  0  0  0  0  0  0999 V2000
    0.0192    2.7792   -0.9993 C   0  0  0  0  0  0  0  0  0  0  0  0
   -0.3772    1.4224   -0.4287 C   0  0  0  0  0  0  0  0  0  0  0  0
   -1.8065    1.1877   -0.6157 N   0  0  0  0  0  0  0  0  0  0  0  0
   -2.7502    1.6778    0.2552 C   0  0  0  0  0  0  0  0  0  0  0  0
   -2.4719    2.3904    1.2124 O   0  0  0  0  0  0  0  0  0  0  0  0
   -4.1597    1.2702    0.0025 C   0  0  0  0  0  0  0  0  0  0  0  0
   -4.6252    0.9440   -1.2725 C   0  0  0  0  0  0  0  0  0  0  0  0
   -5.9590    0.5589   -1.4546 C   0  0  0  0  0  0  0  0  0  0  0  0
   -6.8650    0.4957   -0.3767 C   0  0  0  0  0  0  0  0  0  0  0  0
   -8.3214    0.0586   -0.6167 C   0  0  0  0  0  0  0  0  0  0  0  0
   -9.1959    0.0731    0.6574 C   0  0  0  0  0  0  0  0  0  0  0  0
   -8.9901    1.0042   -1.6382 C   0  0  0  0  0  0  0  0  0  0  0  0
   -8.3400   -1.3829   -1.1686 C   0  0  0  0  0  0  0  0  0  0  0  0
   -6.3778    0.8432    0.8949 C   0  0  0  0  0  0  0  0  0  0  0  0
   -5.0452    1.2306    1.0822 C   0  0  0  0  0  0  0  0  0  0  0  0
    0.3719    0.2901   -1.1676 C   0  0  0  0  0  0  0  0  0  0  0  0
   -0.1849   -0.3027   -2.1012 O   0  0  0  0  0  0  0  0  0  0  0  0
    1.6713   -0.0017   -0.7830 N   0  0  0  0  0  0  0  0  0  0  0  0
    2.3027    0.5145    0.4343 C   0  0  0  0  0  0  0  0  0  0  0  0
    3.7238   -0.0374    0.6619 C   0  0  0  0  0  0  0  0  0  0  0  0
    3.7211   -1.5087    0.6621 N   0  0  0  0  0  0  0  0  0  0  0  0
    5.0536   -2.0858    0.8691 C   0  0  0  0  0  0  0  0  0  0  0  0
    5.5560   -1.8298    2.2616 C   0  0  0  0  0  0  0  0  0  0  0  0
    6.7490   -1.3360    2.6300 C   0  0  0  0  0  0  0  0  0  0  0  0
    7.8195   -0.9391    1.7154 C   0  0  0  0  0  0  0  0  0  0  0  0
    7.7146    0.2208    0.9401 C   0  0  0  0  0  0  0  0  0  0  0  0
    8.7520    0.5887    0.0801 C   0  0  0  0  0  0  0  0  0  0  0  0
    9.9025   -0.1956   -0.0020 C   0  0  0  0  0  0  0  0  0  0  0  0
   10.0154   -1.3494    0.7733 C   0  0  0  0  0  0  0  0  0  0  0  0
    8.9756   -1.7217    1.6285 C   0  0  0  0  0  0  0  0  0  0  0  0
    3.0707   -2.0630   -0.5467 C   0  0  0  0  0  0  0  0  0  0  0  0
    2.4216   -1.0337   -1.4970 C   0  0  0  0  0  0  0  0  0  0  0  0
   -0.5070    3.5909   -0.4847 H   0  0  0  0  0  0  0  0  0  0  0  0
   -0.2312    2.8453   -2.0651 H   0  0  0  0  0  0  0  0  0  0  0  0
    1.0953    2.9617   -0.9080 H   0  0  0  0  0  0  0  0  0  0  0  0
   -0.1709    1.3810    0.6444 H   0  0  0  0  0  0  0  0  0  0  0  0
   -2.0482    0.4820   -1.3044 H   0  0  0  0  0  0  0  0  0  0  0  0
   -3.9774    1.0039   -2.1424 H   0  0  0  0  0  0  0  0  0  0  0  0
   -6.2844    0.3109   -2.4639 H   0  0  0  0  0  0  0  0  0  0  0  0
   -9.2527    1.0765    1.0961 H   0  0  0  0  0  0  0  0  0  0  0  0
  -10.2235   -0.2394    0.4352 H   0  0  0  0  0  0  0  0  0  0  0  0
   -8.8094   -0.6123    1.4207 H   0  0  0  0  0  0  0  0  0  0  0  0
   -8.9534    2.0448   -1.2938 H   0  0  0  0  0  0  0  0  0  0  0  0
   -8.5054    0.9651   -2.6195 H   0  0  0  0  0  0  0  0  0  0  0  0
  -10.0434    0.7400   -1.7919 H   0  0  0  0  0  0  0  0  0  0  0  0
   -7.8383   -1.4597   -2.1401 H   0  0  0  0  0  0  0  0  0  0  0  0
   -9.3660   -1.7407   -1.3091 H   0  0  0  0  0  0  0  0  0  0  0  0
   -7.8359   -2.0757   -0.4834 H   0  0  0  0  0  0  0  0  0  0  0  0
   -7.0170    0.8233    1.7740 H   0  0  0  0  0  0  0  0  0  0  0  0
   -4.7004    1.4962    2.0799 H   0  0  0  0  0  0  0  0  0  0  0  0
    1.6624    0.2383    1.2798 H   0  0  0  0  0  0  0  0  0  0  0  0
    2.3349    1.6057    0.3814 H   0  0  0  0  0  0  0  0  0  0  0  0
    4.0796    0.3492    1.6235 H   0  0  0  0  0  0  0  0  0  0  0  0
    4.3969    0.3476   -0.1148 H   0  0  0  0  0  0  0  0  0  0  0  0
    4.9899   -3.1776    0.7684 H   0  0  0  0  0  0  0  0  0  0  0  0
    5.7493   -1.7398    0.0974 H   0  0  0  0  0  0  0  0  0  0  0  0
    4.8616   -2.1077    3.0533 H   0  0  0  0  0  0  0  0  0  0  0  0
    6.9824   -1.2338    3.6875 H   0  0  0  0  0  0  0  0  0  0  0  0
    6.8263    0.8447    1.0034 H   0  0  0  0  0  0  0  0  0  0  0  0
    8.6658    1.4909   -0.5189 H   0  0  0  0  0  0  0  0  0  0  0  0
   10.7123    0.0940   -0.6677 H   0  0  0  0  0  0  0  0  0  0  0  0
   10.9129   -1.9605    0.7133 H   0  0  0  0  0  0  0  0  0  0  0  0
    9.0753   -2.6243    2.2276 H   0  0  0  0  0  0  0  0  0  0  0  0
    3.7666   -2.6680   -1.1411 H   0  0  0  0  0  0  0  0  0  0  0  0
    2.2884   -2.7471   -0.1961 H   0  0  0  0  0  0  0  0  0  0  0  0
    3.2023   -0.5126   -2.0656 H   0  0  0  0  0  0  0  0  0  0  0  0
    1.7912   -1.5555   -2.2251 H   0  0  0  0  0  0  0  0  0  0  0  0
  1  2  1  0
  2  3  1  0
  3  4  1  0
  4  5  2  0
  4  6  1  0
  6  7  2  0
  7  8  1  0
  8  9  2  0
  9 10  1  0
 10 11  1  0
 10 12  1  0
 10 13  1  0
  9 14  1  0
 14 15  2  0
  2 16  1  0
 16 17  2  0
 16 18  1  0
 18 19  1  0
 19 20  1  0
 20 21  1  0
 21 22  1  0
 22 23  1  0
 23 24  2  3
 24 25  1  0
 25 26  2  0
 26 27  1  0
 27 28  2  0
 28 29  1  0
 29 30  2  0
 21 31  1  0
 31 32  1  0
 15  6  1  0
 32 18  1  0
 30 25  1  0
  1 33  1  0
  1 34  1  0
  1 35  1  0
  2 36  1  0
  3 37  1  0
  7 38  1  0
  8 39  1  0
 11 40  1  0
 11 41  1  0
 11 42  1  0
 12 43  1  0
 12 44  1  0
 12 45  1  0
 13 46  1  0
 13 47  1  0
 13 48  1  0
 14 49  1  0
 15 50  1  0
 19 51  1  0
 19 52  1  0
 20 53  1  0
 20 54  1  0
 22 55  1  0
 22 56  1  0
 23 57  1  0
 24 58  1  0
 26 59  1  0
 27 60  1  0
 28 61  1  0
 29 62  1  0
 30 63  1  0
 31 64  1  0
 31 65  1  0
 32 66  1  0
 32 67  1  0
M  END
$$$$
