
     RDKit          3D

 44 47  0  0  0  0  0  0  0  0999 V2000
    4.5214    0.9692    0.6276 C   0  0  0  0  0  0  0  0  0  0  0  0
    3.1389    0.2992    0.7155 C   0  0  0  0  0  0  0  0  0  0  0  0
    3.3392   -1.2217    0.6088 C   0  0  0  0  0  0  0  0  0  0  0  0
    2.2438    0.8677   -0.4002 C   0  0  0  0  0  0  0  0  0  0  0  0
    0.7600    0.4886   -0.2098 C   0  0  0  0  0  0  0  0  0  0  0  0
   -0.0695    1.3589   -1.1722 C   0  0  0  0  0  0  0  0  0  0  0  0
   -1.5379    0.9324   -1.2825 C   0  0  0  0  0  0  0  0  0  0  0  0
   -2.4230    1.5468   -0.2088 C   0  0  0  0  0  0  0  0  0  0  0  0
   -3.0400    0.9602    0.8842 C   0  0  0  0  0  0  0  0  0  0  0  0
   -3.7896    1.8908    1.6595 C   0  0  0  0  0  0  0  0  0  0  0  0
   -3.7457    3.1579    1.1276 C   0  0  0  0  0  0  0  0  0  0  0  0
   -2.8132    3.2220   -0.3004 S   0  0  0  0  0  0  0  0  0  0  0  0
   -1.6293   -0.5730   -1.3539 C   0  0  0  0  0  0  0  0  0  0  0  0
   -2.8036   -1.1852   -1.8308 C   0  0  0  0  0  0  0  0  0  0  0  0
   -2.9039   -2.5761   -1.9004 C   0  0  0  0  0  0  0  0  0  0  0  0
   -4.3693   -3.2709   -2.4871 Cl  0  0  0  0  0  0  0  0  0  0  0  0
   -1.8286   -3.3686   -1.4979 C   0  0  0  0  0  0  0  0  0  0  0  0
   -1.9188   -4.7317   -1.5631 O   0  0  0  0  0  0  0  0  0  0  0  0
   -0.6585   -2.7720   -1.0309 C   0  0  0  0  0  0  0  0  0  0  0  0
   -0.5620   -1.3789   -0.9564 C   0  0  0  0  0  0  0  0  0  0  0  0
    0.6354   -0.9053   -0.5107 O   0  0  0  0  0  0  0  0  0  0  0  0
    0.3822    0.6897    1.1753 N   0  0  0  0  0  0  0  0  0  0  0  0
    1.2126    0.6391    2.2380 C   0  0  0  0  0  0  0  0  0  0  0  0
    0.6144    0.6478    3.7862 S   0  0  0  0  0  0  0  0  0  0  0  0
    2.5447    0.6204    2.0067 N   0  0  0  0  0  0  0  0  0  0  0  0
    5.0021    0.7626   -0.3350 H   0  0  0  0  0  0  0  0  0  0  0  0
    5.1876    0.6129    1.4221 H   0  0  0  0  0  0  0  0  0  0  0  0
    4.4432    2.0569    0.7409 H   0  0  0  0  0  0  0  0  0  0  0  0
    2.4310   -1.7827    0.8476 H   0  0  0  0  0  0  0  0  0  0  0  0
    4.0985   -1.5643    1.3225 H   0  0  0  0  0  0  0  0  0  0  0  0
    3.6716   -1.5097   -0.3943 H   0  0  0  0  0  0  0  0  0  0  0  0
    2.6051    0.5254   -1.3788 H   0  0  0  0  0  0  0  0  0  0  0  0
    2.3291    1.9640   -0.3887 H   0  0  0  0  0  0  0  0  0  0  0  0
    0.0202    2.4200   -0.9087 H   0  0  0  0  0  0  0  0  0  0  0  0
    0.3665    1.2523   -2.1772 H   0  0  0  0  0  0  0  0  0  0  0  0
   -1.9001    1.3140   -2.2497 H   0  0  0  0  0  0  0  0  0  0  0  0
   -2.9581   -0.0923    1.1324 H   0  0  0  0  0  0  0  0  0  0  0  0
   -4.3364    1.6410    2.5609 H   0  0  0  0  0  0  0  0  0  0  0  0
   -4.2232    4.0512    1.5069 H   0  0  0  0  0  0  0  0  0  0  0  0
   -3.6463   -0.5713   -2.1443 H   0  0  0  0  0  0  0  0  0  0  0  0
   -1.1008   -5.1273   -1.2208 H   0  0  0  0  0  0  0  0  0  0  0  0
    0.1896   -3.3746   -0.7188 H   0  0  0  0  0  0  0  0  0  0  0  0
   -0.5936    0.6003    1.4190 H   0  0  0  0  0  0  0  0  0  0  0  0
    3.1142    0.5142    2.8397 H   0  0  0  0  0  0  0  0  0  0  0  0
  1  2  1  0
  2  3  1  0
  2  4  1  0
  4  5  1  0
  5  6  1  0
  6  7  1  0
  7  8  1  0
  8  9  2  0
  9 10  1  0
 10 11  2  0
 11 12  1  0
  7 13  1  0
 13 14  2  0
 14 15  1  0
 15 16  1  0
 15 17  2  0
 17 18  1  0
 17 19  1  0
 19 20  2  0
 20 21  1  0
  5 22  1  0
 22 23  1  0
 23 24  2  0
 23 25  1  0
 25  2  1  0
 21  5  1  0
 12  8  1  0
 20 13  1  0
  1 26  1  0
  1 27  1  0
  1 28  1  0
  3 29  1  0
  3 30  1  0
  3 31  1  0
  4 32  1  0
  4 33  1  0
  6 34  1  0
  6 35  1  0
  7 36  1  0
  9 37  1  0
 10 38  1  0
 11 39  1  0
 14 40  1  0
 18 41  1  0
 19 42  1  0
 22 43  1  0
 25 44  1  0
M  END
$$$$
