
     RDKit          3D

 45 46  0  0  0  0  0  0  0  0999 V2000
    7.7833   -0.1277   -0.6778 C   0  0  0  0  0  0  0  0  0  0  0  0
    7.1070    0.6434    0.4417 C   0  0  0  0  0  0  0  0  0  0  0  0
    5.7905    0.1149    0.7535 N   0  0  0  0  0  0  0  0  0  0  0  0
    5.6977   -0.8960    1.6354 N   0  0  0  0  0  0  0  0  0  0  0  0
    4.3886   -1.1379    1.7087 C   0  0  0  0  0  0  0  0  0  0  0  0
    3.6308   -0.2868    0.8760 C   0  0  0  0  0  0  0  0  0  0  0  0
    2.1998   -0.2563    0.7011 C   0  0  0  0  0  0  0  0  0  0  0  0
    1.4717   -1.0957    1.3616 N   0  0  0  0  0  0  0  0  0  0  0  0
    0.1291   -1.0072    1.1457 N   0  0  0  0  0  0  0  0  0  0  0  0
   -0.7500   -1.8563    1.7994 C   0  0  0  0  0  0  0  0  0  0  0  0
   -0.4352   -2.7333    2.6012 O   0  0  0  0  0  0  0  0  0  0  0  0
   -2.2107   -1.6053    1.4289 C   0  0  0  0  0  0  0  0  0  0  0  0
   -2.3312   -0.5436    0.4824 O   0  0  0  0  0  0  0  0  0  0  0  0
   -3.5965   -0.2274    0.0674 C   0  0  0  0  0  0  0  0  0  0  0  0
   -3.6606    0.8130   -0.8639 C   0  0  0  0  0  0  0  0  0  0  0  0
   -4.8900    1.2560   -1.3669 C   0  0  0  0  0  0  0  0  0  0  0  0
   -4.9431    2.3559   -2.3852 C   0  0  0  0  0  0  0  0  0  0  0  0
   -6.0636    0.6209   -0.9469 C   0  0  0  0  0  0  0  0  0  0  0  0
   -6.0158   -0.4327   -0.0255 C   0  0  0  0  0  0  0  0  0  0  0  0
   -7.2844   -1.0793    0.4502 C   0  0  0  0  0  0  0  0  0  0  0  0
   -4.7765   -0.8418    0.4899 C   0  0  0  0  0  0  0  0  0  0  0  0
    4.5733    0.5224    0.2569 C   0  0  0  0  0  0  0  0  0  0  0  0
    4.4329    1.6200   -0.7336 C   0  0  0  0  0  0  0  0  0  0  0  0
    7.1924   -0.0892   -1.5988 H   0  0  0  0  0  0  0  0  0  0  0  0
    8.7707    0.2949   -0.8874 H   0  0  0  0  0  0  0  0  0  0  0  0
    7.9130   -1.1815   -0.4093 H   0  0  0  0  0  0  0  0  0  0  0  0
    7.7069    0.5978    1.3577 H   0  0  0  0  0  0  0  0  0  0  0  0
    6.9982    1.6992    0.1746 H   0  0  0  0  0  0  0  0  0  0  0  0
    4.0300   -1.9225    2.3647 H   0  0  0  0  0  0  0  0  0  0  0  0
    1.7716    0.4862    0.0071 H   0  0  0  0  0  0  0  0  0  0  0  0
   -0.2552   -0.3192    0.5025 H   0  0  0  0  0  0  0  0  0  0  0  0
   -2.7354   -1.3454    2.3555 H   0  0  0  0  0  0  0  0  0  0  0  0
   -2.5969   -2.5377    1.0011 H   0  0  0  0  0  0  0  0  0  0  0  0
   -2.7398    1.2862   -1.1968 H   0  0  0  0  0  0  0  0  0  0  0  0
   -4.8767    1.9357   -3.3934 H   0  0  0  0  0  0  0  0  0  0  0  0
   -4.1189    3.0623   -2.2408 H   0  0  0  0  0  0  0  0  0  0  0  0
   -5.8755    2.9238   -2.2987 H   0  0  0  0  0  0  0  0  0  0  0  0
   -7.0242    0.9492   -1.3404 H   0  0  0  0  0  0  0  0  0  0  0  0
   -7.6546   -0.5642    1.3419 H   0  0  0  0  0  0  0  0  0  0  0  0
   -7.1174   -2.1340    0.6930 H   0  0  0  0  0  0  0  0  0  0  0  0
   -8.0566   -1.0439   -0.3253 H   0  0  0  0  0  0  0  0  0  0  0  0
   -4.7662   -1.6472    1.2178 H   0  0  0  0  0  0  0  0  0  0  0  0
    5.1017    1.4660   -1.5862 H   0  0  0  0  0  0  0  0  0  0  0  0
    3.4137    1.6806   -1.1257 H   0  0  0  0  0  0  0  0  0  0  0  0
    4.6720    2.5834   -0.2721 H   0  0  0  0  0  0  0  0  0  0  0  0
  1  2  1  0
  2  3  1  0
  3  4  1  0
  4  5  2  0
  5  6  1  0
  6  7  1  0
  7  8  2  3
  8  9  1  0
  9 10  1  0
 10 11  2  0
 10 12  1  0
 12 13  1  0
 13 14  1  0
 14 15  2  0
 15 16  1  0
 16 17  1  0
 16 18  2  0
 18 19  1  0
 19 20  1  0
 19 21  2  0
  6 22  2  0
 22 23  1  0
 22  3  1  0
 21 14  1  0
  1 24  1  0
  1 25  1  0
  1 26  1  0
  2 27  1  0
  2 28  1  0
  5 29  1  0
  7 30  1  0
  9 31  1  0
 12 32  1  0
 12 33  1  0
 15 34  1  0
 17 35  1  0
 17 36  1  0
 17 37  1  0
 18 38  1  0
 20 39  1  0
 20 40  1  0
 20 41  1  0
 21 42  1  0
 23 43  1  0
 23 44  1  0
 23 45  1  0
M  END
$$$$
