
     RDKit          3D

 33 35  0  0  0  0  0  0  0  0999 V2000
   -6.1256   -2.0503    0.1028 O   0  0  0  0  0  0  0  0  0  0  0  0
   -5.2444   -1.0302   -0.1066 C   0  0  0  0  0  0  0  0  0  0  0  0
   -5.6561    0.1797   -0.6544 C   0  0  0  0  0  0  0  0  0  0  0  0
   -4.7202    1.1956   -0.8424 C   0  0  0  0  0  0  0  0  0  0  0  0
   -3.3828    0.9932   -0.4878 C   0  0  0  0  0  0  0  0  0  0  0  0
   -2.9639   -0.2323    0.0491 C   0  0  0  0  0  0  0  0  0  0  0  0
   -1.5741   -0.4747    0.4637 C   0  0  0  0  0  0  0  0  0  0  0  0
   -0.5049   -0.0219   -0.2122 C   0  0  0  0  0  0  0  0  0  0  0  0
    0.8961   -0.2341    0.1694 C   0  0  0  0  0  0  0  0  0  0  0  0
    1.3334   -1.3520    0.8693 C   0  0  0  0  0  0  0  0  0  0  0  0
    2.6903   -1.4751    1.1584 C   0  0  0  0  0  0  0  0  0  0  0  0
    3.5831   -0.4853    0.7352 C   0  0  0  0  0  0  0  0  0  0  0  0
    4.9645   -0.5560    0.9995 C   0  0  0  0  0  0  0  0  0  0  0  0
    5.8225    0.4521    0.5562 C   0  0  0  0  0  0  0  0  0  0  0  0
    5.3089    1.5334   -0.1519 C   0  0  0  0  0  0  0  0  0  0  0  0
    3.9419    1.5900   -0.4062 C   0  0  0  0  0  0  0  0  0  0  0  0
    3.4588    2.6696   -1.1072 O   0  0  0  0  0  0  0  0  0  0  0  0
    3.0549    0.6049    0.0194 C   0  0  0  0  0  0  0  0  0  0  0  0
    1.7410    0.7298   -0.2670 N   0  0  0  0  0  0  0  0  0  0  0  0
   -3.9148   -1.2404    0.2495 C   0  0  0  0  0  0  0  0  0  0  0  0
   -7.0051   -1.7655   -0.1952 H   0  0  0  0  0  0  0  0  0  0  0  0
   -6.6908    0.3510   -0.9330 H   0  0  0  0  0  0  0  0  0  0  0  0
   -5.0294    2.1505   -1.2601 H   0  0  0  0  0  0  0  0  0  0  0  0
   -2.6760    1.8083   -0.6256 H   0  0  0  0  0  0  0  0  0  0  0  0
   -1.4599   -1.0621    1.3709 H   0  0  0  0  0  0  0  0  0  0  0  0
   -0.6273    0.5704   -1.1154 H   0  0  0  0  0  0  0  0  0  0  0  0
    0.6455   -2.1300    1.1816 H   0  0  0  0  0  0  0  0  0  0  0  0
    3.0427   -2.3446    1.7071 H   0  0  0  0  0  0  0  0  0  0  0  0
    5.3777   -1.3972    1.5518 H   0  0  0  0  0  0  0  0  0  0  0  0
    6.8882    0.3935    0.7626 H   0  0  0  0  0  0  0  0  0  0  0  0
    5.9610    2.3269   -0.5046 H   0  0  0  0  0  0  0  0  0  0  0  0
    2.4938    2.5012   -1.1615 H   0  0  0  0  0  0  0  0  0  0  0  0
   -3.6288   -2.1986    0.6751 H   0  0  0  0  0  0  0  0  0  0  0  0
  1  2  1  0
  2  3  2  0
  3  4  1  0
  4  5  2  0
  5  6  1  0
  6  7  1  0
  7  8  2  0
  8  9  1  0
  9 10  2  0
 10 11  1  0
 11 12  2  0
 12 13  1  0
 13 14  2  0
 14 15  1  0
 15 16  2  0
 16 17  1  0
 16 18  1  0
 18 19  2  0
  6 20  2  0
 20  2  1  0
 19  9  1  0
 18 12  1  0
  1 21  1  0
  3 22  1  0
  4 23  1  0
  5 24  1  0
  7 25  1  0
  8 26  1  0
 10 27  1  0
 11 28  1  0
 13 29  1  0
 14 30  1  0
 15 31  1  0
 17 32  1  0
 20 33  1  0
M  END
$$$$
