
     RDKit          3D

 62 64  0  0  0  0  0  0  0  0999 V2000
   -4.0137    2.7963   -0.8291 C   0  0  0  0  0  0  0  0  0  0  0  0
   -3.1655    1.5649   -0.6464 C   0  0  0  0  0  0  0  0  0  0  0  0
   -1.8022    1.7244   -0.9926 C   0  0  0  0  0  0  0  0  0  0  0  0
   -0.8877    0.6879   -0.8625 C   0  0  0  0  0  0  0  0  0  0  0  0
    0.4276    0.9631   -1.2671 O   0  0  0  0  0  0  0  0  0  0  0  0
    1.3921   -0.0287   -1.2679 C   0  0  0  0  0  0  0  0  0  0  0  0
    2.5084    0.1762   -1.7415 O   0  0  0  0  0  0  0  0  0  0  0  0
    1.0345   -1.3420   -0.6594 C   0  0  0  0  0  0  0  0  0  0  0  0
    2.2036   -2.2962   -0.6125 C   0  0  0  0  0  0  0  0  0  0  0  0
    3.1078   -1.9324    0.5568 C   0  0  0  0  0  0  0  0  0  0  0  0
    2.7044   -1.9130    1.7173 O   0  0  0  0  0  0  0  0  0  0  0  0
    4.4095   -1.6544    0.2006 N   0  0  0  0  0  0  0  0  0  0  0  0
    5.3976   -1.2218    1.1696 C   0  0  0  0  0  0  0  0  0  0  0  0
    5.3304    0.2761    1.4722 C   0  0  0  0  0  0  0  0  0  0  0  0
    5.5200    1.1767    0.2436 C   0  0  0  0  0  0  0  0  0  0  0  0
    6.7348    0.8815   -0.5353 N   0  0  0  0  0  0  0  0  0  0  0  0
    6.6594    1.5373   -1.8448 C   0  0  0  0  0  0  0  0  0  0  0  0
    7.9479    1.3142    0.1629 C   0  0  0  0  0  0  0  0  0  0  0  0
   -0.2138   -1.6048   -0.2090 C   0  0  0  0  0  0  0  0  0  0  0  0
   -0.5864   -2.8806    0.5034 C   0  0  0  0  0  0  0  0  0  0  0  0
   -1.2395   -0.5602   -0.3765 C   0  0  0  0  0  0  0  0  0  0  0  0
   -2.6077   -0.7228   -0.0919 C   0  0  0  0  0  0  0  0  0  0  0  0
   -3.1680   -1.8830    0.3378 O   0  0  0  0  0  0  0  0  0  0  0  0
   -4.4833   -1.6782    0.4919 C   0  0  0  0  0  0  0  0  0  0  0  0
   -4.8541   -0.3848    0.1581 C   0  0  0  0  0  0  0  0  0  0  0  0
   -6.3035    0.1143    0.2201 C   0  0  0  0  0  0  0  0  0  0  0  0
   -6.7468    0.7729   -1.0989 C   0  0  0  0  0  0  0  0  0  0  0  0
   -6.4986    1.0642    1.4165 C   0  0  0  0  0  0  0  0  0  0  0  0
   -7.3017   -1.0606    0.4389 C   0  0  0  0  0  0  0  0  0  0  0  0
   -3.5991    0.2711   -0.2169 C   0  0  0  0  0  0  0  0  0  0  0  0
   -4.4058    2.8298   -1.8538 H   0  0  0  0  0  0  0  0  0  0  0  0
   -4.8325    2.8374   -0.1094 H   0  0  0  0  0  0  0  0  0  0  0  0
   -3.4222    3.7082   -0.6592 H   0  0  0  0  0  0  0  0  0  0  0  0
   -1.4466    2.6845   -1.3682 H   0  0  0  0  0  0  0  0  0  0  0  0
    1.9040   -3.3420   -0.4930 H   0  0  0  0  0  0  0  0  0  0  0  0
    2.7571   -2.2750   -1.5594 H   0  0  0  0  0  0  0  0  0  0  0  0
    4.6056   -1.4294   -0.7692 H   0  0  0  0  0  0  0  0  0  0  0  0
    6.3794   -1.5017    0.7774 H   0  0  0  0  0  0  0  0  0  0  0  0
    5.2440   -1.7820    2.0988 H   0  0  0  0  0  0  0  0  0  0  0  0
    4.3565    0.5115    1.9184 H   0  0  0  0  0  0  0  0  0  0  0  0
    6.0815    0.5180    2.2332 H   0  0  0  0  0  0  0  0  0  0  0  0
    5.5054    2.2287    0.5595 H   0  0  0  0  0  0  0  0  0  0  0  0
    4.6401    1.0416   -0.3954 H   0  0  0  0  0  0  0  0  0  0  0  0
    5.7831    1.1857   -2.4027 H   0  0  0  0  0  0  0  0  0  0  0  0
    6.6015    2.6310   -1.7598 H   0  0  0  0  0  0  0  0  0  0  0  0
    7.5366    1.2815   -2.4518 H   0  0  0  0  0  0  0  0  0  0  0  0
    8.0587    0.7982    1.1222 H   0  0  0  0  0  0  0  0  0  0  0  0
    8.8381    1.0568   -0.4245 H   0  0  0  0  0  0  0  0  0  0  0  0
    7.9595    2.3952    0.3469 H   0  0  0  0  0  0  0  0  0  0  0  0
   -1.2433   -3.4954   -0.1217 H   0  0  0  0  0  0  0  0  0  0  0  0
    0.2752   -3.4982    0.7697 H   0  0  0  0  0  0  0  0  0  0  0  0
   -1.0839   -2.6641    1.4565 H   0  0  0  0  0  0  0  0  0  0  0  0
   -5.0333   -2.5448    0.8368 H   0  0  0  0  0  0  0  0  0  0  0  0
   -7.8265    0.9665   -1.1016 H   0  0  0  0  0  0  0  0  0  0  0  0
   -6.5229    0.1287   -1.9576 H   0  0  0  0  0  0  0  0  0  0  0  0
   -6.2720    1.7350   -1.2768 H   0  0  0  0  0  0  0  0  0  0  0  0
   -5.8065    1.9058    1.4083 H   0  0  0  0  0  0  0  0  0  0  0  0
   -7.5149    1.4719    1.4381 H   0  0  0  0  0  0  0  0  0  0  0  0
   -6.3317    0.5394    2.3646 H   0  0  0  0  0  0  0  0  0  0  0  0
   -7.1217   -1.5769    1.3904 H   0  0  0  0  0  0  0  0  0  0  0  0
   -7.2303   -1.8023   -0.3664 H   0  0  0  0  0  0  0  0  0  0  0  0
   -8.3383   -0.7012    0.4647 H   0  0  0  0  0  0  0  0  0  0  0  0
  1  2  1  0
  2  3  2  0
  3  4  1  0
  4  5  1  0
  5  6  1  0
  6  7  2  0
  6  8  1  0
  8  9  1  0
  9 10  1  0
 10 11  2  0
 10 12  1  0
 12 13  1  0
 13 14  1  0
 14 15  1  0
 15 16  1  0
 16 17  1  0
 16 18  1  0
  8 19  2  0
 19 20  1  0
 19 21  1  0
 21 22  1  0
 22 23  1  0
 23 24  1  0
 24 25  2  0
 25 26  1  0
 26 27  1  0
 26 28  1  0
 26 29  1  0
 25 30  1  0
 30  2  1  0
 21  4  2  0
 30 22  2  0
  1 31  1  0
  1 32  1  0
  1 33  1  0
  3 34  1  0
  9 35  1  0
  9 36  1  0
 12 37  1  0
 13 38  1  0
 13 39  1  0
 14 40  1  0
 14 41  1  0
 15 42  1  0
 15 43  1  0
 17 44  1  0
 17 45  1  0
 17 46  1  0
 18 47  1  0
 18 48  1  0
 18 49  1  0
 20 50  1  0
 20 51  1  0
 20 52  1  0
 24 53  1  0
 27 54  1  0
 27 55  1  0
 27 56  1  0
 28 57  1  0
 28 58  1  0
 28 59  1  0
 29 60  1  0
 29 61  1  0
 29 62  1  0
M  END
$$$$
