
     RDKit          3D

 61 64  0  0  0  0  0  0  0  0999 V2000
    6.3108    1.6068    3.4102 C   0  0  0  0  0  0  0  0  0  0  0  0
    5.6194    0.5671    2.5635 C   0  0  0  0  0  0  0  0  0  0  0  0
    5.4503   -0.5741    2.9761 O   0  0  0  0  0  0  0  0  0  0  0  0
    5.2268    1.0767    1.3400 N   0  0  0  0  0  0  0  0  0  0  0  0
    4.6007    0.3821    0.2824 C   0  0  0  0  0  0  0  0  0  0  0  0
    4.1654    1.1401   -0.8139 C   0  0  0  0  0  0  0  0  0  0  0  0
    3.5299    0.5302   -1.8998 C   0  0  0  0  0  0  0  0  0  0  0  0
    3.3181   -0.8485   -1.8874 C   0  0  0  0  0  0  0  0  0  0  0  0
    2.5341   -1.6388   -3.2774 S   0  0  0  0  0  6  0  0  0  0  0  0
    2.7297   -0.7860   -4.4310 O   0  0  0  0  0  0  0  0  0  0  0  0
    2.9657   -3.0212   -3.2895 O   0  0  0  0  0  0  0  0  0  0  0  0
    0.8926   -1.6109   -2.8802 N   0  0  0  0  0  0  0  0  0  0  0  0
    0.4189   -2.4913   -1.7712 C   0  0  0  0  0  0  0  0  0  0  0  0
   -0.1658   -1.6794   -0.6042 C   0  0  0  0  0  0  0  0  0  0  0  0
   -1.3207   -0.8395   -1.0239 N   0  0  0  0  0  0  0  0  0  0  0  0
   -1.5614    0.1859   -0.1609 C   0  0  0  0  0  0  0  0  0  0  0  0
   -0.9342    1.3376   -0.1009 N   0  0  0  0  0  0  0  0  0  0  0  0
   -1.5128    2.0110    0.9475 C   0  0  0  0  0  0  0  0  0  0  0  0
   -1.2104    3.2809    1.4628 C   0  0  0  0  0  0  0  0  0  0  0  0
   -1.9492    3.7623    2.5515 C   0  0  0  0  0  0  0  0  0  0  0  0
   -2.9727    2.9970    3.1123 C   0  0  0  0  0  0  0  0  0  0  0  0
   -3.2925    1.7293    2.6102 C   0  0  0  0  0  0  0  0  0  0  0  0
   -2.5370    1.2632    1.5269 C   0  0  0  0  0  0  0  0  0  0  0  0
   -2.5626    0.1056    0.7825 N   0  0  0  0  0  0  0  0  0  0  0  0
   -3.4824   -1.0057    0.9513 C   0  0  0  0  0  0  0  0  0  0  0  0
   -4.6107   -1.0443   -0.0950 C   0  0  0  0  0  0  0  0  0  0  0  0
   -5.3549   -2.3783   -0.0092 C   0  0  0  0  0  0  0  0  0  0  0  0
   -5.5978    0.1104    0.0824 C   0  0  0  0  0  0  0  0  0  0  0  0
   -1.2515   -0.4132   -2.4475 C   0  0  0  0  0  0  0  0  0  0  0  0
    0.1939   -0.2926   -2.9544 C   0  0  0  0  0  0  0  0  0  0  0  0
    3.7823   -1.6215   -0.8214 C   0  0  0  0  0  0  0  0  0  0  0  0
    4.4130   -1.0026    0.2640 C   0  0  0  0  0  0  0  0  0  0  0  0
    5.6491    2.4602    3.5720 H   0  0  0  0  0  0  0  0  0  0  0  0
    7.2288    1.9358    2.9151 H   0  0  0  0  0  0  0  0  0  0  0  0
    6.5704    1.1762    4.3789 H   0  0  0  0  0  0  0  0  0  0  0  0
    5.3591    2.0709    1.1995 H   0  0  0  0  0  0  0  0  0  0  0  0
    4.3067    2.2168   -0.8360 H   0  0  0  0  0  0  0  0  0  0  0  0
    3.2016    1.1358   -2.7417 H   0  0  0  0  0  0  0  0  0  0  0  0
    1.2219   -3.1334   -1.3968 H   0  0  0  0  0  0  0  0  0  0  0  0
   -0.3465   -3.1594   -2.1859 H   0  0  0  0  0  0  0  0  0  0  0  0
   -0.4984   -2.3693    0.1806 H   0  0  0  0  0  0  0  0  0  0  0  0
    0.6299   -1.0531   -0.1762 H   0  0  0  0  0  0  0  0  0  0  0  0
   -0.4165    3.8720    1.0183 H   0  0  0  0  0  0  0  0  0  0  0  0
   -1.7242    4.7449    2.9592 H   0  0  0  0  0  0  0  0  0  0  0  0
   -3.5368    3.3942    3.9522 H   0  0  0  0  0  0  0  0  0  0  0  0
   -4.0937    1.1445    3.0457 H   0  0  0  0  0  0  0  0  0  0  0  0
   -3.8935   -0.9621    1.9660 H   0  0  0  0  0  0  0  0  0  0  0  0
   -2.8834   -1.9219    0.9049 H   0  0  0  0  0  0  0  0  0  0  0  0
   -4.1791   -0.9660   -1.1009 H   0  0  0  0  0  0  0  0  0  0  0  0
   -4.6642   -3.2178   -0.1519 H   0  0  0  0  0  0  0  0  0  0  0  0
   -6.1248   -2.4430   -0.7893 H   0  0  0  0  0  0  0  0  0  0  0  0
   -5.8455   -2.5005    0.9642 H   0  0  0  0  0  0  0  0  0  0  0  0
   -6.0532    0.0932    1.0791 H   0  0  0  0  0  0  0  0  0  0  0  0
   -6.4040    0.0477   -0.6569 H   0  0  0  0  0  0  0  0  0  0  0  0
   -5.1058    1.0788   -0.0538 H   0  0  0  0  0  0  0  0  0  0  0  0
   -1.7859    0.5322   -2.6078 H   0  0  0  0  0  0  0  0  0  0  0  0
   -1.7828   -1.1671   -3.0420 H   0  0  0  0  0  0  0  0  0  0  0  0
    0.7278    0.4554   -2.3611 H   0  0  0  0  0  0  0  0  0  0  0  0
    0.1752    0.0345   -3.9999 H   0  0  0  0  0  0  0  0  0  0  0  0
    3.6682   -2.7029   -0.8253 H   0  0  0  0  0  0  0  0  0  0  0  0
    4.7646   -1.6345    1.0748 H   0  0  0  0  0  0  0  0  0  0  0  0
  1  2  1  0
  2  3  2  0
  2  4  1  0
  4  5  1  0
  5  6  2  0
  6  7  1  0
  7  8  2  0
  8  9  1  0
  9 10  2  0
  9 11  2  0
  9 12  1  0
 12 13  1  0
 13 14  1  0
 14 15  1  0
 15 16  1  0
 16 17  2  0
 17 18  1  0
 18 19  2  0
 19 20  1  0
 20 21  2  0
 21 22  1  0
 22 23  2  0
 23 24  1  0
 24 25  1  0
 25 26  1  0
 26 27  1  0
 26 28  1  0
 15 29  1  0
 29 30  1  0
  8 31  1  0
 31 32  2  0
 32  5  1  0
 30 12  1  0
 24 16  1  0
 23 18  1  0
  1 33  1  0
  1 34  1  0
  1 35  1  0
  4 36  1  0
  6 37  1  0
  7 38  1  0
 13 39  1  0
 13 40  1  0
 14 41  1  0
 14 42  1  0
 19 43  1  0
 20 44  1  0
 21 45  1  0
 22 46  1  0
 25 47  1  0
 25 48  1  0
 26 49  1  0
 27 50  1  0
 27 51  1  0
 27 52  1  0
 28 53  1  0
 28 54  1  0
 28 55  1  0
 29 56  1  0
 29 57  1  0
 30 58  1  0
 30 59  1  0
 31 60  1  0
 32 61  1  0
M  END
$$$$
