
     RDKit          3D

 30 31  0  0  0  0  0  0  0  0999 V2000
   -3.2649    2.4941    0.0749 C   0  0  0  0  0  0  0  0  0  0  0  0
   -2.3285    1.4522   -0.4224 C   0  0  0  0  0  0  0  0  0  0  0  0
   -1.6171    1.6892   -1.5323 N   0  0  0  0  0  0  0  0  0  0  0  0
   -0.8912    0.5662   -1.7117 N   0  0  0  0  0  0  0  0  0  0  0  0
   -0.0300    0.5020   -2.8712 C   0  0  0  0  0  0  0  0  0  0  0  0
   -1.0959   -0.3758   -0.7338 C   0  0  0  0  0  0  0  0  0  0  0  0
   -0.2497   -1.9028   -0.7378 S   0  0  0  0  0  0  0  0  0  0  0  0
    1.2958   -1.3641    0.0014 C   0  0  0  0  0  0  0  0  0  0  0  0
    2.4129   -1.2362   -0.8386 C   0  0  0  0  0  0  0  0  0  0  0  0
    3.6343   -0.7924   -0.3325 C   0  0  0  0  0  0  0  0  0  0  0  0
    3.7471   -0.4702    1.0157 C   0  0  0  0  0  0  0  0  0  0  0  0
    2.6481   -0.6213    1.8634 C   0  0  0  0  0  0  0  0  0  0  0  0
    1.4311   -1.1249    1.3851 C   0  0  0  0  0  0  0  0  0  0  0  0
    0.3337   -1.1773    2.2647 N   0  0  0  0  0  0  0  0  0  0  0  0
   -2.0552    0.1623    0.1080 C   0  0  0  0  0  0  0  0  0  0  0  0
   -2.6527   -0.4394    1.2662 N   0  0  0  0  0  4  0  0  0  0  0  0
   -2.4814   -1.6529    1.4481 O   0  0  0  0  0  0  0  0  0  0  0  0
   -3.3240    0.2971    2.0008 O   0  0  0  0  0  1  0  0  0  0  0  0
   -3.2957    3.3583   -0.5974 H   0  0  0  0  0  0  0  0  0  0  0  0
   -4.2818    2.0959    0.1480 H   0  0  0  0  0  0  0  0  0  0  0  0
   -2.9526    2.8516    1.0611 H   0  0  0  0  0  0  0  0  0  0  0  0
   -0.0413   -0.5084   -3.2846 H   0  0  0  0  0  0  0  0  0  0  0  0
   -0.4003    1.1967   -3.6307 H   0  0  0  0  0  0  0  0  0  0  0  0
    0.9771    0.7924   -2.5648 H   0  0  0  0  0  0  0  0  0  0  0  0
    2.3393   -1.4747   -1.8967 H   0  0  0  0  0  0  0  0  0  0  0  0
    4.4923   -0.6863   -0.9915 H   0  0  0  0  0  0  0  0  0  0  0  0
    4.6892   -0.0989    1.4113 H   0  0  0  0  0  0  0  0  0  0  0  0
    2.7511   -0.3492    2.9111 H   0  0  0  0  0  0  0  0  0  0  0  0
    0.5922   -1.3441    3.2325 H   0  0  0  0  0  0  0  0  0  0  0  0
   -0.3820   -1.8390    1.9535 H   0  0  0  0  0  0  0  0  0  0  0  0
  1  2  1  0
  2  3  2  0
  3  4  1  0
  4  5  1  0
  4  6  1  0
  6  7  1  0
  7  8  1  0
  8  9  2  0
  9 10  1  0
 10 11  2  0
 11 12  1  0
 12 13  2  0
 13 14  1  0
  6 15  2  0
 15 16  1  0
 16 17  2  0
 16 18  1  0
 15  2  1  0
 13  8  1  0
  1 19  1  0
  1 20  1  0
  1 21  1  0
  5 22  1  0
  5 23  1  0
  5 24  1  0
  9 25  1  0
 10 26  1  0
 11 27  1  0
 12 28  1  0
 14 29  1  0
 14 30  1  0
M  CHG  2  16   1  18  -1
M  END
$$$$
