
     RDKit          3D

 48 50  0  0  0  0  0  0  0  0999 V2000
    5.0823    0.8777    2.7411 C   0  0  0  0  0  0  0  0  0  0  0  0
    5.1102   -0.4341    1.9695 C   0  0  0  0  0  0  0  0  0  0  0  0
    4.6663   -0.2432    0.5828 N   0  0  0  0  0  0  0  0  0  0  0  0
    5.7228    0.0682   -0.3887 C   0  0  0  0  0  0  0  0  0  0  0  0
    6.2411   -1.1988   -1.0541 C   0  0  0  0  0  0  0  0  0  0  0  0
    3.3242   -0.3041    0.2200 C   0  0  0  0  0  0  0  0  0  0  0  0
    2.9031   -0.2305   -1.1199 C   0  0  0  0  0  0  0  0  0  0  0  0
    1.5514   -0.2942   -1.4943 C   0  0  0  0  0  0  0  0  0  0  0  0
    0.5594   -0.4302   -0.5287 C   0  0  0  0  0  0  0  0  0  0  0  0
   -0.8447   -0.5351   -0.9324 C   0  0  0  0  0  0  0  0  0  0  0  0
   -1.8257    0.3742   -0.7577 C   0  0  0  0  0  0  0  0  0  0  0  0
   -1.6262    1.6986   -0.1309 C   0  0  0  0  0  0  0  0  0  0  0  0
   -0.5425    2.1777    0.1768 O   0  0  0  0  0  0  0  0  0  0  0  0
   -2.7695    2.4132    0.0680 N   0  0  0  0  0  0  0  0  0  0  0  0
   -4.0056    2.1540   -0.4427 C   0  0  0  0  0  0  0  0  0  0  0  0
   -4.8652    3.0309   -0.3842 O   0  0  0  0  0  0  0  0  0  0  0  0
   -4.1870    0.9231   -1.0352 N   0  0  0  0  0  0  0  0  0  0  0  0
   -5.5295    0.5777   -1.4831 C   0  0  0  0  0  0  0  0  0  0  0  0
   -6.1980   -0.2424   -0.4341 C   0  0  0  0  0  0  0  0  0  0  0  0
   -6.3280   -1.6020   -0.2352 C   0  0  0  0  0  0  0  0  0  0  0  0
   -7.0746   -1.7617    0.9566 C   0  0  0  0  0  0  0  0  0  0  0  0
   -7.3510   -0.4930    1.4085 C   0  0  0  0  0  0  0  0  0  0  0  0
   -6.8208    0.4356    0.5723 O   0  0  0  0  0  0  0  0  0  0  0  0
   -3.1811   -0.0056   -1.2477 C   0  0  0  0  0  0  0  0  0  0  0  0
   -3.3751   -1.0798   -1.8178 O   0  0  0  0  0  0  0  0  0  0  0  0
    0.9380   -0.5152    0.8074 C   0  0  0  0  0  0  0  0  0  0  0  0
    2.2940   -0.4500    1.1662 C   0  0  0  0  0  0  0  0  0  0  0  0
    5.4359    0.7208    3.7649 H   0  0  0  0  0  0  0  0  0  0  0  0
    5.7293    1.6252    2.2701 H   0  0  0  0  0  0  0  0  0  0  0  0
    4.0735    1.2982    2.7917 H   0  0  0  0  0  0  0  0  0  0  0  0
    4.5236   -1.2042    2.4829 H   0  0  0  0  0  0  0  0  0  0  0  0
    6.1388   -0.8173    1.9764 H   0  0  0  0  0  0  0  0  0  0  0  0
    5.3900    0.7969   -1.1362 H   0  0  0  0  0  0  0  0  0  0  0  0
    6.5625    0.5569    0.1221 H   0  0  0  0  0  0  0  0  0  0  0  0
    7.0415   -0.9547   -1.7594 H   0  0  0  0  0  0  0  0  0  0  0  0
    5.4521   -1.7208   -1.6038 H   0  0  0  0  0  0  0  0  0  0  0  0
    6.6441   -1.8957   -0.3117 H   0  0  0  0  0  0  0  0  0  0  0  0
    3.6220   -0.1310   -1.9267 H   0  0  0  0  0  0  0  0  0  0  0  0
    1.2945   -0.2352   -2.5489 H   0  0  0  0  0  0  0  0  0  0  0  0
   -1.0620   -1.4833   -1.4252 H   0  0  0  0  0  0  0  0  0  0  0  0
   -2.6437    3.3398    0.4507 H   0  0  0  0  0  0  0  0  0  0  0  0
   -5.4750    0.0118   -2.4203 H   0  0  0  0  0  0  0  0  0  0  0  0
   -6.1197    1.4780   -1.6861 H   0  0  0  0  0  0  0  0  0  0  0  0
   -5.9242   -2.3782   -0.8720 H   0  0  0  0  0  0  0  0  0  0  0  0
   -7.3734   -2.6865    1.4297 H   0  0  0  0  0  0  0  0  0  0  0  0
   -7.8842   -0.1009    2.2635 H   0  0  0  0  0  0  0  0  0  0  0  0
    0.1925   -0.6260    1.5901 H   0  0  0  0  0  0  0  0  0  0  0  0
    2.5133   -0.5049    2.2275 H   0  0  0  0  0  0  0  0  0  0  0  0
  1  2  1  0
  2  3  1  0
  3  4  1  0
  4  5  1  0
  3  6  1  0
  6  7  2  0
  7  8  1  0
  8  9  2  0
  9 10  1  0
 10 11  2  3
 11 12  1  0
 12 13  2  0
 12 14  1  0
 14 15  1  0
 15 16  2  0
 15 17  1  0
 17 18  1  0
 18 19  1  0
 19 20  2  0
 20 21  1  0
 21 22  2  0
 22 23  1  0
 17 24  1  0
 24 25  2  0
  9 26  1  0
 26 27  2  0
 27  6  1  0
 24 11  1  0
 23 19  1  0
  1 28  1  0
  1 29  1  0
  1 30  1  0
  2 31  1  0
  2 32  1  0
  4 33  1  0
  4 34  1  0
  5 35  1  0
  5 36  1  0
  5 37  1  0
  7 38  1  0
  8 39  1  0
 10 40  1  0
 14 41  1  0
 18 42  1  0
 18 43  1  0
 20 44  1  0
 21 45  1  0
 22 46  1  0
 26 47  1  0
 27 48  1  0
M  END
$$$$
