
     RDKit          3D

 47 50  0  0  0  0  0  0  0  0999 V2000
   -1.0127    5.1813   -4.8653 C   0  0  0  0  0  0  0  0  0  0  0  0
   -0.2907    4.8881   -3.5817 C   0  0  0  0  0  0  0  0  0  0  0  0
   -0.0714    5.9084   -2.6502 C   0  0  0  0  0  0  0  0  0  0  0  0
    0.5716    5.6621   -1.4323 C   0  0  0  0  0  0  0  0  0  0  0  0
    0.9814    4.3516   -1.1684 C   0  0  0  0  0  0  0  0  0  0  0  0
    1.6267    3.8298   -0.0660 N   0  0  0  0  0  0  0  0  0  0  0  0
    1.8217    2.4906   -0.2432 C   0  0  0  0  0  0  0  0  0  0  0  0
    2.4508    1.5623    0.6479 C   0  0  0  0  0  0  0  0  0  0  0  0
    2.9014    1.8924    1.7392 O   0  0  0  0  0  0  0  0  0  0  0  0
    2.4875    0.2525    0.1310 N   0  0  0  0  0  0  0  0  0  0  0  0
    3.0954   -0.8043    0.9363 C   0  0  0  0  0  0  0  0  0  0  0  0
    2.0754   -1.5200    1.8230 C   0  0  0  0  0  0  0  0  0  0  0  0
    2.4155   -2.2214    2.7739 O   0  0  0  0  0  0  0  0  0  0  0  0
    0.7659   -1.4207    1.4029 N   0  0  0  0  0  0  0  0  0  0  0  0
   -0.3147   -2.1338    2.0508 C   0  0  0  0  0  0  0  0  0  0  0  0
   -0.3746   -3.6023    1.6247 C   0  0  0  0  0  0  0  0  0  0  0  0
   -1.5212   -4.3298    2.2825 C   0  0  0  0  0  0  0  0  0  0  0  0
   -2.7538   -4.4605    1.6282 C   0  0  0  0  0  0  0  0  0  0  0  0
   -3.8164   -5.1199    2.2501 C   0  0  0  0  0  0  0  0  0  0  0  0
   -3.6517   -5.6472    3.5293 C   0  0  0  0  0  0  0  0  0  0  0  0
   -4.9625   -6.4582    4.2942 Cl  0  0  0  0  0  0  0  0  0  0  0  0
   -2.4338   -5.5202    4.1931 C   0  0  0  0  0  0  0  0  0  0  0  0
   -1.3710   -4.8613    3.5716 C   0  0  0  0  0  0  0  0  0  0  0  0
    1.9307   -0.1365   -1.1063 N   0  0  0  0  0  0  0  0  0  0  0  0
    1.3826    0.7634   -1.8745 C   0  0  0  0  0  0  0  0  0  0  0  0
    1.3039    2.1356   -1.4630 C   0  0  0  0  0  0  0  0  0  0  0  0
    0.7680    3.3007   -2.0678 C   0  0  0  0  0  0  0  0  0  0  0  0
    0.1169    3.5756   -3.2877 C   0  0  0  0  0  0  0  0  0  0  0  0
   -0.8124    6.2040   -5.2015 H   0  0  0  0  0  0  0  0  0  0  0  0
   -0.6815    4.5074   -5.6624 H   0  0  0  0  0  0  0  0  0  0  0  0
   -2.0909    5.0594   -4.7236 H   0  0  0  0  0  0  0  0  0  0  0  0
   -0.4034    6.9224   -2.8680 H   0  0  0  0  0  0  0  0  0  0  0  0
    0.7396    6.4651   -0.7216 H   0  0  0  0  0  0  0  0  0  0  0  0
    1.9134    4.3530    0.7519 H   0  0  0  0  0  0  0  0  0  0  0  0
    3.8702   -0.3772    1.5810 H   0  0  0  0  0  0  0  0  0  0  0  0
    3.5536   -1.5390    0.2662 H   0  0  0  0  0  0  0  0  0  0  0  0
    0.6155   -0.9829    0.4972 H   0  0  0  0  0  0  0  0  0  0  0  0
   -1.2431   -1.6149    1.7877 H   0  0  0  0  0  0  0  0  0  0  0  0
   -0.1823   -2.0527    3.1361 H   0  0  0  0  0  0  0  0  0  0  0  0
   -0.4698   -3.6708    0.5332 H   0  0  0  0  0  0  0  0  0  0  0  0
    0.5653   -4.1140    1.8675 H   0  0  0  0  0  0  0  0  0  0  0  0
   -2.8944   -4.0519    0.6299 H   0  0  0  0  0  0  0  0  0  0  0  0
   -4.7670   -5.2185    1.7332 H   0  0  0  0  0  0  0  0  0  0  0  0
   -2.3040   -5.9293    5.1913 H   0  0  0  0  0  0  0  0  0  0  0  0
   -0.4227   -4.7640    4.0981 H   0  0  0  0  0  0  0  0  0  0  0  0
    0.9602    0.4696   -2.8483 H   0  0  0  0  0  0  0  0  0  0  0  0
   -0.0670    2.7758   -3.9998 H   0  0  0  0  0  0  0  0  0  0  0  0
  1  2  1  0
  2  3  2  0
  3  4  1  0
  4  5  2  0
  5  6  1  0
  6  7  1  0
  7  8  1  0
  8  9  2  0
  8 10  1  0
 10 11  1  0
 11 12  1  0
 12 13  2  0
 12 14  1  0
 14 15  1  0
 15 16  1  0
 16 17  1  0
 17 18  2  0
 18 19  1  0
 19 20  2  0
 20 21  1  0
 20 22  1  0
 22 23  2  0
 10 24  1  0
 24 25  2  0
 25 26  1  0
 26 27  1  0
 27 28  2  0
 28  2  1  0
 27  5  1  0
 26  7  2  0
 23 17  1  0
  1 29  1  0
  1 30  1  0
  1 31  1  0
  3 32  1  0
  4 33  1  0
  6 34  1  0
 11 35  1  0
 11 36  1  0
 14 37  1  0
 15 38  1  0
 15 39  1  0
 16 40  1  0
 16 41  1  0
 18 42  1  0
 19 43  1  0
 22 44  1  0
 23 45  1  0
 25 46  1  0
 28 47  1  0
M  END
$$$$
