
     RDKit          3D

 39 41  0  0  0  0  0  0  0  0999 V2000
   -7.1681    1.4082   -1.6917 C   0  0  0  0  0  0  0  0  0  0  0  0
   -6.6169    1.1007   -0.4175 O   0  0  0  0  0  0  0  0  0  0  0  0
   -5.2841    0.7995   -0.3762 C   0  0  0  0  0  0  0  0  0  0  0  0
   -4.4137    0.7716   -1.4643 C   0  0  0  0  0  0  0  0  0  0  0  0
   -3.0629    0.4478   -1.2799 C   0  0  0  0  0  0  0  0  0  0  0  0
   -2.5664    0.1517   -0.0015 C   0  0  0  0  0  0  0  0  0  0  0  0
   -1.1837   -0.1751    0.1767 N   0  0  0  0  0  0  0  0  0  0  0  0
   -0.6506   -1.0625    1.1187 C   0  0  0  0  0  0  0  0  0  0  0  0
   -1.4014   -1.6857    2.0254 O   0  0  0  0  0  0  0  0  0  0  0  0
    0.6995   -1.2054    0.8690 C   0  0  0  0  0  0  0  0  0  0  0  0
    1.0239   -0.3563   -0.2024 C   0  0  0  0  0  0  0  0  0  0  0  0
    2.2349   -0.1530   -0.7701 N   0  0  0  0  0  0  0  0  0  0  0  0
    3.4297   -0.5181   -0.1281 N   0  0  0  0  0  0  0  0  0  0  0  0
    4.5316    0.3114   -0.3250 C   0  0  0  0  0  0  0  0  0  0  0  0
    4.4161    1.4064   -0.8776 O   0  0  0  0  0  0  0  0  0  0  0  0
    5.7903   -0.2352    0.1483 C   0  0  0  0  0  0  0  0  0  0  0  0
    6.1208   -1.3684    0.8749 C   0  0  0  0  0  0  0  0  0  0  0  0
    7.5294   -1.3634    1.0312 C   0  0  0  0  0  0  0  0  0  0  0  0
    7.9786   -0.2314    0.3972 C   0  0  0  0  0  0  0  0  0  0  0  0
    6.9397    0.4567   -0.1365 O   0  0  0  0  0  0  0  0  0  0  0  0
   -0.1160    0.3166   -0.5842 C   0  0  0  0  0  0  0  0  0  0  0  0
   -0.2145    1.3098   -1.4743 O   0  0  0  0  0  0  0  0  0  0  0  0
   -3.4466    0.1641    1.0846 C   0  0  0  0  0  0  0  0  0  0  0  0
   -4.7931    0.4924    0.8939 C   0  0  0  0  0  0  0  0  0  0  0  0
   -8.2319    1.6234   -1.5526 H   0  0  0  0  0  0  0  0  0  0  0  0
   -6.7007    2.3015   -2.1190 H   0  0  0  0  0  0  0  0  0  0  0  0
   -7.0874    0.5547   -2.3730 H   0  0  0  0  0  0  0  0  0  0  0  0
   -4.7533    0.9819   -2.4731 H   0  0  0  0  0  0  0  0  0  0  0  0
   -2.4303    0.3813   -2.1633 H   0  0  0  0  0  0  0  0  0  0  0  0
   -0.8225   -2.2851    2.5286 H   0  0  0  0  0  0  0  0  0  0  0  0
    1.3740   -1.8502    1.4127 H   0  0  0  0  0  0  0  0  0  0  0  0
    2.3418    0.6923   -1.3506 H   0  0  0  0  0  0  0  0  0  0  0  0
    3.5599   -1.5136   -0.0012 H   0  0  0  0  0  0  0  0  0  0  0  0
    5.4350   -2.1096    1.2594 H   0  0  0  0  0  0  0  0  0  0  0  0
    8.1415   -2.0909    1.5459 H   0  0  0  0  0  0  0  0  0  0  0  0
    8.9554    0.2072    0.2451 H   0  0  0  0  0  0  0  0  0  0  0  0
   -0.9827    1.8600   -1.2371 H   0  0  0  0  0  0  0  0  0  0  0  0
   -3.1098   -0.0444    2.0962 H   0  0  0  0  0  0  0  0  0  0  0  0
   -5.4656    0.5094    1.7486 H   0  0  0  0  0  0  0  0  0  0  0  0
  1  2  1  0
  2  3  1  0
  3  4  2  0
  4  5  1  0
  5  6  2  0
  6  7  1  0
  7  8  1  0
  8  9  1  0
  8 10  2  0
 10 11  1  0
 11 12  1  0
 12 13  1  0
 13 14  1  0
 14 15  2  0
 14 16  1  0
 16 17  2  0
 17 18  1  0
 18 19  2  0
 19 20  1  0
 11 21  2  0
 21 22  1  0
  6 23  1  0
 23 24  2  0
 24  3  1  0
 21  7  1  0
 20 16  1  0
  1 25  1  0
  1 26  1  0
  1 27  1  0
  4 28  1  0
  5 29  1  0
  9 30  1  0
 10 31  1  0
 12 32  1  0
 13 33  1  0
 17 34  1  0
 18 35  1  0
 19 36  1  0
 22 37  1  0
 23 38  1  0
 24 39  1  0
M  END
$$$$
