
     RDKit          3D

 48 51  0  0  0  0  0  0  0  0999 V2000
    1.7698   -3.6784    1.1872 O   0  0  0  0  0  0  0  0  0  0  0  0
    2.3910   -2.5154    0.5795 S   0  0  0  0  0  6  0  0  0  0  0  0
    2.7812   -2.5567   -0.8150 O   0  0  0  0  0  0  0  0  0  0  0  0
    3.7982   -2.1031    1.6245 C   0  0  0  0  0  0  0  0  0  0  0  0
    4.4884   -0.8322    1.2119 C   0  0  0  0  0  0  0  0  0  0  0  0
    4.3198    0.3409    1.9632 C   0  0  0  0  0  0  0  0  0  0  0  0
    4.9643    1.5210    1.5901 C   0  0  0  0  0  0  0  0  0  0  0  0
    5.7899    1.5407    0.4683 C   0  0  0  0  0  0  0  0  0  0  0  0
    5.9741    0.3801   -0.2801 C   0  0  0  0  0  0  0  0  0  0  0  0
    5.3307   -0.8016    0.0907 C   0  0  0  0  0  0  0  0  0  0  0  0
    1.3163   -1.2176    0.7903 N   0  0  0  0  0  0  0  0  0  0  0  0
    1.5484    0.0003   -0.0558 C   0  0  0  0  0  0  0  0  0  0  0  0
    0.4712    0.1363   -1.1466 C   0  0  0  0  0  0  0  0  0  0  0  0
   -0.8920    0.3211   -0.6013 N   0  0  0  0  0  0  0  0  0  0  0  0
   -1.8925   -0.0607   -1.6099 C   0  0  0  0  0  0  0  0  0  0  0  0
   -3.2912    0.4187   -1.2752 C   0  0  0  0  0  0  0  0  0  0  0  0
   -4.3694   -0.4970   -1.2399 C   0  0  0  0  0  0  0  0  0  0  0  0
   -5.6688   -0.0689   -0.9475 C   0  0  0  0  0  0  0  0  0  0  0  0
   -5.8621    1.2730   -0.7019 C   0  0  0  0  0  0  0  0  0  0  0  0
   -4.8238    2.1728   -0.7386 C   0  0  0  0  0  0  0  0  0  0  0  0
   -3.5330    1.7811   -1.0238 C   0  0  0  0  0  0  0  0  0  0  0  0
   -5.2280    3.4432   -0.4683 O   0  0  0  0  0  0  0  0  0  0  0  0
   -6.6396    3.2381   -0.2550 C   0  0  0  0  0  0  0  0  0  0  0  0
   -7.0507    1.8629   -0.4036 O   0  0  0  0  0  0  0  0  0  0  0  0
   -1.0571   -0.4033    0.6780 C   0  0  0  0  0  0  0  0  0  0  0  0
   -0.1268   -1.6173    0.8526 C   0  0  0  0  0  0  0  0  0  0  0  0
    4.4949   -2.9469    1.5686 H   0  0  0  0  0  0  0  0  0  0  0  0
    3.4310   -2.0499    2.6549 H   0  0  0  0  0  0  0  0  0  0  0  0
    3.6776    0.3470    2.8423 H   0  0  0  0  0  0  0  0  0  0  0  0
    4.8240    2.4256    2.1766 H   0  0  0  0  0  0  0  0  0  0  0  0
    6.2933    2.4597    0.1790 H   0  0  0  0  0  0  0  0  0  0  0  0
    6.6204    0.3938   -1.1544 H   0  0  0  0  0  0  0  0  0  0  0  0
    5.4851   -1.6970   -0.5100 H   0  0  0  0  0  0  0  0  0  0  0  0
    2.5276   -0.0239   -0.5393 H   0  0  0  0  0  0  0  0  0  0  0  0
    1.5426    0.8781    0.6015 H   0  0  0  0  0  0  0  0  0  0  0  0
    0.5156   -0.7586   -1.7825 H   0  0  0  0  0  0  0  0  0  0  0  0
    0.7109    0.9975   -1.7808 H   0  0  0  0  0  0  0  0  0  0  0  0
   -1.6375    0.3916   -2.5779 H   0  0  0  0  0  0  0  0  0  0  0  0
   -1.8860   -1.1479   -1.7634 H   0  0  0  0  0  0  0  0  0  0  0  0
   -4.1960   -1.5529   -1.4389 H   0  0  0  0  0  0  0  0  0  0  0  0
   -6.4979   -0.7667   -0.9173 H   0  0  0  0  0  0  0  0  0  0  0  0
   -2.7268    2.5075   -1.0458 H   0  0  0  0  0  0  0  0  0  0  0  0
   -7.1952    3.8506   -0.9747 H   0  0  0  0  0  0  0  0  0  0  0  0
   -6.8928    3.5717    0.7579 H   0  0  0  0  0  0  0  0  0  0  0  0
   -0.8399    0.3133    1.4811 H   0  0  0  0  0  0  0  0  0  0  0  0
   -2.0941   -0.7176    0.8418 H   0  0  0  0  0  0  0  0  0  0  0  0
   -0.3169   -2.0699    1.8322 H   0  0  0  0  0  0  0  0  0  0  0  0
   -0.3484   -2.3587    0.0754 H   0  0  0  0  0  0  0  0  0  0  0  0
  1  2  2  0
  2  3  2  0
  2  4  1  0
  4  5  1  0
  5  6  2  0
  6  7  1  0
  7  8  2  0
  8  9  1  0
  9 10  2  0
  2 11  1  0
 11 12  1  0
 12 13  1  0
 13 14  1  0
 14 15  1  0
 15 16  1  0
 16 17  2  0
 17 18  1  0
 18 19  2  0
 19 20  1  0
 20 21  2  0
 20 22  1  0
 22 23  1  0
 23 24  1  0
 14 25  1  0
 25 26  1  0
 10  5  1  0
 26 11  1  0
 21 16  1  0
 24 19  1  0
  4 27  1  0
  4 28  1  0
  6 29  1  0
  7 30  1  0
  8 31  1  0
  9 32  1  0
 10 33  1  0
 12 34  1  0
 12 35  1  0
 13 36  1  0
 13 37  1  0
 15 38  1  0
 15 39  1  0
 17 40  1  0
 18 41  1  0
 21 42  1  0
 23 43  1  0
 23 44  1  0
 25 45  1  0
 25 46  1  0
 26 47  1  0
 26 48  1  0
M  END
$$$$
