
     RDKit          3D

 42 46  0  0  0  0  0  0  0  0999 V2000
    7.8800   -0.2010   -1.9843 N   0  0  0  0  0  0  0  0  0  0  0  0
    6.4934   -0.2766   -1.7799 C   0  0  0  0  0  0  0  0  0  0  0  0
    5.6289   -0.3328   -2.8808 C   0  0  0  0  0  0  0  0  0  0  0  0
    4.2346   -0.2976   -2.7359 C   0  0  0  0  0  0  0  0  0  0  0  0
    3.7494   -0.1592   -1.4364 C   0  0  0  0  0  0  0  0  0  0  0  0
    2.4809   -0.0814   -0.9238 N   0  0  0  0  0  0  0  0  0  0  0  0
    2.5588    0.0744    0.4436 C   0  0  0  0  0  0  0  0  0  0  0  0
    1.3991    0.1972    1.3356 C   0  0  0  0  0  0  0  0  0  0  0  0
    1.6081    0.4318    2.7008 C   0  0  0  0  0  0  0  0  0  0  0  0
    0.5325    0.5582    3.5802 C   0  0  0  0  0  0  0  0  0  0  0  0
   -0.7761    0.4488    3.1068 C   0  0  0  0  0  0  0  0  0  0  0  0
   -1.0216    0.2090    1.7487 C   0  0  0  0  0  0  0  0  0  0  0  0
   -2.3759    0.0831    1.1948 C   0  0  0  0  0  0  0  0  0  0  0  0
   -2.6728   -0.0333   -0.0894 N   0  0  0  0  0  0  0  0  0  0  0  0
   -4.0410   -0.1263   -0.1628 C   0  0  0  0  0  0  0  0  0  0  0  0
   -4.8754   -0.2679   -1.2821 C   0  0  0  0  0  0  0  0  0  0  0  0
   -6.2653   -0.3058   -1.1005 C   0  0  0  0  0  0  0  0  0  0  0  0
   -7.1066   -0.5604   -2.1943 N   0  0  0  0  0  0  0  0  0  0  0  0
   -6.7908   -0.3085    0.1981 C   0  0  0  0  0  0  0  0  0  0  0  0
   -5.9770   -0.1714    1.3318 C   0  0  0  0  0  0  0  0  0  0  0  0
   -4.6053   -0.0755    1.1026 C   0  0  0  0  0  0  0  0  0  0  0  0
   -3.5317    0.0560    1.9442 N   0  0  0  0  0  0  0  0  0  0  0  0
    0.0774    0.0875    0.8776 C   0  0  0  0  0  0  0  0  0  0  0  0
    3.8273    0.1032    0.8180 N   0  0  0  0  0  0  0  0  0  0  0  0
    4.5718   -0.0431   -0.3264 C   0  0  0  0  0  0  0  0  0  0  0  0
    5.9643   -0.0766   -0.4968 C   0  0  0  0  0  0  0  0  0  0  0  0
    8.1955   -0.6681   -2.8282 H   0  0  0  0  0  0  0  0  0  0  0  0
    8.4244   -0.4662   -1.1690 H   0  0  0  0  0  0  0  0  0  0  0  0
    6.0421   -0.4072   -3.8846 H   0  0  0  0  0  0  0  0  0  0  0  0
    3.5772   -0.3587   -3.5958 H   0  0  0  0  0  0  0  0  0  0  0  0
    1.6305   -0.1205   -1.4637 H   0  0  0  0  0  0  0  0  0  0  0  0
    2.6239    0.5204    3.0850 H   0  0  0  0  0  0  0  0  0  0  0  0
    0.7197    0.7446    4.6350 H   0  0  0  0  0  0  0  0  0  0  0  0
   -1.5851    0.5613    3.8214 H   0  0  0  0  0  0  0  0  0  0  0  0
   -4.4317   -0.3394   -2.2678 H   0  0  0  0  0  0  0  0  0  0  0  0
   -6.7266   -0.2458   -3.0820 H   0  0  0  0  0  0  0  0  0  0  0  0
   -8.0649   -0.2560   -2.0554 H   0  0  0  0  0  0  0  0  0  0  0  0
   -7.8636   -0.4190    0.3426 H   0  0  0  0  0  0  0  0  0  0  0  0
   -6.4003   -0.1588    2.3297 H   0  0  0  0  0  0  0  0  0  0  0  0
   -3.5832    0.1080    2.9490 H   0  0  0  0  0  0  0  0  0  0  0  0
   -0.1303   -0.1006   -0.1732 H   0  0  0  0  0  0  0  0  0  0  0  0
    6.6055    0.0461    0.3678 H   0  0  0  0  0  0  0  0  0  0  0  0
  1  2  1  0
  2  3  2  0
  3  4  1  0
  4  5  2  0
  5  6  1  0
  6  7  1  0
  7  8  1  0
  8  9  2  0
  9 10  1  0
 10 11  2  0
 11 12  1  0
 12 13  1  0
 13 14  2  0
 14 15  1  0
 15 16  2  0
 16 17  1  0
 17 18  1  0
 17 19  2  0
 19 20  1  0
 20 21  2  0
 21 22  1  0
 12 23  2  0
  7 24  2  0
 24 25  1  0
 25 26  2  0
 26  2  1  0
 25  5  1  0
 23  8  1  0
 22 13  1  0
 21 15  1  0
  1 27  1  0
  1 28  1  0
  3 29  1  0
  4 30  1  0
  6 31  1  0
  9 32  1  0
 10 33  1  0
 11 34  1  0
 16 35  1  0
 18 36  1  0
 18 37  1  0
 19 38  1  0
 20 39  1  0
 22 40  1  0
 23 41  1  0
 26 42  1  0
M  END
$$$$
