
     RDKit          3D

 31 33  0  0  0  0  0  0  0  0999 V2000
    4.8663    1.0991    2.1294 O   0  0  0  0  0  0  0  0  0  0  0  0
    4.3459    0.6296    1.1303 C   0  0  0  0  0  0  0  0  0  0  0  0
    4.9688    0.7028   -0.0685 O   0  0  0  0  0  0  0  0  0  0  0  0
    3.0452   -0.1441    1.0816 C   0  0  0  0  0  0  0  0  0  0  0  0
    2.4502   -0.1692   -0.2708 N   0  0  0  0  0  0  0  0  0  0  0  0
    1.6264    1.2155   -0.7605 S   0  0  0  0  0  6  0  0  0  0  0  0
    1.5914    1.1931   -2.2046 O   0  0  0  0  0  0  0  0  0  0  0  0
    2.1763    2.3374   -0.0323 O   0  0  0  0  0  0  0  0  0  0  0  0
   -0.0184    0.9022   -0.1686 C   0  0  0  0  0  0  0  0  0  0  0  0
   -0.5445    1.7568    0.8399 C   0  0  0  0  0  0  0  0  0  0  0  0
   -1.8357    1.5633    1.3564 C   0  0  0  0  0  0  0  0  0  0  0  0
   -2.5662    0.5171    0.8449 C   0  0  0  0  0  0  0  0  0  0  0  0
   -2.0510   -0.2967   -0.1305 C   0  0  0  0  0  0  0  0  0  0  0  0
   -2.9777   -1.2524   -0.4631 C   0  0  0  0  0  0  0  0  0  0  0  0
   -2.7086   -2.2003   -1.4266 C   0  0  0  0  0  0  0  0  0  0  0  0
   -1.4538   -2.1437   -2.0486 C   0  0  0  0  0  0  0  0  0  0  0  0
   -0.5042   -1.1530   -1.6969 C   0  0  0  0  0  0  0  0  0  0  0  0
   -0.7857   -0.1754   -0.6989 C   0  0  0  0  0  0  0  0  0  0  0  0
   -4.1705   -1.0132    0.3785 C   0  0  0  0  0  0  0  0  0  0  0  0
   -5.1989   -1.6572    0.3732 O   0  0  0  0  0  0  0  0  0  0  0  0
   -3.8518    0.0879    1.1587 N   0  0  0  0  0  0  0  0  0  0  0  0
    5.7573    1.2593    0.1092 H   0  0  0  0  0  0  0  0  0  0  0  0
    2.3378    0.2763    1.8025 H   0  0  0  0  0  0  0  0  0  0  0  0
    3.2621   -1.1763    1.3745 H   0  0  0  0  0  0  0  0  0  0  0  0
    3.0909   -0.4768   -1.0069 H   0  0  0  0  0  0  0  0  0  0  0  0
    0.0538    2.5821    1.2254 H   0  0  0  0  0  0  0  0  0  0  0  0
   -2.2333    2.2173    2.1245 H   0  0  0  0  0  0  0  0  0  0  0  0
   -3.4427   -2.9540   -1.6907 H   0  0  0  0  0  0  0  0  0  0  0  0
   -1.2037   -2.8708   -2.8194 H   0  0  0  0  0  0  0  0  0  0  0  0
    0.4518   -1.1512   -2.2172 H   0  0  0  0  0  0  0  0  0  0  0  0
   -4.4774    0.4944    1.8374 H   0  0  0  0  0  0  0  0  0  0  0  0
  1  2  2  0
  2  3  1  0
  2  4  1  0
  4  5  1  0
  5  6  1  0
  6  7  2  0
  6  8  2  0
  6  9  1  0
  9 10  2  0
 10 11  1  0
 11 12  2  0
 12 13  1  0
 13 14  2  0
 14 15  1  0
 15 16  2  0
 16 17  1  0
 17 18  2  0
 14 19  1  0
 19 20  2  0
 19 21  1  0
 18  9  1  0
 21 12  1  0
 18 13  1  0
  3 22  1  0
  4 23  1  0
  4 24  1  0
  5 25  1  0
 10 26  1  0
 11 27  1  0
 15 28  1  0
 16 29  1  0
 17 30  1  0
 21 31  1  0
M  END
$$$$
