
     RDKit          3D

 45 47  0  0  0  0  0  0  0  0999 V2000
    6.4829   -1.8008    0.6102 C   0  0  0  0  0  0  0  0  0  0  0  0
    5.2002   -1.0569    0.5184 C   0  0  0  0  0  0  0  0  0  0  0  0
    4.5712   -0.5696    1.6372 N   0  0  0  0  0  0  0  0  0  0  0  0
    3.4070    0.0771    1.2968 C   0  0  0  0  0  0  0  0  0  0  0  0
    2.4646    0.7219    2.1063 C   0  0  0  0  0  0  0  0  0  0  0  0
    1.3589    1.3046    1.4765 C   0  0  0  0  0  0  0  0  0  0  0  0
    1.2016    1.2355    0.0876 C   0  0  0  0  0  0  0  0  0  0  0  0
    0.0293    1.8480   -0.5988 C   0  0  0  0  0  0  0  0  0  0  0  0
    0.1094    2.2003   -1.7706 O   0  0  0  0  0  0  0  0  0  0  0  0
   -1.1296    1.9469    0.1462 N   0  0  0  0  0  0  0  0  0  0  0  0
   -2.3834    2.3110   -0.4912 C   0  0  0  0  0  0  0  0  0  0  0  0
   -3.0832    1.0819   -1.1039 C   0  0  0  0  0  0  0  0  0  0  0  0
   -3.3485    0.0109   -0.1158 N   0  0  0  0  0  0  0  0  0  0  0  0
   -4.3403    0.4353    0.8993 C   0  0  0  0  0  0  0  0  0  0  0  0
   -5.0879   -0.7585    1.5127 C   0  0  0  0  0  0  0  0  0  0  0  0
   -5.8745   -1.4684    0.5468 O   0  0  0  0  0  0  0  0  0  0  0  0
   -5.3145   -1.4287   -0.7732 C   0  0  0  0  0  0  0  0  0  0  0  0
   -3.7899   -1.2374   -0.7793 C   0  0  0  0  0  0  0  0  0  0  0  0
    2.1698    0.5975   -0.7043 C   0  0  0  0  0  0  0  0  0  0  0  0
    3.2903    0.0022   -0.0894 C   0  0  0  0  0  0  0  0  0  0  0  0
    4.4284   -0.7150   -0.5806 C   0  0  0  0  0  0  0  0  0  0  0  0
    4.7094   -1.0244   -2.0089 C   0  0  0  0  0  0  0  0  0  0  0  0
    7.2697   -1.2703    0.0643 H   0  0  0  0  0  0  0  0  0  0  0  0
    6.3748   -2.8004    0.1769 H   0  0  0  0  0  0  0  0  0  0  0  0
    6.8105   -1.9166    1.6486 H   0  0  0  0  0  0  0  0  0  0  0  0
    4.9118   -0.6676    2.5833 H   0  0  0  0  0  0  0  0  0  0  0  0
    2.5867    0.7798    3.1830 H   0  0  0  0  0  0  0  0  0  0  0  0
    0.6359    1.8356    2.0902 H   0  0  0  0  0  0  0  0  0  0  0  0
   -1.2203    1.3202    0.9357 H   0  0  0  0  0  0  0  0  0  0  0  0
   -3.0099    2.7838    0.2716 H   0  0  0  0  0  0  0  0  0  0  0  0
   -2.1930    3.0540   -1.2734 H   0  0  0  0  0  0  0  0  0  0  0  0
   -4.0109    1.3950   -1.5990 H   0  0  0  0  0  0  0  0  0  0  0  0
   -2.4215    0.6855   -1.8849 H   0  0  0  0  0  0  0  0  0  0  0  0
   -3.8270    0.9868    1.6943 H   0  0  0  0  0  0  0  0  0  0  0  0
   -5.0864    1.1034    0.4492 H   0  0  0  0  0  0  0  0  0  0  0  0
   -4.3888   -1.4642    1.9768 H   0  0  0  0  0  0  0  0  0  0  0  0
   -5.7683   -0.4129    2.2976 H   0  0  0  0  0  0  0  0  0  0  0  0
   -5.5769   -2.3700   -1.2668 H   0  0  0  0  0  0  0  0  0  0  0  0
   -5.8083   -0.6223   -1.3278 H   0  0  0  0  0  0  0  0  0  0  0  0
   -3.4044   -1.3129   -1.8028 H   0  0  0  0  0  0  0  0  0  0  0  0
   -3.3374   -2.0683   -0.2231 H   0  0  0  0  0  0  0  0  0  0  0  0
    2.0546    0.5584   -1.7843 H   0  0  0  0  0  0  0  0  0  0  0  0
    3.9219   -1.6631   -2.4211 H   0  0  0  0  0  0  0  0  0  0  0  0
    4.7514   -0.1024   -2.5975 H   0  0  0  0  0  0  0  0  0  0  0  0
    5.6643   -1.5445   -2.1309 H   0  0  0  0  0  0  0  0  0  0  0  0
  1  2  1  0
  2  3  1  0
  3  4  1  0
  4  5  2  0
  5  6  1  0
  6  7  2  0
  7  8  1  0
  8  9  2  0
  8 10  1  0
 10 11  1  0
 11 12  1  0
 12 13  1  0
 13 14  1  0
 14 15  1  0
 15 16  1  0
 16 17  1  0
 17 18  1  0
  7 19  1  0
 19 20  2  0
 20 21  1  0
 21 22  1  0
 21  2  2  0
 20  4  1  0
 18 13  1  0
  1 23  1  0
  1 24  1  0
  1 25  1  0
  3 26  1  0
  5 27  1  0
  6 28  1  0
 10 29  1  0
 11 30  1  0
 11 31  1  0
 12 32  1  0
 12 33  1  0
 14 34  1  0
 14 35  1  0
 15 36  1  0
 15 37  1  0
 17 38  1  0
 17 39  1  0
 18 40  1  0
 18 41  1  0
 19 42  1  0
 22 43  1  0
 22 44  1  0
 22 45  1  0
M  END
$$$$
