
     RDKit          3D

 65 68  0  0  0  0  0  0  0  0999 V2000
  -10.3708    0.1779   -1.6607 C   0  0  0  0  0  0  0  0  0  0  0  0
   -9.0873    0.1591   -0.8855 C   0  0  0  0  0  0  0  0  0  0  0  0
   -8.7015   -0.9807   -0.1711 C   0  0  0  0  0  0  0  0  0  0  0  0
   -7.5221   -0.9833    0.5777 C   0  0  0  0  0  0  0  0  0  0  0  0
   -6.7161    0.1601    0.6357 C   0  0  0  0  0  0  0  0  0  0  0  0
   -5.4353    0.1610    1.4320 C   0  0  0  0  0  0  0  0  0  0  0  0
   -4.2092   -0.0289    0.5356 C   0  0  0  0  0  0  0  0  0  0  0  0
   -2.9764   -0.0979    1.2973 N   0  0  0  0  0  0  0  0  0  0  0  0
   -2.3731    1.0328    1.8043 C   0  0  0  0  0  0  0  0  0  0  0  0
   -2.8325    2.1604    1.6684 O   0  0  0  0  0  0  0  0  0  0  0  0
   -1.1144    0.7270    2.5927 C   0  0  0  0  0  0  0  0  0  0  0  0
   -0.2819    1.9698    2.9054 C   0  0  0  0  0  0  0  0  0  0  0  0
    0.3217    2.6431    1.6688 C   0  0  0  0  0  0  0  0  0  0  0  0
    1.2255    1.7679    0.9280 N   0  0  0  0  0  0  0  0  0  0  0  0
    0.6825    1.1613   -0.2103 N   0  0  0  0  0  0  0  0  0  0  0  0
    1.3969    0.3694   -0.9591 C   0  0  0  0  0  0  0  0  0  0  0  0
    0.7545   -0.2280   -2.1783 C   0  0  0  0  0  0  0  0  0  0  0  0
    2.7625    0.0885   -0.5905 C   0  0  0  0  0  0  0  0  0  0  0  0
    3.7502   -0.7383   -1.1004 C   0  0  0  0  0  0  0  0  0  0  0  0
    3.6782   -1.7543   -2.1822 C   0  0  0  0  0  0  0  0  0  0  0  0
    4.8880   -0.4790   -0.3251 N   0  0  0  0  0  0  0  0  0  0  0  0
    6.2484   -0.8821   -0.5037 C   0  0  0  0  0  0  0  0  0  0  0  0
    6.7463   -1.3236   -1.7340 C   0  0  0  0  0  0  0  0  0  0  0  0
    8.0892   -1.7017   -1.8606 C   0  0  0  0  0  0  0  0  0  0  0  0
    8.9560   -1.6442   -0.7649 C   0  0  0  0  0  0  0  0  0  0  0  0
   10.4011   -2.0164   -0.9160 C   0  0  0  0  0  0  0  0  0  0  0  0
    8.4707   -1.1665    0.4547 C   0  0  0  0  0  0  0  0  0  0  0  0
    7.1319   -0.7865    0.5849 C   0  0  0  0  0  0  0  0  0  0  0  0
    4.5738    0.2858    0.7559 N   0  0  0  0  0  0  0  0  0  0  0  0
    3.3156    0.6805    0.5501 C   0  0  0  0  0  0  0  0  0  0  0  0
    2.5433    1.5817    1.3961 C   0  0  0  0  0  0  0  0  0  0  0  0
    2.9870    2.1123    2.4120 O   0  0  0  0  0  0  0  0  0  0  0  0
   -7.1080    1.3042   -0.0713 C   0  0  0  0  0  0  0  0  0  0  0  0
   -8.2861    1.3050   -0.8209 C   0  0  0  0  0  0  0  0  0  0  0  0
  -10.6725   -0.8350   -1.9486 H   0  0  0  0  0  0  0  0  0  0  0  0
  -10.2580    0.7590   -2.5822 H   0  0  0  0  0  0  0  0  0  0  0  0
  -11.1672    0.6217   -1.0550 H   0  0  0  0  0  0  0  0  0  0  0  0
   -9.3185   -1.8767   -0.1908 H   0  0  0  0  0  0  0  0  0  0  0  0
   -7.2434   -1.8833    1.1205 H   0  0  0  0  0  0  0  0  0  0  0  0
   -5.3624    1.1004    1.9951 H   0  0  0  0  0  0  0  0  0  0  0  0
   -5.4668   -0.6328    2.1902 H   0  0  0  0  0  0  0  0  0  0  0  0
   -4.1252    0.7940   -0.1845 H   0  0  0  0  0  0  0  0  0  0  0  0
   -4.2854   -0.9634   -0.0324 H   0  0  0  0  0  0  0  0  0  0  0  0
   -2.5816   -1.0058    1.5042 H   0  0  0  0  0  0  0  0  0  0  0  0
   -1.4315    0.2690    3.5378 H   0  0  0  0  0  0  0  0  0  0  0  0
   -0.5154   -0.0168    2.0560 H   0  0  0  0  0  0  0  0  0  0  0  0
    0.5224    1.6816    3.5932 H   0  0  0  0  0  0  0  0  0  0  0  0
   -0.9002    2.7044    3.4362 H   0  0  0  0  0  0  0  0  0  0  0  0
    0.8898    3.5247    1.9898 H   0  0  0  0  0  0  0  0  0  0  0  0
   -0.4572    3.0015    0.9869 H   0  0  0  0  0  0  0  0  0  0  0  0
    1.4136   -0.1254   -3.0442 H   0  0  0  0  0  0  0  0  0  0  0  0
    0.5426   -1.2851   -1.9979 H   0  0  0  0  0  0  0  0  0  0  0  0
   -0.1885    0.2811   -2.3987 H   0  0  0  0  0  0  0  0  0  0  0  0
    3.9361   -1.3121   -3.1486 H   0  0  0  0  0  0  0  0  0  0  0  0
    2.6706   -2.1692   -2.2636 H   0  0  0  0  0  0  0  0  0  0  0  0
    4.3298   -2.6096   -1.9830 H   0  0  0  0  0  0  0  0  0  0  0  0
    6.1432   -1.3421   -2.6331 H   0  0  0  0  0  0  0  0  0  0  0  0
    8.4596   -2.0281   -2.8311 H   0  0  0  0  0  0  0  0  0  0  0  0
   10.5211   -2.8142   -1.6562 H   0  0  0  0  0  0  0  0  0  0  0  0
   10.9804   -1.1453   -1.2369 H   0  0  0  0  0  0  0  0  0  0  0  0
   10.8114   -2.3865    0.0294 H   0  0  0  0  0  0  0  0  0  0  0  0
    9.1289   -1.0856    1.3176 H   0  0  0  0  0  0  0  0  0  0  0  0
    6.7899   -0.4239    1.5541 H   0  0  0  0  0  0  0  0  0  0  0  0
   -6.4984    2.2060   -0.0362 H   0  0  0  0  0  0  0  0  0  0  0  0
   -8.5759    2.2084   -1.3533 H   0  0  0  0  0  0  0  0  0  0  0  0
  1  2  1  0
  2  3  2  0
  3  4  1  0
  4  5  2  0
  5  6  1  0
  6  7  1  0
  7  8  1  0
  8  9  1  0
  9 10  2  0
  9 11  1  0
 11 12  1  0
 12 13  1  0
 13 14  1  0
 14 15  1  0
 15 16  2  0
 16 17  1  0
 16 18  1  0
 18 19  2  0
 19 20  1  0
 19 21  1  0
 21 22  1  0
 22 23  2  0
 23 24  1  0
 24 25  2  0
 25 26  1  0
 25 27  1  0
 27 28  2  0
 21 29  1  0
 29 30  2  0
 30 31  1  0
 31 32  2  0
  5 33  1  0
 33 34  2  0
 34  2  1  0
 31 14  1  0
 30 18  1  0
 28 22  1  0
  1 35  1  0
  1 36  1  0
  1 37  1  0
  3 38  1  0
  4 39  1  0
  6 40  1  0
  6 41  1  0
  7 42  1  0
  7 43  1  0
  8 44  1  0
 11 45  1  0
 11 46  1  0
 12 47  1  0
 12 48  1  0
 13 49  1  0
 13 50  1  0
 17 51  1  0
 17 52  1  0
 17 53  1  0
 20 54  1  0
 20 55  1  0
 20 56  1  0
 23 57  1  0
 24 58  1  0
 26 59  1  0
 26 60  1  0
 26 61  1  0
 27 62  1  0
 28 63  1  0
 33 64  1  0
 34 65  1  0
M  END
$$$$
