
     RDKit          3D

 46 49  0  0  0  0  0  0  0  0999 V2000
    6.4901   -1.0860   -0.0011 C   0  0  0  0  0  0  0  0  0  0  0  0
    5.3244   -1.9796    0.3791 C   0  0  0  0  0  0  0  0  0  0  0  0
    4.0822   -1.3060    0.1310 O   0  0  0  0  0  0  0  0  0  0  0  0
    3.6261   -0.5068    1.1349 C   0  0  0  0  0  0  0  0  0  0  0  0
    4.2074   -0.3534    2.2021 O   0  0  0  0  0  0  0  0  0  0  0  0
    2.4260    0.1008    0.8108 N   0  0  0  0  0  0  0  0  0  0  0  0
    1.7502    0.9366    1.7971 C   0  0  0  0  0  0  0  0  0  0  0  0
    0.2417    0.7481    1.7125 C   0  0  0  0  0  0  0  0  0  0  0  0
   -0.3127    1.1731    0.3302 C   0  0  0  0  0  0  0  0  0  0  0  0
    0.7654    1.0223   -0.7806 C   0  0  0  0  0  0  0  0  0  0  0  0
    1.7828   -0.0752   -0.4857 C   0  0  0  0  0  0  0  0  0  0  0  0
   -0.6783    2.6255    0.3363 N   0  0  0  0  0  0  0  0  0  0  0  0
   -1.9694    2.9126    1.0039 C   0  0  0  0  0  0  0  0  0  0  0  0
   -3.1754    2.2572    0.2987 C   0  0  0  0  0  0  0  0  0  0  0  0
   -2.8570    0.8402   -0.0213 C   0  0  0  0  0  0  0  0  0  0  0  0
   -1.5546    0.3742   -0.0085 C   0  0  0  0  0  0  0  0  0  0  0  0
   -1.5975   -0.9625   -0.3122 N   0  0  0  0  0  0  0  0  0  0  0  0
   -2.8961   -1.3553   -0.5556 C   0  0  0  0  0  0  0  0  0  0  0  0
   -3.4051   -2.6107   -0.9096 C   0  0  0  0  0  0  0  0  0  0  0  0
   -4.7871   -2.7220   -1.0902 C   0  0  0  0  0  0  0  0  0  0  0  0
   -5.6245   -1.6217   -0.9208 C   0  0  0  0  0  0  0  0  0  0  0  0
   -5.1002   -0.3739   -0.5642 C   0  0  0  0  0  0  0  0  0  0  0  0
   -3.7110   -0.2362   -0.3784 C   0  0  0  0  0  0  0  0  0  0  0  0
    6.4026   -0.7630   -1.0437 H   0  0  0  0  0  0  0  0  0  0  0  0
    7.4401   -1.6125    0.1268 H   0  0  0  0  0  0  0  0  0  0  0  0
    6.5077   -0.1797    0.6124 H   0  0  0  0  0  0  0  0  0  0  0  0
    5.3309   -2.8772   -0.2480 H   0  0  0  0  0  0  0  0  0  0  0  0
    5.3972   -2.3158    1.4197 H   0  0  0  0  0  0  0  0  0  0  0  0
    2.0990    0.6862    2.8047 H   0  0  0  0  0  0  0  0  0  0  0  0
    2.0319    1.9780    1.6032 H   0  0  0  0  0  0  0  0  0  0  0  0
   -0.2373    1.2984    2.5300 H   0  0  0  0  0  0  0  0  0  0  0  0
    0.0176   -0.3103    1.9056 H   0  0  0  0  0  0  0  0  0  0  0  0
    0.3058    0.8513   -1.7627 H   0  0  0  0  0  0  0  0  0  0  0  0
    1.3364    1.9581   -0.8762 H   0  0  0  0  0  0  0  0  0  0  0  0
    2.5469   -0.0823   -1.2712 H   0  0  0  0  0  0  0  0  0  0  0  0
    1.3133   -1.0640   -0.4846 H   0  0  0  0  0  0  0  0  0  0  0  0
   -0.7812    2.9172   -0.6372 H   0  0  0  0  0  0  0  0  0  0  0  0
   -1.9308    2.5984    2.0531 H   0  0  0  0  0  0  0  0  0  0  0  0
   -2.1167    3.9986    1.0193 H   0  0  0  0  0  0  0  0  0  0  0  0
   -4.0596    2.3226    0.9418 H   0  0  0  0  0  0  0  0  0  0  0  0
   -3.3954    2.7929   -0.6326 H   0  0  0  0  0  0  0  0  0  0  0  0
   -0.8072   -1.5897   -0.3442 H   0  0  0  0  0  0  0  0  0  0  0  0
   -2.7571   -3.4710   -1.0402 H   0  0  0  0  0  0  0  0  0  0  0  0
   -5.2142   -3.6836   -1.3657 H   0  0  0  0  0  0  0  0  0  0  0  0
   -6.6965   -1.7312   -1.0651 H   0  0  0  0  0  0  0  0  0  0  0  0
   -5.7607    0.4775   -0.4323 H   0  0  0  0  0  0  0  0  0  0  0  0
  1  2  1  0
  2  3  1  0
  3  4  1  0
  4  5  2  0
  4  6  1  0
  6  7  1  0
  7  8  1  0
  8  9  1  0
  9 10  1  0
 10 11  1  0
  9 12  1  0
 12 13  1  0
 13 14  1  0
 14 15  1  0
 15 16  2  0
 16 17  1  0
 17 18  1  0
 18 19  2  0
 19 20  1  0
 20 21  2  0
 21 22  1  0
 22 23  2  0
 11  6  1  0
 23 15  1  0
 16  9  1  0
 23 18  1  0
  1 24  1  0
  1 25  1  0
  1 26  1  0
  2 27  1  0
  2 28  1  0
  7 29  1  0
  7 30  1  0
  8 31  1  0
  8 32  1  0
 10 33  1  0
 10 34  1  0
 11 35  1  0
 11 36  1  0
 12 37  1  0
 13 38  1  0
 13 39  1  0
 14 40  1  0
 14 41  1  0
 17 42  1  0
 19 43  1  0
 20 44  1  0
 21 45  1  0
 22 46  1  0
M  END
$$$$
