
     RDKit          3D

 53 56  0  0  0  0  0  0  0  0999 V2000
    6.2128    1.2889   -1.9932 C   0  0  0  0  0  0  0  0  0  0  0  0
    4.9092    1.0875   -2.5234 O   0  0  0  0  0  0  0  0  0  0  0  0
    3.9368    0.7850   -1.5193 C   0  0  0  0  0  0  0  0  0  0  0  0
    3.9354   -0.7022   -1.1751 C   0  0  0  0  0  0  0  0  0  0  0  0
    2.9322   -1.0361   -0.1737 N   0  0  0  0  0  0  0  0  0  0  0  0
    3.1545   -1.0513    1.1873 C   0  0  0  0  0  0  0  0  0  0  0  0
    4.4586   -0.7112    1.8198 C   0  0  0  0  0  0  0  0  0  0  0  0
    1.9769   -1.4394    1.7919 C   0  0  0  0  0  0  0  0  0  0  0  0
    1.0005   -1.6690    0.7829 C   0  0  0  0  0  0  0  0  0  0  0  0
   -0.3967   -2.1062    0.9496 C   0  0  0  0  0  0  0  0  0  0  0  0
   -1.0343   -2.5711    0.0012 O   0  0  0  0  0  0  0  0  0  0  0  0
   -1.0226   -2.0016    2.3354 C   0  0  0  0  0  0  0  0  0  0  0  0
   -2.7259   -1.3487    2.2578 S   0  0  0  0  0  0  0  0  0  0  0  0
   -2.4068    0.1855    1.4344 C   0  0  0  0  0  0  0  0  0  0  0  0
   -1.2312    0.8090    1.6594 N   0  0  0  0  0  0  0  0  0  0  0  0
   -0.9707    1.9546    1.0038 C   0  0  0  0  0  0  0  0  0  0  0  0
    0.3552    2.5970    1.2755 C   0  0  0  0  0  0  0  0  0  0  0  0
   -1.7891    2.5794    0.1495 N   0  0  0  0  0  0  0  0  0  0  0  0
   -2.9522    1.9343   -0.0391 C   0  0  0  0  0  0  0  0  0  0  0  0
   -4.1305    2.5762   -1.1179 S   0  0  0  0  0  0  0  0  0  0  0  0
   -5.1428    1.2854   -0.8065 C   0  0  0  0  0  0  0  0  0  0  0  0
   -4.6402    0.3808    0.0890 C   0  0  0  0  0  0  0  0  0  0  0  0
   -3.3455    0.7373    0.5595 C   0  0  0  0  0  0  0  0  0  0  0  0
   -5.5965   -0.7372    0.3013 C   0  0  0  0  0  0  0  0  0  0  0  0
   -6.9054   -0.1888   -0.3494 C   0  0  0  0  0  0  0  0  0  0  0  0
   -6.4819    0.9405   -1.3357 C   0  0  0  0  0  0  0  0  0  0  0  0
    1.6226   -1.3926   -0.4333 C   0  0  0  0  0  0  0  0  0  0  0  0
    1.0400   -1.4507   -1.8095 C   0  0  0  0  0  0  0  0  0  0  0  0
    6.2152    2.1308   -1.2943 H   0  0  0  0  0  0  0  0  0  0  0  0
    6.5790    0.3865   -1.4966 H   0  0  0  0  0  0  0  0  0  0  0  0
    6.8863    1.5247   -2.8217 H   0  0  0  0  0  0  0  0  0  0  0  0
    2.9618    1.0691   -1.9301 H   0  0  0  0  0  0  0  0  0  0  0  0
    4.0946    1.4109   -0.6327 H   0  0  0  0  0  0  0  0  0  0  0  0
    4.9120   -1.0235   -0.7995 H   0  0  0  0  0  0  0  0  0  0  0  0
    3.7583   -1.3129   -2.0673 H   0  0  0  0  0  0  0  0  0  0  0  0
    4.3678   -0.6896    2.9108 H   0  0  0  0  0  0  0  0  0  0  0  0
    5.2180   -1.4561    1.5622 H   0  0  0  0  0  0  0  0  0  0  0  0
    4.8067    0.2745    1.4965 H   0  0  0  0  0  0  0  0  0  0  0  0
    1.8498   -1.5545    2.8611 H   0  0  0  0  0  0  0  0  0  0  0  0
   -0.4420   -1.3579    3.0001 H   0  0  0  0  0  0  0  0  0  0  0  0
   -1.0452   -3.0041    2.7739 H   0  0  0  0  0  0  0  0  0  0  0  0
    0.3531    3.0397    2.2759 H   0  0  0  0  0  0  0  0  0  0  0  0
    1.1547    1.8522    1.2186 H   0  0  0  0  0  0  0  0  0  0  0  0
    0.5677    3.3836    0.5448 H   0  0  0  0  0  0  0  0  0  0  0  0
   -5.2570   -1.6369   -0.2225 H   0  0  0  0  0  0  0  0  0  0  0  0
   -5.7583   -0.9675    1.3577 H   0  0  0  0  0  0  0  0  0  0  0  0
   -7.5390    0.2434    0.4366 H   0  0  0  0  0  0  0  0  0  0  0  0
   -7.4856   -0.9755   -0.8417 H   0  0  0  0  0  0  0  0  0  0  0  0
   -6.4087    0.5515   -2.3564 H   0  0  0  0  0  0  0  0  0  0  0  0
   -7.1875    1.7754   -1.3093 H   0  0  0  0  0  0  0  0  0  0  0  0
    0.0175   -1.0593   -1.8127 H   0  0  0  0  0  0  0  0  0  0  0  0
    1.0174   -2.4862   -2.1638 H   0  0  0  0  0  0  0  0  0  0  0  0
    1.6010   -0.8536   -2.5326 H   0  0  0  0  0  0  0  0  0  0  0  0
  1  2  1  0
  2  3  1  0
  3  4  1  0
  4  5  1  0
  5  6  1  0
  6  7  1  0
  6  8  2  0
  8  9  1  0
  9 10  1  0
 10 11  2  0
 10 12  1  0
 12 13  1  0
 13 14  1  0
 14 15  2  0
 15 16  1  0
 16 17  1  0
 16 18  2  0
 18 19  1  0
 19 20  1  0
 20 21  1  0
 21 22  2  0
 22 23  1  0
 22 24  1  0
 24 25  1  0
 25 26  1  0
  9 27  2  0
 27 28  1  0
 27  5  1  0
 23 14  1  0
 23 19  2  0
 26 21  1  0
  1 29  1  0
  1 30  1  0
  1 31  1  0
  3 32  1  0
  3 33  1  0
  4 34  1  0
  4 35  1  0
  7 36  1  0
  7 37  1  0
  7 38  1  0
  8 39  1  0
 12 40  1  0
 12 41  1  0
 17 42  1  0
 17 43  1  0
 17 44  1  0
 24 45  1  0
 24 46  1  0
 25 47  1  0
 25 48  1  0
 26 49  1  0
 26 50  1  0
 28 51  1  0
 28 52  1  0
 28 53  1  0
M  END
$$$$
