
     RDKit          3D

 35 37  0  0  0  0  0  0  0  0999 V2000
   -1.4194   -2.1507    0.1770 C   0  0  0  0  0  0  0  0  0  0  0  0
   -1.1382   -0.8706   -0.6007 C   0  0  0  0  0  0  0  0  0  0  0  0
   -1.3901    0.3139    0.2196 N   0  0  0  0  0  0  0  0  0  0  0  0
   -0.4428    1.2092    0.7721 C   0  0  0  0  0  0  0  0  0  0  0  0
    0.8892    1.0858    1.0090 C   0  0  0  0  0  0  0  0  0  0  0  0
    1.9343    2.3806    1.5884 S   0  0  0  0  0  0  0  0  0  0  0  0
    3.4136    1.4654    1.4033 C   0  0  0  0  0  0  0  0  0  0  0  0
    4.9270    2.0739    1.7478 S   0  0  0  0  0  0  0  0  0  0  0  0
    3.0817    0.2035    0.9784 N   0  0  0  0  0  0  0  0  0  0  0  0
    4.0501   -0.8003    0.7677 N   0  0  0  0  0  0  0  0  0  0  0  0
    4.4601   -0.9741   -0.5415 C   0  0  0  0  0  0  0  0  0  0  0  0
    5.2655   -2.2248   -0.7638 C   0  0  0  0  0  0  0  0  0  0  0  0
    4.1896   -0.1959   -1.4519 O   0  0  0  0  0  0  0  0  0  0  0  0
    1.7443   -0.1324    0.8463 C   0  0  0  0  0  0  0  0  0  0  0  0
    1.3588   -1.2866    0.7167 O   0  0  0  0  0  0  0  0  0  0  0  0
   -1.2308    2.7876    1.2511 S   0  0  0  0  0  0  0  0  0  0  0  0
   -2.8032    2.1542    0.7298 C   0  0  0  0  0  0  0  0  0  0  0  0
   -4.0089    2.8424    0.7996 C   0  0  0  0  0  0  0  0  0  0  0  0
   -5.1615    2.2192    0.3289 C   0  0  0  0  0  0  0  0  0  0  0  0
   -5.0904    0.9284   -0.2023 C   0  0  0  0  0  0  0  0  0  0  0  0
   -3.8669    0.2477   -0.2674 C   0  0  0  0  0  0  0  0  0  0  0  0
   -2.7028    0.8557    0.2010 C   0  0  0  0  0  0  0  0  0  0  0  0
   -2.4866   -2.2683    0.3870 H   0  0  0  0  0  0  0  0  0  0  0  0
   -1.0979   -3.0218   -0.4024 H   0  0  0  0  0  0  0  0  0  0  0  0
   -0.9039   -2.1667    1.1416 H   0  0  0  0  0  0  0  0  0  0  0  0
   -1.7484   -0.8577   -1.5132 H   0  0  0  0  0  0  0  0  0  0  0  0
   -0.1163   -0.8671   -0.9889 H   0  0  0  0  0  0  0  0  0  0  0  0
    3.9198   -1.6306    1.3384 H   0  0  0  0  0  0  0  0  0  0  0  0
    6.1540   -1.9783   -1.3516 H   0  0  0  0  0  0  0  0  0  0  0  0
    5.5921   -2.6654    0.1824 H   0  0  0  0  0  0  0  0  0  0  0  0
    4.6544   -2.9526   -1.3037 H   0  0  0  0  0  0  0  0  0  0  0  0
   -4.0532    3.8465    1.2094 H   0  0  0  0  0  0  0  0  0  0  0  0
   -6.1164    2.7371    0.3731 H   0  0  0  0  0  0  0  0  0  0  0  0
   -5.9944    0.4464   -0.5680 H   0  0  0  0  0  0  0  0  0  0  0  0
   -3.8623   -0.7536   -0.6826 H   0  0  0  0  0  0  0  0  0  0  0  0
  1  2  1  0
  2  3  1  0
  3  4  1  0
  4  5  2  3
  5  6  1  0
  6  7  1  0
  7  8  2  0
  7  9  1  0
  9 10  1  0
 10 11  1  0
 11 12  1  0
 11 13  2  0
  9 14  1  0
 14 15  2  0
  4 16  1  0
 16 17  1  0
 17 18  2  0
 18 19  1  0
 19 20  2  0
 20 21  1  0
 21 22  2  0
 22  3  1  0
 14  5  1  0
 22 17  1  0
  1 23  1  0
  1 24  1  0
  1 25  1  0
  2 26  1  0
  2 27  1  0
 10 28  1  0
 12 29  1  0
 12 30  1  0
 12 31  1  0
 18 32  1  0
 19 33  1  0
 20 34  1  0
 21 35  1  0
M  END
$$$$
