
     RDKit          3D

 36 38  0  0  0  0  0  0  0  0999 V2000
   -1.5137   -3.2291    2.4458 C   0  0  0  0  0  0  0  0  0  0  0  0
   -1.1485   -2.0820    1.5264 C   0  0  0  0  0  0  0  0  0  0  0  0
    0.0862   -2.0563    1.1126 N   0  0  0  0  0  0  0  0  0  0  0  0
    0.4626   -1.0525    0.2759 N   0  0  0  0  0  0  0  0  0  0  0  0
    1.8337   -0.9108   -0.0178 C   0  0  0  0  0  0  0  0  0  0  0  0
    2.6991   -1.8964    0.3485 N   0  0  0  0  0  0  0  0  0  0  0  0
    4.0036   -1.7602    0.1017 C   0  0  0  0  0  0  0  0  0  0  0  0
    4.6086   -0.7359   -0.4941 N   0  0  0  0  0  0  0  0  0  0  0  0
    3.7408    0.2150   -0.8740 C   0  0  0  0  0  0  0  0  0  0  0  0
    4.3207    1.6018   -1.6639 S   0  0  0  0  0  0  0  0  0  0  0  0
    2.7532    2.2528   -1.8266 C   0  0  0  0  0  0  0  0  0  0  0  0
    2.5794    3.5749   -2.5024 C   0  0  0  0  0  0  0  0  0  0  0  0
    1.7793    1.4177   -1.2924 C   0  0  0  0  0  0  0  0  0  0  0  0
    0.3162    1.7239   -1.3331 C   0  0  0  0  0  0  0  0  0  0  0  0
    2.3638    0.2187   -0.6970 C   0  0  0  0  0  0  0  0  0  0  0  0
   -2.2379   -1.1124    1.1772 C   0  0  0  0  0  0  0  0  0  0  0  0
   -3.5606   -1.5363    1.0912 C   0  0  0  0  0  0  0  0  0  0  0  0
   -4.5421   -0.5947    0.7921 C   0  0  0  0  0  0  0  0  0  0  0  0
   -4.1776    0.7316    0.5940 C   0  0  0  0  0  0  0  0  0  0  0  0
   -2.8373    1.0660    0.6921 C   0  0  0  0  0  0  0  0  0  0  0  0
   -1.8549    0.1783    0.9660 N   0  0  0  0  0  0  0  0  0  0  0  0
   -2.2976   -2.9394    3.1507 H   0  0  0  0  0  0  0  0  0  0  0  0
   -0.6364   -3.5340    3.0251 H   0  0  0  0  0  0  0  0  0  0  0  0
   -1.8508   -4.0795    1.8463 H   0  0  0  0  0  0  0  0  0  0  0  0
   -0.0570   -0.1766    0.3290 H   0  0  0  0  0  0  0  0  0  0  0  0
    4.6393   -2.5770    0.4267 H   0  0  0  0  0  0  0  0  0  0  0  0
    3.5333    4.0786   -2.6898 H   0  0  0  0  0  0  0  0  0  0  0  0
    1.9716    4.2417   -1.8818 H   0  0  0  0  0  0  0  0  0  0  0  0
    2.0735    3.4421   -3.4644 H   0  0  0  0  0  0  0  0  0  0  0  0
   -0.0265    2.0331   -0.3416 H   0  0  0  0  0  0  0  0  0  0  0  0
    0.0866    2.5340   -2.0322 H   0  0  0  0  0  0  0  0  0  0  0  0
   -0.2564    0.8513   -1.6615 H   0  0  0  0  0  0  0  0  0  0  0  0
   -3.8376   -2.5741    1.2384 H   0  0  0  0  0  0  0  0  0  0  0  0
   -5.5842   -0.8943    0.7162 H   0  0  0  0  0  0  0  0  0  0  0  0
   -4.9216    1.4879    0.3672 H   0  0  0  0  0  0  0  0  0  0  0  0
   -2.5106    2.0926    0.5493 H   0  0  0  0  0  0  0  0  0  0  0  0
  1  2  1  0
  2  3  2  3
  3  4  1  0
  4  5  1  0
  5  6  2  0
  6  7  1  0
  7  8  2  0
  8  9  1  0
  9 10  1  0
 10 11  1  0
 11 12  1  0
 11 13  2  0
 13 14  1  0
 13 15  1  0
  2 16  1  0
 16 17  2  0
 17 18  1  0
 18 19  2  0
 19 20  1  0
 20 21  2  0
 15  5  1  0
 21 16  1  0
 15  9  2  0
  1 22  1  0
  1 23  1  0
  1 24  1  0
  4 25  1  0
  7 26  1  0
 12 27  1  0
 12 28  1  0
 12 29  1  0
 14 30  1  0
 14 31  1  0
 14 32  1  0
 17 33  1  0
 18 34  1  0
 19 35  1  0
 20 36  1  0
M  END
$$$$
