
     RDKit          3D

 42 43  0  0  0  0  0  0  0  0999 V2000
   -5.9622    1.7575   -2.4245 C   0  0  0  0  0  0  0  0  0  0  0  0
   -4.7467    1.8650   -1.5543 C   0  0  0  0  0  0  0  0  0  0  0  0
   -3.9244    2.9939   -1.6113 C   0  0  0  0  0  0  0  0  0  0  0  0
   -2.7727    3.0674   -0.8233 C   0  0  0  0  0  0  0  0  0  0  0  0
   -2.4211    2.0185    0.0293 C   0  0  0  0  0  0  0  0  0  0  0  0
   -1.2697    2.2246    0.7407 O   0  0  0  0  0  0  0  0  0  0  0  0
   -0.9532    1.3059    1.7728 C   0  0  0  0  0  0  0  0  0  0  0  0
   -0.2819    0.0025    1.3260 C   0  0  0  0  0  0  0  0  0  0  0  0
    0.1165   -0.2253    0.1847 O   0  0  0  0  0  0  0  0  0  0  0  0
   -0.1744   -0.9267    2.3501 N   0  0  0  0  0  0  0  0  0  0  0  0
    0.6154   -2.0728    2.1062 N   0  0  0  0  0  0  0  0  0  0  0  0
    1.4839   -2.4413    3.1207 C   0  0  0  0  0  0  0  0  0  0  0  0
    1.4406   -1.9191    4.2360 O   0  0  0  0  0  0  0  0  0  0  0  0
    2.4603   -3.5392    2.7433 C   0  0  0  0  0  0  0  0  0  0  0  0
    4.1269   -2.8685    2.4830 S   0  0  0  0  0  0  0  0  0  0  0  0
    3.8988   -1.9727    0.9683 C   0  0  0  0  0  0  0  0  0  0  0  0
    2.7943   -2.1990    0.2361 N   0  0  0  0  0  0  0  0  0  0  0  0
    2.6889   -1.4860   -0.9088 C   0  0  0  0  0  0  0  0  0  0  0  0
    3.6374   -0.5885   -1.3433 C   0  0  0  0  0  0  0  0  0  0  0  0
    3.4653    0.1213   -2.5644 C   0  0  0  0  0  0  0  0  0  0  0  0
    3.3335    0.6629   -3.5829 N   0  0  0  0  0  0  0  0  0  0  0  0
    4.7468   -0.4504   -0.5308 C   0  0  0  0  0  0  0  0  0  0  0  0
    5.7886    0.4283   -0.8223 N   0  0  0  0  0  0  0  0  0  0  0  0
    4.8809   -1.1234    0.6249 N   0  0  0  0  0  0  0  0  0  0  0  0
   -3.2293    0.8830    0.0750 C   0  0  0  0  0  0  0  0  0  0  0  0
   -4.3824    0.8059   -0.7163 C   0  0  0  0  0  0  0  0  0  0  0  0
   -5.7078    1.2390   -3.3543 H   0  0  0  0  0  0  0  0  0  0  0  0
   -6.3615    2.7471   -2.6698 H   0  0  0  0  0  0  0  0  0  0  0  0
   -6.7568    1.2030   -1.9118 H   0  0  0  0  0  0  0  0  0  0  0  0
   -4.1692    3.8231   -2.2698 H   0  0  0  0  0  0  0  0  0  0  0  0
   -2.1427    3.9528   -0.8759 H   0  0  0  0  0  0  0  0  0  0  0  0
   -1.8291    1.0915    2.3987 H   0  0  0  0  0  0  0  0  0  0  0  0
   -0.2296    1.8133    2.4242 H   0  0  0  0  0  0  0  0  0  0  0  0
   -0.1897   -0.6256    3.3263 H   0  0  0  0  0  0  0  0  0  0  0  0
    0.9494   -2.1678    1.1409 H   0  0  0  0  0  0  0  0  0  0  0  0
    2.1157   -4.0997    1.8672 H   0  0  0  0  0  0  0  0  0  0  0  0
    2.4962   -4.2476    3.5779 H   0  0  0  0  0  0  0  0  0  0  0  0
    1.7720   -1.6539   -1.4721 H   0  0  0  0  0  0  0  0  0  0  0  0
    6.4987    0.3528   -0.0985 H   0  0  0  0  0  0  0  0  0  0  0  0
    6.1782    0.3147   -1.7529 H   0  0  0  0  0  0  0  0  0  0  0  0
   -2.9910    0.0281    0.6968 H   0  0  0  0  0  0  0  0  0  0  0  0
   -4.9926   -0.0945   -0.6772 H   0  0  0  0  0  0  0  0  0  0  0  0
  1  2  1  0
  2  3  2  0
  3  4  1  0
  4  5  2  0
  5  6  1  0
  6  7  1  0
  7  8  1  0
  8  9  2  0
  8 10  1  0
 10 11  1  0
 11 12  1  0
 12 13  2  0
 12 14  1  0
 14 15  1  0
 15 16  1  0
 16 17  2  0
 17 18  1  0
 18 19  2  0
 19 20  1  0
 20 21  3  0
 19 22  1  0
 22 23  1  0
 22 24  2  0
  5 25  1  0
 25 26  2  0
 26  2  1  0
 24 16  1  0
  1 27  1  0
  1 28  1  0
  1 29  1  0
  3 30  1  0
  4 31  1  0
  7 32  1  0
  7 33  1  0
 10 34  1  0
 11 35  1  0
 14 36  1  0
 14 37  1  0
 18 38  1  0
 23 39  1  0
 23 40  1  0
 25 41  1  0
 26 42  1  0
M  END
$$$$
