
     RDKit          3D

 41 42  0  0  0  0  0  0  0  0999 V2000
    4.4809   -2.5025    0.8726 C   0  0  0  0  0  0  0  0  0  0  0  0
    3.3477   -1.6627    0.6778 O   0  0  0  0  0  0  0  0  0  0  0  0
    3.5709   -0.4216    0.1252 C   0  0  0  0  0  0  0  0  0  0  0  0
    4.8291    0.0907   -0.2043 C   0  0  0  0  0  0  0  0  0  0  0  0
    4.9271    1.3739   -0.7626 C   0  0  0  0  0  0  0  0  0  0  0  0
    6.2482    1.9134   -1.1103 N   0  0  0  0  0  4  0  0  0  0  0  0
    7.2398    1.2165   -0.8496 O   0  0  0  0  0  0  0  0  0  0  0  0
    6.2953    3.0312   -1.6421 O   0  0  0  0  0  1  0  0  0  0  0  0
    3.7835    2.1460   -0.9897 C   0  0  0  0  0  0  0  0  0  0  0  0
    2.5276    1.6320   -0.6571 C   0  0  0  0  0  0  0  0  0  0  0  0
    2.4105    0.3525   -0.1062 C   0  0  0  0  0  0  0  0  0  0  0  0
    1.1757   -0.2266    0.2572 N   0  0  0  0  0  0  0  0  0  0  0  0
   -0.0990    0.2477    0.0067 C   0  0  0  0  0  0  0  0  0  0  0  0
   -0.3751    1.2403   -0.6566 O   0  0  0  0  0  0  0  0  0  0  0  0
   -1.0504   -0.5972    0.5956 N   0  0  0  0  0  0  0  0  0  0  0  0
   -2.4197   -0.2247    0.5567 N   0  0  0  0  0  0  0  0  0  0  0  0
   -3.2004   -0.8079    1.6532 C   0  0  0  0  0  0  0  0  0  0  0  0
   -4.6650   -0.2995    1.6664 C   0  0  0  0  0  0  0  0  0  0  0  0
   -5.2766   -0.0147    0.3496 N   0  0  0  0  0  0  0  0  0  0  0  0
   -5.2616    1.4236    0.0673 C   0  0  0  0  0  0  0  0  0  0  0  0
   -4.5642   -0.7578   -0.7055 C   0  0  0  0  0  0  0  0  0  0  0  0
   -3.0293   -0.5476   -0.7518 C   0  0  0  0  0  0  0  0  0  0  0  0
    4.9768   -2.7226   -0.0784 H   0  0  0  0  0  0  0  0  0  0  0  0
    5.1777   -2.0626    1.5934 H   0  0  0  0  0  0  0  0  0  0  0  0
    4.1256   -3.4498    1.2896 H   0  0  0  0  0  0  0  0  0  0  0  0
    5.7319   -0.4872   -0.0350 H   0  0  0  0  0  0  0  0  0  0  0  0
    3.8458    3.1439   -1.4204 H   0  0  0  0  0  0  0  0  0  0  0  0
    1.6563    2.2564   -0.8357 H   0  0  0  0  0  0  0  0  0  0  0  0
    1.2530   -1.1691    0.6182 H   0  0  0  0  0  0  0  0  0  0  0  0
   -0.7276   -1.0683    1.4329 H   0  0  0  0  0  0  0  0  0  0  0  0
   -2.7420   -0.5567    2.6175 H   0  0  0  0  0  0  0  0  0  0  0  0
   -3.1958   -1.9034    1.5723 H   0  0  0  0  0  0  0  0  0  0  0  0
   -4.7336    0.5814    2.3183 H   0  0  0  0  0  0  0  0  0  0  0  0
   -5.2773   -1.0689    2.1537 H   0  0  0  0  0  0  0  0  0  0  0  0
   -5.8717    1.9585    0.8041 H   0  0  0  0  0  0  0  0  0  0  0  0
   -4.2560    1.8571    0.0798 H   0  0  0  0  0  0  0  0  0  0  0  0
   -5.7112    1.6264   -0.9112 H   0  0  0  0  0  0  0  0  0  0  0  0
   -4.7604   -1.8262   -0.5404 H   0  0  0  0  0  0  0  0  0  0  0  0
   -4.9968   -0.5351   -1.6890 H   0  0  0  0  0  0  0  0  0  0  0  0
   -2.5816   -1.4552   -1.1784 H   0  0  0  0  0  0  0  0  0  0  0  0
   -2.8082    0.2767   -1.4403 H   0  0  0  0  0  0  0  0  0  0  0  0
  1  2  1  0
  2  3  1  0
  3  4  2  0
  4  5  1  0
  5  6  1  0
  6  7  2  0
  6  8  1  0
  5  9  2  0
  9 10  1  0
 10 11  2  0
 11 12  1  0
 12 13  1  0
 13 14  2  0
 13 15  1  0
 15 16  1  0
 16 17  1  0
 17 18  1  0
 18 19  1  0
 19 20  1  0
 19 21  1  0
 21 22  1  0
 11  3  1  0
 22 16  1  0
  1 23  1  0
  1 24  1  0
  1 25  1  0
  4 26  1  0
  9 27  1  0
 10 28  1  0
 12 29  1  0
 15 30  1  0
 17 31  1  0
 17 32  1  0
 18 33  1  0
 18 34  1  0
 20 35  1  0
 20 36  1  0
 20 37  1  0
 21 38  1  0
 21 39  1  0
 22 40  1  0
 22 41  1  0
M  CHG  2   6   1   8  -1
M  END
$$$$
