
     RDKit          3D

 46 49  0  0  0  0  0  0  0  0999 V2000
    0.2791   -1.6185   -2.3183 O   0  0  0  0  0  0  0  0  0  0  0  0
    0.7089   -1.6946   -1.1670 C   0  0  0  0  0  0  0  0  0  0  0  0
    2.0598   -2.3531   -0.9063 C   0  0  0  0  0  0  0  0  0  0  0  0
    2.6697   -2.2590    0.8052 S   0  0  0  0  0  0  0  0  0  0  0  0
    3.1630   -0.5490    0.8310 C   0  0  0  0  0  0  0  0  0  0  0  0
    2.1597    0.2716    1.2494 N   0  0  0  0  0  0  0  0  0  0  0  0
    2.4283    1.5907    1.3649 C   0  0  0  0  0  0  0  0  0  0  0  0
    3.6620    2.1472    1.0871 C   0  0  0  0  0  0  0  0  0  0  0  0
    4.6812    1.3009    0.6628 C   0  0  0  0  0  0  0  0  0  0  0  0
    4.4386   -0.0739    0.5292 C   0  0  0  0  0  0  0  0  0  0  0  0
    5.5170   -0.9569    0.0439 C   0  0  0  0  0  0  0  0  0  0  0  0
    5.4050   -1.9369   -0.6648 O   0  0  0  0  0  0  0  0  0  0  0  0
    6.7237   -0.5431    0.4760 O   0  0  0  0  0  0  0  0  0  0  0  0
    0.0098   -1.2403   -0.0735 N   0  0  0  0  0  0  0  0  0  0  0  0
   -1.2588   -0.5093   -0.1258 C   0  0  0  0  0  0  0  0  0  0  0  0
   -1.7025   -0.2044    1.3311 C   0  0  0  0  0  0  0  0  0  0  0  0
   -3.0280    0.5726    1.3539 C   0  0  0  0  0  0  0  0  0  0  0  0
   -4.1160   -0.2677    0.6682 C   0  0  0  0  0  0  0  0  0  0  0  0
   -3.7114   -0.5634   -0.7842 C   0  0  0  0  0  0  0  0  0  0  0  0
   -3.5272    0.7635   -1.5402 C   0  0  0  0  0  0  0  0  0  0  0  0
   -2.4392    1.6132   -0.8618 C   0  0  0  0  0  0  0  0  0  0  0  0
   -2.8496    1.8955    0.5922 C   0  0  0  0  0  0  0  0  0  0  0  0
   -1.1098    0.8384   -0.8735 C   0  0  0  0  0  0  0  0  0  0  0  0
   -2.3828   -1.3405   -0.7951 C   0  0  0  0  0  0  0  0  0  0  0  0
    1.9552   -3.4132   -1.1586 H   0  0  0  0  0  0  0  0  0  0  0  0
    2.7946   -1.9111   -1.5864 H   0  0  0  0  0  0  0  0  0  0  0  0
    1.5974    2.2066    1.6991 H   0  0  0  0  0  0  0  0  0  0  0  0
    3.8279    3.2138    1.1960 H   0  0  0  0  0  0  0  0  0  0  0  0
    5.6599    1.7158    0.4317 H   0  0  0  0  0  0  0  0  0  0  0  0
    7.3485   -1.2059    0.1110 H   0  0  0  0  0  0  0  0  0  0  0  0
    0.5917   -1.0628    0.7450 H   0  0  0  0  0  0  0  0  0  0  0  0
   -1.8101   -1.1399    1.8962 H   0  0  0  0  0  0  0  0  0  0  0  0
   -0.9279    0.3774    1.8486 H   0  0  0  0  0  0  0  0  0  0  0  0
   -3.3184    0.7790    2.3901 H   0  0  0  0  0  0  0  0  0  0  0  0
   -4.2649   -1.2070    1.2147 H   0  0  0  0  0  0  0  0  0  0  0  0
   -5.0729    0.2681    0.6894 H   0  0  0  0  0  0  0  0  0  0  0  0
   -4.4914   -1.1603   -1.2700 H   0  0  0  0  0  0  0  0  0  0  0  0
   -3.2520    0.5655   -2.5834 H   0  0  0  0  0  0  0  0  0  0  0  0
   -4.4745    1.3164   -1.5605 H   0  0  0  0  0  0  0  0  0  0  0  0
   -2.3191    2.5592   -1.4015 H   0  0  0  0  0  0  0  0  0  0  0  0
   -2.0870    2.5118    1.0841 H   0  0  0  0  0  0  0  0  0  0  0  0
   -3.7845    2.4688    0.6131 H   0  0  0  0  0  0  0  0  0  0  0  0
   -0.3220    1.4444   -0.4079 H   0  0  0  0  0  0  0  0  0  0  0  0
   -0.7976    0.6763   -1.9121 H   0  0  0  0  0  0  0  0  0  0  0  0
   -2.5053   -2.2984   -0.2728 H   0  0  0  0  0  0  0  0  0  0  0  0
   -2.1282   -1.5875   -1.8319 H   0  0  0  0  0  0  0  0  0  0  0  0
  1  2  2  0
  2  3  1  0
  3  4  1  0
  4  5  1  0
  5  6  2  0
  6  7  1  0
  7  8  2  0
  8  9  1  0
  9 10  2  0
 10 11  1  0
 11 12  2  0
 11 13  1  0
  2 14  1  0
 14 15  1  0
 15 16  1  0
 16 17  1  0
 17 18  1  0
 18 19  1  0
 19 20  1  0
 20 21  1  0
 21 22  1  0
 21 23  1  0
 19 24  1  0
 10  5  1  0
 23 15  1  0
 24 15  1  0
 22 17  1  0
  3 25  1  0
  3 26  1  0
  7 27  1  0
  8 28  1  0
  9 29  1  0
 13 30  1  0
 14 31  1  0
 16 32  1  0
 16 33  1  0
 17 34  1  0
 18 35  1  0
 18 36  1  0
 19 37  1  0
 20 38  1  0
 20 39  1  0
 21 40  1  0
 22 41  1  0
 22 42  1  0
 23 43  1  0
 23 44  1  0
 24 45  1  0
 24 46  1  0
M  END
$$$$
