
     RDKit          3D

 44 46  0  0  0  0  0  0  0  0999 V2000
    3.8708    1.0796    1.3006 C   0  0  0  0  0  0  0  0  0  0  0  0
    4.6121    0.4172    0.1299 C   0  0  0  0  0  0  0  0  0  0  0  0
    5.9212    1.1940   -0.1069 C   0  0  0  0  0  0  0  0  0  0  0  0
    4.9567   -1.0337    0.4836 C   0  0  0  0  0  0  0  0  0  0  0  0
    3.7712    0.4299   -1.1681 C   0  0  0  0  0  0  0  0  0  0  0  0
    4.2654    0.7828   -2.2448 O   0  0  0  0  0  0  0  0  0  0  0  0
    2.3319   -0.0530   -1.1184 C   0  0  0  0  0  0  0  0  0  0  0  0
    1.2097    1.3641   -0.9239 S   0  0  0  0  0  0  0  0  0  0  0  0
   -0.3517    0.5135   -0.6932 C   0  0  0  0  0  0  0  0  0  0  0  0
   -0.3887   -0.7673   -1.1545 N   0  0  0  0  0  0  0  0  0  0  0  0
   -1.5518   -1.4158   -1.0158 C   0  0  0  0  0  0  0  0  0  0  0  0
   -2.6934   -0.8772   -0.4400 C   0  0  0  0  0  0  0  0  0  0  0  0
   -2.6626    0.4268    0.0343 C   0  0  0  0  0  0  0  0  0  0  0  0
   -3.8536    1.0110    0.6505 C   0  0  0  0  0  0  0  0  0  0  0  0
   -4.2024    1.0677    1.9863 C   0  0  0  0  0  0  0  0  0  0  0  0
   -5.4462    1.7329    2.1912 C   0  0  0  0  0  0  0  0  0  0  0  0
   -6.0052    2.1532    1.0048 C   0  0  0  0  0  0  0  0  0  0  0  0
   -5.0306    1.7569   -0.3452 S   0  0  0  0  0  0  0  0  0  0  0  0
   -1.4566    1.1462   -0.0945 C   0  0  0  0  0  0  0  0  0  0  0  0
   -1.3559    2.4885    0.4081 C   0  0  0  0  0  0  0  0  0  0  0  0
   -1.2773    3.5594    0.8487 N   0  0  0  0  0  0  0  0  0  0  0  0
   -3.7922   -1.8919   -0.4000 C   0  0  0  0  0  0  0  0  0  0  0  0
   -3.3011   -2.9066   -1.4494 C   0  0  0  0  0  0  0  0  0  0  0  0
   -1.7695   -2.8453   -1.4253 C   0  0  0  0  0  0  0  0  0  0  0  0
    4.5087    1.1440    2.1932 H   0  0  0  0  0  0  0  0  0  0  0  0
    2.9778    0.5158    1.5884 H   0  0  0  0  0  0  0  0  0  0  0  0
    3.5583    2.1024    1.0441 H   0  0  0  0  0  0  0  0  0  0  0  0
    5.7221    2.2183   -0.4272 H   0  0  0  0  0  0  0  0  0  0  0  0
    6.5292    1.2414    0.8032 H   0  0  0  0  0  0  0  0  0  0  0  0
    6.5278    0.7209   -0.8819 H   0  0  0  0  0  0  0  0  0  0  0  0
    5.6201   -1.0720    1.3517 H   0  0  0  0  0  0  0  0  0  0  0  0
    5.4562   -1.5356   -0.3455 H   0  0  0  0  0  0  0  0  0  0  0  0
    4.0613   -1.6200    0.7239 H   0  0  0  0  0  0  0  0  0  0  0  0
    2.1244   -0.5615   -2.0656 H   0  0  0  0  0  0  0  0  0  0  0  0
    2.2059   -0.7848   -0.3150 H   0  0  0  0  0  0  0  0  0  0  0  0
   -3.5970    0.6585    2.7863 H   0  0  0  0  0  0  0  0  0  0  0  0
   -5.9080    1.8947    3.1596 H   0  0  0  0  0  0  0  0  0  0  0  0
   -6.9382    2.6784    0.8651 H   0  0  0  0  0  0  0  0  0  0  0  0
   -3.8458   -2.3496    0.5937 H   0  0  0  0  0  0  0  0  0  0  0  0
   -4.7688   -1.4810   -0.6791 H   0  0  0  0  0  0  0  0  0  0  0  0
   -3.6826   -3.9174   -1.2650 H   0  0  0  0  0  0  0  0  0  0  0  0
   -3.6605   -2.5982   -2.4451 H   0  0  0  0  0  0  0  0  0  0  0  0
   -1.3332   -3.0741   -2.4005 H   0  0  0  0  0  0  0  0  0  0  0  0
   -1.3578   -3.5131   -0.6627 H   0  0  0  0  0  0  0  0  0  0  0  0
  1  2  1  0
  2  3  1  0
  2  4  1  0
  2  5  1  0
  5  6  2  0
  5  7  1  0
  7  8  1  0
  8  9  1  0
  9 10  2  0
 10 11  1  0
 11 12  2  0
 12 13  1  0
 13 14  1  0
 14 15  2  0
 15 16  1  0
 16 17  2  0
 17 18  1  0
 13 19  2  0
 19 20  1  0
 20 21  3  0
 12 22  1  0
 22 23  1  0
 23 24  1  0
 19  9  1  0
 24 11  1  0
 18 14  1  0
  1 25  1  0
  1 26  1  0
  1 27  1  0
  3 28  1  0
  3 29  1  0
  3 30  1  0
  4 31  1  0
  4 32  1  0
  4 33  1  0
  7 34  1  0
  7 35  1  0
 15 36  1  0
 16 37  1  0
 17 38  1  0
 22 39  1  0
 22 40  1  0
 23 41  1  0
 23 42  1  0
 24 43  1  0
 24 44  1  0
M  END
$$$$
