
     RDKit          3D

 44 46  0  0  0  0  0  0  0  0999 V2000
    3.5581    1.7803   -3.0826 C   0  0  0  0  0  0  0  0  0  0  0  0
    2.3143    1.6842   -2.3236 N   0  0  0  0  0  0  0  0  0  0  0  0
    2.5211    1.9732   -0.8885 C   0  0  0  0  0  0  0  0  0  0  0  0
    2.6036    0.7366    0.0242 C   0  0  0  0  0  0  0  0  0  0  0  0
    1.4484   -0.1474   -0.1276 N   0  0  0  0  0  0  0  0  0  0  0  0
    1.1580   -1.0372    0.8942 C   0  0  0  0  0  0  0  0  0  0  0  0
    1.8554   -1.1693    1.8983 O   0  0  0  0  0  0  0  0  0  0  0  0
   -0.0345   -1.9040    0.7777 C   0  0  0  0  0  0  0  0  0  0  0  0
    0.2101   -3.2527    0.4736 C   0  0  0  0  0  0  0  0  0  0  0  0
   -0.8480   -4.1541    0.3973 C   0  0  0  0  0  0  0  0  0  0  0  0
   -2.1454   -3.7158    0.6446 C   0  0  0  0  0  0  0  0  0  0  0  0
   -2.3866   -2.3760    0.9671 C   0  0  0  0  0  0  0  0  0  0  0  0
   -1.3404   -1.4328    1.0331 C   0  0  0  0  0  0  0  0  0  0  0  0
   -1.6431   -0.0322    1.4032 C   0  0  0  0  0  0  0  0  0  0  0  0
   -1.0500    0.5125    2.5617 C   0  0  0  0  0  0  0  0  0  0  0  0
   -1.3307    1.8130    2.9907 C   0  0  0  0  0  0  0  0  0  0  0  0
   -2.2286    2.6019    2.2821 C   0  0  0  0  0  0  0  0  0  0  0  0
   -2.8421    2.0907    1.1413 C   0  0  0  0  0  0  0  0  0  0  0  0
   -2.5477    0.7903    0.6939 C   0  0  0  0  0  0  0  0  0  0  0  0
   -3.2707    0.3606   -0.5240 C   0  0  0  0  0  0  0  0  0  0  0  0
   -4.4440    0.5815   -0.7619 O   0  0  0  0  0  0  0  0  0  0  0  0
   -2.4788   -0.2503   -1.4203 O   0  0  0  0  0  0  0  0  0  0  0  0
    0.7275   -0.0501   -1.4009 C   0  0  0  0  0  0  0  0  0  0  0  0
    1.6686    0.3724   -2.5440 C   0  0  0  0  0  0  0  0  0  0  0  0
    3.9749    2.7910   -3.0106 H   0  0  0  0  0  0  0  0  0  0  0  0
    4.3137    1.0696   -2.7291 H   0  0  0  0  0  0  0  0  0  0  0  0
    3.3758    1.5920   -4.1466 H   0  0  0  0  0  0  0  0  0  0  0  0
    3.4008    2.6093   -0.7304 H   0  0  0  0  0  0  0  0  0  0  0  0
    1.6617    2.5740   -0.5624 H   0  0  0  0  0  0  0  0  0  0  0  0
    3.4972    0.1474   -0.2147 H   0  0  0  0  0  0  0  0  0  0  0  0
    2.6856    1.0507    1.0710 H   0  0  0  0  0  0  0  0  0  0  0  0
    1.2290   -3.5969    0.3106 H   0  0  0  0  0  0  0  0  0  0  0  0
   -0.6592   -5.1986    0.1631 H   0  0  0  0  0  0  0  0  0  0  0  0
   -2.9740   -4.4191    0.6025 H   0  0  0  0  0  0  0  0  0  0  0  0
   -3.4107   -2.0732    1.1825 H   0  0  0  0  0  0  0  0  0  0  0  0
   -0.3588   -0.0865    3.1561 H   0  0  0  0  0  0  0  0  0  0  0  0
   -0.8509    2.2006    3.8864 H   0  0  0  0  0  0  0  0  0  0  0  0
   -2.4553    3.6100    2.6196 H   0  0  0  0  0  0  0  0  0  0  0  0
   -3.5524    2.7089    0.5948 H   0  0  0  0  0  0  0  0  0  0  0  0
   -3.0820   -0.4503   -2.1663 H   0  0  0  0  0  0  0  0  0  0  0  0
    0.2559   -1.0057   -1.6461 H   0  0  0  0  0  0  0  0  0  0  0  0
   -0.0578    0.7015   -1.2711 H   0  0  0  0  0  0  0  0  0  0  0  0
    2.4287   -0.4133   -2.6550 H   0  0  0  0  0  0  0  0  0  0  0  0
    1.1030    0.4127   -3.4818 H   0  0  0  0  0  0  0  0  0  0  0  0
  1  2  1  0
  2  3  1  0
  3  4  1  0
  4  5  1  0
  5  6  1  0
  6  7  2  0
  6  8  1  0
  8  9  2  0
  9 10  1  0
 10 11  2  0
 11 12  1  0
 12 13  2  0
 13 14  1  0
 14 15  2  0
 15 16  1  0
 16 17  2  0
 17 18  1  0
 18 19  2  0
 19 20  1  0
 20 21  2  0
 20 22  1  0
  5 23  1  0
 23 24  1  0
 24  2  1  0
 13  8  1  0
 19 14  1  0
  1 25  1  0
  1 26  1  0
  1 27  1  0
  3 28  1  0
  3 29  1  0
  4 30  1  0
  4 31  1  0
  9 32  1  0
 10 33  1  0
 11 34  1  0
 12 35  1  0
 15 36  1  0
 16 37  1  0
 17 38  1  0
 18 39  1  0
 22 40  1  0
 23 41  1  0
 23 42  1  0
 24 43  1  0
 24 44  1  0
M  END
$$$$
