
     RDKit          3D

 43 45  0  0  0  0  0  0  0  0999 V2000
    7.1284    0.9260   -0.5142 C   0  0  0  0  0  0  0  0  0  0  0  0
    5.9867    0.9456    0.3332 O   0  0  0  0  0  0  0  0  0  0  0  0
    4.8847    0.2617   -0.0978 C   0  0  0  0  0  0  0  0  0  0  0  0
    4.7699   -0.4430   -1.2938 C   0  0  0  0  0  0  0  0  0  0  0  0
    3.5737   -1.1006   -1.6102 C   0  0  0  0  0  0  0  0  0  0  0  0
    2.4758   -1.0740   -0.7388 C   0  0  0  0  0  0  0  0  0  0  0  0
    1.2783   -1.7154   -1.1376 N   0  0  0  0  0  0  0  0  0  0  0  0
    0.0216   -1.6006   -0.6409 C   0  0  0  0  0  0  0  0  0  0  0  0
   -0.8885   -2.6672   -0.5154 C   0  0  0  0  0  0  0  0  0  0  0  0
   -2.0578   -2.1653    0.0150 C   0  0  0  0  0  0  0  0  0  0  0  0
   -3.1428   -2.8518    0.3758 O   0  0  0  0  0  0  0  0  0  0  0  0
   -1.9069   -0.7855    0.1682 N   0  0  0  0  0  0  0  0  0  0  0  0
   -2.9209    0.1270    0.5860 C   0  0  0  0  0  0  0  0  0  0  0  0
   -4.1819    0.0260   -0.0302 C   0  0  0  0  0  0  0  0  0  0  0  0
   -5.1907    0.9389    0.3016 C   0  0  0  0  0  0  0  0  0  0  0  0
   -6.5011    0.8456   -0.3527 N   0  0  0  0  0  4  0  0  0  0  0  0
   -6.7227   -0.1505   -1.0553 O   0  0  0  0  0  0  0  0  0  0  0  0
   -7.3113    1.7621   -0.1554 O   0  0  0  0  0  1  0  0  0  0  0  0
   -4.9591    1.9448    1.2433 C   0  0  0  0  0  0  0  0  0  0  0  0
   -3.7114    2.0287    1.8644 C   0  0  0  0  0  0  0  0  0  0  0  0
   -2.6817    1.1170    1.5629 C   0  0  0  0  0  0  0  0  0  0  0  0
   -1.3928    1.2518    2.3309 C   0  0  0  0  0  0  0  0  0  0  0  0
   -0.6352   -0.4411   -0.2806 C   0  0  0  0  0  0  0  0  0  0  0  0
   -0.2492    0.8298   -0.4026 O   0  0  0  0  0  0  0  0  0  0  0  0
    2.6006   -0.3545    0.4531 C   0  0  0  0  0  0  0  0  0  0  0  0
    3.7942    0.3017    0.7713 C   0  0  0  0  0  0  0  0  0  0  0  0
    7.5026   -0.0942   -0.6494 H   0  0  0  0  0  0  0  0  0  0  0  0
    6.9126    1.3994   -1.4777 H   0  0  0  0  0  0  0  0  0  0  0  0
    7.9166    1.5077   -0.0267 H   0  0  0  0  0  0  0  0  0  0  0  0
    5.5856   -0.4983   -2.0066 H   0  0  0  0  0  0  0  0  0  0  0  0
    3.5037   -1.6280   -2.5589 H   0  0  0  0  0  0  0  0  0  0  0  0
    1.5055   -2.5901   -1.6088 H   0  0  0  0  0  0  0  0  0  0  0  0
   -0.7158   -3.7110   -0.7391 H   0  0  0  0  0  0  0  0  0  0  0  0
   -3.6998   -2.3031    0.9548 H   0  0  0  0  0  0  0  0  0  0  0  0
   -4.3564   -0.7234   -0.8024 H   0  0  0  0  0  0  0  0  0  0  0  0
   -5.7311    2.6656    1.5055 H   0  0  0  0  0  0  0  0  0  0  0  0
   -3.5448    2.8131    2.6024 H   0  0  0  0  0  0  0  0  0  0  0  0
   -1.5914    1.6015    3.3507 H   0  0  0  0  0  0  0  0  0  0  0  0
   -0.7320    1.9765    1.8471 H   0  0  0  0  0  0  0  0  0  0  0  0
   -0.8775    0.2927    2.4364 H   0  0  0  0  0  0  0  0  0  0  0  0
    0.6081    0.8000   -0.8706 H   0  0  0  0  0  0  0  0  0  0  0  0
    1.7815   -0.3125    1.1662 H   0  0  0  0  0  0  0  0  0  0  0  0
    3.8727    0.8468    1.7089 H   0  0  0  0  0  0  0  0  0  0  0  0
  1  2  1  0
  2  3  1  0
  3  4  2  0
  4  5  1  0
  5  6  2  0
  6  7  1  0
  7  8  1  0
  8  9  1  0
  9 10  2  0
 10 11  1  0
 10 12  1  0
 12 13  1  0
 13 14  2  0
 14 15  1  0
 15 16  1  0
 16 17  2  0
 16 18  1  0
 15 19  2  0
 19 20  1  0
 20 21  2  0
 21 22  1  0
 12 23  1  0
 23 24  1  0
  6 25  1  0
 25 26  2  0
 26  3  1  0
 23  8  2  0
 21 13  1  0
  1 27  1  0
  1 28  1  0
  1 29  1  0
  4 30  1  0
  5 31  1  0
  7 32  1  0
  9 33  1  0
 11 34  1  0
 14 35  1  0
 19 36  1  0
 20 37  1  0
 22 38  1  0
 22 39  1  0
 22 40  1  0
 24 41  1  0
 25 42  1  0
 26 43  1  0
M  CHG  2  16   1  18  -1
M  END
$$$$
