
     RDKit          3D

 42 44  0  0  0  0  0  0  0  0999 V2000
    5.0905    0.9683    1.6577 C   0  0  0  0  0  0  0  0  0  0  0  0
    4.2986   -0.3284    1.7277 C   0  0  0  0  0  0  0  0  0  0  0  0
    3.0304   -0.2550    0.9172 C   0  0  0  0  0  0  0  0  0  0  0  0
    3.0256   -0.6209   -0.4318 C   0  0  0  0  0  0  0  0  0  0  0  0
    1.8523   -0.5332   -1.1855 C   0  0  0  0  0  0  0  0  0  0  0  0
    0.6538   -0.0739   -0.6112 C   0  0  0  0  0  0  0  0  0  0  0  0
   -0.6079   -0.0091   -1.4738 C   0  0  0  0  0  0  0  0  0  0  0  0
   -1.6885   -1.0676   -1.1570 C   0  0  0  0  0  0  0  0  0  0  0  0
   -1.0147   -2.4182   -1.0728 C   0  0  0  0  0  0  0  0  0  0  0  0
   -0.6374   -3.0648   -2.0408 O   0  0  0  0  0  0  0  0  0  0  0  0
   -0.7672   -2.8757    0.1671 O   0  0  0  0  0  0  0  0  0  0  0  0
   -2.6112   -0.6441   -0.0295 C   0  0  0  0  0  0  0  0  0  0  0  0
   -3.3636   -1.5689    0.7151 C   0  0  0  0  0  0  0  0  0  0  0  0
   -4.2467   -1.1417    1.7095 C   0  0  0  0  0  0  0  0  0  0  0  0
   -4.4162    0.2161    1.9579 C   0  0  0  0  0  0  0  0  0  0  0  0
   -3.7119    1.1494    1.2007 C   0  0  0  0  0  0  0  0  0  0  0  0
   -2.8200    0.7278    0.2025 C   0  0  0  0  0  0  0  0  0  0  0  0
   -2.1345    1.7720   -0.6160 C   0  0  0  0  0  0  0  0  0  0  0  0
   -2.4506    2.9503   -0.4744 O   0  0  0  0  0  0  0  0  0  0  0  0
   -1.1676    1.3490   -1.5222 N   0  0  0  0  0  0  0  0  0  0  0  0
   -0.4331    2.3569   -2.2708 C   0  0  0  0  0  0  0  0  0  0  0  0
    0.6698    0.2975    0.7402 C   0  0  0  0  0  0  0  0  0  0  0  0
    1.8444    0.2102    1.4939 C   0  0  0  0  0  0  0  0  0  0  0  0
    5.3778    1.2033    0.6272 H   0  0  0  0  0  0  0  0  0  0  0  0
    6.0046    0.8861    2.2542 H   0  0  0  0  0  0  0  0  0  0  0  0
    4.5077    1.8113    2.0442 H   0  0  0  0  0  0  0  0  0  0  0  0
    4.0560   -0.5587    2.7723 H   0  0  0  0  0  0  0  0  0  0  0  0
    4.9175   -1.1604    1.3701 H   0  0  0  0  0  0  0  0  0  0  0  0
    3.9376   -0.9755   -0.9072 H   0  0  0  0  0  0  0  0  0  0  0  0
    1.8855   -0.8322   -2.2319 H   0  0  0  0  0  0  0  0  0  0  0  0
   -0.2928   -0.2165   -2.5076 H   0  0  0  0  0  0  0  0  0  0  0  0
   -2.3610   -1.1331   -2.0267 H   0  0  0  0  0  0  0  0  0  0  0  0
   -0.2403   -3.6914    0.0350 H   0  0  0  0  0  0  0  0  0  0  0  0
   -3.2757   -2.6383    0.5350 H   0  0  0  0  0  0  0  0  0  0  0  0
   -4.8089   -1.8728    2.2858 H   0  0  0  0  0  0  0  0  0  0  0  0
   -5.1068    0.5501    2.7281 H   0  0  0  0  0  0  0  0  0  0  0  0
   -3.8679    2.2113    1.3828 H   0  0  0  0  0  0  0  0  0  0  0  0
   -1.0334    3.2607   -2.4085 H   0  0  0  0  0  0  0  0  0  0  0  0
    0.4755    2.6200   -1.7217 H   0  0  0  0  0  0  0  0  0  0  0  0
   -0.1707    1.9596   -3.2554 H   0  0  0  0  0  0  0  0  0  0  0  0
   -0.2239    0.6670    1.2342 H   0  0  0  0  0  0  0  0  0  0  0  0
    1.8246    0.5132    2.5388 H   0  0  0  0  0  0  0  0  0  0  0  0
  1  2  1  0
  2  3  1  0
  3  4  2  0
  4  5  1  0
  5  6  2  0
  6  7  1  0
  7  8  1  0
  8  9  1  0
  9 10  2  0
  9 11  1  0
  8 12  1  0
 12 13  2  0
 13 14  1  0
 14 15  2  0
 15 16  1  0
 16 17  2  0
 17 18  1  0
 18 19  2  0
 18 20  1  0
 20 21  1  0
  6 22  1  0
 22 23  2  0
 23  3  1  0
 20  7  1  0
 17 12  1  0
  1 24  1  0
  1 25  1  0
  1 26  1  0
  2 27  1  0
  2 28  1  0
  4 29  1  0
  5 30  1  0
  7 31  1  0
  8 32  1  0
 11 33  1  0
 13 34  1  0
 14 35  1  0
 15 36  1  0
 16 37  1  0
 21 38  1  0
 21 39  1  0
 21 40  1  0
 22 41  1  0
 23 42  1  0
M  END
$$$$
