
     RDKit          3D

 56 59  0  0  0  0  0  0  0  0999 V2000
    2.9818    1.3886   -4.7008 C   0  0  0  0  0  0  0  0  0  0  0  0
    2.6203    1.1995   -3.2364 C   0  0  0  0  0  0  0  0  0  0  0  0
    3.6966    0.5080   -2.6051 O   0  0  0  0  0  0  0  0  0  0  0  0
    3.5464    0.1830   -1.2807 C   0  0  0  0  0  0  0  0  0  0  0  0
    2.4731    0.5739   -0.4719 C   0  0  0  0  0  0  0  0  0  0  0  0
    2.3907    0.1573    0.8669 C   0  0  0  0  0  0  0  0  0  0  0  0
    1.2969    0.5761    1.7553 C   0  0  0  0  0  0  0  0  0  0  0  0
   -0.0313    0.5114    1.5605 C   0  0  0  0  0  0  0  0  0  0  0  0
   -1.1248    1.0731    2.7652 S   0  0  0  0  0  0  0  0  0  0  0  0
   -2.5397    0.6152    1.8429 C   0  0  0  0  0  0  0  0  0  0  0  0
   -3.7590    0.6767    2.2721 N   0  0  0  0  0  0  0  0  0  0  0  0
   -4.0458    1.1436    3.5614 C   0  0  0  0  0  0  0  0  0  0  0  0
   -4.0320    0.2721    4.6513 C   0  0  0  0  0  0  0  0  0  0  0  0
   -4.3169    0.7399    5.9367 C   0  0  0  0  0  0  0  0  0  0  0  0
   -4.6384    2.0812    6.1328 C   0  0  0  0  0  0  0  0  0  0  0  0
   -4.6892    2.9479    5.0460 C   0  0  0  0  0  0  0  0  0  0  0  0
   -4.3969    2.4784    3.7630 C   0  0  0  0  0  0  0  0  0  0  0  0
   -2.1720    0.1275    0.5988 N   0  0  0  0  0  0  0  0  0  0  0  0
   -3.1272   -0.2135   -0.4226 C   0  0  0  0  0  0  0  0  0  0  0  0
   -2.8632   -1.2174   -1.3691 C   0  0  0  0  0  0  0  0  0  0  0  0
   -3.7785   -1.5223   -2.3855 C   0  0  0  0  0  0  0  0  0  0  0  0
   -4.9796   -0.8302   -2.4788 C   0  0  0  0  0  0  0  0  0  0  0  0
   -5.2660    0.1684   -1.5548 C   0  0  0  0  0  0  0  0  0  0  0  0
   -4.3499    0.4719   -0.5394 C   0  0  0  0  0  0  0  0  0  0  0  0
   -0.8005   -0.0082    0.3873 C   0  0  0  0  0  0  0  0  0  0  0  0
   -0.2439   -0.4449   -0.6125 O   0  0  0  0  0  0  0  0  0  0  0  0
    3.4359   -0.6012    1.4122 C   0  0  0  0  0  0  0  0  0  0  0  0
    4.5252   -0.9739    0.6251 C   0  0  0  0  0  0  0  0  0  0  0  0
    4.5633   -0.6016   -0.7173 C   0  0  0  0  0  0  0  0  0  0  0  0
    5.6485   -0.9640   -1.4754 O   0  0  0  0  0  0  0  0  0  0  0  0
    5.5016   -2.2899   -1.9796 C   0  0  0  0  0  0  0  0  0  0  0  0
    6.4419   -3.2641   -1.2858 C   0  0  0  0  0  0  0  0  0  0  0  0
    7.1986   -3.0512   -0.3464 O   0  0  0  0  0  0  0  0  0  0  0  0
    6.3735   -4.5017   -1.8159 O   0  0  0  0  0  0  0  0  0  0  0  0
    3.1429    0.4216   -5.1888 H   0  0  0  0  0  0  0  0  0  0  0  0
    2.1892    1.9247   -5.2328 H   0  0  0  0  0  0  0  0  0  0  0  0
    3.9165    1.9497   -4.7979 H   0  0  0  0  0  0  0  0  0  0  0  0
    2.4785    2.1846   -2.7751 H   0  0  0  0  0  0  0  0  0  0  0  0
    1.6961    0.6144   -3.1700 H   0  0  0  0  0  0  0  0  0  0  0  0
    1.6805    1.2017   -0.8721 H   0  0  0  0  0  0  0  0  0  0  0  0
    1.6620    0.9738    2.7035 H   0  0  0  0  0  0  0  0  0  0  0  0
   -3.7931   -0.7750    4.4986 H   0  0  0  0  0  0  0  0  0  0  0  0
   -4.2885    0.0592    6.7803 H   0  0  0  0  0  0  0  0  0  0  0  0
   -4.8596    2.4461    7.1339 H   0  0  0  0  0  0  0  0  0  0  0  0
   -4.9537    3.9903    5.1950 H   0  0  0  0  0  0  0  0  0  0  0  0
   -4.4415    3.1523    2.9183 H   0  0  0  0  0  0  0  0  0  0  0  0
   -1.9525   -1.8135   -1.3253 H   0  0  0  0  0  0  0  0  0  0  0  0
   -3.5423   -2.3047   -3.1022 H   0  0  0  0  0  0  0  0  0  0  0  0
   -5.6876   -1.0641   -3.2712 H   0  0  0  0  0  0  0  0  0  0  0  0
   -6.2001    0.7247   -1.6241 H   0  0  0  0  0  0  0  0  0  0  0  0
   -4.6101    1.2830    0.1347 H   0  0  0  0  0  0  0  0  0  0  0  0
    3.4181   -0.9041    2.4560 H   0  0  0  0  0  0  0  0  0  0  0  0
    5.3440   -1.5419    1.0598 H   0  0  0  0  0  0  0  0  0  0  0  0
    5.7666   -2.2512   -3.0409 H   0  0  0  0  0  0  0  0  0  0  0  0
    4.4756   -2.6743   -1.8908 H   0  0  0  0  0  0  0  0  0  0  0  0
    7.0194   -5.0074   -1.2730 H   0  0  0  0  0  0  0  0  0  0  0  0
  1  2  1  0
  2  3  1  0
  3  4  1  0
  4  5  2  0
  5  6  1  0
  6  7  1  0
  7  8  2  3
  8  9  1  0
  9 10  1  0
 10 11  2  3
 11 12  1  0
 12 13  2  0
 13 14  1  0
 14 15  2  0
 15 16  1  0
 16 17  2  0
 10 18  1  0
 18 19  1  0
 19 20  2  0
 20 21  1  0
 21 22  2  0
 22 23  1  0
 23 24  2  0
 18 25  1  0
 25 26  2  0
  6 27  2  0
 27 28  1  0
 28 29  2  0
 29 30  1  0
 30 31  1  0
 31 32  1  0
 32 33  2  0
 32 34  1  0
 29  4  1  0
 25  8  1  0
 17 12  1  0
 24 19  1  0
  1 35  1  0
  1 36  1  0
  1 37  1  0
  2 38  1  0
  2 39  1  0
  5 40  1  0
  7 41  1  0
 13 42  1  0
 14 43  1  0
 15 44  1  0
 16 45  1  0
 17 46  1  0
 20 47  1  0
 21 48  1  0
 22 49  1  0
 23 50  1  0
 24 51  1  0
 27 52  1  0
 28 53  1  0
 31 54  1  0
 31 55  1  0
 34 56  1  0
M  END
$$$$
