
     RDKit          3D

 59 63  0  0  0  0  0  0  0  0999 V2000
   -2.9666   -1.9460    2.4344 C   0  0  0  0  0  0  0  0  0  0  0  0
   -3.6654   -1.1271    1.5057 O   0  0  0  0  0  0  0  0  0  0  0  0
   -3.9682   -1.6974    0.2941 C   0  0  0  0  0  0  0  0  0  0  0  0
   -4.0985   -3.0780    0.0993 C   0  0  0  0  0  0  0  0  0  0  0  0
   -4.4374   -3.5885   -1.1564 C   0  0  0  0  0  0  0  0  0  0  0  0
   -4.6569   -2.7264   -2.2265 C   0  0  0  0  0  0  0  0  0  0  0  0
   -4.5403   -1.3494   -2.0418 C   0  0  0  0  0  0  0  0  0  0  0  0
   -4.2005   -0.8203   -0.7845 C   0  0  0  0  0  0  0  0  0  0  0  0
   -4.0610    0.6368   -0.6389 C   0  0  0  0  0  0  0  0  0  0  0  0
   -5.4792    1.5928   -0.6538 S   0  0  0  0  0  0  0  0  0  0  0  0
   -4.6040    3.0549   -0.4371 C   0  0  0  0  0  0  0  0  0  0  0  0
   -5.1419    4.3548   -0.3477 C   0  0  0  0  0  0  0  0  0  0  0  0
   -4.2774    5.4374   -0.1753 C   0  0  0  0  0  0  0  0  0  0  0  0
   -2.9076    5.2373   -0.0948 C   0  0  0  0  0  0  0  0  0  0  0  0
   -2.3790    3.9461   -0.1834 C   0  0  0  0  0  0  0  0  0  0  0  0
   -3.2296    2.8220   -0.3544 C   0  0  0  0  0  0  0  0  0  0  0  0
   -2.9242    1.4125   -0.4714 C   0  0  0  0  0  0  0  0  0  0  0  0
   -1.5915    0.8205   -0.4148 C   0  0  0  0  0  0  0  0  0  0  0  0
   -1.0103    0.2627   -1.5580 C   0  0  0  0  0  0  0  0  0  0  0  0
    0.2684   -0.3034   -1.4977 C   0  0  0  0  0  0  0  0  0  0  0  0
    0.9760   -0.3108   -0.2951 C   0  0  0  0  0  0  0  0  0  0  0  0
    2.2251   -0.8306   -0.0992 O   0  0  0  0  0  0  0  0  0  0  0  0
    2.8853   -1.3903   -1.2372 C   0  0  0  0  0  0  0  0  0  0  0  0
    4.2853   -1.8897   -0.8273 C   0  0  0  0  0  0  0  0  0  0  0  0
    5.3261   -0.8419   -0.8040 N   0  0  0  0  0  0  0  0  0  0  0  0
    6.6690   -1.4076   -0.5458 C   0  0  0  0  0  0  0  0  0  0  0  0
    7.1479   -1.2198    0.9023 C   0  0  0  0  0  0  0  0  0  0  0  0
    7.2226    0.1568    1.2957 O   0  0  0  0  0  0  0  0  0  0  0  0
    6.2797    0.9894    0.6048 C   0  0  0  0  0  0  0  0  0  0  0  0
    5.0172    0.2270    0.1736 C   0  0  0  0  0  0  0  0  0  0  0  0
    0.3952    0.2514    0.8446 C   0  0  0  0  0  0  0  0  0  0  0  0
   -0.8806    0.8168    0.7884 C   0  0  0  0  0  0  0  0  0  0  0  0
   -3.6397   -2.6809    2.8869 H   0  0  0  0  0  0  0  0  0  0  0  0
   -2.1015   -2.4340    1.9723 H   0  0  0  0  0  0  0  0  0  0  0  0
   -2.5949   -1.2994    3.2352 H   0  0  0  0  0  0  0  0  0  0  0  0
   -3.9576   -3.7811    0.9136 H   0  0  0  0  0  0  0  0  0  0  0  0
   -4.5374   -4.6622   -1.2954 H   0  0  0  0  0  0  0  0  0  0  0  0
   -4.9230   -3.1237   -3.2025 H   0  0  0  0  0  0  0  0  0  0  0  0
   -4.7129   -0.6842   -2.8852 H   0  0  0  0  0  0  0  0  0  0  0  0
   -6.2147    4.5133   -0.4118 H   0  0  0  0  0  0  0  0  0  0  0  0
   -4.6838    6.4435   -0.1051 H   0  0  0  0  0  0  0  0  0  0  0  0
   -2.2398    6.0849    0.0371 H   0  0  0  0  0  0  0  0  0  0  0  0
   -1.3024    3.8049   -0.1224 H   0  0  0  0  0  0  0  0  0  0  0  0
   -1.5490    0.2632   -2.5027 H   0  0  0  0  0  0  0  0  0  0  0  0
    0.6777   -0.7288   -2.4075 H   0  0  0  0  0  0  0  0  0  0  0  0
    2.9739   -0.6520   -2.0438 H   0  0  0  0  0  0  0  0  0  0  0  0
    2.3080   -2.2521   -1.5946 H   0  0  0  0  0  0  0  0  0  0  0  0
    4.2323   -2.3969    0.1445 H   0  0  0  0  0  0  0  0  0  0  0  0
    4.5822   -2.6339   -1.5770 H   0  0  0  0  0  0  0  0  0  0  0  0
    6.7244   -2.4664   -0.8250 H   0  0  0  0  0  0  0  0  0  0  0  0
    7.3666   -0.8797   -1.2084 H   0  0  0  0  0  0  0  0  0  0  0  0
    8.1478   -1.6484    1.0251 H   0  0  0  0  0  0  0  0  0  0  0  0
    6.4836   -1.7405    1.6019 H   0  0  0  0  0  0  0  0  0  0  0  0
    6.0122    1.8088    1.2798 H   0  0  0  0  0  0  0  0  0  0  0  0
    6.7840    1.4334   -0.2615 H   0  0  0  0  0  0  0  0  0  0  0  0
    4.3078    0.9321   -0.2726 H   0  0  0  0  0  0  0  0  0  0  0  0
    4.5600   -0.2001    1.0756 H   0  0  0  0  0  0  0  0  0  0  0  0
    0.9394    0.2476    1.7855 H   0  0  0  0  0  0  0  0  0  0  0  0
   -1.3209    1.2406    1.6879 H   0  0  0  0  0  0  0  0  0  0  0  0
  1  2  1  0
  2  3  1  0
  3  4  2  0
  4  5  1  0
  5  6  2  0
  6  7  1  0
  7  8  2  0
  8  9  1  0
  9 10  1  0
 10 11  1  0
 11 12  2  0
 12 13  1  0
 13 14  2  0
 14 15  1  0
 15 16  2  0
 16 17  1  0
 17 18  1  0
 18 19  2  0
 19 20  1  0
 20 21  2  0
 21 22  1  0
 22 23  1  0
 23 24  1  0
 24 25  1  0
 25 26  1  0
 26 27  1  0
 27 28  1  0
 28 29  1  0
 29 30  1  0
 21 31  1  0
 31 32  2  0
  8  3  1  0
 17  9  2  0
 32 18  1  0
 16 11  1  0
 30 25  1  0
  1 33  1  0
  1 34  1  0
  1 35  1  0
  4 36  1  0
  5 37  1  0
  6 38  1  0
  7 39  1  0
 12 40  1  0
 13 41  1  0
 14 42  1  0
 15 43  1  0
 19 44  1  0
 20 45  1  0
 23 46  1  0
 23 47  1  0
 24 48  1  0
 24 49  1  0
 26 50  1  0
 26 51  1  0
 27 52  1  0
 27 53  1  0
 29 54  1  0
 29 55  1  0
 30 56  1  0
 30 57  1  0
 31 58  1  0
 32 59  1  0
M  END
$$$$
