
     RDKit          3D

 35 37  0  0  0  0  0  0  0  0999 V2000
   -6.7851    0.4920   -0.5274 O   0  0  0  0  0  0  0  0  0  0  0  0
   -5.4275    0.3892   -0.6031 C   0  0  0  0  0  0  0  0  0  0  0  0
   -4.7636    1.2246   -1.4931 C   0  0  0  0  0  0  0  0  0  0  0  0
   -3.3743    1.1541   -1.6040 C   0  0  0  0  0  0  0  0  0  0  0  0
   -2.6479    0.2436   -0.8244 C   0  0  0  0  0  0  0  0  0  0  0  0
   -1.1425    0.1779   -0.9219 C   0  0  0  0  0  0  0  0  0  0  0  0
   -0.4693    1.0544    0.1411 C   0  0  0  0  0  0  0  0  0  0  0  0
    0.9918    1.0335    0.0116 N   0  0  0  0  0  0  0  0  0  0  0  0
    1.6520   -0.0893    0.5606 C   0  0  0  0  0  0  0  0  0  0  0  0
    0.9237   -1.0446    1.1620 N   0  0  0  0  0  0  0  0  0  0  0  0
    1.5940   -2.0818    1.6743 C   0  0  0  0  0  0  0  0  0  0  0  0
    2.9185   -2.2615    1.6469 N   0  0  0  0  0  0  0  0  0  0  0  0
    3.6347   -1.3188    1.0315 C   0  0  0  0  0  0  0  0  0  0  0  0
    5.0148   -1.4716    0.9649 C   0  0  0  0  0  0  0  0  0  0  0  0
    5.8322   -0.5332    0.3278 C   0  0  0  0  0  0  0  0  0  0  0  0
    5.2574    0.5833   -0.2619 C   0  0  0  0  0  0  0  0  0  0  0  0
    6.2473    1.7414   -1.0572 Cl  0  0  0  0  0  0  0  0  0  0  0  0
    3.8792    0.7641   -0.2094 C   0  0  0  0  0  0  0  0  0  0  0  0
    3.0529   -0.1833    0.4472 C   0  0  0  0  0  0  0  0  0  0  0  0
   -3.3343   -0.5888    0.0720 C   0  0  0  0  0  0  0  0  0  0  0  0
   -4.7247   -0.5185    0.1823 C   0  0  0  0  0  0  0  0  0  0  0  0
   -7.1075   -0.1590    0.1169 H   0  0  0  0  0  0  0  0  0  0  0  0
   -5.3261    1.9283   -2.0998 H   0  0  0  0  0  0  0  0  0  0  0  0
   -2.8642    1.8124   -2.3035 H   0  0  0  0  0  0  0  0  0  0  0  0
   -0.8257   -0.8684   -0.8362 H   0  0  0  0  0  0  0  0  0  0  0  0
   -0.8239    0.4960   -1.9233 H   0  0  0  0  0  0  0  0  0  0  0  0
   -0.7929    2.0926   -0.0090 H   0  0  0  0  0  0  0  0  0  0  0  0
   -0.7903    0.7915    1.1574 H   0  0  0  0  0  0  0  0  0  0  0  0
    1.4016    1.8684    0.4241 H   0  0  0  0  0  0  0  0  0  0  0  0
    1.0060   -2.8517    2.1620 H   0  0  0  0  0  0  0  0  0  0  0  0
    5.4688   -2.3501    1.4195 H   0  0  0  0  0  0  0  0  0  0  0  0
    6.9073   -0.6885    0.2944 H   0  0  0  0  0  0  0  0  0  0  0  0
    3.4371    1.6329   -0.6909 H   0  0  0  0  0  0  0  0  0  0  0  0
   -2.7845   -1.2975    0.6884 H   0  0  0  0  0  0  0  0  0  0  0  0
   -5.2351   -1.1736    0.8806 H   0  0  0  0  0  0  0  0  0  0  0  0
  1  2  1  0
  2  3  2  0
  3  4  1  0
  4  5  2  0
  5  6  1  0
  6  7  1  0
  7  8  1  0
  8  9  1  0
  9 10  2  0
 10 11  1  0
 11 12  2  0
 12 13  1  0
 13 14  2  0
 14 15  1  0
 15 16  2  0
 16 17  1  0
 16 18  1  0
 18 19  2  0
  5 20  1  0
 20 21  2  0
 21  2  1  0
 19  9  1  0
 19 13  1  0
  1 22  1  0
  3 23  1  0
  4 24  1  0
  6 25  1  0
  6 26  1  0
  7 27  1  0
  7 28  1  0
  8 29  1  0
 11 30  1  0
 14 31  1  0
 15 32  1  0
 18 33  1  0
 20 34  1  0
 21 35  1  0
M  END
$$$$
