
     RDKit          3D

 53 56  0  0  0  0  0  0  0  0999 V2000
    8.8342    1.0989    0.4139 C   0  0  0  0  0  0  0  0  0  0  0  0
    7.4940    1.8133    0.4435 C   0  0  0  0  0  0  0  0  0  0  0  0
    6.3410    0.8668    0.1232 C   0  0  0  0  0  0  0  0  0  0  0  0
    5.1282    1.6181    0.1844 O   0  0  0  0  0  0  0  0  0  0  0  0
    3.9629    0.9268   -0.0002 C   0  0  0  0  0  0  0  0  0  0  0  0
    3.8495   -0.4182   -0.3394 C   0  0  0  0  0  0  0  0  0  0  0  0
    2.5836   -1.0044   -0.4883 C   0  0  0  0  0  0  0  0  0  0  0  0
    1.3978   -0.2697   -0.3041 C   0  0  0  0  0  0  0  0  0  0  0  0
    0.0676   -0.8993   -0.4415 C   0  0  0  0  0  0  0  0  0  0  0  0
   -1.0103   -0.1446   -0.1727 N   0  0  0  0  0  0  0  0  0  0  0  0
   -2.2152   -0.7354   -0.2601 C   0  0  0  0  0  0  0  0  0  0  0  0
   -3.3659    0.0310    0.0520 N   0  0  0  0  0  0  0  0  0  0  0  0
   -3.4614    1.2065   -0.8347 C   0  0  0  0  0  0  0  0  0  0  0  0
   -4.7766    1.9690   -0.5347 C   0  0  0  0  0  0  0  0  0  0  0  0
   -5.0658    2.2282    0.8989 N   0  0  0  0  0  0  0  0  0  0  0  0
   -6.2851    1.5317    1.3163 C   0  0  0  0  0  0  0  0  0  0  0  0
   -3.9184    1.8223    1.7393 C   0  0  0  0  0  0  0  0  0  0  0  0
   -3.3708    0.3929    1.4916 C   0  0  0  0  0  0  0  0  0  0  0  0
   -2.3678   -2.0793   -0.6312 C   0  0  0  0  0  0  0  0  0  0  0  0
   -3.6103   -2.7489   -0.7477 C   0  0  0  0  0  0  0  0  0  0  0  0
   -3.6648   -4.0870   -1.1260 C   0  0  0  0  0  0  0  0  0  0  0  0
   -2.4833   -4.7667   -1.3889 C   0  0  0  0  0  0  0  0  0  0  0  0
   -1.2591   -4.1023   -1.2723 C   0  0  0  0  0  0  0  0  0  0  0  0
   -1.1804   -2.7665   -0.8979 C   0  0  0  0  0  0  0  0  0  0  0  0
    0.0225   -2.1933   -0.8029 N   0  0  0  0  0  0  0  0  0  0  0  0
    1.5405    1.0890    0.0277 C   0  0  0  0  0  0  0  0  0  0  0  0
    2.8027    1.6777    0.1752 C   0  0  0  0  0  0  0  0  0  0  0  0
    8.8621    0.2861    1.1460 H   0  0  0  0  0  0  0  0  0  0  0  0
    9.6425    1.7970    0.6513 H   0  0  0  0  0  0  0  0  0  0  0  0
    9.0303    0.6764   -0.5766 H   0  0  0  0  0  0  0  0  0  0  0  0
    7.4979    2.6433   -0.2740 H   0  0  0  0  0  0  0  0  0  0  0  0
    7.3348    2.2673    1.4300 H   0  0  0  0  0  0  0  0  0  0  0  0
    6.4748    0.4537   -0.8841 H   0  0  0  0  0  0  0  0  0  0  0  0
    6.3218    0.0558    0.8617 H   0  0  0  0  0  0  0  0  0  0  0  0
    4.7195   -1.0452   -0.4967 H   0  0  0  0  0  0  0  0  0  0  0  0
    2.5299   -2.0604   -0.7495 H   0  0  0  0  0  0  0  0  0  0  0  0
   -3.4743    0.8923   -1.8869 H   0  0  0  0  0  0  0  0  0  0  0  0
   -2.6050    1.8843   -0.7011 H   0  0  0  0  0  0  0  0  0  0  0  0
   -5.6045    1.4214   -1.0035 H   0  0  0  0  0  0  0  0  0  0  0  0
   -4.7335    2.9370   -1.0473 H   0  0  0  0  0  0  0  0  0  0  0  0
   -7.1460    1.8835    0.7341 H   0  0  0  0  0  0  0  0  0  0  0  0
   -6.2136    0.4441    1.1988 H   0  0  0  0  0  0  0  0  0  0  0  0
   -6.5101    1.7492    2.3668 H   0  0  0  0  0  0  0  0  0  0  0  0
   -3.1067    2.5412    1.5537 H   0  0  0  0  0  0  0  0  0  0  0  0
   -4.1608    1.9406    2.8032 H   0  0  0  0  0  0  0  0  0  0  0  0
   -4.0065   -0.3338    2.0133 H   0  0  0  0  0  0  0  0  0  0  0  0
   -2.3750    0.3312    1.9511 H   0  0  0  0  0  0  0  0  0  0  0  0
   -4.5349   -2.2128   -0.5427 H   0  0  0  0  0  0  0  0  0  0  0  0
   -4.6226   -4.5919   -1.2149 H   0  0  0  0  0  0  0  0  0  0  0  0
   -2.5062   -5.8118   -1.6847 H   0  0  0  0  0  0  0  0  0  0  0  0
   -0.3390   -4.6440   -1.4801 H   0  0  0  0  0  0  0  0  0  0  0  0
    0.6586    1.7083    0.1795 H   0  0  0  0  0  0  0  0  0  0  0  0
    2.8771    2.7306    0.4353 H   0  0  0  0  0  0  0  0  0  0  0  0
  1  2  1  0
  2  3  1  0
  3  4  1  0
  4  5  1  0
  5  6  2  0
  6  7  1  0
  7  8  2  0
  8  9  1  0
  9 10  2  0
 10 11  1  0
 11 12  1  0
 12 13  1  0
 13 14  1  0
 14 15  1  0
 15 16  1  0
 15 17  1  0
 17 18  1  0
 11 19  2  0
 19 20  1  0
 20 21  2  0
 21 22  1  0
 22 23  2  0
 23 24  1  0
 24 25  2  0
  8 26  1  0
 26 27  2  0
 27  5  1  0
 25  9  1  0
 18 12  1  0
 24 19  1  0
  1 28  1  0
  1 29  1  0
  1 30  1  0
  2 31  1  0
  2 32  1  0
  3 33  1  0
  3 34  1  0
  6 35  1  0
  7 36  1  0
 13 37  1  0
 13 38  1  0
 14 39  1  0
 14 40  1  0
 16 41  1  0
 16 42  1  0
 16 43  1  0
 17 44  1  0
 17 45  1  0
 18 46  1  0
 18 47  1  0
 20 48  1  0
 21 49  1  0
 22 50  1  0
 23 51  1  0
 26 52  1  0
 27 53  1  0
M  END
$$$$
