
     RDKit          3D

 60 64  0  0  0  0  0  0  0  0999 V2000
    3.4081    2.2318    1.1174 C   0  0  0  0  0  0  0  0  0  0  0  0
    3.5062    0.9835    0.4460 O   0  0  0  0  0  0  0  0  0  0  0  0
    4.7557    0.4654    0.2157 C   0  0  0  0  0  0  0  0  0  0  0  0
    5.9420    1.1339    0.5560 C   0  0  0  0  0  0  0  0  0  0  0  0
    7.1888    0.5756    0.2634 C   0  0  0  0  0  0  0  0  0  0  0  0
    7.2679   -0.6540   -0.3771 C   0  0  0  0  0  0  0  0  0  0  0  0
    6.0973   -1.3299   -0.7184 C   0  0  0  0  0  0  0  0  0  0  0  0
    4.8283   -0.7931   -0.4219 C   0  0  0  0  0  0  0  0  0  0  0  0
    3.6562   -1.5809   -0.8129 C   0  0  0  0  0  0  0  0  0  0  0  0
    3.5760   -2.5456   -1.7106 N   0  0  0  0  0  0  0  0  0  0  0  0
    2.2573   -2.9424   -1.6383 C   0  0  0  0  0  0  0  0  0  0  0  0
    1.7733   -3.9964   -2.4663 C   0  0  0  0  0  0  0  0  0  0  0  0
    1.3581   -4.8431   -3.1463 N   0  0  0  0  0  0  0  0  0  0  0  0
    1.5684   -2.2075   -0.6900 C   0  0  0  0  0  0  0  0  0  0  0  0
    0.2943   -2.1451   -0.1978 N   0  0  0  0  0  0  0  0  0  0  0  0
   -0.8475   -2.4201   -1.0871 C   0  0  0  0  0  0  0  0  0  0  0  0
   -1.2445   -1.1454   -1.8716 C   0  0  0  0  0  0  0  0  0  0  0  0
   -1.4406    0.0792   -1.0748 N   0  0  0  0  0  0  0  0  0  0  0  0
   -2.8429    0.4054   -0.7381 C   0  0  0  0  0  0  0  0  0  0  0  0
   -3.4288   -0.4307    0.4045 C   0  0  0  0  0  0  0  0  0  0  0  0
   -3.2684   -0.0677    1.7538 C   0  0  0  0  0  0  0  0  0  0  0  0
   -3.8152   -0.8471    2.7753 C   0  0  0  0  0  0  0  0  0  0  0  0
   -4.5309   -2.0007    2.4661 C   0  0  0  0  0  0  0  0  0  0  0  0
   -4.7082   -2.3727    1.1360 C   0  0  0  0  0  0  0  0  0  0  0  0
   -4.1655   -1.5925    0.1130 C   0  0  0  0  0  0  0  0  0  0  0  0
   -3.1151    1.9234   -0.6275 C   0  0  0  0  0  0  0  0  0  0  0  0
   -2.1864    2.8836   -1.0694 C   0  0  0  0  0  0  0  0  0  0  0  0
   -2.4696    4.2509   -1.0038 C   0  0  0  0  0  0  0  0  0  0  0  0
   -3.6971    4.6879   -0.5162 C   0  0  0  0  0  0  0  0  0  0  0  0
   -4.6480    3.7580   -0.1063 C   0  0  0  0  0  0  0  0  0  0  0  0
   -4.3649    2.3912   -0.1729 C   0  0  0  0  0  0  0  0  0  0  0  0
   -0.4309    0.2298   -0.0084 C   0  0  0  0  0  0  0  0  0  0  0  0
   -0.0364   -1.0610    0.7519 C   0  0  0  0  0  0  0  0  0  0  0  0
    2.4898   -1.3541   -0.1403 O   0  0  0  0  0  0  0  0  0  0  0  0
    3.8468    2.1780    2.1191 H   0  0  0  0  0  0  0  0  0  0  0  0
    3.8612    3.0342    0.5260 H   0  0  0  0  0  0  0  0  0  0  0  0
    2.3448    2.4649    1.2332 H   0  0  0  0  0  0  0  0  0  0  0  0
    5.9326    2.1017    1.0466 H   0  0  0  0  0  0  0  0  0  0  0  0
    8.0984    1.1076    0.5318 H   0  0  0  0  0  0  0  0  0  0  0  0
    8.2359   -1.0893   -0.6124 H   0  0  0  0  0  0  0  0  0  0  0  0
    6.1750   -2.2940   -1.2205 H   0  0  0  0  0  0  0  0  0  0  0  0
   -0.6436   -3.2368   -1.7837 H   0  0  0  0  0  0  0  0  0  0  0  0
   -1.6891   -2.7617   -0.4755 H   0  0  0  0  0  0  0  0  0  0  0  0
   -0.4353   -0.9276   -2.5813 H   0  0  0  0  0  0  0  0  0  0  0  0
   -2.1190   -1.3612   -2.4964 H   0  0  0  0  0  0  0  0  0  0  0  0
   -3.4366    0.1596   -1.6322 H   0  0  0  0  0  0  0  0  0  0  0  0
   -2.7226    0.8356    2.0186 H   0  0  0  0  0  0  0  0  0  0  0  0
   -3.6834   -0.5513    3.8128 H   0  0  0  0  0  0  0  0  0  0  0  0
   -4.9551   -2.6077    3.2617 H   0  0  0  0  0  0  0  0  0  0  0  0
   -5.2707   -3.2709    0.8947 H   0  0  0  0  0  0  0  0  0  0  0  0
   -4.3211   -1.8995   -0.9193 H   0  0  0  0  0  0  0  0  0  0  0  0
   -1.2283    2.5762   -1.4834 H   0  0  0  0  0  0  0  0  0  0  0  0
   -1.7319    4.9723   -1.3458 H   0  0  0  0  0  0  0  0  0  0  0  0
   -3.9184    5.7506   -0.4693 H   0  0  0  0  0  0  0  0  0  0  0  0
   -5.6155    4.0937    0.2580 H   0  0  0  0  0  0  0  0  0  0  0  0
   -5.1380    1.6892    0.1345 H   0  0  0  0  0  0  0  0  0  0  0  0
    0.4744    0.6166   -0.4950 H   0  0  0  0  0  0  0  0  0  0  0  0
   -0.7135    1.0053    0.7117 H   0  0  0  0  0  0  0  0  0  0  0  0
   -0.8636   -1.4011    1.3830 H   0  0  0  0  0  0  0  0  0  0  0  0
    0.7899   -0.8541    1.4430 H   0  0  0  0  0  0  0  0  0  0  0  0
  1  2  1  0
  2  3  1  0
  3  4  2  0
  4  5  1  0
  5  6  2  0
  6  7  1  0
  7  8  2  0
  8  9  1  0
  9 10  2  0
 10 11  1  0
 11 12  1  0
 12 13  3  0
 11 14  2  0
 14 15  1  0
 15 16  1  0
 16 17  1  0
 17 18  1  0
 18 19  1  0
 19 20  1  0
 20 21  2  0
 21 22  1  0
 22 23  2  0
 23 24  1  0
 24 25  2  0
 19 26  1  0
 26 27  2  0
 27 28  1  0
 28 29  2  0
 29 30  1  0
 30 31  2  0
 18 32  1  0
 32 33  1  0
 14 34  1  0
  8  3  1  0
 34  9  1  0
 33 15  1  0
 25 20  1  0
 31 26  1  0
  1 35  1  0
  1 36  1  0
  1 37  1  0
  4 38  1  0
  5 39  1  0
  6 40  1  0
  7 41  1  0
 16 42  1  0
 16 43  1  0
 17 44  1  0
 17 45  1  0
 19 46  1  0
 21 47  1  0
 22 48  1  0
 23 49  1  0
 24 50  1  0
 25 51  1  0
 27 52  1  0
 28 53  1  0
 29 54  1  0
 30 55  1  0
 31 56  1  0
 32 57  1  0
 32 58  1  0
 33 59  1  0
 33 60  1  0
M  END
$$$$
