
     RDKit          3D

 49 52  0  0  0  0  0  0  0  0999 V2000
    6.3507   -1.9670   -1.5816 C   0  0  0  0  0  0  0  0  0  0  0  0
    5.1305   -2.5569   -0.8912 C   0  0  0  0  0  0  0  0  0  0  0  0
    4.2323   -1.4856   -0.3297 C   0  0  0  0  0  0  0  0  0  0  0  0
    3.2086   -0.9323   -1.1076 C   0  0  0  0  0  0  0  0  0  0  0  0
    2.3807    0.0748   -0.5930 C   0  0  0  0  0  0  0  0  0  0  0  0
    2.5564    0.5576    0.7090 C   0  0  0  0  0  0  0  0  0  0  0  0
    1.7275    1.6152    1.3118 C   0  0  0  0  0  0  0  0  0  0  0  0
    0.6214    2.2901    0.5300 C   0  0  0  0  0  0  0  0  0  0  0  0
   -0.5052    1.4090    0.1909 N   0  0  0  0  0  0  0  0  0  0  0  0
   -1.2223    0.9472    1.3911 C   0  0  0  0  0  0  0  0  0  0  0  0
   -2.5366    0.2767    1.0972 C   0  0  0  0  0  0  0  0  0  0  0  0
   -3.1487    0.3322   -0.1004 C   0  0  0  0  0  0  0  0  0  0  0  0
   -4.4322   -0.3542   -0.3538 C   0  0  0  0  0  0  0  0  0  0  0  0
   -5.4804   -0.2936    0.5774 C   0  0  0  0  0  0  0  0  0  0  0  0
   -6.7002   -0.9286    0.3273 C   0  0  0  0  0  0  0  0  0  0  0  0
   -6.8902   -1.6309   -0.8599 C   0  0  0  0  0  0  0  0  0  0  0  0
   -5.8625   -1.6967   -1.7972 C   0  0  0  0  0  0  0  0  0  0  0  0
   -4.6433   -1.0602   -1.5467 C   0  0  0  0  0  0  0  0  0  0  0  0
   -2.5131    1.1065   -1.2290 C   0  0  0  0  0  0  0  0  0  0  0  0
   -1.4334    2.0820   -0.7304 C   0  0  0  0  0  0  0  0  0  0  0  0
    2.0099    1.9956    2.5679 C   0  0  0  0  0  0  0  0  0  0  0  0
    3.0809    1.4020    3.3796 C   0  0  0  0  0  0  0  0  0  0  0  0
    3.2763    1.7858    4.5273 O   0  0  0  0  0  0  0  0  0  0  0  0
    3.8418    0.4127    2.7877 O   0  0  0  0  0  0  0  0  0  0  0  0
    3.5851   -0.0045    1.4674 C   0  0  0  0  0  0  0  0  0  0  0  0
    4.4201   -1.0081    0.9697 C   0  0  0  0  0  0  0  0  0  0  0  0
    6.0607   -1.3178   -2.4147 H   0  0  0  0  0  0  0  0  0  0  0  0
    6.9519   -1.3720   -0.8858 H   0  0  0  0  0  0  0  0  0  0  0  0
    6.9839   -2.7664   -1.9791 H   0  0  0  0  0  0  0  0  0  0  0  0
    4.5673   -3.1767   -1.5995 H   0  0  0  0  0  0  0  0  0  0  0  0
    5.4494   -3.2304   -0.0864 H   0  0  0  0  0  0  0  0  0  0  0  0
    3.0417   -1.2838   -2.1240 H   0  0  0  0  0  0  0  0  0  0  0  0
    1.5915    0.4605   -1.2334 H   0  0  0  0  0  0  0  0  0  0  0  0
    0.2527    3.1723    1.0725 H   0  0  0  0  0  0  0  0  0  0  0  0
    1.0699    2.6869   -0.3915 H   0  0  0  0  0  0  0  0  0  0  0  0
   -1.4213    1.7806    2.0774 H   0  0  0  0  0  0  0  0  0  0  0  0
   -0.5970    0.2214    1.9241 H   0  0  0  0  0  0  0  0  0  0  0  0
   -2.9728   -0.2822    1.9207 H   0  0  0  0  0  0  0  0  0  0  0  0
   -5.3625    0.2623    1.5045 H   0  0  0  0  0  0  0  0  0  0  0  0
   -7.5012   -0.8707    1.0594 H   0  0  0  0  0  0  0  0  0  0  0  0
   -7.8378   -2.1259   -1.0546 H   0  0  0  0  0  0  0  0  0  0  0  0
   -6.0060   -2.2462   -2.7238 H   0  0  0  0  0  0  0  0  0  0  0  0
   -3.8538   -1.1389   -2.2898 H   0  0  0  0  0  0  0  0  0  0  0  0
   -2.0601    0.4038   -1.9398 H   0  0  0  0  0  0  0  0  0  0  0  0
   -3.2730    1.6826   -1.7711 H   0  0  0  0  0  0  0  0  0  0  0  0
   -1.9037    2.9487   -0.2458 H   0  0  0  0  0  0  0  0  0  0  0  0
   -0.8924    2.4576   -1.6079 H   0  0  0  0  0  0  0  0  0  0  0  0
    1.4492    2.7759    3.0702 H   0  0  0  0  0  0  0  0  0  0  0  0
    5.2096   -1.4105    1.5993 H   0  0  0  0  0  0  0  0  0  0  0  0
  1  2  1  0
  2  3  1  0
  3  4  2  0
  4  5  1  0
  5  6  2  0
  6  7  1  0
  7  8  1  0
  8  9  1  0
  9 10  1  0
 10 11  1  0
 11 12  2  0
 12 13  1  0
 13 14  2  0
 14 15  1  0
 15 16  2  0
 16 17  1  0
 17 18  2  0
 12 19  1  0
 19 20  1  0
  7 21  2  0
 21 22  1  0
 22 23  2  0
 22 24  1  0
 24 25  1  0
 25 26  2  0
 26  3  1  0
 25  6  1  0
 20  9  1  0
 18 13  1  0
  1 27  1  0
  1 28  1  0
  1 29  1  0
  2 30  1  0
  2 31  1  0
  4 32  1  0
  5 33  1  0
  8 34  1  0
  8 35  1  0
 10 36  1  0
 10 37  1  0
 11 38  1  0
 14 39  1  0
 15 40  1  0
 16 41  1  0
 17 42  1  0
 18 43  1  0
 19 44  1  0
 19 45  1  0
 20 46  1  0
 20 47  1  0
 21 48  1  0
 26 49  1  0
M  END
$$$$
