
     RDKit          3D

 42 43  0  0  0  0  0  0  0  0999 V2000
   -4.4007   -2.6115    3.5940 C   0  0  0  0  0  0  0  0  0  0  0  0
   -4.2206   -1.0937    3.6773 C   0  0  0  0  0  0  0  0  0  0  0  0
   -5.5018   -0.3691    3.2570 C   0  0  0  0  0  0  0  0  0  0  0  0
   -3.0255   -0.6268    2.8657 C   0  0  0  0  0  0  0  0  0  0  0  0
   -1.9550    0.0107    3.5053 C   0  0  0  0  0  0  0  0  0  0  0  0
   -0.8484    0.4488    2.7732 C   0  0  0  0  0  0  0  0  0  0  0  0
   -0.7860    0.2607    1.3920 C   0  0  0  0  0  0  0  0  0  0  0  0
    0.3514    0.7375    0.8034 O   0  0  0  0  0  0  0  0  0  0  0  0
    0.4805    0.5599   -0.5982 C   0  0  0  0  0  0  0  0  0  0  0  0
    1.7969    1.1477   -1.1176 C   0  0  0  0  0  0  0  0  0  0  0  0
    2.5775    1.8021   -0.4335 O   0  0  0  0  0  0  0  0  0  0  0  0
    2.0213    0.8784   -2.4605 N   0  0  0  0  0  0  0  0  0  0  0  0
    3.2630    1.2706   -3.0973 C   0  0  0  0  0  0  0  0  0  0  0  0
    4.4277    0.3247   -2.7636 C   0  0  0  0  0  0  0  0  0  0  0  0
    5.0602   -0.0586   -4.0998 C   0  0  0  0  0  0  0  0  0  0  0  0
    4.5806    1.0017   -5.0777 C   0  0  0  0  0  0  0  0  0  0  0  0
    3.1555    1.2624   -4.6220 C   0  0  0  0  0  0  0  0  0  0  0  0
   -1.8462   -0.3717    0.7452 C   0  0  0  0  0  0  0  0  0  0  0  0
   -2.9562   -0.8116    1.4772 C   0  0  0  0  0  0  0  0  0  0  0  0
   -5.2123   -2.9391    4.2527 H   0  0  0  0  0  0  0  0  0  0  0  0
   -4.6447   -2.9402    2.5782 H   0  0  0  0  0  0  0  0  0  0  0  0
   -3.4873   -3.1319    3.9028 H   0  0  0  0  0  0  0  0  0  0  0  0
   -4.0429   -0.8484    4.7330 H   0  0  0  0  0  0  0  0  0  0  0  0
   -5.3779    0.7176    3.3252 H   0  0  0  0  0  0  0  0  0  0  0  0
   -5.7883   -0.6080    2.2270 H   0  0  0  0  0  0  0  0  0  0  0  0
   -6.3356   -0.6530    3.9082 H   0  0  0  0  0  0  0  0  0  0  0  0
   -1.9699    0.1745    4.5805 H   0  0  0  0  0  0  0  0  0  0  0  0
   -0.0260    0.9430    3.2854 H   0  0  0  0  0  0  0  0  0  0  0  0
    0.4772   -0.5096   -0.8419 H   0  0  0  0  0  0  0  0  0  0  0  0
   -0.3311    1.0783   -1.1230 H   0  0  0  0  0  0  0  0  0  0  0  0
    1.4711    0.1520   -2.8998 H   0  0  0  0  0  0  0  0  0  0  0  0
    3.5199    2.2817   -2.7560 H   0  0  0  0  0  0  0  0  0  0  0  0
    5.1584    0.8484   -2.1367 H   0  0  0  0  0  0  0  0  0  0  0  0
    4.1131   -0.5696   -2.2148 H   0  0  0  0  0  0  0  0  0  0  0  0
    4.6954   -1.0449   -4.4105 H   0  0  0  0  0  0  0  0  0  0  0  0
    6.1517   -0.1086   -4.0424 H   0  0  0  0  0  0  0  0  0  0  0  0
    5.1852    1.9112   -4.9806 H   0  0  0  0  0  0  0  0  0  0  0  0
    4.6313    0.6633   -6.1164 H   0  0  0  0  0  0  0  0  0  0  0  0
    2.4977    0.4561   -4.9701 H   0  0  0  0  0  0  0  0  0  0  0  0
    2.7599    2.2053   -5.0124 H   0  0  0  0  0  0  0  0  0  0  0  0
   -1.8486   -0.5388   -0.3262 H   0  0  0  0  0  0  0  0  0  0  0  0
   -3.7704   -1.3013    0.9478 H   0  0  0  0  0  0  0  0  0  0  0  0
  1  2  1  0
  2  3  1  0
  2  4  1  0
  4  5  2  0
  5  6  1  0
  6  7  2  0
  7  8  1  0
  8  9  1  0
  9 10  1  0
 10 11  2  0
 10 12  1  0
 12 13  1  0
 13 14  1  0
 14 15  1  0
 15 16  1  0
 16 17  1  0
  7 18  1  0
 18 19  2  0
 19  4  1  0
 17 13  1  0
  1 20  1  0
  1 21  1  0
  1 22  1  0
  2 23  1  0
  3 24  1  0
  3 25  1  0
  3 26  1  0
  5 27  1  0
  6 28  1  0
  9 29  1  0
  9 30  1  0
 12 31  1  0
 13 32  1  0
 14 33  1  0
 14 34  1  0
 15 35  1  0
 15 36  1  0
 16 37  1  0
 16 38  1  0
 17 39  1  0
 17 40  1  0
 18 41  1  0
 19 42  1  0
M  END
$$$$
