
     RDKit          3D

 39 41  0  0  0  0  0  0  0  0999 V2000
    5.1718    2.7871    1.3194 C   0  0  0  0  0  0  0  0  0  0  0  0
    4.2511    2.2291    0.2688 C   0  0  0  0  0  0  0  0  0  0  0  0
    3.3121    3.0749   -0.3411 C   0  0  0  0  0  0  0  0  0  0  0  0
    2.4441    2.5889   -1.3204 C   0  0  0  0  0  0  0  0  0  0  0  0
    2.4891    1.2485   -1.6992 C   0  0  0  0  0  0  0  0  0  0  0  0
    1.6314    0.7651   -2.6963 N   0  0  0  0  0  0  0  0  0  0  0  0
    0.4903    0.2694   -2.3634 C   0  0  0  0  0  0  0  0  0  0  0  0
   -0.3439   -0.2002   -3.3215 N   0  0  0  0  0  0  0  0  0  0  0  0
   -1.5460   -0.7203   -2.9368 C   0  0  0  0  0  0  0  0  0  0  0  0
   -2.3699   -1.1708   -3.7165 O   0  0  0  0  0  0  0  0  0  0  0  0
   -1.6754   -0.6470   -1.4510 C   0  0  0  0  0  0  0  0  0  0  0  0
   -2.6953   -1.0470   -0.6759 C   0  0  0  0  0  0  0  0  0  0  0  0
   -3.9348   -1.6590   -1.1132 C   0  0  0  0  0  0  0  0  0  0  0  0
   -4.9853   -2.0666   -0.3817 C   0  0  0  0  0  0  0  0  0  0  0  0
   -5.1338   -1.9843    1.0324 C   0  0  0  0  0  0  0  0  0  0  0  0
   -6.2038   -2.4431    1.7977 C   0  0  0  0  0  0  0  0  0  0  0  0
   -5.9359   -2.1518    3.1558 C   0  0  0  0  0  0  0  0  0  0  0  0
   -4.7171   -1.5269    3.1661 C   0  0  0  0  0  0  0  0  0  0  0  0
   -4.2311   -1.4213    1.9072 O   0  0  0  0  0  0  0  0  0  0  0  0
   -0.2364    0.0749   -0.7927 S   0  0  0  0  0  0  0  0  0  0  0  0
    3.4366    0.4058   -1.1122 C   0  0  0  0  0  0  0  0  0  0  0  0
    4.3176    0.8774   -0.1242 C   0  0  0  0  0  0  0  0  0  0  0  0
    5.3140   -0.0699    0.4852 C   0  0  0  0  0  0  0  0  0  0  0  0
    4.9688    3.8462    1.5106 H   0  0  0  0  0  0  0  0  0  0  0  0
    6.2136    2.7038    0.9944 H   0  0  0  0  0  0  0  0  0  0  0  0
    5.0393    2.2518    2.2649 H   0  0  0  0  0  0  0  0  0  0  0  0
    3.2513    4.1241   -0.0602 H   0  0  0  0  0  0  0  0  0  0  0  0
    1.7302    3.2596   -1.7896 H   0  0  0  0  0  0  0  0  0  0  0  0
   -0.0792   -0.1652   -4.2920 H   0  0  0  0  0  0  0  0  0  0  0  0
   -2.5865   -0.9016    0.3956 H   0  0  0  0  0  0  0  0  0  0  0  0
   -4.0325   -1.8162   -2.1873 H   0  0  0  0  0  0  0  0  0  0  0  0
   -5.8193   -2.5100   -0.9227 H   0  0  0  0  0  0  0  0  0  0  0  0
   -7.0830   -2.9369    1.4065 H   0  0  0  0  0  0  0  0  0  0  0  0
   -6.5536   -2.3697    4.0152 H   0  0  0  0  0  0  0  0  0  0  0  0
   -4.0900   -1.1170    3.9453 H   0  0  0  0  0  0  0  0  0  0  0  0
    3.4830   -0.6317   -1.4343 H   0  0  0  0  0  0  0  0  0  0  0  0
    5.1554   -0.1458    1.5655 H   0  0  0  0  0  0  0  0  0  0  0  0
    6.3345    0.2733    0.2883 H   0  0  0  0  0  0  0  0  0  0  0  0
    5.2186   -1.0778    0.0675 H   0  0  0  0  0  0  0  0  0  0  0  0
  1  2  1  0
  2  3  2  0
  3  4  1  0
  4  5  2  0
  5  6  1  0
  6  7  2  3
  7  8  1  0
  8  9  1  0
  9 10  2  0
  9 11  1  0
 11 12  2  3
 12 13  1  0
 13 14  2  3
 14 15  1  0
 15 16  2  0
 16 17  1  0
 17 18  2  0
 18 19  1  0
 11 20  1  0
  5 21  1  0
 21 22  2  0
 22 23  1  0
 22  2  1  0
 20  7  1  0
 19 15  1  0
  1 24  1  0
  1 25  1  0
  1 26  1  0
  3 27  1  0
  4 28  1  0
  8 29  1  0
 12 30  1  0
 13 31  1  0
 14 32  1  0
 16 33  1  0
 17 34  1  0
 18 35  1  0
 21 36  1  0
 23 37  1  0
 23 38  1  0
 23 39  1  0
M  END
$$$$
