
     RDKit          3D

 50 53  0  0  0  0  0  0  0  0999 V2000
    7.6169    1.9655    0.4205 C   0  0  0  0  0  0  0  0  0  0  0  0
    6.7986    1.0939   -0.3499 O   0  0  0  0  0  0  0  0  0  0  0  0
    5.4720    1.0464   -0.0247 C   0  0  0  0  0  0  0  0  0  0  0  0
    4.8444    1.7790    0.9782 C   0  0  0  0  0  0  0  0  0  0  0  0
    3.4691    1.6301    1.2014 C   0  0  0  0  0  0  0  0  0  0  0  0
    2.6987    0.7391    0.4326 C   0  0  0  0  0  0  0  0  0  0  0  0
    1.2993    0.6285    0.7055 N   0  0  0  0  0  0  0  0  0  0  0  0
    0.7179    1.5421    1.5394 N   0  0  0  0  0  0  0  0  0  0  0  0
   -0.5793    1.2494    1.5438 C   0  0  0  0  0  0  0  0  0  0  0  0
   -0.8782    0.1439    0.7413 C   0  0  0  0  0  0  0  0  0  0  0  0
    0.3473   -0.2801    0.2577 C   0  0  0  0  0  0  0  0  0  0  0  0
    0.5479   -1.5203   -0.5503 C   0  0  0  0  0  0  0  0  0  0  0  0
   -0.6921   -2.4656   -0.4595 C   0  0  0  0  0  0  0  0  0  0  0  0
   -0.6710   -3.2561    0.8649 C   0  0  0  0  0  0  0  0  0  0  0  0
   -0.6255   -3.4791   -1.6179 C   0  0  0  0  0  0  0  0  0  0  0  0
   -2.0097   -1.6455   -0.5863 C   0  0  0  0  0  0  0  0  0  0  0  0
   -2.1733   -0.5512    0.4960 C   0  0  0  0  0  0  0  0  0  0  0  0
   -3.1428    0.4400    0.0803 N   0  0  0  0  0  0  0  0  0  0  0  0
   -4.4940    0.1986    0.1722 C   0  0  0  0  0  0  0  0  0  0  0  0
   -4.9543   -0.8158    0.6847 O   0  0  0  0  0  0  0  0  0  0  0  0
   -5.3471    1.2276   -0.3957 C   0  0  0  0  0  0  0  0  0  0  0  0
   -6.7576    1.1868   -0.5013 C   0  0  0  0  0  0  0  0  0  0  0  0
   -7.2693    2.2820   -1.0689 N   0  0  0  0  0  0  0  0  0  0  0  0
   -6.1920    3.0387   -1.3211 N   0  0  0  0  0  0  0  0  0  0  0  0
   -5.0164    2.4549   -0.9410 C   0  0  0  0  0  0  0  0  0  0  0  0
    3.3340    0.0197   -0.5821 C   0  0  0  0  0  0  0  0  0  0  0  0
    4.7096    0.1731   -0.8016 C   0  0  0  0  0  0  0  0  0  0  0  0
    7.3020    3.0078    0.3039 H   0  0  0  0  0  0  0  0  0  0  0  0
    7.6258    1.6699    1.4749 H   0  0  0  0  0  0  0  0  0  0  0  0
    8.6407    1.8831    0.0431 H   0  0  0  0  0  0  0  0  0  0  0  0
    5.3877    2.4762    1.6070 H   0  0  0  0  0  0  0  0  0  0  0  0
    3.0124    2.2180    1.9969 H   0  0  0  0  0  0  0  0  0  0  0  0
   -1.2513    1.8523    2.1420 H   0  0  0  0  0  0  0  0  0  0  0  0
    0.6950   -1.2239   -1.5965 H   0  0  0  0  0  0  0  0  0  0  0  0
    1.4377   -2.0655   -0.2165 H   0  0  0  0  0  0  0  0  0  0  0  0
   -0.6607   -2.6017    1.7419 H   0  0  0  0  0  0  0  0  0  0  0  0
    0.2184   -3.8938    0.9262 H   0  0  0  0  0  0  0  0  0  0  0  0
   -1.5498   -3.9055    0.9467 H   0  0  0  0  0  0  0  0  0  0  0  0
   -0.6543   -2.9740   -2.5898 H   0  0  0  0  0  0  0  0  0  0  0  0
    0.2983   -4.0670   -1.5758 H   0  0  0  0  0  0  0  0  0  0  0  0
   -1.4692   -4.1773   -1.5817 H   0  0  0  0  0  0  0  0  0  0  0  0
   -2.0289   -1.1738   -1.5801 H   0  0  0  0  0  0  0  0  0  0  0  0
   -2.8797   -2.3147   -0.5592 H   0  0  0  0  0  0  0  0  0  0  0  0
   -2.5176   -1.0117    1.4302 H   0  0  0  0  0  0  0  0  0  0  0  0
   -2.8213    1.2039   -0.4952 H   0  0  0  0  0  0  0  0  0  0  0  0
   -7.4249    0.3939   -0.1844 H   0  0  0  0  0  0  0  0  0  0  0  0
   -6.3338    3.9460   -1.7542 H   0  0  0  0  0  0  0  0  0  0  0  0
   -4.0776    2.9687   -1.0855 H   0  0  0  0  0  0  0  0  0  0  0  0
    2.8065   -0.6450   -1.2520 H   0  0  0  0  0  0  0  0  0  0  0  0
    5.1915   -0.3916   -1.5970 H   0  0  0  0  0  0  0  0  0  0  0  0
  1  2  1  0
  2  3  1  0
  3  4  2  0
  4  5  1  0
  5  6  2  0
  6  7  1  0
  7  8  1  0
  8  9  2  0
  9 10  1  0
 10 11  2  0
 11 12  1  0
 12 13  1  0
 13 14  1  0
 13 15  1  0
 13 16  1  0
 16 17  1  0
 17 18  1  0
 18 19  1  0
 19 20  2  0
 19 21  1  0
 21 22  1  0
 22 23  2  0
 23 24  1  0
 24 25  1  0
  6 26  1  0
 26 27  2  0
 27  3  1  0
 11  7  1  0
 25 21  2  0
 17 10  1  0
  1 28  1  0
  1 29  1  0
  1 30  1  0
  4 31  1  0
  5 32  1  0
  9 33  1  0
 12 34  1  0
 12 35  1  0
 14 36  1  0
 14 37  1  0
 14 38  1  0
 15 39  1  0
 15 40  1  0
 15 41  1  0
 16 42  1  0
 16 43  1  0
 17 44  1  0
 18 45  1  0
 22 46  1  0
 24 47  1  0
 25 48  1  0
 26 49  1  0
 27 50  1  0
M  END
$$$$
