
     RDKit          3D

 45 49  0  0  0  0  0  0  0  0999 V2000
    0.6669    0.0753    1.2044 O   0  0  0  0  0  0  0  0  0  0  0  0
    0.6429   -0.8497    0.3965 C   0  0  0  0  0  0  0  0  0  0  0  0
   -0.5692   -1.6964    0.1297 C   0  0  0  0  0  0  0  0  0  0  0  0
   -1.7458   -0.8918   -0.1560 N   0  0  0  0  0  0  0  0  0  0  0  0
   -2.4347   -0.9311   -1.3645 C   0  0  0  0  0  0  0  0  0  0  0  0
   -1.9793   -1.6111   -2.4067 O   0  0  0  0  0  0  0  0  0  0  0  0
   -3.5614   -0.1875   -1.1817 C   0  0  0  0  0  0  0  0  0  0  0  0
   -3.5509    0.3265    0.1312 C   0  0  0  0  0  0  0  0  0  0  0  0
   -2.4078   -0.0709    0.7553 C   0  0  0  0  0  0  0  0  0  0  0  0
   -1.9539    0.2095    1.9695 O   0  0  0  0  0  0  0  0  0  0  0  0
   -4.7901    1.1450    0.3020 C   0  0  0  0  0  0  0  0  0  0  0  0
   -6.0021    0.1778    0.3024 C   0  0  0  0  0  0  0  0  0  0  0  0
   -6.0162   -0.3957   -1.1534 C   0  0  0  0  0  0  0  0  0  0  0  0
   -4.8131    0.3064   -1.8352 C   0  0  0  0  0  0  0  0  0  0  0  0
   -4.9266    1.7095   -1.1513 C   0  0  0  0  0  0  0  0  0  0  0  0
    1.7130   -1.3176   -0.3579 O   0  0  0  0  0  0  0  0  0  0  0  0
    2.8851   -0.5782   -0.1866 C   0  0  0  0  0  0  0  0  0  0  0  0
    3.0286    0.6549   -0.8141 C   0  0  0  0  0  0  0  0  0  0  0  0
    4.2251    1.3565   -0.6663 C   0  0  0  0  0  0  0  0  0  0  0  0
    5.2815    0.8242    0.0925 C   0  0  0  0  0  0  0  0  0  0  0  0
    6.4901    1.5209    0.2494 C   0  0  0  0  0  0  0  0  0  0  0  0
    7.5346    0.9781    1.0003 C   0  0  0  0  0  0  0  0  0  0  0  0
    7.3848   -0.2670    1.6038 C   0  0  0  0  0  0  0  0  0  0  0  0
    6.1900   -0.9740    1.4594 C   0  0  0  0  0  0  0  0  0  0  0  0
    5.1288   -0.4426    0.7087 C   0  0  0  0  0  0  0  0  0  0  0  0
    3.9219   -1.1413    0.5555 C   0  0  0  0  0  0  0  0  0  0  0  0
   -0.3875   -2.3733   -0.7102 H   0  0  0  0  0  0  0  0  0  0  0  0
   -0.7832   -2.3073    1.0125 H   0  0  0  0  0  0  0  0  0  0  0  0
   -2.6329   -1.4944   -3.1208 H   0  0  0  0  0  0  0  0  0  0  0  0
   -0.9778    0.3079    1.9305 H   0  0  0  0  0  0  0  0  0  0  0  0
   -4.7695    1.8877    1.0994 H   0  0  0  0  0  0  0  0  0  0  0  0
   -5.9013   -0.6219    1.0445 H   0  0  0  0  0  0  0  0  0  0  0  0
   -6.9349    0.7196    0.4974 H   0  0  0  0  0  0  0  0  0  0  0  0
   -6.9567   -0.1292   -1.6490 H   0  0  0  0  0  0  0  0  0  0  0  0
   -5.9198   -1.4875   -1.1516 H   0  0  0  0  0  0  0  0  0  0  0  0
   -4.8152    0.3080   -2.9247 H   0  0  0  0  0  0  0  0  0  0  0  0
   -5.8840    2.2089   -1.3370 H   0  0  0  0  0  0  0  0  0  0  0  0
   -4.0999    2.3781   -1.4224 H   0  0  0  0  0  0  0  0  0  0  0  0
    2.2210    1.0746   -1.4071 H   0  0  0  0  0  0  0  0  0  0  0  0
    4.3297    2.3259   -1.1497 H   0  0  0  0  0  0  0  0  0  0  0  0
    6.6276    2.4953   -0.2140 H   0  0  0  0  0  0  0  0  0  0  0  0
    8.4645    1.5292    1.1135 H   0  0  0  0  0  0  0  0  0  0  0  0
    8.1974   -0.6890    2.1885 H   0  0  0  0  0  0  0  0  0  0  0  0
    6.0932   -1.9453    1.9396 H   0  0  0  0  0  0  0  0  0  0  0  0
    3.7870   -2.1171    1.0126 H   0  0  0  0  0  0  0  0  0  0  0  0
  1  2  2  0
  2  3  1  0
  3  4  1  0
  4  5  1  0
  5  6  1  0
  5  7  2  0
  7  8  1  0
  8  9  2  0
  9 10  1  0
  8 11  1  0
 11 12  1  0
 12 13  1  0
 13 14  1  0
 14 15  1  0
  2 16  1  0
 16 17  1  0
 17 18  2  0
 18 19  1  0
 19 20  2  0
 20 21  1  0
 21 22  2  0
 22 23  1  0
 23 24  2  0
 24 25  1  0
 25 26  2  0
  9  4  1  0
 15 11  1  0
 26 17  1  0
 14  7  1  0
 25 20  1  0
  3 27  1  0
  3 28  1  0
  6 29  1  0
 10 30  1  0
 11 31  1  0
 12 32  1  0
 12 33  1  0
 13 34  1  0
 13 35  1  0
 14 36  1  0
 15 37  1  0
 15 38  1  0
 18 39  1  0
 19 40  1  0
 21 41  1  0
 22 42  1  0
 23 43  1  0
 24 44  1  0
 26 45  1  0
M  END
$$$$
