
     RDKit          3D

 57 59  0  0  0  0  0  0  0  0999 V2000
   -4.9930   -1.1092   -1.4422 C   0  0  0  0  0  0  0  0  0  0  0  0
   -4.4237    0.2984   -1.3621 C   0  0  0  0  0  0  0  0  0  0  0  0
   -3.7382    0.5729   -0.0926 N   0  0  0  0  0  0  0  0  0  0  0  0
   -2.3411    0.4677    0.0266 C   0  0  0  0  0  0  0  0  0  0  0  0
   -1.7425    0.9236    1.0065 O   0  0  0  0  0  0  0  0  0  0  0  0
   -1.5579   -0.2195   -1.1044 C   0  0  0  0  0  0  0  0  0  0  0  0
   -0.2643   -0.6453   -0.6647 O   0  0  0  0  0  0  0  0  0  0  0  0
   -0.3003   -1.7457    0.1296 C   0  0  0  0  0  0  0  0  0  0  0  0
   -1.2754   -2.4379    0.3586 O   0  0  0  0  0  0  0  0  0  0  0  0
    1.0520   -1.9685    0.6850 C   0  0  0  0  0  0  0  0  0  0  0  0
    2.1605   -1.8789   -0.1720 C   0  0  0  0  0  0  0  0  0  0  0  0
    3.4576   -2.0898    0.3221 C   0  0  0  0  0  0  0  0  0  0  0  0
    4.8143   -1.9682   -0.8117 S   0  0  0  0  0  6  0  0  0  0  0  0
    4.2893   -1.5274   -2.0883 O   0  0  0  0  0  0  0  0  0  0  0  0
    5.5720   -3.1955   -0.7205 O   0  0  0  0  0  0  0  0  0  0  0  0
    5.7425   -0.6816   -0.1973 N   0  0  0  0  0  0  0  0  0  0  0  0
    5.0516    0.6477   -0.1239 C   0  0  0  0  0  0  0  0  0  0  0  0
    6.0773    1.7783    0.0022 C   0  0  0  0  0  0  0  0  0  0  0  0
    6.9407    1.8763   -1.1381 O   0  0  0  0  0  0  0  0  0  0  0  0
    7.1878    0.6133   -1.7735 C   0  0  0  0  0  0  0  0  0  0  0  0
    7.1115   -0.5714   -0.8066 C   0  0  0  0  0  0  0  0  0  0  0  0
    3.6521   -2.4031    1.6680 C   0  0  0  0  0  0  0  0  0  0  0  0
    5.1979   -2.6636    2.3877 Cl  0  0  0  0  0  0  0  0  0  0  0  0
    2.5421   -2.4952    2.5175 C   0  0  0  0  0  0  0  0  0  0  0  0
    1.2456   -2.2790    2.0342 C   0  0  0  0  0  0  0  0  0  0  0  0
   -0.0446   -2.3640    3.1781 Cl  0  0  0  0  0  0  0  0  0  0  0  0
   -4.4419    1.2112    1.0461 C   0  0  0  0  0  0  0  0  0  0  0  0
   -5.8703    0.7474    1.3640 C   0  0  0  0  0  0  0  0  0  0  0  0
   -6.8544    1.5899    0.5717 C   0  0  0  0  0  0  0  0  0  0  0  0
   -6.0862    3.1880    0.3939 S   0  0  0  0  0  6  0  0  0  0  0  0
   -6.0214    3.5076   -1.0178 O   0  0  0  0  0  0  0  0  0  0  0  0
   -6.6769    4.0913    1.3595 O   0  0  0  0  0  0  0  0  0  0  0  0
   -4.4579    2.7391    0.9567 C   0  0  0  0  0  0  0  0  0  0  0  0
   -5.3831   -1.2991   -2.4472 H   0  0  0  0  0  0  0  0  0  0  0  0
   -5.8157   -1.2546   -0.7389 H   0  0  0  0  0  0  0  0  0  0  0  0
   -4.2338   -1.8654   -1.2220 H   0  0  0  0  0  0  0  0  0  0  0  0
   -5.2008    1.0431   -1.5295 H   0  0  0  0  0  0  0  0  0  0  0  0
   -3.7188    0.4369   -2.1879 H   0  0  0  0  0  0  0  0  0  0  0  0
   -2.1011   -1.0671   -1.5301 H   0  0  0  0  0  0  0  0  0  0  0  0
   -1.3994    0.5193   -1.8966 H   0  0  0  0  0  0  0  0  0  0  0  0
    2.0062   -1.6514   -1.2266 H   0  0  0  0  0  0  0  0  0  0  0  0
    4.4497    0.8101   -1.0245 H   0  0  0  0  0  0  0  0  0  0  0  0
    4.3941    0.6559    0.7510 H   0  0  0  0  0  0  0  0  0  0  0  0
    5.5674    2.7408    0.1105 H   0  0  0  0  0  0  0  0  0  0  0  0
    6.7040    1.6376    0.8906 H   0  0  0  0  0  0  0  0  0  0  0  0
    6.4617    0.4986   -2.5864 H   0  0  0  0  0  0  0  0  0  0  0  0
    8.1822    0.6665   -2.2278 H   0  0  0  0  0  0  0  0  0  0  0  0
    7.3953   -1.4921   -1.3254 H   0  0  0  0  0  0  0  0  0  0  0  0
    7.8209   -0.4359    0.0185 H   0  0  0  0  0  0  0  0  0  0  0  0
    2.6882   -2.7308    3.5710 H   0  0  0  0  0  0  0  0  0  0  0  0
   -3.8483    0.9508    1.9325 H   0  0  0  0  0  0  0  0  0  0  0  0
   -6.0562    0.9357    2.4305 H   0  0  0  0  0  0  0  0  0  0  0  0
   -6.0225   -0.3236    1.2132 H   0  0  0  0  0  0  0  0  0  0  0  0
   -7.0443    1.1786   -0.4213 H   0  0  0  0  0  0  0  0  0  0  0  0
   -7.8071    1.7039    1.0950 H   0  0  0  0  0  0  0  0  0  0  0  0
   -3.7108    3.1514    0.2744 H   0  0  0  0  0  0  0  0  0  0  0  0
   -4.3326    3.1819    1.9501 H   0  0  0  0  0  0  0  0  0  0  0  0
  1  2  1  0
  2  3  1  0
  3  4  1  0
  4  5  2  0
  4  6  1  0
  6  7  1  0
  7  8  1  0
  8  9  2  0
  8 10  1  0
 10 11  2  0
 11 12  1  0
 12 13  1  0
 13 14  2  0
 13 15  2  0
 13 16  1  0
 16 17  1  0
 17 18  1  0
 18 19  1  0
 19 20  1  0
 20 21  1  0
 12 22  2  0
 22 23  1  0
 22 24  1  0
 24 25  2  0
 25 26  1  0
  3 27  1  0
 27 28  1  0
 28 29  1  0
 29 30  1  0
 30 31  2  0
 30 32  2  0
 30 33  1  0
 25 10  1  0
 33 27  1  0
 21 16  1  0
  1 34  1  0
  1 35  1  0
  1 36  1  0
  2 37  1  0
  2 38  1  0
  6 39  1  0
  6 40  1  0
 11 41  1  0
 17 42  1  0
 17 43  1  0
 18 44  1  0
 18 45  1  0
 20 46  1  0
 20 47  1  0
 21 48  1  0
 21 49  1  0
 24 50  1  0
 27 51  1  0
 28 52  1  0
 28 53  1  0
 29 54  1  0
 29 55  1  0
 33 56  1  0
 33 57  1  0
M  END
$$$$
