
     RDKit          3D

 49 52  0  0  0  0  0  0  0  0999 V2000
   -7.6480   -3.4475    0.6806 C   0  0  0  0  0  0  0  0  0  0  0  0
   -7.1958   -2.2788    1.3519 O   0  0  0  0  0  0  0  0  0  0  0  0
   -6.4112   -1.4181    0.6350 C   0  0  0  0  0  0  0  0  0  0  0  0
   -5.9971   -0.2838    1.3360 C   0  0  0  0  0  0  0  0  0  0  0  0
   -5.1914    0.6786    0.7236 C   0  0  0  0  0  0  0  0  0  0  0  0
   -4.7904    0.5226   -0.6088 C   0  0  0  0  0  0  0  0  0  0  0  0
   -3.9002    1.5490   -1.2594 C   0  0  0  0  0  0  0  0  0  0  0  0
   -2.5187    1.3135   -0.9191 N   0  0  0  0  0  0  0  0  0  0  0  0
   -1.8685    2.0236    0.0670 C   0  0  0  0  0  0  0  0  0  0  0  0
   -2.3904    2.9902    0.6187 O   0  0  0  0  0  0  0  0  0  0  0  0
   -0.5323    1.5511    0.4118 C   0  0  0  0  0  0  0  0  0  0  0  0
    0.3145    2.0912    1.3779 C   0  0  0  0  0  0  0  0  0  0  0  0
    1.5294    1.3803    1.4447 C   0  0  0  0  0  0  0  0  0  0  0  0
    1.5691    0.3543    0.5562 C   0  0  0  0  0  0  0  0  0  0  0  0
    0.1994    0.1890   -0.3781 S   0  0  0  0  0  0  0  0  0  0  0  0
    2.8402   -0.3875    0.6159 C   0  0  0  0  0  0  0  0  0  0  0  0
    3.6909    0.4583    1.5287 N   0  0  0  0  0  0  0  0  0  0  0  0
    4.7150    1.1883    0.7594 C   0  0  0  0  0  0  0  0  0  0  0  0
    5.7907    0.2849    0.1895 C   0  0  0  0  0  0  0  0  0  0  0  0
    6.4865   -0.6106    1.0159 C   0  0  0  0  0  0  0  0  0  0  0  0
    7.4890   -1.4283    0.4924 C   0  0  0  0  0  0  0  0  0  0  0  0
    7.8120   -1.3555   -0.8610 C   0  0  0  0  0  0  0  0  0  0  0  0
    7.1345   -0.4645   -1.6914 C   0  0  0  0  0  0  0  0  0  0  0  0
    6.1310    0.3541   -1.1694 C   0  0  0  0  0  0  0  0  0  0  0  0
    2.7837    1.4420    2.2247 C   0  0  0  0  0  0  0  0  0  0  0  0
   -5.1995   -0.6213   -1.3067 C   0  0  0  0  0  0  0  0  0  0  0  0
   -6.0078   -1.5839   -0.6899 C   0  0  0  0  0  0  0  0  0  0  0  0
   -8.2782   -3.1915   -0.1775 H   0  0  0  0  0  0  0  0  0  0  0  0
   -8.2602   -4.0210    1.3834 H   0  0  0  0  0  0  0  0  0  0  0  0
   -6.8066   -4.0802    0.3794 H   0  0  0  0  0  0  0  0  0  0  0  0
   -6.3021   -0.1486    2.3709 H   0  0  0  0  0  0  0  0  0  0  0  0
   -4.8740    1.5505    1.2936 H   0  0  0  0  0  0  0  0  0  0  0  0
   -3.9809    1.4863   -2.3503 H   0  0  0  0  0  0  0  0  0  0  0  0
   -4.2105    2.5592   -0.9704 H   0  0  0  0  0  0  0  0  0  0  0  0
   -2.0854    0.4580   -1.2388 H   0  0  0  0  0  0  0  0  0  0  0  0
    0.0452    2.9470    1.9864 H   0  0  0  0  0  0  0  0  0  0  0  0
    3.2746   -0.5420   -0.3766 H   0  0  0  0  0  0  0  0  0  0  0  0
    2.6914   -1.3650    1.0876 H   0  0  0  0  0  0  0  0  0  0  0  0
    4.2527    1.7841   -0.0389 H   0  0  0  0  0  0  0  0  0  0  0  0
    5.2342    1.8973    1.4184 H   0  0  0  0  0  0  0  0  0  0  0  0
    6.2408   -0.6756    2.0741 H   0  0  0  0  0  0  0  0  0  0  0  0
    8.0169   -2.1213    1.1419 H   0  0  0  0  0  0  0  0  0  0  0  0
    8.5930   -1.9921   -1.2682 H   0  0  0  0  0  0  0  0  0  0  0  0
    7.3890   -0.4058   -2.7464 H   0  0  0  0  0  0  0  0  0  0  0  0
    5.6151    1.0453   -1.8320 H   0  0  0  0  0  0  0  0  0  0  0  0
    2.6104    1.0928    3.2483 H   0  0  0  0  0  0  0  0  0  0  0  0
    3.1956    2.4558    2.2665 H   0  0  0  0  0  0  0  0  0  0  0  0
   -4.8932   -0.7735   -2.3394 H   0  0  0  0  0  0  0  0  0  0  0  0
   -6.3020   -2.4507   -1.2720 H   0  0  0  0  0  0  0  0  0  0  0  0
  1  2  1  0
  2  3  1  0
  3  4  2  0
  4  5  1  0
  5  6  2  0
  6  7  1  0
  7  8  1  0
  8  9  1  0
  9 10  2  0
  9 11  1  0
 11 12  2  0
 12 13  1  0
 13 14  2  0
 14 15  1  0
 14 16  1  0
 16 17  1  0
 17 18  1  0
 18 19  1  0
 19 20  2  0
 20 21  1  0
 21 22  2  0
 22 23  1  0
 23 24  2  0
 17 25  1  0
  6 26  1  0
 26 27  2  0
 27  3  1  0
 15 11  1  0
 24 19  1  0
 25 13  1  0
  1 28  1  0
  1 29  1  0
  1 30  1  0
  4 31  1  0
  5 32  1  0
  7 33  1  0
  7 34  1  0
  8 35  1  0
 12 36  1  0
 16 37  1  0
 16 38  1  0
 18 39  1  0
 18 40  1  0
 20 41  1  0
 21 42  1  0
 22 43  1  0
 23 44  1  0
 24 45  1  0
 25 46  1  0
 25 47  1  0
 26 48  1  0
 27 49  1  0
M  END
$$$$
