
     RDKit          3D

 47 48  0  0  0  0  0  0  0  0999 V2000
    3.1839    1.5122   -2.1425 C   0  0  0  0  0  0  0  0  0  0  0  0
    1.8429    1.6089   -1.6528 O   0  0  0  0  0  0  0  0  0  0  0  0
    1.8503    1.6672   -0.2821 C   0  0  0  0  0  0  0  0  0  0  0  0
    1.7667    2.9276    0.3126 C   0  0  0  0  0  0  0  0  0  0  0  0
    1.7496    3.0410    1.7038 C   0  0  0  0  0  0  0  0  0  0  0  0
    1.8063    1.8971    2.5012 C   0  0  0  0  0  0  0  0  0  0  0  0
    1.8635    0.6345    1.9086 C   0  0  0  0  0  0  0  0  0  0  0  0
    1.8618    0.5146    0.5133 C   0  0  0  0  0  0  0  0  0  0  0  0
    1.8989   -0.8519   -0.0600 C   0  0  0  0  0  0  0  0  0  0  0  0
    2.8349   -1.5705    0.2858 O   0  0  0  0  0  0  0  0  0  0  0  0
    0.8854   -1.2376   -0.9454 N   0  0  0  0  0  0  0  0  0  0  0  0
   -0.2305   -0.3955   -1.1577 N   0  0  0  0  0  0  0  0  0  0  0  0
   -1.2017   -0.2777   -0.1857 C   0  0  0  0  0  0  0  0  0  0  0  0
   -1.3434   -1.0366    0.7648 O   0  0  0  0  0  0  0  0  0  0  0  0
   -1.9669    0.8480   -0.4541 O   0  0  0  0  0  0  0  0  0  0  0  0
   -2.9166    1.1443    0.5268 C   0  0  0  0  0  0  0  0  0  0  0  0
   -4.2635    0.9638    0.2186 C   0  0  0  0  0  0  0  0  0  0  0  0
   -5.2288    1.3055    1.1649 C   0  0  0  0  0  0  0  0  0  0  0  0
   -4.8413    1.8345    2.3990 C   0  0  0  0  0  0  0  0  0  0  0  0
   -3.4881    2.0284    2.6891 C   0  0  0  0  0  0  0  0  0  0  0  0
   -2.5179    1.6903    1.7470 C   0  0  0  0  0  0  0  0  0  0  0  0
    0.7924   -2.5865   -1.5729 C   0  0  0  0  0  0  0  0  0  0  0  0
    2.0719   -2.8711   -2.3881 C   0  0  0  0  0  0  0  0  0  0  0  0
    0.6246   -3.6711   -0.4919 C   0  0  0  0  0  0  0  0  0  0  0  0
   -0.3973   -2.7151   -2.5563 C   0  0  0  0  0  0  0  0  0  0  0  0
    3.7825    2.3746   -1.8286 H   0  0  0  0  0  0  0  0  0  0  0  0
    3.6604    0.5799   -1.8223 H   0  0  0  0  0  0  0  0  0  0  0  0
    3.1396    1.5102   -3.2358 H   0  0  0  0  0  0  0  0  0  0  0  0
    1.7204    3.8205   -0.3048 H   0  0  0  0  0  0  0  0  0  0  0  0
    1.6946    4.0232    2.1675 H   0  0  0  0  0  0  0  0  0  0  0  0
    1.7995    1.9864    3.5851 H   0  0  0  0  0  0  0  0  0  0  0  0
    1.8956   -0.2579    2.5309 H   0  0  0  0  0  0  0  0  0  0  0  0
   -0.0664    0.4173   -1.7447 H   0  0  0  0  0  0  0  0  0  0  0  0
   -4.5599    0.5579   -0.7436 H   0  0  0  0  0  0  0  0  0  0  0  0
   -6.2832    1.1604    0.9429 H   0  0  0  0  0  0  0  0  0  0  0  0
   -5.5959    2.0966    3.1366 H   0  0  0  0  0  0  0  0  0  0  0  0
   -3.1914    2.4413    3.6498 H   0  0  0  0  0  0  0  0  0  0  0  0
   -1.4657    1.8430    1.9678 H   0  0  0  0  0  0  0  0  0  0  0  0
    2.9636   -2.9296   -1.7570 H   0  0  0  0  0  0  0  0  0  0  0  0
    1.9980   -3.8248   -2.9235 H   0  0  0  0  0  0  0  0  0  0  0  0
    2.2454   -2.0816   -3.1286 H   0  0  0  0  0  0  0  0  0  0  0  0
    0.5296   -4.6663   -0.9412 H   0  0  0  0  0  0  0  0  0  0  0  0
   -0.2718   -3.4903    0.1111 H   0  0  0  0  0  0  0  0  0  0  0  0
    1.4772   -3.7054    0.1936 H   0  0  0  0  0  0  0  0  0  0  0  0
   -1.3599   -2.5971   -2.0460 H   0  0  0  0  0  0  0  0  0  0  0  0
   -0.4087   -3.7004   -3.0371 H   0  0  0  0  0  0  0  0  0  0  0  0
   -0.3408   -1.9620   -3.3510 H   0  0  0  0  0  0  0  0  0  0  0  0
  1  2  1  0
  2  3  1  0
  3  4  2  0
  4  5  1  0
  5  6  2  0
  6  7  1  0
  7  8  2  0
  8  9  1  0
  9 10  2  0
  9 11  1  0
 11 12  1  0
 12 13  1  0
 13 14  2  0
 13 15  1  0
 15 16  1  0
 16 17  2  0
 17 18  1  0
 18 19  2  0
 19 20  1  0
 20 21  2  0
 11 22  1  0
 22 23  1  0
 22 24  1  0
 22 25  1  0
  8  3  1  0
 21 16  1  0
  1 26  1  0
  1 27  1  0
  1 28  1  0
  4 29  1  0
  5 30  1  0
  6 31  1  0
  7 32  1  0
 12 33  1  0
 17 34  1  0
 18 35  1  0
 19 36  1  0
 20 37  1  0
 21 38  1  0
 23 39  1  0
 23 40  1  0
 23 41  1  0
 24 42  1  0
 24 43  1  0
 24 44  1  0
 25 45  1  0
 25 46  1  0
 25 47  1  0
M  END
$$$$
