
     RDKit          3D

 67 69  0  0  0  0  0  0  0  0999 V2000
   -0.5308    0.3758   -4.4777 C   0  0  0  0  0  0  0  0  0  0  0  0
   -1.5695    0.8784   -3.4631 C   0  0  0  0  0  0  0  0  0  0  0  0
   -2.9839    0.4880   -3.9170 C   0  0  0  0  0  0  0  0  0  0  0  0
   -1.4803    2.4142   -3.4026 C   0  0  0  0  0  0  0  0  0  0  0  0
   -1.2894    0.3585   -2.1180 N   0  0  0  0  0  0  0  0  0  0  0  0
   -1.2679   -0.9801   -1.7576 C   0  0  0  0  0  0  0  0  0  0  0  0
   -1.3901   -1.8872   -2.5759 O   0  0  0  0  0  0  0  0  0  0  0  0
   -0.9312   -1.2177   -0.2533 C   0  0  0  0  0  0  0  0  0  0  0  0
   -1.4381   -2.5048    0.4015 C   0  0  0  0  0  0  0  0  0  0  0  0
   -0.8345   -2.9325    1.6035 C   0  0  0  0  0  0  0  0  0  0  0  0
   -1.2538   -4.0978    2.2491 C   0  0  0  0  0  0  0  0  0  0  0  0
   -2.2763   -4.8536    1.6959 C   0  0  0  0  0  0  0  0  0  0  0  0
   -2.6818   -5.9707    2.3134 F   0  0  0  0  0  0  0  0  0  0  0  0
   -2.8828   -4.4677    0.5092 C   0  0  0  0  0  0  0  0  0  0  0  0
   -2.4636   -3.3009   -0.1366 C   0  0  0  0  0  0  0  0  0  0  0  0
   -1.1715    0.0055    0.5841 N   0  0  0  0  0  0  0  0  0  0  0  0
   -0.1320    0.7746    1.1237 C   0  0  0  0  0  0  0  0  0  0  0  0
   -0.3561    1.7322    1.8675 O   0  0  0  0  0  0  0  0  0  0  0  0
    1.2967    0.4222    0.7502 C   0  0  0  0  0  0  0  0  0  0  0  0
    2.2919    1.4093    1.3561 C   0  0  0  0  0  0  0  0  0  0  0  0
    3.7219    1.0663    0.9881 C   0  0  0  0  0  0  0  0  0  0  0  0
    3.9947    0.1206    0.2577 O   0  0  0  0  0  0  0  0  0  0  0  0
    4.6148    1.9369    1.5669 N   0  0  0  0  0  0  0  0  0  0  0  0
    6.0041    1.9596    1.4568 C   0  0  0  0  0  0  0  0  0  0  0  0
    6.7453    1.0631    0.7015 C   0  0  0  0  0  0  0  0  0  0  0  0
    8.1325    1.1999    0.6692 C   0  0  0  0  0  0  0  0  0  0  0  0
    8.7353    2.2232    1.3866 C   0  0  0  0  0  0  0  0  0  0  0  0
    7.9197    3.0708    2.1134 C   0  0  0  0  0  0  0  0  0  0  0  0
    6.5740    2.9602    2.1635 N   0  0  0  0  0  0  0  0  0  0  0  0
   -2.5391    0.3996    0.9905 C   0  0  0  0  0  0  0  0  0  0  0  0
   -2.9417   -0.1091    2.3892 C   0  0  0  0  0  0  0  0  0  0  0  0
   -4.3509   -0.6730    2.2405 C   0  0  0  0  0  0  0  0  0  0  0  0
   -4.9113    0.0222    1.0115 C   0  0  0  0  0  0  0  0  0  0  0  0
   -3.7179    0.0666    0.0683 C   0  0  0  0  0  0  0  0  0  0  0  0
   -0.5939   -0.7061   -4.6308 H   0  0  0  0  0  0  0  0  0  0  0  0
    0.4880    0.6005   -4.1417 H   0  0  0  0  0  0  0  0  0  0  0  0
   -0.6740    0.8482   -5.4562 H   0  0  0  0  0  0  0  0  0  0  0  0
   -3.2239    0.9343   -4.8881 H   0  0  0  0  0  0  0  0  0  0  0  0
   -3.7366    0.8273   -3.1973 H   0  0  0  0  0  0  0  0  0  0  0  0
   -3.0966   -0.5961   -4.0179 H   0  0  0  0  0  0  0  0  0  0  0  0
   -0.4841    2.7390   -3.0811 H   0  0  0  0  0  0  0  0  0  0  0  0
   -2.2018    2.8220   -2.6854 H   0  0  0  0  0  0  0  0  0  0  0  0
   -1.6838    2.8682   -4.3784 H   0  0  0  0  0  0  0  0  0  0  0  0
   -1.2862    1.0189   -1.3478 H   0  0  0  0  0  0  0  0  0  0  0  0
    0.1495   -1.3830   -0.3174 H   0  0  0  0  0  0  0  0  0  0  0  0
   -0.0324   -2.3500    2.0523 H   0  0  0  0  0  0  0  0  0  0  0  0
   -0.7904   -4.4183    3.1768 H   0  0  0  0  0  0  0  0  0  0  0  0
   -3.6752   -5.0782    0.0876 H   0  0  0  0  0  0  0  0  0  0  0  0
   -2.9527   -3.0369   -1.0722 H   0  0  0  0  0  0  0  0  0  0  0  0
    1.3917    0.4368   -0.3413 H   0  0  0  0  0  0  0  0  0  0  0  0
    1.5229   -0.5827    1.1217 H   0  0  0  0  0  0  0  0  0  0  0  0
    2.2057    1.4066    2.4499 H   0  0  0  0  0  0  0  0  0  0  0  0
    2.0790    2.4248    1.0000 H   0  0  0  0  0  0  0  0  0  0  0  0
    4.2725    2.6795    2.1629 H   0  0  0  0  0  0  0  0  0  0  0  0
    6.2830    0.2649    0.1340 H   0  0  0  0  0  0  0  0  0  0  0  0
    8.7343    0.5115    0.0820 H   0  0  0  0  0  0  0  0  0  0  0  0
    9.8108    2.3559    1.3791 H   0  0  0  0  0  0  0  0  0  0  0  0
    8.3385    3.8883    2.6931 H   0  0  0  0  0  0  0  0  0  0  0  0
   -2.5328    1.4976    1.0567 H   0  0  0  0  0  0  0  0  0  0  0  0
   -2.2601   -0.8541    2.8052 H   0  0  0  0  0  0  0  0  0  0  0  0
   -2.9526    0.7338    3.0916 H   0  0  0  0  0  0  0  0  0  0  0  0
   -4.3022   -1.7547    2.0707 H   0  0  0  0  0  0  0  0  0  0  0  0
   -4.9615   -0.5006    3.1313 H   0  0  0  0  0  0  0  0  0  0  0  0
   -5.7603   -0.5152    0.5803 H   0  0  0  0  0  0  0  0  0  0  0  0
   -5.2365    1.0391    1.2628 H   0  0  0  0  0  0  0  0  0  0  0  0
   -3.6245   -0.8978   -0.4274 H   0  0  0  0  0  0  0  0  0  0  0  0
   -3.8499    0.8236   -0.7111 H   0  0  0  0  0  0  0  0  0  0  0  0
  1  2  1  0
  2  3  1  0
  2  4  1  0
  2  5  1  0
  5  6  1  0
  6  7  2  0
  6  8  1  0
  8  9  1  0
  9 10  2  0
 10 11  1  0
 11 12  2  0
 12 13  1  0
 12 14  1  0
 14 15  2  0
  8 16  1  0
 16 17  1  0
 17 18  2  0
 17 19  1  0
 19 20  1  0
 20 21  1  0
 21 22  2  0
 21 23  1  0
 23 24  1  0
 24 25  2  0
 25 26  1  0
 26 27  2  0
 27 28  1  0
 28 29  2  0
 16 30  1  0
 30 31  1  0
 31 32  1  0
 32 33  1  0
 33 34  1  0
 15  9  1  0
 29 24  1  0
 34 30  1  0
  1 35  1  0
  1 36  1  0
  1 37  1  0
  3 38  1  0
  3 39  1  0
  3 40  1  0
  4 41  1  0
  4 42  1  0
  4 43  1  0
  5 44  1  0
  8 45  1  0
 10 46  1  0
 11 47  1  0
 14 48  1  0
 15 49  1  0
 19 50  1  0
 19 51  1  0
 20 52  1  0
 20 53  1  0
 23 54  1  0
 25 55  1  0
 26 56  1  0
 27 57  1  0
 28 58  1  0
 30 59  1  0
 31 60  1  0
 31 61  1  0
 32 62  1  0
 32 63  1  0
 33 64  1  0
 33 65  1  0
 34 66  1  0
 34 67  1  0
M  END
$$$$
