
     RDKit          3D

 73 76  0  0  0  0  0  0  0  0999 V2000
    5.7428    1.4960   -1.7909 C   0  0  0  0  0  0  0  0  0  0  0  0
    6.4932    0.7561   -0.6795 C   0  0  0  0  0  0  0  0  0  0  0  0
    6.5501   -0.7520   -0.9979 C   0  0  0  0  0  0  0  0  0  0  0  0
    6.4832   -1.5857    0.2832 C   0  0  0  0  0  0  0  0  0  0  0  0
    6.5803   -3.0788   -0.0190 C   0  0  0  0  0  0  0  0  0  0  0  0
    5.1914   -1.2657    1.0674 C   0  0  0  0  0  0  0  0  0  0  0  0
    4.7471    0.1349    0.9425 N   0  0  0  0  0  0  0  0  0  0  0  0
    3.9188    0.5722    2.0728 C   0  0  0  0  0  0  0  0  0  0  0  0
    2.5882   -0.1819    2.1857 C   0  0  0  0  0  0  0  0  0  0  0  0
    1.7349   -0.0424    0.9264 C   0  0  0  0  0  0  0  0  0  0  0  0
    0.4704   -0.7409    1.0585 N   0  0  0  0  0  0  0  0  0  0  0  0
   -0.6296   -0.1546    1.6446 C   0  0  0  0  0  0  0  0  0  0  0  0
   -0.6208    0.9823    2.1138 O   0  0  0  0  0  0  0  0  0  0  0  0
   -1.8650   -1.0491    1.7717 C   0  0  0  0  0  0  0  0  0  0  0  0
   -2.0530   -2.0191    0.6805 N   0  0  0  0  0  0  0  0  0  0  0  0
   -1.5501   -3.3047    0.8758 C   0  0  0  0  0  0  0  0  0  0  0  0
   -0.8765   -3.5849    1.8732 O   0  0  0  0  0  0  0  0  0  0  0  0
   -1.6958   -4.3236   -0.2318 C   0  0  0  0  0  0  0  0  0  0  0  0
   -3.3406   -4.3146   -0.9536 S   0  0  0  0  0  0  0  0  0  0  0  0
   -3.3925   -2.5769   -1.3280 C   0  0  0  0  0  0  0  0  0  0  0  0
   -4.1169   -2.1800   -2.4628 C   0  0  0  0  0  0  0  0  0  0  0  0
   -4.2197   -0.8329   -2.8000 C   0  0  0  0  0  0  0  0  0  0  0  0
   -3.6106    0.1190   -1.9852 C   0  0  0  0  0  0  0  0  0  0  0  0
   -3.6526    1.8406   -2.4502 S   0  0  0  0  0  6  0  0  0  0  0  0
   -4.1086    1.9070   -3.8234 O   0  0  0  0  0  0  0  0  0  0  0  0
   -2.3840    2.4122   -2.0537 O   0  0  0  0  0  0  0  0  0  0  0  0
   -4.8703    2.4745   -1.4606 N   0  0  0  0  0  0  0  0  0  0  0  0
   -6.2743    2.1855   -1.8292 C   0  0  0  0  0  0  0  0  0  0  0  0
   -7.2005    2.1975   -0.6177 C   0  0  0  0  0  0  0  0  0  0  0  0
   -6.9961    3.4420    0.2386 C   0  0  0  0  0  0  0  0  0  0  0  0
   -5.5202    3.7135    0.5403 C   0  0  0  0  0  0  0  0  0  0  0  0
   -4.5918    2.6427   -0.0220 C   0  0  0  0  0  0  0  0  0  0  0  0
   -2.8870   -0.2673   -0.8482 C   0  0  0  0  0  0  0  0  0  0  0  0
   -2.7716   -1.6223   -0.4972 C   0  0  0  0  0  0  0  0  0  0  0  0
    5.8744    1.0375    0.7057 C   0  0  0  0  0  0  0  0  0  0  0  0
    4.6930    1.1873   -1.8415 H   0  0  0  0  0  0  0  0  0  0  0  0
    6.2025    1.3012   -2.7659 H   0  0  0  0  0  0  0  0  0  0  0  0
    5.7667    2.5780   -1.6216 H   0  0  0  0  0  0  0  0  0  0  0  0
    7.5213    1.1427   -0.6622 H   0  0  0  0  0  0  0  0  0  0  0  0
    7.4721   -0.9702   -1.5505 H   0  0  0  0  0  0  0  0  0  0  0  0
    5.7201   -1.0381   -1.6576 H   0  0  0  0  0  0  0  0  0  0  0  0
    7.3464   -1.3195    0.9077 H   0  0  0  0  0  0  0  0  0  0  0  0
    7.5073   -3.3079   -0.5545 H   0  0  0  0  0  0  0  0  0  0  0  0
    6.5728   -3.6630    0.9069 H   0  0  0  0  0  0  0  0  0  0  0  0
    5.7419   -3.4138   -0.6383 H   0  0  0  0  0  0  0  0  0  0  0  0
    5.3744   -1.5258    2.1183 H   0  0  0  0  0  0  0  0  0  0  0  0
    4.3768   -1.9103    0.7166 H   0  0  0  0  0  0  0  0  0  0  0  0
    3.6790    1.6370    1.9562 H   0  0  0  0  0  0  0  0  0  0  0  0
    4.4722    0.4798    3.0164 H   0  0  0  0  0  0  0  0  0  0  0  0
    2.0377    0.2162    3.0482 H   0  0  0  0  0  0  0  0  0  0  0  0
    2.7613   -1.2427    2.4044 H   0  0  0  0  0  0  0  0  0  0  0  0
    2.2377   -0.4764    0.0559 H   0  0  0  0  0  0  0  0  0  0  0  0
    1.5372    1.0155    0.7158 H   0  0  0  0  0  0  0  0  0  0  0  0
    0.4827   -1.7530    0.9919 H   0  0  0  0  0  0  0  0  0  0  0  0
   -2.7578   -0.4168    1.8467 H   0  0  0  0  0  0  0  0  0  0  0  0
   -1.7806   -1.5767    2.7287 H   0  0  0  0  0  0  0  0  0  0  0  0
   -0.9391   -4.1231   -0.9969 H   0  0  0  0  0  0  0  0  0  0  0  0
   -1.5118   -5.3201    0.1817 H   0  0  0  0  0  0  0  0  0  0  0  0
   -4.5956   -2.9225   -3.1008 H   0  0  0  0  0  0  0  0  0  0  0  0
   -4.7602   -0.5408   -3.6984 H   0  0  0  0  0  0  0  0  0  0  0  0
   -6.3627    1.2152   -2.3261 H   0  0  0  0  0  0  0  0  0  0  0  0
   -6.5938    2.9547   -2.5414 H   0  0  0  0  0  0  0  0  0  0  0  0
   -7.0157    1.3060   -0.0063 H   0  0  0  0  0  0  0  0  0  0  0  0
   -8.2435    2.1368   -0.9424 H   0  0  0  0  0  0  0  0  0  0  0  0
   -7.5552    3.3385    1.1758 H   0  0  0  0  0  0  0  0  0  0  0  0
   -7.4195    4.3146   -0.2764 H   0  0  0  0  0  0  0  0  0  0  0  0
   -5.3720    3.7995    1.6229 H   0  0  0  0  0  0  0  0  0  0  0  0
   -5.2483    4.6869    0.1133 H   0  0  0  0  0  0  0  0  0  0  0  0
   -3.5585    2.9638    0.1398 H   0  0  0  0  0  0  0  0  0  0  0  0
   -4.7321    1.6941    0.5066 H   0  0  0  0  0  0  0  0  0  0  0  0
   -2.3878    0.5113   -0.2774 H   0  0  0  0  0  0  0  0  0  0  0  0
    5.5530    2.0851    0.7425 H   0  0  0  0  0  0  0  0  0  0  0  0
    6.6317    0.9203    1.4913 H   0  0  0  0  0  0  0  0  0  0  0  0
  1  2  1  0
  2  3  1  0
  3  4  1  0
  4  5  1  0
  4  6  1  0
  6  7  1  0
  7  8  1  0
  8  9  1  0
  9 10  1  0
 10 11  1  0
 11 12  1  0
 12 13  2  0
 12 14  1  0
 14 15  1  0
 15 16  1  0
 16 17  2  0
 16 18  1  0
 18 19  1  0
 19 20  1  0
 20 21  2  0
 21 22  1  0
 22 23  2  0
 23 24  1  0
 24 25  2  0
 24 26  2  0
 24 27  1  0
 27 28  1  0
 28 29  1  0
 29 30  1  0
 30 31  1  0
 31 32  1  0
 23 33  1  0
 33 34  2  0
  7 35  1  0
 35  2  1  0
 34 15  1  0
 34 20  1  0
 32 27  1  0
  1 36  1  0
  1 37  1  0
  1 38  1  0
  2 39  1  0
  3 40  1  0
  3 41  1  0
  4 42  1  0
  5 43  1  0
  5 44  1  0
  5 45  1  0
  6 46  1  0
  6 47  1  0
  8 48  1  0
  8 49  1  0
  9 50  1  0
  9 51  1  0
 10 52  1  0
 10 53  1  0
 11 54  1  0
 14 55  1  0
 14 56  1  0
 18 57  1  0
 18 58  1  0
 21 59  1  0
 22 60  1  0
 28 61  1  0
 28 62  1  0
 29 63  1  0
 29 64  1  0
 30 65  1  0
 30 66  1  0
 31 67  1  0
 31 68  1  0
 32 69  1  0
 32 70  1  0
 33 71  1  0
 35 72  1  0
 35 73  1  0
M  END
$$$$
