
     RDKit          3D

 45 47  0  0  0  0  0  0  0  0999 V2000
    9.4103   -1.1323   -0.6563 N   0  0  0  0  0  0  0  0  0  0  0  0
    8.4163   -0.5657   -0.4604 C   0  0  0  0  0  0  0  0  0  0  0  0
    7.1871    0.1339   -0.2274 C   0  0  0  0  0  0  0  0  0  0  0  0
    7.2042    1.4624    0.2024 C   0  0  0  0  0  0  0  0  0  0  0  0
    6.0011    2.1368    0.4275 C   0  0  0  0  0  0  0  0  0  0  0  0
    4.7739    1.4998    0.2204 C   0  0  0  0  0  0  0  0  0  0  0  0
    3.6810    2.2767    0.4819 O   0  0  0  0  0  0  0  0  0  0  0  0
    2.4082    1.8127    0.0561 C   0  0  0  0  0  0  0  0  0  0  0  0
    1.6958    0.8206    0.9940 C   0  0  0  0  0  0  0  0  0  0  0  0
    2.2364    0.4027    2.0193 O   0  0  0  0  0  0  0  0  0  0  0  0
    0.4070    0.4223    0.6326 N   0  0  0  0  0  0  0  0  0  0  0  0
   -0.2019   -0.6666    1.4118 C   0  0  0  0  0  0  0  0  0  0  0  0
   -1.7387   -0.6544    1.3677 C   0  0  0  0  0  0  0  0  0  0  0  0
   -2.2088   -0.6042   -0.0364 N   0  0  0  0  0  0  0  0  0  0  0  0
   -3.6117   -0.7125   -0.1365 C   0  0  0  0  0  0  0  0  0  0  0  0
   -4.1893   -0.9718   -1.3805 C   0  0  0  0  0  0  0  0  0  0  0  0
   -5.5744   -1.0951   -1.4950 C   0  0  0  0  0  0  0  0  0  0  0  0
   -6.3714   -0.9706   -0.3589 C   0  0  0  0  0  0  0  0  0  0  0  0
   -7.8630   -1.0693   -0.4021 C   0  0  0  0  0  0  0  0  0  0  0  0
   -8.3250   -1.7551   -1.4846 F   0  0  0  0  0  0  0  0  0  0  0  0
   -8.3873   -1.6972    0.6864 F   0  0  0  0  0  0  0  0  0  0  0  0
   -8.4608    0.1525   -0.4525 F   0  0  0  0  0  0  0  0  0  0  0  0
   -5.7244   -0.7180    0.8383 C   0  0  0  0  0  0  0  0  0  0  0  0
   -4.3815   -0.5950    0.9664 N   0  0  0  0  0  0  0  0  0  0  0  0
   -1.6976    0.5902   -0.7389 C   0  0  0  0  0  0  0  0  0  0  0  0
   -0.1558    0.6107   -0.7122 C   0  0  0  0  0  0  0  0  0  0  0  0
    4.7590    0.1696   -0.1998 C   0  0  0  0  0  0  0  0  0  0  0  0
    5.9622   -0.5109   -0.4252 C   0  0  0  0  0  0  0  0  0  0  0  0
    8.1462    1.9804    0.3700 H   0  0  0  0  0  0  0  0  0  0  0  0
    6.0193    3.1694    0.7697 H   0  0  0  0  0  0  0  0  0  0  0  0
    1.7730    2.7049    0.0061 H   0  0  0  0  0  0  0  0  0  0  0  0
    2.4674    1.4024   -0.9589 H   0  0  0  0  0  0  0  0  0  0  0  0
    0.1776   -1.6055    0.9892 H   0  0  0  0  0  0  0  0  0  0  0  0
    0.1290   -0.6182    2.4548 H   0  0  0  0  0  0  0  0  0  0  0  0
   -2.1029   -1.5619    1.8655 H   0  0  0  0  0  0  0  0  0  0  0  0
   -2.1012    0.2196    1.9258 H   0  0  0  0  0  0  0  0  0  0  0  0
   -3.5641   -1.1029   -2.2577 H   0  0  0  0  0  0  0  0  0  0  0  0
   -6.0189   -1.2984   -2.4670 H   0  0  0  0  0  0  0  0  0  0  0  0
   -6.2773   -0.6039    1.7687 H   0  0  0  0  0  0  0  0  0  0  0  0
   -2.0794    1.4996   -0.2552 H   0  0  0  0  0  0  0  0  0  0  0  0
   -2.0155    0.6103   -1.7878 H   0  0  0  0  0  0  0  0  0  0  0  0
    0.2399   -0.2021   -1.3336 H   0  0  0  0  0  0  0  0  0  0  0  0
    0.1901    1.5532   -1.1441 H   0  0  0  0  0  0  0  0  0  0  0  0
    3.8333   -0.3787   -0.3382 H   0  0  0  0  0  0  0  0  0  0  0  0
    5.9329   -1.5509   -0.7455 H   0  0  0  0  0  0  0  0  0  0  0  0
  1  2  3  0
  2  3  1  0
  3  4  2  0
  4  5  1  0
  5  6  2  0
  6  7  1  0
  7  8  1  0
  8  9  1  0
  9 10  2  0
  9 11  1  0
 11 12  1  0
 12 13  1  0
 13 14  1  0
 14 15  1  0
 15 16  2  0
 16 17  1  0
 17 18  2  0
 18 19  1  0
 19 20  1  0
 19 21  1  0
 19 22  1  0
 18 23  1  0
 23 24  2  0
 14 25  1  0
 25 26  1  0
  6 27  1  0
 27 28  2  0
 28  3  1  0
 26 11  1  0
 24 15  1  0
  4 29  1  0
  5 30  1  0
  8 31  1  0
  8 32  1  0
 12 33  1  0
 12 34  1  0
 13 35  1  0
 13 36  1  0
 16 37  1  0
 17 38  1  0
 23 39  1  0
 25 40  1  0
 25 41  1  0
 26 42  1  0
 26 43  1  0
 27 44  1  0
 28 45  1  0
M  END
$$$$
