
     RDKit          3D

 51 54  0  0  0  0  0  0  0  0999 V2000
    4.2039    0.1127    4.4653 C   0  0  0  0  0  0  0  0  0  0  0  0
    3.2883   -0.0744    3.2684 C   0  0  0  0  0  0  0  0  0  0  0  0
    2.2631    0.9123    3.3415 O   0  0  0  0  0  0  0  0  0  0  0  0
    1.3202    0.9378    2.3443 C   0  0  0  0  0  0  0  0  0  0  0  0
    1.2903    0.0516    1.2594 C   0  0  0  0  0  0  0  0  0  0  0  0
    0.2825    0.1222    0.2777 C   0  0  0  0  0  0  0  0  0  0  0  0
    0.2832   -0.9149   -0.8461 C   0  0  0  0  0  0  0  0  0  0  0  0
   -0.6777   -2.0919   -0.6249 C   0  0  0  0  0  0  0  0  0  0  0  0
   -0.4479   -2.7581    0.7072 C   0  0  0  0  0  0  0  0  0  0  0  0
    0.6840   -3.1061    1.0481 O   0  0  0  0  0  0  0  0  0  0  0  0
   -1.6298   -2.9742    1.6176 C   0  0  0  0  0  0  0  0  0  0  0  0
   -2.8554   -3.3183    0.7894 C   0  0  0  0  0  0  0  0  0  0  0  0
   -3.2478   -2.1432   -0.0874 C   0  0  0  0  0  0  0  0  0  0  0  0
   -2.0981   -1.6487   -0.9370 C   0  0  0  0  0  0  0  0  0  0  0  0
   -2.3821   -0.8528   -1.9274 N   0  0  0  0  0  0  0  0  0  0  0  0
   -1.3379   -0.3625   -2.6444 C   0  0  0  0  0  0  0  0  0  0  0  0
   -1.3028    0.1755   -3.8400 N   0  0  0  0  0  0  0  0  0  0  0  0
    0.0359    0.4977   -4.0434 C   0  0  0  0  0  0  0  0  0  0  0  0
    0.5416    1.1228   -5.2819 C   0  0  0  0  0  0  0  0  0  0  0  0
    1.7229    1.3857   -5.4934 O   0  0  0  0  0  0  0  0  0  0  0  0
   -0.4604    1.3782   -6.1815 O   0  0  0  0  0  0  0  0  0  0  0  0
   -0.0162    1.9810   -7.3952 C   0  0  0  0  0  0  0  0  0  0  0  0
    0.8291    0.1669   -3.0007 N   0  0  0  0  0  0  0  0  0  0  0  0
   -0.0658   -0.3213   -2.1334 N   0  0  0  0  0  0  0  0  0  0  0  0
   -0.6985    1.1144    0.4124 C   0  0  0  0  0  0  0  0  0  0  0  0
   -0.6718    2.0101    1.4869 C   0  0  0  0  0  0  0  0  0  0  0  0
    0.3308    1.9309    2.4560 C   0  0  0  0  0  0  0  0  0  0  0  0
    0.4245    2.7601    3.5455 O   0  0  0  0  0  0  0  0  0  0  0  0
   -0.4816    3.8511    3.6238 C   0  0  0  0  0  0  0  0  0  0  0  0
    5.0117   -0.6241    4.4572 H   0  0  0  0  0  0  0  0  0  0  0  0
    4.6409    1.1166    4.4632 H   0  0  0  0  0  0  0  0  0  0  0  0
    3.6424    0.0111    5.4000 H   0  0  0  0  0  0  0  0  0  0  0  0
    3.8732    0.0509    2.3497 H   0  0  0  0  0  0  0  0  0  0  0  0
    2.8526   -1.0793    3.3063 H   0  0  0  0  0  0  0  0  0  0  0  0
    2.0490   -0.7216    1.1643 H   0  0  0  0  0  0  0  0  0  0  0  0
    1.3040   -1.3022   -0.9712 H   0  0  0  0  0  0  0  0  0  0  0  0
   -0.4683   -2.8725   -1.3730 H   0  0  0  0  0  0  0  0  0  0  0  0
   -1.7860   -2.0680    2.2122 H   0  0  0  0  0  0  0  0  0  0  0  0
   -1.4002   -3.8020    2.2966 H   0  0  0  0  0  0  0  0  0  0  0  0
   -3.6900   -3.5763    1.4505 H   0  0  0  0  0  0  0  0  0  0  0  0
   -2.6503   -4.1957    0.1632 H   0  0  0  0  0  0  0  0  0  0  0  0
   -3.5841   -1.3038    0.5328 H   0  0  0  0  0  0  0  0  0  0  0  0
   -4.0794   -2.4252   -0.7429 H   0  0  0  0  0  0  0  0  0  0  0  0
    0.4768    2.9377   -7.1948 H   0  0  0  0  0  0  0  0  0  0  0  0
    0.6534    1.3040   -7.9353 H   0  0  0  0  0  0  0  0  0  0  0  0
   -0.8934    2.1700   -8.0202 H   0  0  0  0  0  0  0  0  0  0  0  0
   -1.5016    1.2299   -0.3131 H   0  0  0  0  0  0  0  0  0  0  0  0
   -1.4536    2.7614    1.5370 H   0  0  0  0  0  0  0  0  0  0  0  0
   -0.2249    4.4360    4.5123 H   0  0  0  0  0  0  0  0  0  0  0  0
   -1.5111    3.4987    3.7447 H   0  0  0  0  0  0  0  0  0  0  0  0
   -0.3875    4.5095    2.7537 H   0  0  0  0  0  0  0  0  0  0  0  0
  1  2  1  0
  2  3  1  0
  3  4  1  0
  4  5  2  0
  5  6  1  0
  6  7  1  0
  7  8  1  0
  8  9  1  0
  9 10  2  0
  9 11  1  0
 11 12  1  0
 12 13  1  0
 13 14  1  0
 14 15  2  0
 15 16  1  0
 16 17  2  0
 17 18  1  0
 18 19  1  0
 19 20  2  0
 19 21  1  0
 21 22  1  0
 18 23  2  0
 23 24  1  0
  6 25  2  0
 25 26  1  0
 26 27  2  0
 27 28  1  0
 28 29  1  0
 27  4  1  0
 24  7  1  0
 14  8  1  0
 24 16  1  0
  1 30  1  0
  1 31  1  0
  1 32  1  0
  2 33  1  0
  2 34  1  0
  5 35  1  0
  7 36  1  0
  8 37  1  0
 11 38  1  0
 11 39  1  0
 12 40  1  0
 12 41  1  0
 13 42  1  0
 13 43  1  0
 22 44  1  0
 22 45  1  0
 22 46  1  0
 25 47  1  0
 26 48  1  0
 29 49  1  0
 29 50  1  0
 29 51  1  0
M  END
$$$$
