
     RDKit          3D

 37 38  0  0  0  0  0  0  0  0999 V2000
    7.0357   -0.3027   -1.0901 C   0  0  0  0  0  0  0  0  0  0  0  0
    5.9952   -1.2696   -1.1573 O   0  0  0  0  0  0  0  0  0  0  0  0
    4.8129   -0.9539   -0.5487 C   0  0  0  0  0  0  0  0  0  0  0  0
    3.8216   -1.9309   -0.6576 C   0  0  0  0  0  0  0  0  0  0  0  0
    2.5634   -1.7372   -0.0816 C   0  0  0  0  0  0  0  0  0  0  0  0
    2.2800   -0.5554    0.6117 C   0  0  0  0  0  0  0  0  0  0  0  0
    0.9234   -0.3923    1.2127 C   0  0  0  0  0  0  0  0  0  0  0  0
    0.1674   -1.3601    1.2788 O   0  0  0  0  0  0  0  0  0  0  0  0
    0.5211    0.9551    1.7535 C   0  0  0  0  0  0  0  0  0  0  0  0
   -0.9582    1.0557    1.9853 C   0  0  0  0  0  0  0  0  0  0  0  0
   -1.4755    1.2813    3.0758 O   0  0  0  0  0  0  0  0  0  0  0  0
   -1.8516    0.9030    0.7545 C   0  0  0  0  0  0  0  0  0  0  0  0
   -1.3557    1.0584   -0.3506 O   0  0  0  0  0  0  0  0  0  0  0  0
   -3.1584    0.6292    1.0972 N   0  0  0  0  0  0  0  0  0  0  0  0
   -4.2490    0.4211    0.2370 C   0  0  0  0  0  0  0  0  0  0  0  0
   -5.4968    0.1863    0.8294 C   0  0  0  0  0  0  0  0  0  0  0  0
   -6.6305   -0.0297    0.0401 C   0  0  0  0  0  0  0  0  0  0  0  0
   -6.5193   -0.0132   -1.3471 C   0  0  0  0  0  0  0  0  0  0  0  0
   -7.9117   -0.2779   -2.3213 Cl  0  0  0  0  0  0  0  0  0  0  0  0
   -5.2849    0.2165   -1.9480 C   0  0  0  0  0  0  0  0  0  0  0  0
   -4.1510    0.4330   -1.1564 C   0  0  0  0  0  0  0  0  0  0  0  0
    3.2746    0.4225    0.7279 C   0  0  0  0  0  0  0  0  0  0  0  0
    4.5353    0.2227    0.1476 C   0  0  0  0  0  0  0  0  0  0  0  0
    6.7398    0.6305   -1.5806 H   0  0  0  0  0  0  0  0  0  0  0  0
    7.3428   -0.1255   -0.0542 H   0  0  0  0  0  0  0  0  0  0  0  0
    7.8993   -0.7029   -1.6297 H   0  0  0  0  0  0  0  0  0  0  0  0
    4.0293   -2.8529   -1.1964 H   0  0  0  0  0  0  0  0  0  0  0  0
    1.8079   -2.5146   -0.1820 H   0  0  0  0  0  0  0  0  0  0  0  0
    0.8051    1.7564    1.0644 H   0  0  0  0  0  0  0  0  0  0  0  0
    1.0297    1.1110    2.7109 H   0  0  0  0  0  0  0  0  0  0  0  0
   -3.3329    0.5933    2.0992 H   0  0  0  0  0  0  0  0  0  0  0  0
   -5.6048    0.1684    1.9113 H   0  0  0  0  0  0  0  0  0  0  0  0
   -7.5918   -0.2101    0.5136 H   0  0  0  0  0  0  0  0  0  0  0  0
   -5.1919    0.2282   -3.0309 H   0  0  0  0  0  0  0  0  0  0  0  0
   -3.2050    0.6036   -1.6614 H   0  0  0  0  0  0  0  0  0  0  0  0
    3.1057    1.3476    1.2708 H   0  0  0  0  0  0  0  0  0  0  0  0
    5.2789    1.0053    0.2609 H   0  0  0  0  0  0  0  0  0  0  0  0
  1  2  1  0
  2  3  1  0
  3  4  2  0
  4  5  1  0
  5  6  2  0
  6  7  1  0
  7  8  2  0
  7  9  1  0
  9 10  1  0
 10 11  2  0
 10 12  1  0
 12 13  2  0
 12 14  1  0
 14 15  1  0
 15 16  2  0
 16 17  1  0
 17 18  2  0
 18 19  1  0
 18 20  1  0
 20 21  2  0
  6 22  1  0
 22 23  2  0
 23  3  1  0
 21 15  1  0
  1 24  1  0
  1 25  1  0
  1 26  1  0
  4 27  1  0
  5 28  1  0
  9 29  1  0
  9 30  1  0
 14 31  1  0
 16 32  1  0
 17 33  1  0
 20 34  1  0
 21 35  1  0
 22 36  1  0
 23 37  1  0
M  END
$$$$
