
     RDKit          3D

 59 63  0  0  0  0  0  0  0  0999 V2000
    4.2398   -3.9685    3.5162 C   0  0  0  0  0  0  0  0  0  0  0  0
    3.4581   -2.7786    3.5003 O   0  0  0  0  0  0  0  0  0  0  0  0
    3.5152   -2.0192    2.3645 C   0  0  0  0  0  0  0  0  0  0  0  0
    2.7824   -0.8325    2.4170 C   0  0  0  0  0  0  0  0  0  0  0  0
    2.7595    0.0400    1.3257 C   0  0  0  0  0  0  0  0  0  0  0  0
    3.4751   -0.2632    0.1639 C   0  0  0  0  0  0  0  0  0  0  0  0
    3.4609    0.6588   -0.9741 C   0  0  0  0  0  0  0  0  0  0  0  0
    4.8836    1.5409   -1.3218 S   0  0  0  0  0  0  0  0  0  0  0  0
    4.1527    2.3828   -2.6265 C   0  0  0  0  0  0  0  0  0  0  0  0
    4.7531    3.3609   -3.4434 C   0  0  0  0  0  0  0  0  0  0  0  0
    4.0056    3.9407   -4.4680 C   0  0  0  0  0  0  0  0  0  0  0  0
    2.6910    3.5595   -4.6793 C   0  0  0  0  0  0  0  0  0  0  0  0
    2.0993    2.5916   -3.8646 C   0  0  0  0  0  0  0  0  0  0  0  0
    2.8294    1.9839   -2.8126 C   0  0  0  0  0  0  0  0  0  0  0  0
    2.4384    0.9827   -1.8469 C   0  0  0  0  0  0  0  0  0  0  0  0
    1.1198    0.3743   -1.7380 C   0  0  0  0  0  0  0  0  0  0  0  0
    0.0708    1.0909   -1.1553 C   0  0  0  0  0  0  0  0  0  0  0  0
   -1.1978    0.5141   -1.0368 C   0  0  0  0  0  0  0  0  0  0  0  0
   -1.4302   -0.7806   -1.5055 C   0  0  0  0  0  0  0  0  0  0  0  0
   -2.6149   -1.4686   -1.4300 O   0  0  0  0  0  0  0  0  0  0  0  0
   -3.7478   -0.7702   -0.9022 C   0  0  0  0  0  0  0  0  0  0  0  0
   -3.7488   -0.7665    0.6402 C   0  0  0  0  0  0  0  0  0  0  0  0
   -4.2210    0.5162    1.1985 N   0  0  0  0  0  0  0  0  0  0  0  0
   -3.9072    0.6322    2.6388 C   0  0  0  0  0  0  0  0  0  0  0  0
   -4.8275   -0.1950    3.5473 C   0  0  0  0  0  0  0  0  0  0  0  0
   -6.1982    0.1450    3.3335 O   0  0  0  0  0  0  0  0  0  0  0  0
   -6.5634   -0.0743    1.9659 C   0  0  0  0  0  0  0  0  0  0  0  0
   -5.6701    0.7341    1.0109 C   0  0  0  0  0  0  0  0  0  0  0  0
   -0.3801   -1.4885   -2.0975 C   0  0  0  0  0  0  0  0  0  0  0  0
    0.8905   -0.9169   -2.2169 C   0  0  0  0  0  0  0  0  0  0  0  0
    4.2025   -1.4569    0.1102 C   0  0  0  0  0  0  0  0  0  0  0  0
    4.2216   -2.3313    1.2042 C   0  0  0  0  0  0  0  0  0  0  0  0
    3.8929   -4.6806    2.7584 H   0  0  0  0  0  0  0  0  0  0  0  0
    4.1103   -4.4412    4.4935 H   0  0  0  0  0  0  0  0  0  0  0  0
    5.3085   -3.7456    3.3930 H   0  0  0  0  0  0  0  0  0  0  0  0
    2.2274   -0.5775    3.3170 H   0  0  0  0  0  0  0  0  0  0  0  0
    2.1842    0.9588    1.3945 H   0  0  0  0  0  0  0  0  0  0  0  0
    5.7827    3.6614   -3.2783 H   0  0  0  0  0  0  0  0  0  0  0  0
    4.4582    4.6962   -5.1040 H   0  0  0  0  0  0  0  0  0  0  0  0
    2.1154    4.0136   -5.4798 H   0  0  0  0  0  0  0  0  0  0  0  0
    1.0667    2.3032   -4.0426 H   0  0  0  0  0  0  0  0  0  0  0  0
    0.2360    2.0972   -0.7786 H   0  0  0  0  0  0  0  0  0  0  0  0
   -1.9750    1.1042   -0.5612 H   0  0  0  0  0  0  0  0  0  0  0  0
   -3.8258    0.2295   -1.3466 H   0  0  0  0  0  0  0  0  0  0  0  0
   -4.6397   -1.3084   -1.2482 H   0  0  0  0  0  0  0  0  0  0  0  0
   -2.7246   -0.9588    0.9937 H   0  0  0  0  0  0  0  0  0  0  0  0
   -4.3470   -1.6183    1.0022 H   0  0  0  0  0  0  0  0  0  0  0  0
   -2.8577    0.3768    2.8292 H   0  0  0  0  0  0  0  0  0  0  0  0
   -4.0160    1.6944    2.9096 H   0  0  0  0  0  0  0  0  0  0  0  0
   -4.6945   -1.2704    3.3901 H   0  0  0  0  0  0  0  0  0  0  0  0
   -4.5966    0.0193    4.5962 H   0  0  0  0  0  0  0  0  0  0  0  0
   -6.5239   -1.1488    1.7472 H   0  0  0  0  0  0  0  0  0  0  0  0
   -7.6014    0.2476    1.8491 H   0  0  0  0  0  0  0  0  0  0  0  0
   -5.8570    1.8040    1.1888 H   0  0  0  0  0  0  0  0  0  0  0  0
   -5.9710    0.5439   -0.0268 H   0  0  0  0  0  0  0  0  0  0  0  0
   -0.5521   -2.4963   -2.4668 H   0  0  0  0  0  0  0  0  0  0  0  0
    1.6941   -1.4861   -2.6772 H   0  0  0  0  0  0  0  0  0  0  0  0
    4.7614   -1.7154   -0.7850 H   0  0  0  0  0  0  0  0  0  0  0  0
    4.8021   -3.2406    1.1153 H   0  0  0  0  0  0  0  0  0  0  0  0
  1  2  1  0
  2  3  1  0
  3  4  2  0
  4  5  1  0
  5  6  2  0
  6  7  1  0
  7  8  1  0
  8  9  1  0
  9 10  2  0
 10 11  1  0
 11 12  2  0
 12 13  1  0
 13 14  2  0
 14 15  1  0
 15 16  1  0
 16 17  2  0
 17 18  1  0
 18 19  2  0
 19 20  1  0
 20 21  1  0
 21 22  1  0
 22 23  1  0
 23 24  1  0
 24 25  1  0
 25 26  1  0
 26 27  1  0
 27 28  1  0
 19 29  1  0
 29 30  2  0
  6 31  1  0
 31 32  2  0
 32  3  1  0
 15  7  2  0
 30 16  1  0
 14  9  1  0
 28 23  1  0
  1 33  1  0
  1 34  1  0
  1 35  1  0
  4 36  1  0
  5 37  1  0
 10 38  1  0
 11 39  1  0
 12 40  1  0
 13 41  1  0
 17 42  1  0
 18 43  1  0
 21 44  1  0
 21 45  1  0
 22 46  1  0
 22 47  1  0
 24 48  1  0
 24 49  1  0
 25 50  1  0
 25 51  1  0
 27 52  1  0
 27 53  1  0
 28 54  1  0
 28 55  1  0
 29 56  1  0
 30 57  1  0
 31 58  1  0
 32 59  1  0
M  END
$$$$
