
     RDKit          3D

 49 51  0  0  0  0  0  0  0  0999 V2000
   -8.5877    1.2128    1.3369 C   0  0  0  0  0  0  0  0  0  0  0  0
   -7.8221    1.0844    0.1478 O   0  0  0  0  0  0  0  0  0  0  0  0
   -6.5511    0.5774    0.2594 C   0  0  0  0  0  0  0  0  0  0  0  0
   -5.9734    0.1500    1.4588 C   0  0  0  0  0  0  0  0  0  0  0  0
   -4.6701   -0.3541    1.4760 C   0  0  0  0  0  0  0  0  0  0  0  0
   -3.9261   -0.4290    0.2965 C   0  0  0  0  0  0  0  0  0  0  0  0
   -2.5627   -0.9709    0.2889 C   0  0  0  0  0  0  0  0  0  0  0  0
   -1.4981   -0.4425    0.9076 C   0  0  0  0  0  0  0  0  0  0  0  0
   -1.4161    0.9927    1.8501 S   0  0  0  0  0  0  0  0  0  0  0  0
    0.3060    0.8122    2.1272 C   0  0  0  0  0  0  0  0  0  0  0  0
    0.9746    1.6503    2.7103 O   0  0  0  0  0  0  0  0  0  0  0  0
    0.7516   -0.3551    1.5675 N   0  0  0  0  0  0  0  0  0  0  0  0
    2.1541   -0.7369    1.6337 C   0  0  0  0  0  0  0  0  0  0  0  0
    2.9600   -0.1307    0.4885 C   0  0  0  0  0  0  0  0  0  0  0  0
    4.4177   -0.5412    0.5682 C   0  0  0  0  0  0  0  0  0  0  0  0
    4.8333   -1.2702    1.4608 O   0  0  0  0  0  0  0  0  0  0  0  0
    5.1570    0.0074   -0.4669 N   0  0  0  0  0  0  0  0  0  0  0  0
    6.5358   -0.1540   -0.7186 C   0  0  0  0  0  0  0  0  0  0  0  0
    7.0625    0.5078   -1.8363 C   0  0  0  0  0  0  0  0  0  0  0  0
    8.4185    0.4003   -2.1571 C   0  0  0  0  0  0  0  0  0  0  0  0
    9.2619   -0.3707   -1.3627 C   0  0  0  0  0  0  0  0  0  0  0  0
    8.7482   -1.0321   -0.2501 C   0  0  0  0  0  0  0  0  0  0  0  0
    7.3908   -0.9245    0.0710 C   0  0  0  0  0  0  0  0  0  0  0  0
   -0.1513   -1.0683    0.8154 C   0  0  0  0  0  0  0  0  0  0  0  0
    0.0981   -2.0533    0.1351 O   0  0  0  0  0  0  0  0  0  0  0  0
   -4.5047   -0.0139   -0.9095 C   0  0  0  0  0  0  0  0  0  0  0  0
   -5.8107    0.4919   -0.9372 C   0  0  0  0  0  0  0  0  0  0  0  0
   -6.4506    0.9256   -2.0727 O   0  0  0  0  0  0  0  0  0  0  0  0
   -5.7429    0.8509   -3.3014 C   0  0  0  0  0  0  0  0  0  0  0  0
   -8.7754    0.2353    1.7929 H   0  0  0  0  0  0  0  0  0  0  0  0
   -9.5563    1.6439    1.0661 H   0  0  0  0  0  0  0  0  0  0  0  0
   -8.1070    1.8954    2.0455 H   0  0  0  0  0  0  0  0  0  0  0  0
   -6.5112    0.1926    2.3999 H   0  0  0  0  0  0  0  0  0  0  0  0
   -4.2475   -0.6887    2.4209 H   0  0  0  0  0  0  0  0  0  0  0  0
   -2.4435   -1.8782   -0.3027 H   0  0  0  0  0  0  0  0  0  0  0  0
    2.5612   -0.4073    2.5973 H   0  0  0  0  0  0  0  0  0  0  0  0
    2.2200   -1.8312    1.6039 H   0  0  0  0  0  0  0  0  0  0  0  0
    2.9012    0.9636    0.5226 H   0  0  0  0  0  0  0  0  0  0  0  0
    2.5551   -0.4611   -0.4754 H   0  0  0  0  0  0  0  0  0  0  0  0
    4.6589    0.5952   -1.1236 H   0  0  0  0  0  0  0  0  0  0  0  0
    6.4280    1.1169   -2.4745 H   0  0  0  0  0  0  0  0  0  0  0  0
    8.8150    0.9185   -3.0263 H   0  0  0  0  0  0  0  0  0  0  0  0
   10.3172   -0.4570   -1.6081 H   0  0  0  0  0  0  0  0  0  0  0  0
    9.4020   -1.6358    0.3746 H   0  0  0  0  0  0  0  0  0  0  0  0
    7.0359   -1.4576    0.9471 H   0  0  0  0  0  0  0  0  0  0  0  0
   -3.9160   -0.0893   -1.8179 H   0  0  0  0  0  0  0  0  0  0  0  0
   -5.4916   -0.1853   -3.5504 H   0  0  0  0  0  0  0  0  0  0  0  0
   -4.8486    1.4823   -3.2812 H   0  0  0  0  0  0  0  0  0  0  0  0
   -6.3997    1.2315   -4.0895 H   0  0  0  0  0  0  0  0  0  0  0  0
  1  2  1  0
  2  3  1  0
  3  4  2  0
  4  5  1  0
  5  6  2  0
  6  7  1  0
  7  8  2  3
  8  9  1  0
  9 10  1  0
 10 11  2  0
 10 12  1  0
 12 13  1  0
 13 14  1  0
 14 15  1  0
 15 16  2  0
 15 17  1  0
 17 18  1  0
 18 19  2  0
 19 20  1  0
 20 21  2  0
 21 22  1  0
 22 23  2  0
 12 24  1  0
 24 25  2  0
  6 26  1  0
 26 27  2  0
 27 28  1  0
 28 29  1  0
 27  3  1  0
 24  8  1  0
 23 18  1  0
  1 30  1  0
  1 31  1  0
  1 32  1  0
  4 33  1  0
  5 34  1  0
  7 35  1  0
 13 36  1  0
 13 37  1  0
 14 38  1  0
 14 39  1  0
 17 40  1  0
 19 41  1  0
 20 42  1  0
 21 43  1  0
 22 44  1  0
 23 45  1  0
 26 46  1  0
 29 47  1  0
 29 48  1  0
 29 49  1  0
M  END
$$$$
