
     RDKit          3D

 45 48  0  0  0  0  0  0  0  0999 V2000
   -4.6786   -2.3401    2.0439 C   0  0  0  0  0  0  0  0  0  0  0  0
   -4.2503   -0.8901    2.1563 C   0  0  0  0  0  0  0  0  0  0  0  0
   -2.9710   -0.7521    1.5262 O   0  0  0  0  0  0  0  0  0  0  0  0
   -2.4533    0.5034    1.5900 C   0  0  0  0  0  0  0  0  0  0  0  0
   -2.9756    1.4682    2.1255 O   0  0  0  0  0  0  0  0  0  0  0  0
   -1.1619    0.5484    0.8726 C   0  0  0  0  0  0  0  0  0  0  0  0
   -1.0693    1.6180   -0.1457 C   0  0  0  0  0  0  0  0  0  0  0  0
   -0.1790    2.4546   -0.1962 O   0  0  0  0  0  0  0  0  0  0  0  0
   -2.1463    1.5432   -0.9724 O   0  0  0  0  0  0  0  0  0  0  0  0
   -2.1767    2.5619   -1.9777 C   0  0  0  0  0  0  0  0  0  0  0  0
   -3.4152    2.3503   -2.8260 C   0  0  0  0  0  0  0  0  0  0  0  0
   -0.0952   -0.2040    1.2544 C   0  0  0  0  0  0  0  0  0  0  0  0
   -0.1087   -0.9013    2.5946 C   0  0  0  0  0  0  0  0  0  0  0  0
    1.0231   -1.3042    3.2273 C   0  0  0  0  0  0  0  0  0  0  0  0
    0.9658   -2.0933    4.9196 Br  0  0  0  0  0  0  0  0  0  0  0  0
    2.2937   -1.1442    2.5816 C   0  0  0  0  0  0  0  0  0  0  0  0
    3.5408   -1.4438    2.9624 N   0  0  0  0  0  0  0  0  0  0  0  0
    4.3391   -1.1822    1.8387 O   0  0  0  0  0  0  0  0  0  0  0  0
    3.5506   -0.7559    0.8050 C   0  0  0  0  0  0  0  0  0  0  0  0
    3.9008   -0.4687   -0.5198 C   0  0  0  0  0  0  0  0  0  0  0  0
    5.2398   -0.5468   -0.9452 C   0  0  0  0  0  0  0  0  0  0  0  0
    5.5492   -0.2794   -2.2742 C   0  0  0  0  0  0  0  0  0  0  0  0
    4.5358    0.0623   -3.1671 C   0  0  0  0  0  0  0  0  0  0  0  0
    3.2018    0.1325   -2.7408 C   0  0  0  0  0  0  0  0  0  0  0  0
    2.8346   -0.1400   -1.4028 C   0  0  0  0  0  0  0  0  0  0  0  0
    1.4938   -0.1019   -0.8979 C   0  0  0  0  0  0  0  0  0  0  0  0
    0.4295   -0.0022   -1.7634 O   0  0  0  0  0  0  0  0  0  0  0  0
    1.1913   -0.2505    0.4695 C   0  0  0  0  0  0  0  0  0  0  0  0
    2.2648   -0.6579    1.2644 C   0  0  0  0  0  0  0  0  0  0  0  0
   -5.6520   -2.4964    2.5172 H   0  0  0  0  0  0  0  0  0  0  0  0
   -4.7429   -2.6419    0.9935 H   0  0  0  0  0  0  0  0  0  0  0  0
   -3.9437   -2.9972    2.5202 H   0  0  0  0  0  0  0  0  0  0  0  0
   -4.1759   -0.6080    3.2126 H   0  0  0  0  0  0  0  0  0  0  0  0
   -4.9804   -0.2471    1.6521 H   0  0  0  0  0  0  0  0  0  0  0  0
   -1.2816    2.4910   -2.6056 H   0  0  0  0  0  0  0  0  0  0  0  0
   -2.2185    3.5486   -1.5032 H   0  0  0  0  0  0  0  0  0  0  0  0
   -3.4015    1.3576   -3.2881 H   0  0  0  0  0  0  0  0  0  0  0  0
   -3.4827    3.1059   -3.6136 H   0  0  0  0  0  0  0  0  0  0  0  0
   -4.3180    2.4012   -2.2084 H   0  0  0  0  0  0  0  0  0  0  0  0
   -1.0554   -1.0235    3.1128 H   0  0  0  0  0  0  0  0  0  0  0  0
    6.0334   -0.8104   -0.2496 H   0  0  0  0  0  0  0  0  0  0  0  0
    6.5808   -0.3293   -2.6137 H   0  0  0  0  0  0  0  0  0  0  0  0
    4.7841    0.2870   -4.2021 H   0  0  0  0  0  0  0  0  0  0  0  0
    2.4608    0.4396   -3.4744 H   0  0  0  0  0  0  0  0  0  0  0  0
    0.7200   -0.2611   -2.6524 H   0  0  0  0  0  0  0  0  0  0  0  0
  1  2  1  0
  2  3  1  0
  3  4  1  0
  4  5  2  0
  4  6  1  0
  6  7  1  0
  7  8  2  0
  7  9  1  0
  9 10  1  0
 10 11  1  0
  6 12  2  3
 12 13  1  0
 13 14  2  0
 14 15  1  0
 14 16  1  0
 16 17  2  0
 17 18  1  0
 18 19  1  0
 19 20  1  0
 20 21  2  0
 21 22  1  0
 22 23  2  0
 23 24  1  0
 24 25  2  0
 25 26  1  0
 26 27  1  0
 26 28  2  0
 28 29  1  0
 28 12  1  0
 29 16  1  0
 29 19  2  0
 25 20  1  0
  1 30  1  0
  1 31  1  0
  1 32  1  0
  2 33  1  0
  2 34  1  0
 10 35  1  0
 10 36  1  0
 11 37  1  0
 11 38  1  0
 11 39  1  0
 13 40  1  0
 21 41  1  0
 22 42  1  0
 23 43  1  0
 24 44  1  0
 27 45  1  0
M  END
$$$$
