
     RDKit          3D

 39 40  0  0  0  0  0  0  0  0999 V2000
    7.4486    1.6907   -0.4437 C   0  0  0  0  0  0  0  0  0  0  0  0
    6.0215    1.7151   -0.4824 O   0  0  0  0  0  0  0  0  0  0  0  0
    5.4372    0.6708    0.1523 C   0  0  0  0  0  0  0  0  0  0  0  0
    6.0260   -0.2297    0.7301 O   0  0  0  0  0  0  0  0  0  0  0  0
    4.0872    0.7896    0.0555 N   0  0  0  0  0  0  0  0  0  0  0  0
    3.2023   -0.1003    0.7562 C   0  0  0  0  0  0  0  0  0  0  0  0
    1.7720    0.1277    0.3441 C   0  0  0  0  0  0  0  0  0  0  0  0
    1.2848   -0.4288   -0.8494 C   0  0  0  0  0  0  0  0  0  0  0  0
   -0.0309   -0.1986   -1.2524 C   0  0  0  0  0  0  0  0  0  0  0  0
   -0.8643    0.5928   -0.4580 C   0  0  0  0  0  0  0  0  0  0  0  0
   -2.5337    0.8802   -0.9854 S   0  0  0  0  0  6  0  0  0  0  0  0
   -2.4933    1.2012   -2.3958 O   0  0  0  0  0  0  0  0  0  0  0  0
   -3.1757    1.7648   -0.0358 O   0  0  0  0  0  0  0  0  0  0  0  0
   -3.2541   -0.6579   -0.8119 N   0  0  0  0  0  0  0  0  0  0  0  0
   -3.2303   -1.2227    0.5788 C   0  0  0  0  0  0  0  0  0  0  0  0
   -4.2804   -2.3283    0.7265 C   0  0  0  0  0  0  0  0  0  0  0  0
   -5.6215   -1.8542    0.5457 O   0  0  0  0  0  0  0  0  0  0  0  0
   -5.7127   -0.7444   -0.3601 C   0  0  0  0  0  0  0  0  0  0  0  0
   -4.6197   -0.7548   -1.4321 C   0  0  0  0  0  0  0  0  0  0  0  0
   -0.3916    1.1693    0.7228 C   0  0  0  0  0  0  0  0  0  0  0  0
    0.9263    0.9358    1.1200 C   0  0  0  0  0  0  0  0  0  0  0  0
    7.8171    2.5662   -0.9854 H   0  0  0  0  0  0  0  0  0  0  0  0
    7.8055    1.7477    0.5895 H   0  0  0  0  0  0  0  0  0  0  0  0
    7.8312    0.7920   -0.9380 H   0  0  0  0  0  0  0  0  0  0  0  0
    3.7400    1.6498   -0.3442 H   0  0  0  0  0  0  0  0  0  0  0  0
    3.3306    0.0656    1.8324 H   0  0  0  0  0  0  0  0  0  0  0  0
    3.4991   -1.1375    0.5591 H   0  0  0  0  0  0  0  0  0  0  0  0
    1.9356   -1.0390   -1.4737 H   0  0  0  0  0  0  0  0  0  0  0  0
   -0.3997   -0.6300   -2.1808 H   0  0  0  0  0  0  0  0  0  0  0  0
   -2.2375   -1.6404    0.7732 H   0  0  0  0  0  0  0  0  0  0  0  0
   -3.4365   -0.4342    1.3107 H   0  0  0  0  0  0  0  0  0  0  0  0
   -4.1047   -3.1300   -0.0002 H   0  0  0  0  0  0  0  0  0  0  0  0
   -4.2225   -2.7735    1.7248 H   0  0  0  0  0  0  0  0  0  0  0  0
   -6.7010   -0.7875   -0.8284 H   0  0  0  0  0  0  0  0  0  0  0  0
   -5.6703    0.1772    0.2314 H   0  0  0  0  0  0  0  0  0  0  0  0
   -4.6501   -1.6941   -1.9971 H   0  0  0  0  0  0  0  0  0  0  0  0
   -4.7931    0.0549   -2.1476 H   0  0  0  0  0  0  0  0  0  0  0  0
   -1.0342    1.8015    1.3319 H   0  0  0  0  0  0  0  0  0  0  0  0
    1.2931    1.3930    2.0375 H   0  0  0  0  0  0  0  0  0  0  0  0
  1  2  1  0
  2  3  1  0
  3  4  2  0
  3  5  1  0
  5  6  1  0
  6  7  1  0
  7  8  2  0
  8  9  1  0
  9 10  2  0
 10 11  1  0
 11 12  2  0
 11 13  2  0
 11 14  1  0
 14 15  1  0
 15 16  1  0
 16 17  1  0
 17 18  1  0
 18 19  1  0
 10 20  1  0
 20 21  2  0
 21  7  1  0
 19 14  1  0
  1 22  1  0
  1 23  1  0
  1 24  1  0
  5 25  1  0
  6 26  1  0
  6 27  1  0
  8 28  1  0
  9 29  1  0
 15 30  1  0
 15 31  1  0
 16 32  1  0
 16 33  1  0
 18 34  1  0
 18 35  1  0
 19 36  1  0
 19 37  1  0
 20 38  1  0
 21 39  1  0
M  END
$$$$
