
     RDKit          3D

 34 36  0  0  0  0  0  0  0  0999 V2000
    0.6910    0.2218    2.1810 O   0  0  0  0  0  0  0  0  0  0  0  0
    0.6416   -0.5388    1.2235 C   0  0  0  0  0  0  0  0  0  0  0  0
    1.7119   -0.6404    0.1873 C   0  0  0  0  0  0  0  0  0  0  0  0
    2.7566    0.1978    0.1892 C   0  0  0  0  0  0  0  0  0  0  0  0
    3.8658    0.2484   -0.7623 C   0  0  0  0  0  0  0  0  0  0  0  0
    4.6528   -0.8580   -1.0661 C   0  0  0  0  0  0  0  0  0  0  0  0
    5.7152   -0.7015   -1.9534 C   0  0  0  0  0  0  0  0  0  0  0  0
    5.9688    0.5511   -2.4974 C   0  0  0  0  0  0  0  0  0  0  0  0
    5.1496    1.6020   -2.1231 C   0  0  0  0  0  0  0  0  0  0  0  0
    4.1140    1.4793   -1.2637 N   0  0  0  0  0  0  0  0  0  0  0  0
    1.3542   -1.9005   -0.9381 S   0  0  0  0  0  0  0  0  0  0  0  0
   -0.1656   -2.3102   -0.1539 C   0  0  0  0  0  0  0  0  0  0  0  0
   -1.1624   -3.5533   -0.6521 S   0  0  0  0  0  0  0  0  0  0  0  0
   -0.3445   -1.4684    0.9231 N   0  0  0  0  0  0  0  0  0  0  0  0
   -1.5030   -1.5263    1.7351 N   0  0  0  0  0  0  0  0  0  0  0  0
   -2.5343   -0.6555    1.2775 C   0  0  0  0  0  0  0  0  0  0  0  0
   -2.2683    0.2296    0.2817 N   0  0  0  0  0  0  0  0  0  0  0  0
   -3.2500    1.0793   -0.1037 C   0  0  0  0  0  0  0  0  0  0  0  0
   -4.5217    1.0959    0.4466 C   0  0  0  0  0  0  0  0  0  0  0  0
   -5.5366    2.0879   -0.0300 C   0  0  0  0  0  0  0  0  0  0  0  0
   -5.4239    2.3672   -1.3572 F   0  0  0  0  0  0  0  0  0  0  0  0
   -6.8179    1.6659    0.1536 F   0  0  0  0  0  0  0  0  0  0  0  0
   -5.4376    3.2803    0.6158 F   0  0  0  0  0  0  0  0  0  0  0  0
   -4.7907    0.1860    1.4726 C   0  0  0  0  0  0  0  0  0  0  0  0
   -3.7944   -0.6954    1.8929 C   0  0  0  0  0  0  0  0  0  0  0  0
   -4.1613   -1.8243    3.1462 Cl  0  0  0  0  0  0  0  0  0  0  0  0
    2.8037    0.9873    0.9381 H   0  0  0  0  0  0  0  0  0  0  0  0
    4.4607   -1.8277   -0.6201 H   0  0  0  0  0  0  0  0  0  0  0  0
    6.3418   -1.5502   -2.2126 H   0  0  0  0  0  0  0  0  0  0  0  0
    6.7879    0.7068   -3.1905 H   0  0  0  0  0  0  0  0  0  0  0  0
    5.3094    2.6030   -2.5137 H   0  0  0  0  0  0  0  0  0  0  0  0
   -1.8758   -2.4742    1.8035 H   0  0  0  0  0  0  0  0  0  0  0  0
   -2.9650    1.7690   -0.8970 H   0  0  0  0  0  0  0  0  0  0  0  0
   -5.7720    0.1659    1.9433 H   0  0  0  0  0  0  0  0  0  0  0  0
  1  2  2  0
  2  3  1  0
  3  4  2  3
  4  5  1  0
  5  6  2  0
  6  7  1  0
  7  8  2  0
  8  9  1  0
  9 10  2  0
  3 11  1  0
 11 12  1  0
 12 13  2  0
 12 14  1  0
 14 15  1  0
 15 16  1  0
 16 17  2  0
 17 18  1  0
 18 19  2  0
 19 20  1  0
 20 21  1  0
 20 22  1  0
 20 23  1  0
 19 24  1  0
 24 25  2  0
 25 26  1  0
 14  2  1  0
 25 16  1  0
 10  5  1  0
  4 27  1  0
  6 28  1  0
  7 29  1  0
  8 30  1  0
  9 31  1  0
 15 32  1  0
 18 33  1  0
 24 34  1  0
M  END
$$$$
