
     RDKit          3D

 53 57  0  0  0  0  0  0  0  0999 V2000
    8.1902    1.1741   -0.1012 C   0  0  0  0  0  0  0  0  0  0  0  0
    7.2534    0.9582    0.9464 O   0  0  0  0  0  0  0  0  0  0  0  0
    5.9536    0.7496    0.5806 C   0  0  0  0  0  0  0  0  0  0  0  0
    5.0721    0.5413    1.6392 C   0  0  0  0  0  0  0  0  0  0  0  0
    3.7085    0.3147    1.4105 C   0  0  0  0  0  0  0  0  0  0  0  0
    3.1964    0.2916    0.1084 C   0  0  0  0  0  0  0  0  0  0  0  0
    1.8003    0.0564   -0.1496 N   0  0  0  0  0  0  0  0  0  0  0  0
    1.2605   -0.1943   -1.4015 C   0  0  0  0  0  0  0  0  0  0  0  0
   -0.0997   -0.3860   -1.2928 C   0  0  0  0  0  0  0  0  0  0  0  0
   -0.9193   -0.7082   -2.4433 C   0  0  0  0  0  0  0  0  0  0  0  0
   -1.5322   -1.9629   -2.5375 C   0  0  0  0  0  0  0  0  0  0  0  0
   -2.3396   -2.2669   -3.6346 C   0  0  0  0  0  0  0  0  0  0  0  0
   -2.5344   -1.3216   -4.6411 C   0  0  0  0  0  0  0  0  0  0  0  0
   -1.9222   -0.0717   -4.5538 C   0  0  0  0  0  0  0  0  0  0  0  0
   -1.1149    0.2361   -3.4573 C   0  0  0  0  0  0  0  0  0  0  0  0
   -0.4460   -0.2330    0.0789 C   0  0  0  0  0  0  0  0  0  0  0  0
   -1.6437   -0.2771    0.8334 C   0  0  0  0  0  0  0  0  0  0  0  0
   -2.8929   -0.5179    0.2240 N   0  0  0  0  0  0  0  0  0  0  0  0
   -4.1440   -0.2941    0.8099 N   0  0  0  0  0  0  0  0  0  0  0  0
   -4.4674    1.1034    1.0986 C   0  0  0  0  0  0  0  0  0  0  0  0
   -4.3639    1.5037    2.5753 C   0  0  0  0  0  0  0  0  0  0  0  0
   -5.0550    0.5739    3.4186 O   0  0  0  0  0  0  0  0  0  0  0  0
   -4.4582   -0.7235    3.2927 C   0  0  0  0  0  0  0  0  0  0  0  0
   -4.5279   -1.2479    1.8515 C   0  0  0  0  0  0  0  0  0  0  0  0
   -1.5485   -0.0895    2.1706 N   0  0  0  0  0  0  0  0  0  0  0  0
   -0.3498    0.1555    2.7148 C   0  0  0  0  0  0  0  0  0  0  0  0
    0.8277    0.2401    2.0927 N   0  0  0  0  0  0  0  0  0  0  0  0
    0.7413    0.0280    0.7648 C   0  0  0  0  0  0  0  0  0  0  0  0
    4.0922    0.5015   -0.9541 C   0  0  0  0  0  0  0  0  0  0  0  0
    5.4572    0.7291   -0.7188 C   0  0  0  0  0  0  0  0  0  0  0  0
    8.2555    0.3008   -0.7586 H   0  0  0  0  0  0  0  0  0  0  0  0
    9.1739    1.3215    0.3549 H   0  0  0  0  0  0  0  0  0  0  0  0
    7.9469    2.0789   -0.6680 H   0  0  0  0  0  0  0  0  0  0  0  0
    5.4470    0.5507    2.6604 H   0  0  0  0  0  0  0  0  0  0  0  0
    3.0913    0.1406    2.2848 H   0  0  0  0  0  0  0  0  0  0  0  0
    1.8809   -0.2610   -2.2831 H   0  0  0  0  0  0  0  0  0  0  0  0
   -1.3881   -2.7095   -1.7590 H   0  0  0  0  0  0  0  0  0  0  0  0
   -2.8170   -3.2414   -3.7037 H   0  0  0  0  0  0  0  0  0  0  0  0
   -3.1640   -1.5600   -5.4949 H   0  0  0  0  0  0  0  0  0  0  0  0
   -2.0753    0.6640   -5.3394 H   0  0  0  0  0  0  0  0  0  0  0  0
   -0.6482    1.2167   -3.3974 H   0  0  0  0  0  0  0  0  0  0  0  0
   -2.8641   -0.4144   -0.7886 H   0  0  0  0  0  0  0  0  0  0  0  0
   -5.5144    1.2403    0.7982 H   0  0  0  0  0  0  0  0  0  0  0  0
   -3.8859    1.7951    0.4769 H   0  0  0  0  0  0  0  0  0  0  0  0
   -3.3260    1.5982    2.9079 H   0  0  0  0  0  0  0  0  0  0  0  0
   -4.8345    2.4822    2.7186 H   0  0  0  0  0  0  0  0  0  0  0  0
   -5.0154   -1.4000    3.9497 H   0  0  0  0  0  0  0  0  0  0  0  0
   -3.4342   -0.6881    3.6743 H   0  0  0  0  0  0  0  0  0  0  0  0
   -3.9772   -2.1927    1.7665 H   0  0  0  0  0  0  0  0  0  0  0  0
   -5.5781   -1.4993    1.6535 H   0  0  0  0  0  0  0  0  0  0  0  0
   -0.3371    0.3056    3.7899 H   0  0  0  0  0  0  0  0  0  0  0  0
    3.7694    0.5191   -1.9903 H   0  0  0  0  0  0  0  0  0  0  0  0
    6.1007    0.8903   -1.5775 H   0  0  0  0  0  0  0  0  0  0  0  0
  1  2  1  0
  2  3  1  0
  3  4  2  0
  4  5  1  0
  5  6  2  0
  6  7  1  0
  7  8  1  0
  8  9  2  0
  9 10  1  0
 10 11  2  0
 11 12  1  0
 12 13  2  0
 13 14  1  0
 14 15  2  0
  9 16  1  0
 16 17  2  0
 17 18  1  0
 18 19  1  0
 19 20  1  0
 20 21  1  0
 21 22  1  0
 22 23  1  0
 23 24  1  0
 17 25  1  0
 25 26  2  0
 26 27  1  0
 27 28  2  0
  6 29  1  0
 29 30  2  0
 30  3  1  0
 28  7  1  0
 15 10  1  0
 28 16  1  0
 24 19  1  0
  1 31  1  0
  1 32  1  0
  1 33  1  0
  4 34  1  0
  5 35  1  0
  8 36  1  0
 11 37  1  0
 12 38  1  0
 13 39  1  0
 14 40  1  0
 15 41  1  0
 18 42  1  0
 20 43  1  0
 20 44  1  0
 21 45  1  0
 21 46  1  0
 23 47  1  0
 23 48  1  0
 24 49  1  0
 24 50  1  0
 26 51  1  0
 29 52  1  0
 30 53  1  0
M  END
$$$$
