
     RDKit          3D

 54 56  0  0  0  0  0  0  0  0999 V2000
    8.1539    2.6996   -1.2498 C   0  0  0  0  0  0  0  0  0  0  0  0
    7.7303    1.3902   -0.8936 O   0  0  0  0  0  0  0  0  0  0  0  0
    6.4708    1.2679   -0.3745 C   0  0  0  0  0  0  0  0  0  0  0  0
    6.1022   -0.0357   -0.0369 C   0  0  0  0  0  0  0  0  0  0  0  0
    4.8424   -0.3028    0.5040 C   0  0  0  0  0  0  0  0  0  0  0  0
    3.9275    0.7355    0.7194 C   0  0  0  0  0  0  0  0  0  0  0  0
    2.5645    0.4452    1.3015 C   0  0  0  0  0  0  0  0  0  0  0  0
    1.7412   -0.3011    0.3500 N   0  0  0  0  0  0  0  0  0  0  0  0
    0.3927   -0.5169    0.8753 C   0  0  0  0  0  0  0  0  0  0  0  0
   -0.4303   -1.3191   -0.1411 C   0  0  0  0  0  0  0  0  0  0  0  0
   -1.8464   -1.6651    0.3838 C   0  0  0  0  0  0  0  0  0  0  0  0
   -2.5980   -2.7029   -0.4553 C   0  0  0  0  0  0  0  0  0  0  0  0
   -2.3258   -2.9291   -1.8156 C   0  0  0  0  0  0  0  0  0  0  0  0
   -3.0513   -3.8792   -2.5392 C   0  0  0  0  0  0  0  0  0  0  0  0
   -4.0555   -4.6035   -1.9111 C   0  0  0  0  0  0  0  0  0  0  0  0
   -4.7499   -5.5120   -2.6088 F   0  0  0  0  0  0  0  0  0  0  0  0
   -4.3517   -4.3961   -0.5715 C   0  0  0  0  0  0  0  0  0  0  0  0
   -3.6274   -3.4482    0.1534 C   0  0  0  0  0  0  0  0  0  0  0  0
   -2.6887   -0.4119    0.6057 C   0  0  0  0  0  0  0  0  0  0  0  0
   -3.0885   -0.0549    1.9011 C   0  0  0  0  0  0  0  0  0  0  0  0
   -3.8517    1.0953    2.1160 C   0  0  0  0  0  0  0  0  0  0  0  0
   -4.2348    1.9081    1.0479 C   0  0  0  0  0  0  0  0  0  0  0  0
   -4.9788    3.0006    1.3986 O   0  0  0  0  0  0  0  0  0  0  0  0
   -5.4278    3.8379    0.3406 C   0  0  0  0  0  0  0  0  0  0  0  0
   -3.8453    1.5597   -0.2442 C   0  0  0  0  0  0  0  0  0  0  0  0
   -3.0786    0.4091   -0.4632 C   0  0  0  0  0  0  0  0  0  0  0  0
    4.2990    2.0415    0.3736 C   0  0  0  0  0  0  0  0  0  0  0  0
    5.5629    2.3065   -0.1680 C   0  0  0  0  0  0  0  0  0  0  0  0
    9.1726    2.6261   -1.6427 H   0  0  0  0  0  0  0  0  0  0  0  0
    8.1815    3.3574   -0.3749 H   0  0  0  0  0  0  0  0  0  0  0  0
    7.5219    3.1179   -2.0401 H   0  0  0  0  0  0  0  0  0  0  0  0
    6.8008   -0.8527   -0.1993 H   0  0  0  0  0  0  0  0  0  0  0  0
    4.5708   -1.3272    0.7501 H   0  0  0  0  0  0  0  0  0  0  0  0
    2.0739    1.3881    1.5741 H   0  0  0  0  0  0  0  0  0  0  0  0
    2.6968   -0.1277    2.2278 H   0  0  0  0  0  0  0  0  0  0  0  0
    1.6936    0.2266   -0.5213 H   0  0  0  0  0  0  0  0  0  0  0  0
    0.4460   -1.0726    1.8189 H   0  0  0  0  0  0  0  0  0  0  0  0
   -0.0861    0.4486    1.0728 H   0  0  0  0  0  0  0  0  0  0  0  0
   -0.4882   -0.7562   -1.0818 H   0  0  0  0  0  0  0  0  0  0  0  0
    0.1050   -2.2526   -0.3640 H   0  0  0  0  0  0  0  0  0  0  0  0
   -1.6864   -2.1476    1.3601 H   0  0  0  0  0  0  0  0  0  0  0  0
   -1.5507   -2.3718   -2.3349 H   0  0  0  0  0  0  0  0  0  0  0  0
   -2.8393   -4.0561   -3.5888 H   0  0  0  0  0  0  0  0  0  0  0  0
   -5.1443   -4.9679   -0.1004 H   0  0  0  0  0  0  0  0  0  0  0  0
   -3.8744   -3.2866    1.2011 H   0  0  0  0  0  0  0  0  0  0  0  0
   -2.8105   -0.6666    2.7564 H   0  0  0  0  0  0  0  0  0  0  0  0
   -4.1540    1.3595    3.1266 H   0  0  0  0  0  0  0  0  0  0  0  0
   -6.0793    3.2899   -0.3481 H   0  0  0  0  0  0  0  0  0  0  0  0
   -6.0166    4.6476    0.7821 H   0  0  0  0  0  0  0  0  0  0  0  0
   -4.5833    4.2911   -0.1890 H   0  0  0  0  0  0  0  0  0  0  0  0
   -4.1219    2.1574   -1.1060 H   0  0  0  0  0  0  0  0  0  0  0  0
   -2.7949    0.1559   -1.4825 H   0  0  0  0  0  0  0  0  0  0  0  0
    3.6063    2.8666    0.5234 H   0  0  0  0  0  0  0  0  0  0  0  0
    5.8040    3.3341   -0.4176 H   0  0  0  0  0  0  0  0  0  0  0  0
  1  2  1  0
  2  3  1  0
  3  4  2  0
  4  5  1  0
  5  6  2  0
  6  7  1  0
  7  8  1  0
  8  9  1  0
  9 10  1  0
 10 11  1  0
 11 12  1  0
 12 13  2  0
 13 14  1  0
 14 15  2  0
 15 16  1  0
 15 17  1  0
 17 18  2  0
 11 19  1  0
 19 20  2  0
 20 21  1  0
 21 22  2  0
 22 23  1  0
 23 24  1  0
 22 25  1  0
 25 26  2  0
  6 27  1  0
 27 28  2  0
 28  3  1  0
 18 12  1  0
 26 19  1  0
  1 29  1  0
  1 30  1  0
  1 31  1  0
  4 32  1  0
  5 33  1  0
  7 34  1  0
  7 35  1  0
  8 36  1  0
  9 37  1  0
  9 38  1  0
 10 39  1  0
 10 40  1  0
 11 41  1  0
 13 42  1  0
 14 43  1  0
 17 44  1  0
 18 45  1  0
 20 46  1  0
 21 47  1  0
 24 48  1  0
 24 49  1  0
 24 50  1  0
 25 51  1  0
 26 52  1  0
 27 53  1  0
 28 54  1  0
M  END
$$$$
