
     RDKit          3D

 34 36  0  0  0  0  0  0  0  0999 V2000
   -5.0215    1.8201    0.6724 C   0  0  0  0  0  0  0  0  0  0  0  0
   -3.9289    0.9273    0.1953 C   0  0  0  0  0  0  0  0  0  0  0  0
   -2.5699    1.1437    0.2245 C   0  0  0  0  0  0  0  0  0  0  0  0
   -1.8036    0.0544   -0.3270 C   0  0  0  0  0  0  0  0  0  0  0  0
   -0.2845    0.0958   -0.4022 C   0  0  0  0  0  0  0  0  0  0  0  0
    0.2623   -0.2729   -1.7637 C   0  0  0  0  0  0  0  0  0  0  0  0
    1.4626    0.5495   -2.1001 C   0  0  0  0  0  0  0  0  0  0  0  0
    1.5268    1.1260   -3.1917 O   0  0  0  0  0  0  0  0  0  0  0  0
    2.5320    0.6672   -1.2809 N   0  0  0  0  0  0  0  0  0  0  0  0
    2.8913    0.1803   -0.0085 C   0  0  0  0  0  0  0  0  0  0  0  0
    4.2264    0.4936    0.3394 C   0  0  0  0  0  0  0  0  0  0  0  0
    4.7996    0.0846    1.5433 C   0  0  0  0  0  0  0  0  0  0  0  0
    4.0458   -0.6523    2.4372 C   0  0  0  0  0  0  0  0  0  0  0  0
    2.7239   -0.9619    2.1219 C   0  0  0  0  0  0  0  0  0  0  0  0
    2.1183   -0.5476    0.9117 C   0  0  0  0  0  0  0  0  0  0  0  0
    0.4106   -1.0524    0.8226 S   0  0  0  0  0  0  0  0  0  0  0  0
   -2.6512   -0.9655   -0.7505 C   0  0  0  0  0  0  0  0  0  0  0  0
   -2.3181   -2.2803   -1.3815 C   0  0  0  0  0  0  0  0  0  0  0  0
   -4.3026   -0.5829   -0.4948 S   0  0  0  0  0  0  0  0  0  0  0  0
   -4.6151    2.7483    1.0878 H   0  0  0  0  0  0  0  0  0  0  0  0
   -5.6923    2.0878   -0.1507 H   0  0  0  0  0  0  0  0  0  0  0  0
   -5.6082    1.3314    1.4573 H   0  0  0  0  0  0  0  0  0  0  0  0
   -2.1304    2.0496    0.6268 H   0  0  0  0  0  0  0  0  0  0  0  0
    0.0238    1.1110   -0.1194 H   0  0  0  0  0  0  0  0  0  0  0  0
   -0.4819   -0.0460   -2.5398 H   0  0  0  0  0  0  0  0  0  0  0  0
    0.5150   -1.3333   -1.8829 H   0  0  0  0  0  0  0  0  0  0  0  0
    3.2395    1.2219   -1.7526 H   0  0  0  0  0  0  0  0  0  0  0  0
    4.8568    1.0625   -0.3430 H   0  0  0  0  0  0  0  0  0  0  0  0
    5.8311    0.3386    1.7732 H   0  0  0  0  0  0  0  0  0  0  0  0
    4.4748   -0.9844    3.3790 H   0  0  0  0  0  0  0  0  0  0  0  0
    2.1529   -1.5361    2.8525 H   0  0  0  0  0  0  0  0  0  0  0  0
   -2.0486   -2.1354   -2.4327 H   0  0  0  0  0  0  0  0  0  0  0  0
   -1.4783   -2.7610   -0.8723 H   0  0  0  0  0  0  0  0  0  0  0  0
   -3.1586   -2.9817   -1.3447 H   0  0  0  0  0  0  0  0  0  0  0  0
  1  2  1  0
  2  3  2  0
  3  4  1  0
  4  5  1  0
  5  6  1  0
  6  7  1  0
  7  8  2  0
  7  9  1  0
  9 10  1  0
 10 11  2  0
 11 12  1  0
 12 13  2  0
 13 14  1  0
 14 15  2  0
 15 16  1  0
  4 17  2  0
 17 18  1  0
 17 19  1  0
 19  2  1  0
 16  5  1  0
 15 10  1  0
  1 20  1  0
  1 21  1  0
  1 22  1  0
  3 23  1  0
  5 24  1  0
  6 25  1  0
  6 26  1  0
  9 27  1  0
 11 28  1  0
 12 29  1  0
 13 30  1  0
 14 31  1  0
 18 32  1  0
 18 33  1  0
 18 34  1  0
M  END
$$$$
