
     RDKit          3D

 53 56  0  0  0  0  0  0  0  0999 V2000
    6.6793    1.6827    0.6291 C   0  0  0  0  0  0  0  0  0  0  0  0
    5.7023    0.6606    0.1304 C   0  0  0  0  0  0  0  0  0  0  0  0
    4.3439    0.9052    0.1884 C   0  0  0  0  0  0  0  0  0  0  0  0
    3.4812   -0.0743   -0.3065 C   0  0  0  0  0  0  0  0  0  0  0  0
    2.0268    0.1944   -0.2217 C   0  0  0  0  0  0  0  0  0  0  0  0
    1.3732    0.2477   -1.2532 O   0  0  0  0  0  0  0  0  0  0  0  0
    1.5677    0.3303    1.0753 N   0  0  0  0  0  0  0  0  0  0  0  0
    0.2553    0.6425    1.4833 C   0  0  0  0  0  0  0  0  0  0  0  0
   -0.0293    0.5447    2.8478 C   0  0  0  0  0  0  0  0  0  0  0  0
   -1.3092    0.8276    3.3335 C   0  0  0  0  0  0  0  0  0  0  0  0
   -2.3410    1.2175    2.4673 C   0  0  0  0  0  0  0  0  0  0  0  0
   -3.6901    1.5249    3.0553 C   0  0  0  0  0  0  0  0  0  0  0  0
   -2.0424    1.3389    1.0969 C   0  0  0  0  0  0  0  0  0  0  0  0
   -3.2673    1.8914   -0.0818 S   0  0  0  0  0  6  0  0  0  0  0  0
   -3.9935    2.9941    0.5117 O   0  0  0  0  0  0  0  0  0  0  0  0
   -2.6468    2.0351   -1.3821 O   0  0  0  0  0  0  0  0  0  0  0  0
   -4.3197    0.5519   -0.1836 N   0  0  0  0  0  0  0  0  0  0  0  0
   -3.7337   -0.6915   -0.7887 C   0  0  0  0  0  0  0  0  0  0  0  0
   -4.2781   -0.9297   -2.2003 C   0  0  0  0  0  0  0  0  0  0  0  0
   -5.7008   -1.1183   -2.2249 O   0  0  0  0  0  0  0  0  0  0  0  0
   -6.3887   -0.3712   -1.2107 C   0  0  0  0  0  0  0  0  0  0  0  0
   -5.6472    0.9004   -0.7885 C   0  0  0  0  0  0  0  0  0  0  0  0
   -0.7522    1.0554    0.6126 C   0  0  0  0  0  0  0  0  0  0  0  0
    3.9752   -1.2722   -0.8652 C   0  0  0  0  0  0  0  0  0  0  0  0
    3.1711   -2.3126   -1.3963 C   0  0  0  0  0  0  0  0  0  0  0  0
    3.7458   -3.4698   -1.9176 C   0  0  0  0  0  0  0  0  0  0  0  0
    5.1264   -3.6063   -1.9149 C   0  0  0  0  0  0  0  0  0  0  0  0
    5.9219   -2.5837   -1.3918 C   0  0  0  0  0  0  0  0  0  0  0  0
    5.3747   -1.4201   -0.8674 C   0  0  0  0  0  0  0  0  0  0  0  0
    6.2091   -0.4850   -0.3771 N   0  0  0  0  0  0  0  0  0  0  0  0
    6.5997    2.6006    0.0382 H   0  0  0  0  0  0  0  0  0  0  0  0
    6.4834    1.9132    1.6812 H   0  0  0  0  0  0  0  0  0  0  0  0
    7.7061    1.3117    0.5486 H   0  0  0  0  0  0  0  0  0  0  0  0
    3.9635    1.8398    0.5881 H   0  0  0  0  0  0  0  0  0  0  0  0
    2.2248    0.1113    1.8149 H   0  0  0  0  0  0  0  0  0  0  0  0
    0.7361    0.2386    3.5569 H   0  0  0  0  0  0  0  0  0  0  0  0
   -1.4942    0.7400    4.4030 H   0  0  0  0  0  0  0  0  0  0  0  0
   -3.8481    2.6064    3.0999 H   0  0  0  0  0  0  0  0  0  0  0  0
   -4.4928    1.0527    2.4830 H   0  0  0  0  0  0  0  0  0  0  0  0
   -3.7723    1.1369    4.0770 H   0  0  0  0  0  0  0  0  0  0  0  0
   -4.0085   -1.5255   -0.1317 H   0  0  0  0  0  0  0  0  0  0  0  0
   -2.6419   -0.6520   -0.8175 H   0  0  0  0  0  0  0  0  0  0  0  0
   -4.0363   -0.0894   -2.8612 H   0  0  0  0  0  0  0  0  0  0  0  0
   -3.8238   -1.8268   -2.6327 H   0  0  0  0  0  0  0  0  0  0  0  0
   -7.3783   -0.1193   -1.6048 H   0  0  0  0  0  0  0  0  0  0  0  0
   -6.5369   -1.0345   -0.3503 H   0  0  0  0  0  0  0  0  0  0  0  0
   -5.4990    1.5433   -1.6645 H   0  0  0  0  0  0  0  0  0  0  0  0
   -6.2417    1.4402   -0.0440 H   0  0  0  0  0  0  0  0  0  0  0  0
   -0.5506    1.1765   -0.4483 H   0  0  0  0  0  0  0  0  0  0  0  0
    2.0863   -2.2202   -1.4181 H   0  0  0  0  0  0  0  0  0  0  0  0
    3.1165   -4.2554   -2.3281 H   0  0  0  0  0  0  0  0  0  0  0  0
    5.5903   -4.5013   -2.3209 H   0  0  0  0  0  0  0  0  0  0  0  0
    7.0040   -2.6973   -1.3953 H   0  0  0  0  0  0  0  0  0  0  0  0
  1  2  1  0
  2  3  2  0
  3  4  1  0
  4  5  1  0
  5  6  2  0
  5  7  1  0
  7  8  1  0
  8  9  2  0
  9 10  1  0
 10 11  2  0
 11 12  1  0
 11 13  1  0
 13 14  1  0
 14 15  2  0
 14 16  2  0
 14 17  1  0
 17 18  1  0
 18 19  1  0
 19 20  1  0
 20 21  1  0
 21 22  1  0
 13 23  2  0
  4 24  2  0
 24 25  1  0
 25 26  2  0
 26 27  1  0
 27 28  2  0
 28 29  1  0
 29 30  2  0
 30  2  1  0
 23  8  1  0
 29 24  1  0
 22 17  1  0
  1 31  1  0
  1 32  1  0
  1 33  1  0
  3 34  1  0
  7 35  1  0
  9 36  1  0
 10 37  1  0
 12 38  1  0
 12 39  1  0
 12 40  1  0
 18 41  1  0
 18 42  1  0
 19 43  1  0
 19 44  1  0
 21 45  1  0
 21 46  1  0
 22 47  1  0
 22 48  1  0
 23 49  1  0
 25 50  1  0
 26 51  1  0
 27 52  1  0
 28 53  1  0
M  END
$$$$
