
     RDKit          3D

 51 54  0  0  0  0  0  0  0  0999 V2000
   -1.1033    3.4487    2.0387 O   0  0  0  0  0  0  0  0  0  0  0  0
   -0.8686    2.3235    1.5960 C   0  0  0  0  0  0  0  0  0  0  0  0
    0.4769    1.7459    1.6620 C   0  0  0  0  0  0  0  0  0  0  0  0
    1.2577    1.2121    0.6034 C   0  0  0  0  0  0  0  0  0  0  0  0
    2.4273    0.8082    1.1997 C   0  0  0  0  0  0  0  0  0  0  0  0
    3.6735    0.1570    0.7340 C   0  0  0  0  0  0  0  0  0  0  0  0
    3.7448    0.3453   -0.6808 O   0  0  0  0  0  0  0  0  0  0  0  0
    4.8506   -0.1473   -1.3171 C   0  0  0  0  0  0  0  0  0  0  0  0
    4.9638    0.2266   -2.6595 C   0  0  0  0  0  0  0  0  0  0  0  0
    6.0383   -0.2118   -3.4337 C   0  0  0  0  0  0  0  0  0  0  0  0
    7.0097   -1.0353   -2.8673 C   0  0  0  0  0  0  0  0  0  0  0  0
    6.9173   -1.4194   -1.5197 C   0  0  0  0  0  0  0  0  0  0  0  0
    7.9611   -2.3299   -0.9204 C   0  0  0  0  0  0  0  0  0  0  0  0
    7.9777   -2.3047    0.4424 F   0  0  0  0  0  0  0  0  0  0  0  0
    9.2269   -2.0155   -1.3139 F   0  0  0  0  0  0  0  0  0  0  0  0
    7.7711   -3.6330   -1.2668 F   0  0  0  0  0  0  0  0  0  0  0  0
    5.8250   -0.9732   -0.7515 C   0  0  0  0  0  0  0  0  0  0  0  0
    2.3607    1.0812    2.5297 O   0  0  0  0  0  0  0  0  0  0  0  0
    1.1497    1.6769    2.8223 N   0  0  0  0  0  0  0  0  0  0  0  0
   -1.8713    1.5565    0.9795 N   0  0  0  0  0  0  0  0  0  0  0  0
   -1.7631    0.1132    0.7575 C   0  0  0  0  0  0  0  0  0  0  0  0
   -3.1080   -0.5908    0.9078 C   0  0  0  0  0  0  0  0  0  0  0  0
   -4.1429   -0.0276   -0.0810 C   0  0  0  0  0  0  0  0  0  0  0  0
   -5.5471   -0.4513    0.3091 C   0  0  0  0  0  0  0  0  0  0  0  0
   -6.2320   -1.3979   -0.4621 C   0  0  0  0  0  0  0  0  0  0  0  0
   -7.5097   -1.7788   -0.0791 C   0  0  0  0  0  0  0  0  0  0  0  0
   -8.1442   -1.2922    1.0078 N   0  0  0  0  0  0  0  0  0  0  0  0
   -7.4697   -0.3842    1.7446 C   0  0  0  0  0  0  0  0  0  0  0  0
   -6.1906    0.0603    1.4427 C   0  0  0  0  0  0  0  0  0  0  0  0
   -4.0018    1.4954   -0.2813 C   0  0  0  0  0  0  0  0  0  0  0  0
   -3.1891    2.1661    0.8221 C   0  0  0  0  0  0  0  0  0  0  0  0
    1.0040    1.1429   -0.4433 H   0  0  0  0  0  0  0  0  0  0  0  0
    4.5393    0.6203    1.2231 H   0  0  0  0  0  0  0  0  0  0  0  0
    3.6230   -0.9115    0.9762 H   0  0  0  0  0  0  0  0  0  0  0  0
    4.2091    0.8712   -3.1076 H   0  0  0  0  0  0  0  0  0  0  0  0
    6.1165    0.0903   -4.4766 H   0  0  0  0  0  0  0  0  0  0  0  0
    7.8442   -1.3762   -3.4792 H   0  0  0  0  0  0  0  0  0  0  0  0
    5.7635   -1.2934    0.2863 H   0  0  0  0  0  0  0  0  0  0  0  0
   -1.3722   -0.0310   -0.2564 H   0  0  0  0  0  0  0  0  0  0  0  0
   -1.0510   -0.3254    1.4632 H   0  0  0  0  0  0  0  0  0  0  0  0
   -2.9869   -1.6691    0.7443 H   0  0  0  0  0  0  0  0  0  0  0  0
   -3.4510   -0.4732    1.9448 H   0  0  0  0  0  0  0  0  0  0  0  0
   -3.9283   -0.4773   -1.0615 H   0  0  0  0  0  0  0  0  0  0  0  0
   -5.7875   -1.8396   -1.3483 H   0  0  0  0  0  0  0  0  0  0  0  0
   -8.0720   -2.5094   -0.6558 H   0  0  0  0  0  0  0  0  0  0  0  0
   -7.9988   -0.0103    2.6175 H   0  0  0  0  0  0  0  0  0  0  0  0
   -5.7148    0.7878    2.0929 H   0  0  0  0  0  0  0  0  0  0  0  0
   -4.9765    1.9863   -0.3844 H   0  0  0  0  0  0  0  0  0  0  0  0
   -3.4756    1.6650   -1.2321 H   0  0  0  0  0  0  0  0  0  0  0  0
   -3.0728    3.2324    0.5952 H   0  0  0  0  0  0  0  0  0  0  0  0
   -3.7028    2.0964    1.7878 H   0  0  0  0  0  0  0  0  0  0  0  0
  1  2  2  0
  2  3  1  0
  3  4  1  0
  4  5  2  0
  5  6  1  0
  6  7  1  0
  7  8  1  0
  8  9  2  0
  9 10  1  0
 10 11  2  0
 11 12  1  0
 12 13  1  0
 13 14  1  0
 13 15  1  0
 13 16  1  0
 12 17  2  0
  5 18  1  0
 18 19  1  0
  2 20  1  0
 20 21  1  0
 21 22  1  0
 22 23  1  0
 23 24  1  0
 24 25  2  0
 25 26  1  0
 26 27  2  0
 27 28  1  0
 28 29  2  0
 23 30  1  0
 30 31  1  0
 19  3  2  0
 31 20  1  0
 17  8  1  0
 29 24  1  0
  4 32  1  0
  6 33  1  0
  6 34  1  0
  9 35  1  0
 10 36  1  0
 11 37  1  0
 17 38  1  0
 21 39  1  0
 21 40  1  0
 22 41  1  0
 22 42  1  0
 23 43  1  0
 25 44  1  0
 26 45  1  0
 28 46  1  0
 29 47  1  0
 30 48  1  0
 30 49  1  0
 31 50  1  0
 31 51  1  0
M  END
$$$$
