
     RDKit          3D

 45 46  0  0  0  0  0  0  0  0999 V2000
   -8.2334   -0.5704    0.8185 C   0  0  0  0  0  0  0  0  0  0  0  0
   -6.7432   -0.7823    0.6204 C   0  0  0  0  0  0  0  0  0  0  0  0
   -6.2779    0.2019   -0.3017 O   0  0  0  0  0  0  0  0  0  0  0  0
   -4.9471    0.1792   -0.6153 C   0  0  0  0  0  0  0  0  0  0  0  0
   -4.0006   -0.7158   -0.1188 C   0  0  0  0  0  0  0  0  0  0  0  0
   -2.6649   -0.6241   -0.5255 C   0  0  0  0  0  0  0  0  0  0  0  0
   -2.2576    0.3611   -1.4359 C   0  0  0  0  0  0  0  0  0  0  0  0
   -0.8113    0.4699   -1.8426 C   0  0  0  0  0  0  0  0  0  0  0  0
   -0.0466    1.1510   -0.8232 N   0  0  0  0  0  0  0  0  0  0  0  0
    0.6944    0.4611    0.0885 C   0  0  0  0  0  0  0  0  0  0  0  0
    0.8917   -0.7412    0.0421 O   0  0  0  0  0  0  0  0  0  0  0  0
    1.2108    1.2850    1.0717 N   0  0  0  0  0  0  0  0  0  0  0  0
    2.1036    0.7717    2.3744 S   0  0  0  0  0  6  0  0  0  0  0  0
    1.4042   -0.2931    3.0568 O   0  0  0  0  0  0  0  0  0  0  0  0
    2.4699    1.9841    3.0805 O   0  0  0  0  0  0  0  0  0  0  0  0
    3.5834    0.1263    1.6375 C   0  0  0  0  0  0  0  0  0  0  0  0
    4.6556    0.9839    1.3735 C   0  0  0  0  0  0  0  0  0  0  0  0
    5.8372    0.4721    0.8259 C   0  0  0  0  0  0  0  0  0  0  0  0
    5.9509   -0.8930    0.5519 C   0  0  0  0  0  0  0  0  0  0  0  0
    7.0446   -1.5169    0.0183 O   0  0  0  0  0  0  0  0  0  0  0  0
    8.1786   -0.7054   -0.2598 C   0  0  0  0  0  0  0  0  0  0  0  0
    4.8759   -1.7424    0.8342 C   0  0  0  0  0  0  0  0  0  0  0  0
    3.6945   -1.2409    1.3840 C   0  0  0  0  0  0  0  0  0  0  0  0
   -3.2111    1.2608   -1.9261 C   0  0  0  0  0  0  0  0  0  0  0  0
   -4.5443    1.1649   -1.5191 C   0  0  0  0  0  0  0  0  0  0  0  0
   -8.6415   -1.3031    1.5204 H   0  0  0  0  0  0  0  0  0  0  0  0
   -8.7655   -0.6590   -0.1345 H   0  0  0  0  0  0  0  0  0  0  0  0
   -8.4321    0.4358    1.2022 H   0  0  0  0  0  0  0  0  0  0  0  0
   -6.5754   -1.7887    0.2198 H   0  0  0  0  0  0  0  0  0  0  0  0
   -6.2349   -0.6704    1.5851 H   0  0  0  0  0  0  0  0  0  0  0  0
   -4.2632   -1.4960    0.5879 H   0  0  0  0  0  0  0  0  0  0  0  0
   -1.9385   -1.3288   -0.1211 H   0  0  0  0  0  0  0  0  0  0  0  0
   -0.7163    1.0566   -2.7630 H   0  0  0  0  0  0  0  0  0  0  0  0
   -0.3990   -0.5244   -2.0478 H   0  0  0  0  0  0  0  0  0  0  0  0
   -0.3118    2.0968   -0.6041 H   0  0  0  0  0  0  0  0  0  0  0  0
    1.0875    2.2871    1.0473 H   0  0  0  0  0  0  0  0  0  0  0  0
    4.5856    2.0462    1.5965 H   0  0  0  0  0  0  0  0  0  0  0  0
    6.6506    1.1633    0.6311 H   0  0  0  0  0  0  0  0  0  0  0  0
    7.9457    0.0520   -1.0155 H   0  0  0  0  0  0  0  0  0  0  0  0
    8.5693   -0.2460    0.6542 H   0  0  0  0  0  0  0  0  0  0  0  0
    8.9610   -1.3527   -0.6676 H   0  0  0  0  0  0  0  0  0  0  0  0
    4.9608   -2.8067    0.6257 H   0  0  0  0  0  0  0  0  0  0  0  0
    2.8688   -1.9168    1.5982 H   0  0  0  0  0  0  0  0  0  0  0  0
   -2.9297    2.0411   -2.6291 H   0  0  0  0  0  0  0  0  0  0  0  0
   -5.2787    1.8660   -1.9089 H   0  0  0  0  0  0  0  0  0  0  0  0
  1  2  1  0
  2  3  1  0
  3  4  1  0
  4  5  2  0
  5  6  1  0
  6  7  2  0
  7  8  1  0
  8  9  1  0
  9 10  1  0
 10 11  2  0
 10 12  1  0
 12 13  1  0
 13 14  2  0
 13 15  2  0
 13 16  1  0
 16 17  2  0
 17 18  1  0
 18 19  2  0
 19 20  1  0
 20 21  1  0
 19 22  1  0
 22 23  2  0
  7 24  1  0
 24 25  2  0
 25  4  1  0
 23 16  1  0
  1 26  1  0
  1 27  1  0
  1 28  1  0
  2 29  1  0
  2 30  1  0
  5 31  1  0
  6 32  1  0
  8 33  1  0
  8 34  1  0
  9 35  1  0
 12 36  1  0
 17 37  1  0
 18 38  1  0
 21 39  1  0
 21 40  1  0
 21 41  1  0
 22 42  1  0
 23 43  1  0
 24 44  1  0
 25 45  1  0
M  END
$$$$
