
     RDKit          3D

 32 34  0  0  0  0  0  0  0  0999 V2000
    2.5108   -5.0926   -2.0294 N   0  0  0  0  0  0  0  0  0  0  0  0
    2.1701   -4.0419   -1.6721 C   0  0  0  0  0  0  0  0  0  0  0  0
    1.6891   -2.7662   -1.2702 C   0  0  0  0  0  0  0  0  0  0  0  0
    0.4941   -2.3209   -1.6871 C   0  0  0  0  0  0  0  0  0  0  0  0
   -0.0135   -1.0311   -1.2807 C   0  0  0  0  0  0  0  0  0  0  0  0
   -1.3477   -0.5773   -1.7865 C   0  0  0  0  0  0  0  0  0  0  0  0
   -1.7398   -0.9240   -2.8987 O   0  0  0  0  0  0  0  0  0  0  0  0
   -2.1968    0.3209   -0.9700 C   0  0  0  0  0  0  0  0  0  0  0  0
   -2.8290    1.3823   -1.6277 C   0  0  0  0  0  0  0  0  0  0  0  0
   -3.6427    2.2450   -0.9049 C   0  0  0  0  0  0  0  0  0  0  0  0
   -4.2380    3.2686   -1.5294 F   0  0  0  0  0  0  0  0  0  0  0  0
   -3.8495    2.0645    0.4589 C   0  0  0  0  0  0  0  0  0  0  0  0
   -3.2418    0.9940    1.1165 C   0  0  0  0  0  0  0  0  0  0  0  0
   -2.4230    0.1185    0.3993 C   0  0  0  0  0  0  0  0  0  0  0  0
   -1.8625   -0.9515    1.0379 O   0  0  0  0  0  0  0  0  0  0  0  0
    0.7548   -0.2450   -0.5113 C   0  0  0  0  0  0  0  0  0  0  0  0
    2.0035   -0.6575   -0.0508 N   0  0  0  0  0  0  0  0  0  0  0  0
    2.6613    0.2855    0.7587 C   0  0  0  0  0  0  0  0  0  0  0  0
    2.1507    1.4590    1.0971 N   0  0  0  0  0  0  0  0  0  0  0  0
    3.0313    2.1703    1.8867 C   0  0  0  0  0  0  0  0  0  0  0  0
    4.2211    1.5381    2.1557 C   0  0  0  0  0  0  0  0  0  0  0  0
    4.2347    0.0096    1.3942 S   0  0  0  0  0  0  0  0  0  0  0  0
    2.5371   -1.9169   -0.3664 C   0  0  0  0  0  0  0  0  0  0  0  0
    3.6064   -2.3843    0.0173 O   0  0  0  0  0  0  0  0  0  0  0  0
   -0.1326   -2.9190   -2.3471 H   0  0  0  0  0  0  0  0  0  0  0  0
   -2.6942    1.5416   -2.6941 H   0  0  0  0  0  0  0  0  0  0  0  0
   -4.4919    2.7552    0.9976 H   0  0  0  0  0  0  0  0  0  0  0  0
   -3.4239    0.8566    2.1787 H   0  0  0  0  0  0  0  0  0  0  0  0
   -2.1678   -0.9755    1.9620 H   0  0  0  0  0  0  0  0  0  0  0  0
    0.4202    0.7488   -0.2241 H   0  0  0  0  0  0  0  0  0  0  0  0
    2.7523    3.1551    2.2416 H   0  0  0  0  0  0  0  0  0  0  0  0
    5.0571    1.8900    2.7428 H   0  0  0  0  0  0  0  0  0  0  0  0
  1  2  3  0
  2  3  1  0
  3  4  2  0
  4  5  1  0
  5  6  1  0
  6  7  2  0
  6  8  1  0
  8  9  2  0
  9 10  1  0
 10 11  1  0
 10 12  2  0
 12 13  1  0
 13 14  2  0
 14 15  1  0
  5 16  2  0
 16 17  1  0
 17 18  1  0
 18 19  2  0
 19 20  1  0
 20 21  2  0
 21 22  1  0
 17 23  1  0
 23 24  2  0
 23  3  1  0
 14  8  1  0
 22 18  1  0
  4 25  1  0
  9 26  1  0
 12 27  1  0
 13 28  1  0
 15 29  1  0
 16 30  1  0
 20 31  1  0
 21 32  1  0
M  END
$$$$
