
     RDKit          3D

 38 40  0  0  0  0  0  0  0  0999 V2000
   -2.9734   -1.7375    1.7295 C   0  0  0  0  0  0  0  0  0  0  0  0
   -3.5605   -0.7606    0.7663 C   0  0  0  0  0  0  0  0  0  0  0  0
   -4.9025   -0.4804    0.5940 C   0  0  0  0  0  0  0  0  0  0  0  0
   -5.0083    0.5768   -0.3234 C   0  0  0  0  0  0  0  0  0  0  0  0
   -3.7315    0.9202   -0.7248 C   0  0  0  0  0  0  0  0  0  0  0  0
   -3.3671    1.9208   -1.7693 C   0  0  0  0  0  0  0  0  0  0  0  0
   -2.8252    0.0984   -0.0526 N   0  0  0  0  0  0  0  0  0  0  0  0
   -1.4100    0.1321   -0.1759 C   0  0  0  0  0  0  0  0  0  0  0  0
   -0.7107    1.3316   -0.2290 C   0  0  0  0  0  0  0  0  0  0  0  0
    0.6812    1.3043   -0.3480 C   0  0  0  0  0  0  0  0  0  0  0  0
    1.3632    0.0876   -0.4047 C   0  0  0  0  0  0  0  0  0  0  0  0
    2.7469    0.0516   -0.5403 N   0  0  0  0  0  0  0  0  0  0  0  0
    3.3358   -1.2814   -0.7533 C   0  0  0  0  0  0  0  0  0  0  0  0
    4.8568   -1.1419   -0.9221 C   0  0  0  0  0  0  0  0  0  0  0  0
    5.5210   -0.5647    0.2147 O   0  0  0  0  0  0  0  0  0  0  0  0
    4.6454    0.2033    1.0514 C   0  0  0  0  0  0  0  0  0  0  0  0
    3.5628    0.9708    0.2728 C   0  0  0  0  0  0  0  0  0  0  0  0
    0.6778   -1.0760   -0.3760 N   0  0  0  0  0  0  0  0  0  0  0  0
   -0.6733   -1.0369   -0.2601 C   0  0  0  0  0  0  0  0  0  0  0  0
   -2.7259   -2.6769    1.2267 H   0  0  0  0  0  0  0  0  0  0  0  0
   -2.0799   -1.3393    2.2195 H   0  0  0  0  0  0  0  0  0  0  0  0
   -3.6939   -1.9711    2.5215 H   0  0  0  0  0  0  0  0  0  0  0  0
   -5.7191   -0.9776    1.1028 H   0  0  0  0  0  0  0  0  0  0  0  0
   -5.9235    1.0327   -0.6802 H   0  0  0  0  0  0  0  0  0  0  0  0
   -4.2246    2.1190   -2.4222 H   0  0  0  0  0  0  0  0  0  0  0  0
   -2.5555    1.5637   -2.4103 H   0  0  0  0  0  0  0  0  0  0  0  0
   -3.0797    2.8719   -1.3119 H   0  0  0  0  0  0  0  0  0  0  0  0
   -1.2096    2.2910   -0.1432 H   0  0  0  0  0  0  0  0  0  0  0  0
    1.2224    2.2424   -0.4115 H   0  0  0  0  0  0  0  0  0  0  0  0
    3.1262   -1.9324    0.1052 H   0  0  0  0  0  0  0  0  0  0  0  0
    2.9207   -1.7429   -1.6572 H   0  0  0  0  0  0  0  0  0  0  0  0
    5.0857   -0.5099   -1.7882 H   0  0  0  0  0  0  0  0  0  0  0  0
    5.3090   -2.1222   -1.1031 H   0  0  0  0  0  0  0  0  0  0  0  0
    5.2662    0.9050    1.6176 H   0  0  0  0  0  0  0  0  0  0  0  0
    4.1858   -0.4796    1.7759 H   0  0  0  0  0  0  0  0  0  0  0  0
    4.0422    1.6827   -0.4090 H   0  0  0  0  0  0  0  0  0  0  0  0
    2.9659    1.5410    0.9936 H   0  0  0  0  0  0  0  0  0  0  0  0
   -1.1407   -2.0160   -0.2841 H   0  0  0  0  0  0  0  0  0  0  0  0
  1  2  1  0
  2  3  2  0
  3  4  1  0
  4  5  2  0
  5  6  1  0
  5  7  1  0
  7  8  1  0
  8  9  2  0
  9 10  1  0
 10 11  2  0
 11 12  1  0
 12 13  1  0
 13 14  1  0
 14 15  1  0
 15 16  1  0
 16 17  1  0
 11 18  1  0
 18 19  2  0
  7  2  1  0
 19  8  1  0
 17 12  1  0
  1 20  1  0
  1 21  1  0
  1 22  1  0
  3 23  1  0
  4 24  1  0
  6 25  1  0
  6 26  1  0
  6 27  1  0
  9 28  1  0
 10 29  1  0
 13 30  1  0
 13 31  1  0
 14 32  1  0
 14 33  1  0
 16 34  1  0
 16 35  1  0
 17 36  1  0
 17 37  1  0
 19 38  1  0
M  END
$$$$
