
     RDKit          3D

 49 51  0  0  0  0  0  0  0  0999 V2000
    9.3524   -2.1746    1.1683 N   0  0  0  0  0  0  0  0  0  0  0  0
    8.2053   -2.0160    1.0833 C   0  0  0  0  0  0  0  0  0  0  0  0
    6.7859   -1.8468    0.9824 C   0  0  0  0  0  0  0  0  0  0  0  0
    6.3562   -0.5821    0.7238 N   0  0  0  0  0  0  0  0  0  0  0  0
    5.0092   -0.4228    0.6278 C   0  0  0  0  0  0  0  0  0  0  0  0
    4.0964   -1.4672    0.7742 C   0  0  0  0  0  0  0  0  0  0  0  0
    2.6319   -1.3052    0.6683 C   0  0  0  0  0  0  0  0  0  0  0  0
    1.7626   -2.2009    1.3260 C   0  0  0  0  0  0  0  0  0  0  0  0
    0.3726   -2.0824    1.2282 C   0  0  0  0  0  0  0  0  0  0  0  0
   -0.1778   -1.0627    0.4606 C   0  0  0  0  0  0  0  0  0  0  0  0
    0.6517   -0.1332   -0.1633 C   0  0  0  0  0  0  0  0  0  0  0  0
    2.0425   -0.2740   -0.0892 C   0  0  0  0  0  0  0  0  0  0  0  0
    0.1003    0.8624   -0.9273 O   0  0  0  0  0  0  0  0  0  0  0  0
    0.2630    2.1608   -0.3288 C   0  0  0  0  0  0  0  0  0  0  0  0
   -0.9142    2.5176    0.5814 C   0  0  0  0  0  0  0  0  0  0  0  0
   -2.0611    2.8467   -0.2100 O   0  0  0  0  0  0  0  0  0  0  0  0
   -3.2010    3.1086    0.6183 C   0  0  0  0  0  0  0  0  0  0  0  0
   -4.4407    3.3615   -0.2429 C   0  0  0  0  0  0  0  0  0  0  0  0
   -5.0508    2.1301   -0.6400 O   0  0  0  0  0  0  0  0  0  0  0  0
   -4.5248    1.6152   -1.8660 C   0  0  0  0  0  0  0  0  0  0  0  0
   -4.9053    0.1384   -1.9997 C   0  0  0  0  0  0  0  0  0  0  0  0
   -4.1368   -0.6996   -1.1263 O   0  0  0  0  0  0  0  0  0  0  0  0
   -2.8571   -1.0392   -1.6685 C   0  0  0  0  0  0  0  0  0  0  0  0
   -2.0518   -1.8376   -0.6446 C   0  0  0  0  0  0  0  0  0  0  0  0
   -1.5375   -0.9520    0.3664 O   0  0  0  0  0  0  0  0  0  0  0  0
    4.5472   -2.7234    1.0417 N   0  0  0  0  0  0  0  0  0  0  0  0
    5.8975   -2.8963    1.1399 C   0  0  0  0  0  0  0  0  0  0  0  0
    6.3303   -4.2332    1.4199 C   0  0  0  0  0  0  0  0  0  0  0  0
    6.7002   -5.3097    1.6494 N   0  0  0  0  0  0  0  0  0  0  0  0
    4.6917    0.5982    0.4393 H   0  0  0  0  0  0  0  0  0  0  0  0
    2.1684   -3.0152    1.9259 H   0  0  0  0  0  0  0  0  0  0  0  0
   -0.2733   -2.7876    1.7438 H   0  0  0  0  0  0  0  0  0  0  0  0
    2.6535    0.4228   -0.6573 H   0  0  0  0  0  0  0  0  0  0  0  0
    0.3179    2.8761   -1.1569 H   0  0  0  0  0  0  0  0  0  0  0  0
    1.2043    2.2345    0.2294 H   0  0  0  0  0  0  0  0  0  0  0  0
   -1.1558    1.6857    1.2499 H   0  0  0  0  0  0  0  0  0  0  0  0
   -0.6501    3.3957    1.1811 H   0  0  0  0  0  0  0  0  0  0  0  0
   -3.3746    2.2542    1.2823 H   0  0  0  0  0  0  0  0  0  0  0  0
   -2.9880    4.0013    1.2162 H   0  0  0  0  0  0  0  0  0  0  0  0
   -5.1857    3.8828    0.3667 H   0  0  0  0  0  0  0  0  0  0  0  0
   -4.2178    3.9834   -1.1175 H   0  0  0  0  0  0  0  0  0  0  0  0
   -3.4413    1.7408   -1.9104 H   0  0  0  0  0  0  0  0  0  0  0  0
   -4.9768    2.1837   -2.6856 H   0  0  0  0  0  0  0  0  0  0  0  0
   -4.7898   -0.2017   -3.0352 H   0  0  0  0  0  0  0  0  0  0  0  0
   -5.9544    0.0045   -1.7157 H   0  0  0  0  0  0  0  0  0  0  0  0
   -3.0195   -1.6575   -2.5580 H   0  0  0  0  0  0  0  0  0  0  0  0
   -2.3124   -0.1345   -1.9520 H   0  0  0  0  0  0  0  0  0  0  0  0
   -1.2514   -2.3789   -1.1667 H   0  0  0  0  0  0  0  0  0  0  0  0
   -2.6912   -2.5706   -0.1404 H   0  0  0  0  0  0  0  0  0  0  0  0
  1  2  3  0
  2  3  1  0
  3  4  2  0
  4  5  1  0
  5  6  2  0
  6  7  1  0
  7  8  2  0
  8  9  1  0
  9 10  2  0
 10 11  1  0
 11 12  2  0
 11 13  1  0
 13 14  1  0
 14 15  1  0
 15 16  1  0
 16 17  1  0
 17 18  1  0
 18 19  1  0
 19 20  1  0
 20 21  1  0
 21 22  1  0
 22 23  1  0
 23 24  1  0
 24 25  1  0
  6 26  1  0
 26 27  2  0
 27 28  1  0
 28 29  3  0
 27  3  1  0
 12  7  1  0
 25 10  1  0
  5 30  1  0
  8 31  1  0
  9 32  1  0
 12 33  1  0
 14 34  1  0
 14 35  1  0
 15 36  1  0
 15 37  1  0
 17 38  1  0
 17 39  1  0
 18 40  1  0
 18 41  1  0
 20 42  1  0
 20 43  1  0
 21 44  1  0
 21 45  1  0
 23 46  1  0
 23 47  1  0
 24 48  1  0
 24 49  1  0
M  END
$$$$
