
     RDKit          3D

 39 41  0  0  0  0  0  0  0  0999 V2000
    1.1411   -2.9291    2.3378 O   0  0  0  0  0  0  0  0  0  0  0  0
    1.2428   -2.5774    1.1767 C   0  0  0  0  0  0  0  0  0  0  0  0
    1.7144   -3.3351    0.1171 N   0  0  0  0  0  0  0  0  0  0  0  0
    1.3996   -2.6689   -1.0679 N   0  0  0  0  0  0  0  0  0  0  0  0
    0.9890   -1.3970   -0.6927 C   0  0  0  0  0  0  0  0  0  0  0  0
    0.7656   -0.3890   -1.7279 C   0  0  0  0  0  0  0  0  0  0  0  0
   -0.5047   -0.2833   -2.3093 C   0  0  0  0  0  0  0  0  0  0  0  0
   -0.7528    0.6690   -3.2995 C   0  0  0  0  0  0  0  0  0  0  0  0
    0.2685    1.5192   -3.7215 C   0  0  0  0  0  0  0  0  0  0  0  0
    1.5409    1.4199   -3.1574 C   0  0  0  0  0  0  0  0  0  0  0  0
    1.7841    0.4680   -2.1670 C   0  0  0  0  0  0  0  0  0  0  0  0
    3.0280    0.3749   -1.6031 O   0  0  0  0  0  0  0  0  0  0  0  0
    0.8550   -1.2475    0.6372 C   0  0  0  0  0  0  0  0  0  0  0  0
    0.4748   -0.1179    1.5491 C   0  0  0  0  0  0  0  0  0  0  0  0
    1.3008    1.1379    1.2501 C   0  0  0  0  0  0  0  0  0  0  0  0
    1.1544    2.1094    2.3822 N   0  0  0  0  0  4  0  0  0  0  0  0
    0.5034    3.1389    2.1620 O   0  0  0  0  0  0  0  0  0  0  0  0
    1.7306    1.8343    3.4423 O   0  0  0  0  0  1  0  0  0  0  0  0
   -1.0424    0.0595    1.5778 C   0  0  0  0  0  0  0  0  0  0  0  0
   -1.7246    0.9809    0.7692 C   0  0  0  0  0  0  0  0  0  0  0  0
   -3.1172    1.0848    0.8234 C   0  0  0  0  0  0  0  0  0  0  0  0
   -3.8496    0.2666    1.6792 C   0  0  0  0  0  0  0  0  0  0  0  0
   -3.1914   -0.6603    2.4812 C   0  0  0  0  0  0  0  0  0  0  0  0
   -1.8006   -0.7652    2.4293 C   0  0  0  0  0  0  0  0  0  0  0  0
    1.6337   -4.3446    0.1694 H   0  0  0  0  0  0  0  0  0  0  0  0
    2.1679   -2.6210   -1.7429 H   0  0  0  0  0  0  0  0  0  0  0  0
   -1.3098   -0.9430   -1.9887 H   0  0  0  0  0  0  0  0  0  0  0  0
   -1.7437    0.7451   -3.7413 H   0  0  0  0  0  0  0  0  0  0  0  0
    0.0715    2.2601   -4.4931 H   0  0  0  0  0  0  0  0  0  0  0  0
    2.3221    2.0925   -3.4991 H   0  0  0  0  0  0  0  0  0  0  0  0
    3.6352    0.9646   -2.0824 H   0  0  0  0  0  0  0  0  0  0  0  0
    0.7582   -0.4200    2.5686 H   0  0  0  0  0  0  0  0  0  0  0  0
    1.0070    1.6650    0.3388 H   0  0  0  0  0  0  0  0  0  0  0  0
    2.3735    0.9182    1.1914 H   0  0  0  0  0  0  0  0  0  0  0  0
   -1.1968    1.6359    0.0812 H   0  0  0  0  0  0  0  0  0  0  0  0
   -3.6305    1.8096    0.1965 H   0  0  0  0  0  0  0  0  0  0  0  0
   -4.9321    0.3517    1.7215 H   0  0  0  0  0  0  0  0  0  0  0  0
   -3.7584   -1.3033    3.1496 H   0  0  0  0  0  0  0  0  0  0  0  0
   -1.3076   -1.5030    3.0625 H   0  0  0  0  0  0  0  0  0  0  0  0
  1  2  2  0
  2  3  1  0
  3  4  1  0
  4  5  1  0
  5  6  1  0
  6  7  2  0
  7  8  1  0
  8  9  2  0
  9 10  1  0
 10 11  2  0
 11 12  1  0
  5 13  2  0
 13 14  1  0
 14 15  1  0
 15 16  1  0
 16 17  2  0
 16 18  1  0
 14 19  1  0
 19 20  2  0
 20 21  1  0
 21 22  2  0
 22 23  1  0
 23 24  2  0
 13  2  1  0
 24 19  1  0
 11  6  1  0
  3 25  1  0
  4 26  1  0
  7 27  1  0
  8 28  1  0
  9 29  1  0
 10 30  1  0
 12 31  1  0
 14 32  1  0
 15 33  1  0
 15 34  1  0
 20 35  1  0
 21 36  1  0
 22 37  1  0
 23 38  1  0
 24 39  1  0
M  CHG  2  16   1  18  -1
M  END
$$$$
