
     RDKit          3D

 47 49  0  0  0  0  0  0  0  0999 V2000
   -0.6154    5.0331    0.8160 C   0  0  0  0  0  0  0  0  0  0  0  0
   -1.2564    4.2876   -0.2205 O   0  0  0  0  0  0  0  0  0  0  0  0
   -0.6764    3.0852   -0.4907 C   0  0  0  0  0  0  0  0  0  0  0  0
    0.3492    2.6668    0.0400 O   0  0  0  0  0  0  0  0  0  0  0  0
   -1.4317    2.3701   -1.6051 C   0  0  0  0  0  0  0  0  0  0  0  0
   -1.4857    0.9236   -1.3895 N   0  0  0  0  0  0  0  0  0  0  0  0
   -0.4548    0.0297   -1.6584 C   0  0  0  0  0  0  0  0  0  0  0  0
    0.8813    0.4435   -2.1837 C   0  0  0  0  0  0  0  0  0  0  0  0
    1.9694   -0.1225   -1.2845 C   0  0  0  0  0  0  0  0  0  0  0  0
    2.3642   -1.2736   -1.4697 O   0  0  0  0  0  0  0  0  0  0  0  0
    2.3511    0.7341   -0.2724 N   0  0  0  0  0  0  0  0  0  0  0  0
    3.3498    0.5211    0.6977 C   0  0  0  0  0  0  0  0  0  0  0  0
    4.2439   -0.5517    0.6739 C   0  0  0  0  0  0  0  0  0  0  0  0
    5.2148   -0.6869    1.6732 C   0  0  0  0  0  0  0  0  0  0  0  0
    5.2956    0.2531    2.6968 C   0  0  0  0  0  0  0  0  0  0  0  0
    6.4901    0.0862    3.9228 Cl  0  0  0  0  0  0  0  0  0  0  0  0
    4.4145    1.3298    2.7299 C   0  0  0  0  0  0  0  0  0  0  0  0
    3.4457    1.4632    1.7309 C   0  0  0  0  0  0  0  0  0  0  0  0
   -0.8753   -1.2104   -1.3418 C   0  0  0  0  0  0  0  0  0  0  0  0
   -0.1700   -2.3766   -1.4029 O   0  0  0  0  0  0  0  0  0  0  0  0
   -2.1659   -1.1797   -0.8267 N   0  0  0  0  0  0  0  0  0  0  0  0
   -2.9183   -2.3067   -0.3774 C   0  0  0  0  0  0  0  0  0  0  0  0
   -3.7693   -2.2362    0.7344 C   0  0  0  0  0  0  0  0  0  0  0  0
   -4.4960   -3.3539    1.1651 C   0  0  0  0  0  0  0  0  0  0  0  0
   -4.3732   -4.5632    0.4903 C   0  0  0  0  0  0  0  0  0  0  0  0
   -5.2643   -5.9359    1.0182 Cl  0  0  0  0  0  0  0  0  0  0  0  0
   -3.5247   -4.6653   -0.6055 C   0  0  0  0  0  0  0  0  0  0  0  0
   -2.8004   -3.5452   -1.0301 C   0  0  0  0  0  0  0  0  0  0  0  0
   -2.6003    0.1998   -0.8427 C   0  0  0  0  0  0  0  0  0  0  0  0
   -4.0688    0.8750   -0.4232 S   0  0  0  0  0  0  0  0  0  0  0  0
    0.4068    5.2919    0.5231 H   0  0  0  0  0  0  0  0  0  0  0  0
   -0.6191    4.4679    1.7533 H   0  0  0  0  0  0  0  0  0  0  0  0
   -1.1785    5.9583    0.9665 H   0  0  0  0  0  0  0  0  0  0  0  0
   -0.9436    2.5832   -2.5615 H   0  0  0  0  0  0  0  0  0  0  0  0
   -2.4450    2.7752   -1.6669 H   0  0  0  0  0  0  0  0  0  0  0  0
    1.0091    1.5261   -2.2607 H   0  0  0  0  0  0  0  0  0  0  0  0
    1.0267    0.0500   -3.1966 H   0  0  0  0  0  0  0  0  0  0  0  0
    1.7582    1.5546   -0.1227 H   0  0  0  0  0  0  0  0  0  0  0  0
    4.2183   -1.3000   -0.1122 H   0  0  0  0  0  0  0  0  0  0  0  0
    5.9019   -1.5284    1.6415 H   0  0  0  0  0  0  0  0  0  0  0  0
    4.4733    2.0659    3.5269 H   0  0  0  0  0  0  0  0  0  0  0  0
    2.7630    2.3089    1.7751 H   0  0  0  0  0  0  0  0  0  0  0  0
    0.7806   -2.1896   -1.5476 H   0  0  0  0  0  0  0  0  0  0  0  0
   -3.8501   -1.3293    1.3254 H   0  0  0  0  0  0  0  0  0  0  0  0
   -5.1437   -3.2701    2.0336 H   0  0  0  0  0  0  0  0  0  0  0  0
   -3.4189   -5.6064   -1.1378 H   0  0  0  0  0  0  0  0  0  0  0  0
   -2.1620   -3.6520   -1.9036 H   0  0  0  0  0  0  0  0  0  0  0  0
  1  2  1  0
  2  3  1  0
  3  4  2  0
  3  5  1  0
  5  6  1  0
  6  7  1  0
  7  8  1  0
  8  9  1  0
  9 10  2  0
  9 11  1  0
 11 12  1  0
 12 13  2  0
 13 14  1  0
 14 15  2  0
 15 16  1  0
 15 17  1  0
 17 18  2  0
  7 19  2  0
 19 20  1  0
 19 21  1  0
 21 22  1  0
 22 23  2  0
 23 24  1  0
 24 25  2  0
 25 26  1  0
 25 27  1  0
 27 28  2  0
 21 29  1  0
 29 30  2  0
 29  6  1  0
 18 12  1  0
 28 22  1  0
  1 31  1  0
  1 32  1  0
  1 33  1  0
  5 34  1  0
  5 35  1  0
  8 36  1  0
  8 37  1  0
 11 38  1  0
 13 39  1  0
 14 40  1  0
 17 41  1  0
 18 42  1  0
 20 43  1  0
 23 44  1  0
 24 45  1  0
 27 46  1  0
 28 47  1  0
M  END
$$$$
