
     RDKit          3D

 47 51  0  0  0  0  0  0  0  0999 V2000
   -4.9105   -2.7437    1.3268 C   0  0  0  0  0  0  0  0  0  0  0  0
   -5.0251   -1.4194    0.6635 C   0  0  0  0  0  0  0  0  0  0  0  0
   -3.9748   -0.5873    0.2945 C   0  0  0  0  0  0  0  0  0  0  0  0
   -2.5326   -0.7344    0.4295 C   0  0  0  0  0  0  0  0  0  0  0  0
   -2.0190   -1.7235    0.9418 O   0  0  0  0  0  0  0  0  0  0  0  0
   -1.8417    0.3521   -0.0796 N   0  0  0  0  0  0  0  0  0  0  0  0
   -0.4512    0.5667   -0.1250 C   0  0  0  0  0  0  0  0  0  0  0  0
   -0.0193    1.7644   -0.7023 C   0  0  0  0  0  0  0  0  0  0  0  0
    1.3436    2.0741   -0.7960 C   0  0  0  0  0  0  0  0  0  0  0  0
    2.2995    1.1676   -0.3020 C   0  0  0  0  0  0  0  0  0  0  0  0
    3.6701    1.3396   -0.3277 N   0  0  0  0  0  0  0  0  0  0  0  0
    4.2931    0.3143    0.2130 C   0  0  0  0  0  0  0  0  0  0  0  0
    5.6501    0.2416    0.3132 N   0  0  0  0  0  0  0  0  0  0  0  0
    6.4785    1.2407   -0.3720 C   0  0  0  0  0  0  0  0  0  0  0  0
    7.7299    0.5691   -0.9597 C   0  0  0  0  0  0  0  0  0  0  0  0
    8.5495   -0.0983    0.0120 O   0  0  0  0  0  0  0  0  0  0  0  0
    7.8196   -0.5462    1.1626 C   0  0  0  0  0  0  0  0  0  0  0  0
    6.3565   -0.9152    0.8665 C   0  0  0  0  0  0  0  0  0  0  0  0
    3.2243   -0.9239    0.7824 S   0  0  0  0  0  0  0  0  0  0  0  0
    1.8579   -0.0200    0.2702 C   0  0  0  0  0  0  0  0  0  0  0  0
    0.4903   -0.3428    0.3699 C   0  0  0  0  0  0  0  0  0  0  0  0
   -4.4642    0.5516   -0.2933 O   0  0  0  0  0  0  0  0  0  0  0  0
   -5.8192    0.4536   -0.3025 C   0  0  0  0  0  0  0  0  0  0  0  0
   -6.6910    1.4112   -0.8163 C   0  0  0  0  0  0  0  0  0  0  0  0
   -8.0565    1.1228   -0.7312 C   0  0  0  0  0  0  0  0  0  0  0  0
   -8.5068   -0.0683   -0.1576 C   0  0  0  0  0  0  0  0  0  0  0  0
   -7.6026   -1.0122    0.3509 C   0  0  0  0  0  0  0  0  0  0  0  0
   -6.2226   -0.7427    0.2758 C   0  0  0  0  0  0  0  0  0  0  0  0
   -4.4073   -2.6458    2.2940 H   0  0  0  0  0  0  0  0  0  0  0  0
   -4.3361   -3.4362    0.7032 H   0  0  0  0  0  0  0  0  0  0  0  0
   -5.8929   -3.1913    1.5052 H   0  0  0  0  0  0  0  0  0  0  0  0
   -2.4357    1.0787   -0.4665 H   0  0  0  0  0  0  0  0  0  0  0  0
   -0.7355    2.4842   -1.0923 H   0  0  0  0  0  0  0  0  0  0  0  0
    1.6720    3.0059   -1.2452 H   0  0  0  0  0  0  0  0  0  0  0  0
    6.7735    2.0057    0.3558 H   0  0  0  0  0  0  0  0  0  0  0  0
    5.9416    1.7378   -1.1881 H   0  0  0  0  0  0  0  0  0  0  0  0
    8.3566    1.3131   -1.4616 H   0  0  0  0  0  0  0  0  0  0  0  0
    7.4413   -0.1751   -1.7115 H   0  0  0  0  0  0  0  0  0  0  0  0
    7.8662    0.2499    1.9152 H   0  0  0  0  0  0  0  0  0  0  0  0
    8.3504   -1.4117    1.5718 H   0  0  0  0  0  0  0  0  0  0  0  0
    5.8965   -1.2522    1.8019 H   0  0  0  0  0  0  0  0  0  0  0  0
    6.3254   -1.7366    0.1407 H   0  0  0  0  0  0  0  0  0  0  0  0
    0.2056   -1.2836    0.8263 H   0  0  0  0  0  0  0  0  0  0  0  0
   -6.3255    2.3298   -1.2582 H   0  0  0  0  0  0  0  0  0  0  0  0
   -8.7789    1.8385   -1.1184 H   0  0  0  0  0  0  0  0  0  0  0  0
   -9.5750   -0.2688   -0.1035 H   0  0  0  0  0  0  0  0  0  0  0  0
   -7.9681   -1.9338    0.7939 H   0  0  0  0  0  0  0  0  0  0  0  0
  1  2  1  0
  2  3  2  0
  3  4  1  0
  4  5  2  0
  4  6  1  0
  6  7  1  0
  7  8  2  0
  8  9  1  0
  9 10  2  0
 10 11  1  0
 11 12  2  0
 12 13  1  0
 13 14  1  0
 14 15  1  0
 15 16  1  0
 16 17  1  0
 17 18  1  0
 12 19  1  0
 19 20  1  0
 20 21  2  0
  3 22  1  0
 22 23  1  0
 23 24  2  0
 24 25  1  0
 25 26  2  0
 26 27  1  0
 27 28  2  0
 28  2  1  0
 21  7  1  0
 28 23  1  0
 20 10  1  0
 18 13  1  0
  1 29  1  0
  1 30  1  0
  1 31  1  0
  6 32  1  0
  8 33  1  0
  9 34  1  0
 14 35  1  0
 14 36  1  0
 15 37  1  0
 15 38  1  0
 17 39  1  0
 17 40  1  0
 18 41  1  0
 18 42  1  0
 21 43  1  0
 24 44  1  0
 25 45  1  0
 26 46  1  0
 27 47  1  0
M  END
$$$$
