
     RDKit          3D

 43 45  0  0  0  0  0  0  0  0999 V2000
   -0.4796    4.0223   -1.5254 C   0  0  0  0  0  0  0  0  0  0  0  0
   -0.7267    3.3029   -0.3163 O   0  0  0  0  0  0  0  0  0  0  0  0
   -0.8571    1.9524   -0.4904 C   0  0  0  0  0  0  0  0  0  0  0  0
   -0.7786    1.3818   -1.5706 O   0  0  0  0  0  0  0  0  0  0  0  0
   -1.1293    1.3050    0.8453 C   0  0  0  0  0  0  0  0  0  0  0  0
   -1.0793   -0.1462    0.7838 N   0  0  0  0  0  0  0  0  0  0  0  0
    0.0131   -0.9535    1.0592 C   0  0  0  0  0  0  0  0  0  0  0  0
    1.3685   -0.4351    1.4545 C   0  0  0  0  0  0  0  0  0  0  0  0
    1.8992    0.5492    0.4951 N   0  0  0  0  0  0  0  0  0  0  0  0
    3.1217    1.1843    1.0328 C   0  0  0  0  0  0  0  0  0  0  0  0
    3.7243    2.1692    0.0189 C   0  0  0  0  0  0  0  0  0  0  0  0
    4.0467    1.5104   -1.2114 O   0  0  0  0  0  0  0  0  0  0  0  0
    2.8717    0.9085   -1.7730 C   0  0  0  0  0  0  0  0  0  0  0  0
    2.2429   -0.0987   -0.7969 C   0  0  0  0  0  0  0  0  0  0  0  0
   -0.3021   -2.2330    0.9151 N   0  0  0  0  0  0  0  0  0  0  0  0
   -1.6027   -2.2364    0.5214 C   0  0  0  0  0  0  0  0  0  0  0  0
   -2.1120   -0.9745    0.4386 C   0  0  0  0  0  0  0  0  0  0  0  0
   -3.4511   -0.7148    0.0408 C   0  0  0  0  0  0  0  0  0  0  0  0
   -3.9608    0.3976   -0.0305 O   0  0  0  0  0  0  0  0  0  0  0  0
   -4.1460   -1.8671   -0.2496 N   0  0  0  0  0  0  0  0  0  0  0  0
   -3.6817   -3.1681   -0.1743 C   0  0  0  0  0  0  0  0  0  0  0  0
   -4.4476   -4.0889   -0.4598 O   0  0  0  0  0  0  0  0  0  0  0  0
   -2.3628   -3.3485    0.2289 N   0  0  0  0  0  0  0  0  0  0  0  0
   -1.7911   -4.6770    0.3230 C   0  0  0  0  0  0  0  0  0  0  0  0
    0.4659    3.7028   -1.9742 H   0  0  0  0  0  0  0  0  0  0  0  0
   -0.4031    5.0845   -1.2774 H   0  0  0  0  0  0  0  0  0  0  0  0
   -1.3086    3.8894   -2.2276 H   0  0  0  0  0  0  0  0  0  0  0  0
   -2.1212    1.5978    1.2006 H   0  0  0  0  0  0  0  0  0  0  0  0
   -0.3941    1.6411    1.5820 H   0  0  0  0  0  0  0  0  0  0  0  0
    1.2589    0.0319    2.4420 H   0  0  0  0  0  0  0  0  0  0  0  0
    2.0606   -1.2777    1.5799 H   0  0  0  0  0  0  0  0  0  0  0  0
    3.8691    0.4174    1.2751 H   0  0  0  0  0  0  0  0  0  0  0  0
    2.8837    1.7302    1.9529 H   0  0  0  0  0  0  0  0  0  0  0  0
    4.6507    2.5926    0.4199 H   0  0  0  0  0  0  0  0  0  0  0  0
    3.0385    3.0008   -0.1841 H   0  0  0  0  0  0  0  0  0  0  0  0
    3.1713    0.3956   -2.6924 H   0  0  0  0  0  0  0  0  0  0  0  0
    2.1599    1.6956   -2.0477 H   0  0  0  0  0  0  0  0  0  0  0  0
    2.9547   -0.9170   -0.6254 H   0  0  0  0  0  0  0  0  0  0  0  0
    1.3495   -0.5216   -1.2687 H   0  0  0  0  0  0  0  0  0  0  0  0
   -5.1039   -1.7576   -0.5418 H   0  0  0  0  0  0  0  0  0  0  0  0
   -1.4387   -4.8440    1.3457 H   0  0  0  0  0  0  0  0  0  0  0  0
   -0.9495   -4.7537   -0.3726 H   0  0  0  0  0  0  0  0  0  0  0  0
   -2.5232   -5.4500    0.0740 H   0  0  0  0  0  0  0  0  0  0  0  0
  1  2  1  0
  2  3  1  0
  3  4  2  0
  3  5  1  0
  5  6  1  0
  6  7  1  0
  7  8  1  0
  8  9  1  0
  9 10  1  0
 10 11  1  0
 11 12  1  0
 12 13  1  0
 13 14  1  0
  7 15  2  0
 15 16  1  0
 16 17  2  0
 17 18  1  0
 18 19  2  0
 18 20  1  0
 20 21  1  0
 21 22  2  0
 21 23  1  0
 23 24  1  0
 17  6  1  0
 14  9  1  0
 23 16  1  0
  1 25  1  0
  1 26  1  0
  1 27  1  0
  5 28  1  0
  5 29  1  0
  8 30  1  0
  8 31  1  0
 10 32  1  0
 10 33  1  0
 11 34  1  0
 11 35  1  0
 13 36  1  0
 13 37  1  0
 14 38  1  0
 14 39  1  0
 20 40  1  0
 24 41  1  0
 24 42  1  0
 24 43  1  0
M  END
$$$$
