
     RDKit          3D

 51 55  0  0  0  0  0  0  0  0999 V2000
    3.2917   -3.0729   -0.1720 C   0  0  0  0  0  0  0  0  0  0  0  0
    2.9434   -2.0106    0.8591 C   0  0  0  0  0  0  0  0  0  0  0  0
    2.5594   -0.7605    0.2152 N   0  0  0  0  0  0  0  0  0  0  0  0
    1.2639   -0.3828   -0.1574 C   0  0  0  0  0  0  0  0  0  0  0  0
    0.1433   -1.1151    0.0037 C   0  0  0  0  0  0  0  0  0  0  0  0
   -1.2139   -0.7243   -0.4072 C   0  0  0  0  0  0  0  0  0  0  0  0
   -1.5449   -0.8538   -1.7571 C   0  0  0  0  0  0  0  0  0  0  0  0
   -2.8067   -0.5075   -2.1993 C   0  0  0  0  0  0  0  0  0  0  0  0
   -3.7405   -0.0298   -1.2894 C   0  0  0  0  0  0  0  0  0  0  0  0
   -5.0206    0.3305   -1.7398 C   0  0  0  0  0  0  0  0  0  0  0  0
   -5.9829    0.8282   -0.8576 C   0  0  0  0  0  0  0  0  0  0  0  0
   -7.3578    1.1809   -1.3493 C   0  0  0  0  0  0  0  0  0  0  0  0
   -5.6625    0.9414    0.4932 C   0  0  0  0  0  0  0  0  0  0  0  0
   -4.3898    0.5847    0.9557 C   0  0  0  0  0  0  0  0  0  0  0  0
   -3.3980    0.0911    0.0853 C   0  0  0  0  0  0  0  0  0  0  0  0
   -2.1348   -0.2746    0.4993 N   0  0  0  0  0  4  0  0  0  0  0  0
   -1.7637   -0.1944    1.9451 C   0  0  0  0  0  0  0  0  0  0  0  0
   -1.3188    1.2100    2.3054 C   0  0  0  0  0  0  0  0  0  0  0  0
    1.1645    1.2297   -0.8943 S   0  0  0  0  0  0  0  0  0  0  0  0
    2.9420    1.3726   -0.7437 C   0  0  0  0  0  0  0  0  0  0  0  0
    3.6451    2.4822   -1.1689 C   0  0  0  0  0  0  0  0  0  0  0  0
    5.0234    2.4911   -1.0177 C   0  0  0  0  0  0  0  0  0  0  0  0
    5.6672    1.3680   -0.4535 C   0  0  0  0  0  0  0  0  0  0  0  0
    7.3713    1.2326   -0.2168 S   0  0  0  0  0  0  0  0  0  0  0  0
    7.2304   -0.3299    0.4239 C   0  0  0  0  0  0  0  0  0  0  0  0
    5.9210   -0.7475    0.4704 C   0  0  0  0  0  0  0  0  0  0  0  0
    4.9710    0.2244   -0.0198 C   0  0  0  0  0  0  0  0  0  0  0  0
    3.5462    0.2225   -0.1492 C   0  0  0  0  0  0  0  0  0  0  0  0
    3.5958   -3.9986    0.3264 H   0  0  0  0  0  0  0  0  0  0  0  0
    2.4291   -3.2992   -0.8078 H   0  0  0  0  0  0  0  0  0  0  0  0
    4.1076   -2.7538   -0.8272 H   0  0  0  0  0  0  0  0  0  0  0  0
    2.1186   -2.3855    1.4772 H   0  0  0  0  0  0  0  0  0  0  0  0
    3.7507   -1.8604    1.5795 H   0  0  0  0  0  0  0  0  0  0  0  0
    0.1967   -2.1073    0.4406 H   0  0  0  0  0  0  0  0  0  0  0  0
   -0.8112   -1.2184   -2.4756 H   0  0  0  0  0  0  0  0  0  0  0  0
   -3.0470   -0.6067   -3.2575 H   0  0  0  0  0  0  0  0  0  0  0  0
   -5.2795    0.2287   -2.7948 H   0  0  0  0  0  0  0  0  0  0  0  0
   -8.0032    0.2976   -1.3191 H   0  0  0  0  0  0  0  0  0  0  0  0
   -7.3194    1.5581   -2.3766 H   0  0  0  0  0  0  0  0  0  0  0  0
   -7.8043    1.9670   -0.7313 H   0  0  0  0  0  0  0  0  0  0  0  0
   -6.4044    1.3150    1.1994 H   0  0  0  0  0  0  0  0  0  0  0  0
   -4.2203    0.7214    2.0190 H   0  0  0  0  0  0  0  0  0  0  0  0
   -2.6196   -0.5219    2.5425 H   0  0  0  0  0  0  0  0  0  0  0  0
   -0.9765   -0.9194    2.1676 H   0  0  0  0  0  0  0  0  0  0  0  0
   -1.0905    1.2688    3.3742 H   0  0  0  0  0  0  0  0  0  0  0  0
   -0.4193    1.4960    1.7557 H   0  0  0  0  0  0  0  0  0  0  0  0
   -2.0891    1.9535    2.0826 H   0  0  0  0  0  0  0  0  0  0  0  0
    3.1409    3.3348   -1.6138 H   0  0  0  0  0  0  0  0  0  0  0  0
    5.6044    3.3520   -1.3414 H   0  0  0  0  0  0  0  0  0  0  0  0
    8.1111   -0.8764    0.7340 H   0  0  0  0  0  0  0  0  0  0  0  0
    5.6807   -1.7317    0.8420 H   0  0  0  0  0  0  0  0  0  0  0  0
  1  2  1  0
  2  3  1  0
  3  4  1  0
  4  5  2  3
  5  6  1  0
  6  7  2  0
  7  8  1  0
  8  9  2  0
  9 10  1  0
 10 11  2  0
 11 12  1  0
 11 13  1  0
 13 14  2  0
 14 15  1  0
 15 16  2  0
 16 17  1  0
 17 18  1  0
  4 19  1  0
 19 20  1  0
 20 21  2  0
 21 22  1  0
 22 23  2  0
 23 24  1  0
 24 25  1  0
 25 26  2  0
 26 27  1  0
 27 28  2  0
 28  3  1  0
 16  6  1  0
 28 20  1  0
 15  9  1  0
 27 23  1  0
  1 29  1  0
  1 30  1  0
  1 31  1  0
  2 32  1  0
  2 33  1  0
  5 34  1  0
  7 35  1  0
  8 36  1  0
 10 37  1  0
 12 38  1  0
 12 39  1  0
 12 40  1  0
 13 41  1  0
 14 42  1  0
 17 43  1  0
 17 44  1  0
 18 45  1  0
 18 46  1  0
 18 47  1  0
 21 48  1  0
 22 49  1  0
 25 50  1  0
 26 51  1  0
M  CHG  1  16   1
M  END
$$$$
