
     RDKit          3D

 72 75  0  0  0  0  0  0  0  0999 V2000
   -2.8379    3.2200   -0.6264 C   0  0  0  0  0  0  0  0  0  0  0  0
   -3.5839    2.0028   -0.1593 C   0  0  0  0  0  0  0  0  0  0  0  0
   -3.9949    1.9376    1.1787 C   0  0  0  0  0  0  0  0  0  0  0  0
   -4.7120    0.8387    1.6689 C   0  0  0  0  0  0  0  0  0  0  0  0
   -5.0543   -0.2404    0.8418 C   0  0  0  0  0  0  0  0  0  0  0  0
   -5.8714   -1.4461    1.3401 C   0  0  0  0  0  0  0  0  0  0  0  0
   -7.1955   -1.5287    0.5495 C   0  0  0  0  0  0  0  0  0  0  0  0
   -6.2377   -1.3746    2.8398 C   0  0  0  0  0  0  0  0  0  0  0  0
   -5.0715   -2.7494    1.1271 C   0  0  0  0  0  0  0  0  0  0  0  0
   -4.6353   -0.1749   -0.5007 C   0  0  0  0  0  0  0  0  0  0  0  0
   -3.9082    0.9231   -0.9963 C   0  0  0  0  0  0  0  0  0  0  0  0
   -3.4245    0.8878   -2.7168 S   0  0  0  0  0  6  0  0  0  0  0  0
   -3.8470   -0.3743   -3.2912 O   0  0  0  0  0  0  0  0  0  0  0  0
   -3.8257    2.1420   -3.3168 O   0  0  0  0  0  0  0  0  0  0  0  0
   -1.7157    0.8438   -2.6318 N   0  0  0  0  0  0  0  0  0  0  0  0
   -1.1446   -0.3208   -1.8976 C   0  0  0  0  0  0  0  0  0  0  0  0
    0.3469   -0.4917   -2.1890 C   0  0  0  0  0  0  0  0  0  0  0  0
    1.0224    0.8602   -2.4422 C   0  0  0  0  0  0  0  0  0  0  0  0
    2.5270    0.6482   -2.6083 C   0  0  0  0  0  0  0  0  0  0  0  0
    3.0324    0.5480   -3.7281 O   0  0  0  0  0  0  0  0  0  0  0  0
    3.2841    0.4835   -1.4572 N   0  0  0  0  0  0  0  0  0  0  0  0
    4.6873    0.0788   -1.5848 C   0  0  0  0  0  0  0  0  0  0  0  0
    5.1532   -0.8137   -0.4186 C   0  0  0  0  0  0  0  0  0  0  0  0
    4.8795   -0.2012    0.8976 N   0  0  0  0  0  0  0  0  0  0  0  0
    5.7140   -0.4873    1.9704 C   0  0  0  0  0  0  0  0  0  0  0  0
    5.9826    0.4467    2.9845 C   0  0  0  0  0  0  0  0  0  0  0  0
    6.8204    0.1437    4.0653 C   0  0  0  0  0  0  0  0  0  0  0  0
    7.3960   -1.1125    4.1583 C   0  0  0  0  0  0  0  0  0  0  0  0
    8.2011   -1.3690    5.2275 O   0  0  0  0  0  0  0  0  0  0  0  0
    7.1498   -2.0686    3.1859 C   0  0  0  0  0  0  0  0  0  0  0  0
    6.3161   -1.7507    2.1051 C   0  0  0  0  0  0  0  0  0  0  0  0
    3.9863    0.9640    0.9157 C   0  0  0  0  0  0  0  0  0  0  0  0
    2.8327    0.7928   -0.0931 C   0  0  0  0  0  0  0  0  0  0  0  0
    0.3863    1.5475   -3.6670 C   0  0  0  0  0  0  0  0  0  0  0  0
   -1.0442    1.0793   -3.9326 C   0  0  0  0  0  0  0  0  0  0  0  0
   -1.8595    2.9508   -1.0326 H   0  0  0  0  0  0  0  0  0  0  0  0
   -3.4176    3.7658   -1.3760 H   0  0  0  0  0  0  0  0  0  0  0  0
   -2.6527    3.9140    0.2013 H   0  0  0  0  0  0  0  0  0  0  0  0
   -3.7700    2.7549    1.8624 H   0  0  0  0  0  0  0  0  0  0  0  0
   -5.0047    0.8646    2.7155 H   0  0  0  0  0  0  0  0  0  0  0  0
   -7.0280   -1.6998   -0.5193 H   0  0  0  0  0  0  0  0  0  0  0  0
   -7.8231   -2.3521    0.9106 H   0  0  0  0  0  0  0  0  0  0  0  0
   -7.7717   -0.6005    0.6482 H   0  0  0  0  0  0  0  0  0  0  0  0
   -6.8517   -0.4948    3.0625 H   0  0  0  0  0  0  0  0  0  0  0  0
   -5.3433   -1.3373    3.4731 H   0  0  0  0  0  0  0  0  0  0  0  0
   -6.8138   -2.2563    3.1464 H   0  0  0  0  0  0  0  0  0  0  0  0
   -4.8615   -2.9440    0.0703 H   0  0  0  0  0  0  0  0  0  0  0  0
   -4.1090   -2.7138    1.6512 H   0  0  0  0  0  0  0  0  0  0  0  0
   -5.6256   -3.6157    1.5059 H   0  0  0  0  0  0  0  0  0  0  0  0
   -4.8867   -0.9892   -1.1789 H   0  0  0  0  0  0  0  0  0  0  0  0
   -1.6677   -1.2495   -2.1492 H   0  0  0  0  0  0  0  0  0  0  0  0
   -1.2675   -0.1377   -0.8241 H   0  0  0  0  0  0  0  0  0  0  0  0
    0.4757   -1.1315   -3.0738 H   0  0  0  0  0  0  0  0  0  0  0  0
    0.8176   -1.0361   -1.3631 H   0  0  0  0  0  0  0  0  0  0  0  0
    0.8392    1.5169   -1.5867 H   0  0  0  0  0  0  0  0  0  0  0  0
    5.2824    0.9997   -1.6176 H   0  0  0  0  0  0  0  0  0  0  0  0
    4.8479   -0.4490   -2.5309 H   0  0  0  0  0  0  0  0  0  0  0  0
    6.2251   -1.0046   -0.5532 H   0  0  0  0  0  0  0  0  0  0  0  0
    4.6266   -1.7742   -0.4683 H   0  0  0  0  0  0  0  0  0  0  0  0
    5.5637    1.4484    2.9452 H   0  0  0  0  0  0  0  0  0  0  0  0
    7.0174    0.8906    4.8290 H   0  0  0  0  0  0  0  0  0  0  0  0
    8.4739   -2.2999    5.1914 H   0  0  0  0  0  0  0  0  0  0  0  0
    7.5837   -3.0608    3.2445 H   0  0  0  0  0  0  0  0  0  0  0  0
    6.1209   -2.5284    1.3714 H   0  0  0  0  0  0  0  0  0  0  0  0
    4.5602    1.8666    0.6712 H   0  0  0  0  0  0  0  0  0  0  0  0
    3.5369    1.1004    1.9070 H   0  0  0  0  0  0  0  0  0  0  0  0
    2.2351    1.7089   -0.1021 H   0  0  0  0  0  0  0  0  0  0  0  0
    2.1881   -0.0354    0.2246 H   0  0  0  0  0  0  0  0  0  0  0  0
    0.3827    2.6294   -3.4810 H   0  0  0  0  0  0  0  0  0  0  0  0
    0.9692    1.4082   -4.5836 H   0  0  0  0  0  0  0  0  0  0  0  0
   -1.5583    1.8492   -4.5154 H   0  0  0  0  0  0  0  0  0  0  0  0
   -1.0476    0.1577   -4.5261 H   0  0  0  0  0  0  0  0  0  0  0  0
  1  2  1  0
  2  3  2  0
  3  4  1  0
  4  5  2  0
  5  6  1  0
  6  7  1  0
  6  8  1  0
  6  9  1  0
  5 10  1  0
 10 11  2  0
 11 12  1  0
 12 13  2  0
 12 14  2  0
 12 15  1  0
 15 16  1  0
 16 17  1  0
 17 18  1  0
 18 19  1  0
 19 20  2  0
 19 21  1  0
 21 22  1  0
 22 23  1  0
 23 24  1  0
 24 25  1  0
 25 26  2  0
 26 27  1  0
 27 28  2  0
 28 29  1  0
 28 30  1  0
 30 31  2  0
 24 32  1  0
 32 33  1  0
 18 34  1  0
 34 35  1  0
 11  2  1  0
 35 15  1  0
 33 21  1  0
 31 25  1  0
  1 36  1  0
  1 37  1  0
  1 38  1  0
  3 39  1  0
  4 40  1  0
  7 41  1  0
  7 42  1  0
  7 43  1  0
  8 44  1  0
  8 45  1  0
  8 46  1  0
  9 47  1  0
  9 48  1  0
  9 49  1  0
 10 50  1  0
 16 51  1  0
 16 52  1  0
 17 53  1  0
 17 54  1  0
 18 55  1  0
 22 56  1  0
 22 57  1  0
 23 58  1  0
 23 59  1  0
 26 60  1  0
 27 61  1  0
 29 62  1  0
 30 63  1  0
 31 64  1  0
 32 65  1  0
 32 66  1  0
 33 67  1  0
 33 68  1  0
 34 69  1  0
 34 70  1  0
 35 71  1  0
 35 72  1  0
M  END
$$$$
