
     RDKit          3D

 42 45  0  0  0  0  0  0  0  0999 V2000
   -1.1048   -0.8872    1.0571 O   0  0  0  0  0  0  0  0  0  0  0  0
   -1.5639    0.1797    1.4380 C   0  0  0  0  0  0  0  0  0  0  0  0
   -0.7457    1.3767    1.7971 C   0  0  0  0  0  0  0  0  0  0  0  0
    0.5773    1.5830    1.7318 C   0  0  0  0  0  0  0  0  0  0  0  0
    1.5767    0.6640    1.3157 C   0  0  0  0  0  0  0  0  0  0  0  0
    1.7403   -0.7008    1.5179 C   0  0  0  0  0  0  0  0  0  0  0  0
    2.9515   -1.0982    0.9011 C   0  0  0  0  0  0  0  0  0  0  0  0
    3.4937    0.0410    0.3549 C   0  0  0  0  0  0  0  0  0  0  0  0
    4.7247    0.3309   -0.3680 C   0  0  0  0  0  0  0  0  0  0  0  0
    5.9299   -0.1965    0.1312 C   0  0  0  0  0  0  0  0  0  0  0  0
    7.1467    0.0488   -0.5107 C   0  0  0  0  0  0  0  0  0  0  0  0
    7.1790    0.8223   -1.6666 C   0  0  0  0  0  0  0  0  0  0  0  0
    5.9942    1.3459   -2.1827 C   0  0  0  0  0  0  0  0  0  0  0  0
    4.7715    1.1024   -1.5424 C   0  0  0  0  0  0  0  0  0  0  0  0
    3.3543    1.7506   -2.2977 Cl  0  0  0  0  0  0  0  0  0  0  0  0
    2.6931    1.1038    0.6347 O   0  0  0  0  0  0  0  0  0  0  0  0
   -1.8029    2.6422    2.3394 S   0  0  0  0  0  0  0  0  0  0  0  0
   -3.2518    1.6814    2.1143 C   0  0  0  0  0  0  0  0  0  0  0  0
   -4.7703    2.2720    2.4779 S   0  0  0  0  0  0  0  0  0  0  0  0
   -2.9153    0.4373    1.6320 N   0  0  0  0  0  0  0  0  0  0  0  0
   -3.8888   -0.5895    1.2413 C   0  0  0  0  0  0  0  0  0  0  0  0
   -4.4707   -0.3351   -0.1566 C   0  0  0  0  0  0  0  0  0  0  0  0
   -5.4352   -1.4239   -0.6016 C   0  0  0  0  0  0  0  0  0  0  0  0
   -5.3292   -1.3321   -2.1033 C   0  0  0  0  0  0  0  0  0  0  0  0
   -3.8553   -1.0473   -2.2943 C   0  0  0  0  0  0  0  0  0  0  0  0
   -3.4291   -0.2946   -1.1500 O   0  0  0  0  0  0  0  0  0  0  0  0
    0.9632    2.5704    1.9779 H   0  0  0  0  0  0  0  0  0  0  0  0
    1.0603   -1.3475    2.0548 H   0  0  0  0  0  0  0  0  0  0  0  0
    3.3712   -2.0930    0.8609 H   0  0  0  0  0  0  0  0  0  0  0  0
    5.9300   -0.7951    1.0404 H   0  0  0  0  0  0  0  0  0  0  0  0
    8.0676   -0.3622   -0.1041 H   0  0  0  0  0  0  0  0  0  0  0  0
    8.1237    1.0155   -2.1687 H   0  0  0  0  0  0  0  0  0  0  0  0
    6.0259    1.9411   -3.0923 H   0  0  0  0  0  0  0  0  0  0  0  0
   -3.3919   -1.5665    1.2583 H   0  0  0  0  0  0  0  0  0  0  0  0
   -4.6947   -0.6236    1.9822 H   0  0  0  0  0  0  0  0  0  0  0  0
   -4.9710    0.6389   -0.1965 H   0  0  0  0  0  0  0  0  0  0  0  0
   -6.4510   -1.2689   -0.2274 H   0  0  0  0  0  0  0  0  0  0  0  0
   -5.0947   -2.4122   -0.2697 H   0  0  0  0  0  0  0  0  0  0  0  0
   -5.6610   -2.2339   -2.6242 H   0  0  0  0  0  0  0  0  0  0  0  0
   -5.9246   -0.4860   -2.4664 H   0  0  0  0  0  0  0  0  0  0  0  0
   -3.2721   -1.9739   -2.3198 H   0  0  0  0  0  0  0  0  0  0  0  0
   -3.6509   -0.4799   -3.2065 H   0  0  0  0  0  0  0  0  0  0  0  0
  1  2  2  0
  2  3  1  0
  3  4  2  3
  4  5  1  0
  5  6  2  0
  6  7  1  0
  7  8  2  0
  8  9  1  0
  9 10  2  0
 10 11  1  0
 11 12  2  0
 12 13  1  0
 13 14  2  0
 14 15  1  0
  8 16  1  0
  3 17  1  0
 17 18  1  0
 18 19  2  0
 18 20  1  0
 20 21  1  0
 21 22  1  0
 22 23  1  0
 23 24  1  0
 24 25  1  0
 25 26  1  0
 20  2  1  0
 26 22  1  0
 16  5  1  0
 14  9  1  0
  4 27  1  0
  6 28  1  0
  7 29  1  0
 10 30  1  0
 11 31  1  0
 12 32  1  0
 13 33  1  0
 21 34  1  0
 21 35  1  0
 22 36  1  0
 23 37  1  0
 23 38  1  0
 24 39  1  0
 24 40  1  0
 25 41  1  0
 25 42  1  0
M  END
$$$$
