
     RDKit          3D

 70 75  0  0  0  0  0  0  0  0999 V2000
   -1.6918   -6.5039   -1.9398 C   0  0  0  0  0  0  0  0  0  0  0  0
   -1.4411   -5.0259   -1.9384 C   0  0  0  0  0  0  0  0  0  0  0  0
   -0.2429   -4.5167   -1.4261 C   0  0  0  0  0  0  0  0  0  0  0  0
    0.0054   -3.1421   -1.4355 C   0  0  0  0  0  0  0  0  0  0  0  0
   -0.9349   -2.2497   -1.9655 C   0  0  0  0  0  0  0  0  0  0  0  0
   -0.6812   -0.7556   -1.9521 C   0  0  0  0  0  0  0  0  0  0  0  0
   -1.2494   -0.0988   -0.7751 N   0  0  0  0  0  0  0  0  0  0  0  0
   -2.5889    0.3173   -0.8562 C   0  0  0  0  0  0  0  0  0  0  0  0
   -3.2164    0.3478   -1.9183 O   0  0  0  0  0  0  0  0  0  0  0  0
   -3.2003    0.8315    0.4664 C   0  0  0  0  0  0  0  0  0  0  0  0
   -4.7350    0.8855    0.3587 C   0  0  0  0  0  0  0  0  0  0  0  0
   -5.3884    1.5558    1.5482 C   0  0  0  0  0  0  0  0  0  0  0  0
   -5.9338    0.7863    2.5853 C   0  0  0  0  0  0  0  0  0  0  0  0
   -6.5140    1.4048    3.6937 C   0  0  0  0  0  0  0  0  0  0  0  0
   -6.5549    2.7957    3.7759 C   0  0  0  0  0  0  0  0  0  0  0  0
   -6.0175    3.5701    2.7491 C   0  0  0  0  0  0  0  0  0  0  0  0
   -5.4357    2.9542    1.6396 C   0  0  0  0  0  0  0  0  0  0  0  0
   -2.7985   -0.0427    1.5712 N   0  0  0  0  0  0  0  0  0  0  0  0
   -1.4074   -0.1580    1.6654 C   0  0  0  0  0  0  0  0  0  0  0  0
   -0.9350   -0.2804    2.9123 N   0  0  0  0  0  0  0  0  0  0  0  0
    0.3831   -0.4458    3.0171 C   0  0  0  0  0  0  0  0  0  0  0  0
    1.2598   -0.4494    2.0075 N   0  0  0  0  0  0  0  0  0  0  0  0
    0.7716   -0.2931    0.7566 C   0  0  0  0  0  0  0  0  0  0  0  0
    1.7229   -0.1051   -0.2742 N   0  0  0  0  0  0  0  0  0  0  0  0
    1.8465    1.3497   -0.5746 C   0  0  0  0  0  0  0  0  0  0  0  0
    3.2017    1.6952   -1.2338 C   0  0  0  0  0  0  0  0  0  0  0  0
    4.3222    1.3405   -0.3471 N   0  0  0  0  0  0  0  0  0  0  0  0
    5.5813    1.8977   -0.4991 C   0  0  0  0  0  0  0  0  0  0  0  0
    5.9639    2.5698   -1.6704 C   0  0  0  0  0  0  0  0  0  0  0  0
    7.2363    3.1366   -1.8200 C   0  0  0  0  0  0  0  0  0  0  0  0
    8.1655    3.0466   -0.7916 C   0  0  0  0  0  0  0  0  0  0  0  0
    7.8180    2.3928    0.3832 C   0  0  0  0  0  0  0  0  0  0  0  0
    6.5432    1.8307    0.5230 C   0  0  0  0  0  0  0  0  0  0  0  0
    4.1004    0.1896    0.5555 C   0  0  0  0  0  0  0  0  0  0  0  0
    3.0278   -0.7666   -0.0120 C   0  0  0  0  0  0  0  0  0  0  0  0
   -0.6078   -0.1897    0.5149 C   0  0  0  0  0  0  0  0  0  0  0  0
   -2.1290   -2.7658   -2.4899 C   0  0  0  0  0  0  0  0  0  0  0  0
   -2.3773   -4.1403   -2.4821 C   0  0  0  0  0  0  0  0  0  0  0  0
   -2.7528   -6.7277   -2.0992 H   0  0  0  0  0  0  0  0  0  0  0  0
   -1.1127   -6.9805   -2.7377 H   0  0  0  0  0  0  0  0  0  0  0  0
   -1.4053   -6.9427   -0.9775 H   0  0  0  0  0  0  0  0  0  0  0  0
    0.5045   -5.1885   -1.0088 H   0  0  0  0  0  0  0  0  0  0  0  0
    0.9400   -2.7732   -1.0212 H   0  0  0  0  0  0  0  0  0  0  0  0
    0.3798   -0.5487   -2.0818 H   0  0  0  0  0  0  0  0  0  0  0  0
   -1.1360   -0.3253   -2.8546 H   0  0  0  0  0  0  0  0  0  0  0  0
   -2.8110    1.8464    0.6299 H   0  0  0  0  0  0  0  0  0  0  0  0
   -5.1419   -0.1279    0.2384 H   0  0  0  0  0  0  0  0  0  0  0  0
   -5.0378    1.4321   -0.5445 H   0  0  0  0  0  0  0  0  0  0  0  0
   -5.9056   -0.3012    2.5372 H   0  0  0  0  0  0  0  0  0  0  0  0
   -6.9335    0.8003    4.4936 H   0  0  0  0  0  0  0  0  0  0  0  0
   -7.0090    3.2758    4.6392 H   0  0  0  0  0  0  0  0  0  0  0  0
   -6.0532    4.6551    2.8117 H   0  0  0  0  0  0  0  0  0  0  0  0
   -5.0246    3.5739    0.8454 H   0  0  0  0  0  0  0  0  0  0  0  0
   -3.1609    0.1960    2.4908 H   0  0  0  0  0  0  0  0  0  0  0  0
    0.7846   -0.5749    4.0164 H   0  0  0  0  0  0  0  0  0  0  0  0
    1.0389    1.6541   -1.2499 H   0  0  0  0  0  0  0  0  0  0  0  0
    1.7532    1.9470    0.3436 H   0  0  0  0  0  0  0  0  0  0  0  0
    3.3010    1.1583   -2.1846 H   0  0  0  0  0  0  0  0  0  0  0  0
    3.2032    2.7710   -1.4439 H   0  0  0  0  0  0  0  0  0  0  0  0
    5.2815    2.6484   -2.5108 H   0  0  0  0  0  0  0  0  0  0  0  0
    7.4960    3.6480   -2.7438 H   0  0  0  0  0  0  0  0  0  0  0  0
    9.1530    3.4849   -0.9037 H   0  0  0  0  0  0  0  0  0  0  0  0
    8.5339    2.3192    1.1982 H   0  0  0  0  0  0  0  0  0  0  0  0
    6.3067    1.3521    1.4698 H   0  0  0  0  0  0  0  0  0  0  0  0
    5.0194   -0.3954    0.6782 H   0  0  0  0  0  0  0  0  0  0  0  0
    3.8019    0.5633    1.5418 H   0  0  0  0  0  0  0  0  0  0  0  0
    3.3861   -1.1476   -0.9773 H   0  0  0  0  0  0  0  0  0  0  0  0
    2.9237   -1.6532    0.6266 H   0  0  0  0  0  0  0  0  0  0  0  0
   -2.8798   -2.0963   -2.9063 H   0  0  0  0  0  0  0  0  0  0  0  0
   -3.3118   -4.5113   -2.8967 H   0  0  0  0  0  0  0  0  0  0  0  0
  1  2  1  0
  2  3  2  0
  3  4  1  0
  4  5  2  0
  5  6  1  0
  6  7  1  0
  7  8  1  0
  8  9  2  0
  8 10  1  0
 10 11  1  0
 11 12  1  0
 12 13  2  0
 13 14  1  0
 14 15  2  0
 15 16  1  0
 16 17  2  0
 10 18  1  0
 18 19  1  0
 19 20  2  0
 20 21  1  0
 21 22  2  0
 22 23  1  0
 23 24  1  0
 24 25  1  0
 25 26  1  0
 26 27  1  0
 27 28  1  0
 28 29  2  0
 29 30  1  0
 30 31  2  0
 31 32  1  0
 32 33  2  0
 27 34  1  0
 34 35  1  0
 23 36  2  0
  5 37  1  0
 37 38  2  0
 38  2  1  0
 36  7  1  0
 17 12  1  0
 36 19  1  0
 35 24  1  0
 33 28  1  0
  1 39  1  0
  1 40  1  0
  1 41  1  0
  3 42  1  0
  4 43  1  0
  6 44  1  0
  6 45  1  0
 10 46  1  0
 11 47  1  0
 11 48  1  0
 13 49  1  0
 14 50  1  0
 15 51  1  0
 16 52  1  0
 17 53  1  0
 18 54  1  0
 21 55  1  0
 25 56  1  0
 25 57  1  0
 26 58  1  0
 26 59  1  0
 29 60  1  0
 30 61  1  0
 31 62  1  0
 32 63  1  0
 33 64  1  0
 34 65  1  0
 34 66  1  0
 35 67  1  0
 35 68  1  0
 37 69  1  0
 38 70  1  0
M  END
$$$$
