
     RDKit          3D

 60 64  0  0  0  0  0  0  0  0999 V2000
   -3.3841   -1.3730   -1.8895 O   0  0  0  0  0  0  0  0  0  0  0  0
   -3.2156   -0.8639   -0.7813 C   0  0  0  0  0  0  0  0  0  0  0  0
   -1.8366   -0.7975   -0.1520 C   0  0  0  0  0  0  0  0  0  0  0  0
   -0.7895   -1.4664   -1.0400 C   0  0  0  0  0  0  0  0  0  0  0  0
    0.5495   -1.3936   -0.4500 N   0  0  0  0  0  0  0  0  0  0  0  0
    0.8922   -2.3755    0.4657 C   0  0  0  0  0  0  0  0  0  0  0  0
    0.1215   -3.2546    0.8460 O   0  0  0  0  0  0  0  0  0  0  0  0
    2.2539   -2.3206    1.0156 C   0  0  0  0  0  0  0  0  0  0  0  0
    2.6803   -3.3408    1.8842 C   0  0  0  0  0  0  0  0  0  0  0  0
    3.9619   -3.3076    2.4233 C   0  0  0  0  0  0  0  0  0  0  0  0
    4.8126   -2.2582    2.0937 C   0  0  0  0  0  0  0  0  0  0  0  0
    4.3814   -1.2434    1.2288 C   0  0  0  0  0  0  0  0  0  0  0  0
    3.0915   -1.2580    0.6725 C   0  0  0  0  0  0  0  0  0  0  0  0
    2.6064   -0.2345   -0.1931 N   0  0  0  0  0  0  0  0  0  0  0  0
    3.4460    0.9132   -0.5542 C   0  0  0  0  0  0  0  0  0  0  0  0
    4.3855    0.6336   -1.7117 C   0  0  0  0  0  0  0  0  0  0  0  0
    3.8810    0.3428   -2.9913 C   0  0  0  0  0  0  0  0  0  0  0  0
    4.7373    0.0939   -4.0669 C   0  0  0  0  0  0  0  0  0  0  0  0
    6.1176    0.1347   -3.8861 C   0  0  0  0  0  0  0  0  0  0  0  0
    6.6342    0.4377   -2.6197 C   0  0  0  0  0  0  0  0  0  0  0  0
    8.0875    0.4842   -2.4171 N   0  0  0  0  0  4  0  0  0  0  0  0
    8.8132    0.3124   -3.4048 O   0  0  0  0  0  0  0  0  0  0  0  0
    8.5017    0.6892   -1.2658 O   0  0  0  0  0  1  0  0  0  0  0  0
    5.7771    0.6944   -1.5378 C   0  0  0  0  0  0  0  0  0  0  0  0
    1.3220   -0.2749   -0.7332 C   0  0  0  0  0  0  0  0  0  0  0  0
    0.8821    0.6463   -1.4269 O   0  0  0  0  0  0  0  0  0  0  0  0
   -4.2616   -0.3016   -0.0541 N   0  0  0  0  0  0  0  0  0  0  0  0
   -5.6196   -0.4298   -0.5767 C   0  0  0  0  0  0  0  0  0  0  0  0
   -6.4222    0.8475   -0.3436 C   0  0  0  0  0  0  0  0  0  0  0  0
   -6.3601    1.2806    1.0988 C   0  0  0  0  0  0  0  0  0  0  0  0
   -7.3625    2.1050    1.6289 C   0  0  0  0  0  0  0  0  0  0  0  0
   -7.2988    2.5268    2.9555 C   0  0  0  0  0  0  0  0  0  0  0  0
   -6.2308    2.1376    3.7602 C   0  0  0  0  0  0  0  0  0  0  0  0
   -5.2223    1.3289    3.2372 C   0  0  0  0  0  0  0  0  0  0  0  0
   -5.2693    0.9015    1.9009 C   0  0  0  0  0  0  0  0  0  0  0  0
   -4.1507    0.0365    1.3650 C   0  0  0  0  0  0  0  0  0  0  0  0
   -1.5720    0.2543   -0.0011 H   0  0  0  0  0  0  0  0  0  0  0  0
   -1.8628   -1.2948    0.8231 H   0  0  0  0  0  0  0  0  0  0  0  0
   -0.7747   -0.9964   -2.0310 H   0  0  0  0  0  0  0  0  0  0  0  0
   -1.0506   -2.5200   -1.2005 H   0  0  0  0  0  0  0  0  0  0  0  0
    2.0114   -4.1625    2.1400 H   0  0  0  0  0  0  0  0  0  0  0  0
    4.2935   -4.0940    3.0975 H   0  0  0  0  0  0  0  0  0  0  0  0
    5.8177   -2.2242    2.5109 H   0  0  0  0  0  0  0  0  0  0  0  0
    5.0928   -0.4513    1.0216 H   0  0  0  0  0  0  0  0  0  0  0  0
    2.8209    1.7693   -0.8385 H   0  0  0  0  0  0  0  0  0  0  0  0
    3.9900    1.2621    0.3308 H   0  0  0  0  0  0  0  0  0  0  0  0
    2.8052    0.3166   -3.1658 H   0  0  0  0  0  0  0  0  0  0  0  0
    4.3211   -0.1290   -5.0476 H   0  0  0  0  0  0  0  0  0  0  0  0
    6.7703   -0.0646   -4.7327 H   0  0  0  0  0  0  0  0  0  0  0  0
    6.1901    0.9425   -0.5627 H   0  0  0  0  0  0  0  0  0  0  0  0
   -6.0836   -1.2836   -0.0663 H   0  0  0  0  0  0  0  0  0  0  0  0
   -5.6107   -0.6572   -1.6478 H   0  0  0  0  0  0  0  0  0  0  0  0
   -6.0180    1.6588   -0.9634 H   0  0  0  0  0  0  0  0  0  0  0  0
   -7.4622    0.6756   -0.6446 H   0  0  0  0  0  0  0  0  0  0  0  0
   -8.1989    2.4203    1.0088 H   0  0  0  0  0  0  0  0  0  0  0  0
   -8.0826    3.1623    3.3614 H   0  0  0  0  0  0  0  0  0  0  0  0
   -6.1831    2.4669    4.7951 H   0  0  0  0  0  0  0  0  0  0  0  0
   -4.3931    1.0362    3.8785 H   0  0  0  0  0  0  0  0  0  0  0  0
   -4.1334   -0.9095    1.9174 H   0  0  0  0  0  0  0  0  0  0  0  0
   -3.2002    0.5509    1.5363 H   0  0  0  0  0  0  0  0  0  0  0  0
  1  2  2  0
  2  3  1  0
  3  4  1  0
  4  5  1  0
  5  6  1  0
  6  7  2  0
  6  8  1  0
  8  9  2  0
  9 10  1  0
 10 11  2  0
 11 12  1  0
 12 13  2  0
 13 14  1  0
 14 15  1  0
 15 16  1  0
 16 17  2  0
 17 18  1  0
 18 19  2  0
 19 20  1  0
 20 21  1  0
 21 22  2  0
 21 23  1  0
 20 24  2  0
 14 25  1  0
 25 26  2  0
  2 27  1  0
 27 28  1  0
 28 29  1  0
 29 30  1  0
 30 31  2  0
 31 32  1  0
 32 33  2  0
 33 34  1  0
 34 35  2  0
 35 36  1  0
 25  5  1  0
 36 27  1  0
 13  8  1  0
 24 16  1  0
 35 30  1  0
  3 37  1  0
  3 38  1  0
  4 39  1  0
  4 40  1  0
  9 41  1  0
 10 42  1  0
 11 43  1  0
 12 44  1  0
 15 45  1  0
 15 46  1  0
 17 47  1  0
 18 48  1  0
 19 49  1  0
 24 50  1  0
 28 51  1  0
 28 52  1  0
 29 53  1  0
 29 54  1  0
 31 55  1  0
 32 56  1  0
 33 57  1  0
 34 58  1  0
 36 59  1  0
 36 60  1  0
M  CHG  2  21   1  23  -1
M  END
$$$$
