
     RDKit          3D

 58 62  0  0  0  0  0  0  0  0999 V2000
   -6.1754   -0.9446   -0.9367 C   0  0  0  0  0  0  0  0  0  0  0  0
   -4.9832   -0.1762   -0.8726 O   0  0  0  0  0  0  0  0  0  0  0  0
   -4.3441    0.1157   -2.0458 C   0  0  0  0  0  0  0  0  0  0  0  0
   -4.8323   -0.2120   -3.3160 C   0  0  0  0  0  0  0  0  0  0  0  0
   -4.1141    0.1324   -4.4633 C   0  0  0  0  0  0  0  0  0  0  0  0
   -2.9037    0.8073   -4.3515 C   0  0  0  0  0  0  0  0  0  0  0  0
   -2.4111    1.1410   -3.0914 C   0  0  0  0  0  0  0  0  0  0  0  0
   -3.1221    0.8036   -1.9254 C   0  0  0  0  0  0  0  0  0  0  0  0
   -2.5431    1.1696   -0.5705 C   0  0  0  0  0  0  0  0  0  0  0  0
   -1.8178    0.0682    0.0593 N   0  0  0  0  0  0  0  0  0  0  0  0
   -2.3667   -0.5775    1.1627 C   0  0  0  0  0  0  0  0  0  0  0  0
   -3.4065   -0.2280    1.7177 O   0  0  0  0  0  0  0  0  0  0  0  0
   -1.6517   -1.7738    1.6974 C   0  0  0  0  0  0  0  0  0  0  0  0
   -2.2577   -2.5167    2.7217 C   0  0  0  0  0  0  0  0  0  0  0  0
   -1.6386   -3.6605    3.2212 C   0  0  0  0  0  0  0  0  0  0  0  0
   -0.4191   -4.0730    2.6920 C   0  0  0  0  0  0  0  0  0  0  0  0
    0.1967   -3.3379    1.6739 C   0  0  0  0  0  0  0  0  0  0  0  0
   -0.4081   -2.1743    1.1877 C   0  0  0  0  0  0  0  0  0  0  0  0
    0.1477   -1.3620    0.1792 N   0  0  0  0  0  0  0  0  0  0  0  0
    1.3659   -1.3229   -0.4698 C   0  0  0  0  0  0  0  0  0  0  0  0
    2.8131   -2.1896   -0.0796 S   0  0  0  0  0  0  0  0  0  0  0  0
    3.3844   -1.3411    1.4238 C   0  0  0  0  0  0  0  0  0  0  0  0
    2.9161    0.1010    1.5292 C   0  0  0  0  0  0  0  0  0  0  0  0
    1.8869    0.3401    2.1714 O   0  0  0  0  0  0  0  0  0  0  0  0
    3.6609    1.1073    0.9140 N   0  0  0  0  0  0  0  0  0  0  0  0
    4.6061    0.8397   -0.1742 C   0  0  0  0  0  0  0  0  0  0  0  0
    5.6600    1.9352   -0.3076 C   0  0  0  0  0  0  0  0  0  0  0  0
    5.0180    3.3129   -0.4136 C   0  0  0  0  0  0  0  0  0  0  0  0
    4.0928    3.5519    0.7731 C   0  0  0  0  0  0  0  0  0  0  0  0
    3.0563    2.4409    0.9020 C   0  0  0  0  0  0  0  0  0  0  0  0
    1.3494   -0.4036   -1.4098 N   0  0  0  0  0  0  0  0  0  0  0  0
    0.1440    0.2383   -1.3452 N   0  0  0  0  0  0  0  0  0  0  0  0
   -0.5592   -0.3118   -0.3784 C   0  0  0  0  0  0  0  0  0  0  0  0
   -6.9660   -0.4016   -1.4645 H   0  0  0  0  0  0  0  0  0  0  0  0
   -5.9927   -1.9224   -1.3942 H   0  0  0  0  0  0  0  0  0  0  0  0
   -6.5175   -1.1161    0.0884 H   0  0  0  0  0  0  0  0  0  0  0  0
   -5.7734   -0.7353   -3.4478 H   0  0  0  0  0  0  0  0  0  0  0  0
   -4.5010   -0.1288   -5.4447 H   0  0  0  0  0  0  0  0  0  0  0  0
   -2.3387    1.0704   -5.2417 H   0  0  0  0  0  0  0  0  0  0  0  0
   -1.4557    1.6585   -3.0195 H   0  0  0  0  0  0  0  0  0  0  0  0
   -1.8529    2.0178   -0.6708 H   0  0  0  0  0  0  0  0  0  0  0  0
   -3.3454    1.5308    0.0836 H   0  0  0  0  0  0  0  0  0  0  0  0
   -3.2187   -2.2076    3.1292 H   0  0  0  0  0  0  0  0  0  0  0  0
   -2.1140   -4.2336    4.0136 H   0  0  0  0  0  0  0  0  0  0  0  0
    0.0542   -4.9773    3.0696 H   0  0  0  0  0  0  0  0  0  0  0  0
    1.1255   -3.7316    1.2809 H   0  0  0  0  0  0  0  0  0  0  0  0
    4.4723   -1.4067    1.5105 H   0  0  0  0  0  0  0  0  0  0  0  0
    2.9848   -1.8815    2.2896 H   0  0  0  0  0  0  0  0  0  0  0  0
    4.0245    0.7588   -1.1001 H   0  0  0  0  0  0  0  0  0  0  0  0
    5.1152   -0.1143   -0.0240 H   0  0  0  0  0  0  0  0  0  0  0  0
    6.3202    1.9116    0.5685 H   0  0  0  0  0  0  0  0  0  0  0  0
    6.2841    1.7450   -1.1878 H   0  0  0  0  0  0  0  0  0  0  0  0
    4.4497    3.3871   -1.3487 H   0  0  0  0  0  0  0  0  0  0  0  0
    5.7942    4.0853   -0.4434 H   0  0  0  0  0  0  0  0  0  0  0  0
    4.6907    3.5982    1.6919 H   0  0  0  0  0  0  0  0  0  0  0  0
    3.5893    4.5188    0.6667 H   0  0  0  0  0  0  0  0  0  0  0  0
    2.3528    2.4723    0.0607 H   0  0  0  0  0  0  0  0  0  0  0  0
    2.4748    2.6029    1.8164 H   0  0  0  0  0  0  0  0  0  0  0  0
  1  2  1  0
  2  3  1  0
  3  4  2  0
  4  5  1  0
  5  6  2  0
  6  7  1  0
  7  8  2  0
  8  9  1  0
  9 10  1  0
 10 11  1  0
 11 12  2  0
 11 13  1  0
 13 14  2  0
 14 15  1  0
 15 16  2  0
 16 17  1  0
 17 18  2  0
 18 19  1  0
 19 20  1  0
 20 21  1  0
 21 22  1  0
 22 23  1  0
 23 24  2  0
 23 25  1  0
 25 26  1  0
 26 27  1  0
 27 28  1  0
 28 29  1  0
 29 30  1  0
 20 31  2  0
 31 32  1  0
 32 33  2  0
  8  3  1  0
 33 10  1  0
 18 13  1  0
 33 19  1  0
 30 25  1  0
  1 34  1  0
  1 35  1  0
  1 36  1  0
  4 37  1  0
  5 38  1  0
  6 39  1  0
  7 40  1  0
  9 41  1  0
  9 42  1  0
 14 43  1  0
 15 44  1  0
 16 45  1  0
 17 46  1  0
 22 47  1  0
 22 48  1  0
 26 49  1  0
 26 50  1  0
 27 51  1  0
 27 52  1  0
 28 53  1  0
 28 54  1  0
 29 55  1  0
 29 56  1  0
 30 57  1  0
 30 58  1  0
M  END
$$$$
