
     RDKit          3D

 36 38  0  0  0  0  0  0  0  0999 V2000
    6.1700    0.2422    1.1629 C   0  0  0  0  0  0  0  0  0  0  0  0
    4.8796    0.5068    1.8273 C   0  0  0  0  0  0  0  0  0  0  0  0
    4.5032    1.2742    2.9039 C   0  0  0  0  0  0  0  0  0  0  0  0
    3.1081    1.0841    3.0454 C   0  0  0  0  0  0  0  0  0  0  0  0
    2.6883    0.2111    2.0459 C   0  0  0  0  0  0  0  0  0  0  0  0
    1.3729   -0.2619    1.7856 C   0  0  0  0  0  0  0  0  0  0  0  0
    1.0812   -1.2361    0.9051 C   0  0  0  0  0  0  0  0  0  0  0  0
    1.9916   -1.9926    0.1197 C   0  0  0  0  0  0  0  0  0  0  0  0
    2.7073   -2.6083   -0.5593 N   0  0  0  0  0  0  0  0  0  0  0  0
   -0.3616   -1.5543    0.7686 C   0  0  0  0  0  0  0  0  0  0  0  0
   -0.8494   -2.4484    1.4478 O   0  0  0  0  0  0  0  0  0  0  0  0
   -0.9945   -0.7245   -0.1414 N   0  0  0  0  0  0  0  0  0  0  0  0
   -2.3674   -0.7225   -0.5131 C   0  0  0  0  0  0  0  0  0  0  0  0
   -3.2740   -1.6280    0.0486 C   0  0  0  0  0  0  0  0  0  0  0  0
   -4.6138   -1.6130   -0.3241 C   0  0  0  0  0  0  0  0  0  0  0  0
   -5.0609   -0.6894   -1.2623 C   0  0  0  0  0  0  0  0  0  0  0  0
   -4.2050    0.2280   -1.8444 C   0  0  0  0  0  0  0  0  0  0  0  0
   -4.7380    1.0802   -2.7363 N   0  0  0  0  0  0  0  0  0  0  0  0
   -3.9310    1.9835   -3.3236 C   0  0  0  0  0  0  0  0  0  0  0  0
   -2.5845    2.0846   -3.0561 C   0  0  0  0  0  0  0  0  0  0  0  0
   -2.0355    1.2022   -2.1302 C   0  0  0  0  0  0  0  0  0  0  0  0
   -2.8349    0.2282   -1.4806 C   0  0  0  0  0  0  0  0  0  0  0  0
    3.7943   -0.1133    1.2981 O   0  0  0  0  0  0  0  0  0  0  0  0
    6.4006   -0.8273    1.1910 H   0  0  0  0  0  0  0  0  0  0  0  0
    6.1403    0.5598    0.1145 H   0  0  0  0  0  0  0  0  0  0  0  0
    6.9859    0.7773    1.6592 H   0  0  0  0  0  0  0  0  0  0  0  0
    5.1528    1.8840    3.5174 H   0  0  0  0  0  0  0  0  0  0  0  0
    2.4739    1.5257    3.8029 H   0  0  0  0  0  0  0  0  0  0  0  0
    0.5683    0.2046    2.3533 H   0  0  0  0  0  0  0  0  0  0  0  0
   -0.4078   -0.0491   -0.6097 H   0  0  0  0  0  0  0  0  0  0  0  0
   -2.9747   -2.3677    0.7847 H   0  0  0  0  0  0  0  0  0  0  0  0
   -5.3105   -2.3220    0.1160 H   0  0  0  0  0  0  0  0  0  0  0  0
   -6.1113   -0.6851   -1.5479 H   0  0  0  0  0  0  0  0  0  0  0  0
   -4.4154    2.6418   -4.0383 H   0  0  0  0  0  0  0  0  0  0  0  0
   -1.9752    2.8287   -3.5579 H   0  0  0  0  0  0  0  0  0  0  0  0
   -0.9729    1.2965   -1.9350 H   0  0  0  0  0  0  0  0  0  0  0  0
  1  2  1  0
  2  3  2  0
  3  4  1  0
  4  5  2  0
  5  6  1  0
  6  7  2  3
  7  8  1  0
  8  9  3  0
  7 10  1  0
 10 11  2  0
 10 12  1  0
 12 13  1  0
 13 14  2  0
 14 15  1  0
 15 16  2  0
 16 17  1  0
 17 18  2  0
 18 19  1  0
 19 20  2  0
 20 21  1  0
 21 22  2  0
  5 23  1  0
 23  2  1  0
 22 13  1  0
 22 17  1  0
  1 24  1  0
  1 25  1  0
  1 26  1  0
  3 27  1  0
  4 28  1  0
  6 29  1  0
 12 30  1  0
 14 31  1  0
 15 32  1  0
 16 33  1  0
 19 34  1  0
 20 35  1  0
 21 36  1  0
M  END
$$$$
