
     RDKit          3D

 33 35  0  0  0  0  0  0  0  0999 V2000
    0.1527    0.2364    1.1803 O   0  0  0  0  0  0  0  0  0  0  0  0
    0.6978    0.5411    0.1280 C   0  0  0  0  0  0  0  0  0  0  0  0
    2.1238    0.2435   -0.1954 C   0  0  0  0  0  0  0  0  0  0  0  0
    2.9047   -0.3758    0.7007 C   0  0  0  0  0  0  0  0  0  0  0  0
    4.2796   -0.6994    0.5119 C   0  0  0  0  0  0  0  0  0  0  0  0
    4.9552   -1.2213   -0.5790 C   0  0  0  0  0  0  0  0  0  0  0  0
    6.3486   -1.4065   -0.3398 C   0  0  0  0  0  0  0  0  0  0  0  0
    6.7036   -1.0385    0.9361 C   0  0  0  0  0  0  0  0  0  0  0  0
    5.3643   -0.4849    1.8377 S   0  0  0  0  0  0  0  0  0  0  0  0
    2.5195    0.8457   -1.7641 S   0  0  0  0  0  0  0  0  0  0  0  0
    0.9026    1.4661   -2.0504 C   0  0  0  0  0  0  0  0  0  0  0  0
    0.4357    2.2606   -3.4378 S   0  0  0  0  0  0  0  0  0  0  0  0
    0.1270    1.2128   -0.9413 N   0  0  0  0  0  0  0  0  0  0  0  0
   -1.3586    1.5247   -0.9153 N   0  0  0  0  0  0  0  0  0  0  0  0
   -2.3378    0.1926   -1.3462 S   0  0  0  0  0  6  0  0  0  0  0  0
   -1.5150   -0.9983   -1.3744 O   0  0  0  0  0  0  0  0  0  0  0  0
   -3.0844    0.6187   -2.5103 O   0  0  0  0  0  0  0  0  0  0  0  0
   -3.4498    0.1000    0.0285 C   0  0  0  0  0  0  0  0  0  0  0  0
   -4.7104    0.6999   -0.0572 C   0  0  0  0  0  0  0  0  0  0  0  0
   -5.5929    0.6013    1.0189 C   0  0  0  0  0  0  0  0  0  0  0  0
   -5.2193   -0.0991    2.1670 C   0  0  0  0  0  0  0  0  0  0  0  0
   -3.9656   -0.7080    2.2421 C   0  0  0  0  0  0  0  0  0  0  0  0
   -3.0784   -0.6157    1.1696 C   0  0  0  0  0  0  0  0  0  0  0  0
    2.4772   -0.6327    1.6704 H   0  0  0  0  0  0  0  0  0  0  0  0
    4.4762   -1.4731   -1.5177 H   0  0  0  0  0  0  0  0  0  0  0  0
    7.0507   -1.7969   -1.0664 H   0  0  0  0  0  0  0  0  0  0  0  0
    7.6855   -1.0762    1.3875 H   0  0  0  0  0  0  0  0  0  0  0  0
   -1.6095    2.3081   -1.5290 H   0  0  0  0  0  0  0  0  0  0  0  0
   -5.0153    1.2383   -0.9518 H   0  0  0  0  0  0  0  0  0  0  0  0
   -6.5745    1.0659    0.9626 H   0  0  0  0  0  0  0  0  0  0  0  0
   -5.9089   -0.1753    3.0045 H   0  0  0  0  0  0  0  0  0  0  0  0
   -3.6794   -1.2567    3.1364 H   0  0  0  0  0  0  0  0  0  0  0  0
   -2.1050   -1.0972    1.2350 H   0  0  0  0  0  0  0  0  0  0  0  0
  1  2  2  0
  2  3  1  0
  3  4  2  3
  4  5  1  0
  5  6  2  0
  6  7  1  0
  7  8  2  0
  8  9  1  0
  3 10  1  0
 10 11  1  0
 11 12  2  0
 11 13  1  0
 13 14  1  0
 14 15  1  0
 15 16  2  0
 15 17  2  0
 15 18  1  0
 18 19  2  0
 19 20  1  0
 20 21  2  0
 21 22  1  0
 22 23  2  0
 13  2  1  0
 23 18  1  0
  9  5  1  0
  4 24  1  0
  6 25  1  0
  7 26  1  0
  8 27  1  0
 14 28  1  0
 19 29  1  0
 20 30  1  0
 21 31  1  0
 22 32  1  0
 23 33  1  0
M  END
$$$$
