
     RDKit          3D

 41 44  0  0  0  0  0  0  0  0999 V2000
    2.8988   -3.8237    3.1216 C   0  0  0  0  0  0  0  0  0  0  0  0
    3.3655   -4.0030    1.7912 O   0  0  0  0  0  0  0  0  0  0  0  0
    2.8536   -3.1752    0.8287 C   0  0  0  0  0  0  0  0  0  0  0  0
    3.3769   -3.3842   -0.4447 C   0  0  0  0  0  0  0  0  0  0  0  0
    2.9494   -2.6312   -1.5392 C   0  0  0  0  0  0  0  0  0  0  0  0
    1.9789   -1.6515   -1.3089 C   0  0  0  0  0  0  0  0  0  0  0  0
    1.3782   -0.7975   -2.1936 N   0  0  0  0  0  0  0  0  0  0  0  0
    0.4435    0.0043   -1.5724 C   0  0  0  0  0  0  0  0  0  0  0  0
   -0.4103    0.9714   -2.1377 C   0  0  0  0  0  0  0  0  0  0  0  0
   -0.3939    1.2681   -3.6182 C   0  0  0  0  0  0  0  0  0  0  0  0
   -1.3085    1.6323   -1.2569 C   0  0  0  0  0  0  0  0  0  0  0  0
   -2.2382    2.5726   -1.7368 C   0  0  0  0  0  0  0  0  0  0  0  0
   -3.1233    3.2072   -0.8795 C   0  0  0  0  0  0  0  0  0  0  0  0
   -3.1055    2.9292    0.4340 N   0  0  0  0  0  4  0  0  0  0  0  0
   -4.0570    3.5901    1.3438 C   0  0  0  0  0  0  0  0  0  0  0  0
   -2.2288    2.0333    0.9360 C   0  0  0  0  0  0  0  0  0  0  0  0
   -1.2913    1.3587    0.1321 C   0  0  0  0  0  0  0  0  0  0  0  0
   -0.3519    0.4239    0.6791 C   0  0  0  0  0  0  0  0  0  0  0  0
   -0.2711    0.2001    2.1723 C   0  0  0  0  0  0  0  0  0  0  0  0
    0.4833   -0.3075   -0.2138 C   0  0  0  0  0  0  0  0  0  0  0  0
    1.4358   -1.3884   -0.0552 C   0  0  0  0  0  0  0  0  0  0  0  0
    1.8816   -2.1857    1.0301 C   0  0  0  0  0  0  0  0  0  0  0  0
    1.8260   -4.0301    3.1935 H   0  0  0  0  0  0  0  0  0  0  0  0
    3.1342   -2.8202    3.4912 H   0  0  0  0  0  0  0  0  0  0  0  0
    3.4200   -4.5442    3.7592 H   0  0  0  0  0  0  0  0  0  0  0  0
    4.1305   -4.1557   -0.5920 H   0  0  0  0  0  0  0  0  0  0  0  0
    3.3591   -2.8124   -2.5280 H   0  0  0  0  0  0  0  0  0  0  0  0
    1.5842   -0.7868   -3.1816 H   0  0  0  0  0  0  0  0  0  0  0  0
   -0.1949    2.3311   -3.7900 H   0  0  0  0  0  0  0  0  0  0  0  0
   -1.3541    0.9966   -4.0686 H   0  0  0  0  0  0  0  0  0  0  0  0
    0.3832    0.7098   -4.1469 H   0  0  0  0  0  0  0  0  0  0  0  0
   -2.2942    2.8237   -2.7942 H   0  0  0  0  0  0  0  0  0  0  0  0
   -3.8485    3.9304   -1.2412 H   0  0  0  0  0  0  0  0  0  0  0  0
   -4.5643    4.4069    0.8249 H   0  0  0  0  0  0  0  0  0  0  0  0
   -3.4962    3.9881    2.1938 H   0  0  0  0  0  0  0  0  0  0  0  0
   -4.7807    2.8378    1.6677 H   0  0  0  0  0  0  0  0  0  0  0  0
   -2.3112    1.8628    2.0039 H   0  0  0  0  0  0  0  0  0  0  0  0
   -0.4607    1.1193    2.7341 H   0  0  0  0  0  0  0  0  0  0  0  0
   -0.9864   -0.5688    2.4781 H   0  0  0  0  0  0  0  0  0  0  0  0
    0.7351   -0.0972    2.4739 H   0  0  0  0  0  0  0  0  0  0  0  0
    1.4531   -2.0344    2.0104 H   0  0  0  0  0  0  0  0  0  0  0  0
  1  2  1  0
  2  3  1  0
  3  4  2  0
  4  5  1  0
  5  6  2  0
  6  7  1  0
  7  8  1  0
  8  9  2  0
  9 10  1  0
  9 11  1  0
 11 12  2  0
 12 13  1  0
 13 14  2  0
 14 15  1  0
 14 16  1  0
 16 17  2  0
 17 18  1  0
 18 19  1  0
 18 20  2  0
 20 21  1  0
 21 22  2  0
 22  3  1  0
 21  6  1  0
 20  8  1  0
 17 11  1  0
  1 23  1  0
  1 24  1  0
  1 25  1  0
  4 26  1  0
  5 27  1  0
  7 28  1  0
 10 29  1  0
 10 30  1  0
 10 31  1  0
 12 32  1  0
 13 33  1  0
 15 34  1  0
 15 35  1  0
 15 36  1  0
 16 37  1  0
 19 38  1  0
 19 39  1  0
 19 40  1  0
 22 41  1  0
M  CHG  1  14   1
M  END
$$$$
