
     RDKit          3D

 48 50  0  0  0  0  0  0  0  0999 V2000
    3.8025   -0.8922    1.7604 C   0  0  0  0  0  0  0  0  0  0  0  0
    3.7201   -0.6764    0.2926 C   0  0  0  0  0  0  0  0  0  0  0  0
    4.7140   -0.1398   -0.5198 C   0  0  0  0  0  0  0  0  0  0  0  0
    6.0359    0.3381   -0.1998 C   0  0  0  0  0  0  0  0  0  0  0  0
    6.5702    0.3722    0.9001 O   0  0  0  0  0  0  0  0  0  0  0  0
    6.7010    0.7853   -1.2885 O   0  0  0  0  0  0  0  0  0  0  0  0
    4.2781   -0.0969   -1.8172 O   0  0  0  0  0  0  0  0  0  0  0  0
    3.0186   -0.6005   -1.8450 C   0  0  0  0  0  0  0  0  0  0  0  0
    2.2318   -0.7300   -2.9887 C   0  0  0  0  0  0  0  0  0  0  0  0
    0.9549   -1.2710   -2.8124 C   0  0  0  0  0  0  0  0  0  0  0  0
    0.5133   -1.6483   -1.5384 C   0  0  0  0  0  0  0  0  0  0  0  0
   -1.1171   -2.3331   -1.3602 S   0  0  0  0  0  6  0  0  0  0  0  0
   -1.2547   -2.8692   -0.0250 O   0  0  0  0  0  0  0  0  0  0  0  0
   -1.3879   -3.1310   -2.5352 O   0  0  0  0  0  0  0  0  0  0  0  0
   -2.0748   -0.9671   -1.4847 N   0  0  0  0  0  0  0  0  0  0  0  0
   -2.2273   -0.0518   -0.3421 C   0  0  0  0  0  0  0  0  0  0  0  0
   -2.2810    1.3733   -0.9099 C   0  0  0  0  0  0  0  0  0  0  0  0
   -2.7002    2.4891    0.0507 C   0  0  0  0  0  0  0  0  0  0  0  0
   -1.9803    2.5171    1.3977 C   0  0  0  0  0  0  0  0  0  0  0  0
   -2.7040    1.7794    2.5324 C   0  0  0  0  0  0  0  0  0  0  0  0
   -2.3400    0.3035    2.6823 C   0  0  0  0  0  0  0  0  0  0  0  0
   -3.2348   -0.6864    1.9340 C   0  0  0  0  0  0  0  0  0  0  0  0
   -3.4869   -0.4309    0.4467 C   0  0  0  0  0  0  0  0  0  0  0  0
    1.3318   -1.5199   -0.4030 C   0  0  0  0  0  0  0  0  0  0  0  0
    2.6187   -0.9740   -0.5683 C   0  0  0  0  0  0  0  0  0  0  0  0
    2.8799   -1.3271    2.1566 H   0  0  0  0  0  0  0  0  0  0  0  0
    3.9741    0.0571    2.2779 H   0  0  0  0  0  0  0  0  0  0  0  0
    4.6246   -1.5738    2.0015 H   0  0  0  0  0  0  0  0  0  0  0  0
    7.5651    1.0697   -0.9305 H   0  0  0  0  0  0  0  0  0  0  0  0
    2.6003   -0.4274   -3.9619 H   0  0  0  0  0  0  0  0  0  0  0  0
    0.3056   -1.3963   -3.6773 H   0  0  0  0  0  0  0  0  0  0  0  0
   -2.8089   -1.0262   -2.1886 H   0  0  0  0  0  0  0  0  0  0  0  0
   -1.3292   -0.1288    0.2766 H   0  0  0  0  0  0  0  0  0  0  0  0
   -2.9624    1.4045   -1.7713 H   0  0  0  0  0  0  0  0  0  0  0  0
   -1.2896    1.6165   -1.3167 H   0  0  0  0  0  0  0  0  0  0  0  0
   -3.7860    2.4809    0.1982 H   0  0  0  0  0  0  0  0  0  0  0  0
   -2.4900    3.4373   -0.4627 H   0  0  0  0  0  0  0  0  0  0  0  0
   -1.9277    3.5719    1.7005 H   0  0  0  0  0  0  0  0  0  0  0  0
   -0.9410    2.1831    1.3005 H   0  0  0  0  0  0  0  0  0  0  0  0
   -2.3961    2.2717    3.4652 H   0  0  0  0  0  0  0  0  0  0  0  0
   -3.7898    1.9141    2.4689 H   0  0  0  0  0  0  0  0  0  0  0  0
   -2.4171    0.0471    3.7478 H   0  0  0  0  0  0  0  0  0  0  0  0
   -1.2863    0.1412    2.4286 H   0  0  0  0  0  0  0  0  0  0  0  0
   -4.2086   -0.7327    2.4385 H   0  0  0  0  0  0  0  0  0  0  0  0
   -2.7949   -1.6851    2.0488 H   0  0  0  0  0  0  0  0  0  0  0  0
   -3.9429   -1.3418    0.0357 H   0  0  0  0  0  0  0  0  0  0  0  0
   -4.2633    0.3351    0.3475 H   0  0  0  0  0  0  0  0  0  0  0  0
    0.9824   -1.8305    0.5777 H   0  0  0  0  0  0  0  0  0  0  0  0
  1  2  1  0
  2  3  2  0
  3  4  1  0
  4  5  2  0
  4  6  1  0
  3  7  1  0
  7  8  1  0
  8  9  2  0
  9 10  1  0
 10 11  2  0
 11 12  1  0
 12 13  2  0
 12 14  2  0
 12 15  1  0
 15 16  1  0
 16 17  1  0
 17 18  1  0
 18 19  1  0
 19 20  1  0
 20 21  1  0
 21 22  1  0
 22 23  1  0
 11 24  1  0
 24 25  2  0
 25  2  1  0
 25  8  1  0
 23 16  1  0
  1 26  1  0
  1 27  1  0
  1 28  1  0
  6 29  1  0
  9 30  1  0
 10 31  1  0
 15 32  1  0
 16 33  1  0
 17 34  1  0
 17 35  1  0
 18 36  1  0
 18 37  1  0
 19 38  1  0
 19 39  1  0
 20 40  1  0
 20 41  1  0
 21 42  1  0
 21 43  1  0
 22 44  1  0
 22 45  1  0
 23 46  1  0
 23 47  1  0
 24 48  1  0
M  END
$$$$
