
     RDKit          3D

 67 69  0  0  0  0  0  0  0  0999 V2000
   -0.5805   -0.1286    2.2706 C   0  0  0  0  0  0  0  0  0  0  0  0
   -0.7866    0.6837    0.9966 C   0  0  0  0  0  0  0  0  0  0  0  0
   -2.1508    0.5086    0.5044 N   0  0  0  0  0  0  0  0  0  0  0  0
   -3.2110    1.2334    0.9918 C   0  0  0  0  0  0  0  0  0  0  0  0
   -3.0860    2.1004    1.8500 O   0  0  0  0  0  0  0  0  0  0  0  0
   -4.5491    0.9340    0.4081 C   0  0  0  0  0  0  0  0  0  0  0  0
   -5.5400    1.9155    0.4756 C   0  0  0  0  0  0  0  0  0  0  0  0
   -6.8174    1.6764   -0.0481 C   0  0  0  0  0  0  0  0  0  0  0  0
   -7.1425    0.4489   -0.6477 C   0  0  0  0  0  0  0  0  0  0  0  0
   -8.5398    0.1472   -1.2190 C   0  0  0  0  0  0  0  0  0  0  0  0
   -9.2067   -0.9543   -0.3674 C   0  0  0  0  0  0  0  0  0  0  0  0
   -9.4880    1.3683   -1.2268 C   0  0  0  0  0  0  0  0  0  0  0  0
   -8.4260   -0.3416   -2.6806 C   0  0  0  0  0  0  0  0  0  0  0  0
   -6.1357   -0.5354   -0.6858 C   0  0  0  0  0  0  0  0  0  0  0  0
   -4.8564   -0.3006   -0.1664 C   0  0  0  0  0  0  0  0  0  0  0  0
    0.1715    0.1973   -0.1136 C   0  0  0  0  0  0  0  0  0  0  0  0
   -0.2420   -0.5738   -0.9880 O   0  0  0  0  0  0  0  0  0  0  0  0
    1.4949    0.6104   -0.0657 N   0  0  0  0  0  0  0  0  0  0  0  0
    1.9692    1.7355    0.7460 C   0  0  0  0  0  0  0  0  0  0  0  0
    3.4412    2.1121    0.4784 C   0  0  0  0  0  0  0  0  0  0  0  0
    4.3013    0.9219    0.4854 N   0  0  0  0  0  0  0  0  0  0  0  0
    5.7151    1.2775    0.3442 C   0  0  0  0  0  0  0  0  0  0  0  0
    6.6159    0.1181    0.6553 C   0  0  0  0  0  0  0  0  0  0  0  0
    7.5581   -0.3445   -0.1825 C   0  0  0  0  0  0  0  0  0  0  0  0
    8.4508   -1.4728    0.1138 C   0  0  0  0  0  0  0  0  0  0  0  0
    8.0241   -2.5973    0.8323 C   0  0  0  0  0  0  0  0  0  0  0  0
    8.8912   -3.6711    1.0555 C   0  0  0  0  0  0  0  0  0  0  0  0
   10.1916   -3.6346    0.5564 C   0  0  0  0  0  0  0  0  0  0  0  0
   10.6239   -2.5278   -0.1702 C   0  0  0  0  0  0  0  0  0  0  0  0
    9.7564   -1.4546   -0.3940 C   0  0  0  0  0  0  0  0  0  0  0  0
    3.8619   -0.0670   -0.5270 C   0  0  0  0  0  0  0  0  0  0  0  0
    2.4291    0.1238   -1.0765 C   0  0  0  0  0  0  0  0  0  0  0  0
   -0.8263   -1.1832    2.1044 H   0  0  0  0  0  0  0  0  0  0  0  0
    0.4530   -0.0839    2.6255 H   0  0  0  0  0  0  0  0  0  0  0  0
   -1.2307    0.2340    3.0746 H   0  0  0  0  0  0  0  0  0  0  0  0
   -0.6347    1.7497    1.1878 H   0  0  0  0  0  0  0  0  0  0  0  0
   -2.2512   -0.0994   -0.3020 H   0  0  0  0  0  0  0  0  0  0  0  0
   -5.3240    2.8752    0.9411 H   0  0  0  0  0  0  0  0  0  0  0  0
   -7.5466    2.4770    0.0373 H   0  0  0  0  0  0  0  0  0  0  0  0
   -9.2872   -0.6477    0.6818 H   0  0  0  0  0  0  0  0  0  0  0  0
  -10.2175   -1.1764   -0.7284 H   0  0  0  0  0  0  0  0  0  0  0  0
   -8.6413   -1.8921   -0.3926 H   0  0  0  0  0  0  0  0  0  0  0  0
  -10.4593    1.1136   -1.6690 H   0  0  0  0  0  0  0  0  0  0  0  0
   -9.0723    2.1960   -1.8131 H   0  0  0  0  0  0  0  0  0  0  0  0
   -9.6866    1.7334   -0.2125 H   0  0  0  0  0  0  0  0  0  0  0  0
   -9.4175   -0.5140   -3.1165 H   0  0  0  0  0  0  0  0  0  0  0  0
   -7.8765   -1.2860   -2.7646 H   0  0  0  0  0  0  0  0  0  0  0  0
   -7.9091    0.3966   -3.3057 H   0  0  0  0  0  0  0  0  0  0  0  0
   -6.3383   -1.5165   -1.1118 H   0  0  0  0  0  0  0  0  0  0  0  0
   -4.1297   -1.1073   -0.1957 H   0  0  0  0  0  0  0  0  0  0  0  0
    1.3325    2.6037    0.5411 H   0  0  0  0  0  0  0  0  0  0  0  0
    1.8430    1.4666    1.7993 H   0  0  0  0  0  0  0  0  0  0  0  0
    3.7552    2.8204    1.2548 H   0  0  0  0  0  0  0  0  0  0  0  0
    3.5207    2.6336   -0.4840 H   0  0  0  0  0  0  0  0  0  0  0  0
    5.9181    1.6898   -0.6530 H   0  0  0  0  0  0  0  0  0  0  0  0
    5.9645    2.0656    1.0659 H   0  0  0  0  0  0  0  0  0  0  0  0
    6.4787   -0.3306    1.6364 H   0  0  0  0  0  0  0  0  0  0  0  0
    7.7062    0.1303   -1.1490 H   0  0  0  0  0  0  0  0  0  0  0  0
    7.0081   -2.6573    1.2158 H   0  0  0  0  0  0  0  0  0  0  0  0
    8.5473   -4.5369    1.6154 H   0  0  0  0  0  0  0  0  0  0  0  0
   10.8649   -4.4708    0.7291 H   0  0  0  0  0  0  0  0  0  0  0  0
   11.6358   -2.4986   -0.5650 H   0  0  0  0  0  0  0  0  0  0  0  0
   10.1136   -0.6012   -0.9653 H   0  0  0  0  0  0  0  0  0  0  0  0
    4.5364   -0.0913   -1.3933 H   0  0  0  0  0  0  0  0  0  0  0  0
    3.9189   -1.0566   -0.0550 H   0  0  0  0  0  0  0  0  0  0  0  0
    2.4369    0.8719   -1.8801 H   0  0  0  0  0  0  0  0  0  0  0  0
    2.0773   -0.8164   -1.5157 H   0  0  0  0  0  0  0  0  0  0  0  0
  1  2  1  0
  2  3  1  0
  3  4  1  0
  4  5  2  0
  4  6  1  0
  6  7  2  0
  7  8  1  0
  8  9  2  0
  9 10  1  0
 10 11  1  0
 10 12  1  0
 10 13  1  0
  9 14  1  0
 14 15  2  0
  2 16  1  0
 16 17  2  0
 16 18  1  0
 18 19  1  0
 19 20  1  0
 20 21  1  0
 21 22  1  0
 22 23  1  0
 23 24  2  3
 24 25  1  0
 25 26  2  0
 26 27  1  0
 27 28  2  0
 28 29  1  0
 29 30  2  0
 21 31  1  0
 31 32  1  0
 15  6  1  0
 32 18  1  0
 30 25  1  0
  1 33  1  0
  1 34  1  0
  1 35  1  0
  2 36  1  0
  3 37  1  0
  7 38  1  0
  8 39  1  0
 11 40  1  0
 11 41  1  0
 11 42  1  0
 12 43  1  0
 12 44  1  0
 12 45  1  0
 13 46  1  0
 13 47  1  0
 13 48  1  0
 14 49  1  0
 15 50  1  0
 19 51  1  0
 19 52  1  0
 20 53  1  0
 20 54  1  0
 22 55  1  0
 22 56  1  0
 23 57  1  0
 24 58  1  0
 26 59  1  0
 27 60  1  0
 28 61  1  0
 29 62  1  0
 30 63  1  0
 31 64  1  0
 31 65  1  0
 32 66  1  0
 32 67  1  0
M  END
$$$$
