
     RDKit          3D

 44 46  0  0  0  0  0  0  0  0999 V2000
   -6.9044    1.1974   -1.1003 C   0  0  0  0  0  0  0  0  0  0  0  0
   -5.9083    0.2362   -0.5194 C   0  0  0  0  0  0  0  0  0  0  0  0
   -6.3245   -1.0178   -0.0598 C   0  0  0  0  0  0  0  0  0  0  0  0
   -5.4060   -1.8996    0.5101 C   0  0  0  0  0  0  0  0  0  0  0  0
   -4.0565   -1.5408    0.6372 C   0  0  0  0  0  0  0  0  0  0  0  0
   -3.0820   -2.5132    1.2489 C   0  0  0  0  0  0  0  0  0  0  0  0
   -3.6319   -0.2748    0.1900 C   0  0  0  0  0  0  0  0  0  0  0  0
   -2.2978   -0.0055    0.3618 O   0  0  0  0  0  0  0  0  0  0  0  0
   -1.8018    1.2191   -0.1755 C   0  0  0  0  0  0  0  0  0  0  0  0
   -0.3381    1.2450    0.0527 C   0  0  0  0  0  0  0  0  0  0  0  0
    0.5697    0.4341    0.6872 C   0  0  0  0  0  0  0  0  0  0  0  0
    1.8328    1.0668    0.5038 C   0  0  0  0  0  0  0  0  0  0  0  0
    3.1199    0.5569    1.0190 C   0  0  0  0  0  0  0  0  0  0  0  0
    3.1122   -0.4197    1.7763 O   0  0  0  0  0  0  0  0  0  0  0  0
    4.3373    1.1699    0.6717 N   0  0  0  0  0  0  0  0  0  0  0  0
    4.4736    2.1839   -0.3651 C   0  0  0  0  0  0  0  0  0  0  0  0
    5.5588    0.4589    1.0526 C   0  0  0  0  0  0  0  0  0  0  0  0
    5.9684   -0.5485    0.0059 C   0  0  0  0  0  0  0  0  0  0  0  0
    5.3491   -0.7766   -1.1387 N   0  0  0  0  0  0  0  0  0  0  0  0
    6.0079   -1.7636   -1.8423 C   0  0  0  0  0  0  0  0  0  0  0  0
    7.1338   -2.2770   -1.2343 C   0  0  0  0  0  0  0  0  0  0  0  0
    7.3734   -1.5149    0.2810 S   0  0  0  0  0  0  0  0  0  0  0  0
    1.6687    2.2082   -0.1882 N   0  0  0  0  0  0  0  0  0  0  0  0
    0.3236    2.3075   -0.4734 O   0  0  0  0  0  0  0  0  0  0  0  0
   -4.5620    0.6059   -0.3760 C   0  0  0  0  0  0  0  0  0  0  0  0
   -7.3569    1.7924   -0.3023 H   0  0  0  0  0  0  0  0  0  0  0  0
   -6.4254    1.8735   -1.8184 H   0  0  0  0  0  0  0  0  0  0  0  0
   -7.6959    0.6629   -1.6381 H   0  0  0  0  0  0  0  0  0  0  0  0
   -7.3672   -1.3188   -0.1434 H   0  0  0  0  0  0  0  0  0  0  0  0
   -5.7513   -2.8726    0.8547 H   0  0  0  0  0  0  0  0  0  0  0  0
   -2.6525   -2.0956    2.1688 H   0  0  0  0  0  0  0  0  0  0  0  0
   -2.2775   -2.7387    0.5399 H   0  0  0  0  0  0  0  0  0  0  0  0
   -3.5668   -3.4616    1.5080 H   0  0  0  0  0  0  0  0  0  0  0  0
   -1.9974    1.2703   -1.2539 H   0  0  0  0  0  0  0  0  0  0  0  0
   -2.2591    2.0737    0.3379 H   0  0  0  0  0  0  0  0  0  0  0  0
    0.3691   -0.4943    1.2057 H   0  0  0  0  0  0  0  0  0  0  0  0
    5.5275    2.4421   -0.5131 H   0  0  0  0  0  0  0  0  0  0  0  0
    4.0617    1.8115   -1.3070 H   0  0  0  0  0  0  0  0  0  0  0  0
    3.9565    3.0934   -0.0520 H   0  0  0  0  0  0  0  0  0  0  0  0
    5.4122   -0.0491    2.0130 H   0  0  0  0  0  0  0  0  0  0  0  0
    6.3533    1.2000    1.2003 H   0  0  0  0  0  0  0  0  0  0  0  0
    5.6204   -2.0736   -2.8065 H   0  0  0  0  0  0  0  0  0  0  0  0
    7.8028   -3.0457   -1.5942 H   0  0  0  0  0  0  0  0  0  0  0  0
   -4.2694    1.5926   -0.7129 H   0  0  0  0  0  0  0  0  0  0  0  0
  1  2  1  0
  2  3  2  0
  3  4  1  0
  4  5  2  0
  5  6  1  0
  5  7  1  0
  7  8  1  0
  8  9  1  0
  9 10  1  0
 10 11  2  0
 11 12  1  0
 12 13  1  0
 13 14  2  0
 13 15  1  0
 15 16  1  0
 15 17  1  0
 17 18  1  0
 18 19  2  0
 19 20  1  0
 20 21  2  0
 21 22  1  0
 12 23  2  0
 23 24  1  0
  7 25  2  0
 25  2  1  0
 24 10  1  0
 22 18  1  0
  1 26  1  0
  1 27  1  0
  1 28  1  0
  3 29  1  0
  4 30  1  0
  6 31  1  0
  6 32  1  0
  6 33  1  0
  9 34  1  0
  9 35  1  0
 11 36  1  0
 16 37  1  0
 16 38  1  0
 16 39  1  0
 17 40  1  0
 17 41  1  0
 20 42  1  0
 21 43  1  0
 25 44  1  0
M  END
$$$$
