
     RDKit          3D

 73 75  0  0  0  0  0  0  0  0999 V2000
    9.4892   -0.7597    1.5849 C   0  0  0  0  0  0  0  0  0  0  0  0
    9.4096    0.7591    1.6016 C   0  0  0  0  0  0  0  0  0  0  0  0
    8.5678    1.3408    0.4637 C   0  0  0  0  0  0  0  0  0  0  0  0
    7.0859    0.9652    0.5516 C   0  0  0  0  0  0  0  0  0  0  0  0
    6.2740    1.6624   -0.5437 C   0  0  0  0  0  0  0  0  0  0  0  0
    4.7659    1.4096   -0.4405 C   0  0  0  0  0  0  0  0  0  0  0  0
    4.3722   -0.0399   -0.7378 C   0  0  0  0  0  0  0  0  0  0  0  0
    2.8656   -0.2987   -0.6184 C   0  0  0  0  0  0  0  0  0  0  0  0
    2.0409    0.3842   -1.7130 C   0  0  0  0  0  0  0  0  0  0  0  0
    0.5321    0.1304   -1.5840 C   0  0  0  0  0  0  0  0  0  0  0  0
    0.1580   -1.3344   -1.8238 C   0  0  0  0  0  0  0  0  0  0  0  0
   -1.3739   -1.5952   -1.8441 N   0  0  0  0  0  4  0  0  0  0  0  0
   -1.5539   -3.0995   -2.0926 C   0  0  0  0  0  0  0  0  0  0  0  0
   -2.0274   -0.8375   -2.9991 C   0  0  0  0  0  0  0  0  0  0  0  0
   -1.9947   -1.1905   -0.4854 C   0  0  0  0  0  0  0  0  0  0  0  0
   -3.4660   -1.5946   -0.3227 C   0  0  0  0  0  0  0  0  0  0  0  0
   -4.0458   -1.0723    0.9675 C   0  0  0  0  0  0  0  0  0  0  0  0
   -5.0050   -0.1331    1.1380 C   0  0  0  0  0  0  0  0  0  0  0  0
   -5.6370    0.5839    0.0013 C   0  0  0  0  0  0  0  0  0  0  0  0
   -4.8831    1.3054   -0.9367 C   0  0  0  0  0  0  0  0  0  0  0  0
   -5.5133    1.9746   -1.9875 C   0  0  0  0  0  0  0  0  0  0  0  0
   -6.9017    1.9451   -2.0994 C   0  0  0  0  0  0  0  0  0  0  0  0
   -7.6656    1.2722   -1.1450 C   0  0  0  0  0  0  0  0  0  0  0  0
   -7.0429    0.6096   -0.0810 C   0  0  0  0  0  0  0  0  0  0  0  0
   -8.0729   -0.1526    1.1738 S   0  0  0  0  0  0  0  0  0  0  0  0
   -7.0087   -0.0029    2.6121 C   0  0  0  0  0  0  0  0  0  0  0  0
   -7.6034    0.1069    3.8751 C   0  0  0  0  0  0  0  0  0  0  0  0
   -6.8103    0.2375    5.0172 C   0  0  0  0  0  0  0  0  0  0  0  0
   -5.4230    0.2620    4.8969 C   0  0  0  0  0  0  0  0  0  0  0  0
   -4.4451    0.4345    6.3016 Cl  0  0  0  0  0  0  0  0  0  0  0  0
   -4.8152    0.1469    3.6468 C   0  0  0  0  0  0  0  0  0  0  0  0
   -5.6024   -0.0029    2.4958 C   0  0  0  0  0  0  0  0  0  0  0  0
   10.1833   -1.1075    2.3568 H   0  0  0  0  0  0  0  0  0  0  0  0
    8.5152   -1.2148    1.7877 H   0  0  0  0  0  0  0  0  0  0  0  0
    9.8483   -1.1242    0.6173 H   0  0  0  0  0  0  0  0  0  0  0  0
    9.0127    1.0927    2.5675 H   0  0  0  0  0  0  0  0  0  0  0  0
   10.4265    1.1616    1.5211 H   0  0  0  0  0  0  0  0  0  0  0  0
    8.9756    1.0128   -0.5003 H   0  0  0  0  0  0  0  0  0  0  0  0
    8.6641    2.4333    0.4922 H   0  0  0  0  0  0  0  0  0  0  0  0
    6.9790   -0.1196    0.4546 H   0  0  0  0  0  0  0  0  0  0  0  0
    6.6932    1.2475    1.5356 H   0  0  0  0  0  0  0  0  0  0  0  0
    6.6341    1.3480   -1.5309 H   0  0  0  0  0  0  0  0  0  0  0  0
    6.4420    2.7446   -0.4763 H   0  0  0  0  0  0  0  0  0  0  0  0
    4.4128    1.6937    0.5580 H   0  0  0  0  0  0  0  0  0  0  0  0
    4.2704    2.0773   -1.1539 H   0  0  0  0  0  0  0  0  0  0  0  0
    4.7163   -0.3212   -1.7403 H   0  0  0  0  0  0  0  0  0  0  0  0
    4.8769   -0.7074   -0.0306 H   0  0  0  0  0  0  0  0  0  0  0  0
    2.7133   -1.3826   -0.6708 H   0  0  0  0  0  0  0  0  0  0  0  0
    2.5140    0.0236    0.3691 H   0  0  0  0  0  0  0  0  0  0  0  0
    2.3865    0.0533   -2.6998 H   0  0  0  0  0  0  0  0  0  0  0  0
    2.1972    1.4676   -1.6695 H   0  0  0  0  0  0  0  0  0  0  0  0
    0.0306    0.7745   -2.3134 H   0  0  0  0  0  0  0  0  0  0  0  0
    0.2091    0.4562   -0.5897 H   0  0  0  0  0  0  0  0  0  0  0  0
    0.5487   -1.6754   -2.7900 H   0  0  0  0  0  0  0  0  0  0  0  0
    0.5659   -1.9775   -1.0364 H   0  0  0  0  0  0  0  0  0  0  0  0
   -1.0063   -3.3666   -3.0015 H   0  0  0  0  0  0  0  0  0  0  0  0
   -1.1560   -3.6407   -1.2294 H   0  0  0  0  0  0  0  0  0  0  0  0
   -2.6166   -3.3143   -2.2309 H   0  0  0  0  0  0  0  0  0  0  0  0
   -3.0427   -1.2159   -3.1431 H   0  0  0  0  0  0  0  0  0  0  0  0
   -2.0587    0.2264   -2.7528 H   0  0  0  0  0  0  0  0  0  0  0  0
   -1.4372   -1.0113   -3.9035 H   0  0  0  0  0  0  0  0  0  0  0  0
   -1.3814   -1.6595    0.2937 H   0  0  0  0  0  0  0  0  0  0  0  0
   -1.8943   -0.1036   -0.4017 H   0  0  0  0  0  0  0  0  0  0  0  0
   -4.0620   -1.2783   -1.1813 H   0  0  0  0  0  0  0  0  0  0  0  0
   -3.5505   -2.6872   -0.2869 H   0  0  0  0  0  0  0  0  0  0  0  0
   -3.6977   -1.6207    1.8456 H   0  0  0  0  0  0  0  0  0  0  0  0
   -3.8056    1.3825   -0.8374 H   0  0  0  0  0  0  0  0  0  0  0  0
   -4.9286    2.5416   -2.7082 H   0  0  0  0  0  0  0  0  0  0  0  0
   -7.3966    2.4737   -2.9115 H   0  0  0  0  0  0  0  0  0  0  0  0
   -8.7510    1.2908   -1.2240 H   0  0  0  0  0  0  0  0  0  0  0  0
   -8.6867    0.0988    3.9793 H   0  0  0  0  0  0  0  0  0  0  0  0
   -7.2819    0.3266    5.9931 H   0  0  0  0  0  0  0  0  0  0  0  0
   -3.7320    0.1849    3.5761 H   0  0  0  0  0  0  0  0  0  0  0  0
  1  2  1  0
  2  3  1  0
  3  4  1  0
  4  5  1  0
  5  6  1  0
  6  7  1  0
  7  8  1  0
  8  9  1  0
  9 10  1  0
 10 11  1  0
 11 12  1  0
 12 13  1  0
 12 14  1  0
 12 15  1  0
 15 16  1  0
 16 17  1  0
 17 18  2  3
 18 19  1  0
 19 20  2  0
 20 21  1  0
 21 22  2  0
 22 23  1  0
 23 24  2  0
 24 25  1  0
 25 26  1  0
 26 27  2  0
 27 28  1  0
 28 29  2  0
 29 30  1  0
 29 31  1  0
 31 32  2  0
 32 18  1  0
 24 19  1  0
 32 26  1  0
  1 33  1  0
  1 34  1  0
  1 35  1  0
  2 36  1  0
  2 37  1  0
  3 38  1  0
  3 39  1  0
  4 40  1  0
  4 41  1  0
  5 42  1  0
  5 43  1  0
  6 44  1  0
  6 45  1  0
  7 46  1  0
  7 47  1  0
  8 48  1  0
  8 49  1  0
  9 50  1  0
  9 51  1  0
 10 52  1  0
 10 53  1  0
 11 54  1  0
 11 55  1  0
 13 56  1  0
 13 57  1  0
 13 58  1  0
 14 59  1  0
 14 60  1  0
 14 61  1  0
 15 62  1  0
 15 63  1  0
 16 64  1  0
 16 65  1  0
 17 66  1  0
 20 67  1  0
 21 68  1  0
 22 69  1  0
 23 70  1  0
 27 71  1  0
 28 72  1  0
 31 73  1  0
M  CHG  1  12   1
M  END
$$$$
