
     RDKit          3D

 51 54  0  0  0  0  0  0  0  0999 V2000
    2.9315   -1.9108    0.5949 C   0  0  0  0  0  0  0  0  0  0  0  0
    2.8605   -0.6039    1.3910 C   0  0  0  0  0  0  0  0  0  0  0  0
    1.7169   -0.6658    2.4269 C   0  0  0  0  0  0  0  0  0  0  0  0
    0.6864    0.2171    1.8000 C   0  0  0  0  0  0  0  0  0  0  0  0
   -0.6206    0.4079    2.2254 C   0  0  0  0  0  0  0  0  0  0  0  0
   -1.4008    1.3426    1.5382 C   0  0  0  0  0  0  0  0  0  0  0  0
   -3.0776    1.6202    2.0591 S   0  0  0  0  0  6  0  0  0  0  0  0
   -3.5281    2.8699    1.4893 O   0  0  0  0  0  0  0  0  0  0  0  0
   -3.1430    1.3604    3.4802 O   0  0  0  0  0  0  0  0  0  0  0  0
   -3.9008    0.3786    1.3091 N   0  0  0  0  0  0  0  0  0  0  0  0
   -3.9040    0.2898   -0.1447 C   0  0  0  0  0  0  0  0  0  0  0  0
   -4.9618   -0.6756   -0.6206 C   0  0  0  0  0  0  0  0  0  0  0  0
   -6.3204   -0.3633   -0.4625 C   0  0  0  0  0  0  0  0  0  0  0  0
   -7.3066   -1.2530   -0.8901 C   0  0  0  0  0  0  0  0  0  0  0  0
   -6.9455   -2.4639   -1.4774 C   0  0  0  0  0  0  0  0  0  0  0  0
   -5.5990   -2.7872   -1.6360 C   0  0  0  0  0  0  0  0  0  0  0  0
   -4.6103   -1.8990   -1.2084 C   0  0  0  0  0  0  0  0  0  0  0  0
   -0.8672    2.0910    0.4763 C   0  0  0  0  0  0  0  0  0  0  0  0
    0.4553    1.8847    0.0665 C   0  0  0  0  0  0  0  0  0  0  0  0
    1.2226    0.9382    0.7293 C   0  0  0  0  0  0  0  0  0  0  0  0
    2.5644    0.5524    0.5045 N   0  0  0  0  0  0  0  0  0  0  0  0
    3.4239    1.1432   -0.4228 C   0  0  0  0  0  0  0  0  0  0  0  0
    3.0577    2.0480   -1.1862 O   0  0  0  0  0  0  0  0  0  0  0  0
    4.8979    0.6347   -0.4666 C   0  0  0  0  0  0  0  0  0  0  0  0
    5.3896    0.0235   -1.8103 C   0  0  0  0  0  0  0  0  0  0  0  0
    6.7538    0.6851   -1.5420 C   0  0  0  0  0  0  0  0  0  0  0  0
    6.0080    1.7089   -0.6665 C   0  0  0  0  0  0  0  0  0  0  0  0
    3.7296   -1.8871   -0.1513 H   0  0  0  0  0  0  0  0  0  0  0  0
    3.1249   -2.7576    1.2618 H   0  0  0  0  0  0  0  0  0  0  0  0
    1.9940   -2.1043    0.0615 H   0  0  0  0  0  0  0  0  0  0  0  0
    3.8121   -0.4391    1.9072 H   0  0  0  0  0  0  0  0  0  0  0  0
    2.0386   -0.2274    3.3782 H   0  0  0  0  0  0  0  0  0  0  0  0
    1.3470   -1.6807    2.6007 H   0  0  0  0  0  0  0  0  0  0  0  0
   -1.0166   -0.1399    3.0758 H   0  0  0  0  0  0  0  0  0  0  0  0
   -3.9962   -0.4777    1.8495 H   0  0  0  0  0  0  0  0  0  0  0  0
   -4.0924    1.2682   -0.6001 H   0  0  0  0  0  0  0  0  0  0  0  0
   -2.9219   -0.0524   -0.4890 H   0  0  0  0  0  0  0  0  0  0  0  0
   -6.6131    0.5777    0.0007 H   0  0  0  0  0  0  0  0  0  0  0  0
   -8.3563   -1.0009   -0.7632 H   0  0  0  0  0  0  0  0  0  0  0  0
   -7.7143   -3.1562   -1.8108 H   0  0  0  0  0  0  0  0  0  0  0  0
   -5.3194   -3.7327   -2.0940 H   0  0  0  0  0  0  0  0  0  0  0  0
   -3.5652   -2.1698   -1.3403 H   0  0  0  0  0  0  0  0  0  0  0  0
   -1.4707    2.8394   -0.0343 H   0  0  0  0  0  0  0  0  0  0  0  0
    0.8487    2.4703   -0.7578 H   0  0  0  0  0  0  0  0  0  0  0  0
    5.1704   -0.0099    0.3764 H   0  0  0  0  0  0  0  0  0  0  0  0
    4.8776    0.4113   -2.6988 H   0  0  0  0  0  0  0  0  0  0  0  0
    5.4026   -1.0685   -1.8594 H   0  0  0  0  0  0  0  0  0  0  0  0
    7.2668    1.0908   -2.4174 H   0  0  0  0  0  0  0  0  0  0  0  0
    7.4490    0.0497   -0.9816 H   0  0  0  0  0  0  0  0  0  0  0  0
    6.5330    2.0196    0.2409 H   0  0  0  0  0  0  0  0  0  0  0  0
    5.6889    2.6037   -1.2134 H   0  0  0  0  0  0  0  0  0  0  0  0
  1  2  1  0
  2  3  1  0
  3  4  1  0
  4  5  2  0
  5  6  1  0
  6  7  1  0
  7  8  2  0
  7  9  2  0
  7 10  1  0
 10 11  1  0
 11 12  1  0
 12 13  2  0
 13 14  1  0
 14 15  2  0
 15 16  1  0
 16 17  2  0
  6 18  2  0
 18 19  1  0
 19 20  2  0
 20 21  1  0
 21 22  1  0
 22 23  2  0
 22 24  1  0
 24 25  1  0
 25 26  1  0
 26 27  1  0
 21  2  1  0
 27 24  1  0
 20  4  1  0
 17 12  1  0
  1 28  1  0
  1 29  1  0
  1 30  1  0
  2 31  1  0
  3 32  1  0
  3 33  1  0
  5 34  1  0
 10 35  1  0
 11 36  1  0
 11 37  1  0
 13 38  1  0
 14 39  1  0
 15 40  1  0
 16 41  1  0
 17 42  1  0
 18 43  1  0
 19 44  1  0
 24 45  1  0
 25 46  1  0
 25 47  1  0
 26 48  1  0
 26 49  1  0
 27 50  1  0
 27 51  1  0
M  END
$$$$
