
     RDKit          3D

 51 53  0  0  0  0  0  0  0  0999 V2000
   -5.8833    0.2985   -4.0675 C   0  0  0  0  0  0  0  0  0  0  0  0
   -4.6565    0.9731   -3.8181 O   0  0  0  0  0  0  0  0  0  0  0  0
   -4.0314    0.5035   -2.6234 C   0  0  0  0  0  0  0  0  0  0  0  0
   -2.7447    1.2973   -2.4266 C   0  0  0  0  0  0  0  0  0  0  0  0
   -2.0454    0.9983   -1.1027 C   0  0  0  0  0  0  0  0  0  0  0  0
   -1.4893   -0.3343   -1.0088 N   0  0  0  0  0  0  0  0  0  0  0  0
   -0.2909   -0.7635   -1.5159 C   0  0  0  0  0  0  0  0  0  0  0  0
    0.8447    0.2450   -2.3408 S   0  0  0  0  0  0  0  0  0  0  0  0
    2.3327   -0.1363   -1.3672 C   0  0  0  0  0  0  0  0  0  0  0  0
    2.2261    0.3747    0.0565 C   0  0  0  0  0  0  0  0  0  0  0  0
    1.3370    1.0825    0.5116 O   0  0  0  0  0  0  0  0  0  0  0  0
    3.3188   -0.0466    0.7615 O   0  0  0  0  0  0  0  0  0  0  0  0
    3.3815    0.3560    2.1467 C   0  0  0  0  0  0  0  0  0  0  0  0
    3.8913    1.8034    2.2599 C   0  0  0  0  0  0  0  0  0  0  0  0
    5.4077    1.9148    2.4605 C   0  0  0  0  0  0  0  0  0  0  0  0
    6.1614    0.7881    1.7705 C   0  0  0  0  0  0  0  0  0  0  0  0
    5.7442   -0.5853    2.3012 C   0  0  0  0  0  0  0  0  0  0  0  0
    4.3178   -0.6205    2.8610 C   0  0  0  0  0  0  0  0  0  0  0  0
   -0.1224   -2.0388   -1.2657 N   0  0  0  0  0  0  0  0  0  0  0  0
   -1.2344   -2.4753   -0.5899 N   0  0  0  0  0  0  0  0  0  0  0  0
   -2.0366   -1.4439   -0.4032 C   0  0  0  0  0  0  0  0  0  0  0  0
   -3.3009   -1.5530    0.2588 C   0  0  0  0  0  0  0  0  0  0  0  0
   -4.3144   -2.4327   -0.0707 C   0  0  0  0  0  0  0  0  0  0  0  0
   -5.4443   -2.3104    0.7890 C   0  0  0  0  0  0  0  0  0  0  0  0
   -5.2444   -1.3615    1.7662 C   0  0  0  0  0  0  0  0  0  0  0  0
   -3.6986   -0.6388    1.6505 S   0  0  0  0  0  0  0  0  0  0  0  0
   -6.3042    0.6814   -5.0005 H   0  0  0  0  0  0  0  0  0  0  0  0
   -6.5959    0.4924   -3.2593 H   0  0  0  0  0  0  0  0  0  0  0  0
   -5.7166   -0.7776   -4.1738 H   0  0  0  0  0  0  0  0  0  0  0  0
   -3.8149   -0.5645   -2.7282 H   0  0  0  0  0  0  0  0  0  0  0  0
   -4.7078    0.6553   -1.7747 H   0  0  0  0  0  0  0  0  0  0  0  0
   -2.0763    1.1151   -3.2769 H   0  0  0  0  0  0  0  0  0  0  0  0
   -2.9822    2.3679   -2.4654 H   0  0  0  0  0  0  0  0  0  0  0  0
   -1.2252    1.7080   -0.9475 H   0  0  0  0  0  0  0  0  0  0  0  0
   -2.7323    1.1639   -0.2712 H   0  0  0  0  0  0  0  0  0  0  0  0
    2.5046   -1.2167   -1.3606 H   0  0  0  0  0  0  0  0  0  0  0  0
    3.1834    0.3587   -1.8451 H   0  0  0  0  0  0  0  0  0  0  0  0
    2.3808    0.2722    2.5901 H   0  0  0  0  0  0  0  0  0  0  0  0
    3.6127    2.3763    1.3672 H   0  0  0  0  0  0  0  0  0  0  0  0
    3.4043    2.2925    3.1126 H   0  0  0  0  0  0  0  0  0  0  0  0
    5.7564    2.8864    2.0903 H   0  0  0  0  0  0  0  0  0  0  0  0
    5.6336    1.8932    3.5354 H   0  0  0  0  0  0  0  0  0  0  0  0
    7.2422    0.9197    1.8985 H   0  0  0  0  0  0  0  0  0  0  0  0
    5.9693    0.8359    0.6903 H   0  0  0  0  0  0  0  0  0  0  0  0
    5.8462   -1.3203    1.4933 H   0  0  0  0  0  0  0  0  0  0  0  0
    6.4369   -0.9036    3.0902 H   0  0  0  0  0  0  0  0  0  0  0  0
    3.9346   -1.6448    2.7736 H   0  0  0  0  0  0  0  0  0  0  0  0
    4.3410   -0.3807    3.9317 H   0  0  0  0  0  0  0  0  0  0  0  0
   -4.2441   -3.1350   -0.8943 H   0  0  0  0  0  0  0  0  0  0  0  0
   -6.3490   -2.9003    0.7049 H   0  0  0  0  0  0  0  0  0  0  0  0
   -5.9232   -1.0697    2.5558 H   0  0  0  0  0  0  0  0  0  0  0  0
  1  2  1  0
  2  3  1  0
  3  4  1  0
  4  5  1  0
  5  6  1  0
  6  7  1  0
  7  8  1  0
  8  9  1  0
  9 10  1  0
 10 11  2  0
 10 12  1  0
 12 13  1  0
 13 14  1  0
 14 15  1  0
 15 16  1  0
 16 17  1  0
 17 18  1  0
  7 19  2  0
 19 20  1  0
 20 21  2  0
 21 22  1  0
 22 23  2  0
 23 24  1  0
 24 25  2  0
 25 26  1  0
 21  6  1  0
 26 22  1  0
 18 13  1  0
  1 27  1  0
  1 28  1  0
  1 29  1  0
  3 30  1  0
  3 31  1  0
  4 32  1  0
  4 33  1  0
  5 34  1  0
  5 35  1  0
  9 36  1  0
  9 37  1  0
 13 38  1  0
 14 39  1  0
 14 40  1  0
 15 41  1  0
 15 42  1  0
 16 43  1  0
 16 44  1  0
 17 45  1  0
 17 46  1  0
 18 47  1  0
 18 48  1  0
 23 49  1  0
 24 50  1  0
 25 51  1  0
M  END
$$$$
