
     RDKit          3D

 36 37  0  0  0  0  0  0  0  0999 V2000
    5.4529    1.0109   -0.0525 C   0  0  0  0  0  0  0  0  0  0  0  0
    4.4203    0.7585   -1.0223 N   0  0  0  0  0  0  0  0  0  0  0  0
    3.6150   -0.3585   -0.9095 C   0  0  0  0  0  0  0  0  0  0  0  0
    3.7843   -1.2217   -0.0535 O   0  0  0  0  0  0  0  0  0  0  0  0
    2.5176   -0.4461   -1.9701 C   0  0  0  0  0  0  0  0  0  0  0  0
    1.4653   -1.3283   -1.5818 O   0  0  0  0  0  0  0  0  0  0  0  0
    0.5862   -0.7877   -0.7010 C   0  0  0  0  0  0  0  0  0  0  0  0
    0.5611    0.3862   -0.3585 O   0  0  0  0  0  0  0  0  0  0  0  0
   -0.4030   -1.8050   -0.2450 C   0  0  0  0  0  0  0  0  0  0  0  0
   -0.0815   -3.1712   -0.3470 C   0  0  0  0  0  0  0  0  0  0  0  0
   -0.9898   -4.1446    0.0613 C   0  0  0  0  0  0  0  0  0  0  0  0
   -2.2218   -3.7616    0.5747 C   0  0  0  0  0  0  0  0  0  0  0  0
   -2.5470   -2.4066    0.6931 C   0  0  0  0  0  0  0  0  0  0  0  0
   -1.6480   -1.4078    0.2958 C   0  0  0  0  0  0  0  0  0  0  0  0
   -1.9516   -0.0304    0.4206 N   0  0  0  0  0  0  0  0  0  0  0  0
   -3.1034    0.5725    0.8930 C   0  0  0  0  0  0  0  0  0  0  0  0
   -4.1064   -0.0158    1.2841 O   0  0  0  0  0  0  0  0  0  0  0  0
   -3.0259    2.0231    0.8806 C   0  0  0  0  0  0  0  0  0  0  0  0
   -3.9324    2.9866    1.2857 C   0  0  0  0  0  0  0  0  0  0  0  0
   -3.3268    4.2432    1.0445 C   0  0  0  0  0  0  0  0  0  0  0  0
   -2.0885    3.9751    0.5112 C   0  0  0  0  0  0  0  0  0  0  0  0
   -1.8946    2.6362    0.4069 O   0  0  0  0  0  0  0  0  0  0  0  0
    4.9905    1.1803    0.9301 H   0  0  0  0  0  0  0  0  0  0  0  0
    6.0133    1.8997   -0.3639 H   0  0  0  0  0  0  0  0  0  0  0  0
    6.1207    0.1421    0.0002 H   0  0  0  0  0  0  0  0  0  0  0  0
    4.1284    1.5200   -1.6197 H   0  0  0  0  0  0  0  0  0  0  0  0
    2.9700   -0.8535   -2.8816 H   0  0  0  0  0  0  0  0  0  0  0  0
    2.1279    0.5471   -2.2163 H   0  0  0  0  0  0  0  0  0  0  0  0
    0.8841   -3.4887   -0.7327 H   0  0  0  0  0  0  0  0  0  0  0  0
   -0.7346   -5.1982   -0.0188 H   0  0  0  0  0  0  0  0  0  0  0  0
   -2.9382   -4.5159    0.8955 H   0  0  0  0  0  0  0  0  0  0  0  0
   -3.5198   -2.1677    1.1127 H   0  0  0  0  0  0  0  0  0  0  0  0
   -1.2061    0.6222    0.1585 H   0  0  0  0  0  0  0  0  0  0  0  0
   -4.9103    2.7893    1.7069 H   0  0  0  0  0  0  0  0  0  0  0  0
   -3.7405    5.2232    1.2424 H   0  0  0  0  0  0  0  0  0  0  0  0
   -1.2673    4.5929    0.1748 H   0  0  0  0  0  0  0  0  0  0  0  0
  1  2  1  0
  2  3  1  0
  3  4  2  0
  3  5  1  0
  5  6  1  0
  6  7  1  0
  7  8  2  0
  7  9  1  0
  9 10  2  0
 10 11  1  0
 11 12  2  0
 12 13  1  0
 13 14  2  0
 14 15  1  0
 15 16  1  0
 16 17  2  0
 16 18  1  0
 18 19  2  0
 19 20  1  0
 20 21  2  0
 21 22  1  0
 14  9  1  0
 22 18  1  0
  1 23  1  0
  1 24  1  0
  1 25  1  0
  2 26  1  0
  5 27  1  0
  5 28  1  0
 10 29  1  0
 11 30  1  0
 12 31  1  0
 13 32  1  0
 15 33  1  0
 19 34  1  0
 20 35  1  0
 21 36  1  0
M  END
$$$$
