
     RDKit          3D

 50 54  0  0  0  0  0  0  0  0999 V2000
    6.4667    2.9581    2.0624 F   0  0  0  0  0  0  0  0  0  0  0  0
    5.7118    2.0266    1.4650 C   0  0  0  0  0  0  0  0  0  0  0  0
    5.4484    0.8327    2.1262 C   0  0  0  0  0  0  0  0  0  0  0  0
    4.6613   -0.1397    1.5068 C   0  0  0  0  0  0  0  0  0  0  0  0
    4.1350    0.0849    0.2246 C   0  0  0  0  0  0  0  0  0  0  0  0
    3.2882   -0.9714   -0.4569 C   0  0  0  0  0  0  0  0  0  0  0  0
    1.9530   -0.4847   -0.8383 N   0  0  0  0  0  0  0  0  0  0  0  0
    1.1035   -0.2412    0.3510 C   0  0  0  0  0  0  0  0  0  0  0  0
   -0.3207    0.2319   -0.0247 C   0  0  0  0  0  0  0  0  0  0  0  0
   -0.9996   -0.7113   -0.9392 N   0  0  0  0  0  0  0  0  0  0  0  0
   -1.6127   -1.7800   -0.2758 C   0  0  0  0  0  0  0  0  0  0  0  0
   -1.0687   -3.0194   -0.3780 N   0  0  0  0  0  0  0  0  0  0  0  0
   -1.6287   -4.0440    0.2780 C   0  0  0  0  0  0  0  0  0  0  0  0
   -2.7081   -4.0142    1.0544 N   0  0  0  0  0  0  0  0  0  0  0  0
   -3.2600   -2.7916    1.1106 C   0  0  0  0  0  0  0  0  0  0  0  0
   -4.6714   -2.5535    2.0326 S   0  0  0  0  0  0  0  0  0  0  0  0
   -4.7546   -0.9122    1.5844 C   0  0  0  0  0  0  0  0  0  0  0  0
   -3.7132   -0.5348    0.7554 C   0  0  0  0  0  0  0  0  0  0  0  0
   -3.6697    0.8315    0.2431 C   0  0  0  0  0  0  0  0  0  0  0  0
   -3.6157    1.9196    1.1253 C   0  0  0  0  0  0  0  0  0  0  0  0
   -3.5782    3.2255    0.6321 C   0  0  0  0  0  0  0  0  0  0  0  0
   -3.5969    3.4525   -0.7432 C   0  0  0  0  0  0  0  0  0  0  0  0
   -3.6534    2.3757   -1.6268 C   0  0  0  0  0  0  0  0  0  0  0  0
   -3.6920    1.0690   -1.1359 C   0  0  0  0  0  0  0  0  0  0  0  0
   -2.8063   -1.6382    0.4833 C   0  0  0  0  0  0  0  0  0  0  0  0
   -0.1586   -1.0702   -2.0980 C   0  0  0  0  0  0  0  0  0  0  0  0
    1.2803   -1.4808   -1.7054 C   0  0  0  0  0  0  0  0  0  0  0  0
    4.4177    1.2979   -0.4265 C   0  0  0  0  0  0  0  0  0  0  0  0
    5.2042    2.2685    0.1947 C   0  0  0  0  0  0  0  0  0  0  0  0
    5.8571    0.6673    3.1177 H   0  0  0  0  0  0  0  0  0  0  0  0
    4.4591   -1.0712    2.0305 H   0  0  0  0  0  0  0  0  0  0  0  0
    3.2104   -1.8658    0.1756 H   0  0  0  0  0  0  0  0  0  0  0  0
    3.8420   -1.2780   -1.3547 H   0  0  0  0  0  0  0  0  0  0  0  0
    1.0343   -1.1499    0.9638 H   0  0  0  0  0  0  0  0  0  0  0  0
    1.5501    0.5398    0.9770 H   0  0  0  0  0  0  0  0  0  0  0  0
   -0.8910    0.4004    0.8953 H   0  0  0  0  0  0  0  0  0  0  0  0
   -0.2531    1.2047   -0.5286 H   0  0  0  0  0  0  0  0  0  0  0  0
   -1.1425   -5.0077    0.1653 H   0  0  0  0  0  0  0  0  0  0  0  0
   -5.5763   -0.3036    1.9390 H   0  0  0  0  0  0  0  0  0  0  0  0
   -3.5928    1.7594    2.2007 H   0  0  0  0  0  0  0  0  0  0  0  0
   -3.5328    4.0654    1.3205 H   0  0  0  0  0  0  0  0  0  0  0  0
   -3.5657    4.4688   -1.1275 H   0  0  0  0  0  0  0  0  0  0  0  0
   -3.6634    2.5507   -2.6994 H   0  0  0  0  0  0  0  0  0  0  0  0
   -3.7273    0.2385   -1.8375 H   0  0  0  0  0  0  0  0  0  0  0  0
   -0.1016   -0.1874   -2.7485 H   0  0  0  0  0  0  0  0  0  0  0  0
   -0.6291   -1.8558   -2.7029 H   0  0  0  0  0  0  0  0  0  0  0  0
    1.8569   -1.5970   -2.6315 H   0  0  0  0  0  0  0  0  0  0  0  0
    1.2698   -2.4613   -1.2143 H   0  0  0  0  0  0  0  0  0  0  0  0
    4.0132    1.4874   -1.4190 H   0  0  0  0  0  0  0  0  0  0  0  0
    5.4209    3.2080   -0.3026 H   0  0  0  0  0  0  0  0  0  0  0  0
  1  2  1  0
  2  3  2  0
  3  4  1  0
  4  5  2  0
  5  6  1  0
  6  7  1  0
  7  8  1  0
  8  9  1  0
  9 10  1  0
 10 11  1  0
 11 12  2  0
 12 13  1  0
 13 14  2  0
 14 15  1  0
 15 16  1  0
 16 17  1  0
 17 18  2  0
 18 19  1  0
 19 20  2  0
 20 21  1  0
 21 22  2  0
 22 23  1  0
 23 24  2  0
 18 25  1  0
 10 26  1  0
 26 27  1  0
  5 28  1  0
 28 29  2  0
 29  2  1  0
 27  7  1  0
 25 11  1  0
 25 15  2  0
 24 19  1  0
  3 30  1  0
  4 31  1  0
  6 32  1  0
  6 33  1  0
  8 34  1  0
  8 35  1  0
  9 36  1  0
  9 37  1  0
 13 38  1  0
 17 39  1  0
 20 40  1  0
 21 41  1  0
 22 42  1  0
 23 43  1  0
 24 44  1  0
 26 45  1  0
 26 46  1  0
 27 47  1  0
 27 48  1  0
 28 49  1  0
 29 50  1  0
M  END
$$$$
