
     RDKit          3D

 50 52  0  0  0  0  0  0  0  0999 V2000
   -4.8442   -0.6547    2.4873 C   0  0  0  0  0  0  0  0  0  0  0  0
   -3.4121   -0.1307    2.4543 C   0  0  0  0  0  0  0  0  0  0  0  0
   -2.5919   -0.6190    1.2395 C   0  0  0  0  0  0  0  0  0  0  0  0
   -3.1504   -0.1893   -0.1167 C   0  0  0  0  0  0  0  0  0  0  0  0
   -3.3700   -1.1029   -1.1634 C   0  0  0  0  0  0  0  0  0  0  0  0
   -3.8826   -0.6821   -2.3942 C   0  0  0  0  0  0  0  0  0  0  0  0
   -4.1789    0.6604   -2.6076 C   0  0  0  0  0  0  0  0  0  0  0  0
   -3.9542    1.5857   -1.5941 C   0  0  0  0  0  0  0  0  0  0  0  0
   -3.4414    1.1662   -0.3641 C   0  0  0  0  0  0  0  0  0  0  0  0
   -2.3690   -2.0495    1.3442 N   0  0  0  0  0  0  0  0  0  0  0  0
   -1.0415   -2.3788    1.4561 C   0  0  0  0  0  0  0  0  0  0  0  0
   -0.6281   -3.5251    1.5076 O   0  0  0  0  0  0  0  0  0  0  0  0
   -0.3141   -1.2364    1.5186 N   0  0  0  0  0  0  0  0  0  0  0  0
    1.1286   -1.1883    1.5641 C   0  0  0  0  0  0  0  0  0  0  0  0
    1.6920   -1.1735    0.1368 C   0  0  0  0  0  0  0  0  0  0  0  0
    0.9550   -1.2930   -0.8455 O   0  0  0  0  0  0  0  0  0  0  0  0
    3.0735   -1.0281    0.0068 N   0  0  0  0  0  0  0  0  0  0  0  0
    3.9658   -0.7592    1.1256 C   0  0  0  0  0  0  0  0  0  0  0  0
    3.6221   -0.8338   -1.3355 C   0  0  0  0  0  0  0  0  0  0  0  0
    3.8866    0.6216   -1.6462 C   0  0  0  0  0  0  0  0  0  0  0  0
    5.1967    1.1213   -1.6779 C   0  0  0  0  0  0  0  0  0  0  0  0
    5.4335    2.4700   -1.9504 C   0  0  0  0  0  0  0  0  0  0  0  0
    4.3652    3.3321   -2.1916 C   0  0  0  0  0  0  0  0  0  0  0  0
    3.0592    2.8473   -2.1617 C   0  0  0  0  0  0  0  0  0  0  0  0
    2.8203    1.4995   -1.8909 C   0  0  0  0  0  0  0  0  0  0  0  0
   -1.1230   -0.1409    1.4044 C   0  0  0  0  0  0  0  0  0  0  0  0
   -0.7478    1.0255    1.4499 O   0  0  0  0  0  0  0  0  0  0  0  0
   -4.8696   -1.7482    2.5181 H   0  0  0  0  0  0  0  0  0  0  0  0
   -5.3552   -0.2849    3.3822 H   0  0  0  0  0  0  0  0  0  0  0  0
   -5.4160   -0.3197    1.6168 H   0  0  0  0  0  0  0  0  0  0  0  0
   -2.9148   -0.4412    3.3836 H   0  0  0  0  0  0  0  0  0  0  0  0
   -3.4393    0.9652    2.4885 H   0  0  0  0  0  0  0  0  0  0  0  0
   -3.1318   -2.1580   -1.0508 H   0  0  0  0  0  0  0  0  0  0  0  0
   -4.0390   -1.4055   -3.1906 H   0  0  0  0  0  0  0  0  0  0  0  0
   -4.5708    0.9863   -3.5672 H   0  0  0  0  0  0  0  0  0  0  0  0
   -4.1671    2.6383   -1.7620 H   0  0  0  0  0  0  0  0  0  0  0  0
   -3.2536    1.9216    0.3974 H   0  0  0  0  0  0  0  0  0  0  0  0
   -3.0736   -2.7633    1.2253 H   0  0  0  0  0  0  0  0  0  0  0  0
    1.4352   -0.2760    2.0845 H   0  0  0  0  0  0  0  0  0  0  0  0
    1.4997   -2.0772    2.0833 H   0  0  0  0  0  0  0  0  0  0  0  0
    4.9677   -1.1327    0.8947 H   0  0  0  0  0  0  0  0  0  0  0  0
    4.0015    0.3201    1.2992 H   0  0  0  0  0  0  0  0  0  0  0  0
    3.6203   -1.2522    2.0364 H   0  0  0  0  0  0  0  0  0  0  0  0
    4.5471   -1.4192   -1.4061 H   0  0  0  0  0  0  0  0  0  0  0  0
    2.9490   -1.2430   -2.0979 H   0  0  0  0  0  0  0  0  0  0  0  0
    6.0421    0.4634   -1.4911 H   0  0  0  0  0  0  0  0  0  0  0  0
    6.4518    2.8491   -1.9752 H   0  0  0  0  0  0  0  0  0  0  0  0
    4.5494    4.3819   -2.4036 H   0  0  0  0  0  0  0  0  0  0  0  0
    2.2236    3.5170   -2.3485 H   0  0  0  0  0  0  0  0  0  0  0  0
    1.7942    1.1340   -1.8708 H   0  0  0  0  0  0  0  0  0  0  0  0
  1  2  1  0
  2  3  1  0
  3  4  1  0
  4  5  2  0
  5  6  1  0
  6  7  2  0
  7  8  1  0
  8  9  2  0
  3 10  1  0
 10 11  1  0
 11 12  2  0
 11 13  1  0
 13 14  1  0
 14 15  1  0
 15 16  2  0
 15 17  1  0
 17 18  1  0
 17 19  1  0
 19 20  1  0
 20 21  2  0
 21 22  1  0
 22 23  2  0
 23 24  1  0
 24 25  2  0
 13 26  1  0
 26 27  2  0
 26  3  1  0
  9  4  1  0
 25 20  1  0
  1 28  1  0
  1 29  1  0
  1 30  1  0
  2 31  1  0
  2 32  1  0
  5 33  1  0
  6 34  1  0
  7 35  1  0
  8 36  1  0
  9 37  1  0
 10 38  1  0
 14 39  1  0
 14 40  1  0
 18 41  1  0
 18 42  1  0
 18 43  1  0
 19 44  1  0
 19 45  1  0
 21 46  1  0
 22 47  1  0
 23 48  1  0
 24 49  1  0
 25 50  1  0
M  END
$$$$
