
     RDKit          3D

 43 46  0  0  0  0  0  0  0  0999 V2000
    1.6849   -1.6248   -0.7432 O   0  0  0  0  0  0  0  0  0  0  0  0
    2.1297   -1.0065    0.2233 C   0  0  0  0  0  0  0  0  0  0  0  0
    3.4555   -0.3752    0.0929 C   0  0  0  0  0  0  0  0  0  0  0  0
    4.1555   -0.4021   -1.1187 C   0  0  0  0  0  0  0  0  0  0  0  0
    5.4121    0.1989   -1.2072 C   0  0  0  0  0  0  0  0  0  0  0  0
    5.9664    0.8222   -0.0883 C   0  0  0  0  0  0  0  0  0  0  0  0
    5.2662    0.8465    1.1201 C   0  0  0  0  0  0  0  0  0  0  0  0
    4.0093    0.2458    1.2023 C   0  0  0  0  0  0  0  0  0  0  0  0
    3.3078    0.2632    2.4037 N   0  0  0  0  0  0  0  0  0  0  0  0
    2.0617   -0.2768    2.5730 C   0  0  0  0  0  0  0  0  0  0  0  0
    1.4117   -0.1390    4.1162 S   0  0  0  0  0  0  0  0  0  0  0  0
    1.4785   -0.8851    1.4624 N   0  0  0  0  0  0  0  0  0  0  0  0
    0.1056   -1.4218    1.5106 C   0  0  0  0  0  0  0  0  0  0  0  0
   -0.9823   -0.3297    1.3490 C   0  0  0  0  0  0  0  0  0  0  0  0
   -0.8380    0.5077    0.1434 N   0  0  0  0  0  0  0  0  0  0  0  0
   -1.5807    1.7742    0.2463 C   0  0  0  0  0  0  0  0  0  0  0  0
   -3.1050    1.6086    0.3237 C   0  0  0  0  0  0  0  0  0  0  0  0
   -3.6282    0.6057   -0.6730 C   0  0  0  0  0  0  0  0  0  0  0  0
   -5.0045    0.5180   -0.9218 C   0  0  0  0  0  0  0  0  0  0  0  0
   -5.4998   -0.4306   -1.8159 C   0  0  0  0  0  0  0  0  0  0  0  0
   -4.6261   -1.3004   -2.4638 C   0  0  0  0  0  0  0  0  0  0  0  0
   -3.2553   -1.2258   -2.2159 C   0  0  0  0  0  0  0  0  0  0  0  0
   -2.7446   -0.2837   -1.3108 C   0  0  0  0  0  0  0  0  0  0  0  0
   -1.2470   -0.1952   -1.0895 C   0  0  0  0  0  0  0  0  0  0  0  0
    3.7241   -0.8886   -1.9908 H   0  0  0  0  0  0  0  0  0  0  0  0
    5.9575    0.1801   -2.1479 H   0  0  0  0  0  0  0  0  0  0  0  0
    6.9458    1.2899   -0.1584 H   0  0  0  0  0  0  0  0  0  0  0  0
    5.7105    1.3352    1.9827 H   0  0  0  0  0  0  0  0  0  0  0  0
    3.7174    0.7110    3.2156 H   0  0  0  0  0  0  0  0  0  0  0  0
   -0.0465   -1.9358    2.4662 H   0  0  0  0  0  0  0  0  0  0  0  0
   -0.0265   -2.1918    0.7430 H   0  0  0  0  0  0  0  0  0  0  0  0
   -1.9674   -0.8103    1.3934 H   0  0  0  0  0  0  0  0  0  0  0  0
   -0.9266    0.3226    2.2280 H   0  0  0  0  0  0  0  0  0  0  0  0
   -1.3307    2.3915   -0.6277 H   0  0  0  0  0  0  0  0  0  0  0  0
   -1.2291    2.3490    1.1122 H   0  0  0  0  0  0  0  0  0  0  0  0
   -3.3904    1.2763    1.3294 H   0  0  0  0  0  0  0  0  0  0  0  0
   -3.5751    2.5836    0.1487 H   0  0  0  0  0  0  0  0  0  0  0  0
   -5.6967    1.1888   -0.4184 H   0  0  0  0  0  0  0  0  0  0  0  0
   -6.5678   -0.4910   -2.0071 H   0  0  0  0  0  0  0  0  0  0  0  0
   -5.0116   -2.0368   -3.1640 H   0  0  0  0  0  0  0  0  0  0  0  0
   -2.5829   -1.9070   -2.7333 H   0  0  0  0  0  0  0  0  0  0  0  0
   -0.8176    0.3414   -1.9459 H   0  0  0  0  0  0  0  0  0  0  0  0
   -0.8197   -1.2023   -1.1187 H   0  0  0  0  0  0  0  0  0  0  0  0
  1  2  2  0
  2  3  1  0
  3  4  2  0
  4  5  1  0
  5  6  2  0
  6  7  1  0
  7  8  2  0
  8  9  1  0
  9 10  1  0
 10 11  2  0
 10 12  1  0
 12 13  1  0
 13 14  1  0
 14 15  1  0
 15 16  1  0
 16 17  1  0
 17 18  1  0
 18 19  2  0
 19 20  1  0
 20 21  2  0
 21 22  1  0
 22 23  2  0
 23 24  1  0
 12  2  1  0
 24 15  1  0
  8  3  1  0
 23 18  1  0
  4 25  1  0
  5 26  1  0
  6 27  1  0
  7 28  1  0
  9 29  1  0
 13 30  1  0
 13 31  1  0
 14 32  1  0
 14 33  1  0
 16 34  1  0
 16 35  1  0
 17 36  1  0
 17 37  1  0
 19 38  1  0
 20 39  1  0
 21 40  1  0
 22 41  1  0
 24 42  1  0
 24 43  1  0
M  END
$$$$
