
     RDKit          3D

 50 53  0  0  0  0  0  0  0  0999 V2000
   -0.1722   -1.2496   -3.2510 C   0  0  0  0  0  0  0  0  0  0  0  0
    0.0594   -0.8850   -1.8900 O   0  0  0  0  0  0  0  0  0  0  0  0
   -0.3254   -1.8364   -1.0026 C   0  0  0  0  0  0  0  0  0  0  0  0
   -0.7813   -2.9395   -1.2493 O   0  0  0  0  0  0  0  0  0  0  0  0
   -0.0555   -1.3334    0.3534 C   0  0  0  0  0  0  0  0  0  0  0  0
   -1.0070   -0.7833    1.1462 C   0  0  0  0  0  0  0  0  0  0  0  0
   -2.4162   -0.6382    0.7504 C   0  0  0  0  0  0  0  0  0  0  0  0
   -3.2243   -1.7664    0.5624 C   0  0  0  0  0  0  0  0  0  0  0  0
   -4.5616   -1.6271    0.1864 C   0  0  0  0  0  0  0  0  0  0  0  0
   -5.1033   -0.3567   -0.0055 C   0  0  0  0  0  0  0  0  0  0  0  0
   -4.3068    0.7780    0.1786 C   0  0  0  0  0  0  0  0  0  0  0  0
   -4.8602    2.0843   -0.0270 C   0  0  0  0  0  0  0  0  0  0  0  0
   -5.3093    3.1408   -0.1984 N   0  0  0  0  0  0  0  0  0  0  0  0
   -2.9663    0.6358    0.5579 C   0  0  0  0  0  0  0  0  0  0  0  0
   -0.6151   -0.2097    2.5120 C   0  0  0  0  0  0  0  0  0  0  0  0
    0.8794   -0.4727    2.8479 C   0  0  0  0  0  0  0  0  0  0  0  0
    1.1368   -1.9604    3.1438 C   0  0  0  0  0  0  0  0  0  0  0  0
    1.5571   -2.5693    1.7926 C   0  0  0  0  0  0  0  0  0  0  0  0
    1.3911   -1.4244    0.7890 C   0  0  0  0  0  0  0  0  0  0  0  0
    1.6367   -0.2576    1.6235 N   0  0  0  0  0  0  0  0  0  0  0  0
    2.0150    1.0030    1.2358 C   0  0  0  0  0  0  0  0  0  0  0  0
    2.0249    1.9533    2.0128 O   0  0  0  0  0  0  0  0  0  0  0  0
    2.3879    1.1160   -0.0781 N   0  0  0  0  0  0  0  0  0  0  0  0
    2.7443    2.4152   -0.5980 C   0  0  0  0  0  0  0  0  0  0  0  0
    3.2332    2.2588   -2.0014 C   0  0  0  0  0  0  0  0  0  0  0  0
    2.2605    2.0602   -3.1373 C   0  0  0  0  0  0  0  0  0  0  0  0
    3.0163    3.3546   -3.0130 C   0  0  0  0  0  0  0  0  0  0  0  0
    0.4545   -2.1034   -3.5268 H   0  0  0  0  0  0  0  0  0  0  0  0
    0.1029   -0.3993   -3.8813 H   0  0  0  0  0  0  0  0  0  0  0  0
   -1.2307   -1.4746   -3.4169 H   0  0  0  0  0  0  0  0  0  0  0  0
   -2.8180   -2.7670    0.7044 H   0  0  0  0  0  0  0  0  0  0  0  0
   -5.1779   -2.5116    0.0408 H   0  0  0  0  0  0  0  0  0  0  0  0
   -6.1465   -0.2591   -0.3009 H   0  0  0  0  0  0  0  0  0  0  0  0
   -2.3478    1.5223    0.6924 H   0  0  0  0  0  0  0  0  0  0  0  0
   -0.7782    0.8757    2.4950 H   0  0  0  0  0  0  0  0  0  0  0  0
   -1.2539   -0.6262    3.3001 H   0  0  0  0  0  0  0  0  0  0  0  0
    1.2119    0.1762    3.6645 H   0  0  0  0  0  0  0  0  0  0  0  0
    0.2661   -2.4656    3.5741 H   0  0  0  0  0  0  0  0  0  0  0  0
    1.9633   -2.0669    3.8565 H   0  0  0  0  0  0  0  0  0  0  0  0
    0.9753   -3.4621    1.5402 H   0  0  0  0  0  0  0  0  0  0  0  0
    2.6114   -2.8668    1.8490 H   0  0  0  0  0  0  0  0  0  0  0  0
    2.0926   -1.4871   -0.0479 H   0  0  0  0  0  0  0  0  0  0  0  0
    1.8611    0.5415   -0.7171 H   0  0  0  0  0  0  0  0  0  0  0  0
    1.8591    3.0594   -0.5416 H   0  0  0  0  0  0  0  0  0  0  0  0
    3.5247    2.8534    0.0337 H   0  0  0  0  0  0  0  0  0  0  0  0
    4.1761    1.7235   -2.0407 H   0  0  0  0  0  0  0  0  0  0  0  0
    2.5442    1.3825   -3.9342 H   0  0  0  0  0  0  0  0  0  0  0  0
    1.1975    2.0748   -2.9233 H   0  0  0  0  0  0  0  0  0  0  0  0
    2.4638    4.2390   -2.7147 H   0  0  0  0  0  0  0  0  0  0  0  0
    3.8105    3.5509   -3.7250 H   0  0  0  0  0  0  0  0  0  0  0  0
  1  2  1  0
  2  3  1  0
  3  4  2  0
  3  5  1  0
  5  6  2  0
  6  7  1  0
  7  8  2  0
  8  9  1  0
  9 10  2  0
 10 11  1  0
 11 12  1  0
 12 13  3  0
 11 14  2  0
  6 15  1  0
 15 16  1  0
 16 17  1  0
 17 18  1  0
 18 19  1  0
 19 20  1  0
 20 21  1  0
 21 22  2  0
 21 23  1  0
 23 24  1  0
 24 25  1  0
 25 26  1  0
 26 27  1  0
 19  5  1  0
 27 25  1  0
 14  7  1  0
 20 16  1  0
  1 28  1  0
  1 29  1  0
  1 30  1  0
  8 31  1  0
  9 32  1  0
 10 33  1  0
 14 34  1  0
 15 35  1  0
 15 36  1  0
 16 37  1  0
 17 38  1  0
 17 39  1  0
 18 40  1  0
 18 41  1  0
 19 42  1  0
 23 43  1  0
 24 44  1  0
 24 45  1  0
 25 46  1  0
 26 47  1  0
 26 48  1  0
 27 49  1  0
 27 50  1  0
M  END
$$$$
