
     RDKit          3D

 48 50  0  0  0  0  0  0  0  0999 V2000
    4.9893   -1.4743    2.2787 C   0  0  0  0  0  0  0  0  0  0  0  0
    4.0487   -0.3998    1.7970 C   0  0  0  0  0  0  0  0  0  0  0  0
    4.4960    0.9267    1.7695 C   0  0  0  0  0  0  0  0  0  0  0  0
    3.6709    1.9661    1.3382 C   0  0  0  0  0  0  0  0  0  0  0  0
    2.3715    1.6469    0.9258 C   0  0  0  0  0  0  0  0  0  0  0  0
    1.1346    2.7003    0.3622 S   0  0  0  0  0  0  0  0  0  0  0  0
    0.0954    1.3637    0.1166 C   0  0  0  0  0  0  0  0  0  0  0  0
   -1.2194    1.5487   -0.3046 N   0  0  0  0  0  0  0  0  0  0  0  0
   -2.2425    0.5832    0.1128 C   0  0  0  0  0  0  0  0  0  0  0  0
   -2.4655   -0.4870   -0.9582 C   0  0  0  0  0  0  0  0  0  0  0  0
   -3.5995   -1.4546   -0.5988 C   0  0  0  0  0  0  0  0  0  0  0  0
   -3.4300   -2.1400    0.6921 N   0  0  0  0  0  0  0  0  0  0  0  0
   -4.6486   -2.8798    1.0323 C   0  0  0  0  0  0  0  0  0  0  0  0
   -2.2837   -3.0521    0.6863 C   0  0  0  0  0  0  0  0  0  0  0  0
   -1.6381    2.6254   -1.1032 C   0  0  0  0  0  0  0  0  0  0  0  0
   -2.7924    3.0520   -1.0151 O   0  0  0  0  0  0  0  0  0  0  0  0
   -0.7365    3.1117   -2.1479 C   0  0  0  0  0  0  0  0  0  0  0  0
    0.1605    2.4099   -2.9392 C   0  0  0  0  0  0  0  0  0  0  0  0
    0.8481    3.2538   -3.8629 C   0  0  0  0  0  0  0  0  0  0  0  0
    0.4267    4.5537   -3.7522 C   0  0  0  0  0  0  0  0  0  0  0  0
    1.1134    5.9781   -4.8252 Br  0  0  0  0  0  0  0  0  0  0  0  0
   -0.7728    4.7744   -2.5789 S   0  0  0  0  0  0  0  0  0  0  0  0
    0.5785    0.2037    0.4947 N   0  0  0  0  0  0  0  0  0  0  0  0
    1.8889    0.3389    0.9350 C   0  0  0  0  0  0  0  0  0  0  0  0
    2.7296   -0.7171    1.3788 C   0  0  0  0  0  0  0  0  0  0  0  0
    2.2413   -2.1417    1.4100 C   0  0  0  0  0  0  0  0  0  0  0  0
    5.9630   -1.0601    2.5616 H   0  0  0  0  0  0  0  0  0  0  0  0
    4.5765   -1.9737    3.1608 H   0  0  0  0  0  0  0  0  0  0  0  0
    5.1633   -2.2101    1.4873 H   0  0  0  0  0  0  0  0  0  0  0  0
    5.5076    1.1692    2.0924 H   0  0  0  0  0  0  0  0  0  0  0  0
    4.0282    2.9913    1.3265 H   0  0  0  0  0  0  0  0  0  0  0  0
   -1.9415    0.1356    1.0673 H   0  0  0  0  0  0  0  0  0  0  0  0
   -3.1835    1.1127    0.3023 H   0  0  0  0  0  0  0  0  0  0  0  0
   -2.7189   -0.0017   -1.9096 H   0  0  0  0  0  0  0  0  0  0  0  0
   -1.5342   -1.0345   -1.1447 H   0  0  0  0  0  0  0  0  0  0  0  0
   -3.7161   -2.1845   -1.4107 H   0  0  0  0  0  0  0  0  0  0  0  0
   -4.5275   -0.8681   -0.5714 H   0  0  0  0  0  0  0  0  0  0  0  0
   -4.5503   -3.3535    2.0156 H   0  0  0  0  0  0  0  0  0  0  0  0
   -4.8794   -3.6574    0.2952 H   0  0  0  0  0  0  0  0  0  0  0  0
   -5.5060   -2.2008    1.0992 H   0  0  0  0  0  0  0  0  0  0  0  0
   -2.3637   -3.8108   -0.1005 H   0  0  0  0  0  0  0  0  0  0  0  0
   -1.3442   -2.5078    0.5512 H   0  0  0  0  0  0  0  0  0  0  0  0
   -2.1973   -3.5663    1.6504 H   0  0  0  0  0  0  0  0  0  0  0  0
    0.3196    1.3401   -2.8625 H   0  0  0  0  0  0  0  0  0  0  0  0
    1.5986    2.9140   -4.5660 H   0  0  0  0  0  0  0  0  0  0  0  0
    1.2096   -2.2237    1.0548 H   0  0  0  0  0  0  0  0  0  0  0  0
    2.8622   -2.7705    0.7643 H   0  0  0  0  0  0  0  0  0  0  0  0
    2.2694   -2.5305    2.4327 H   0  0  0  0  0  0  0  0  0  0  0  0
  1  2  1  0
  2  3  2  0
  3  4  1  0
  4  5  2  0
  5  6  1  0
  6  7  1  0
  7  8  1  0
  8  9  1  0
  9 10  1  0
 10 11  1  0
 11 12  1  0
 12 13  1  0
 12 14  1  0
  8 15  1  0
 15 16  2  0
 15 17  1  0
 17 18  2  0
 18 19  1  0
 19 20  2  0
 20 21  1  0
 20 22  1  0
  7 23  2  0
 23 24  1  0
 24 25  2  0
 25 26  1  0
 25  2  1  0
 24  5  1  0
 22 17  1  0
  1 27  1  0
  1 28  1  0
  1 29  1  0
  3 30  1  0
  4 31  1  0
  9 32  1  0
  9 33  1  0
 10 34  1  0
 10 35  1  0
 11 36  1  0
 11 37  1  0
 13 38  1  0
 13 39  1  0
 13 40  1  0
 14 41  1  0
 14 42  1  0
 14 43  1  0
 18 44  1  0
 19 45  1  0
 26 46  1  0
 26 47  1  0
 26 48  1  0
M  END
$$$$
