
     RDKit          3D

 54 58  0  0  0  0  0  0  0  0999 V2000
   -7.8583    1.9643    3.5225 O   0  0  0  0  0  0  0  0  0  0  0  0
   -7.5768    1.0753    2.7406 C   0  0  0  0  0  0  0  0  0  0  0  0
   -8.5210    0.2523    2.2509 O   0  0  0  0  0  0  0  0  0  0  0  0
   -6.2219    0.7684    2.2232 C   0  0  0  0  0  0  0  0  0  0  0  0
   -5.9865   -0.2656    1.3159 C   0  0  0  0  0  0  0  0  0  0  0  0
   -4.6868   -0.5163    0.8530 C   0  0  0  0  0  0  0  0  0  0  0  0
   -3.5950    0.2577    1.2749 C   0  0  0  0  0  0  0  0  0  0  0  0
   -2.2682    0.0088    0.8000 N   0  0  0  0  0  0  0  0  0  0  0  0
   -1.1235    0.3188    1.5786 C   0  0  0  0  0  0  0  0  0  0  0  0
   -1.0125    0.8229    2.6827 O   0  0  0  0  0  0  0  0  0  0  0  0
    0.0288   -0.1711    0.7490 C   0  0  0  0  0  0  0  0  0  0  0  0
    1.2886   -0.0356    1.1812 C   0  0  0  0  0  0  0  0  0  0  0  0
    2.4479   -0.4660    0.4816 C   0  0  0  0  0  0  0  0  0  0  0  0
    2.6797   -1.5615   -0.3410 C   0  0  0  0  0  0  0  0  0  0  0  0
    4.0328   -1.5197   -0.7578 C   0  0  0  0  0  0  0  0  0  0  0  0
    4.5901   -0.4106   -0.1621 C   0  0  0  0  0  0  0  0  0  0  0  0
    5.9189    0.1986   -0.1644 C   0  0  0  0  0  0  0  0  0  0  0  0
    6.9646   -0.3719   -0.9090 C   0  0  0  0  0  0  0  0  0  0  0  0
    8.2416    0.2025   -0.9192 C   0  0  0  0  0  0  0  0  0  0  0  0
    8.4828    1.3637   -0.1764 C   0  0  0  0  0  0  0  0  0  0  0  0
    9.8200    1.9699   -0.1838 N   0  0  0  0  0  4  0  0  0  0  0  0
    9.9914    2.9986    0.4857 O   0  0  0  0  0  0  0  0  0  0  0  0
   10.6991    1.4166   -0.8600 O   0  0  0  0  0  1  0  0  0  0  0  0
    7.4574    1.9495    0.5724 C   0  0  0  0  0  0  0  0  0  0  0  0
    6.1855    1.3650    0.5736 C   0  0  0  0  0  0  0  0  0  0  0  0
    3.6408    0.2134    0.5914 O   0  0  0  0  0  0  0  0  0  0  0  0
   -0.5251   -0.7035   -0.4643 C   0  0  0  0  0  0  0  0  0  0  0  0
   -1.8611   -0.5860   -0.3982 C   0  0  0  0  0  0  0  0  0  0  0  0
   -2.7102   -0.9119   -1.5455 C   0  0  0  0  0  0  0  0  0  0  0  0
   -3.4211    0.0970   -2.2107 C   0  0  0  0  0  0  0  0  0  0  0  0
   -4.2178   -0.2101   -3.3153 C   0  0  0  0  0  0  0  0  0  0  0  0
   -4.3044   -1.5252   -3.7691 C   0  0  0  0  0  0  0  0  0  0  0  0
   -3.5940   -2.5347   -3.1217 C   0  0  0  0  0  0  0  0  0  0  0  0
   -2.7963   -2.2299   -2.0168 C   0  0  0  0  0  0  0  0  0  0  0  0
   -3.8515    1.2841    2.1983 C   0  0  0  0  0  0  0  0  0  0  0  0
   -5.1477    1.5414    2.6656 C   0  0  0  0  0  0  0  0  0  0  0  0
   -9.3468    0.5685    2.6742 H   0  0  0  0  0  0  0  0  0  0  0  0
   -6.8019   -0.8934    0.9645 H   0  0  0  0  0  0  0  0  0  0  0  0
   -4.5562   -1.3633    0.1872 H   0  0  0  0  0  0  0  0  0  0  0  0
    1.4697    0.4711    2.1276 H   0  0  0  0  0  0  0  0  0  0  0  0
    1.9578   -2.3234   -0.5992 H   0  0  0  0  0  0  0  0  0  0  0  0
    4.5346   -2.2255   -1.4039 H   0  0  0  0  0  0  0  0  0  0  0  0
    6.7999   -1.2745   -1.4937 H   0  0  0  0  0  0  0  0  0  0  0  0
    9.0281   -0.2664   -1.5073 H   0  0  0  0  0  0  0  0  0  0  0  0
    7.6246    2.8522    1.1566 H   0  0  0  0  0  0  0  0  0  0  0  0
    5.3977    1.8336    1.1623 H   0  0  0  0  0  0  0  0  0  0  0  0
    0.0364   -1.0645   -1.3105 H   0  0  0  0  0  0  0  0  0  0  0  0
   -3.3613    1.1287   -1.8695 H   0  0  0  0  0  0  0  0  0  0  0  0
   -4.7705    0.5777   -3.8212 H   0  0  0  0  0  0  0  0  0  0  0  0
   -4.9257   -1.7628   -4.6292 H   0  0  0  0  0  0  0  0  0  0  0  0
   -3.6621   -3.5598   -3.4772 H   0  0  0  0  0  0  0  0  0  0  0  0
   -2.2519   -3.0303   -1.5204 H   0  0  0  0  0  0  0  0  0  0  0  0
   -3.0556    1.9317    2.5586 H   0  0  0  0  0  0  0  0  0  0  0  0
   -5.3072    2.3513    3.3752 H   0  0  0  0  0  0  0  0  0  0  0  0
  1  2  2  0
  2  3  1  0
  2  4  1  0
  4  5  2  0
  5  6  1  0
  6  7  2  0
  7  8  1  0
  8  9  1  0
  9 10  2  0
  9 11  1  0
 11 12  2  3
 12 13  1  0
 13 14  2  0
 14 15  1  0
 15 16  2  0
 16 17  1  0
 17 18  2  0
 18 19  1  0
 19 20  2  0
 20 21  1  0
 21 22  2  0
 21 23  1  0
 20 24  1  0
 24 25  2  0
 16 26  1  0
 11 27  1  0
 27 28  2  0
 28 29  1  0
 29 30  2  0
 30 31  1  0
 31 32  2  0
 32 33  1  0
 33 34  2  0
  7 35  1  0
 35 36  2  0
 36  4  1  0
 28  8  1  0
 34 29  1  0
 26 13  1  0
 25 17  1  0
  3 37  1  0
  5 38  1  0
  6 39  1  0
 12 40  1  0
 14 41  1  0
 15 42  1  0
 18 43  1  0
 19 44  1  0
 24 45  1  0
 25 46  1  0
 27 47  1  0
 30 48  1  0
 31 49  1  0
 32 50  1  0
 33 51  1  0
 34 52  1  0
 35 53  1  0
 36 54  1  0
M  CHG  2  21   1  23  -1
M  END
$$$$
