
     RDKit          3D

 42 45  0  0  0  0  0  0  0  0999 V2000
   -4.1945    3.4108    0.1305 C   0  0  0  0  0  0  0  0  0  0  0  0
   -2.8591    2.7702    0.3728 C   0  0  0  0  0  0  0  0  0  0  0  0
   -2.0723    3.1705    1.4676 C   0  0  0  0  0  0  0  0  0  0  0  0
   -0.8342    2.5707    1.7264 C   0  0  0  0  0  0  0  0  0  0  0  0
   -0.3982    1.5519    0.8961 C   0  0  0  0  0  0  0  0  0  0  0  0
   -1.1816    1.1412   -0.1846 C   0  0  0  0  0  0  0  0  0  0  0  0
   -2.4073    1.7383   -0.4584 C   0  0  0  0  0  0  0  0  0  0  0  0
   -0.4912    0.0704   -0.9789 C   0  0  0  0  0  0  0  0  0  0  0  0
   -1.3651   -1.1483   -1.2937 C   0  0  0  0  0  0  0  0  0  0  0  0
   -0.4967   -2.2787   -1.6314 N   0  0  0  0  0  0  0  0  0  0  0  0
   -1.2500   -3.3800   -2.2270 C   0  0  0  0  0  0  0  0  0  0  0  0
    0.2854   -2.7388   -0.4745 C   0  0  0  0  0  0  0  0  0  0  0  0
    0.5436   -1.6520    0.5742 C   0  0  0  0  0  0  0  0  0  0  0  0
    0.7194   -0.2719   -0.0725 C   0  0  0  0  0  0  0  0  0  0  0  0
    0.8034    0.8090    0.9503 N   0  0  0  0  0  0  0  0  0  0  0  0
    1.8094    0.9801    1.9049 C   0  0  0  0  0  0  0  0  0  0  0  0
    1.6830    1.7019    2.8929 O   0  0  0  0  0  0  0  0  0  0  0  0
    3.0519    0.2601    1.6823 C   0  0  0  0  0  0  0  0  0  0  0  0
    3.9072    0.1718    0.5975 C   0  0  0  0  0  0  0  0  0  0  0  0
    4.9805   -0.6660    0.9888 C   0  0  0  0  0  0  0  0  0  0  0  0
    4.7290   -1.0258    2.2919 C   0  0  0  0  0  0  0  0  0  0  0  0
    5.8375   -2.1467    3.3555 Br  0  0  0  0  0  0  0  0  0  0  0  0
    3.5705   -0.4638    2.7232 O   0  0  0  0  0  0  0  0  0  0  0  0
   -4.9717    2.8751    0.6841 H   0  0  0  0  0  0  0  0  0  0  0  0
   -4.1887    4.4581    0.4503 H   0  0  0  0  0  0  0  0  0  0  0  0
   -4.4465    3.3984   -0.9351 H   0  0  0  0  0  0  0  0  0  0  0  0
   -2.4192    3.9623    2.1290 H   0  0  0  0  0  0  0  0  0  0  0  0
   -0.2518    2.9143    2.5743 H   0  0  0  0  0  0  0  0  0  0  0  0
   -3.0006    1.4174   -1.3099 H   0  0  0  0  0  0  0  0  0  0  0  0
   -0.1178    0.5190   -1.9097 H   0  0  0  0  0  0  0  0  0  0  0  0
   -2.0117   -0.8937   -2.1436 H   0  0  0  0  0  0  0  0  0  0  0  0
   -2.0348   -1.4014   -0.4603 H   0  0  0  0  0  0  0  0  0  0  0  0
   -1.7467   -3.0528   -3.1470 H   0  0  0  0  0  0  0  0  0  0  0  0
   -2.0125   -3.7738   -1.5454 H   0  0  0  0  0  0  0  0  0  0  0  0
   -0.5777   -4.1988   -2.5066 H   0  0  0  0  0  0  0  0  0  0  0  0
    1.2463   -3.1139   -0.8467 H   0  0  0  0  0  0  0  0  0  0  0  0
   -0.2056   -3.5782    0.0354 H   0  0  0  0  0  0  0  0  0  0  0  0
    1.4205   -1.9282    1.1690 H   0  0  0  0  0  0  0  0  0  0  0  0
   -0.2986   -1.6215    1.2791 H   0  0  0  0  0  0  0  0  0  0  0  0
    1.6295   -0.2690   -0.6804 H   0  0  0  0  0  0  0  0  0  0  0  0
    3.7793    0.6696   -0.3540 H   0  0  0  0  0  0  0  0  0  0  0  0
    5.8376   -0.9578    0.3982 H   0  0  0  0  0  0  0  0  0  0  0  0
  1  2  1  0
  2  3  2  0
  3  4  1  0
  4  5  2  0
  5  6  1  0
  6  7  2  0
  6  8  1  0
  8  9  1  0
  9 10  1  0
 10 11  1  0
 10 12  1  0
 12 13  1  0
 13 14  1  0
 14 15  1  0
 15 16  1  0
 16 17  2  0
 16 18  1  0
 18 19  2  0
 19 20  1  0
 20 21  2  0
 21 22  1  0
 21 23  1  0
  7  2  1  0
 14  8  1  0
 23 18  1  0
 15  5  1  0
  1 24  1  0
  1 25  1  0
  1 26  1  0
  3 27  1  0
  4 28  1  0
  7 29  1  0
  8 30  1  0
  9 31  1  0
  9 32  1  0
 11 33  1  0
 11 34  1  0
 11 35  1  0
 12 36  1  0
 12 37  1  0
 13 38  1  0
 13 39  1  0
 14 40  1  0
 19 41  1  0
 20 42  1  0
M  END
$$$$
