
     RDKit          3D

 51 53  0  0  0  0  0  0  0  0999 V2000
    2.9447   -2.4981    1.7499 O   0  0  0  0  0  0  0  0  0  0  0  0
    2.4433   -2.0039    0.7462 C   0  0  0  0  0  0  0  0  0  0  0  0
    3.1735   -1.4805   -0.3008 N   0  0  0  0  0  0  0  0  0  0  0  0
    4.6090   -1.2627   -0.2101 C   0  0  0  0  0  0  0  0  0  0  0  0
    4.9787    0.2256   -0.1417 C   0  0  0  0  0  0  0  0  0  0  0  0
    4.6796    1.0136   -1.4088 C   0  0  0  0  0  0  0  0  0  0  0  0
    4.5924    2.4211   -0.8727 C   0  0  0  0  0  0  0  0  0  0  0  0
    3.9062    2.2094    0.4602 C   0  0  0  0  0  0  0  0  0  0  0  0
    4.2745    0.9005    0.9196 O   0  0  0  0  0  0  0  0  0  0  0  0
    0.9421   -1.8756    0.5509 C   0  0  0  0  0  0  0  0  0  0  0  0
    0.1566   -2.7911    1.4954 C   0  0  0  0  0  0  0  0  0  0  0  0
   -1.3462   -2.5688    1.3392 C   0  0  0  0  0  0  0  0  0  0  0  0
   -1.7265   -1.0979    1.4885 C   0  0  0  0  0  0  0  0  0  0  0  0
   -0.9119   -0.2158    0.6126 N   0  0  0  0  0  0  0  0  0  0  0  0
   -1.4174    0.0160   -0.9946 S   0  0  0  0  0  6  0  0  0  0  0  0
   -1.6670   -1.2834   -1.5794 O   0  0  0  0  0  0  0  0  0  0  0  0
   -0.5079    0.9490   -1.6263 O   0  0  0  0  0  0  0  0  0  0  0  0
   -2.9722    0.8520   -0.7975 C   0  0  0  0  0  0  0  0  0  0  0  0
   -2.9791    2.1508   -0.2828 C   0  0  0  0  0  0  0  0  0  0  0  0
   -4.1913    2.8198   -0.1260 C   0  0  0  0  0  0  0  0  0  0  0  0
   -5.3879    2.1946   -0.4870 C   0  0  0  0  0  0  0  0  0  0  0  0
   -5.3886    0.8917   -1.0132 C   0  0  0  0  0  0  0  0  0  0  0  0
   -6.6770    0.2084   -1.4066 C   0  0  0  0  0  0  0  0  0  0  0  0
   -6.8662   -0.9610   -0.7350 F   0  0  0  0  0  0  0  0  0  0  0  0
   -7.7875    0.9595   -1.1674 F   0  0  0  0  0  0  0  0  0  0  0  0
   -6.7161   -0.1075   -2.7300 F   0  0  0  0  0  0  0  0  0  0  0  0
   -4.1640    0.2220   -1.1710 C   0  0  0  0  0  0  0  0  0  0  0  0
    0.5505   -0.4211    0.8071 C   0  0  0  0  0  0  0  0  0  0  0  0
    2.6868   -1.1251   -1.1141 H   0  0  0  0  0  0  0  0  0  0  0  0
    4.9907   -1.7665    0.6837 H   0  0  0  0  0  0  0  0  0  0  0  0
    5.0672   -1.7292   -1.0878 H   0  0  0  0  0  0  0  0  0  0  0  0
    6.0489    0.3078    0.0864 H   0  0  0  0  0  0  0  0  0  0  0  0
    5.4500    0.8898   -2.1747 H   0  0  0  0  0  0  0  0  0  0  0  0
    3.7154    0.7312   -1.8445 H   0  0  0  0  0  0  0  0  0  0  0  0
    4.0505    3.1091   -1.5269 H   0  0  0  0  0  0  0  0  0  0  0  0
    5.6005    2.8220   -0.7142 H   0  0  0  0  0  0  0  0  0  0  0  0
    4.1976    2.9555    1.2047 H   0  0  0  0  0  0  0  0  0  0  0  0
    2.8168    2.2302    0.3523 H   0  0  0  0  0  0  0  0  0  0  0  0
    0.7100   -2.1605   -0.4830 H   0  0  0  0  0  0  0  0  0  0  0  0
    0.4422   -2.6007    2.5382 H   0  0  0  0  0  0  0  0  0  0  0  0
    0.3999   -3.8411    1.2929 H   0  0  0  0  0  0  0  0  0  0  0  0
   -1.6654   -2.9445    0.3611 H   0  0  0  0  0  0  0  0  0  0  0  0
   -1.8830   -3.1615    2.0890 H   0  0  0  0  0  0  0  0  0  0  0  0
   -1.5680   -0.7774    2.5257 H   0  0  0  0  0  0  0  0  0  0  0  0
   -2.7946   -0.9635    1.2938 H   0  0  0  0  0  0  0  0  0  0  0  0
   -2.0472    2.6392   -0.0039 H   0  0  0  0  0  0  0  0  0  0  0  0
   -4.2057    3.8310    0.2767 H   0  0  0  0  0  0  0  0  0  0  0  0
   -6.3262    2.7338   -0.3577 H   0  0  0  0  0  0  0  0  0  0  0  0
   -4.1476   -0.7873   -1.5822 H   0  0  0  0  0  0  0  0  0  0  0  0
    0.8024   -0.1273    1.8352 H   0  0  0  0  0  0  0  0  0  0  0  0
    1.1145    0.2684    0.1696 H   0  0  0  0  0  0  0  0  0  0  0  0
  1  2  2  0
  2  3  1  0
  3  4  1  0
  4  5  1  0
  5  6  1  0
  6  7  1  0
  7  8  1  0
  8  9  1  0
  2 10  1  0
 10 11  1  0
 11 12  1  0
 12 13  1  0
 13 14  1  0
 14 15  1  0
 15 16  2  0
 15 17  2  0
 15 18  1  0
 18 19  2  0
 19 20  1  0
 20 21  2  0
 21 22  1  0
 22 23  1  0
 23 24  1  0
 23 25  1  0
 23 26  1  0
 22 27  2  0
 14 28  1  0
  9  5  1  0
 28 10  1  0
 27 18  1  0
  3 29  1  0
  4 30  1  0
  4 31  1  0
  5 32  1  0
  6 33  1  0
  6 34  1  0
  7 35  1  0
  7 36  1  0
  8 37  1  0
  8 38  1  0
 10 39  1  0
 11 40  1  0
 11 41  1  0
 12 42  1  0
 12 43  1  0
 13 44  1  0
 13 45  1  0
 19 46  1  0
 20 47  1  0
 21 48  1  0
 27 49  1  0
 28 50  1  0
 28 51  1  0
M  END
$$$$
