
     RDKit          3D

 37 38  0  0  0  0  0  0  0  0999 V2000
   -3.1429    2.8777   -0.2844 C   0  0  0  0  0  0  0  0  0  0  0  0
   -2.1366    1.9496   -0.6664 O   0  0  0  0  0  0  0  0  0  0  0  0
   -2.2668    0.6563   -0.2289 C   0  0  0  0  0  0  0  0  0  0  0  0
   -3.3073    0.1976    0.5921 C   0  0  0  0  0  0  0  0  0  0  0  0
   -3.3560   -1.1316    1.0283 C   0  0  0  0  0  0  0  0  0  0  0  0
   -4.4620   -1.5973    1.7532 N   0  0  0  0  0  0  0  0  0  0  0  0
   -2.4062   -2.0307    0.5483 C   0  0  0  0  0  0  0  0  0  0  0  0
   -1.3637   -1.5902   -0.2674 C   0  0  0  0  0  0  0  0  0  0  0  0
   -1.2767   -0.2448   -0.6599 C   0  0  0  0  0  0  0  0  0  0  0  0
   -0.1165    0.1877   -1.5351 C   0  0  0  0  0  0  0  0  0  0  0  0
    1.1693    0.4196   -0.7658 C   0  0  0  0  0  0  0  0  0  0  0  0
    1.3386    1.6339   -0.0810 C   0  0  0  0  0  0  0  0  0  0  0  0
    2.4994    1.8858    0.6507 C   0  0  0  0  0  0  0  0  0  0  0  0
    3.4941    0.9158    0.7539 C   0  0  0  0  0  0  0  0  0  0  0  0
    4.7046    1.2153    1.3944 N   0  0  0  0  0  0  0  0  0  0  0  0
    3.3562   -0.2716    0.0255 C   0  0  0  0  0  0  0  0  0  0  0  0
    2.1959   -0.5403   -0.7152 C   0  0  0  0  0  0  0  0  0  0  0  0
    1.9779   -1.6943   -1.4236 O   0  0  0  0  0  0  0  0  0  0  0  0
    3.0075   -2.6739   -1.4180 C   0  0  0  0  0  0  0  0  0  0  0  0
   -2.8888    3.8457   -0.7269 H   0  0  0  0  0  0  0  0  0  0  0  0
   -4.1224    2.5817   -0.6742 H   0  0  0  0  0  0  0  0  0  0  0  0
   -3.1691    3.0064    0.8025 H   0  0  0  0  0  0  0  0  0  0  0  0
   -4.0995    0.8647    0.9121 H   0  0  0  0  0  0  0  0  0  0  0  0
   -4.2753   -2.4488    2.2739 H   0  0  0  0  0  0  0  0  0  0  0  0
   -4.9043   -0.8862    2.3263 H   0  0  0  0  0  0  0  0  0  0  0  0
   -2.4631   -3.0836    0.8090 H   0  0  0  0  0  0  0  0  0  0  0  0
   -0.6173   -2.3053   -0.6071 H   0  0  0  0  0  0  0  0  0  0  0  0
   -0.3648    1.1000   -2.0928 H   0  0  0  0  0  0  0  0  0  0  0  0
    0.0289   -0.5600   -2.3256 H   0  0  0  0  0  0  0  0  0  0  0  0
    0.5626    2.3954   -0.1242 H   0  0  0  0  0  0  0  0  0  0  0  0
    2.6137    2.8470    1.1437 H   0  0  0  0  0  0  0  0  0  0  0  0
    5.2164    0.3964    1.7065 H   0  0  0  0  0  0  0  0  0  0  0  0
    4.6139    1.9137    2.1259 H   0  0  0  0  0  0  0  0  0  0  0  0
    4.1755   -0.9807    0.0542 H   0  0  0  0  0  0  0  0  0  0  0  0
    3.9263   -2.2843   -1.8686 H   0  0  0  0  0  0  0  0  0  0  0  0
    3.1886   -3.0502   -0.4059 H   0  0  0  0  0  0  0  0  0  0  0  0
    2.6698   -3.5163   -2.0294 H   0  0  0  0  0  0  0  0  0  0  0  0
  1  2  1  0
  2  3  1  0
  3  4  2  0
  4  5  1  0
  5  6  1  0
  5  7  2  0
  7  8  1  0
  8  9  2  0
  9 10  1  0
 10 11  1  0
 11 12  2  0
 12 13  1  0
 13 14  2  0
 14 15  1  0
 14 16  1  0
 16 17  2  0
 17 18  1  0
 18 19  1  0
  9  3  1  0
 17 11  1  0
  1 20  1  0
  1 21  1  0
  1 22  1  0
  4 23  1  0
  6 24  1  0
  6 25  1  0
  7 26  1  0
  8 27  1  0
 10 28  1  0
 10 29  1  0
 12 30  1  0
 13 31  1  0
 15 32  1  0
 15 33  1  0
 16 34  1  0
 19 35  1  0
 19 36  1  0
 19 37  1  0
M  END
$$$$
