
     RDKit          3D

 42 44  0  0  0  0  0  0  0  0999 V2000
   -2.1392    1.0031   -3.8825 C   0  0  0  0  0  0  0  0  0  0  0  0
   -2.7465    0.5055   -2.6314 C   0  0  0  0  0  0  0  0  0  0  0  0
   -4.0843    0.2775   -2.6903 O   0  0  0  0  0  0  0  0  0  0  0  0
   -4.5243   -0.2308   -1.4899 N   0  0  0  0  0  0  0  0  0  0  0  0
   -3.4430   -0.3213   -0.7027 C   0  0  0  0  0  0  0  0  0  0  0  0
   -3.5551   -0.8165    0.6599 C   0  0  0  0  0  0  0  0  0  0  0  0
   -3.3530    0.0722    1.7217 C   0  0  0  0  0  0  0  0  0  0  0  0
   -3.0464    1.3569    1.4791 F   0  0  0  0  0  0  0  0  0  0  0  0
   -3.4574   -0.3415    3.0483 C   0  0  0  0  0  0  0  0  0  0  0  0
   -3.7658   -1.6684    3.3342 C   0  0  0  0  0  0  0  0  0  0  0  0
   -3.9612   -2.5733    2.2895 C   0  0  0  0  0  0  0  0  0  0  0  0
   -3.8547   -2.1528    0.9566 C   0  0  0  0  0  0  0  0  0  0  0  0
   -4.0674   -3.3513   -0.2729 Cl  0  0  0  0  0  0  0  0  0  0  0  0
   -2.2820    0.1707   -1.3740 C   0  0  0  0  0  0  0  0  0  0  0  0
   -0.9321    0.2390   -0.8537 C   0  0  0  0  0  0  0  0  0  0  0  0
   -0.5212   -0.5537   -0.0087 O   0  0  0  0  0  0  0  0  0  0  0  0
   -0.1550    1.2748   -1.3531 N   0  0  0  0  0  0  0  0  0  0  0  0
    1.1595    1.5770   -1.0814 C   0  0  0  0  0  0  0  0  0  0  0  0
    1.8272    2.8961   -1.8541 S   0  0  0  0  0  0  0  0  0  0  0  0
    1.7947    0.7585   -0.1904 N   0  0  0  0  0  0  0  0  0  0  0  0
    3.1984    0.7987    0.2129 C   0  0  0  0  0  0  0  0  0  0  0  0
    3.4134    0.0700    1.5447 C   0  0  0  0  0  0  0  0  0  0  0  0
    4.9199    0.0226    1.7516 C   0  0  0  0  0  0  0  0  0  0  0  0
    5.6032   -0.2462    0.1244 S   0  0  0  0  0  6  0  0  0  0  0  0
    5.9109   -1.6536   -0.0225 O   0  0  0  0  0  0  0  0  0  0  0  0
    6.5784    0.7905   -0.1402 O   0  0  0  0  0  0  0  0  0  0  0  0
    4.1175    0.1098   -0.7944 C   0  0  0  0  0  0  0  0  0  0  0  0
   -2.7505    0.7374   -4.7509 H   0  0  0  0  0  0  0  0  0  0  0  0
   -1.1449    0.5716   -4.0329 H   0  0  0  0  0  0  0  0  0  0  0  0
   -2.0456    2.0928   -3.8534 H   0  0  0  0  0  0  0  0  0  0  0  0
   -3.2971    0.3756    3.8480 H   0  0  0  0  0  0  0  0  0  0  0  0
   -3.8496   -2.0006    4.3664 H   0  0  0  0  0  0  0  0  0  0  0  0
   -4.1928   -3.6115    2.5187 H   0  0  0  0  0  0  0  0  0  0  0  0
   -0.5943    1.9403   -1.9725 H   0  0  0  0  0  0  0  0  0  0  0  0
    1.2355   -0.0259    0.1526 H   0  0  0  0  0  0  0  0  0  0  0  0
    3.5018    1.8461    0.3326 H   0  0  0  0  0  0  0  0  0  0  0  0
    2.9100    0.5750    2.3755 H   0  0  0  0  0  0  0  0  0  0  0  0
    3.0105   -0.9495    1.4894 H   0  0  0  0  0  0  0  0  0  0  0  0
    5.2968    0.9811    2.1200 H   0  0  0  0  0  0  0  0  0  0  0  0
    5.2266   -0.7832    2.4214 H   0  0  0  0  0  0  0  0  0  0  0  0
    4.3603    0.7396   -1.6529 H   0  0  0  0  0  0  0  0  0  0  0  0
    3.6986   -0.8397   -1.1425 H   0  0  0  0  0  0  0  0  0  0  0  0
  1  2  1  0
  2  3  1  0
  3  4  1  0
  4  5  2  0
  5  6  1  0
  6  7  2  0
  7  8  1  0
  7  9  1  0
  9 10  2  0
 10 11  1  0
 11 12  2  0
 12 13  1  0
  5 14  1  0
 14 15  1  0
 15 16  2  0
 15 17  1  0
 17 18  1  0
 18 19  2  0
 18 20  1  0
 20 21  1  0
 21 22  1  0
 22 23  1  0
 23 24  1  0
 24 25  2  0
 24 26  2  0
 24 27  1  0
 14  2  2  0
 27 21  1  0
 12  6  1  0
  1 28  1  0
  1 29  1  0
  1 30  1  0
  9 31  1  0
 10 32  1  0
 11 33  1  0
 17 34  1  0
 20 35  1  0
 21 36  1  0
 22 37  1  0
 22 38  1  0
 23 39  1  0
 23 40  1  0
 27 41  1  0
 27 42  1  0
M  END
$$$$
