
     RDKit          3D

 47 48  0  0  0  0  0  0  0  0999 V2000
   -5.5906   -0.5264    0.0172 C   0  0  0  0  0  0  0  0  0  0  0  0
   -4.1397    0.5443    0.1627 S   0  0  0  0  0  0  0  0  0  0  0  0
   -3.6831    0.6269   -1.5981 C   0  0  0  0  0  0  0  0  0  0  0  0
   -2.3264    1.3063   -1.8095 C   0  0  0  0  0  0  0  0  0  0  0  0
   -1.1417    0.3260   -1.8556 C   0  0  0  0  0  0  0  0  0  0  0  0
    0.0882    1.0715   -2.2144 N   0  0  0  0  0  0  0  0  0  0  0  0
    1.4052    0.2123   -2.8179 S   0  0  0  0  0  6  0  0  0  0  0  0
    2.2129    1.2002   -3.5020 O   0  0  0  0  0  0  0  0  0  0  0  0
    0.9138   -0.9569   -3.5092 O   0  0  0  0  0  0  0  0  0  0  0  0
    2.2933   -0.2809   -1.3689 C   0  0  0  0  0  0  0  0  0  0  0  0
    2.2349   -1.6051   -0.9316 C   0  0  0  0  0  0  0  0  0  0  0  0
    2.9692   -1.9920    0.1908 C   0  0  0  0  0  0  0  0  0  0  0  0
    3.7627   -1.0628    0.8773 C   0  0  0  0  0  0  0  0  0  0  0  0
    4.5737   -1.4919    2.0646 C   0  0  0  0  0  0  0  0  0  0  0  0
    3.8396    0.2547    0.4061 C   0  0  0  0  0  0  0  0  0  0  0  0
    3.1072    0.6482   -0.7151 C   0  0  0  0  0  0  0  0  0  0  0  0
   -0.9827   -0.5354   -0.5965 C   0  0  0  0  0  0  0  0  0  0  0  0
   -1.1936   -1.7517   -0.6704 O   0  0  0  0  0  0  0  0  0  0  0  0
   -0.6162    0.0450    0.5977 N   0  0  0  0  0  0  0  0  0  0  0  0
   -0.5226   -0.7627    1.8033 C   0  0  0  0  0  0  0  0  0  0  0  0
   -0.3883    0.2417    2.9377 C   0  0  0  0  0  0  0  0  0  0  0  0
    0.3162    1.4131    2.2695 C   0  0  0  0  0  0  0  0  0  0  0  0
   -0.3204    1.4402    0.8865 C   0  0  0  0  0  0  0  0  0  0  0  0
   -5.3058   -1.4995   -0.3913 H   0  0  0  0  0  0  0  0  0  0  0  0
   -6.0256   -0.6797    1.0083 H   0  0  0  0  0  0  0  0  0  0  0  0
   -6.3432   -0.0622   -0.6254 H   0  0  0  0  0  0  0  0  0  0  0  0
   -3.6914   -0.3760   -2.0370 H   0  0  0  0  0  0  0  0  0  0  0  0
   -4.4575    1.2187   -2.0980 H   0  0  0  0  0  0  0  0  0  0  0  0
   -2.1642    2.1198   -1.0952 H   0  0  0  0  0  0  0  0  0  0  0  0
   -2.3683    1.8002   -2.7913 H   0  0  0  0  0  0  0  0  0  0  0  0
   -1.3605   -0.3631   -2.6827 H   0  0  0  0  0  0  0  0  0  0  0  0
   -0.0161    1.9575   -2.7061 H   0  0  0  0  0  0  0  0  0  0  0  0
    1.6171   -2.3376   -1.4480 H   0  0  0  0  0  0  0  0  0  0  0  0
    2.9149   -3.0255    0.5275 H   0  0  0  0  0  0  0  0  0  0  0  0
    5.5581   -1.8416    1.7388 H   0  0  0  0  0  0  0  0  0  0  0  0
    4.0724   -2.2996    2.6083 H   0  0  0  0  0  0  0  0  0  0  0  0
    4.7064   -0.6621    2.7668 H   0  0  0  0  0  0  0  0  0  0  0  0
    4.4756    0.9807    0.9084 H   0  0  0  0  0  0  0  0  0  0  0  0
    3.1805    1.6712   -1.0764 H   0  0  0  0  0  0  0  0  0  0  0  0
   -1.4007   -1.4063    1.9147 H   0  0  0  0  0  0  0  0  0  0  0  0
    0.3689   -1.3929    1.7220 H   0  0  0  0  0  0  0  0  0  0  0  0
    0.1618   -0.1590    3.7933 H   0  0  0  0  0  0  0  0  0  0  0  0
   -1.3815    0.5541    3.2823 H   0  0  0  0  0  0  0  0  0  0  0  0
    1.3891    1.2038    2.1892 H   0  0  0  0  0  0  0  0  0  0  0  0
    0.1889    2.3546    2.8105 H   0  0  0  0  0  0  0  0  0  0  0  0
    0.3349    1.8896    0.1403 H   0  0  0  0  0  0  0  0  0  0  0  0
   -1.2651    1.9904    0.9172 H   0  0  0  0  0  0  0  0  0  0  0  0
  1  2  1  0
  2  3  1  0
  3  4  1  0
  4  5  1  0
  5  6  1  0
  6  7  1  0
  7  8  2  0
  7  9  2  0
  7 10  1  0
 10 11  2  0
 11 12  1  0
 12 13  2  0
 13 14  1  0
 13 15  1  0
 15 16  2  0
  5 17  1  0
 17 18  2  0
 17 19  1  0
 19 20  1  0
 20 21  1  0
 21 22  1  0
 22 23  1  0
 16 10  1  0
 23 19  1  0
  1 24  1  0
  1 25  1  0
  1 26  1  0
  3 27  1  0
  3 28  1  0
  4 29  1  0
  4 30  1  0
  5 31  1  0
  6 32  1  0
 11 33  1  0
 12 34  1  0
 14 35  1  0
 14 36  1  0
 14 37  1  0
 15 38  1  0
 16 39  1  0
 20 40  1  0
 20 41  1  0
 21 42  1  0
 21 43  1  0
 22 44  1  0
 22 45  1  0
 23 46  1  0
 23 47  1  0
M  END
$$$$
