
     RDKit          3D

 45 48  0  0  0  0  0  0  0  0999 V2000
   -5.5975   -1.7740    1.0081 C   0  0  0  0  0  0  0  0  0  0  0  0
   -4.4163   -2.1827    1.8679 C   0  0  0  0  0  0  0  0  0  0  0  0
   -3.1912   -1.7321    1.2717 O   0  0  0  0  0  0  0  0  0  0  0  0
   -2.8212   -0.4609    1.5783 C   0  0  0  0  0  0  0  0  0  0  0  0
   -3.4051    0.3049    2.3287 O   0  0  0  0  0  0  0  0  0  0  0  0
   -1.5846   -0.1180    0.8478 C   0  0  0  0  0  0  0  0  0  0  0  0
   -1.7659    1.0279   -0.0701 C   0  0  0  0  0  0  0  0  0  0  0  0
   -2.6656    1.1019   -0.8946 O   0  0  0  0  0  0  0  0  0  0  0  0
   -0.8849    2.0142    0.2502 O   0  0  0  0  0  0  0  0  0  0  0  0
   -1.0848    3.2694   -0.4150 C   0  0  0  0  0  0  0  0  0  0  0  0
   -0.3360    3.3045   -1.7331 C   0  0  0  0  0  0  0  0  0  0  0  0
   -0.4050   -0.7359    1.1254 C   0  0  0  0  0  0  0  0  0  0  0  0
   -0.2774   -1.5773    2.3747 C   0  0  0  0  0  0  0  0  0  0  0  0
    0.9189   -1.8905    2.9355 C   0  0  0  0  0  0  0  0  0  0  0  0
    1.0260   -2.8730    4.5205 Br  0  0  0  0  0  0  0  0  0  0  0  0
    2.1337   -1.4822    2.2920 C   0  0  0  0  0  0  0  0  0  0  0  0
    3.4221   -1.6476    2.6128 N   0  0  0  0  0  0  0  0  0  0  0  0
    4.1397   -1.1466    1.5166 O   0  0  0  0  0  0  0  0  0  0  0  0
    3.2668   -0.7133    0.5563 C   0  0  0  0  0  0  0  0  0  0  0  0
    3.5310   -0.2209   -0.7278 C   0  0  0  0  0  0  0  0  0  0  0  0
    4.8520   -0.0586   -1.1843 C   0  0  0  0  0  0  0  0  0  0  0  0
    5.0738    0.4120   -2.4740 C   0  0  0  0  0  0  0  0  0  0  0  0
    3.9919    0.7168   -3.2978 C   0  0  0  0  0  0  0  0  0  0  0  0
    2.6773    0.5464   -2.8422 C   0  0  0  0  0  0  0  0  0  0  0  0
    2.4008    0.0634   -1.5432 C   0  0  0  0  0  0  0  0  0  0  0  0
    1.0865   -0.1437   -1.0155 C   0  0  0  0  0  0  0  0  0  0  0  0
   -0.0083   -0.0651   -1.8386 O   0  0  0  0  0  0  0  0  0  0  0  0
    0.8505   -0.5049    0.3237 C   0  0  0  0  0  0  0  0  0  0  0  0
    1.9952   -0.8521    1.0446 C   0  0  0  0  0  0  0  0  0  0  0  0
   -5.6736   -0.6844    0.9371 H   0  0  0  0  0  0  0  0  0  0  0  0
   -6.5319   -2.1631    1.4223 H   0  0  0  0  0  0  0  0  0  0  0  0
   -5.4788   -2.1519   -0.0127 H   0  0  0  0  0  0  0  0  0  0  0  0
   -4.3617   -3.2748    1.9242 H   0  0  0  0  0  0  0  0  0  0  0  0
   -4.5192   -1.8121    2.8943 H   0  0  0  0  0  0  0  0  0  0  0  0
   -2.1512    3.4801   -0.5563 H   0  0  0  0  0  0  0  0  0  0  0  0
   -0.6917    4.0461    0.2492 H   0  0  0  0  0  0  0  0  0  0  0  0
   -0.7260    2.5532   -2.4263 H   0  0  0  0  0  0  0  0  0  0  0  0
    0.7251    3.0834   -1.5801 H   0  0  0  0  0  0  0  0  0  0  0  0
   -0.4262    4.2880   -2.2029 H   0  0  0  0  0  0  0  0  0  0  0  0
   -1.1819   -1.8917    2.8881 H   0  0  0  0  0  0  0  0  0  0  0  0
    5.6986   -0.2948   -0.5434 H   0  0  0  0  0  0  0  0  0  0  0  0
    6.0899    0.5465   -2.8370 H   0  0  0  0  0  0  0  0  0  0  0  0
    4.1702    1.0968   -4.3016 H   0  0  0  0  0  0  0  0  0  0  0  0
    1.8736    0.8300   -3.5174 H   0  0  0  0  0  0  0  0  0  0  0  0
    0.2623   -0.2334   -2.7561 H   0  0  0  0  0  0  0  0  0  0  0  0
  1  2  1  0
  2  3  1  0
  3  4  1  0
  4  5  2  0
  4  6  1  0
  6  7  1  0
  7  8  2  0
  7  9  1  0
  9 10  1  0
 10 11  1  0
  6 12  2  3
 12 13  1  0
 13 14  2  0
 14 15  1  0
 14 16  1  0
 16 17  2  0
 17 18  1  0
 18 19  1  0
 19 20  1  0
 20 21  2  0
 21 22  1  0
 22 23  2  0
 23 24  1  0
 24 25  2  0
 25 26  1  0
 26 27  1  0
 26 28  2  0
 28 29  1  0
 28 12  1  0
 29 16  1  0
 29 19  2  0
 25 20  1  0
  1 30  1  0
  1 31  1  0
  1 32  1  0
  2 33  1  0
  2 34  1  0
 10 35  1  0
 10 36  1  0
 11 37  1  0
 11 38  1  0
 11 39  1  0
 13 40  1  0
 21 41  1  0
 22 42  1  0
 23 43  1  0
 24 44  1  0
 27 45  1  0
M  END
$$$$
