
     RDKit          3D

 50 52  0  0  0  0  0  0  0  0999 V2000
    2.4954    0.5331   -1.8773 O   0  0  0  0  0  0  0  0  0  0  0  0
    2.3084   -0.3239   -0.7376 C   0  0  0  0  0  0  0  0  0  0  0  0
    3.4671   -1.3285   -0.6445 C   0  0  0  0  0  0  0  0  0  0  0  0
    4.6594   -0.7563   -0.0969 O   0  0  0  0  0  0  0  0  0  0  0  0
    5.2724    0.2054   -0.9586 C   0  0  0  0  0  0  0  0  0  0  0  0
    6.6759    0.3838   -0.4644 C   0  0  0  0  0  0  0  0  0  0  0  0
    7.1007    0.7287    0.8050 C   0  0  0  0  0  0  0  0  0  0  0  0
    8.5190    0.8223    0.8990 C   0  0  0  0  0  0  0  0  0  0  0  0
    9.1328    0.5454   -0.3019 C   0  0  0  0  0  0  0  0  0  0  0  0
    8.0033    0.1764   -1.5311 S   0  0  0  0  0  0  0  0  0  0  0  0
    0.9569   -1.0522   -0.9066 C   0  0  0  0  0  0  0  0  0  0  0  0
   -0.1386   -0.0936   -1.1762 N   0  0  0  0  0  0  0  0  0  0  0  0
   -1.2847   -0.7926   -1.8055 C   0  0  0  0  0  0  0  0  0  0  0  0
   -2.6340   -0.0502   -1.6681 C   0  0  0  0  0  0  0  0  0  0  0  0
   -2.9940    0.1047   -0.2495 N   0  0  0  0  0  0  0  0  0  0  0  0
   -4.3109    0.2254    0.1586 C   0  0  0  0  0  0  0  0  0  0  0  0
   -5.3296    0.6151   -0.7257 C   0  0  0  0  0  0  0  0  0  0  0  0
   -6.6640    0.7330   -0.3193 C   0  0  0  0  0  0  0  0  0  0  0  0
   -7.0186    0.4619    0.9971 C   0  0  0  0  0  0  0  0  0  0  0  0
   -6.0373    0.0787    1.9165 C   0  0  0  0  0  0  0  0  0  0  0  0
   -6.3976   -0.2493    3.3428 C   0  0  0  0  0  0  0  0  0  0  0  0
   -5.4399    0.1365    4.2350 F   0  0  0  0  0  0  0  0  0  0  0  0
   -6.5730   -1.5875    3.5391 F   0  0  0  0  0  0  0  0  0  0  0  0
   -7.5538    0.3442    3.7584 F   0  0  0  0  0  0  0  0  0  0  0  0
   -4.7018   -0.0396    1.4819 C   0  0  0  0  0  0  0  0  0  0  0  0
   -1.8777    0.1394    0.7090 C   0  0  0  0  0  0  0  0  0  0  0  0
   -0.5739    0.6385    0.0382 C   0  0  0  0  0  0  0  0  0  0  0  0
    1.6018    0.8925   -2.0611 H   0  0  0  0  0  0  0  0  0  0  0  0
    2.3089    0.3186    0.1490 H   0  0  0  0  0  0  0  0  0  0  0  0
    3.6959   -1.7719   -1.6211 H   0  0  0  0  0  0  0  0  0  0  0  0
    3.1914   -2.1422    0.0351 H   0  0  0  0  0  0  0  0  0  0  0  0
    5.2529   -0.1400   -1.9982 H   0  0  0  0  0  0  0  0  0  0  0  0
    4.7428    1.1603   -0.8794 H   0  0  0  0  0  0  0  0  0  0  0  0
    6.4163    0.8985    1.6284 H   0  0  0  0  0  0  0  0  0  0  0  0
    9.0607    1.0756    1.8019 H   0  0  0  0  0  0  0  0  0  0  0  0
   10.1919    0.5402   -0.5199 H   0  0  0  0  0  0  0  0  0  0  0  0
    1.0538   -1.7162   -1.7766 H   0  0  0  0  0  0  0  0  0  0  0  0
    0.7344   -1.6806   -0.0349 H   0  0  0  0  0  0  0  0  0  0  0  0
   -1.4072   -1.7913   -1.3622 H   0  0  0  0  0  0  0  0  0  0  0  0
   -1.0644   -0.9337   -2.8701 H   0  0  0  0  0  0  0  0  0  0  0  0
   -2.5760    0.9359   -2.1455 H   0  0  0  0  0  0  0  0  0  0  0  0
   -3.3878   -0.6441   -2.1992 H   0  0  0  0  0  0  0  0  0  0  0  0
   -5.0974    0.8603   -1.7583 H   0  0  0  0  0  0  0  0  0  0  0  0
   -7.4211    1.0415   -1.0365 H   0  0  0  0  0  0  0  0  0  0  0  0
   -8.0592    0.5513    1.3042 H   0  0  0  0  0  0  0  0  0  0  0  0
   -3.9625   -0.3724    2.2086 H   0  0  0  0  0  0  0  0  0  0  0  0
   -2.0978    0.8241    1.5377 H   0  0  0  0  0  0  0  0  0  0  0  0
   -1.7211   -0.8633    1.1249 H   0  0  0  0  0  0  0  0  0  0  0  0
    0.2177    0.6784    0.7947 H   0  0  0  0  0  0  0  0  0  0  0  0
   -0.7360    1.6797   -0.2712 H   0  0  0  0  0  0  0  0  0  0  0  0
  1  2  1  0
  2  3  1  0
  3  4  1  0
  4  5  1  0
  5  6  1  0
  6  7  2  0
  7  8  1  0
  8  9  2  0
  9 10  1  0
  2 11  1  0
 11 12  1  0
 12 13  1  0
 13 14  1  0
 14 15  1  0
 15 16  1  0
 16 17  2  0
 17 18  1  0
 18 19  2  0
 19 20  1  0
 20 21  1  0
 21 22  1  0
 21 23  1  0
 21 24  1  0
 20 25  2  0
 15 26  1  0
 26 27  1  0
 10  6  1  0
 27 12  1  0
 25 16  1  0
  1 28  1  0
  2 29  1  0
  3 30  1  0
  3 31  1  0
  5 32  1  0
  5 33  1  0
  7 34  1  0
  8 35  1  0
  9 36  1  0
 11 37  1  0
 11 38  1  0
 13 39  1  0
 13 40  1  0
 14 41  1  0
 14 42  1  0
 17 43  1  0
 18 44  1  0
 19 45  1  0
 25 46  1  0
 26 47  1  0
 26 48  1  0
 27 49  1  0
 27 50  1  0
M  END
$$$$
