
     RDKit          3D

 44 46  0  0  0  0  0  0  0  0999 V2000
    7.5843   -1.9429   -0.9923 C   0  0  0  0  0  0  0  0  0  0  0  0
    6.9976   -0.8648   -1.7095 O   0  0  0  0  0  0  0  0  0  0  0  0
    5.7509   -0.4663   -1.3154 C   0  0  0  0  0  0  0  0  0  0  0  0
    5.0315   -0.9677   -0.2329 C   0  0  0  0  0  0  0  0  0  0  0  0
    3.7570   -0.4637    0.0575 C   0  0  0  0  0  0  0  0  0  0  0  0
    3.1853    0.5457   -0.7270 C   0  0  0  0  0  0  0  0  0  0  0  0
    1.8995    0.9871   -0.3653 N   0  0  0  0  0  0  0  0  0  0  0  0
    1.1257    1.9585   -0.9728 C   0  0  0  0  0  0  0  0  0  0  0  0
    1.4472    2.6499   -1.9362 O   0  0  0  0  0  0  0  0  0  0  0  0
   -0.2301    2.1606   -0.2861 C   0  0  0  0  0  0  0  0  0  0  0  0
   -0.9807    0.9586   -0.1562 O   0  0  0  0  0  0  0  0  0  0  0  0
   -1.0592    0.4905    1.1152 C   0  0  0  0  0  0  0  0  0  0  0  0
    0.0782    0.4329    1.8144 N   0  0  0  0  0  0  0  0  0  0  0  0
   -0.3924   -0.1911    3.2925 S   0  0  0  0  0  0  0  0  0  0  0  0
   -2.0176   -0.4223    3.0217 N   0  0  0  0  0  0  0  0  0  0  0  0
   -2.2580   -0.0385    1.7599 C   0  0  0  0  0  0  0  0  0  0  0  0
   -3.5025   -0.1078    1.1783 N   0  0  0  0  0  0  0  0  0  0  0  0
   -4.6686   -0.4164    2.0112 C   0  0  0  0  0  0  0  0  0  0  0  0
   -5.9299    0.1692    1.3819 C   0  0  0  0  0  0  0  0  0  0  0  0
   -6.1848   -0.3793   -0.0198 C   0  0  0  0  0  0  0  0  0  0  0  0
   -4.9199   -0.9225   -0.6776 C   0  0  0  0  0  0  0  0  0  0  0  0
   -3.6731   -0.1369   -0.2768 C   0  0  0  0  0  0  0  0  0  0  0  0
    3.9096    1.0459   -1.8069 C   0  0  0  0  0  0  0  0  0  0  0  0
    5.1838    0.5426   -2.0953 C   0  0  0  0  0  0  0  0  0  0  0  0
    7.7573   -1.6730    0.0546 H   0  0  0  0  0  0  0  0  0  0  0  0
    6.9742   -2.8487   -1.0718 H   0  0  0  0  0  0  0  0  0  0  0  0
    8.5570   -2.1561   -1.4462 H   0  0  0  0  0  0  0  0  0  0  0  0
    5.4293   -1.7479    0.4070 H   0  0  0  0  0  0  0  0  0  0  0  0
    3.2178   -0.8744    0.9079 H   0  0  0  0  0  0  0  0  0  0  0  0
    1.4777    0.5374    0.4459 H   0  0  0  0  0  0  0  0  0  0  0  0
   -0.8202    2.8229   -0.9309 H   0  0  0  0  0  0  0  0  0  0  0  0
   -0.0842    2.7007    0.6590 H   0  0  0  0  0  0  0  0  0  0  0  0
   -4.5642    0.0202    3.0128 H   0  0  0  0  0  0  0  0  0  0  0  0
   -4.7659   -1.5023    2.1318 H   0  0  0  0  0  0  0  0  0  0  0  0
   -6.7997   -0.0262    2.0203 H   0  0  0  0  0  0  0  0  0  0  0  0
   -5.8255    1.2606    1.3228 H   0  0  0  0  0  0  0  0  0  0  0  0
   -6.9333   -1.1795    0.0228 H   0  0  0  0  0  0  0  0  0  0  0  0
   -6.6189    0.4144   -0.6394 H   0  0  0  0  0  0  0  0  0  0  0  0
   -5.0367   -0.9177   -1.7673 H   0  0  0  0  0  0  0  0  0  0  0  0
   -4.7895   -1.9726   -0.3838 H   0  0  0  0  0  0  0  0  0  0  0  0
   -3.7418    0.8905   -0.6540 H   0  0  0  0  0  0  0  0  0  0  0  0
   -2.8192   -0.6226   -0.7635 H   0  0  0  0  0  0  0  0  0  0  0  0
    3.5163    1.8280   -2.4481 H   0  0  0  0  0  0  0  0  0  0  0  0
    5.7359    0.9437   -2.9422 H   0  0  0  0  0  0  0  0  0  0  0  0
  1  2  1  0
  2  3  1  0
  3  4  2  0
  4  5  1  0
  5  6  2  0
  6  7  1  0
  7  8  1  0
  8  9  2  0
  8 10  1  0
 10 11  1  0
 11 12  1  0
 12 13  2  0
 13 14  1  0
 14 15  1  0
 15 16  2  0
 16 17  1  0
 17 18  1  0
 18 19  1  0
 19 20  1  0
 20 21  1  0
 21 22  1  0
  6 23  1  0
 23 24  2  0
 24  3  1  0
 16 12  1  0
 22 17  1  0
  1 25  1  0
  1 26  1  0
  1 27  1  0
  4 28  1  0
  5 29  1  0
  7 30  1  0
 10 31  1  0
 10 32  1  0
 18 33  1  0
 18 34  1  0
 19 35  1  0
 19 36  1  0
 20 37  1  0
 20 38  1  0
 21 39  1  0
 21 40  1  0
 22 41  1  0
 22 42  1  0
 23 43  1  0
 24 44  1  0
M  END
$$$$
