
     RDKit          3D

 71 76  0  0  0  0  0  0  0  0999 V2000
    9.2438    1.9653    1.3071 C   0  0  0  0  0  0  0  0  0  0  0  0
    9.5901    0.6026    1.0933 O   0  0  0  0  0  0  0  0  0  0  0  0
    8.5608   -0.2683    0.8566 C   0  0  0  0  0  0  0  0  0  0  0  0
    8.9441   -1.6024    0.7535 C   0  0  0  0  0  0  0  0  0  0  0  0
    7.9905   -2.5834    0.5092 C   0  0  0  0  0  0  0  0  0  0  0  0
    6.6451   -2.2297    0.3668 C   0  0  0  0  0  0  0  0  0  0  0  0
    6.2140   -0.8970    0.4647 C   0  0  0  0  0  0  0  0  0  0  0  0
    4.8788   -0.5407    0.3142 N   0  0  0  0  0  0  0  0  0  0  0  0
    4.3539    0.6750    0.9671 C   0  0  0  0  0  0  0  0  0  0  0  0
    2.8575    0.5540    1.3078 C   0  0  0  0  0  0  0  0  0  0  0  0
    2.0341    0.1790    0.1537 N   0  0  0  0  0  0  0  0  0  0  0  0
    0.7249    0.6388    0.0935 C   0  0  0  0  0  0  0  0  0  0  0  0
    0.2505    1.3187    1.0052 O   0  0  0  0  0  0  0  0  0  0  0  0
   -0.0964    0.3109   -1.1544 C   0  0  0  0  0  0  0  0  0  0  0  0
    0.4513    1.0502   -2.3874 C   0  0  0  0  0  0  0  0  0  0  0  0
   -0.6327    1.7551   -3.1955 C   0  0  0  0  0  0  0  0  0  0  0  0
   -1.8600    0.8690   -3.3955 C   0  0  0  0  0  0  0  0  0  0  0  0
   -2.3528    0.3490   -2.1204 N   0  0  0  0  0  0  0  0  0  0  0  0
   -3.7339    0.1531   -2.0457 C   0  0  0  0  0  0  0  0  0  0  0  0
   -4.4044   -0.1338   -3.2066 N   0  0  0  0  0  0  0  0  0  0  0  0
   -5.7338   -0.3550   -3.1782 C   0  0  0  0  0  0  0  0  0  0  0  0
   -6.5597   -0.3244   -2.1203 N   0  0  0  0  0  0  0  0  0  0  0  0
   -5.8829   -0.0373   -0.9976 C   0  0  0  0  0  0  0  0  0  0  0  0
   -4.5220    0.2017   -0.8654 C   0  0  0  0  0  0  0  0  0  0  0  0
   -4.2193    0.4615    0.4606 N   0  0  0  0  0  0  0  0  0  0  0  0
   -5.3581    0.3730    1.1188 C   0  0  0  0  0  0  0  0  0  0  0  0
   -6.3941    0.0796    0.2657 N   0  0  0  0  0  0  0  0  0  0  0  0
   -7.7808   -0.0838    0.6427 C   0  0  0  0  0  0  0  0  0  0  0  0
   -8.0001   -1.2366    1.6195 C   0  0  0  0  0  0  0  0  0  0  0  0
   -7.5813   -0.9190    3.0576 C   0  0  0  0  0  0  0  0  0  0  0  0
   -6.0801   -0.7014    3.2663 C   0  0  0  0  0  0  0  0  0  0  0  0
   -5.5343    0.5537    2.5870 C   0  0  0  0  0  0  0  0  0  0  0  0
   -1.5836    0.6196   -0.9021 C   0  0  0  0  0  0  0  0  0  0  0  0
    2.6713   -0.7160   -0.8201 C   0  0  0  0  0  0  0  0  0  0  0  0
    3.8923   -1.4705   -0.2561 C   0  0  0  0  0  0  0  0  0  0  0  0
    7.2097    0.0715    0.7066 C   0  0  0  0  0  0  0  0  0  0  0  0
    8.8150    2.4080    0.4026 H   0  0  0  0  0  0  0  0  0  0  0  0
    8.5670    2.0736    2.1615 H   0  0  0  0  0  0  0  0  0  0  0  0
   10.1629    2.5112    1.5402 H   0  0  0  0  0  0  0  0  0  0  0  0
    9.9900   -1.8757    0.8643 H   0  0  0  0  0  0  0  0  0  0  0  0
    8.2893   -3.6252    0.4332 H   0  0  0  0  0  0  0  0  0  0  0  0
    5.9354   -3.0341    0.1971 H   0  0  0  0  0  0  0  0  0  0  0  0
    4.5039    1.5260    0.2916 H   0  0  0  0  0  0  0  0  0  0  0  0
    4.8877    0.8819    1.9028 H   0  0  0  0  0  0  0  0  0  0  0  0
    2.7084   -0.2258    2.0650 H   0  0  0  0  0  0  0  0  0  0  0  0
    2.5068    1.4988    1.7378 H   0  0  0  0  0  0  0  0  0  0  0  0
   -0.0330   -0.7699   -1.3310 H   0  0  0  0  0  0  0  0  0  0  0  0
    1.2171    1.7850   -2.1112 H   0  0  0  0  0  0  0  0  0  0  0  0
    0.9505    0.3206   -3.0378 H   0  0  0  0  0  0  0  0  0  0  0  0
   -0.2305    2.0600   -4.1683 H   0  0  0  0  0  0  0  0  0  0  0  0
   -0.9272    2.6769   -2.6769 H   0  0  0  0  0  0  0  0  0  0  0  0
   -2.6158    1.4742   -3.9117 H   0  0  0  0  0  0  0  0  0  0  0  0
   -1.6064    0.0261   -4.0495 H   0  0  0  0  0  0  0  0  0  0  0  0
   -6.1917   -0.5896   -4.1335 H   0  0  0  0  0  0  0  0  0  0  0  0
   -8.3618   -0.2664   -0.2687 H   0  0  0  0  0  0  0  0  0  0  0  0
   -8.1235    0.8702    1.0603 H   0  0  0  0  0  0  0  0  0  0  0  0
   -9.0720   -1.4708    1.6313 H   0  0  0  0  0  0  0  0  0  0  0  0
   -7.4822   -2.1393    1.2723 H   0  0  0  0  0  0  0  0  0  0  0  0
   -7.8929   -1.7573    3.6929 H   0  0  0  0  0  0  0  0  0  0  0  0
   -8.1329   -0.0412    3.4153 H   0  0  0  0  0  0  0  0  0  0  0  0
   -5.9088   -0.6029    4.3458 H   0  0  0  0  0  0  0  0  0  0  0  0
   -5.5252   -1.5902    2.9407 H   0  0  0  0  0  0  0  0  0  0  0  0
   -4.5561    0.7890    3.0238 H   0  0  0  0  0  0  0  0  0  0  0  0
   -6.1814    1.4157    2.7846 H   0  0  0  0  0  0  0  0  0  0  0  0
   -1.9052   -0.0337   -0.0826 H   0  0  0  0  0  0  0  0  0  0  0  0
   -1.7355    1.6592   -0.5843 H   0  0  0  0  0  0  0  0  0  0  0  0
    1.9449   -1.4409   -1.1948 H   0  0  0  0  0  0  0  0  0  0  0  0
    2.9902   -0.0887   -1.6603 H   0  0  0  0  0  0  0  0  0  0  0  0
    4.3272   -2.0466   -1.0811 H   0  0  0  0  0  0  0  0  0  0  0  0
    3.5663   -2.1735    0.5202 H   0  0  0  0  0  0  0  0  0  0  0  0
    6.9168    1.1137    0.7481 H   0  0  0  0  0  0  0  0  0  0  0  0
  1  2  1  0
  2  3  1  0
  3  4  2  0
  4  5  1  0
  5  6  2  0
  6  7  1  0
  7  8  1  0
  8  9  1  0
  9 10  1  0
 10 11  1  0
 11 12  1  0
 12 13  2  0
 12 14  1  0
 14 15  1  0
 15 16  1  0
 16 17  1  0
 17 18  1  0
 18 19  1  0
 19 20  2  0
 20 21  1  0
 21 22  2  0
 22 23  1  0
 23 24  2  0
 24 25  1  0
 25 26  2  0
 26 27  1  0
 27 28  1  0
 28 29  1  0
 29 30  1  0
 30 31  1  0
 31 32  1  0
 18 33  1  0
 11 34  1  0
 34 35  1  0
  7 36  2  0
 36  3  1  0
 35  8  1  0
 33 14  1  0
 24 19  1  0
 32 26  1  0
 27 23  1  0
  1 37  1  0
  1 38  1  0
  1 39  1  0
  4 40  1  0
  5 41  1  0
  6 42  1  0
  9 43  1  0
  9 44  1  0
 10 45  1  0
 10 46  1  0
 14 47  1  0
 15 48  1  0
 15 49  1  0
 16 50  1  0
 16 51  1  0
 17 52  1  0
 17 53  1  0
 21 54  1  0
 28 55  1  0
 28 56  1  0
 29 57  1  0
 29 58  1  0
 30 59  1  0
 30 60  1  0
 31 61  1  0
 31 62  1  0
 32 63  1  0
 32 64  1  0
 33 65  1  0
 33 66  1  0
 34 67  1  0
 34 68  1  0
 35 69  1  0
 35 70  1  0
 36 71  1  0
M  END
$$$$
