
     RDKit          3D

 53 56  0  0  0  0  0  0  0  0999 V2000
    7.7921    0.5937    1.2531 C   0  0  0  0  0  0  0  0  0  0  0  0
    7.1436   -0.7382    1.5883 C   0  0  0  0  0  0  0  0  0  0  0  0
    5.8509   -0.5430    2.1595 O   0  0  0  0  0  0  0  0  0  0  0  0
    4.7671   -0.4811    1.3313 C   0  0  0  0  0  0  0  0  0  0  0  0
    3.5384   -0.4172    1.9884 C   0  0  0  0  0  0  0  0  0  0  0  0
    2.3391   -0.3466    1.2683 C   0  0  0  0  0  0  0  0  0  0  0  0
    2.3327   -0.3384   -0.1365 C   0  0  0  0  0  0  0  0  0  0  0  0
    1.0823   -0.2678   -0.9230 C   0  0  0  0  0  0  0  0  0  0  0  0
   -0.1224   -0.7811   -0.4758 C   0  0  0  0  0  0  0  0  0  0  0  0
   -1.2442   -0.6480   -1.2945 C   0  0  0  0  0  0  0  0  0  0  0  0
   -2.5203   -1.1901   -0.7883 C   0  0  0  0  0  0  0  0  0  0  0  0
   -2.9629   -2.2095   -1.3086 O   0  0  0  0  0  0  0  0  0  0  0  0
   -3.1393   -0.5243    0.2607 N   0  0  0  0  0  0  0  0  0  0  0  0
   -2.7309    0.7869    0.7830 C   0  0  0  0  0  0  0  0  0  0  0  0
   -3.9017    1.5311    1.4505 C   0  0  0  0  0  0  0  0  0  0  0  0
   -4.5057    0.7765    2.5649 N   0  0  0  0  0  0  0  0  0  0  0  0
   -5.8172    1.3197    2.9074 C   0  0  0  0  0  0  0  0  0  0  0  0
   -4.5621   -0.6770    2.3010 C   0  0  0  0  0  0  0  0  0  0  0  0
   -4.3606   -1.0920    0.8319 C   0  0  0  0  0  0  0  0  0  0  0  0
   -1.1635   -0.0410   -2.5617 C   0  0  0  0  0  0  0  0  0  0  0  0
   -2.2523    0.1117   -3.4559 C   0  0  0  0  0  0  0  0  0  0  0  0
   -2.0827    0.7372   -4.6889 C   0  0  0  0  0  0  0  0  0  0  0  0
   -0.8298    1.2171   -5.0431 C   0  0  0  0  0  0  0  0  0  0  0  0
    0.2444    1.0651   -4.1625 C   0  0  0  0  0  0  0  0  0  0  0  0
    0.1026    0.4439   -2.9285 C   0  0  0  0  0  0  0  0  0  0  0  0
    1.1829    0.3373   -2.1341 N   0  0  0  0  0  0  0  0  0  0  0  0
    3.5834   -0.3892   -0.7789 C   0  0  0  0  0  0  0  0  0  0  0  0
    4.7851   -0.4606   -0.0591 C   0  0  0  0  0  0  0  0  0  0  0  0
    8.8107    0.4451    0.8833 H   0  0  0  0  0  0  0  0  0  0  0  0
    7.2221    1.1373    0.4940 H   0  0  0  0  0  0  0  0  0  0  0  0
    7.8301    1.2348    2.1401 H   0  0  0  0  0  0  0  0  0  0  0  0
    7.7490   -1.2326    2.3566 H   0  0  0  0  0  0  0  0  0  0  0  0
    7.1278   -1.4235    0.7337 H   0  0  0  0  0  0  0  0  0  0  0  0
    3.5116   -0.4189    3.0757 H   0  0  0  0  0  0  0  0  0  0  0  0
    1.4122   -0.2802    1.8326 H   0  0  0  0  0  0  0  0  0  0  0  0
   -0.2048   -1.2931    0.4767 H   0  0  0  0  0  0  0  0  0  0  0  0
   -1.9297    0.6134    1.5110 H   0  0  0  0  0  0  0  0  0  0  0  0
   -2.3244    1.3981   -0.0290 H   0  0  0  0  0  0  0  0  0  0  0  0
   -4.6554    1.7398    0.6788 H   0  0  0  0  0  0  0  0  0  0  0  0
   -3.5436    2.4969    1.8253 H   0  0  0  0  0  0  0  0  0  0  0  0
   -5.7443    2.3886    3.1371 H   0  0  0  0  0  0  0  0  0  0  0  0
   -6.2121    0.8325    3.8058 H   0  0  0  0  0  0  0  0  0  0  0  0
   -6.5418    1.1885    2.0957 H   0  0  0  0  0  0  0  0  0  0  0  0
   -3.7541   -1.1301    2.8900 H   0  0  0  0  0  0  0  0  0  0  0  0
   -5.4909   -1.1218    2.6795 H   0  0  0  0  0  0  0  0  0  0  0  0
   -5.1998   -0.7412    0.2191 H   0  0  0  0  0  0  0  0  0  0  0  0
   -4.3317   -2.1846    0.7555 H   0  0  0  0  0  0  0  0  0  0  0  0
   -3.2388   -0.2702   -3.1976 H   0  0  0  0  0  0  0  0  0  0  0  0
   -2.9241    0.8423   -5.3690 H   0  0  0  0  0  0  0  0  0  0  0  0
   -0.6802    1.7055   -6.0025 H   0  0  0  0  0  0  0  0  0  0  0  0
    1.2239    1.4422   -4.4489 H   0  0  0  0  0  0  0  0  0  0  0  0
    3.6301   -0.3737   -1.8676 H   0  0  0  0  0  0  0  0  0  0  0  0
    5.7094   -0.4882   -0.6250 H   0  0  0  0  0  0  0  0  0  0  0  0
  1  2  1  0
  2  3  1  0
  3  4  1  0
  4  5  2  0
  5  6  1  0
  6  7  2  0
  7  8  1  0
  8  9  2  0
  9 10  1  0
 10 11  1  0
 11 12  2  0
 11 13  1  0
 13 14  1  0
 14 15  1  0
 15 16  1  0
 16 17  1  0
 16 18  1  0
 18 19  1  0
 10 20  2  0
 20 21  1  0
 21 22  2  0
 22 23  1  0
 23 24  2  0
 24 25  1  0
 25 26  2  0
  7 27  1  0
 27 28  2  0
 28  4  1  0
 26  8  1  0
 19 13  1  0
 25 20  1  0
  1 29  1  0
  1 30  1  0
  1 31  1  0
  2 32  1  0
  2 33  1  0
  5 34  1  0
  6 35  1  0
  9 36  1  0
 14 37  1  0
 14 38  1  0
 15 39  1  0
 15 40  1  0
 17 41  1  0
 17 42  1  0
 17 43  1  0
 18 44  1  0
 18 45  1  0
 19 46  1  0
 19 47  1  0
 21 48  1  0
 22 49  1  0
 23 50  1  0
 24 51  1  0
 27 52  1  0
 28 53  1  0
M  END
$$$$
