
     RDKit          3D

 52 54  0  0  0  0  0  0  0  0999 V2000
   -4.0780    2.7662   -2.1385 C   0  0  0  0  0  0  0  0  0  0  0  0
   -2.7971    1.9444   -1.8999 C   0  0  0  0  0  0  0  0  0  0  0  0
   -1.6933    2.5139   -2.8240 C   0  0  0  0  0  0  0  0  0  0  0  0
   -2.3341    2.1339   -0.4152 C   0  0  0  0  0  0  0  0  0  0  0  0
   -1.6189    0.9238    0.1105 C   0  0  0  0  0  0  0  0  0  0  0  0
   -2.0227   -0.3192   -0.3433 C   0  0  0  0  0  0  0  0  0  0  0  0
   -1.1027   -1.5677    0.3403 S   0  0  0  0  0  0  0  0  0  0  0  0
   -0.1175   -0.4846    1.1943 C   0  0  0  0  0  0  0  0  0  0  0  0
    0.9554   -0.9290    1.9532 N   0  0  0  0  0  0  0  0  0  0  0  0
    1.3741   -2.2328    2.1431 C   0  0  0  0  0  0  0  0  0  0  0  0
    0.8575   -3.2594    1.7124 O   0  0  0  0  0  0  0  0  0  0  0  0
    2.6152   -2.3151    3.0351 C   0  0  0  0  0  0  0  0  0  0  0  0
    3.5708   -1.2909    2.7934 O   0  0  0  0  0  0  0  0  0  0  0  0
    4.5250   -1.5318    1.8374 C   0  0  0  0  0  0  0  0  0  0  0  0
    4.3595   -2.4185    0.7687 C   0  0  0  0  0  0  0  0  0  0  0  0
    5.3852   -2.5996   -0.1685 C   0  0  0  0  0  0  0  0  0  0  0  0
    6.5746   -1.8850   -0.0467 C   0  0  0  0  0  0  0  0  0  0  0  0
    7.8316   -2.1142   -1.1995 Cl  0  0  0  0  0  0  0  0  0  0  0  0
    6.7507   -0.9856    0.9993 C   0  0  0  0  0  0  0  0  0  0  0  0
    5.7252   -0.8059    1.9327 C   0  0  0  0  0  0  0  0  0  0  0  0
    5.9907    0.3197    3.2201 Cl  0  0  0  0  0  0  0  0  0  0  0  0
   -0.5262    0.8371    1.0521 C   0  0  0  0  0  0  0  0  0  0  0  0
    0.1337    1.9179    1.7827 C   0  0  0  0  0  0  0  0  0  0  0  0
   -0.6308    3.0137    2.0686 N   0  0  0  0  0  0  0  0  0  0  0  0
    1.2834    1.8364    2.2066 O   0  0  0  0  0  0  0  0  0  0  0  0
   -3.1580   -0.5078   -1.3315 C   0  0  0  0  0  0  0  0  0  0  0  0
   -3.0863   -1.8503   -2.0921 C   0  0  0  0  0  0  0  0  0  0  0  0
   -4.5169   -0.4464   -0.6095 C   0  0  0  0  0  0  0  0  0  0  0  0
   -3.0770    0.5566   -2.3628 N   0  0  0  0  0  0  0  0  0  0  0  0
   -3.9234    3.8214   -1.8793 H   0  0  0  0  0  0  0  0  0  0  0  0
   -4.3892    2.7296   -3.1889 H   0  0  0  0  0  0  0  0  0  0  0  0
   -4.9147    2.3958   -1.5348 H   0  0  0  0  0  0  0  0  0  0  0  0
   -0.7479    1.9745   -2.6903 H   0  0  0  0  0  0  0  0  0  0  0  0
   -1.5065    3.5737   -2.6111 H   0  0  0  0  0  0  0  0  0  0  0  0
   -1.9746    2.4408   -3.8810 H   0  0  0  0  0  0  0  0  0  0  0  0
   -1.7024    3.0250   -0.3355 H   0  0  0  0  0  0  0  0  0  0  0  0
   -3.2035    2.3040    0.2325 H   0  0  0  0  0  0  0  0  0  0  0  0
    1.5333   -0.1929    2.3635 H   0  0  0  0  0  0  0  0  0  0  0  0
    3.0660   -3.3139    2.9644 H   0  0  0  0  0  0  0  0  0  0  0  0
    2.2703   -2.2020    4.0699 H   0  0  0  0  0  0  0  0  0  0  0  0
    3.4423   -2.9832    0.6214 H   0  0  0  0  0  0  0  0  0  0  0  0
    5.2437   -3.2982   -0.9918 H   0  0  0  0  0  0  0  0  0  0  0  0
    7.6796   -0.4282    1.0882 H   0  0  0  0  0  0  0  0  0  0  0  0
   -1.6373    2.9283    2.0755 H   0  0  0  0  0  0  0  0  0  0  0  0
   -0.2229    3.6503    2.7406 H   0  0  0  0  0  0  0  0  0  0  0  0
   -3.2338   -2.7056   -1.4205 H   0  0  0  0  0  0  0  0  0  0  0  0
   -3.8699   -1.9129   -2.8581 H   0  0  0  0  0  0  0  0  0  0  0  0
   -2.1200   -1.9872   -2.5961 H   0  0  0  0  0  0  0  0  0  0  0  0
   -4.6573    0.4814   -0.0449 H   0  0  0  0  0  0  0  0  0  0  0  0
   -4.6152   -1.2701    0.1090 H   0  0  0  0  0  0  0  0  0  0  0  0
   -5.3473   -0.5300   -1.3201 H   0  0  0  0  0  0  0  0  0  0  0  0
   -2.3429    0.2793   -3.0161 H   0  0  0  0  0  0  0  0  0  0  0  0
  1  2  1  0
  2  3  1  0
  2  4  1  0
  4  5  1  0
  5  6  2  0
  6  7  1  0
  7  8  1  0
  8  9  1  0
  9 10  1  0
 10 11  2  0
 10 12  1  0
 12 13  1  0
 13 14  1  0
 14 15  2  0
 15 16  1  0
 16 17  2  0
 17 18  1  0
 17 19  1  0
 19 20  2  0
 20 21  1  0
  8 22  2  0
 22 23  1  0
 23 24  1  0
 23 25  2  0
  6 26  1  0
 26 27  1  0
 26 28  1  0
 26 29  1  0
 29  2  1  0
 22  5  1  0
 20 14  1  0
  1 30  1  0
  1 31  1  0
  1 32  1  0
  3 33  1  0
  3 34  1  0
  3 35  1  0
  4 36  1  0
  4 37  1  0
  9 38  1  0
 12 39  1  0
 12 40  1  0
 15 41  1  0
 16 42  1  0
 19 43  1  0
 24 44  1  0
 24 45  1  0
 27 46  1  0
 27 47  1  0
 27 48  1  0
 28 49  1  0
 28 50  1  0
 28 51  1  0
 29 52  1  0
M  END
$$$$
