
     RDKit          3D

 50 53  0  0  0  0  0  0  0  0999 V2000
   -3.7954    1.4018    1.4277 C   0  0  0  0  0  0  0  0  0  0  0  0
   -2.4857    0.9183    1.1632 O   0  0  0  0  0  0  0  0  0  0  0  0
   -2.3835    0.2560   -0.0425 C   0  0  0  0  0  0  0  0  0  0  0  0
   -1.1501   -0.0768   -0.3761 N   0  0  0  0  0  0  0  0  0  0  0  0
   -1.0474   -0.7103   -1.5358 C   0  0  0  0  0  0  0  0  0  0  0  0
    0.2238   -1.1185   -2.0166 N   0  0  0  0  0  0  0  0  0  0  0  0
    1.3091   -0.3131   -1.7569 N   0  0  0  0  0  0  0  0  0  0  0  0
    1.7915   -0.4369   -0.5571 C   0  0  0  0  0  0  0  0  0  0  0  0
    2.9240    0.3361   -0.1363 C   0  0  0  0  0  0  0  0  0  0  0  0
    3.6584    1.3227   -0.7596 C   0  0  0  0  0  0  0  0  0  0  0  0
    4.6728    1.7095    0.1507 C   0  0  0  0  0  0  0  0  0  0  0  0
    4.5033    0.9408    1.2852 C   0  0  0  0  0  0  0  0  0  0  0  0
    5.1864    0.8197    2.5713 C   0  0  0  0  0  0  0  0  0  0  0  0
    5.2889   -0.4461    3.1758 C   0  0  0  0  0  0  0  0  0  0  0  0
    5.9563   -0.6226    4.3951 C   0  0  0  0  0  0  0  0  0  0  0  0
    6.5385    0.4644    5.0438 C   0  0  0  0  0  0  0  0  0  0  0  0
    6.4493    1.7327    4.4783 C   0  0  0  0  0  0  0  0  0  0  0  0
    5.7747    1.8918    3.2573 C   0  0  0  0  0  0  0  0  0  0  0  0
    5.6785    3.2375    2.7429 N   0  0  0  0  0  4  0  0  0  0  0  0
    4.6425    3.8657    2.9941 O   0  0  0  0  0  0  0  0  0  0  0  0
    6.6556    3.6666    2.1139 O   0  0  0  0  0  1  0  0  0  0  0  0
    3.4394    0.0996    1.1061 O   0  0  0  0  0  0  0  0  0  0  0  0
   -2.0850   -1.0312   -2.3047 N   0  0  0  0  0  0  0  0  0  0  0  0
   -3.2927   -0.6743   -1.8753 C   0  0  0  0  0  0  0  0  0  0  0  0
   -4.4045   -0.9730   -2.6708 N   0  0  0  0  0  0  0  0  0  0  0  0
   -5.6763   -1.0293   -1.9292 C   0  0  0  0  0  0  0  0  0  0  0  0
   -6.8444   -1.2757   -2.8957 C   0  0  0  0  0  0  0  0  0  0  0  0
   -6.6318   -2.4521   -3.6907 O   0  0  0  0  0  0  0  0  0  0  0  0
   -5.4399   -2.3003   -4.4766 C   0  0  0  0  0  0  0  0  0  0  0  0
   -4.2011   -2.1077   -3.5881 C   0  0  0  0  0  0  0  0  0  0  0  0
   -3.4808   -0.0171   -0.7380 N   0  0  0  0  0  0  0  0  0  0  0  0
   -4.1305    2.0960    0.6483 H   0  0  0  0  0  0  0  0  0  0  0  0
   -3.7620    1.9561    2.3708 H   0  0  0  0  0  0  0  0  0  0  0  0
   -4.5058    0.5769    1.5520 H   0  0  0  0  0  0  0  0  0  0  0  0
    0.0571   -1.2925   -3.0084 H   0  0  0  0  0  0  0  0  0  0  0  0
    1.3660   -1.1478    0.1738 H   0  0  0  0  0  0  0  0  0  0  0  0
    3.4784    1.7094   -1.7535 H   0  0  0  0  0  0  0  0  0  0  0  0
    5.4385    2.4539   -0.0240 H   0  0  0  0  0  0  0  0  0  0  0  0
    4.8510   -1.3191    2.6922 H   0  0  0  0  0  0  0  0  0  0  0  0
    6.0198   -1.6157    4.8351 H   0  0  0  0  0  0  0  0  0  0  0  0
    7.0557    0.3211    5.9901 H   0  0  0  0  0  0  0  0  0  0  0  0
    6.8930    2.5859    4.9864 H   0  0  0  0  0  0  0  0  0  0  0  0
   -5.6358   -1.8482   -1.1995 H   0  0  0  0  0  0  0  0  0  0  0  0
   -5.8725   -0.0917   -1.3958 H   0  0  0  0  0  0  0  0  0  0  0  0
   -6.9933   -0.4171   -3.5613 H   0  0  0  0  0  0  0  0  0  0  0  0
   -7.7695   -1.4209   -2.3288 H   0  0  0  0  0  0  0  0  0  0  0  0
   -5.5687   -1.4534   -5.1618 H   0  0  0  0  0  0  0  0  0  0  0  0
   -5.3242   -3.2045   -5.0831 H   0  0  0  0  0  0  0  0  0  0  0  0
   -4.0335   -3.0229   -3.0049 H   0  0  0  0  0  0  0  0  0  0  0  0
   -3.3379   -1.9439   -4.2442 H   0  0  0  0  0  0  0  0  0  0  0  0
  1  2  1  0
  2  3  1  0
  3  4  2  0
  4  5  1  0
  5  6  1  0
  6  7  1  0
  7  8  2  3
  8  9  1  0
  9 10  2  0
 10 11  1  0
 11 12  2  0
 12 13  1  0
 13 14  2  0
 14 15  1  0
 15 16  2  0
 16 17  1  0
 17 18  2  0
 18 19  1  0
 19 20  2  0
 19 21  1  0
 12 22  1  0
  5 23  2  0
 23 24  1  0
 24 25  1  0
 25 26  1  0
 26 27  1  0
 27 28  1  0
 28 29  1  0
 29 30  1  0
 24 31  2  0
 31  3  1  0
 22  9  1  0
 30 25  1  0
 18 13  1  0
  1 32  1  0
  1 33  1  0
  1 34  1  0
  6 35  1  0
  8 36  1  0
 10 37  1  0
 11 38  1  0
 14 39  1  0
 15 40  1  0
 16 41  1  0
 17 42  1  0
 26 43  1  0
 26 44  1  0
 27 45  1  0
 27 46  1  0
 29 47  1  0
 29 48  1  0
 30 49  1  0
 30 50  1  0
M  CHG  2  19   1  21  -1
M  END
$$$$
