
     RDKit          3D

 58 61  0  0  0  0  0  0  0  0999 V2000
    1.9081    0.4694   -3.3162 O   0  0  0  0  0  0  0  0  0  0  0  0
    2.0804   -0.4175   -2.4823 C   0  0  0  0  0  0  0  0  0  0  0  0
    3.3985   -0.6424   -1.7796 C   0  0  0  0  0  0  0  0  0  0  0  0
    3.4602    0.1915   -0.5009 C   0  0  0  0  0  0  0  0  0  0  0  0
    4.8179    0.0915    0.2156 C   0  0  0  0  0  0  0  0  0  0  0  0
    5.1100   -1.3429    0.7007 C   0  0  0  0  0  0  0  0  0  0  0  0
    6.0790   -1.4102    1.8853 C   0  0  0  0  0  0  0  0  0  0  0  0
    7.0318   -0.2242    1.9075 C   0  0  0  0  0  0  0  0  0  0  0  0
    6.2765    1.1009    2.0347 C   0  0  0  0  0  0  0  0  0  0  0  0
    4.8890    1.0802    1.3866 C   0  0  0  0  0  0  0  0  0  0  0  0
    1.0708   -1.2656   -2.0704 N   0  0  0  0  0  0  0  0  0  0  0  0
   -0.2467   -0.8783   -2.4135 N   0  0  0  0  0  0  0  0  0  0  0  0
   -1.1404   -0.8118   -1.3610 C   0  0  0  0  0  0  0  0  0  0  0  0
   -0.8787   -1.2806   -0.2595 O   0  0  0  0  0  0  0  0  0  0  0  0
   -2.3252   -0.2209   -1.7171 N   0  0  0  0  0  0  0  0  0  0  0  0
   -3.4321    0.0459   -0.7933 C   0  0  0  0  0  0  0  0  0  0  0  0
   -4.5897    0.7043   -1.5915 C   0  0  0  0  0  0  0  0  0  0  0  0
   -5.7838    1.0179   -0.6758 C   0  0  0  0  0  0  0  0  0  0  0  0
   -6.2917   -0.2859   -0.0404 C   0  0  0  0  0  0  0  0  0  0  0  0
   -5.1684   -0.9430    0.7775 C   0  0  0  0  0  0  0  0  0  0  0  0
   -4.7088    0.0256    1.8803 C   0  0  0  0  0  0  0  0  0  0  0  0
   -4.1972    1.3349    1.2546 C   0  0  0  0  0  0  0  0  0  0  0  0
   -5.3259    1.9791    0.4329 C   0  0  0  0  0  0  0  0  0  0  0  0
   -3.0073    1.0233    0.3303 C   0  0  0  0  0  0  0  0  0  0  0  0
   -3.9802   -1.2541   -0.1506 C   0  0  0  0  0  0  0  0  0  0  0  0
    4.2056   -0.3703   -2.4686 H   0  0  0  0  0  0  0  0  0  0  0  0
    3.5095   -1.7097   -1.5612 H   0  0  0  0  0  0  0  0  0  0  0  0
    2.6544   -0.1106    0.1816 H   0  0  0  0  0  0  0  0  0  0  0  0
    3.2629    1.2414   -0.7550 H   0  0  0  0  0  0  0  0  0  0  0  0
    5.5986    0.3765   -0.5040 H   0  0  0  0  0  0  0  0  0  0  0  0
    4.1822   -1.8542    0.9874 H   0  0  0  0  0  0  0  0  0  0  0  0
    5.5294   -1.9163   -0.1350 H   0  0  0  0  0  0  0  0  0  0  0  0
    6.6414   -2.3507    1.8474 H   0  0  0  0  0  0  0  0  0  0  0  0
    5.5061   -1.4287    2.8214 H   0  0  0  0  0  0  0  0  0  0  0  0
    7.7456   -0.3230    2.7341 H   0  0  0  0  0  0  0  0  0  0  0  0
    7.6227   -0.2190    0.9822 H   0  0  0  0  0  0  0  0  0  0  0  0
    6.1649    1.3625    3.0955 H   0  0  0  0  0  0  0  0  0  0  0  0
    6.8852    1.8962    1.5852 H   0  0  0  0  0  0  0  0  0  0  0  0
    4.6343    2.0940    1.0547 H   0  0  0  0  0  0  0  0  0  0  0  0
    4.1413    0.8041    2.1416 H   0  0  0  0  0  0  0  0  0  0  0  0
    1.1387   -1.7197   -1.1576 H   0  0  0  0  0  0  0  0  0  0  0  0
   -0.2814   -0.1522   -3.1264 H   0  0  0  0  0  0  0  0  0  0  0  0
   -2.3359    0.2604   -2.6048 H   0  0  0  0  0  0  0  0  0  0  0  0
   -4.2402    1.6303   -2.0673 H   0  0  0  0  0  0  0  0  0  0  0  0
   -4.9115    0.0456   -2.4084 H   0  0  0  0  0  0  0  0  0  0  0  0
   -6.5860    1.4822   -1.2592 H   0  0  0  0  0  0  0  0  0  0  0  0
   -7.1521   -0.0759    0.6063 H   0  0  0  0  0  0  0  0  0  0  0  0
   -6.6397   -0.9768   -0.8195 H   0  0  0  0  0  0  0  0  0  0  0  0
   -5.5360   -1.8713    1.2291 H   0  0  0  0  0  0  0  0  0  0  0  0
   -3.9152   -0.4380    2.4806 H   0  0  0  0  0  0  0  0  0  0  0  0
   -5.5407    0.2366    2.5626 H   0  0  0  0  0  0  0  0  0  0  0  0
   -3.8782    2.0232    2.0455 H   0  0  0  0  0  0  0  0  0  0  0  0
   -4.9772    2.9205   -0.0096 H   0  0  0  0  0  0  0  0  0  0  0  0
   -6.1701    2.2276    1.0874 H   0  0  0  0  0  0  0  0  0  0  0  0
   -2.1924    0.5973    0.9268 H   0  0  0  0  0  0  0  0  0  0  0  0
   -2.6172    1.9539   -0.1020 H   0  0  0  0  0  0  0  0  0  0  0  0
   -4.2913   -1.9595   -0.9322 H   0  0  0  0  0  0  0  0  0  0  0  0
   -3.2038   -1.7636    0.4319 H   0  0  0  0  0  0  0  0  0  0  0  0
  1  2  2  0
  2  3  1  0
  3  4  1  0
  4  5  1  0
  5  6  1  0
  6  7  1  0
  7  8  1  0
  8  9  1  0
  9 10  1  0
  2 11  1  0
 11 12  1  0
 12 13  1  0
 13 14  2  0
 13 15  1  0
 15 16  1  0
 16 17  1  0
 17 18  1  0
 18 19  1  0
 19 20  1  0
 20 21  1  0
 21 22  1  0
 22 23  1  0
 22 24  1  0
 20 25  1  0
 10  5  1  0
 24 16  1  0
 25 16  1  0
 23 18  1  0
  3 26  1  0
  3 27  1  0
  4 28  1  0
  4 29  1  0
  5 30  1  0
  6 31  1  0
  6 32  1  0
  7 33  1  0
  7 34  1  0
  8 35  1  0
  8 36  1  0
  9 37  1  0
  9 38  1  0
 10 39  1  0
 10 40  1  0
 11 41  1  0
 12 42  1  0
 15 43  1  0
 17 44  1  0
 17 45  1  0
 18 46  1  0
 19 47  1  0
 19 48  1  0
 20 49  1  0
 21 50  1  0
 21 51  1  0
 22 52  1  0
 23 53  1  0
 23 54  1  0
 24 55  1  0
 24 56  1  0
 25 57  1  0
 25 58  1  0
M  END
$$$$
