
     RDKit          3D

 61 66  0  0  0  0  0  0  0  0999 V2000
   -2.2002   -0.8212    1.6309 O   0  0  0  0  0  0  0  0  0  0  0  0
   -2.7121   -0.1098    0.7623 C   0  0  0  0  0  0  0  0  0  0  0  0
   -1.8252    0.7126   -0.1561 C   0  0  0  0  0  0  0  0  0  0  0  0
   -0.5659    0.0408   -0.3932 N   0  0  0  0  0  0  0  0  0  0  0  0
   -0.4717   -0.9738   -1.2710 N   0  0  0  0  0  0  0  0  0  0  0  0
    0.8269   -1.2194   -1.3612 N   0  0  0  0  0  0  0  0  0  0  0  0
    1.4676   -0.2951   -0.5656 C   0  0  0  0  0  0  0  0  0  0  0  0
    2.9160   -0.2469   -0.4198 C   0  0  0  0  0  0  0  0  0  0  0  0
    3.7323   -1.1546   -1.1018 C   0  0  0  0  0  0  0  0  0  0  0  0
    5.1282   -1.1120   -0.9627 C   0  0  0  0  0  0  0  0  0  0  0  0
    5.7571   -0.1589   -0.1501 C   0  0  0  0  0  0  0  0  0  0  0  0
    7.1472   -0.0852    0.0283 N   0  0  0  0  0  0  0  0  0  0  0  0
    7.7363    1.2191   -0.3666 C   0  0  0  0  0  0  0  0  0  0  0  0
    9.2024    1.2952    0.0925 C   0  0  0  0  0  0  0  0  0  0  0  0
    9.9778    0.1970   -0.4135 O   0  0  0  0  0  0  0  0  0  0  0  0
    9.4212   -1.0462    0.0445 C   0  0  0  0  0  0  0  0  0  0  0  0
    7.9725   -1.2212   -0.4372 C   0  0  0  0  0  0  0  0  0  0  0  0
    4.9218    0.7349    0.5403 C   0  0  0  0  0  0  0  0  0  0  0  0
    3.5271    0.6983    0.4085 C   0  0  0  0  0  0  0  0  0  0  0  0
    0.6087    0.5583    0.0224 N   0  0  0  0  0  0  0  0  0  0  0  0
   -4.1012   -0.0402    0.5053 N   0  0  0  0  0  0  0  0  0  0  0  0
   -5.0609   -0.8388    1.2307 C   0  0  0  0  0  0  0  0  0  0  0  0
   -4.8267   -1.1038    2.5972 C   0  0  0  0  0  0  0  0  0  0  0  0
   -5.7255   -1.8314    3.3811 C   0  0  0  0  0  0  0  0  0  0  0  0
   -6.8937   -2.3153    2.8189 C   0  0  0  0  0  0  0  0  0  0  0  0
   -7.1515   -2.0764    1.4731 C   0  0  0  0  0  0  0  0  0  0  0  0
   -6.2492   -1.3517    0.6566 C   0  0  0  0  0  0  0  0  0  0  0  0
   -6.6646   -1.2570   -0.7996 C   0  0  0  0  0  0  0  0  0  0  0  0
   -5.6802   -0.6533   -1.7909 C   0  0  0  0  0  0  0  0  0  0  0  0
   -5.4007    0.7697   -1.4087 C   0  0  0  0  0  0  0  0  0  0  0  0
   -5.8869    1.8354   -2.1778 C   0  0  0  0  0  0  0  0  0  0  0  0
   -5.6401    3.1529   -1.7919 C   0  0  0  0  0  0  0  0  0  0  0  0
   -4.9145    3.4161   -0.6327 C   0  0  0  0  0  0  0  0  0  0  0  0
   -4.4245    2.3604    0.1358 C   0  0  0  0  0  0  0  0  0  0  0  0
   -4.6596    1.0321   -0.2511 C   0  0  0  0  0  0  0  0  0  0  0  0
   -2.2683    0.8699   -1.1434 H   0  0  0  0  0  0  0  0  0  0  0  0
   -1.6129    1.6777    0.3140 H   0  0  0  0  0  0  0  0  0  0  0  0
    3.2946   -1.9105   -1.7513 H   0  0  0  0  0  0  0  0  0  0  0  0
    5.7055   -1.8401   -1.5243 H   0  0  0  0  0  0  0  0  0  0  0  0
    7.6918    1.3137   -1.4595 H   0  0  0  0  0  0  0  0  0  0  0  0
    7.1987    2.0662    0.0723 H   0  0  0  0  0  0  0  0  0  0  0  0
    9.6585    2.2195   -0.2767 H   0  0  0  0  0  0  0  0  0  0  0  0
    9.2705    1.3036    1.1872 H   0  0  0  0  0  0  0  0  0  0  0  0
    9.4815   -1.0833    1.1390 H   0  0  0  0  0  0  0  0  0  0  0  0
   10.0443   -1.8539   -0.3525 H   0  0  0  0  0  0  0  0  0  0  0  0
    7.9657   -1.2583   -1.5341 H   0  0  0  0  0  0  0  0  0  0  0  0
    7.5864   -2.1684   -0.0427 H   0  0  0  0  0  0  0  0  0  0  0  0
    5.3534    1.4619    1.2242 H   0  0  0  0  0  0  0  0  0  0  0  0
    2.9257    1.4093    0.9711 H   0  0  0  0  0  0  0  0  0  0  0  0
   -3.9462   -0.7128    3.1017 H   0  0  0  0  0  0  0  0  0  0  0  0
   -5.5074   -2.0082    4.4309 H   0  0  0  0  0  0  0  0  0  0  0  0
   -7.5997   -2.8808    3.4207 H   0  0  0  0  0  0  0  0  0  0  0  0
   -8.0698   -2.4759    1.0440 H   0  0  0  0  0  0  0  0  0  0  0  0
   -6.8891   -2.2738   -1.1493 H   0  0  0  0  0  0  0  0  0  0  0  0
   -7.6053   -0.6901   -0.8397 H   0  0  0  0  0  0  0  0  0  0  0  0
   -4.7458   -1.2269   -1.8305 H   0  0  0  0  0  0  0  0  0  0  0  0
   -6.1078   -0.6985   -2.7999 H   0  0  0  0  0  0  0  0  0  0  0  0
   -6.4662    1.6462   -3.0789 H   0  0  0  0  0  0  0  0  0  0  0  0
   -6.0250    3.9749   -2.3908 H   0  0  0  0  0  0  0  0  0  0  0  0
   -4.7379    4.4436   -0.3238 H   0  0  0  0  0  0  0  0  0  0  0  0
   -3.8837    2.5843    1.0528 H   0  0  0  0  0  0  0  0  0  0  0  0
  1  2  2  0
  2  3  1  0
  3  4  1  0
  4  5  1  0
  5  6  2  0
  6  7  1  0
  7  8  1  0
  8  9  2  0
  9 10  1  0
 10 11  2  0
 11 12  1  0
 12 13  1  0
 13 14  1  0
 14 15  1  0
 15 16  1  0
 16 17  1  0
 11 18  1  0
 18 19  2  0
  7 20  2  0
  2 21  1  0
 21 22  1  0
 22 23  2  0
 23 24  1  0
 24 25  2  0
 25 26  1  0
 26 27  2  0
 27 28  1  0
 28 29  1  0
 29 30  1  0
 30 31  2  0
 31 32  1  0
 32 33  2  0
 33 34  1  0
 34 35  2  0
 20  4  1  0
 35 21  1  0
 19  8  1  0
 27 22  1  0
 35 30  1  0
 17 12  1  0
  3 36  1  0
  3 37  1  0
  9 38  1  0
 10 39  1  0
 13 40  1  0
 13 41  1  0
 14 42  1  0
 14 43  1  0
 16 44  1  0
 16 45  1  0
 17 46  1  0
 17 47  1  0
 18 48  1  0
 19 49  1  0
 23 50  1  0
 24 51  1  0
 25 52  1  0
 26 53  1  0
 28 54  1  0
 28 55  1  0
 29 56  1  0
 29 57  1  0
 31 58  1  0
 32 59  1  0
 33 60  1  0
 34 61  1  0
M  END
$$$$
