
     RDKit          3D

 40 41  0  0  0  0  0  0  0  0999 V2000
   -2.7752   -2.2773    1.6048 O   0  0  0  0  0  0  0  0  0  0  0  0
   -1.8953   -1.4433    1.4131 C   0  0  0  0  0  0  0  0  0  0  0  0
   -0.4849   -1.6535    1.9724 C   0  0  0  0  0  0  0  0  0  0  0  0
    0.3709   -0.5533    1.6501 O   0  0  0  0  0  0  0  0  0  0  0  0
    1.6590   -0.7184    2.0535 C   0  0  0  0  0  0  0  0  0  0  0  0
    2.0856   -1.6961    2.6508 O   0  0  0  0  0  0  0  0  0  0  0  0
    2.4975    0.4704    1.6504 C   0  0  0  0  0  0  0  0  0  0  0  0
    3.1953    0.3366    0.3012 C   0  0  0  0  0  0  0  0  0  0  0  0
    2.2733    0.1442   -0.9007 C   0  0  0  0  0  0  0  0  0  0  0  0
    3.2154   -0.2999   -2.0169 C   0  0  0  0  0  0  0  0  0  0  0  0
    4.4257   -0.9317   -1.3261 C   0  0  0  0  0  0  0  0  0  0  0  0
    4.1473   -0.8503    0.1725 C   0  0  0  0  0  0  0  0  0  0  0  0
   -2.0246   -0.2602    0.7068 N   0  0  0  0  0  0  0  0  0  0  0  0
   -3.1585    0.2726    0.0438 C   0  0  0  0  0  0  0  0  0  0  0  0
   -4.3789   -0.4182    0.0242 C   0  0  0  0  0  0  0  0  0  0  0  0
   -5.5029    0.1005   -0.6303 C   0  0  0  0  0  0  0  0  0  0  0  0
   -5.4354    1.3252   -1.2826 C   0  0  0  0  0  0  0  0  0  0  0  0
   -4.2397    2.0377   -1.2834 C   0  0  0  0  0  0  0  0  0  0  0  0
   -3.1048    1.5193   -0.6261 C   0  0  0  0  0  0  0  0  0  0  0  0
   -1.8749    2.3312   -0.6693 N   0  0  0  0  0  4  0  0  0  0  0  0
   -1.9051    3.3976   -1.3005 O   0  0  0  0  0  0  0  0  0  0  0  0
   -0.8700    1.9119   -0.0734 O   0  0  0  0  0  1  0  0  0  0  0  0
   -0.0896   -2.5757    1.5314 H   0  0  0  0  0  0  0  0  0  0  0  0
   -0.5681   -1.7444    3.0610 H   0  0  0  0  0  0  0  0  0  0  0  0
    1.8622    1.3648    1.6604 H   0  0  0  0  0  0  0  0  0  0  0  0
    3.2397    0.6264    2.4431 H   0  0  0  0  0  0  0  0  0  0  0  0
    3.7753    1.2573    0.1416 H   0  0  0  0  0  0  0  0  0  0  0  0
    1.7342    1.0593   -1.1628 H   0  0  0  0  0  0  0  0  0  0  0  0
    1.5341   -0.6441   -0.7207 H   0  0  0  0  0  0  0  0  0  0  0  0
    3.5365    0.5632   -2.6114 H   0  0  0  0  0  0  0  0  0  0  0  0
    2.7228   -1.0015   -2.6977 H   0  0  0  0  0  0  0  0  0  0  0  0
    5.3311   -0.3668   -1.5761 H   0  0  0  0  0  0  0  0  0  0  0  0
    4.5852   -1.9658   -1.6472 H   0  0  0  0  0  0  0  0  0  0  0  0
    5.0654   -0.7136    0.7520 H   0  0  0  0  0  0  0  0  0  0  0  0
    3.6758   -1.7829    0.5017 H   0  0  0  0  0  0  0  0  0  0  0  0
   -1.1706    0.3040    0.6759 H   0  0  0  0  0  0  0  0  0  0  0  0
   -4.4998   -1.3804    0.5139 H   0  0  0  0  0  0  0  0  0  0  0  0
   -6.4338   -0.4637   -0.6255 H   0  0  0  0  0  0  0  0  0  0  0  0
   -6.3119    1.7232   -1.7892 H   0  0  0  0  0  0  0  0  0  0  0  0
   -4.2085    2.9957   -1.7999 H   0  0  0  0  0  0  0  0  0  0  0  0
  1  2  2  0
  2  3  1  0
  3  4  1  0
  4  5  1  0
  5  6  2  0
  5  7  1  0
  7  8  1  0
  8  9  1  0
  9 10  1  0
 10 11  1  0
 11 12  1  0
  2 13  1  0
 13 14  1  0
 14 15  2  0
 15 16  1  0
 16 17  2  0
 17 18  1  0
 18 19  2  0
 19 20  1  0
 20 21  2  0
 20 22  1  0
 12  8  1  0
 19 14  1  0
  3 23  1  0
  3 24  1  0
  7 25  1  0
  7 26  1  0
  8 27  1  0
  9 28  1  0
  9 29  1  0
 10 30  1  0
 10 31  1  0
 11 32  1  0
 11 33  1  0
 12 34  1  0
 12 35  1  0
 13 36  1  0
 15 37  1  0
 16 38  1  0
 17 39  1  0
 18 40  1  0
M  CHG  2  20   1  22  -1
M  END
$$$$
