
     RDKit          3D

 42 43  0  0  0  0  0  0  0  0999 V2000
   -1.1686    3.2006   -1.0177 C   0  0  0  0  0  0  0  0  0  0  0  0
   -0.3536    2.2001   -0.2474 C   0  0  0  0  0  0  0  0  0  0  0  0
    0.7445    2.6766    0.4957 C   0  0  0  0  0  0  0  0  0  0  0  0
    1.5556    1.8104    1.2324 C   0  0  0  0  0  0  0  0  0  0  0  0
    1.2814    0.4448    1.2268 C   0  0  0  0  0  0  0  0  0  0  0  0
    2.2956   -0.6724    2.1667 S   0  0  0  0  0  6  0  0  0  0  0  0
    3.0858    0.1237    3.0882 O   0  0  0  0  0  0  0  0  0  0  0  0
    1.4255   -1.7214    2.6656 O   0  0  0  0  0  0  0  0  0  0  0  0
    3.4226   -1.4113    1.0045 C   0  0  0  0  0  0  0  0  0  0  0  0
    4.6624   -0.8086    0.7673 C   0  0  0  0  0  0  0  0  0  0  0  0
    5.5496   -1.3972   -0.1364 C   0  0  0  0  0  0  0  0  0  0  0  0
    5.1969   -2.5812   -0.7860 C   0  0  0  0  0  0  0  0  0  0  0  0
    6.2933   -3.3018   -1.8985 Cl  0  0  0  0  0  0  0  0  0  0  0  0
    3.9649   -3.1879   -0.5369 C   0  0  0  0  0  0  0  0  0  0  0  0
    3.0730   -2.6060    0.3665 C   0  0  0  0  0  0  0  0  0  0  0  0
    0.1920   -0.0565    0.5147 C   0  0  0  0  0  0  0  0  0  0  0  0
   -0.6247    0.8185   -0.2229 C   0  0  0  0  0  0  0  0  0  0  0  0
   -1.9707    0.0451   -1.1130 S   0  0  0  0  0  6  0  0  0  0  0  0
   -2.7062    1.0268   -1.8763 O   0  0  0  0  0  0  0  0  0  0  0  0
   -1.4157   -1.1283   -1.7546 O   0  0  0  0  0  0  0  0  0  0  0  0
   -2.9845   -0.4863    0.1579 N   0  0  0  0  0  0  0  0  0  0  0  0
   -3.5682    0.5885    0.9955 C   0  0  0  0  0  0  0  0  0  0  0  0
   -4.0123   -1.4667   -0.3003 C   0  0  0  0  0  0  0  0  0  0  0  0
   -5.0038   -0.9181   -1.3012 C   0  0  0  0  0  0  0  0  0  0  0  0
   -5.8589   -0.0755   -1.0737 O   0  0  0  0  0  0  0  0  0  0  0  0
   -4.8558   -1.4312   -2.5370 O   0  0  0  0  0  0  0  0  0  0  0  0
   -0.7886    4.2190   -0.8782 H   0  0  0  0  0  0  0  0  0  0  0  0
   -2.2057    3.2019   -0.6691 H   0  0  0  0  0  0  0  0  0  0  0  0
   -1.1210    2.9903   -2.0903 H   0  0  0  0  0  0  0  0  0  0  0  0
    0.9782    3.7412    0.5068 H   0  0  0  0  0  0  0  0  0  0  0  0
    2.3905    2.2132    1.8027 H   0  0  0  0  0  0  0  0  0  0  0  0
    4.9476    0.1074    1.2805 H   0  0  0  0  0  0  0  0  0  0  0  0
    6.5146   -0.9333   -0.3260 H   0  0  0  0  0  0  0  0  0  0  0  0
    3.6968   -4.1145   -1.0390 H   0  0  0  0  0  0  0  0  0  0  0  0
    2.1190   -3.0906    0.5653 H   0  0  0  0  0  0  0  0  0  0  0  0
   -0.0312   -1.1230    0.5318 H   0  0  0  0  0  0  0  0  0  0  0  0
   -4.1078    1.3251    0.3944 H   0  0  0  0  0  0  0  0  0  0  0  0
   -4.2637    0.1632    1.7263 H   0  0  0  0  0  0  0  0  0  0  0  0
   -2.7817    1.0929    1.5633 H   0  0  0  0  0  0  0  0  0  0  0  0
   -3.5141   -2.3505   -0.7155 H   0  0  0  0  0  0  0  0  0  0  0  0
   -4.5790   -1.8396    0.5611 H   0  0  0  0  0  0  0  0  0  0  0  0
   -5.4743   -0.9134   -3.0942 H   0  0  0  0  0  0  0  0  0  0  0  0
  1  2  1  0
  2  3  2  0
  3  4  1  0
  4  5  2  0
  5  6  1  0
  6  7  2  0
  6  8  2  0
  6  9  1  0
  9 10  2  0
 10 11  1  0
 11 12  2  0
 12 13  1  0
 12 14  1  0
 14 15  2  0
  5 16  1  0
 16 17  2  0
 17 18  1  0
 18 19  2  0
 18 20  2  0
 18 21  1  0
 21 22  1  0
 21 23  1  0
 23 24  1  0
 24 25  2  0
 24 26  1  0
 17  2  1  0
 15  9  1  0
  1 27  1  0
  1 28  1  0
  1 29  1  0
  3 30  1  0
  4 31  1  0
 10 32  1  0
 11 33  1  0
 14 34  1  0
 15 35  1  0
 16 36  1  0
 22 37  1  0
 22 38  1  0
 22 39  1  0
 23 40  1  0
 23 41  1  0
 26 42  1  0
M  END
$$$$
