
     RDKit          3D

 53 56  0  0  0  0  0  0  0  0999 V2000
   -6.9207   -2.5403   -1.6489 C   0  0  0  0  0  0  0  0  0  0  0  0
   -6.3842   -1.3070   -1.1902 O   0  0  0  0  0  0  0  0  0  0  0  0
   -6.9452   -0.9132    0.0569 C   0  0  0  0  0  0  0  0  0  0  0  0
   -6.3434    0.4082    0.5493 C   0  0  0  0  0  0  0  0  0  0  0  0
   -6.5174    1.5624   -0.4425 C   0  0  0  0  0  0  0  0  0  0  0  0
   -5.2580    1.5297   -1.2920 C   0  0  0  0  0  0  0  0  0  0  0  0
   -4.2348    1.0057   -0.4113 N   0  0  0  0  0  0  0  0  0  0  0  0
   -2.9015    1.0228   -0.8042 C   0  0  0  0  0  0  0  0  0  0  0  0
   -2.5800    1.5082   -1.8924 O   0  0  0  0  0  0  0  0  0  0  0  0
   -1.8584    0.4683    0.0777 C   0  0  0  0  0  0  0  0  0  0  0  0
   -0.4875    0.3121   -0.2725 C   0  0  0  0  0  0  0  0  0  0  0  0
    0.1117   -0.2158    0.8435 C   0  0  0  0  0  0  0  0  0  0  0  0
    1.4864   -0.6397    1.1948 C   0  0  0  0  0  0  0  0  0  0  0  0
    2.3766    0.0672    0.3347 O   0  0  0  0  0  0  0  0  0  0  0  0
    3.7255   -0.1598    0.4724 C   0  0  0  0  0  0  0  0  0  0  0  0
    4.2752   -1.0666    1.3810 C   0  0  0  0  0  0  0  0  0  0  0  0
    5.6578   -1.2435    1.4571 C   0  0  0  0  0  0  0  0  0  0  0  0
    6.5139   -0.5175    0.6265 C   0  0  0  0  0  0  0  0  0  0  0  0
    7.8837   -0.6390    0.6450 O   0  0  0  0  0  0  0  0  0  0  0  0
    8.4551   -1.5768    1.5472 C   0  0  0  0  0  0  0  0  0  0  0  0
    5.9795    0.4097   -0.3028 C   0  0  0  0  0  0  0  0  0  0  0  0
    6.8048    1.1689   -1.1640 C   0  0  0  0  0  0  0  0  0  0  0  0
    6.2748    2.0802   -2.0777 C   0  0  0  0  0  0  0  0  0  0  0  0
    4.9020    2.2563   -2.1537 C   0  0  0  0  0  0  0  0  0  0  0  0
    4.0637    1.5205   -1.3157 C   0  0  0  0  0  0  0  0  0  0  0  0
    4.5732    0.5899   -0.3808 C   0  0  0  0  0  0  0  0  0  0  0  0
   -0.8292   -0.3729    1.8108 O   0  0  0  0  0  0  0  0  0  0  0  0
   -2.0533    0.0587    1.3437 N   0  0  0  0  0  0  0  0  0  0  0  0
   -4.8229    0.3364    0.7404 C   0  0  0  0  0  0  0  0  0  0  0  0
   -6.6995   -3.3422   -0.9379 H   0  0  0  0  0  0  0  0  0  0  0  0
   -8.0015   -2.4562   -1.7984 H   0  0  0  0  0  0  0  0  0  0  0  0
   -6.4536   -2.7842   -2.6066 H   0  0  0  0  0  0  0  0  0  0  0  0
   -8.0294   -0.7969   -0.0584 H   0  0  0  0  0  0  0  0  0  0  0  0
   -6.7613   -1.6972    0.8013 H   0  0  0  0  0  0  0  0  0  0  0  0
   -6.8298    0.6498    1.5020 H   0  0  0  0  0  0  0  0  0  0  0  0
   -6.5515    2.5078    0.1143 H   0  0  0  0  0  0  0  0  0  0  0  0
   -7.4305    1.4972   -1.0417 H   0  0  0  0  0  0  0  0  0  0  0  0
   -4.9810    2.5214   -1.6643 H   0  0  0  0  0  0  0  0  0  0  0  0
   -5.3571    0.8549   -2.1484 H   0  0  0  0  0  0  0  0  0  0  0  0
   -0.0181    0.5597   -1.2138 H   0  0  0  0  0  0  0  0  0  0  0  0
    1.6924   -0.3885    2.2418 H   0  0  0  0  0  0  0  0  0  0  0  0
    1.5755   -1.7204    1.0353 H   0  0  0  0  0  0  0  0  0  0  0  0
    3.6597   -1.6586    2.0501 H   0  0  0  0  0  0  0  0  0  0  0  0
    6.0339   -1.9600    2.1799 H   0  0  0  0  0  0  0  0  0  0  0  0
    8.1208   -2.5951    1.3231 H   0  0  0  0  0  0  0  0  0  0  0  0
    8.2395   -1.3067    2.5861 H   0  0  0  0  0  0  0  0  0  0  0  0
    9.5410   -1.5478    1.4154 H   0  0  0  0  0  0  0  0  0  0  0  0
    7.8863    1.0501   -1.1243 H   0  0  0  0  0  0  0  0  0  0  0  0
    6.9372    2.6482   -2.7253 H   0  0  0  0  0  0  0  0  0  0  0  0
    4.4782    2.9636   -2.8613 H   0  0  0  0  0  0  0  0  0  0  0  0
    2.9899    1.6807   -1.3963 H   0  0  0  0  0  0  0  0  0  0  0  0
   -4.4575   -0.6915    0.8209 H   0  0  0  0  0  0  0  0  0  0  0  0
   -4.5313    0.8985    1.6344 H   0  0  0  0  0  0  0  0  0  0  0  0
  1  2  1  0
  2  3  1  0
  3  4  1  0
  4  5  1  0
  5  6  1  0
  6  7  1  0
  7  8  1  0
  8  9  2  0
  8 10  1  0
 10 11  1  0
 11 12  2  0
 12 13  1  0
 13 14  1  0
 14 15  1  0
 15 16  2  0
 16 17  1  0
 17 18  2  0
 18 19  1  0
 19 20  1  0
 18 21  1  0
 21 22  2  0
 22 23  1  0
 23 24  2  0
 24 25  1  0
 25 26  2  0
 12 27  1  0
 27 28  1  0
  7 29  1  0
 29  4  1  0
 28 10  2  0
 26 15  1  0
 26 21  1  0
  1 30  1  0
  1 31  1  0
  1 32  1  0
  3 33  1  0
  3 34  1  0
  4 35  1  0
  5 36  1  0
  5 37  1  0
  6 38  1  0
  6 39  1  0
 11 40  1  0
 13 41  1  0
 13 42  1  0
 16 43  1  0
 17 44  1  0
 20 45  1  0
 20 46  1  0
 20 47  1  0
 22 48  1  0
 23 49  1  0
 24 50  1  0
 25 51  1  0
 29 52  1  0
 29 53  1  0
M  END
$$$$
