
     RDKit          3D

 42 44  0  0  0  0  0  0  0  0999 V2000
   -4.5726    0.0728   -2.7582 C   0  0  0  0  0  0  0  0  0  0  0  0
   -4.6273    0.2363   -1.2285 C   0  0  0  0  0  0  0  0  0  0  0  0
   -5.4782   -0.9044   -0.6489 C   0  0  0  0  0  0  0  0  0  0  0  0
   -5.2747    1.5926   -0.9082 C   0  0  0  0  0  0  0  0  0  0  0  0
   -3.2559    0.1779   -0.7164 N   0  0  0  0  0  0  0  0  0  0  0  0
   -2.8806    0.2850    0.6112 C   0  0  0  0  0  0  0  0  0  0  0  0
   -3.6701    0.4423    1.5368 O   0  0  0  0  0  0  0  0  0  0  0  0
   -1.4145    0.1885    0.7898 C   0  0  0  0  0  0  0  0  0  0  0  0
   -0.5651    0.0098   -0.2833 N   0  0  0  0  0  0  0  0  0  0  0  0
    0.6287   -0.0247    0.2615 C   0  0  0  0  0  0  0  0  0  0  0  0
    1.8381   -0.1792   -0.3472 N   0  0  0  0  0  0  0  0  0  0  0  0
    2.8926   -0.1688    0.4166 C   0  0  0  0  0  0  0  0  0  0  0  0
    4.2392   -0.3276   -0.2056 C   0  0  0  0  0  0  0  0  0  0  0  0
    5.3726    0.3212    0.3011 C   0  0  0  0  0  0  0  0  0  0  0  0
    6.6136    0.1448   -0.3164 C   0  0  0  0  0  0  0  0  0  0  0  0
    6.7265   -0.6695   -1.4428 C   0  0  0  0  0  0  0  0  0  0  0  0
    5.5988   -1.3034   -1.9615 C   0  0  0  0  0  0  0  0  0  0  0  0
    4.3567   -1.1298   -1.3485 C   0  0  0  0  0  0  0  0  0  0  0  0
    2.8512   -0.0321    1.9090 C   0  0  0  0  0  0  0  0  0  0  0  0
    1.6325    0.1169    2.4637 C   0  0  0  0  0  0  0  0  0  0  0  0
    1.3963    0.2596    3.9180 C   0  0  0  0  0  0  0  0  0  0  0  0
    2.5702    0.2293    4.6106 F   0  0  0  0  0  0  0  0  0  0  0  0
    0.8079    1.4368    4.2392 F   0  0  0  0  0  0  0  0  0  0  0  0
    0.6397   -0.7420    4.4268 F   0  0  0  0  0  0  0  0  0  0  0  0
    0.5109    0.1279    1.6479 N   0  0  0  0  0  0  0  0  0  0  0  0
   -0.7910    0.2633    1.9755 N   0  0  0  0  0  0  0  0  0  0  0  0
   -5.5740    0.1082   -3.2016 H   0  0  0  0  0  0  0  0  0  0  0  0
   -4.1147   -0.8836   -3.0369 H   0  0  0  0  0  0  0  0  0  0  0  0
   -3.9724    0.8663   -3.2188 H   0  0  0  0  0  0  0  0  0  0  0  0
   -5.0129   -1.8782   -0.8403 H   0  0  0  0  0  0  0  0  0  0  0  0
   -5.6046   -0.8111    0.4345 H   0  0  0  0  0  0  0  0  0  0  0  0
   -6.4796   -0.9164   -1.0939 H   0  0  0  0  0  0  0  0  0  0  0  0
   -6.2688    1.6735   -1.3623 H   0  0  0  0  0  0  0  0  0  0  0  0
   -5.3955    1.7441    0.1692 H   0  0  0  0  0  0  0  0  0  0  0  0
   -4.6630    2.4194   -1.2873 H   0  0  0  0  0  0  0  0  0  0  0  0
   -2.4857    0.0537   -1.3699 H   0  0  0  0  0  0  0  0  0  0  0  0
    5.3121    0.9885    1.1558 H   0  0  0  0  0  0  0  0  0  0  0  0
    7.4933    0.6510    0.0746 H   0  0  0  0  0  0  0  0  0  0  0  0
    7.6929   -0.8021   -1.9237 H   0  0  0  0  0  0  0  0  0  0  0  0
    5.6843   -1.9294   -2.8465 H   0  0  0  0  0  0  0  0  0  0  0  0
    3.4830   -1.6253   -1.7676 H   0  0  0  0  0  0  0  0  0  0  0  0
    3.7600   -0.0823    2.4961 H   0  0  0  0  0  0  0  0  0  0  0  0
  1  2  1  0
  2  3  1  0
  2  4  1  0
  2  5  1  0
  5  6  1  0
  6  7  2  0
  6  8  1  0
  8  9  1  0
  9 10  2  0
 10 11  1  0
 11 12  2  0
 12 13  1  0
 13 14  2  0
 14 15  1  0
 15 16  2  0
 16 17  1  0
 17 18  2  0
 12 19  1  0
 19 20  2  0
 20 21  1  0
 21 22  1  0
 21 23  1  0
 21 24  1  0
 20 25  1  0
 25 26  1  0
 26  8  2  0
 25 10  1  0
 18 13  1  0
  1 27  1  0
  1 28  1  0
  1 29  1  0
  3 30  1  0
  3 31  1  0
  3 32  1  0
  4 33  1  0
  4 34  1  0
  4 35  1  0
  5 36  1  0
 14 37  1  0
 15 38  1  0
 16 39  1  0
 17 40  1  0
 18 41  1  0
 19 42  1  0
M  END
$$$$
