
     RDKit          3D

 68 71  0  0  0  0  0  0  0  0999 V2000
    7.6264    0.4101   -6.7532 C   0  0  0  0  0  0  0  0  0  0  0  0
    7.2108    1.3087   -5.7325 O   0  0  0  0  0  0  0  0  0  0  0  0
    5.9760    1.0906   -5.1878 C   0  0  0  0  0  0  0  0  0  0  0  0
    5.6672    1.9057   -4.0963 C   0  0  0  0  0  0  0  0  0  0  0  0
    4.4444    1.7763   -3.4304 C   0  0  0  0  0  0  0  0  0  0  0  0
    3.5153    0.8168   -3.8459 C   0  0  0  0  0  0  0  0  0  0  0  0
    2.2190    0.6507   -3.1768 C   0  0  0  0  0  0  0  0  0  0  0  0
    2.0285    0.3605   -1.8746 C   0  0  0  0  0  0  0  0  0  0  0  0
    3.0924    0.1487   -0.9559 C   0  0  0  0  0  0  0  0  0  0  0  0
    3.9358   -0.0062   -0.1726 N   0  0  0  0  0  0  0  0  0  0  0  0
    0.6086    0.2273   -1.4090 C   0  0  0  0  0  0  0  0  0  0  0  0
   -0.2700   -0.1057   -2.1979 O   0  0  0  0  0  0  0  0  0  0  0  0
    0.4217    0.5231   -0.0806 N   0  0  0  0  0  0  0  0  0  0  0  0
   -0.7784    0.5388    0.6626 C   0  0  0  0  0  0  0  0  0  0  0  0
   -2.0339    0.2113    0.1563 C   0  0  0  0  0  0  0  0  0  0  0  0
   -3.1418    0.2799    1.0068 C   0  0  0  0  0  0  0  0  0  0  0  0
   -4.7651   -0.1050    0.3989 S   0  0  0  0  0  6  0  0  0  0  0  0
   -5.6240    0.9960    0.7834 O   0  0  0  0  0  0  0  0  0  0  0  0
   -4.6660   -0.5351   -0.9792 O   0  0  0  0  0  0  0  0  0  0  0  0
   -5.1991   -1.4749    1.3292 N   0  0  0  0  0  0  0  0  0  0  0  0
   -6.6664   -1.7502    1.3650 C   0  0  0  0  0  0  0  0  0  0  0  0
   -7.0127   -3.1223    0.8038 C   0  0  0  0  0  0  0  0  0  0  0  0
   -6.2849   -4.2393    1.5453 C   0  0  0  0  0  0  0  0  0  0  0  0
   -4.8731   -3.8349    1.9644 C   0  0  0  0  0  0  0  0  0  0  0  0
   -4.3430   -2.6765    1.1278 C   0  0  0  0  0  0  0  0  0  0  0  0
   -3.0105    0.6726    2.3446 C   0  0  0  0  0  0  0  0  0  0  0  0
   -1.7518    0.9938    2.8495 C   0  0  0  0  0  0  0  0  0  0  0  0
   -0.6262    0.9314    2.0188 C   0  0  0  0  0  0  0  0  0  0  0  0
    0.6751    1.2596    2.4746 N   0  0  0  0  0  0  0  0  0  0  0  0
    1.1813    0.3206    3.4893 C   0  0  0  0  0  0  0  0  0  0  0  0
    2.5931    0.7356    3.8901 C   0  0  0  0  0  0  0  0  0  0  0  0
    2.6287    2.1500    4.4749 C   0  0  0  0  0  0  0  0  0  0  0  0
    1.3666    2.9540    4.1646 C   0  0  0  0  0  0  0  0  0  0  0  0
    0.8574    2.7001    2.7489 C   0  0  0  0  0  0  0  0  0  0  0  0
    3.8125    0.0231   -4.9588 C   0  0  0  0  0  0  0  0  0  0  0  0
    5.0371    0.1576   -5.6261 C   0  0  0  0  0  0  0  0  0  0  0  0
    7.0364    0.5553   -7.6628 H   0  0  0  0  0  0  0  0  0  0  0  0
    7.5834   -0.6298   -6.4152 H   0  0  0  0  0  0  0  0  0  0  0  0
    8.6690    0.6362   -6.9919 H   0  0  0  0  0  0  0  0  0  0  0  0
    6.3900    2.6425   -3.7539 H   0  0  0  0  0  0  0  0  0  0  0  0
    4.2384    2.4329   -2.5895 H   0  0  0  0  0  0  0  0  0  0  0  0
    1.3594    0.7689   -3.8380 H   0  0  0  0  0  0  0  0  0  0  0  0
    1.2004    0.8249    0.5039 H   0  0  0  0  0  0  0  0  0  0  0  0
   -2.1692   -0.0861   -0.8789 H   0  0  0  0  0  0  0  0  0  0  0  0
   -7.2294   -0.9937    0.8089 H   0  0  0  0  0  0  0  0  0  0  0  0
   -6.9906   -1.6769    2.4107 H   0  0  0  0  0  0  0  0  0  0  0  0
   -8.0940   -3.2913    0.8561 H   0  0  0  0  0  0  0  0  0  0  0  0
   -6.7439   -3.1576   -0.2591 H   0  0  0  0  0  0  0  0  0  0  0  0
   -6.8532   -4.5318    2.4371 H   0  0  0  0  0  0  0  0  0  0  0  0
   -6.2465   -5.1249    0.9009 H   0  0  0  0  0  0  0  0  0  0  0  0
   -4.8808   -3.5441    3.0221 H   0  0  0  0  0  0  0  0  0  0  0  0
   -4.2029   -4.6983    1.8841 H   0  0  0  0  0  0  0  0  0  0  0  0
   -4.3124   -2.9562    0.0687 H   0  0  0  0  0  0  0  0  0  0  0  0
   -3.3223   -2.4571    1.4548 H   0  0  0  0  0  0  0  0  0  0  0  0
   -3.8864    0.7339    2.9871 H   0  0  0  0  0  0  0  0  0  0  0  0
   -1.6556    1.3044    3.8859 H   0  0  0  0  0  0  0  0  0  0  0  0
    1.2139   -0.6931    3.0692 H   0  0  0  0  0  0  0  0  0  0  0  0
    0.5367    0.2892    4.3766 H   0  0  0  0  0  0  0  0  0  0  0  0
    3.2430    0.7000    3.0060 H   0  0  0  0  0  0  0  0  0  0  0  0
    3.0069    0.0250    4.6150 H   0  0  0  0  0  0  0  0  0  0  0  0
    3.5133    2.6712    4.0874 H   0  0  0  0  0  0  0  0  0  0  0  0
    2.7573    2.0984    5.5636 H   0  0  0  0  0  0  0  0  0  0  0  0
    1.5623    4.0224    4.3108 H   0  0  0  0  0  0  0  0  0  0  0  0
    0.5836    2.6812    4.8851 H   0  0  0  0  0  0  0  0  0  0  0  0
   -0.0645    3.2737    2.5933 H   0  0  0  0  0  0  0  0  0  0  0  0
    1.5856    3.0858    2.0252 H   0  0  0  0  0  0  0  0  0  0  0  0
    3.0973   -0.7152   -5.3161 H   0  0  0  0  0  0  0  0  0  0  0  0
    5.2241   -0.4830   -6.4815 H   0  0  0  0  0  0  0  0  0  0  0  0
  1  2  1  0
  2  3  1  0
  3  4  2  0
  4  5  1  0
  5  6  2  0
  6  7  1  0
  7  8  2  3
  8  9  1  0
  9 10  3  0
  8 11  1  0
 11 12  2  0
 11 13  1  0
 13 14  1  0
 14 15  2  0
 15 16  1  0
 16 17  1  0
 17 18  2  0
 17 19  2  0
 17 20  1  0
 20 21  1  0
 21 22  1  0
 22 23  1  0
 23 24  1  0
 24 25  1  0
 16 26  2  0
 26 27  1  0
 27 28  2  0
 28 29  1  0
 29 30  1  0
 30 31  1  0
 31 32  1  0
 32 33  1  0
 33 34  1  0
  6 35  1  0
 35 36  2  0
 36  3  1  0
 28 14  1  0
 34 29  1  0
 25 20  1  0
  1 37  1  0
  1 38  1  0
  1 39  1  0
  4 40  1  0
  5 41  1  0
  7 42  1  0
 13 43  1  0
 15 44  1  0
 21 45  1  0
 21 46  1  0
 22 47  1  0
 22 48  1  0
 23 49  1  0
 23 50  1  0
 24 51  1  0
 24 52  1  0
 25 53  1  0
 25 54  1  0
 26 55  1  0
 27 56  1  0
 30 57  1  0
 30 58  1  0
 31 59  1  0
 31 60  1  0
 32 61  1  0
 32 62  1  0
 33 63  1  0
 33 64  1  0
 34 65  1  0
 34 66  1  0
 35 67  1  0
 36 68  1  0
M  END
$$$$
