
     RDKit          3D

 46 48  0  0  0  0  0  0  0  0999 V2000
    8.2093   -0.1733    0.5111 C   0  0  0  0  0  0  0  0  0  0  0  0
    7.3759    0.0966   -0.6090 O   0  0  0  0  0  0  0  0  0  0  0  0
    6.0261    0.0046   -0.4160 C   0  0  0  0  0  0  0  0  0  0  0  0
    5.2550    0.2747   -1.5476 C   0  0  0  0  0  0  0  0  0  0  0  0
    3.8600    0.2165   -1.4902 C   0  0  0  0  0  0  0  0  0  0  0  0
    3.2142   -0.1159   -0.2933 C   0  0  0  0  0  0  0  0  0  0  0  0
    1.7196   -0.1647   -0.2811 C   0  0  0  0  0  0  0  0  0  0  0  0
    1.1022    0.1635   -1.2949 O   0  0  0  0  0  0  0  0  0  0  0  0
    1.0230   -0.6109    1.0015 C   0  0  0  0  0  0  0  0  0  0  0  0
   -0.3986   -0.7031    0.7648 N   0  0  0  0  0  0  0  0  0  0  0  0
   -1.0239   -1.8041    0.2760 C   0  0  0  0  0  0  0  0  0  0  0  0
   -0.5240   -2.8871    0.0224 O   0  0  0  0  0  0  0  0  0  0  0  0
   -2.3578   -1.5128    0.1157 N   0  0  0  0  0  0  0  0  0  0  0  0
   -2.6597   -0.1159    0.3675 C   0  0  0  0  0  0  0  0  0  0  0  0
   -2.9592    0.6211   -0.9539 C   0  0  0  0  0  0  0  0  0  0  0  0
   -3.9370    1.7885   -0.8163 C   0  0  0  0  0  0  0  0  0  0  0  0
   -5.4031    1.3973   -0.5841 C   0  0  0  0  0  0  0  0  0  0  0  0
   -5.6713   -0.0463   -0.1647 C   0  0  0  0  0  0  0  0  0  0  0  0
   -5.0938   -0.4504    1.1880 C   0  0  0  0  0  0  0  0  0  0  0  0
   -3.6819    0.0411    1.4987 C   0  0  0  0  0  0  0  0  0  0  0  0
   -1.2743    0.3375    0.8845 C   0  0  0  0  0  0  0  0  0  0  0  0
   -1.0086    1.4532    1.3141 O   0  0  0  0  0  0  0  0  0  0  0  0
    3.9872   -0.3847    0.8428 C   0  0  0  0  0  0  0  0  0  0  0  0
    5.3870   -0.3247    0.7793 C   0  0  0  0  0  0  0  0  0  0  0  0
    9.2490   -0.0596    0.1895 H   0  0  0  0  0  0  0  0  0  0  0  0
    8.0793   -1.2028    0.8607 H   0  0  0  0  0  0  0  0  0  0  0  0
    8.0298    0.5445    1.3183 H   0  0  0  0  0  0  0  0  0  0  0  0
    5.7433    0.5334   -2.4845 H   0  0  0  0  0  0  0  0  0  0  0  0
    3.2835    0.4320   -2.3883 H   0  0  0  0  0  0  0  0  0  0  0  0
    1.3944   -1.5977    1.2937 H   0  0  0  0  0  0  0  0  0  0  0  0
    1.2077    0.1288    1.7863 H   0  0  0  0  0  0  0  0  0  0  0  0
   -2.9739   -2.1779   -0.3330 H   0  0  0  0  0  0  0  0  0  0  0  0
   -2.0250    1.0129   -1.3794 H   0  0  0  0  0  0  0  0  0  0  0  0
   -3.3394   -0.0757   -1.7118 H   0  0  0  0  0  0  0  0  0  0  0  0
   -3.8904    2.3915   -1.7324 H   0  0  0  0  0  0  0  0  0  0  0  0
   -3.6022    2.4602   -0.0164 H   0  0  0  0  0  0  0  0  0  0  0  0
   -5.8439    2.0834    0.1497 H   0  0  0  0  0  0  0  0  0  0  0  0
   -5.9505    1.5744   -1.5192 H   0  0  0  0  0  0  0  0  0  0  0  0
   -5.3109   -0.7338   -0.9386 H   0  0  0  0  0  0  0  0  0  0  0  0
   -6.7573   -0.2021   -0.1301 H   0  0  0  0  0  0  0  0  0  0  0  0
   -5.7596   -0.0840    1.9799 H   0  0  0  0  0  0  0  0  0  0  0  0
   -5.1200   -1.5450    1.2599 H   0  0  0  0  0  0  0  0  0  0  0  0
   -3.3301   -0.4936    2.3925 H   0  0  0  0  0  0  0  0  0  0  0  0
   -3.7344    1.0921    1.8111 H   0  0  0  0  0  0  0  0  0  0  0  0
    3.5362   -0.6413    1.7967 H   0  0  0  0  0  0  0  0  0  0  0  0
    5.9482   -0.5402    1.6832 H   0  0  0  0  0  0  0  0  0  0  0  0
  1  2  1  0
  2  3  1  0
  3  4  2  0
  4  5  1  0
  5  6  2  0
  6  7  1  0
  7  8  2  0
  7  9  1  0
  9 10  1  0
 10 11  1  0
 11 12  2  0
 11 13  1  0
 13 14  1  0
 14 15  1  0
 15 16  1  0
 16 17  1  0
 17 18  1  0
 18 19  1  0
 19 20  1  0
 14 21  1  0
 21 22  2  0
  6 23  1  0
 23 24  2  0
 24  3  1  0
 21 10  1  0
 20 14  1  0
  1 25  1  0
  1 26  1  0
  1 27  1  0
  4 28  1  0
  5 29  1  0
  9 30  1  0
  9 31  1  0
 13 32  1  0
 15 33  1  0
 15 34  1  0
 16 35  1  0
 16 36  1  0
 17 37  1  0
 17 38  1  0
 18 39  1  0
 18 40  1  0
 19 41  1  0
 19 42  1  0
 20 43  1  0
 20 44  1  0
 23 45  1  0
 24 46  1  0
M  END
$$$$
