
     RDKit          3D

 49 52  0  0  0  0  0  0  0  0999 V2000
   -3.8007   -5.2400   -0.0050 C   0  0  0  0  0  0  0  0  0  0  0  0
   -3.1187   -4.3059    0.8222 O   0  0  0  0  0  0  0  0  0  0  0  0
   -2.5912   -3.2060    0.2035 C   0  0  0  0  0  0  0  0  0  0  0  0
   -2.6653   -2.9143   -1.1572 C   0  0  0  0  0  0  0  0  0  0  0  0
   -2.0784   -1.7469   -1.6605 C   0  0  0  0  0  0  0  0  0  0  0  0
   -1.4064   -0.8502   -0.8147 C   0  0  0  0  0  0  0  0  0  0  0  0
   -0.7898    0.4316   -1.3829 C   0  0  0  0  0  0  0  0  0  0  0  0
    0.6206    0.5458   -0.9512 N   0  0  0  0  0  0  0  0  0  0  0  0
    0.8997    1.4327   -0.0597 C   0  0  0  0  0  0  0  0  0  0  0  0
    2.1308    1.6494    0.5070 N   0  0  0  0  0  0  0  0  0  0  0  0
    3.3004    0.8712    0.3796 C   0  0  0  0  0  0  0  0  0  0  0  0
    3.3033   -0.4613   -0.0436 C   0  0  0  0  0  0  0  0  0  0  0  0
    4.4934   -1.1950   -0.1249 C   0  0  0  0  0  0  0  0  0  0  0  0
    5.7150   -0.6110    0.2176 C   0  0  0  0  0  0  0  0  0  0  0  0
    6.9833   -1.4084    0.1609 C   0  0  0  0  0  0  0  0  0  0  0  0
    5.7229    0.7090    0.6722 C   0  0  0  0  0  0  0  0  0  0  0  0
    4.5306    1.4379    0.7517 C   0  0  0  0  0  0  0  0  0  0  0  0
   -0.0459    2.2881    0.4112 N   0  0  0  0  0  0  0  0  0  0  0  0
   -1.2861    2.4549   -0.1089 C   0  0  0  0  0  0  0  0  0  0  0  0
   -2.0474    3.4201    0.3116 N   0  0  0  0  0  0  0  0  0  0  0  0
   -3.2683    3.5758   -0.2941 C   0  0  0  0  0  0  0  0  0  0  0  0
   -4.1231    4.6815    0.2558 C   0  0  0  0  0  0  0  0  0  0  0  0
   -3.6862    2.8213   -1.3169 C   0  0  0  0  0  0  0  0  0  0  0  0
   -2.8110    1.7430   -1.8039 C   0  0  0  0  0  0  0  0  0  0  0  0
   -3.1669    1.0760   -2.7715 O   0  0  0  0  0  0  0  0  0  0  0  0
   -1.6359    1.5851   -1.1081 N   0  0  0  0  0  0  0  0  0  0  0  0
   -1.3436   -1.1520    0.5537 C   0  0  0  0  0  0  0  0  0  0  0  0
   -1.9282   -2.3192    1.0532 C   0  0  0  0  0  0  0  0  0  0  0  0
   -4.6759   -4.7829   -0.4785 H   0  0  0  0  0  0  0  0  0  0  0  0
   -4.1559   -6.0546    0.6335 H   0  0  0  0  0  0  0  0  0  0  0  0
   -3.1267   -5.6725   -0.7518 H   0  0  0  0  0  0  0  0  0  0  0  0
   -3.1747   -3.5676   -1.8573 H   0  0  0  0  0  0  0  0  0  0  0  0
   -2.1617   -1.5341   -2.7255 H   0  0  0  0  0  0  0  0  0  0  0  0
   -0.7516    0.3286   -2.4754 H   0  0  0  0  0  0  0  0  0  0  0  0
    2.3206    2.5935    0.8101 H   0  0  0  0  0  0  0  0  0  0  0  0
    2.3783   -0.9666   -0.3077 H   0  0  0  0  0  0  0  0  0  0  0  0
    4.4507   -2.2301   -0.4570 H   0  0  0  0  0  0  0  0  0  0  0  0
    7.1475   -1.9190    1.1148 H   0  0  0  0  0  0  0  0  0  0  0  0
    6.9393   -2.1560   -0.6381 H   0  0  0  0  0  0  0  0  0  0  0  0
    7.8423   -0.7618   -0.0469 H   0  0  0  0  0  0  0  0  0  0  0  0
    6.6565    1.1817    0.9687 H   0  0  0  0  0  0  0  0  0  0  0  0
    4.5807    2.4633    1.1088 H   0  0  0  0  0  0  0  0  0  0  0  0
    0.1859    2.9343    1.1484 H   0  0  0  0  0  0  0  0  0  0  0  0
   -4.3404    4.5015    1.3139 H   0  0  0  0  0  0  0  0  0  0  0  0
   -3.6044    5.6418    0.1674 H   0  0  0  0  0  0  0  0  0  0  0  0
   -5.0787    4.7673   -0.2722 H   0  0  0  0  0  0  0  0  0  0  0  0
   -4.6408    2.9454   -1.8089 H   0  0  0  0  0  0  0  0  0  0  0  0
   -0.8329   -0.4863    1.2441 H   0  0  0  0  0  0  0  0  0  0  0  0
   -1.8649   -2.5392    2.1160 H   0  0  0  0  0  0  0  0  0  0  0  0
  1  2  1  0
  2  3  1  0
  3  4  2  0
  4  5  1  0
  5  6  2  0
  6  7  1  0
  7  8  1  0
  8  9  2  0
  9 10  1  0
 10 11  1  0
 11 12  2  0
 12 13  1  0
 13 14  2  0
 14 15  1  0
 14 16  1  0
 16 17  2  0
  9 18  1  0
 18 19  1  0
 19 20  2  0
 20 21  1  0
 21 22  1  0
 21 23  2  0
 23 24  1  0
 24 25  2  0
 24 26  1  0
  6 27  1  0
 27 28  2  0
 28  3  1  0
 26  7  1  0
 17 11  1  0
 26 19  1  0
  1 29  1  0
  1 30  1  0
  1 31  1  0
  4 32  1  0
  5 33  1  0
  7 34  1  0
 10 35  1  0
 12 36  1  0
 13 37  1  0
 15 38  1  0
 15 39  1  0
 15 40  1  0
 16 41  1  0
 17 42  1  0
 18 43  1  0
 22 44  1  0
 22 45  1  0
 22 46  1  0
 23 47  1  0
 27 48  1  0
 28 49  1  0
M  END
$$$$
