
     RDKit          3D

 46 48  0  0  0  0  0  0  0  0999 V2000
   -0.6427    1.9225   -3.0349 N   0  0  0  0  0  0  0  0  0  0  0  0
    0.0874    0.9510   -2.4599 C   0  0  0  0  0  0  0  0  0  0  0  0
    1.0571    0.3420   -3.0818 N   0  0  0  0  0  0  0  0  0  0  0  0
    1.5506   -0.6453   -2.0735 C   0  0  0  0  0  0  0  0  0  0  0  0
    0.9880   -0.1875   -0.7086 C   0  0  0  0  0  0  0  0  0  0  0  0
    2.0072    0.6703    0.0676 C   0  0  0  0  0  0  0  0  0  0  0  0
    3.1068   -0.1496    0.7042 C   0  0  0  0  0  0  0  0  0  0  0  0
    4.4056   -0.1288    0.1773 C   0  0  0  0  0  0  0  0  0  0  0  0
    5.4176   -0.8909    0.7626 C   0  0  0  0  0  0  0  0  0  0  0  0
    5.1358   -1.6725    1.8759 C   0  0  0  0  0  0  0  0  0  0  0  0
    6.1546   -2.4003    2.4157 O   0  0  0  0  0  0  0  0  0  0  0  0
    3.8553   -1.7050    2.4173 C   0  0  0  0  0  0  0  0  0  0  0  0
    2.8419   -0.9427    1.8312 C   0  0  0  0  0  0  0  0  0  0  0  0
   -0.1496    0.6091   -1.1674 N   0  0  0  0  0  0  0  0  0  0  0  0
   -1.0516    1.2386   -0.2231 C   0  0  0  0  0  0  0  0  0  0  0  0
   -2.4956    0.7169   -0.3809 C   0  0  0  0  0  0  0  0  0  0  0  0
   -3.4588    1.6464    0.3869 C   0  0  0  0  0  0  0  0  0  0  0  0
   -4.7573    0.9398    0.7526 C   0  0  0  0  0  0  0  0  0  0  0  0
   -4.5071   -0.2468    1.6845 C   0  0  0  0  0  0  0  0  0  0  0  0
   -3.1351   -0.8943    1.4886 C   0  0  0  0  0  0  0  0  0  0  0  0
   -2.6460   -0.7582    0.0515 C   0  0  0  0  0  0  0  0  0  0  0  0
   -1.6360    1.8250   -2.8872 H   0  0  0  0  0  0  0  0  0  0  0  0
   -0.4306    1.9701   -4.0263 H   0  0  0  0  0  0  0  0  0  0  0  0
    1.1561   -1.6328   -2.3414 H   0  0  0  0  0  0  0  0  0  0  0  0
    2.6421   -0.6963   -2.1008 H   0  0  0  0  0  0  0  0  0  0  0  0
    0.6584   -1.0495   -0.1186 H   0  0  0  0  0  0  0  0  0  0  0  0
    1.5114    1.2291    0.8709 H   0  0  0  0  0  0  0  0  0  0  0  0
    2.4403    1.4385   -0.5871 H   0  0  0  0  0  0  0  0  0  0  0  0
    4.6392    0.4791   -0.6946 H   0  0  0  0  0  0  0  0  0  0  0  0
    6.4228   -0.8734    0.3507 H   0  0  0  0  0  0  0  0  0  0  0  0
    5.8143   -2.8870    3.1837 H   0  0  0  0  0  0  0  0  0  0  0  0
    3.6284   -2.3104    3.2889 H   0  0  0  0  0  0  0  0  0  0  0  0
    1.8438   -0.9679    2.2633 H   0  0  0  0  0  0  0  0  0  0  0  0
   -0.7250    1.0523    0.8071 H   0  0  0  0  0  0  0  0  0  0  0  0
   -1.0220    2.3262   -0.3626 H   0  0  0  0  0  0  0  0  0  0  0  0
   -2.7705    0.7582   -1.4423 H   0  0  0  0  0  0  0  0  0  0  0  0
   -2.9860    2.0152    1.3066 H   0  0  0  0  0  0  0  0  0  0  0  0
   -3.6752    2.5294   -0.2264 H   0  0  0  0  0  0  0  0  0  0  0  0
   -5.4515    1.6412    1.2293 H   0  0  0  0  0  0  0  0  0  0  0  0
   -5.2483    0.5888   -0.1639 H   0  0  0  0  0  0  0  0  0  0  0  0
   -5.2966   -0.9912    1.5253 H   0  0  0  0  0  0  0  0  0  0  0  0
   -4.5974    0.0748    2.7292 H   0  0  0  0  0  0  0  0  0  0  0  0
   -2.4089   -0.4251    2.1639 H   0  0  0  0  0  0  0  0  0  0  0  0
   -3.1863   -1.9514    1.7732 H   0  0  0  0  0  0  0  0  0  0  0  0
   -3.3754   -1.2455   -0.6093 H   0  0  0  0  0  0  0  0  0  0  0  0
   -1.7112   -1.3120   -0.0769 H   0  0  0  0  0  0  0  0  0  0  0  0
  1  2  1  0
  2  3  2  0
  3  4  1  0
  4  5  1  0
  5  6  1  0
  6  7  1  0
  7  8  2  0
  8  9  1  0
  9 10  2  0
 10 11  1  0
 10 12  1  0
 12 13  2  0
  5 14  1  0
 14 15  1  0
 15 16  1  0
 16 17  1  0
 17 18  1  0
 18 19  1  0
 19 20  1  0
 20 21  1  0
 14  2  1  0
 21 16  1  0
 13  7  1  0
  1 22  1  0
  1 23  1  0
  4 24  1  0
  4 25  1  0
  5 26  1  0
  6 27  1  0
  6 28  1  0
  8 29  1  0
  9 30  1  0
 11 31  1  0
 12 32  1  0
 13 33  1  0
 15 34  1  0
 15 35  1  0
 16 36  1  0
 17 37  1  0
 17 38  1  0
 18 39  1  0
 18 40  1  0
 19 41  1  0
 19 42  1  0
 20 43  1  0
 20 44  1  0
 21 45  1  0
 21 46  1  0
M  END
$$$$
