
     RDKit          3D

 49 52  0  0  0  0  0  0  0  0999 V2000
   -7.5147   -0.8941    1.9717 C   0  0  0  0  0  0  0  0  0  0  0  0
   -6.6187   -0.3440    0.9017 C   0  0  0  0  0  0  0  0  0  0  0  0
   -7.1516    0.0713   -0.3228 C   0  0  0  0  0  0  0  0  0  0  0  0
   -6.3154    0.5482   -1.3385 C   0  0  0  0  0  0  0  0  0  0  0  0
   -6.8939    1.0305   -2.6367 C   0  0  0  0  0  0  0  0  0  0  0  0
   -4.9319    0.6233   -1.1142 C   0  0  0  0  0  0  0  0  0  0  0  0
   -4.3796    0.2028    0.0966 C   0  0  0  0  0  0  0  0  0  0  0  0
   -2.9983    0.2284    0.3849 N   0  0  0  0  0  0  0  0  0  0  0  0
   -1.9834    0.7371   -0.4051 C   0  0  0  0  0  0  0  0  0  0  0  0
   -2.1009    1.3250   -1.4730 O   0  0  0  0  0  0  0  0  0  0  0  0
   -0.6136    0.5691    0.1577 C   0  0  0  0  0  0  0  0  0  0  0  0
   -0.2403   -0.5884    0.8527 C   0  0  0  0  0  0  0  0  0  0  0  0
    1.0556   -0.7045    1.3645 C   0  0  0  0  0  0  0  0  0  0  0  0
    1.9916    0.3159    1.1700 C   0  0  0  0  0  0  0  0  0  0  0  0
    3.2773    0.2046    1.7117 N   0  0  0  0  0  0  0  0  0  0  0  0
    4.2331   -0.3214    1.0204 C   0  0  0  0  0  0  0  0  0  0  0  0
    5.5081   -0.4353    1.4987 N   0  0  0  0  0  0  0  0  0  0  0  0
    6.5426   -0.6846    0.5141 C   0  0  0  0  0  0  0  0  0  0  0  0
    7.0491    0.6063   -0.1097 C   0  0  0  0  0  0  0  0  0  0  0  0
    7.6847    0.0846   -1.6786 S   0  0  0  0  0  6  0  0  0  0  0  0
    7.3659    1.0846   -2.6731 O   0  0  0  0  0  0  0  0  0  0  0  0
    9.0370   -0.3900   -1.4649 O   0  0  0  0  0  0  0  0  0  0  0  0
    6.6327   -1.3352   -1.9001 C   0  0  0  0  0  0  0  0  0  0  0  0
    5.8811   -1.5224   -0.5934 C   0  0  0  0  0  0  0  0  0  0  0  0
    4.1455   -0.9326   -0.6316 S   0  0  0  0  0  0  0  0  0  0  0  0
    1.6131    1.4694    0.4776 C   0  0  0  0  0  0  0  0  0  0  0  0
    0.3207    1.5926   -0.0391 C   0  0  0  0  0  0  0  0  0  0  0  0
   -5.2311   -0.2898    1.0951 C   0  0  0  0  0  0  0  0  0  0  0  0
   -8.5081   -0.4358    1.9241 H   0  0  0  0  0  0  0  0  0  0  0  0
   -7.1087   -0.6845    2.9669 H   0  0  0  0  0  0  0  0  0  0  0  0
   -7.6185   -1.9769    1.8523 H   0  0  0  0  0  0  0  0  0  0  0  0
   -8.2262    0.0234   -0.4887 H   0  0  0  0  0  0  0  0  0  0  0  0
   -7.0928    2.1051   -2.5809 H   0  0  0  0  0  0  0  0  0  0  0  0
   -6.2047    0.8390   -3.4659 H   0  0  0  0  0  0  0  0  0  0  0  0
   -7.8294    0.5096   -2.8664 H   0  0  0  0  0  0  0  0  0  0  0  0
   -4.3030    1.0094   -1.9109 H   0  0  0  0  0  0  0  0  0  0  0  0
   -2.7400   -0.1032    1.3045 H   0  0  0  0  0  0  0  0  0  0  0  0
   -0.9319   -1.4162    0.9810 H   0  0  0  0  0  0  0  0  0  0  0  0
    1.3459   -1.5990    1.9094 H   0  0  0  0  0  0  0  0  0  0  0  0
    5.7092    0.1251    2.3203 H   0  0  0  0  0  0  0  0  0  0  0  0
    7.3741   -1.2417    0.9613 H   0  0  0  0  0  0  0  0  0  0  0  0
    6.2585    1.3417   -0.2878 H   0  0  0  0  0  0  0  0  0  0  0  0
    7.8455    1.0710    0.4765 H   0  0  0  0  0  0  0  0  0  0  0  0
    7.2905   -2.1885   -2.0934 H   0  0  0  0  0  0  0  0  0  0  0  0
    5.9861   -1.1799   -2.7673 H   0  0  0  0  0  0  0  0  0  0  0  0
    5.8373   -2.5812   -0.3155 H   0  0  0  0  0  0  0  0  0  0  0  0
    2.3298    2.2735    0.3353 H   0  0  0  0  0  0  0  0  0  0  0  0
    0.0425    2.4891   -0.5897 H   0  0  0  0  0  0  0  0  0  0  0  0
   -4.8209   -0.6312    2.0424 H   0  0  0  0  0  0  0  0  0  0  0  0
  1  2  1  0
  2  3  2  0
  3  4  1  0
  4  5  1  0
  4  6  2  0
  6  7  1  0
  7  8  1  0
  8  9  1  0
  9 10  2  0
  9 11  1  0
 11 12  2  0
 12 13  1  0
 13 14  2  0
 14 15  1  0
 15 16  2  3
 16 17  1  0
 17 18  1  0
 18 19  1  0
 19 20  1  0
 20 21  2  0
 20 22  2  0
 20 23  1  0
 23 24  1  0
 24 25  1  0
 14 26  1  0
 26 27  2  0
  7 28  2  0
 28  2  1  0
 27 11  1  0
 25 16  1  0
 24 18  1  0
  1 29  1  0
  1 30  1  0
  1 31  1  0
  3 32  1  0
  5 33  1  0
  5 34  1  0
  5 35  1  0
  6 36  1  0
  8 37  1  0
 12 38  1  0
 13 39  1  0
 17 40  1  0
 18 41  1  0
 19 42  1  0
 19 43  1  0
 23 44  1  0
 23 45  1  0
 24 46  1  0
 26 47  1  0
 27 48  1  0
 28 49  1  0
M  END
$$$$
