
     RDKit          3D

 61 65  0  0  0  0  0  0  0  0999 V2000
  -10.5860    1.7082   -0.3773 C   0  0  0  0  0  0  0  0  0  0  0  0
   -9.6941    1.0834   -1.2913 O   0  0  0  0  0  0  0  0  0  0  0  0
   -8.4558    0.7537   -0.8156 C   0  0  0  0  0  0  0  0  0  0  0  0
   -7.6165    0.1364   -1.7411 C   0  0  0  0  0  0  0  0  0  0  0  0
   -6.3186   -0.2545   -1.3879 C   0  0  0  0  0  0  0  0  0  0  0  0
   -5.8330   -0.0369   -0.0923 C   0  0  0  0  0  0  0  0  0  0  0  0
   -4.5004   -0.4351    0.2793 N   0  0  0  0  0  0  0  0  0  0  0  0
   -4.0305   -0.6867    1.5803 C   0  0  0  0  0  0  0  0  0  0  0  0
   -4.8148   -0.6422    2.6568 O   0  0  0  0  0  0  0  0  0  0  0  0
   -2.6925   -1.0211    1.5160 C   0  0  0  0  0  0  0  0  0  0  0  0
   -2.3096   -0.9826    0.1676 C   0  0  0  0  0  0  0  0  0  0  0  0
   -1.0737   -1.2082   -0.3703 N   0  0  0  0  0  0  0  0  0  0  0  0
   -0.3445    0.0043   -0.8413 C   0  0  0  0  0  0  0  0  0  0  0  0
    1.1512   -0.2645   -1.1216 C   0  0  0  0  0  0  0  0  0  0  0  0
    1.8355   -0.7820    0.0771 N   0  0  0  0  0  0  0  0  0  0  0  0
    3.2048   -0.6741    0.2485 C   0  0  0  0  0  0  0  0  0  0  0  0
    4.0686   -0.3712   -0.8173 C   0  0  0  0  0  0  0  0  0  0  0  0
    5.4559   -0.2587   -0.6452 C   0  0  0  0  0  0  0  0  0  0  0  0
    6.0164   -0.4317    0.6196 C   0  0  0  0  0  0  0  0  0  0  0  0
    7.4784   -0.3384    0.8511 C   0  0  0  0  0  0  0  0  0  0  0  0
    8.0057   -1.0917    1.6649 O   0  0  0  0  0  0  0  0  0  0  0  0
    8.3177    0.6407    0.1295 C   0  0  0  0  0  0  0  0  0  0  0  0
    7.8594    1.9049   -0.2469 C   0  0  0  0  0  0  0  0  0  0  0  0
    8.7237    2.7718   -0.9132 C   0  0  0  0  0  0  0  0  0  0  0  0
   10.0177    2.3456   -1.1708 C   0  0  0  0  0  0  0  0  0  0  0  0
   10.4949    1.1359   -0.8066 N   0  0  0  0  0  0  0  0  0  0  0  0
    9.6378    0.3135   -0.1517 C   0  0  0  0  0  0  0  0  0  0  0  0
    5.1880   -0.7477    1.6946 C   0  0  0  0  0  0  0  0  0  0  0  0
    3.8043   -0.8572    1.5062 C   0  0  0  0  0  0  0  0  0  0  0  0
    1.0175   -1.6126    0.9845 C   0  0  0  0  0  0  0  0  0  0  0  0
   -0.1961   -2.2280    0.2549 C   0  0  0  0  0  0  0  0  0  0  0  0
   -3.4197   -0.6586   -0.5823 C   0  0  0  0  0  0  0  0  0  0  0  0
   -3.4862   -0.5451   -1.9094 O   0  0  0  0  0  0  0  0  0  0  0  0
   -6.6837    0.5866    0.8320 C   0  0  0  0  0  0  0  0  0  0  0  0
   -7.9828    0.9787    0.4739 C   0  0  0  0  0  0  0  0  0  0  0  0
  -10.8099    1.0501    0.4687 H   0  0  0  0  0  0  0  0  0  0  0  0
  -11.5245    1.9017   -0.9057 H   0  0  0  0  0  0  0  0  0  0  0  0
  -10.1916    2.6711   -0.0364 H   0  0  0  0  0  0  0  0  0  0  0  0
   -7.9741   -0.0510   -2.7506 H   0  0  0  0  0  0  0  0  0  0  0  0
   -5.7297   -0.7591   -2.1466 H   0  0  0  0  0  0  0  0  0  0  0  0
   -4.2789   -0.9070    3.4247 H   0  0  0  0  0  0  0  0  0  0  0  0
   -2.0669   -1.2542    2.3651 H   0  0  0  0  0  0  0  0  0  0  0  0
   -0.8118    0.3806   -1.7582 H   0  0  0  0  0  0  0  0  0  0  0  0
   -0.4205    0.7931   -0.0804 H   0  0  0  0  0  0  0  0  0  0  0  0
    1.5992    0.6832   -1.4434 H   0  0  0  0  0  0  0  0  0  0  0  0
    1.2525   -0.9879   -1.9397 H   0  0  0  0  0  0  0  0  0  0  0  0
    3.6795   -0.2476   -1.8245 H   0  0  0  0  0  0  0  0  0  0  0  0
    6.0764   -0.0605   -1.5150 H   0  0  0  0  0  0  0  0  0  0  0  0
    6.8508    2.2338   -0.0140 H   0  0  0  0  0  0  0  0  0  0  0  0
    8.3996    3.7614   -1.2168 H   0  0  0  0  0  0  0  0  0  0  0  0
   10.7275    2.9871   -1.6861 H   0  0  0  0  0  0  0  0  0  0  0  0
   10.0569   -0.6456    0.1433 H   0  0  0  0  0  0  0  0  0  0  0  0
    5.6102   -0.9061    2.6849 H   0  0  0  0  0  0  0  0  0  0  0  0
    3.1968   -1.0732    2.3813 H   0  0  0  0  0  0  0  0  0  0  0  0
    0.6754   -0.9927    1.8218 H   0  0  0  0  0  0  0  0  0  0  0  0
    1.6054   -2.4441    1.3915 H   0  0  0  0  0  0  0  0  0  0  0  0
    0.1662   -2.8833   -0.5479 H   0  0  0  0  0  0  0  0  0  0  0  0
   -0.7533   -2.8755    0.9430 H   0  0  0  0  0  0  0  0  0  0  0  0
   -2.6264   -0.8907   -2.2176 H   0  0  0  0  0  0  0  0  0  0  0  0
   -6.3571    0.8194    1.8407 H   0  0  0  0  0  0  0  0  0  0  0  0
   -8.5910    1.4624    1.2307 H   0  0  0  0  0  0  0  0  0  0  0  0
  1  2  1  0
  2  3  1  0
  3  4  2  0
  4  5  1  0
  5  6  2  0
  6  7  1  0
  7  8  1  0
  8  9  1  0
  8 10  2  0
 10 11  1  0
 11 12  1  0
 12 13  1  0
 13 14  1  0
 14 15  1  0
 15 16  1  0
 16 17  2  0
 17 18  1  0
 18 19  2  0
 19 20  1  0
 20 21  2  0
 20 22  1  0
 22 23  2  0
 23 24  1  0
 24 25  2  0
 25 26  1  0
 26 27  2  0
 19 28  1  0
 28 29  2  0
 15 30  1  0
 30 31  1  0
 11 32  2  0
 32 33  1  0
  6 34  1  0
 34 35  2  0
 35  3  1  0
 32  7  1  0
 31 12  1  0
 29 16  1  0
 27 22  1  0
  1 36  1  0
  1 37  1  0
  1 38  1  0
  4 39  1  0
  5 40  1  0
  9 41  1  0
 10 42  1  0
 13 43  1  0
 13 44  1  0
 14 45  1  0
 14 46  1  0
 17 47  1  0
 18 48  1  0
 23 49  1  0
 24 50  1  0
 25 51  1  0
 27 52  1  0
 28 53  1  0
 29 54  1  0
 30 55  1  0
 30 56  1  0
 31 57  1  0
 31 58  1  0
 33 59  1  0
 34 60  1  0
 35 61  1  0
M  END
$$$$
