
     RDKit          3D

 46 48  0  0  0  0  0  0  0  0999 V2000
    5.3437    1.3723   -3.0320 C   0  0  0  0  0  0  0  0  0  0  0  0
    5.4967    2.6981   -2.5474 O   0  0  0  0  0  0  0  0  0  0  0  0
    5.0273    2.8821   -1.2079 C   0  0  0  0  0  0  0  0  0  0  0  0
    3.5018    2.8860   -1.1067 C   0  0  0  0  0  0  0  0  0  0  0  0
    3.0248    1.5320   -1.0156 O   0  0  0  0  0  0  0  0  0  0  0  0
    1.6660    1.4236   -0.9382 C   0  0  0  0  0  0  0  0  0  0  0  0
    0.9078    2.3852   -0.9482 O   0  0  0  0  0  0  0  0  0  0  0  0
    1.2032    0.0491   -0.8384 C   0  0  0  0  0  0  0  0  0  0  0  0
    1.9796   -1.0996   -0.7612 C   0  0  0  0  0  0  0  0  0  0  0  0
    3.4357   -1.3634   -0.7460 C   0  0  0  0  0  0  0  0  0  0  0  0
    1.1898   -2.2071   -0.6839 O   0  0  0  0  0  0  0  0  0  0  0  0
   -0.1000   -1.7884   -0.7055 C   0  0  0  0  0  0  0  0  0  0  0  0
   -1.2140   -2.6218   -0.6475 C   0  0  0  0  0  0  0  0  0  0  0  0
   -2.4647   -1.9967   -0.6798 C   0  0  0  0  0  0  0  0  0  0  0  0
   -2.5728   -0.6054   -0.7625 C   0  0  0  0  0  0  0  0  0  0  0  0
   -3.8718   -0.0262   -0.7531 N   0  0  0  0  0  0  0  0  0  0  0  0
   -4.3475    0.9438    0.5444 S   0  0  0  0  0  6  0  0  0  0  0  0
   -3.4813    2.0981    0.6339 O   0  0  0  0  0  0  0  0  0  0  0  0
   -5.7839    1.0880    0.4311 O   0  0  0  0  0  0  0  0  0  0  0  0
   -4.0294   -0.0936    1.9577 C   0  0  0  0  0  0  0  0  0  0  0  0
   -2.8335    0.0536    2.6716 C   0  0  0  0  0  0  0  0  0  0  0  0
   -2.5942   -0.7576    3.7810 C   0  0  0  0  0  0  0  0  0  0  0  0
   -3.5519   -1.6898    4.1704 C   0  0  0  0  0  0  0  0  0  0  0  0
   -3.3188   -2.4667    5.2359 F   0  0  0  0  0  0  0  0  0  0  0  0
   -4.7507   -1.8255    3.4751 C   0  0  0  0  0  0  0  0  0  0  0  0
   -4.9982   -1.0201    2.3629 C   0  0  0  0  0  0  0  0  0  0  0  0
   -1.4302    0.2049   -0.8230 C   0  0  0  0  0  0  0  0  0  0  0  0
   -0.1579   -0.4042   -0.7943 C   0  0  0  0  0  0  0  0  0  0  0  0
    5.8766    1.2946   -3.9838 H   0  0  0  0  0  0  0  0  0  0  0  0
    5.7745    0.6479   -2.3344 H   0  0  0  0  0  0  0  0  0  0  0  0
    4.2904    1.1473   -3.2172 H   0  0  0  0  0  0  0  0  0  0  0  0
    5.3983    3.8643   -0.8971 H   0  0  0  0  0  0  0  0  0  0  0  0
    5.4772    2.1283   -0.5517 H   0  0  0  0  0  0  0  0  0  0  0  0
    3.2059    3.4144   -0.1934 H   0  0  0  0  0  0  0  0  0  0  0  0
    3.0636    3.3712   -1.9863 H   0  0  0  0  0  0  0  0  0  0  0  0
    3.9260   -0.7887    0.0455 H   0  0  0  0  0  0  0  0  0  0  0  0
    3.8822   -1.0921   -1.7069 H   0  0  0  0  0  0  0  0  0  0  0  0
    3.6454   -2.4228   -0.5662 H   0  0  0  0  0  0  0  0  0  0  0  0
   -1.1088   -3.6980   -0.5783 H   0  0  0  0  0  0  0  0  0  0  0  0
   -3.3562   -2.6171   -0.6281 H   0  0  0  0  0  0  0  0  0  0  0  0
   -4.6465   -0.5708   -1.1280 H   0  0  0  0  0  0  0  0  0  0  0  0
   -2.0902    0.7889    2.3694 H   0  0  0  0  0  0  0  0  0  0  0  0
   -1.6718   -0.6666    4.3464 H   0  0  0  0  0  0  0  0  0  0  0  0
   -5.4847   -2.5522    3.8102 H   0  0  0  0  0  0  0  0  0  0  0  0
   -5.9401   -1.1141    1.8271 H   0  0  0  0  0  0  0  0  0  0  0  0
   -1.5176    1.2863   -0.8999 H   0  0  0  0  0  0  0  0  0  0  0  0
  1  2  1  0
  2  3  1  0
  3  4  1  0
  4  5  1  0
  5  6  1  0
  6  7  2  0
  6  8  1  0
  8  9  2  0
  9 10  1  0
  9 11  1  0
 11 12  1  0
 12 13  2  0
 13 14  1  0
 14 15  2  0
 15 16  1  0
 16 17  1  0
 17 18  2  0
 17 19  2  0
 17 20  1  0
 20 21  2  0
 21 22  1  0
 22 23  2  0
 23 24  1  0
 23 25  1  0
 25 26  2  0
 15 27  1  0
 27 28  2  0
 28  8  1  0
 28 12  1  0
 26 20  1  0
  1 29  1  0
  1 30  1  0
  1 31  1  0
  3 32  1  0
  3 33  1  0
  4 34  1  0
  4 35  1  0
 10 36  1  0
 10 37  1  0
 10 38  1  0
 13 39  1  0
 14 40  1  0
 16 41  1  0
 21 42  1  0
 22 43  1  0
 25 44  1  0
 26 45  1  0
 27 46  1  0
M  END
$$$$
