
     RDKit          3D

 52 53  0  0  0  0  0  0  0  0999 V2000
    4.3873    1.6370    0.6429 C   0  0  0  0  0  0  0  0  0  0  0  0
    4.4306    0.1040    0.5553 C   0  0  0  0  0  0  0  0  0  0  0  0
    5.4918   -0.2812   -0.4992 C   0  0  0  0  0  0  0  0  0  0  0  0
    4.9496   -0.4199    1.9189 C   0  0  0  0  0  0  0  0  0  0  0  0
    3.0399   -0.5758    0.2348 C   0  0  0  0  0  0  0  0  0  0  0  0
    1.8716   -0.1688    1.1635 C   0  0  0  0  0  0  0  0  0  0  0  0
    1.0877    1.0705    0.7219 C   0  0  0  0  0  0  0  0  0  0  0  0
    0.6316    0.9955   -0.7345 C   0  0  0  0  0  0  0  0  0  0  0  0
   -0.3291   -0.0737   -0.8972 O   0  0  0  0  0  0  0  0  0  0  0  0
   -1.6200    0.2127   -0.5803 C   0  0  0  0  0  0  0  0  0  0  0  0
   -2.0346    1.2906   -0.1786 O   0  0  0  0  0  0  0  0  0  0  0  0
   -2.4847   -1.0287   -0.7939 C   0  0  0  0  0  0  0  0  0  0  0  0
   -4.0182   -0.8879   -0.5107 N   0  0  0  0  0  4  0  0  0  0  0  0
   -4.6640   -2.2539   -0.7131 C   0  0  0  0  0  0  0  0  0  0  0  0
   -4.2991   -0.3803    0.9236 C   0  0  0  0  0  0  0  0  0  0  0  0
   -5.0583    0.9257    0.7572 C   0  0  0  0  0  0  0  0  0  0  0  0
   -5.7350    0.8001   -0.5896 C   0  0  0  0  0  0  0  0  0  0  0  0
   -4.6726    0.1441   -1.4470 C   0  0  0  0  0  0  0  0  0  0  0  0
    1.8130    0.7030   -1.6577 C   0  0  0  0  0  0  0  0  0  0  0  0
    2.5744   -0.5520   -1.2392 C   0  0  0  0  0  0  0  0  0  0  0  0
    5.3919    2.0458    0.8078 H   0  0  0  0  0  0  0  0  0  0  0  0
    3.7748    1.9779    1.4826 H   0  0  0  0  0  0  0  0  0  0  0  0
    4.0096    2.0911   -0.2750 H   0  0  0  0  0  0  0  0  0  0  0  0
    5.5202   -1.3652   -0.6552 H   0  0  0  0  0  0  0  0  0  0  0  0
    6.4951    0.0316   -0.1861 H   0  0  0  0  0  0  0  0  0  0  0  0
    5.3004    0.2032   -1.4624 H   0  0  0  0  0  0  0  0  0  0  0  0
    4.3027   -0.1201    2.7487 H   0  0  0  0  0  0  0  0  0  0  0  0
    5.0189   -1.5135    1.9229 H   0  0  0  0  0  0  0  0  0  0  0  0
    5.9501   -0.0282    2.1382 H   0  0  0  0  0  0  0  0  0  0  0  0
    3.2135   -1.6438    0.4426 H   0  0  0  0  0  0  0  0  0  0  0  0
    2.2095   -0.0312    2.1948 H   0  0  0  0  0  0  0  0  0  0  0  0
    1.1673   -1.0116    1.1996 H   0  0  0  0  0  0  0  0  0  0  0  0
    0.2186    1.1726    1.3824 H   0  0  0  0  0  0  0  0  0  0  0  0
    1.6883    1.9731    0.8615 H   0  0  0  0  0  0  0  0  0  0  0  0
    0.1765    1.9452   -1.0416 H   0  0  0  0  0  0  0  0  0  0  0  0
   -2.4009   -1.3430   -1.8398 H   0  0  0  0  0  0  0  0  0  0  0  0
   -2.1270   -1.8193   -0.1254 H   0  0  0  0  0  0  0  0  0  0  0  0
   -5.7411   -2.1621   -0.5463 H   0  0  0  0  0  0  0  0  0  0  0  0
   -4.2231   -2.9517    0.0049 H   0  0  0  0  0  0  0  0  0  0  0  0
   -4.4634   -2.5821   -1.7372 H   0  0  0  0  0  0  0  0  0  0  0  0
   -4.9179   -1.1287    1.4308 H   0  0  0  0  0  0  0  0  0  0  0  0
   -3.3599   -0.2702    1.4729 H   0  0  0  0  0  0  0  0  0  0  0  0
   -5.7748    1.0869    1.5682 H   0  0  0  0  0  0  0  0  0  0  0  0
   -4.3674    1.7755    0.7581 H   0  0  0  0  0  0  0  0  0  0  0  0
   -6.6219    0.1604   -0.5154 H   0  0  0  0  0  0  0  0  0  0  0  0
   -6.0486    1.7682   -0.9903 H   0  0  0  0  0  0  0  0  0  0  0  0
   -3.9153    0.8663   -1.7633 H   0  0  0  0  0  0  0  0  0  0  0  0
   -5.0750   -0.3657   -2.3278 H   0  0  0  0  0  0  0  0  0  0  0  0
    2.4874    1.5631   -1.6885 H   0  0  0  0  0  0  0  0  0  0  0  0
    1.4444    0.5535   -2.6802 H   0  0  0  0  0  0  0  0  0  0  0  0
    3.4007   -0.7277   -1.9331 H   0  0  0  0  0  0  0  0  0  0  0  0
    1.9046   -1.4115   -1.3855 H   0  0  0  0  0  0  0  0  0  0  0  0
  1  2  1  0
  2  3  1  0
  2  4  1  0
  2  5  1  0
  5  6  1  0
  6  7  1  0
  7  8  1  0
  8  9  1  0
  9 10  1  0
 10 11  2  0
 10 12  1  0
 12 13  1  0
 13 14  1  0
 13 15  1  0
 15 16  1  0
 16 17  1  0
 17 18  1  0
  8 19  1  0
 19 20  1  0
 20  5  1  0
 18 13  1  0
  1 21  1  0
  1 22  1  0
  1 23  1  0
  3 24  1  0
  3 25  1  0
  3 26  1  0
  4 27  1  0
  4 28  1  0
  4 29  1  0
  5 30  1  0
  6 31  1  0
  6 32  1  0
  7 33  1  0
  7 34  1  0
  8 35  1  0
 12 36  1  0
 12 37  1  0
 14 38  1  0
 14 39  1  0
 14 40  1  0
 15 41  1  0
 15 42  1  0
 16 43  1  0
 16 44  1  0
 17 45  1  0
 17 46  1  0
 18 47  1  0
 18 48  1  0
 19 49  1  0
 19 50  1  0
 20 51  1  0
 20 52  1  0
M  CHG  1  13   1
M  END
$$$$
