
     RDKit          3D

 36 38  0  0  0  0  0  0  0  0999 V2000
   -0.3374    3.7161    2.3584 N   0  0  0  0  0  0  0  0  0  0  0  0
   -0.3356    2.9131    1.5182 C   0  0  0  0  0  0  0  0  0  0  0  0
   -0.3598    1.9265    0.4896 C   0  0  0  0  0  0  0  0  0  0  0  0
    0.5930    1.9397   -0.5091 N   0  0  0  0  0  0  0  0  0  0  0  0
    0.2746    0.8931   -1.2434 C   0  0  0  0  0  0  0  0  0  0  0  0
    0.9421    0.3735   -2.4675 C   0  0  0  0  0  0  0  0  0  0  0  0
    1.5576   -0.8824   -2.1697 O   0  0  0  0  0  0  0  0  0  0  0  0
    2.8682   -0.9063   -1.7729 C   0  0  0  0  0  0  0  0  0  0  0  0
    3.5729    0.1994   -1.2863 C   0  0  0  0  0  0  0  0  0  0  0  0
    4.9078    0.0672   -0.8874 C   0  0  0  0  0  0  0  0  0  0  0  0
    5.5421   -1.1701   -0.9670 C   0  0  0  0  0  0  0  0  0  0  0  0
    7.1830   -1.3217   -0.4746 Cl  0  0  0  0  0  0  0  0  0  0  0  0
    4.8553   -2.2834   -1.4375 C   0  0  0  0  0  0  0  0  0  0  0  0
    3.5225   -2.1503   -1.8341 C   0  0  0  0  0  0  0  0  0  0  0  0
    2.7086   -3.5635   -2.4132 Cl  0  0  0  0  0  0  0  0  0  0  0  0
   -0.8282    0.2137   -0.8099 O   0  0  0  0  0  0  0  0  0  0  0  0
   -1.2489    0.8773    0.3179 C   0  0  0  0  0  0  0  0  0  0  0  0
   -2.3449    0.3687    0.9586 N   0  0  0  0  0  0  0  0  0  0  0  0
   -3.1323    1.2447    1.8512 C   0  0  0  0  0  0  0  0  0  0  0  0
   -4.1137    0.4268    2.7054 C   0  0  0  0  0  0  0  0  0  0  0  0
   -4.9560   -0.4031    1.8952 O   0  0  0  0  0  0  0  0  0  0  0  0
   -4.1509   -1.3296    1.1538 C   0  0  0  0  0  0  0  0  0  0  0  0
   -3.1829   -0.6005    0.2126 C   0  0  0  0  0  0  0  0  0  0  0  0
    1.6447    1.0941   -2.9004 H   0  0  0  0  0  0  0  0  0  0  0  0
    0.1815    0.1838   -3.2331 H   0  0  0  0  0  0  0  0  0  0  0  0
    3.1153    1.1787   -1.1822 H   0  0  0  0  0  0  0  0  0  0  0  0
    5.4427    0.9350   -0.5078 H   0  0  0  0  0  0  0  0  0  0  0  0
    5.3504   -3.2488   -1.4942 H   0  0  0  0  0  0  0  0  0  0  0  0
   -3.6908    1.9630    1.2385 H   0  0  0  0  0  0  0  0  0  0  0  0
   -2.4869    1.7978    2.5382 H   0  0  0  0  0  0  0  0  0  0  0  0
   -4.7602    1.1022    3.2744 H   0  0  0  0  0  0  0  0  0  0  0  0
   -3.5762   -0.2027    3.4250 H   0  0  0  0  0  0  0  0  0  0  0  0
   -3.6078   -1.9749    1.8548 H   0  0  0  0  0  0  0  0  0  0  0  0
   -4.8259   -1.9650    0.5718 H   0  0  0  0  0  0  0  0  0  0  0  0
   -2.5687   -1.3568   -0.2899 H   0  0  0  0  0  0  0  0  0  0  0  0
   -3.7550   -0.0555   -0.5488 H   0  0  0  0  0  0  0  0  0  0  0  0
  1  2  3  0
  2  3  1  0
  3  4  1  0
  4  5  2  0
  5  6  1  0
  6  7  1  0
  7  8  1  0
  8  9  2  0
  9 10  1  0
 10 11  2  0
 11 12  1  0
 11 13  1  0
 13 14  2  0
 14 15  1  0
  5 16  1  0
 16 17  1  0
 17 18  1  0
 18 19  1  0
 19 20  1  0
 20 21  1  0
 21 22  1  0
 22 23  1  0
 17  3  2  0
 23 18  1  0
 14  8  1  0
  6 24  1  0
  6 25  1  0
  9 26  1  0
 10 27  1  0
 13 28  1  0
 19 29  1  0
 19 30  1  0
 20 31  1  0
 20 32  1  0
 22 33  1  0
 22 34  1  0
 23 35  1  0
 23 36  1  0
M  END
$$$$
