
     RDKit          3D

 35 38  0  0  0  0  0  0  0  0999 V2000
    0.0793    1.6282    2.2845 O   0  0  0  0  0  0  0  0  0  0  0  0
   -0.3383    0.9110    1.0218 P   0  0  0  0  0  5  0  0  0  0  0  0
   -0.5649    1.7646   -0.3631 N   0  0  0  0  0  0  0  0  0  0  0  0
   -1.6240    2.5835   -0.4019 C   0  0  0  0  0  0  0  0  0  0  0  0
   -2.6767    2.4926    0.3760 N   0  0  0  0  0  0  0  0  0  0  0  0
   -3.5860    3.4853    0.0713 C   0  0  0  0  0  0  0  0  0  0  0  0
   -3.2223    4.3257   -0.9560 C   0  0  0  0  0  0  0  0  0  0  0  0
   -1.6906    3.8582   -1.5611 S   0  0  0  0  0  0  0  0  0  0  0  0
   -1.3905   -0.5120    1.2304 C   0  0  0  0  0  0  0  0  0  0  0  0
   -1.9621   -1.1625    0.1262 C   0  0  0  0  0  0  0  0  0  0  0  0
   -2.7763   -2.2816    0.3051 C   0  0  0  0  0  0  0  0  0  0  0  0
   -3.0315   -2.7601    1.5889 C   0  0  0  0  0  0  0  0  0  0  0  0
   -2.4771   -2.1192    2.6951 C   0  0  0  0  0  0  0  0  0  0  0  0
   -1.6630   -1.0003    2.5170 C   0  0  0  0  0  0  0  0  0  0  0  0
    1.1363    0.1636    0.2919 C   0  0  0  0  0  0  0  0  0  0  0  0
    1.6531    0.5449   -0.8669 N   0  0  0  0  0  0  0  0  0  0  0  0
    2.7905   -0.1985   -1.1353 C   0  0  0  0  0  0  0  0  0  0  0  0
    3.5979   -0.0827   -2.2853 C   0  0  0  0  0  0  0  0  0  0  0  0
    4.7246   -0.8989   -2.4306 C   0  0  0  0  0  0  0  0  0  0  0  0
    5.0550   -1.8249   -1.4465 C   0  0  0  0  0  0  0  0  0  0  0  0
    4.2715   -1.9587   -0.2961 C   0  0  0  0  0  0  0  0  0  0  0  0
    3.1417   -1.1346   -0.1604 C   0  0  0  0  0  0  0  0  0  0  0  0
    2.0013   -1.0647    1.1265 S   0  0  0  0  0  0  0  0  0  0  0  0
    0.2554    2.0153   -0.9048 H   0  0  0  0  0  0  0  0  0  0  0  0
   -4.5084    3.5495    0.6357 H   0  0  0  0  0  0  0  0  0  0  0  0
   -3.7660    5.1638   -1.3669 H   0  0  0  0  0  0  0  0  0  0  0  0
   -1.7757   -0.7935   -0.8805 H   0  0  0  0  0  0  0  0  0  0  0  0
   -3.2152   -2.7777   -0.5569 H   0  0  0  0  0  0  0  0  0  0  0  0
   -3.6681   -3.6301    1.7280 H   0  0  0  0  0  0  0  0  0  0  0  0
   -2.6817   -2.4877    3.6971 H   0  0  0  0  0  0  0  0  0  0  0  0
   -1.2382   -0.4997    3.3862 H   0  0  0  0  0  0  0  0  0  0  0  0
    3.3390    0.6411   -3.0516 H   0  0  0  0  0  0  0  0  0  0  0  0
    5.3448   -0.8061   -3.3191 H   0  0  0  0  0  0  0  0  0  0  0  0
    5.9348   -2.4532   -1.5709 H   0  0  0  0  0  0  0  0  0  0  0  0
    4.5317   -2.6805    0.4723 H   0  0  0  0  0  0  0  0  0  0  0  0
  1  2  2  0
  2  3  1  0
  3  4  1  0
  4  5  2  0
  5  6  1  0
  6  7  2  0
  7  8  1  0
  2  9  1  0
  9 10  2  0
 10 11  1  0
 11 12  2  0
 12 13  1  0
 13 14  2  0
  2 15  1  0
 15 16  2  0
 16 17  1  0
 17 18  2  0
 18 19  1  0
 19 20  2  0
 20 21  1  0
 21 22  2  0
 22 23  1  0
  8  4  1  0
 14  9  1  0
 23 15  1  0
 22 17  1  0
  3 24  1  0
  6 25  1  0
  7 26  1  0
 10 27  1  0
 11 28  1  0
 12 29  1  0
 13 30  1  0
 14 31  1  0
 18 32  1  0
 19 33  1  0
 20 34  1  0
 21 35  1  0
M  END
$$$$
