
     RDKit          3D

 62 66  0  0  0  0  0  0  0  0999 V2000
   -4.5972   -4.3642   -2.1419 C   0  0  0  0  0  0  0  0  0  0  0  0
   -3.5127   -4.8385   -1.3541 O   0  0  0  0  0  0  0  0  0  0  0  0
   -2.9848   -3.9688   -0.4392 C   0  0  0  0  0  0  0  0  0  0  0  0
   -1.9392   -4.4922    0.3252 C   0  0  0  0  0  0  0  0  0  0  0  0
   -1.3070   -3.7131    1.2934 C   0  0  0  0  0  0  0  0  0  0  0  0
   -1.7198   -2.3984    1.5038 C   0  0  0  0  0  0  0  0  0  0  0  0
   -2.7664   -1.8553    0.7471 C   0  0  0  0  0  0  0  0  0  0  0  0
   -3.1822   -0.4612    0.9561 C   0  0  0  0  0  0  0  0  0  0  0  0
   -4.7722   -0.1631    1.5153 S   0  0  0  0  0  0  0  0  0  0  0  0
   -4.5426    1.5373    1.5448 C   0  0  0  0  0  0  0  0  0  0  0  0
   -5.4875    2.5102    1.9241 C   0  0  0  0  0  0  0  0  0  0  0  0
   -5.1324    3.8634    1.8825 C   0  0  0  0  0  0  0  0  0  0  0  0
   -3.8643    4.2489    1.4709 C   0  0  0  0  0  0  0  0  0  0  0  0
   -3.4007    5.5334    1.3859 O   0  0  0  0  0  0  0  0  0  0  0  0
   -4.3100    6.5714    1.7284 C   0  0  0  0  0  0  0  0  0  0  0  0
   -2.9341    3.2710    1.0985 C   0  0  0  0  0  0  0  0  0  0  0  0
   -3.2571    1.8882    1.1328 C   0  0  0  0  0  0  0  0  0  0  0  0
   -2.4703    0.7194    0.7973 C   0  0  0  0  0  0  0  0  0  0  0  0
   -1.0834    0.7281    0.3379 C   0  0  0  0  0  0  0  0  0  0  0  0
   -0.0688    1.1823    1.1856 C   0  0  0  0  0  0  0  0  0  0  0  0
    1.2583    1.1836    0.7493 C   0  0  0  0  0  0  0  0  0  0  0  0
    1.5891    0.7313   -0.5306 C   0  0  0  0  0  0  0  0  0  0  0  0
    2.9229    0.7813   -0.8256 O   0  0  0  0  0  0  0  0  0  0  0  0
    3.3348    0.2143   -2.0733 C   0  0  0  0  0  0  0  0  0  0  0  0
    4.8698    0.2754   -2.1837 C   0  0  0  0  0  0  0  0  0  0  0  0
    5.5616   -0.8227   -1.4894 N   0  0  0  0  0  0  0  0  0  0  0  0
    7.0117   -0.7657   -1.6829 C   0  0  0  0  0  0  0  0  0  0  0  0
    7.5162   -1.7580   -0.6503 C   0  0  0  0  0  0  0  0  0  0  0  0
    6.5175   -1.6603    0.4967 C   0  0  0  0  0  0  0  0  0  0  0  0
    5.3724   -0.8054   -0.0359 C   0  0  0  0  0  0  0  0  0  0  0  0
    0.5763    0.2873   -1.3809 C   0  0  0  0  0  0  0  0  0  0  0  0
   -0.7552    0.2880   -0.9493 C   0  0  0  0  0  0  0  0  0  0  0  0
   -3.3945   -2.6506   -0.2272 C   0  0  0  0  0  0  0  0  0  0  0  0
   -4.2896   -3.5209   -2.7692 H   0  0  0  0  0  0  0  0  0  0  0  0
   -4.9078   -5.1765   -2.8060 H   0  0  0  0  0  0  0  0  0  0  0  0
   -5.4553   -4.0997   -1.5151 H   0  0  0  0  0  0  0  0  0  0  0  0
   -1.6141   -5.5172    0.1627 H   0  0  0  0  0  0  0  0  0  0  0  0
   -0.4928   -4.1295    1.8805 H   0  0  0  0  0  0  0  0  0  0  0  0
   -1.2182   -1.7986    2.2601 H   0  0  0  0  0  0  0  0  0  0  0  0
   -6.4830    2.2155    2.2453 H   0  0  0  0  0  0  0  0  0  0  0  0
   -5.8818    4.5893    2.1808 H   0  0  0  0  0  0  0  0  0  0  0  0
   -3.7907    7.5259    1.6001 H   0  0  0  0  0  0  0  0  0  0  0  0
   -4.6170    6.4977    2.7771 H   0  0  0  0  0  0  0  0  0  0  0  0
   -5.1779    6.5719    1.0608 H   0  0  0  0  0  0  0  0  0  0  0  0
   -1.9442    3.5828    0.7721 H   0  0  0  0  0  0  0  0  0  0  0  0
   -0.3000    1.5308    2.1894 H   0  0  0  0  0  0  0  0  0  0  0  0
    2.0427    1.5351    1.4149 H   0  0  0  0  0  0  0  0  0  0  0  0
    2.9950   -0.8252   -2.1657 H   0  0  0  0  0  0  0  0  0  0  0  0
    2.9107    0.8104   -2.8911 H   0  0  0  0  0  0  0  0  0  0  0  0
    5.2286    1.2487   -1.8240 H   0  0  0  0  0  0  0  0  0  0  0  0
    5.1205    0.2009   -3.2495 H   0  0  0  0  0  0  0  0  0  0  0  0
    7.4121    0.2340   -1.4708 H   0  0  0  0  0  0  0  0  0  0  0  0
    7.3062   -1.0561   -2.6962 H   0  0  0  0  0  0  0  0  0  0  0  0
    8.5372   -1.5329   -0.3268 H   0  0  0  0  0  0  0  0  0  0  0  0
    7.5095   -2.7754   -1.0610 H   0  0  0  0  0  0  0  0  0  0  0  0
    6.1715   -2.6598    0.7840 H   0  0  0  0  0  0  0  0  0  0  0  0
    6.9715   -1.1952    1.3788 H   0  0  0  0  0  0  0  0  0  0  0  0
    4.4043   -1.2225    0.2598 H   0  0  0  0  0  0  0  0  0  0  0  0
    5.4567    0.2101    0.3727 H   0  0  0  0  0  0  0  0  0  0  0  0
    0.7847   -0.0663   -2.3849 H   0  0  0  0  0  0  0  0  0  0  0  0
   -1.5315   -0.0618   -1.6261 H   0  0  0  0  0  0  0  0  0  0  0  0
   -4.1958   -2.2129   -0.8137 H   0  0  0  0  0  0  0  0  0  0  0  0
  1  2  1  0
  2  3  1  0
  3  4  2  0
  4  5  1  0
  5  6  2  0
  6  7  1  0
  7  8  1  0
  8  9  1  0
  9 10  1  0
 10 11  2  0
 11 12  1  0
 12 13  2  0
 13 14  1  0
 14 15  1  0
 13 16  1  0
 16 17  2  0
 17 18  1  0
 18 19  1  0
 19 20  2  0
 20 21  1  0
 21 22  2  0
 22 23  1  0
 23 24  1  0
 24 25  1  0
 25 26  1  0
 26 27  1  0
 27 28  1  0
 28 29  1  0
 29 30  1  0
 22 31  1  0
 31 32  2  0
  7 33  2  0
 33  3  1  0
 18  8  2  0
 32 19  1  0
 17 10  1  0
 30 26  1  0
  1 34  1  0
  1 35  1  0
  1 36  1  0
  4 37  1  0
  5 38  1  0
  6 39  1  0
 11 40  1  0
 12 41  1  0
 15 42  1  0
 15 43  1  0
 15 44  1  0
 16 45  1  0
 20 46  1  0
 21 47  1  0
 24 48  1  0
 24 49  1  0
 25 50  1  0
 25 51  1  0
 27 52  1  0
 27 53  1  0
 28 54  1  0
 28 55  1  0
 29 56  1  0
 29 57  1  0
 30 58  1  0
 30 59  1  0
 31 60  1  0
 32 61  1  0
 33 62  1  0
M  END
$$$$
