
     RDKit          3D

 53 56  0  0  0  0  0  0  0  0999 V2000
    2.6765   -3.0366   -5.2985 C   0  0  0  0  0  0  0  0  0  0  0  0
    2.6557   -2.0564   -4.2689 O   0  0  0  0  0  0  0  0  0  0  0  0
    1.4289   -1.6716   -3.8052 C   0  0  0  0  0  0  0  0  0  0  0  0
    0.1978   -2.1389   -4.2534 C   0  0  0  0  0  0  0  0  0  0  0  0
   -0.9892   -1.6501   -3.6927 C   0  0  0  0  0  0  0  0  0  0  0  0
   -0.9618   -0.6892   -2.6757 C   0  0  0  0  0  0  0  0  0  0  0  0
   -2.0801   -0.1571   -2.0893 O   0  0  0  0  0  0  0  0  0  0  0  0
   -3.3313   -0.4198   -2.7121 C   0  0  0  0  0  0  0  0  0  0  0  0
    0.2772   -0.2249   -2.2011 C   0  0  0  0  0  0  0  0  0  0  0  0
    0.3843    0.8038   -1.0955 C   0  0  0  0  0  0  0  0  0  0  0  0
    0.9833    0.2238    0.1202 N   0  0  0  0  0  0  0  0  0  0  0  0
    0.9445    1.1520    1.2118 N   0  0  0  0  0  0  0  0  0  0  0  0
    0.2143    0.8511    2.3674 C   0  0  0  0  0  0  0  0  0  0  0  0
   -0.5849   -0.4004    2.4273 C   0  0  0  0  0  0  0  0  0  0  0  0
   -0.3040   -1.3131    3.4500 C   0  0  0  0  0  0  0  0  0  0  0  0
   -1.0443   -2.4896    3.5541 C   0  0  0  0  0  0  0  0  0  0  0  0
   -2.0756   -2.7469    2.6492 C   0  0  0  0  0  0  0  0  0  0  0  0
   -2.3896   -1.8216    1.6450 C   0  0  0  0  0  0  0  0  0  0  0  0
   -3.4811   -2.1118    0.6589 C   0  0  0  0  0  0  0  0  0  0  0  0
   -1.6346   -0.6454    1.5371 C   0  0  0  0  0  0  0  0  0  0  0  0
    0.2295    1.6074    3.4244 N   0  0  0  0  0  0  0  0  0  0  0  0
    0.9948    2.7796    3.4040 C   0  0  0  0  0  0  0  0  0  0  0  0
    0.9426    3.6332    4.5086 C   0  0  0  0  0  0  0  0  0  0  0  0
    1.7037    4.8053    4.5417 C   0  0  0  0  0  0  0  0  0  0  0  0
    2.5299    5.1331    3.4670 C   0  0  0  0  0  0  0  0  0  0  0  0
    2.5925    4.2896    2.3588 C   0  0  0  0  0  0  0  0  0  0  0  0
    1.8211    3.1211    2.3352 C   0  0  0  0  0  0  0  0  0  0  0  0
    1.8623    2.2090    1.1807 C   0  0  0  0  0  0  0  0  0  0  0  0
    2.6878    2.3865    0.2850 O   0  0  0  0  0  0  0  0  0  0  0  0
    1.4608   -0.7186   -2.7862 C   0  0  0  0  0  0  0  0  0  0  0  0
    2.1802   -2.6695   -6.2029 H   0  0  0  0  0  0  0  0  0  0  0  0
    2.2322   -3.9775   -4.9573 H   0  0  0  0  0  0  0  0  0  0  0  0
    3.7228   -3.2349   -5.5504 H   0  0  0  0  0  0  0  0  0  0  0  0
    0.1206   -2.8830   -5.0389 H   0  0  0  0  0  0  0  0  0  0  0  0
   -1.9236   -2.0492   -4.0736 H   0  0  0  0  0  0  0  0  0  0  0  0
   -3.6016   -1.4765   -2.6190 H   0  0  0  0  0  0  0  0  0  0  0  0
   -4.0935    0.1643   -2.1874 H   0  0  0  0  0  0  0  0  0  0  0  0
   -3.3303   -0.1011   -3.7598 H   0  0  0  0  0  0  0  0  0  0  0  0
    0.9870    1.6396   -1.4722 H   0  0  0  0  0  0  0  0  0  0  0  0
   -0.5972    1.2285   -0.8599 H   0  0  0  0  0  0  0  0  0  0  0  0
    1.9729    0.0552   -0.0776 H   0  0  0  0  0  0  0  0  0  0  0  0
    0.4927   -1.1095    4.1610 H   0  0  0  0  0  0  0  0  0  0  0  0
   -0.8183   -3.2058    4.3395 H   0  0  0  0  0  0  0  0  0  0  0  0
   -2.6389   -3.6734    2.7365 H   0  0  0  0  0  0  0  0  0  0  0  0
   -3.0669   -2.6176   -0.2186 H   0  0  0  0  0  0  0  0  0  0  0  0
   -4.2514   -2.7507    1.1034 H   0  0  0  0  0  0  0  0  0  0  0  0
   -3.9729   -1.1872    0.3390 H   0  0  0  0  0  0  0  0  0  0  0  0
   -1.8697    0.0780    0.7621 H   0  0  0  0  0  0  0  0  0  0  0  0
    0.3036    3.3774    5.3503 H   0  0  0  0  0  0  0  0  0  0  0  0
    1.6522    5.4589    5.4091 H   0  0  0  0  0  0  0  0  0  0  0  0
    3.1246    6.0430    3.4937 H   0  0  0  0  0  0  0  0  0  0  0  0
    3.2370    4.5406    1.5194 H   0  0  0  0  0  0  0  0  0  0  0  0
    2.4274   -0.3531   -2.4439 H   0  0  0  0  0  0  0  0  0  0  0  0
  1  2  1  0
  2  3  1  0
  3  4  2  0
  4  5  1  0
  5  6  2  0
  6  7  1  0
  7  8  1  0
  6  9  1  0
  9 10  1  0
 10 11  1  0
 11 12  1  0
 12 13  1  0
 13 14  1  0
 14 15  2  0
 15 16  1  0
 16 17  2  0
 17 18  1  0
 18 19  1  0
 18 20  2  0
 13 21  2  0
 21 22  1  0
 22 23  2  0
 23 24  1  0
 24 25  2  0
 25 26  1  0
 26 27  2  0
 27 28  1  0
 28 29  2  0
  9 30  2  0
 30  3  1  0
 28 12  1  0
 20 14  1  0
 27 22  1  0
  1 31  1  0
  1 32  1  0
  1 33  1  0
  4 34  1  0
  5 35  1  0
  8 36  1  0
  8 37  1  0
  8 38  1  0
 10 39  1  0
 10 40  1  0
 11 41  1  0
 15 42  1  0
 16 43  1  0
 17 44  1  0
 19 45  1  0
 19 46  1  0
 19 47  1  0
 20 48  1  0
 23 49  1  0
 24 50  1  0
 25 51  1  0
 26 52  1  0
 30 53  1  0
M  END
$$$$
