
     RDKit          3D

 47 49  0  0  0  0  0  0  0  0999 V2000
    7.0477    2.6725   -1.8170 C   0  0  0  0  0  0  0  0  0  0  0  0
    5.6439    2.4503   -1.8472 O   0  0  0  0  0  0  0  0  0  0  0  0
    5.2016    1.2175   -1.4495 C   0  0  0  0  0  0  0  0  0  0  0  0
    5.9949    0.1936   -0.9337 C   0  0  0  0  0  0  0  0  0  0  0  0
    5.4080   -1.0088   -0.5373 C   0  0  0  0  0  0  0  0  0  0  0  0
    4.0303   -1.1929   -0.6648 C   0  0  0  0  0  0  0  0  0  0  0  0
    3.2263   -0.1857   -1.2088 C   0  0  0  0  0  0  0  0  0  0  0  0
    1.8374   -0.4303   -1.2718 N   0  0  0  0  0  0  0  0  0  0  0  0
    0.8514    0.1257   -2.0806 C   0  0  0  0  0  0  0  0  0  0  0  0
    1.1283    0.8190   -3.5871 S   0  0  0  0  0  0  0  0  0  0  0  0
   -0.4383   -0.0498   -1.5096 N   0  0  0  0  0  0  0  0  0  0  0  0
   -1.6566    0.2326   -2.2831 C   0  0  0  0  0  0  0  0  0  0  0  0
   -2.8309   -0.6183   -1.8041 C   0  0  0  0  0  0  0  0  0  0  0  0
   -3.0220   -0.5239   -0.3146 C   0  0  0  0  0  0  0  0  0  0  0  0
   -4.2643   -0.8418    0.2557 C   0  0  0  0  0  0  0  0  0  0  0  0
   -4.4521   -0.7849    1.6409 C   0  0  0  0  0  0  0  0  0  0  0  0
   -5.6342   -1.0737    2.2771 O   0  0  0  0  0  0  0  0  0  0  0  0
   -6.7444   -1.4426    1.4724 C   0  0  0  0  0  0  0  0  0  0  0  0
   -3.3785   -0.4106    2.4709 C   0  0  0  0  0  0  0  0  0  0  0  0
   -3.6418   -0.3748    3.8181 O   0  0  0  0  0  0  0  0  0  0  0  0
   -2.6017    0.0521    4.6852 C   0  0  0  0  0  0  0  0  0  0  0  0
   -2.1366   -0.1100    1.8993 C   0  0  0  0  0  0  0  0  0  0  0  0
   -1.9440   -0.1739    0.5083 C   0  0  0  0  0  0  0  0  0  0  0  0
   -0.5850    0.1660   -0.0603 C   0  0  0  0  0  0  0  0  0  0  0  0
    3.8198    1.0237   -1.5765 C   0  0  0  0  0  0  0  0  0  0  0  0
    7.2350    3.6800   -2.2009 H   0  0  0  0  0  0  0  0  0  0  0  0
    7.5750    1.9655   -2.4661 H   0  0  0  0  0  0  0  0  0  0  0  0
    7.4306    2.6306   -0.7921 H   0  0  0  0  0  0  0  0  0  0  0  0
    7.0677    0.3028   -0.8170 H   0  0  0  0  0  0  0  0  0  0  0  0
    6.0257   -1.8039   -0.1275 H   0  0  0  0  0  0  0  0  0  0  0  0
    3.5999   -2.1395   -0.3490 H   0  0  0  0  0  0  0  0  0  0  0  0
    1.5317   -1.2896   -0.8323 H   0  0  0  0  0  0  0  0  0  0  0  0
   -1.8759    1.3033   -2.1814 H   0  0  0  0  0  0  0  0  0  0  0  0
   -1.5013    0.0201   -3.3449 H   0  0  0  0  0  0  0  0  0  0  0  0
   -3.7393   -0.2955   -2.3258 H   0  0  0  0  0  0  0  0  0  0  0  0
   -2.6513   -1.6706   -2.0572 H   0  0  0  0  0  0  0  0  0  0  0  0
   -5.0728   -1.1322   -0.4075 H   0  0  0  0  0  0  0  0  0  0  0  0
   -7.0268   -0.6323    0.7923 H   0  0  0  0  0  0  0  0  0  0  0  0
   -7.5931   -1.6275    2.1380 H   0  0  0  0  0  0  0  0  0  0  0  0
   -6.5446   -2.3693    0.9245 H   0  0  0  0  0  0  0  0  0  0  0  0
   -1.7529   -0.6387    4.6524 H   0  0  0  0  0  0  0  0  0  0  0  0
   -2.2892    1.0760    4.4552 H   0  0  0  0  0  0  0  0  0  0  0  0
   -2.9943    0.0466    5.7066 H   0  0  0  0  0  0  0  0  0  0  0  0
   -1.2929    0.1764    2.5196 H   0  0  0  0  0  0  0  0  0  0  0  0
    0.1667   -0.4172    0.4806 H   0  0  0  0  0  0  0  0  0  0  0  0
   -0.3809    1.2287    0.1233 H   0  0  0  0  0  0  0  0  0  0  0  0
    3.2240    1.8551   -1.9398 H   0  0  0  0  0  0  0  0  0  0  0  0
  1  2  1  0
  2  3  1  0
  3  4  2  0
  4  5  1  0
  5  6  2  0
  6  7  1  0
  7  8  1  0
  8  9  1  0
  9 10  2  0
  9 11  1  0
 11 12  1  0
 12 13  1  0
 13 14  1  0
 14 15  2  0
 15 16  1  0
 16 17  1  0
 17 18  1  0
 16 19  2  0
 19 20  1  0
 20 21  1  0
 19 22  1  0
 22 23  2  0
 23 24  1  0
  7 25  2  0
 25  3  1  0
 24 11  1  0
 23 14  1  0
  1 26  1  0
  1 27  1  0
  1 28  1  0
  4 29  1  0
  5 30  1  0
  6 31  1  0
  8 32  1  0
 12 33  1  0
 12 34  1  0
 13 35  1  0
 13 36  1  0
 15 37  1  0
 18 38  1  0
 18 39  1  0
 18 40  1  0
 21 41  1  0
 21 42  1  0
 21 43  1  0
 22 44  1  0
 24 45  1  0
 24 46  1  0
 25 47  1  0
M  END
$$$$
