
     RDKit          3D

 46 49  0  0  0  0  0  0  0  0999 V2000
   -0.0542    1.5184    2.5153 O   0  0  0  0  0  0  0  0  0  0  0  0
   -0.3085    0.5513    1.8033 C   0  0  0  0  0  0  0  0  0  0  0  0
    0.5354    0.2449    0.6638 C   0  0  0  0  0  0  0  0  0  0  0  0
    1.3255   -0.8784    0.5166 C   0  0  0  0  0  0  0  0  0  0  0  0
    2.0082   -0.7435   -0.6665 N   0  0  0  0  0  0  0  0  0  0  0  0
    2.9367   -1.6519   -1.2502 C   0  0  0  0  0  0  0  0  0  0  0  0
    3.5254   -1.3366   -2.4852 C   0  0  0  0  0  0  0  0  0  0  0  0
    4.4370   -2.2138   -3.0767 C   0  0  0  0  0  0  0  0  0  0  0  0
    4.7677   -3.4089   -2.4422 C   0  0  0  0  0  0  0  0  0  0  0  0
    4.1884   -3.7295   -1.2156 C   0  0  0  0  0  0  0  0  0  0  0  0
    3.2745   -2.8566   -0.6171 C   0  0  0  0  0  0  0  0  0  0  0  0
    1.6945    0.4187   -1.2847 N   0  0  0  0  0  0  0  0  0  0  0  0
    0.8198    1.0421   -0.4789 C   0  0  0  0  0  0  0  0  0  0  0  0
    0.2893    2.3595   -0.8491 C   0  0  0  0  0  0  0  0  0  0  0  0
    1.1016    3.2644   -1.5554 C   0  0  0  0  0  0  0  0  0  0  0  0
    0.6180    4.5223   -1.9235 C   0  0  0  0  0  0  0  0  0  0  0  0
   -0.6820    4.8778   -1.5904 C   0  0  0  0  0  0  0  0  0  0  0  0
   -1.1491    6.0824   -1.9435 F   0  0  0  0  0  0  0  0  0  0  0  0
   -1.5074    3.9989   -0.9002 C   0  0  0  0  0  0  0  0  0  0  0  0
   -1.0244    2.7392   -0.5322 C   0  0  0  0  0  0  0  0  0  0  0  0
   -1.4122   -0.2796    2.0246 N   0  0  0  0  0  0  0  0  0  0  0  0
   -1.8651   -1.2973    1.0713 C   0  0  0  0  0  0  0  0  0  0  0  0
   -3.1172   -2.0335    1.5376 C   0  0  0  0  0  0  0  0  0  0  0  0
   -4.2423   -1.0667    1.9018 C   0  0  0  0  0  0  0  0  0  0  0  0
   -3.7463    0.1848    2.6313 C   0  0  0  0  0  0  0  0  0  0  0  0
   -2.3137    0.0357    3.1318 C   0  0  0  0  0  0  0  0  0  0  0  0
    1.4564   -1.7271    1.1694 H   0  0  0  0  0  0  0  0  0  0  0  0
    3.2833   -0.4087   -3.0007 H   0  0  0  0  0  0  0  0  0  0  0  0
    4.8883   -1.9611   -4.0329 H   0  0  0  0  0  0  0  0  0  0  0  0
    5.4785   -4.0900   -2.9035 H   0  0  0  0  0  0  0  0  0  0  0  0
    4.4508   -4.6624   -0.7223 H   0  0  0  0  0  0  0  0  0  0  0  0
    2.8522   -3.1478    0.3391 H   0  0  0  0  0  0  0  0  0  0  0  0
    2.1215    2.9902   -1.8195 H   0  0  0  0  0  0  0  0  0  0  0  0
    1.2473    5.2204   -2.4653 H   0  0  0  0  0  0  0  0  0  0  0  0
   -2.5211    4.2971   -0.6532 H   0  0  0  0  0  0  0  0  0  0  0  0
   -1.6941    2.0654   -0.0060 H   0  0  0  0  0  0  0  0  0  0  0  0
   -2.0574   -0.7968    0.1147 H   0  0  0  0  0  0  0  0  0  0  0  0
   -1.0623   -2.0233    0.9161 H   0  0  0  0  0  0  0  0  0  0  0  0
   -3.4581   -2.7297    0.7631 H   0  0  0  0  0  0  0  0  0  0  0  0
   -2.8706   -2.6417    2.4174 H   0  0  0  0  0  0  0  0  0  0  0  0
   -4.7750   -0.7597    0.9934 H   0  0  0  0  0  0  0  0  0  0  0  0
   -4.9769   -1.5930    2.5229 H   0  0  0  0  0  0  0  0  0  0  0  0
   -4.4166    0.4179    3.4663 H   0  0  0  0  0  0  0  0  0  0  0  0
   -3.7965    1.0376    1.9420 H   0  0  0  0  0  0  0  0  0  0  0  0
   -2.2412   -0.7820    3.8585 H   0  0  0  0  0  0  0  0  0  0  0  0
   -2.0079    0.9508    3.6483 H   0  0  0  0  0  0  0  0  0  0  0  0
  1  2  2  0
  2  3  1  0
  3  4  2  0
  4  5  1  0
  5  6  1  0
  6  7  2  0
  7  8  1  0
  8  9  2  0
  9 10  1  0
 10 11  2  0
  5 12  1  0
 12 13  2  0
 13 14  1  0
 14 15  2  0
 15 16  1  0
 16 17  2  0
 17 18  1  0
 17 19  1  0
 19 20  2  0
  2 21  1  0
 21 22  1  0
 22 23  1  0
 23 24  1  0
 24 25  1  0
 25 26  1  0
 13  3  1  0
 20 14  1  0
 26 21  1  0
 11  6  1  0
  4 27  1  0
  7 28  1  0
  8 29  1  0
  9 30  1  0
 10 31  1  0
 11 32  1  0
 15 33  1  0
 16 34  1  0
 19 35  1  0
 20 36  1  0
 22 37  1  0
 22 38  1  0
 23 39  1  0
 23 40  1  0
 24 41  1  0
 24 42  1  0
 25 43  1  0
 25 44  1  0
 26 45  1  0
 26 46  1  0
M  END
$$$$
