
     RDKit          3D

 58 60  0  0  0  0  0  0  0  0999 V2000
    7.7028    0.2644    1.3880 C   0  0  0  0  0  0  0  0  0  0  0  0
    6.9649    1.4401    2.0094 C   0  0  0  0  0  0  0  0  0  0  0  0
    5.5385    1.6023    1.4877 C   0  0  0  0  0  0  0  0  0  0  0  0
    5.4690    1.9914    0.0114 C   0  0  0  0  0  0  0  0  0  0  0  0
    4.1152    2.2286   -0.3798 O   0  0  0  0  0  0  0  0  0  0  0  0
    3.3619    1.1797   -0.8249 C   0  0  0  0  0  0  0  0  0  0  0  0
    3.7431   -0.1618   -0.8542 C   0  0  0  0  0  0  0  0  0  0  0  0
    2.8558   -1.1365   -1.3279 C   0  0  0  0  0  0  0  0  0  0  0  0
    1.5779   -0.7777   -1.7740 C   0  0  0  0  0  0  0  0  0  0  0  0
    0.6420   -1.8441   -2.2402 C   0  0  0  0  0  0  0  0  0  0  0  0
    1.0058   -3.0132   -2.2748 O   0  0  0  0  0  0  0  0  0  0  0  0
   -0.6102   -1.4309   -2.6071 N   0  0  0  0  0  0  0  0  0  0  0  0
   -1.6246   -1.9355   -1.9671 C   0  0  0  0  0  0  0  0  0  0  0  0
   -1.6145   -2.8966   -0.7934 C   0  0  0  0  0  0  0  0  0  0  0  0
   -2.3926   -2.3431    0.3814 C   0  0  0  0  0  0  0  0  0  0  0  0
   -1.8736   -1.2710    1.1246 C   0  0  0  0  0  0  0  0  0  0  0  0
   -2.6271   -0.6865    2.1439 C   0  0  0  0  0  0  0  0  0  0  0  0
   -3.9070   -1.1795    2.4243 C   0  0  0  0  0  0  0  0  0  0  0  0
   -4.7181   -0.5437    3.4688 N   0  0  0  0  0  4  0  0  0  0  0  0
   -4.2740    0.4846    4.0002 O   0  0  0  0  0  0  0  0  0  0  0  0
   -5.8011   -1.0711    3.7613 O   0  0  0  0  0  1  0  0  0  0  0  0
   -4.4276   -2.2632    1.7059 C   0  0  0  0  0  0  0  0  0  0  0  0
   -3.6686   -2.8408    0.6858 C   0  0  0  0  0  0  0  0  0  0  0  0
   -3.0067   -1.4954   -2.4072 C   0  0  0  0  0  0  0  0  0  0  0  0
   -3.7680   -2.2257   -3.0110 O   0  0  0  0  0  0  0  0  0  0  0  0
   -3.2165   -0.2474   -1.9516 O   0  0  0  0  0  0  0  0  0  0  0  0
   -4.5533    0.2169   -2.1308 C   0  0  0  0  0  0  0  0  0  0  0  0
   -4.7165    1.3503   -1.1877 C   0  0  0  0  0  0  0  0  0  0  0  0
   -4.4715    2.7051   -1.2827 C   0  0  0  0  0  0  0  0  0  0  0  0
   -4.8213    3.2628   -0.0299 C   0  0  0  0  0  0  0  0  0  0  0  0
   -5.2574    2.2164    0.7481 C   0  0  0  0  0  0  0  0  0  0  0  0
   -5.1951    1.0498    0.0556 O   0  0  0  0  0  0  0  0  0  0  0  0
    1.1956    0.5678   -1.7466 C   0  0  0  0  0  0  0  0  0  0  0  0
    2.0860    1.5355   -1.2725 C   0  0  0  0  0  0  0  0  0  0  0  0
    7.1400   -0.6660    1.5162 H   0  0  0  0  0  0  0  0  0  0  0  0
    8.6790    0.1388    1.8666 H   0  0  0  0  0  0  0  0  0  0  0  0
    7.8760    0.4186    0.3192 H   0  0  0  0  0  0  0  0  0  0  0  0
    7.5334    2.3618    1.8387 H   0  0  0  0  0  0  0  0  0  0  0  0
    6.9235    1.2902    3.0947 H   0  0  0  0  0  0  0  0  0  0  0  0
    4.9702    0.6825    1.6682 H   0  0  0  0  0  0  0  0  0  0  0  0
    5.0300    2.3760    2.0772 H   0  0  0  0  0  0  0  0  0  0  0  0
    5.9652    1.2771   -0.6541 H   0  0  0  0  0  0  0  0  0  0  0  0
    5.9963    2.9426   -0.1260 H   0  0  0  0  0  0  0  0  0  0  0  0
    4.7177   -0.4907   -0.5091 H   0  0  0  0  0  0  0  0  0  0  0  0
    3.1678   -2.1793   -1.3395 H   0  0  0  0  0  0  0  0  0  0  0  0
   -2.0479   -3.8454   -1.1309 H   0  0  0  0  0  0  0  0  0  0  0  0
   -0.6025   -3.1217   -0.4472 H   0  0  0  0  0  0  0  0  0  0  0  0
   -0.8876   -0.8661    0.8994 H   0  0  0  0  0  0  0  0  0  0  0  0
   -2.2136    0.1569    2.6930 H   0  0  0  0  0  0  0  0  0  0  0  0
   -5.4218   -2.6540    1.9141 H   0  0  0  0  0  0  0  0  0  0  0  0
   -4.0926   -3.6668    0.1162 H   0  0  0  0  0  0  0  0  0  0  0  0
   -5.2870   -0.5674   -1.9071 H   0  0  0  0  0  0  0  0  0  0  0  0
   -4.6829    0.5553   -3.1648 H   0  0  0  0  0  0  0  0  0  0  0  0
   -4.0844    3.2238   -2.1487 H   0  0  0  0  0  0  0  0  0  0  0  0
   -4.7635    4.2994    0.2723 H   0  0  0  0  0  0  0  0  0  0  0  0
   -5.6244    2.1425    1.7627 H   0  0  0  0  0  0  0  0  0  0  0  0
    0.2126    0.8796   -2.0905 H   0  0  0  0  0  0  0  0  0  0  0  0
    1.7832    2.5801   -1.2531 H   0  0  0  0  0  0  0  0  0  0  0  0
  1  2  1  0
  2  3  1  0
  3  4  1  0
  4  5  1  0
  5  6  1  0
  6  7  2  0
  7  8  1  0
  8  9  2  0
  9 10  1  0
 10 11  2  0
 10 12  1  0
 12 13  2  3
 13 14  1  0
 14 15  1  0
 15 16  2  0
 16 17  1  0
 17 18  2  0
 18 19  1  0
 19 20  2  0
 19 21  1  0
 18 22  1  0
 22 23  2  0
 13 24  1  0
 24 25  2  0
 24 26  1  0
 26 27  1  0
 27 28  1  0
 28 29  2  0
 29 30  1  0
 30 31  2  0
 31 32  1  0
  9 33  1  0
 33 34  2  0
 34  6  1  0
 23 15  1  0
 32 28  1  0
  1 35  1  0
  1 36  1  0
  1 37  1  0
  2 38  1  0
  2 39  1  0
  3 40  1  0
  3 41  1  0
  4 42  1  0
  4 43  1  0
  7 44  1  0
  8 45  1  0
 14 46  1  0
 14 47  1  0
 16 48  1  0
 17 49  1  0
 22 50  1  0
 23 51  1  0
 27 52  1  0
 27 53  1  0
 29 54  1  0
 30 55  1  0
 31 56  1  0
 33 57  1  0
 34 58  1  0
M  CHG  2  19   1  21  -1
M  END
$$$$
