
     RDKit          3D

 48 50  0  0  0  0  0  0  0  0999 V2000
    5.3477   -0.0863    0.5892 C   0  0  0  0  0  0  0  0  0  0  0  0
    4.4742   -0.3609   -0.5810 C   0  0  0  0  0  0  0  0  0  0  0  0
    4.7892   -0.1343   -1.9171 C   0  0  0  0  0  0  0  0  0  0  0  0
    5.9807    0.4023   -2.5259 C   0  0  0  0  0  0  0  0  0  0  0  0
    6.9970    0.7864   -1.9637 O   0  0  0  0  0  0  0  0  0  0  0  0
    5.8914    0.4589   -3.8738 O   0  0  0  0  0  0  0  0  0  0  0  0
    3.7391   -0.5120   -2.7106 O   0  0  0  0  0  0  0  0  0  0  0  0
    2.7571   -0.9785   -1.8989 C   0  0  0  0  0  0  0  0  0  0  0  0
    1.5236   -1.4645   -2.3303 C   0  0  0  0  0  0  0  0  0  0  0  0
    0.6397   -1.9010   -1.3387 C   0  0  0  0  0  0  0  0  0  0  0  0
    1.0004   -1.8334    0.0120 C   0  0  0  0  0  0  0  0  0  0  0  0
   -0.1367   -2.3965    1.2562 S   0  0  0  0  0  6  0  0  0  0  0  0
    0.6349   -3.0593    2.2839 O   0  0  0  0  0  0  0  0  0  0  0  0
   -1.2596   -3.0373    0.6100 O   0  0  0  0  0  0  0  0  0  0  0  0
   -0.6602   -0.9500    1.9172 N   0  0  0  0  0  0  0  0  0  0  0  0
   -1.6890   -0.1473    1.2302 C   0  0  0  0  0  0  0  0  0  0  0  0
   -1.3049    1.3269    1.4467 C   0  0  0  0  0  0  0  0  0  0  0  0
   -2.1039    2.3678    0.6566 C   0  0  0  0  0  0  0  0  0  0  0  0
   -3.5559    2.5339    1.1044 C   0  0  0  0  0  0  0  0  0  0  0  0
   -4.5974    1.8514    0.2174 C   0  0  0  0  0  0  0  0  0  0  0  0
   -4.2931    0.4418   -0.2796 C   0  0  0  0  0  0  0  0  0  0  0  0
   -4.1874   -0.6394    0.7914 C   0  0  0  0  0  0  0  0  0  0  0  0
   -3.0598   -0.5164    1.8182 C   0  0  0  0  0  0  0  0  0  0  0  0
    2.2559   -1.3495    0.4201 C   0  0  0  0  0  0  0  0  0  0  0  0
    3.1535   -0.9071   -0.5696 C   0  0  0  0  0  0  0  0  0  0  0  0
    6.2765   -0.6612    0.5168 H   0  0  0  0  0  0  0  0  0  0  0  0
    5.5997    0.9780    0.6373 H   0  0  0  0  0  0  0  0  0  0  0  0
    4.8588   -0.3573    1.5298 H   0  0  0  0  0  0  0  0  0  0  0  0
    6.7528    0.8320   -4.1465 H   0  0  0  0  0  0  0  0  0  0  0  0
    1.2720   -1.5029   -3.3837 H   0  0  0  0  0  0  0  0  0  0  0  0
   -0.3323   -2.2940   -1.6324 H   0  0  0  0  0  0  0  0  0  0  0  0
   -0.5671   -0.8895    2.9298 H   0  0  0  0  0  0  0  0  0  0  0  0
   -1.6422   -0.3673    0.1588 H   0  0  0  0  0  0  0  0  0  0  0  0
   -1.3477    1.5710    2.5168 H   0  0  0  0  0  0  0  0  0  0  0  0
   -0.2498    1.4497    1.1633 H   0  0  0  0  0  0  0  0  0  0  0  0
   -1.6017    3.3313    0.8187 H   0  0  0  0  0  0  0  0  0  0  0  0
   -2.0308    2.1777   -0.4197 H   0  0  0  0  0  0  0  0  0  0  0  0
   -3.6833    2.2340    2.1491 H   0  0  0  0  0  0  0  0  0  0  0  0
   -3.7921    3.6068    1.0943 H   0  0  0  0  0  0  0  0  0  0  0  0
   -5.5595    1.8515    0.7448 H   0  0  0  0  0  0  0  0  0  0  0  0
   -4.7449    2.4826   -0.6692 H   0  0  0  0  0  0  0  0  0  0  0  0
   -3.4019    0.4435   -0.9151 H   0  0  0  0  0  0  0  0  0  0  0  0
   -5.1132    0.1518   -0.9505 H   0  0  0  0  0  0  0  0  0  0  0  0
   -4.0645   -1.6001    0.2737 H   0  0  0  0  0  0  0  0  0  0  0  0
   -5.1413   -0.7105    1.3289 H   0  0  0  0  0  0  0  0  0  0  0  0
   -3.3461    0.1835    2.6098 H   0  0  0  0  0  0  0  0  0  0  0  0
   -3.0025   -1.4881    2.3284 H   0  0  0  0  0  0  0  0  0  0  0  0
    2.5244   -1.3184    1.4724 H   0  0  0  0  0  0  0  0  0  0  0  0
  1  2  1  0
  2  3  2  0
  3  4  1  0
  4  5  2  0
  4  6  1  0
  3  7  1  0
  7  8  1  0
  8  9  2  0
  9 10  1  0
 10 11  2  0
 11 12  1  0
 12 13  2  0
 12 14  2  0
 12 15  1  0
 15 16  1  0
 16 17  1  0
 17 18  1  0
 18 19  1  0
 19 20  1  0
 20 21  1  0
 21 22  1  0
 22 23  1  0
 11 24  1  0
 24 25  2  0
 25  2  1  0
 25  8  1  0
 23 16  1  0
  1 26  1  0
  1 27  1  0
  1 28  1  0
  6 29  1  0
  9 30  1  0
 10 31  1  0
 15 32  1  0
 16 33  1  0
 17 34  1  0
 17 35  1  0
 18 36  1  0
 18 37  1  0
 19 38  1  0
 19 39  1  0
 20 40  1  0
 20 41  1  0
 21 42  1  0
 21 43  1  0
 22 44  1  0
 22 45  1  0
 23 46  1  0
 23 47  1  0
 24 48  1  0
M  END
$$$$
