
     RDKit          3D

 35 36  0  0  0  0  0  0  0  0999 V2000
    2.8969   -1.8954   -1.3844 C   0  0  0  0  0  0  0  0  0  0  0  0
    2.1931   -0.9178   -0.6284 O   0  0  0  0  0  0  0  0  0  0  0  0
    2.9290   -0.1575    0.2518 C   0  0  0  0  0  0  0  0  0  0  0  0
    4.2985   -0.3095    0.4887 C   0  0  0  0  0  0  0  0  0  0  0  0
    4.9456    0.5158    1.4106 C   0  0  0  0  0  0  0  0  0  0  0  0
    4.2298    1.4923    2.0983 C   0  0  0  0  0  0  0  0  0  0  0  0
    2.8616    1.6514    1.8695 C   0  0  0  0  0  0  0  0  0  0  0  0
    2.2038    0.8332    0.9493 C   0  0  0  0  0  0  0  0  0  0  0  0
    0.8276    0.9350    0.6667 N   0  0  0  0  0  0  0  0  0  0  0  0
   -0.1120    1.7953    1.1990 C   0  0  0  0  0  0  0  0  0  0  0  0
    0.0875    2.6828    2.0230 O   0  0  0  0  0  0  0  0  0  0  0  0
   -1.5094    1.5644    0.6019 C   0  0  0  0  0  0  0  0  0  0  0  0
   -1.6739    0.1574    0.1824 N   0  0  0  0  0  0  0  0  0  0  0  0
   -2.8729   -0.2463   -0.4173 C   0  0  0  0  0  0  0  0  0  0  0  0
   -3.7498    0.6303   -1.0709 C   0  0  0  0  0  0  0  0  0  0  0  0
   -4.8943    0.1563   -1.7221 C   0  0  0  0  0  0  0  0  0  0  0  0
   -5.1575   -1.2068   -1.7515 C   0  0  0  0  0  0  0  0  0  0  0  0
   -6.2582   -1.6396   -2.3834 F   0  0  0  0  0  0  0  0  0  0  0  0
   -4.2828   -2.1006   -1.1464 C   0  0  0  0  0  0  0  0  0  0  0  0
   -4.5826   -3.7956   -1.1972 Cl  0  0  0  0  0  0  0  0  0  0  0  0
   -3.1420   -1.6233   -0.4956 C   0  0  0  0  0  0  0  0  0  0  0  0
    3.6624   -1.4320   -2.0155 H   0  0  0  0  0  0  0  0  0  0  0  0
    2.1765   -2.3887   -2.0441 H   0  0  0  0  0  0  0  0  0  0  0  0
    3.3292   -2.6615   -0.7325 H   0  0  0  0  0  0  0  0  0  0  0  0
    4.8913   -1.0591   -0.0240 H   0  0  0  0  0  0  0  0  0  0  0  0
    6.0108    0.3962    1.5933 H   0  0  0  0  0  0  0  0  0  0  0  0
    4.7342    2.1347    2.8161 H   0  0  0  0  0  0  0  0  0  0  0  0
    2.3366    2.4231    2.4232 H   0  0  0  0  0  0  0  0  0  0  0  0
    0.4804    0.2776   -0.0324 H   0  0  0  0  0  0  0  0  0  0  0  0
   -1.5993    2.2458   -0.2506 H   0  0  0  0  0  0  0  0  0  0  0  0
   -2.2540    1.8137    1.3656 H   0  0  0  0  0  0  0  0  0  0  0  0
   -1.4115   -0.4815    0.9357 H   0  0  0  0  0  0  0  0  0  0  0  0
   -3.5670    1.7006   -1.0923 H   0  0  0  0  0  0  0  0  0  0  0  0
   -5.5746    0.8444   -2.2146 H   0  0  0  0  0  0  0  0  0  0  0  0
   -2.4531   -2.3351   -0.0468 H   0  0  0  0  0  0  0  0  0  0  0  0
  1  2  1  0
  2  3  1  0
  3  4  2  0
  4  5  1  0
  5  6  2  0
  6  7  1  0
  7  8  2  0
  8  9  1  0
  9 10  1  0
 10 11  2  0
 10 12  1  0
 12 13  1  0
 13 14  1  0
 14 15  2  0
 15 16  1  0
 16 17  2  0
 17 18  1  0
 17 19  1  0
 19 20  1  0
 19 21  2  0
  8  3  1  0
 21 14  1  0
  1 22  1  0
  1 23  1  0
  1 24  1  0
  4 25  1  0
  5 26  1  0
  6 27  1  0
  7 28  1  0
  9 29  1  0
 12 30  1  0
 12 31  1  0
 13 32  1  0
 15 33  1  0
 16 34  1  0
 21 35  1  0
M  END
$$$$
