
     RDKit          3D

 42 44  0  0  0  0  0  0  0  0999 V2000
   -4.8689   -1.8862    1.3840 C   0  0  0  0  0  0  0  0  0  0  0  0
   -5.3323   -1.4377    0.0248 C   0  0  0  0  0  0  0  0  0  0  0  0
   -6.6365   -1.7343   -0.3991 C   0  0  0  0  0  0  0  0  0  0  0  0
   -7.0825   -1.3257   -1.6545 C   0  0  0  0  0  0  0  0  0  0  0  0
   -6.2299   -0.6175   -2.4959 C   0  0  0  0  0  0  0  0  0  0  0  0
   -4.9286   -0.3158   -2.0853 C   0  0  0  0  0  0  0  0  0  0  0  0
   -4.4714   -0.7220   -0.8275 C   0  0  0  0  0  0  0  0  0  0  0  0
   -3.2183   -0.4786   -0.3307 O   0  0  0  0  0  0  0  0  0  0  0  0
   -2.3089    0.2336   -1.1534 C   0  0  0  0  0  0  0  0  0  0  0  0
   -0.9609    0.4184   -0.4508 C   0  0  0  0  0  0  0  0  0  0  0  0
   -0.7224    0.0633    0.7005 O   0  0  0  0  0  0  0  0  0  0  0  0
   -0.0066    1.0332   -1.2441 N   0  0  0  0  0  0  0  0  0  0  0  0
    1.3327    1.2908   -0.7448 C   0  0  0  0  0  0  0  0  0  0  0  0
    2.1900    0.0263   -0.6896 C   0  0  0  0  0  0  0  0  0  0  0  0
    3.5046    0.3069   -0.0530 C   0  0  0  0  0  0  0  0  0  0  0  0
    4.5698    0.8155   -0.6367 N   0  0  0  0  0  0  0  0  0  0  0  0
    5.5241    0.8988    0.3486 C   0  0  0  0  0  0  0  0  0  0  0  0
    6.8448    1.3649    0.2823 C   0  0  0  0  0  0  0  0  0  0  0  0
    7.6227    1.3475    1.4473 C   0  0  0  0  0  0  0  0  0  0  0  0
    7.0958    0.8762    2.6527 C   0  0  0  0  0  0  0  0  0  0  0  0
    5.7794    0.4071    2.7380 C   0  0  0  0  0  0  0  0  0  0  0  0
    5.0276    0.4353    1.5617 C   0  0  0  0  0  0  0  0  0  0  0  0
    3.7386    0.0643    1.2791 N   0  0  0  0  0  0  0  0  0  0  0  0
   -5.6560   -2.4292    1.9179 H   0  0  0  0  0  0  0  0  0  0  0  0
   -4.5905   -1.0209    1.9943 H   0  0  0  0  0  0  0  0  0  0  0  0
   -4.0091   -2.5573    1.2891 H   0  0  0  0  0  0  0  0  0  0  0  0
   -7.3126   -2.2866    0.2496 H   0  0  0  0  0  0  0  0  0  0  0  0
   -8.0945   -1.5598   -1.9743 H   0  0  0  0  0  0  0  0  0  0  0  0
   -6.5782   -0.2982   -3.4748 H   0  0  0  0  0  0  0  0  0  0  0  0
   -4.3009    0.2386   -2.7739 H   0  0  0  0  0  0  0  0  0  0  0  0
   -2.6991    1.2347   -1.3730 H   0  0  0  0  0  0  0  0  0  0  0  0
   -2.1226   -0.3231   -2.0797 H   0  0  0  0  0  0  0  0  0  0  0  0
   -0.2119    1.2524   -2.2106 H   0  0  0  0  0  0  0  0  0  0  0  0
    1.7871    2.0387   -1.4044 H   0  0  0  0  0  0  0  0  0  0  0  0
    1.2424    1.7395    0.2521 H   0  0  0  0  0  0  0  0  0  0  0  0
    2.3500   -0.3548   -1.7055 H   0  0  0  0  0  0  0  0  0  0  0  0
    1.6748   -0.7714   -0.1415 H   0  0  0  0  0  0  0  0  0  0  0  0
    7.2461    1.7290   -0.6565 H   0  0  0  0  0  0  0  0  0  0  0  0
    8.6487    1.7058    1.4098 H   0  0  0  0  0  0  0  0  0  0  0  0
    7.7210    0.8735    3.5434 H   0  0  0  0  0  0  0  0  0  0  0  0
    5.3712    0.0414    3.6737 H   0  0  0  0  0  0  0  0  0  0  0  0
    3.0712   -0.3165    1.9354 H   0  0  0  0  0  0  0  0  0  0  0  0
  1  2  1  0
  2  3  2  0
  3  4  1  0
  4  5  2  0
  5  6  1  0
  6  7  2  0
  7  8  1  0
  8  9  1  0
  9 10  1  0
 10 11  2  0
 10 12  1  0
 12 13  1  0
 13 14  1  0
 14 15  1  0
 15 16  2  0
 16 17  1  0
 17 18  2  0
 18 19  1  0
 19 20  2  0
 20 21  1  0
 21 22  2  0
 22 23  1  0
  7  2  1  0
 23 15  1  0
 22 17  1  0
  1 24  1  0
  1 25  1  0
  1 26  1  0
  3 27  1  0
  4 28  1  0
  5 29  1  0
  6 30  1  0
  9 31  1  0
  9 32  1  0
 12 33  1  0
 13 34  1  0
 13 35  1  0
 14 36  1  0
 14 37  1  0
 18 38  1  0
 19 39  1  0
 20 40  1  0
 21 41  1  0
 23 42  1  0
M  END
$$$$
