
     RDKit          3D

 75 77  0  0  0  0  0  0  0  0999 V2000
    1.4717   -6.3665   -0.6721 C   0  0  0  0  0  0  0  0  0  0  0  0
    0.2308   -5.6220   -1.1277 C   0  0  0  0  0  0  0  0  0  0  0  0
    0.4726   -4.2170   -1.1687 O   0  0  0  0  0  0  0  0  0  0  0  0
    0.1908   -3.4634   -0.0638 C   0  0  0  0  0  0  0  0  0  0  0  0
   -0.1763   -3.9435    1.1929 C   0  0  0  0  0  0  0  0  0  0  0  0
   -0.4282   -3.0506    2.2381 C   0  0  0  0  0  0  0  0  0  0  0  0
   -0.3187   -1.6755    2.0311 C   0  0  0  0  0  0  0  0  0  0  0  0
    0.0365   -1.1810    0.7731 C   0  0  0  0  0  0  0  0  0  0  0  0
    0.1607    0.2268    0.5518 N   0  0  0  0  0  0  0  0  0  0  0  0
    1.0579    0.9231    1.3757 C   0  0  0  0  0  0  0  0  0  0  0  0
    1.8611    0.3619    2.1275 O   0  0  0  0  0  0  0  0  0  0  0  0
    1.0496    2.4458    1.2984 C   0  0  0  0  0  0  0  0  0  0  0  0
    2.1662    3.0467    2.1512 C   0  0  0  0  0  0  0  0  0  0  0  0
    3.5203    2.8185    1.4995 C   0  0  0  0  0  0  0  0  0  0  0  0
    3.6608    2.8989    0.2813 O   0  0  0  0  0  0  0  0  0  0  0  0
    4.5202    2.5842    2.4119 N   0  0  0  0  0  0  0  0  0  0  0  0
    5.8386    2.3362    2.0993 C   0  0  0  0  0  0  0  0  0  0  0  0
    6.4681    2.2881    0.8362 C   0  0  0  0  0  0  0  0  0  0  0  0
    7.7803    1.9945    1.1137 C   0  0  0  0  0  0  0  0  0  0  0  0
    8.9845    1.7862    0.2925 C   0  0  0  0  0  0  0  0  0  0  0  0
    7.9356    1.8852    2.4589 O   0  0  0  0  0  0  0  0  0  0  0  0
    6.7182    2.0972    3.0798 N   0  0  0  0  0  0  0  0  0  0  0  0
   -0.9522    0.9093   -0.1668 C   0  0  0  0  0  0  0  0  0  0  0  0
   -2.1395    1.2495    0.7941 C   0  0  0  0  0  0  0  0  0  0  0  0
   -2.0737    1.0968    2.0127 O   0  0  0  0  0  0  0  0  0  0  0  0
   -3.2322    1.8444    0.1792 N   0  0  0  0  0  0  0  0  0  0  0  0
   -4.4694    2.2469    0.8653 C   0  0  0  0  0  0  0  0  0  0  0  0
   -4.1869    3.3186    1.9286 C   0  0  0  0  0  0  0  0  0  0  0  0
   -5.4183    2.8516   -0.1856 C   0  0  0  0  0  0  0  0  0  0  0  0
   -5.1619    1.0336    1.5046 C   0  0  0  0  0  0  0  0  0  0  0  0
   -1.3932    0.2447   -1.4728 C   0  0  0  0  0  0  0  0  0  0  0  0
   -2.3879   -0.7476   -1.5080 C   0  0  0  0  0  0  0  0  0  0  0  0
   -2.7690   -1.3413   -2.7166 C   0  0  0  0  0  0  0  0  0  0  0  0
   -2.1615   -0.9560   -3.9107 C   0  0  0  0  0  0  0  0  0  0  0  0
   -2.4403   -1.4545   -5.1528 O   0  0  0  0  0  0  0  0  0  0  0  0
   -3.3418   -2.5529   -5.2140 C   0  0  0  0  0  0  0  0  0  0  0  0
   -1.1706    0.0268   -3.8842 C   0  0  0  0  0  0  0  0  0  0  0  0
   -0.7819    0.6185   -2.6800 C   0  0  0  0  0  0  0  0  0  0  0  0
    0.3101   -2.0830   -0.2609 C   0  0  0  0  0  0  0  0  0  0  0  0
    1.7304   -6.1142    0.3595 H   0  0  0  0  0  0  0  0  0  0  0  0
    2.3331   -6.0907   -1.2913 H   0  0  0  0  0  0  0  0  0  0  0  0
    1.3210   -7.4470   -0.7396 H   0  0  0  0  0  0  0  0  0  0  0  0
    0.0044   -5.9232   -2.1556 H   0  0  0  0  0  0  0  0  0  0  0  0
   -0.6539   -5.8837   -0.5385 H   0  0  0  0  0  0  0  0  0  0  0  0
   -0.2567   -5.0044    1.4032 H   0  0  0  0  0  0  0  0  0  0  0  0
   -0.7011   -3.4269    3.2210 H   0  0  0  0  0  0  0  0  0  0  0  0
   -0.5135   -0.9936    2.8559 H   0  0  0  0  0  0  0  0  0  0  0  0
    1.1642    2.7609    0.2564 H   0  0  0  0  0  0  0  0  0  0  0  0
    0.0899    2.8078    1.6804 H   0  0  0  0  0  0  0  0  0  0  0  0
    2.0283    4.1314    2.2271 H   0  0  0  0  0  0  0  0  0  0  0  0
    2.1446    2.6405    3.1684 H   0  0  0  0  0  0  0  0  0  0  0  0
    4.3099    2.4887    3.3958 H   0  0  0  0  0  0  0  0  0  0  0  0
    6.0318    2.4343   -0.1407 H   0  0  0  0  0  0  0  0  0  0  0  0
    9.3612    0.7664    0.4158 H   0  0  0  0  0  0  0  0  0  0  0  0
    9.7756    2.4842    0.5838 H   0  0  0  0  0  0  0  0  0  0  0  0
    8.7684    1.9437   -0.7683 H   0  0  0  0  0  0  0  0  0  0  0  0
   -0.5913    1.9010   -0.4621 H   0  0  0  0  0  0  0  0  0  0  0  0
   -3.2577    1.8337   -0.8351 H   0  0  0  0  0  0  0  0  0  0  0  0
   -3.5796    2.9318    2.7532 H   0  0  0  0  0  0  0  0  0  0  0  0
   -5.1180    3.6978    2.3641 H   0  0  0  0  0  0  0  0  0  0  0  0
   -3.6466    4.1679    1.4956 H   0  0  0  0  0  0  0  0  0  0  0  0
   -6.3570    3.1875    0.2683 H   0  0  0  0  0  0  0  0  0  0  0  0
   -4.9589    3.7126   -0.6849 H   0  0  0  0  0  0  0  0  0  0  0  0
   -5.6646    2.1190   -0.9629 H   0  0  0  0  0  0  0  0  0  0  0  0
   -4.5544    0.5838    2.2971 H   0  0  0  0  0  0  0  0  0  0  0  0
   -6.1211    1.3169    1.9510 H   0  0  0  0  0  0  0  0  0  0  0  0
   -5.3543    0.2528    0.7604 H   0  0  0  0  0  0  0  0  0  0  0  0
   -2.8617   -1.0902   -0.5884 H   0  0  0  0  0  0  0  0  0  0  0  0
   -3.5359   -2.1078   -2.6862 H   0  0  0  0  0  0  0  0  0  0  0  0
   -3.4092   -2.8729   -6.2579 H   0  0  0  0  0  0  0  0  0  0  0  0
   -4.3448   -2.2552   -4.8902 H   0  0  0  0  0  0  0  0  0  0  0  0
   -2.9738   -3.4026   -4.6289 H   0  0  0  0  0  0  0  0  0  0  0  0
   -0.6864    0.3259   -4.8116 H   0  0  0  0  0  0  0  0  0  0  0  0
    0.0103    1.3654   -2.6950 H   0  0  0  0  0  0  0  0  0  0  0  0
    0.6365   -1.7208   -1.2325 H   0  0  0  0  0  0  0  0  0  0  0  0
  1  2  1  0
  2  3  1  0
  3  4  1  0
  4  5  2  0
  5  6  1  0
  6  7  2  0
  7  8  1  0
  8  9  1  0
  9 10  1  0
 10 11  2  0
 10 12  1  0
 12 13  1  0
 13 14  1  0
 14 15  2  0
 14 16  1  0
 16 17  1  0
 17 18  1  0
 18 19  2  0
 19 20  1  0
 19 21  1  0
 21 22  1  0
  9 23  1  0
 23 24  1  0
 24 25  2  0
 24 26  1  0
 26 27  1  0
 27 28  1  0
 27 29  1  0
 27 30  1  0
 23 31  1  0
 31 32  2  0
 32 33  1  0
 33 34  2  0
 34 35  1  0
 35 36  1  0
 34 37  1  0
 37 38  2  0
  8 39  2  0
 39  4  1  0
 22 17  2  0
 38 31  1  0
  1 40  1  0
  1 41  1  0
  1 42  1  0
  2 43  1  0
  2 44  1  0
  5 45  1  0
  6 46  1  0
  7 47  1  0
 12 48  1  0
 12 49  1  0
 13 50  1  0
 13 51  1  0
 16 52  1  0
 18 53  1  0
 20 54  1  0
 20 55  1  0
 20 56  1  0
 23 57  1  0
 26 58  1  0
 28 59  1  0
 28 60  1  0
 28 61  1  0
 29 62  1  0
 29 63  1  0
 29 64  1  0
 30 65  1  0
 30 66  1  0
 30 67  1  0
 32 68  1  0
 33 69  1  0
 36 70  1  0
 36 71  1  0
 36 72  1  0
 37 73  1  0
 38 74  1  0
 39 75  1  0
M  END
$$$$
