
     RDKit          3D

 46 47  0  0  0  0  0  0  0  0999 V2000
   -0.2160   -3.2190    1.6601 C   0  0  0  0  0  0  0  0  0  0  0  0
   -0.4809   -1.9946    2.5149 C   0  0  0  0  0  0  0  0  0  0  0  0
    0.0724   -0.8294    1.8814 O   0  0  0  0  0  0  0  0  0  0  0  0
    1.3594   -0.5262    2.2171 C   0  0  0  0  0  0  0  0  0  0  0  0
    2.0601   -1.2266    2.9383 O   0  0  0  0  0  0  0  0  0  0  0  0
    1.8527    0.6815    1.5521 C   0  0  0  0  0  0  0  0  0  0  0  0
    3.1977    0.9263    1.2818 C   0  0  0  0  0  0  0  0  0  0  0  0
    4.4076    0.1067    1.5700 C   0  0  0  0  0  0  0  0  0  0  0  0
    3.2999    2.1413    0.6549 N   0  0  0  0  0  0  0  0  0  0  0  0
    2.0587    2.7056    0.5075 C   0  0  0  0  0  0  0  0  0  0  0  0
    1.8967    4.0375   -0.1350 C   0  0  0  0  0  0  0  0  0  0  0  0
    1.1379    1.8323    1.0731 C   0  0  0  0  0  0  0  0  0  0  0  0
   -0.5809    2.0786    1.2202 S   0  0  0  0  0  6  0  0  0  0  0  0
   -0.8503    1.8136    2.6147 O   0  0  0  0  0  0  0  0  0  0  0  0
   -0.8495    3.3622    0.6129 O   0  0  0  0  0  0  0  0  0  0  0  0
   -1.3489    0.8993    0.3060 N   0  0  0  0  0  0  0  0  0  0  0  0
   -1.1559    0.9784   -1.1441 C   0  0  0  0  0  0  0  0  0  0  0  0
   -1.5612   -0.3219   -1.8050 C   0  0  0  0  0  0  0  0  0  0  0  0
   -0.5594   -1.2564   -2.1273 C   0  0  0  0  0  0  0  0  0  0  0  0
   -0.8839   -2.4818   -2.7075 C   0  0  0  0  0  0  0  0  0  0  0  0
   -2.2136   -2.7949   -2.9663 C   0  0  0  0  0  0  0  0  0  0  0  0
   -3.2200   -1.8855   -2.6416 C   0  0  0  0  0  0  0  0  0  0  0  0
   -2.9111   -0.6477   -2.0552 C   0  0  0  0  0  0  0  0  0  0  0  0
   -4.0295    0.2981   -1.7089 C   0  0  0  0  0  0  0  0  0  0  0  0
   -0.6673   -4.1093    2.1067 H   0  0  0  0  0  0  0  0  0  0  0  0
   -0.6286   -3.0814    0.6556 H   0  0  0  0  0  0  0  0  0  0  0  0
    0.8586   -3.3911    1.5425 H   0  0  0  0  0  0  0  0  0  0  0  0
   -1.5602   -1.8301    2.5981 H   0  0  0  0  0  0  0  0  0  0  0  0
   -0.0959   -2.1227    3.5328 H   0  0  0  0  0  0  0  0  0  0  0  0
    4.2805   -0.9120    1.1900 H   0  0  0  0  0  0  0  0  0  0  0  0
    4.5857    0.0581    2.6489 H   0  0  0  0  0  0  0  0  0  0  0  0
    5.3010    0.5294    1.0987 H   0  0  0  0  0  0  0  0  0  0  0  0
    4.1696    2.5675    0.3567 H   0  0  0  0  0  0  0  0  0  0  0  0
    2.8562    4.4332   -0.4847 H   0  0  0  0  0  0  0  0  0  0  0  0
    1.4797    4.7587    0.5747 H   0  0  0  0  0  0  0  0  0  0  0  0
    1.2329    3.9670   -1.0023 H   0  0  0  0  0  0  0  0  0  0  0  0
   -1.1501   -0.0227    0.7004 H   0  0  0  0  0  0  0  0  0  0  0  0
   -1.7352    1.8107   -1.5573 H   0  0  0  0  0  0  0  0  0  0  0  0
   -0.1054    1.1785   -1.3835 H   0  0  0  0  0  0  0  0  0  0  0  0
    0.4867   -1.0337   -1.9256 H   0  0  0  0  0  0  0  0  0  0  0  0
   -0.0998   -3.1924   -2.9559 H   0  0  0  0  0  0  0  0  0  0  0  0
   -2.4704   -3.7492   -3.4187 H   0  0  0  0  0  0  0  0  0  0  0  0
   -4.2548   -2.1524   -2.8472 H   0  0  0  0  0  0  0  0  0  0  0  0
   -4.0243    0.5245   -0.6385 H   0  0  0  0  0  0  0  0  0  0  0  0
   -3.9333    1.2260   -2.2814 H   0  0  0  0  0  0  0  0  0  0  0  0
   -5.0078   -0.1340   -1.9456 H   0  0  0  0  0  0  0  0  0  0  0  0
  1  2  1  0
  2  3  1  0
  3  4  1  0
  4  5  2  0
  4  6  1  0
  6  7  2  0
  7  8  1  0
  7  9  1  0
  9 10  1  0
 10 11  1  0
 10 12  2  0
 12 13  1  0
 13 14  2  0
 13 15  2  0
 13 16  1  0
 16 17  1  0
 17 18  1  0
 18 19  2  0
 19 20  1  0
 20 21  2  0
 21 22  1  0
 22 23  2  0
 23 24  1  0
 12  6  1  0
 23 18  1  0
  1 25  1  0
  1 26  1  0
  1 27  1  0
  2 28  1  0
  2 29  1  0
  8 30  1  0
  8 31  1  0
  8 32  1  0
  9 33  1  0
 11 34  1  0
 11 35  1  0
 11 36  1  0
 16 37  1  0
 17 38  1  0
 17 39  1  0
 19 40  1  0
 20 41  1  0
 21 42  1  0
 22 43  1  0
 24 44  1  0
 24 45  1  0
 24 46  1  0
M  END
$$$$
