
     RDKit          3D

 41 42  0  0  0  0  0  0  0  0999 V2000
    2.0573   -2.0543    2.3358 C   0  0  0  0  0  0  0  0  0  0  0  0
    1.5846   -1.4703    1.0233 C   0  0  0  0  0  0  0  0  0  0  0  0
    0.3178   -1.5919    0.7418 N   0  0  0  0  0  0  0  0  0  0  0  0
   -0.1901   -0.9550   -0.3642 N   0  0  0  0  0  0  0  0  0  0  0  0
   -0.1968    0.4475   -0.4375 C   0  0  0  0  0  0  0  0  0  0  0  0
    0.4210    1.1886    0.3241 O   0  0  0  0  0  0  0  0  0  0  0  0
   -1.0419    0.9467   -1.5998 C   0  0  0  0  0  0  0  0  0  0  0  0
   -1.8026    2.5735   -1.3144 S   0  0  0  0  0  0  0  0  0  0  0  0
   -2.6714    2.3035    0.2691 C   0  0  0  0  0  0  0  0  0  0  0  0
   -3.5459    1.0725    0.3206 C   0  0  0  0  0  0  0  0  0  0  0  0
   -3.1283   -0.0096    1.1210 C   0  0  0  0  0  0  0  0  0  0  0  0
   -3.8739   -1.1870    1.1954 C   0  0  0  0  0  0  0  0  0  0  0  0
   -5.0621   -1.3016    0.4832 C   0  0  0  0  0  0  0  0  0  0  0  0
   -5.5087   -0.2344   -0.2944 C   0  0  0  0  0  0  0  0  0  0  0  0
   -4.7619    0.9480   -0.3726 C   0  0  0  0  0  0  0  0  0  0  0  0
   -5.4913    2.3514   -1.4254 Br  0  0  0  0  0  0  0  0  0  0  0  0
    2.6258   -0.8507    0.1651 C   0  0  0  0  0  0  0  0  0  0  0  0
    2.8055   -1.3113   -1.1451 C   0  0  0  0  0  0  0  0  0  0  0  0
    3.7806   -0.7339   -1.9600 C   0  0  0  0  0  0  0  0  0  0  0  0
    4.5781    0.3007   -1.4667 C   0  0  0  0  0  0  0  0  0  0  0  0
    4.3952    0.7508   -0.1503 C   0  0  0  0  0  0  0  0  0  0  0  0
    5.2379    1.8334    0.3687 N   0  0  0  0  0  4  0  0  0  0  0  0
    5.2133    2.0471    1.5889 O   0  0  0  0  0  0  0  0  0  0  0  0
    5.9374    2.4570   -0.4422 O   0  0  0  0  0  1  0  0  0  0  0  0
    3.4237    0.1759    0.6765 C   0  0  0  0  0  0  0  0  0  0  0  0
    1.7029   -1.4232    3.1560 H   0  0  0  0  0  0  0  0  0  0  0  0
    1.6423   -3.0597    2.4566 H   0  0  0  0  0  0  0  0  0  0  0  0
    3.1474   -2.1237    2.3804 H   0  0  0  0  0  0  0  0  0  0  0  0
   -1.0442   -1.3996   -0.6949 H   0  0  0  0  0  0  0  0  0  0  0  0
   -0.3834    1.0290   -2.4708 H   0  0  0  0  0  0  0  0  0  0  0  0
   -1.8295    0.2311   -1.8536 H   0  0  0  0  0  0  0  0  0  0  0  0
   -1.9226    2.2799    1.0687 H   0  0  0  0  0  0  0  0  0  0  0  0
   -3.2803    3.1897    0.4810 H   0  0  0  0  0  0  0  0  0  0  0  0
   -2.2073    0.0570    1.7020 H   0  0  0  0  0  0  0  0  0  0  0  0
   -3.5272   -2.0091    1.8178 H   0  0  0  0  0  0  0  0  0  0  0  0
   -5.6496   -2.2143    0.5443 H   0  0  0  0  0  0  0  0  0  0  0  0
   -6.4496   -0.3297   -0.8318 H   0  0  0  0  0  0  0  0  0  0  0  0
    2.1875   -2.1192   -1.5306 H   0  0  0  0  0  0  0  0  0  0  0  0
    3.9189   -1.0888   -2.9790 H   0  0  0  0  0  0  0  0  0  0  0  0
    5.3330    0.7439   -2.1139 H   0  0  0  0  0  0  0  0  0  0  0  0
    3.2584    0.5399    1.6881 H   0  0  0  0  0  0  0  0  0  0  0  0
  1  2  1  0
  2  3  2  3
  3  4  1  0
  4  5  1  0
  5  6  2  0
  5  7  1  0
  7  8  1  0
  8  9  1  0
  9 10  1  0
 10 11  2  0
 11 12  1  0
 12 13  2  0
 13 14  1  0
 14 15  2  0
 15 16  1  0
  2 17  1  0
 17 18  2  0
 18 19  1  0
 19 20  2  0
 20 21  1  0
 21 22  1  0
 22 23  2  0
 22 24  1  0
 21 25  2  0
 15 10  1  0
 25 17  1  0
  1 26  1  0
  1 27  1  0
  1 28  1  0
  4 29  1  0
  7 30  1  0
  7 31  1  0
  9 32  1  0
  9 33  1  0
 11 34  1  0
 12 35  1  0
 13 36  1  0
 14 37  1  0
 18 38  1  0
 19 39  1  0
 20 40  1  0
 25 41  1  0
M  CHG  2  22   1  24  -1
M  END
$$$$
