
     RDKit          3D

 50 52  0  0  0  0  0  0  0  0999 V2000
    8.7034   -2.8460   -0.4096 C   0  0  0  0  0  0  0  0  0  0  0  0
    8.4475   -1.7969    0.6609 C   0  0  0  0  0  0  0  0  0  0  0  0
    7.3335   -0.8817    0.2745 C   0  0  0  0  0  0  0  0  0  0  0  0
    6.0540   -1.1419    0.4528 N   0  0  0  0  0  0  0  0  0  0  0  0
    5.2484   -0.1128    0.0050 N   0  0  0  0  0  0  0  0  0  0  0  0
    5.9539    0.8863   -0.4675 C   0  0  0  0  0  0  0  0  0  0  0  0
    5.3380    2.0659   -1.0290 N   0  0  0  0  0  0  0  0  0  0  0  0
    4.5848    3.0224    0.1298 S   0  0  0  0  0  6  0  0  0  0  0  0
    4.9798    2.6320    1.4649 O   0  0  0  0  0  0  0  0  0  0  0  0
    4.7869    4.3850   -0.3223 O   0  0  0  0  0  0  0  0  0  0  0  0
    2.8747    2.6211   -0.1086 C   0  0  0  0  0  0  0  0  0  0  0  0
    2.0732    3.4234   -0.9206 C   0  0  0  0  0  0  0  0  0  0  0  0
    0.7154    3.1160   -1.0855 C   0  0  0  0  0  0  0  0  0  0  0  0
    0.1476    2.0164   -0.4406 C   0  0  0  0  0  0  0  0  0  0  0  0
   -1.2019    1.6095   -0.5287 N   0  0  0  0  0  0  0  0  0  0  0  0
   -2.2904    2.0542   -1.2411 C   0  0  0  0  0  0  0  0  0  0  0  0
   -2.4191    3.2890   -2.3578 S   0  0  0  0  0  0  0  0  0  0  0  0
   -3.4680    1.3593   -0.9928 N   0  0  0  0  0  0  0  0  0  0  0  0
   -3.6857    0.2914   -0.1405 C   0  0  0  0  0  0  0  0  0  0  0  0
   -2.8124   -0.2327    0.5427 O   0  0  0  0  0  0  0  0  0  0  0  0
   -5.0974   -0.1701   -0.1359 C   0  0  0  0  0  0  0  0  0  0  0  0
   -5.4510   -1.2152    0.6279 C   0  0  0  0  0  0  0  0  0  0  0  0
   -6.8157   -1.7539    0.6867 C   0  0  0  0  0  0  0  0  0  0  0  0
   -7.9456   -0.9262    0.7288 C   0  0  0  0  0  0  0  0  0  0  0  0
   -9.2268   -1.4781    0.8098 C   0  0  0  0  0  0  0  0  0  0  0  0
   -9.3900   -2.8609    0.8598 C   0  0  0  0  0  0  0  0  0  0  0  0
   -8.2729   -3.6930    0.8355 C   0  0  0  0  0  0  0  0  0  0  0  0
   -6.9917   -3.1418    0.7554 C   0  0  0  0  0  0  0  0  0  0  0  0
    0.9693    1.2327    0.3881 C   0  0  0  0  0  0  0  0  0  0  0  0
    2.3242    1.5305    0.5606 C   0  0  0  0  0  0  0  0  0  0  0  0
    7.6417    0.6384   -0.4727 S   0  0  0  0  0  0  0  0  0  0  0  0
    8.9877   -2.3832   -1.3609 H   0  0  0  0  0  0  0  0  0  0  0  0
    9.5143   -3.5130   -0.1005 H   0  0  0  0  0  0  0  0  0  0  0  0
    7.8107   -3.4560   -0.5867 H   0  0  0  0  0  0  0  0  0  0  0  0
    9.3681   -1.2330    0.8510 H   0  0  0  0  0  0  0  0  0  0  0  0
    8.1861   -2.2972    1.6009 H   0  0  0  0  0  0  0  0  0  0  0  0
    5.9499    2.6370   -1.6058 H   0  0  0  0  0  0  0  0  0  0  0  0
    2.4858    4.2923   -1.4290 H   0  0  0  0  0  0  0  0  0  0  0  0
    0.1421    3.7774   -1.7207 H   0  0  0  0  0  0  0  0  0  0  0  0
   -1.4211    0.7990    0.0549 H   0  0  0  0  0  0  0  0  0  0  0  0
   -4.2484    1.7135   -1.5284 H   0  0  0  0  0  0  0  0  0  0  0  0
   -5.8130    0.3428   -0.7656 H   0  0  0  0  0  0  0  0  0  0  0  0
   -4.7097   -1.7357    1.2327 H   0  0  0  0  0  0  0  0  0  0  0  0
   -7.8446    0.1559    0.7149 H   0  0  0  0  0  0  0  0  0  0  0  0
  -10.0972   -0.8277    0.8417 H   0  0  0  0  0  0  0  0  0  0  0  0
  -10.3866   -3.2899    0.9250 H   0  0  0  0  0  0  0  0  0  0  0  0
   -8.3971   -4.7720    0.8817 H   0  0  0  0  0  0  0  0  0  0  0  0
   -6.1320   -3.8086    0.7400 H   0  0  0  0  0  0  0  0  0  0  0  0
    0.5628    0.3705    0.9147 H   0  0  0  0  0  0  0  0  0  0  0  0
    2.9348    0.9056    1.2100 H   0  0  0  0  0  0  0  0  0  0  0  0
  1  2  1  0
  2  3  1  0
  3  4  2  0
  4  5  1  0
  5  6  2  0
  6  7  1  0
  7  8  1  0
  8  9  2  0
  8 10  2  0
  8 11  1  0
 11 12  2  0
 12 13  1  0
 13 14  2  0
 14 15  1  0
 15 16  1  0
 16 17  2  0
 16 18  1  0
 18 19  1  0
 19 20  2  0
 19 21  1  0
 21 22  2  3
 22 23  1  0
 23 24  2  0
 24 25  1  0
 25 26  2  0
 26 27  1  0
 27 28  2  0
 14 29  1  0
 29 30  2  0
  6 31  1  0
 31  3  1  0
 30 11  1  0
 28 23  1  0
  1 32  1  0
  1 33  1  0
  1 34  1  0
  2 35  1  0
  2 36  1  0
  7 37  1  0
 12 38  1  0
 13 39  1  0
 15 40  1  0
 18 41  1  0
 21 42  1  0
 22 43  1  0
 24 44  1  0
 25 45  1  0
 26 46  1  0
 27 47  1  0
 28 48  1  0
 29 49  1  0
 30 50  1  0
M  END
$$$$
