
     RDKit          3D

 39 41  0  0  0  0  0  0  0  0999 V2000
    4.2743   -1.9436   -0.1505 C   0  0  0  0  0  0  0  0  0  0  0  0
    3.9936   -1.4907    1.2723 C   0  0  0  0  0  0  0  0  0  0  0  0
    2.4470   -2.2096    1.9204 S   0  0  0  0  0  0  0  0  0  0  0  0
    1.2102   -1.2203    1.0882 C   0  0  0  0  0  0  0  0  0  0  0  0
   -0.1027   -1.6387    1.1351 C   0  0  0  0  0  0  0  0  0  0  0  0
   -1.0450   -0.8573    0.5006 C   0  0  0  0  0  0  0  0  0  0  0  0
   -2.3761   -1.2016    0.4792 N   0  0  0  0  0  0  0  0  0  0  0  0
   -3.0098   -2.0766    1.4590 C   0  0  0  0  0  0  0  0  0  0  0  0
   -4.4733   -1.6327    1.4678 C   0  0  0  0  0  0  0  0  0  0  0  0
   -4.6724   -1.0279    0.0873 C   0  0  0  0  0  0  0  0  0  0  0  0
   -3.3448   -0.3188   -0.1605 C   0  0  0  0  0  0  0  0  0  0  0  0
   -0.6699    0.2578   -0.1492 N   0  0  0  0  0  0  0  0  0  0  0  0
    0.6307    0.6010   -0.1430 C   0  0  0  0  0  0  0  0  0  0  0  0
    1.0204    1.8347   -0.8586 C   0  0  0  0  0  0  0  0  0  0  0  0
    0.0700    2.6191   -1.5436 C   0  0  0  0  0  0  0  0  0  0  0  0
    0.4349    3.7875   -2.2230 C   0  0  0  0  0  0  0  0  0  0  0  0
    1.7644    4.1955   -2.2301 C   0  0  0  0  0  0  0  0  0  0  0  0
    2.2167    5.6303   -3.0635 Cl  0  0  0  0  0  0  0  0  0  0  0  0
    2.7292    3.4465   -1.5651 C   0  0  0  0  0  0  0  0  0  0  0  0
    2.3581    2.2789   -0.8875 C   0  0  0  0  0  0  0  0  0  0  0  0
    1.5975   -0.1002    0.4655 N   0  0  0  0  0  0  0  0  0  0  0  0
    5.2312   -1.5312   -0.4879 H   0  0  0  0  0  0  0  0  0  0  0  0
    3.5059   -1.6039   -0.8516 H   0  0  0  0  0  0  0  0  0  0  0  0
    4.3446   -3.0347   -0.2158 H   0  0  0  0  0  0  0  0  0  0  0  0
    4.8053   -1.8392    1.9198 H   0  0  0  0  0  0  0  0  0  0  0  0
    3.9789   -0.3989    1.3464 H   0  0  0  0  0  0  0  0  0  0  0  0
   -0.3724   -2.5555    1.6405 H   0  0  0  0  0  0  0  0  0  0  0  0
   -2.9234   -3.1192    1.1339 H   0  0  0  0  0  0  0  0  0  0  0  0
   -2.5844   -1.9780    2.4639 H   0  0  0  0  0  0  0  0  0  0  0  0
   -5.1594   -2.4588    1.6745 H   0  0  0  0  0  0  0  0  0  0  0  0
   -4.6248   -0.8640    2.2355 H   0  0  0  0  0  0  0  0  0  0  0  0
   -5.5272   -0.3477    0.0394 H   0  0  0  0  0  0  0  0  0  0  0  0
   -4.8209   -1.8240   -0.6523 H   0  0  0  0  0  0  0  0  0  0  0  0
   -3.1579   -0.2005   -1.2331 H   0  0  0  0  0  0  0  0  0  0  0  0
   -3.3485    0.6677    0.3192 H   0  0  0  0  0  0  0  0  0  0  0  0
   -0.9770    2.3179   -1.5522 H   0  0  0  0  0  0  0  0  0  0  0  0
   -0.3241    4.3675   -2.7408 H   0  0  0  0  0  0  0  0  0  0  0  0
    3.7697    3.7598   -1.5665 H   0  0  0  0  0  0  0  0  0  0  0  0
    3.1314    1.7093   -0.3736 H   0  0  0  0  0  0  0  0  0  0  0  0
  1  2  1  0
  2  3  1  0
  3  4  1  0
  4  5  2  0
  5  6  1  0
  6  7  1  0
  7  8  1  0
  8  9  1  0
  9 10  1  0
 10 11  1  0
  6 12  2  0
 12 13  1  0
 13 14  1  0
 14 15  2  0
 15 16  1  0
 16 17  2  0
 17 18  1  0
 17 19  1  0
 19 20  2  0
 13 21  2  0
 21  4  1  0
 11  7  1  0
 20 14  1  0
  1 22  1  0
  1 23  1  0
  1 24  1  0
  2 25  1  0
  2 26  1  0
  5 27  1  0
  8 28  1  0
  8 29  1  0
  9 30  1  0
  9 31  1  0
 10 32  1  0
 10 33  1  0
 11 34  1  0
 11 35  1  0
 15 36  1  0
 16 37  1  0
 19 38  1  0
 20 39  1  0
M  END
$$$$
