
     RDKit          3D

 46 49  0  0  0  0  0  0  0  0999 V2000
   -2.6662   -5.5381   -1.4529 N   0  0  0  0  0  0  0  0  0  0  0  0
   -3.3951   -4.5606   -0.8819 C   0  0  0  0  0  0  0  0  0  0  0  0
   -4.7136   -4.6180   -0.6992 N   0  0  0  0  0  0  0  0  0  0  0  0
   -5.0548   -3.4250   -0.0718 O   0  0  0  0  0  0  0  0  0  0  0  0
   -3.9337   -2.6239    0.1350 N   0  0  0  0  0  0  0  0  0  0  0  0
   -2.9274   -3.3303   -0.3804 C   0  0  0  0  0  0  0  0  0  0  0  0
   -1.5975   -2.8358   -0.3742 N   0  0  0  0  0  0  0  0  0  0  0  0
   -0.5671   -3.5724   -0.8882 N   0  0  0  0  0  0  0  0  0  0  0  0
    0.5607   -2.8997   -0.7524 N   0  0  0  0  0  0  0  0  0  0  0  0
    0.2779   -1.7026   -0.1513 C   0  0  0  0  0  0  0  0  0  0  0  0
    1.3175   -0.7169    0.1407 C   0  0  0  0  0  0  0  0  0  0  0  0
    1.0855    0.3086    0.7732 O   0  0  0  0  0  0  0  0  0  0  0  0
    2.5627   -1.1021   -0.3499 N   0  0  0  0  0  0  0  0  0  0  0  0
    3.7589   -0.4898   -0.0710 N   0  0  0  0  0  0  0  0  0  0  0  0
    3.7777    0.8070   -0.0055 C   0  0  0  0  0  0  0  0  0  0  0  0
    5.0161    1.5432    0.3430 C   0  0  0  0  0  0  0  0  0  0  0  0
    6.1690    0.8130    0.6727 C   0  0  0  0  0  0  0  0  0  0  0  0
    7.3529    1.4721    1.0098 C   0  0  0  0  0  0  0  0  0  0  0  0
    7.3954    2.8638    1.0205 C   0  0  0  0  0  0  0  0  0  0  0  0
    6.2541    3.5975    0.6938 C   0  0  0  0  0  0  0  0  0  0  0  0
    5.0632    2.9434    0.3546 C   0  0  0  0  0  0  0  0  0  0  0  0
    3.7071    3.9386   -0.0413 Cl  0  0  0  0  0  0  0  0  0  0  0  0
   -1.0843   -1.6299    0.0976 C   0  0  0  0  0  0  0  0  0  0  0  0
   -1.8998   -0.5380    0.6850 C   0  0  0  0  0  0  0  0  0  0  0  0
   -2.5507    0.0844   -0.4185 O   0  0  0  0  0  0  0  0  0  0  0  0
   -3.4262    1.0965   -0.1375 C   0  0  0  0  0  0  0  0  0  0  0  0
   -3.6559    1.6601    1.1205 C   0  0  0  0  0  0  0  0  0  0  0  0
   -4.5834    2.6969    1.2628 C   0  0  0  0  0  0  0  0  0  0  0  0
   -5.2726    3.1649    0.1504 C   0  0  0  0  0  0  0  0  0  0  0  0
   -6.1598    4.1580    0.2928 F   0  0  0  0  0  0  0  0  0  0  0  0
   -5.0521    2.6175   -1.1060 C   0  0  0  0  0  0  0  0  0  0  0  0
   -4.1261    1.5831   -1.2478 C   0  0  0  0  0  0  0  0  0  0  0  0
   -1.7026   -5.3800   -1.7425 H   0  0  0  0  0  0  0  0  0  0  0  0
   -3.1425   -6.2806   -1.9543 H   0  0  0  0  0  0  0  0  0  0  0  0
    2.6485   -2.0719   -0.6485 H   0  0  0  0  0  0  0  0  0  0  0  0
    2.8846    1.4079   -0.2371 H   0  0  0  0  0  0  0  0  0  0  0  0
    6.1526   -0.2752    0.6714 H   0  0  0  0  0  0  0  0  0  0  0  0
    8.2402    0.8969    1.2644 H   0  0  0  0  0  0  0  0  0  0  0  0
    8.3167    3.3787    1.2832 H   0  0  0  0  0  0  0  0  0  0  0  0
    6.2995    4.6843    0.7051 H   0  0  0  0  0  0  0  0  0  0  0  0
   -2.6166   -0.9295    1.4148 H   0  0  0  0  0  0  0  0  0  0  0  0
   -1.2661    0.1900    1.1994 H   0  0  0  0  0  0  0  0  0  0  0  0
   -3.1298    1.3244    2.0079 H   0  0  0  0  0  0  0  0  0  0  0  0
   -4.7697    3.1433    2.2346 H   0  0  0  0  0  0  0  0  0  0  0  0
   -5.5977    2.9960   -1.9639 H   0  0  0  0  0  0  0  0  0  0  0  0
   -3.9492    1.1504   -2.2295 H   0  0  0  0  0  0  0  0  0  0  0  0
  1  2  1  0
  2  3  2  0
  3  4  1  0
  4  5  1  0
  5  6  2  0
  6  7  1  0
  7  8  1  0
  8  9  2  0
  9 10  1  0
 10 11  1  0
 11 12  2  0
 11 13  1  0
 13 14  1  0
 14 15  2  3
 15 16  1  0
 16 17  2  0
 17 18  1  0
 18 19  2  0
 19 20  1  0
 20 21  2  0
 21 22  1  0
 10 23  2  0
 23 24  1  0
 24 25  1  0
 25 26  1  0
 26 27  2  0
 27 28  1  0
 28 29  2  0
 29 30  1  0
 29 31  1  0
 31 32  2  0
  6  2  1  0
 23  7  1  0
 32 26  1  0
 21 16  1  0
  1 33  1  0
  1 34  1  0
 13 35  1  0
 15 36  1  0
 17 37  1  0
 18 38  1  0
 19 39  1  0
 20 40  1  0
 24 41  1  0
 24 42  1  0
 27 43  1  0
 28 44  1  0
 31 45  1  0
 32 46  1  0
M  END
$$$$
