
     RDKit          3D

 47 50  0  0  0  0  0  0  0  0999 V2000
    0.2501   -0.5750   -2.3595 C   0  0  0  0  0  0  0  0  0  0  0  0
   -0.3620    0.8186   -2.1041 C   0  0  0  0  0  0  0  0  0  0  0  0
   -0.8485    1.3671   -3.4644 C   0  0  0  0  0  0  0  0  0  0  0  0
   -1.5903    0.6912   -1.1485 C   0  0  0  0  0  0  0  0  0  0  0  0
   -1.1723    0.6093    0.2813 C   0  0  0  0  0  0  0  0  0  0  0  0
    0.0779    0.9776    0.7484 C   0  0  0  0  0  0  0  0  0  0  0  0
    0.0343    0.7293    2.1249 C   0  0  0  0  0  0  0  0  0  0  0  0
   -1.1344    0.2243    2.5078 N   0  0  0  0  0  0  0  0  0  0  0  0
   -1.9121    0.1964    1.3845 N   0  0  0  0  0  0  0  0  0  0  0  0
   -3.2795   -0.2122    1.5122 C   0  0  0  0  0  0  0  0  0  0  0  0
   -4.2156   -0.0726    0.4816 C   0  0  0  0  0  0  0  0  0  0  0  0
   -5.5394   -0.4923    0.6660 C   0  0  0  0  0  0  0  0  0  0  0  0
   -5.9331   -1.0447    1.8788 C   0  0  0  0  0  0  0  0  0  0  0  0
   -7.2041   -1.4318    2.0462 F   0  0  0  0  0  0  0  0  0  0  0  0
   -5.0321   -1.1711    2.9246 C   0  0  0  0  0  0  0  0  0  0  0  0
   -3.7103   -0.7549    2.7433 C   0  0  0  0  0  0  0  0  0  0  0  0
    1.1819    1.5178   -0.0890 C   0  0  0  0  0  0  0  0  0  0  0  0
    2.2651    0.5624   -0.0854 N   0  0  0  0  0  0  0  0  0  0  0  0
    3.4472    0.7598    0.5965 C   0  0  0  0  0  0  0  0  0  0  0  0
    3.7331    1.7821    1.2084 O   0  0  0  0  0  0  0  0  0  0  0  0
    4.3847   -0.3972    0.5363 C   0  0  0  0  0  0  0  0  0  0  0  0
    5.6160   -0.3332    1.1720 C   0  0  0  0  0  0  0  0  0  0  0  0
    6.5036   -1.3600    1.1276 N   0  0  0  0  0  0  0  0  0  0  0  0
    6.1007   -2.4445    0.4223 C   0  0  0  0  0  0  0  0  0  0  0  0
    4.8665   -2.5099   -0.2075 C   0  0  0  0  0  0  0  0  0  0  0  0
    3.9738   -1.4930   -0.1711 N   0  0  0  0  0  0  0  0  0  0  0  0
    0.6938    1.8156   -1.5258 C   0  0  0  0  0  0  0  0  0  0  0  0
    1.1979   -0.4922   -2.9066 H   0  0  0  0  0  0  0  0  0  0  0  0
   -0.4236   -1.1948   -2.9598 H   0  0  0  0  0  0  0  0  0  0  0  0
    0.4291   -1.1248   -1.4288 H   0  0  0  0  0  0  0  0  0  0  0  0
   -1.2534    2.3850   -3.3671 H   0  0  0  0  0  0  0  0  0  0  0  0
   -1.6367    0.7291   -3.8825 H   0  0  0  0  0  0  0  0  0  0  0  0
   -0.0297    1.4035   -4.1930 H   0  0  0  0  0  0  0  0  0  0  0  0
   -2.2206    1.5840   -1.2579 H   0  0  0  0  0  0  0  0  0  0  0  0
   -2.1782   -0.1844   -1.4409 H   0  0  0  0  0  0  0  0  0  0  0  0
    0.8106    0.8859    2.8655 H   0  0  0  0  0  0  0  0  0  0  0  0
   -3.9837    0.3951   -0.4680 H   0  0  0  0  0  0  0  0  0  0  0  0
   -6.2733   -0.3613   -0.1263 H   0  0  0  0  0  0  0  0  0  0  0  0
   -5.3582   -1.5868    3.8749 H   0  0  0  0  0  0  0  0  0  0  0  0
   -3.0188   -0.8696    3.5786 H   0  0  0  0  0  0  0  0  0  0  0  0
    1.5392    2.4563    0.3500 H   0  0  0  0  0  0  0  0  0  0  0  0
    2.1233   -0.3727   -0.4543 H   0  0  0  0  0  0  0  0  0  0  0  0
    5.9278    0.5412    1.7354 H   0  0  0  0  0  0  0  0  0  0  0  0
    6.8050   -3.2692    0.3783 H   0  0  0  0  0  0  0  0  0  0  0  0
    4.5645   -3.3898   -0.7653 H   0  0  0  0  0  0  0  0  0  0  0  0
    1.5532    1.8934   -2.2043 H   0  0  0  0  0  0  0  0  0  0  0  0
    0.2304    2.8135   -1.5090 H   0  0  0  0  0  0  0  0  0  0  0  0
  1  2  1  0
  2  3  1  0
  2  4  1  0
  4  5  1  0
  5  6  2  0
  6  7  1  0
  7  8  2  0
  8  9  1  0
  9 10  1  0
 10 11  2  0
 11 12  1  0
 12 13  2  0
 13 14  1  0
 13 15  1  0
 15 16  2  0
  6 17  1  0
 17 18  1  0
 18 19  1  0
 19 20  2  0
 19 21  1  0
 21 22  2  0
 22 23  1  0
 23 24  2  0
 24 25  1  0
 25 26  2  0
 17 27  1  0
 27  2  1  0
  9  5  1  0
 16 10  1  0
 26 21  1  0
  1 28  1  0
  1 29  1  0
  1 30  1  0
  3 31  1  0
  3 32  1  0
  3 33  1  0
  4 34  1  0
  4 35  1  0
  7 36  1  0
 11 37  1  0
 12 38  1  0
 15 39  1  0
 16 40  1  0
 17 41  1  0
 18 42  1  0
 22 43  1  0
 24 44  1  0
 25 45  1  0
 27 46  1  0
 27 47  1  0
M  END
$$$$
