
     RDKit          3D

 63 67  0  0  0  0  0  0  0  0999 V2000
   -6.0227    5.8819    1.7757 C   0  0  0  0  0  0  0  0  0  0  0  0
   -4.7020    5.7862    1.2567 O   0  0  0  0  0  0  0  0  0  0  0  0
   -4.1937    4.5265    1.0840 C   0  0  0  0  0  0  0  0  0  0  0  0
   -2.9050    4.4914    0.5646 C   0  0  0  0  0  0  0  0  0  0  0  0
   -2.2555    3.2742    0.3347 C   0  0  0  0  0  0  0  0  0  0  0  0
   -2.9001    2.0473    0.6305 C   0  0  0  0  0  0  0  0  0  0  0  0
   -2.4476    0.6815    0.4856 C   0  0  0  0  0  0  0  0  0  0  0  0
   -1.1412    0.2615   -0.0079 C   0  0  0  0  0  0  0  0  0  0  0  0
    0.0004    0.4655    0.7742 C   0  0  0  0  0  0  0  0  0  0  0  0
    1.2599    0.0777    0.3029 C   0  0  0  0  0  0  0  0  0  0  0  0
    1.3860   -0.5136   -0.9549 C   0  0  0  0  0  0  0  0  0  0  0  0
    2.5516   -0.9349   -1.5333 O   0  0  0  0  0  0  0  0  0  0  0  0
    3.7619   -0.6958   -0.8086 C   0  0  0  0  0  0  0  0  0  0  0  0
    4.9367   -1.2051   -1.6635 C   0  0  0  0  0  0  0  0  0  0  0  0
    6.2937   -1.0140   -1.1388 N   0  0  0  0  0  0  0  0  0  0  0  0
    6.6831    0.3920   -0.9375 C   0  0  0  0  0  0  0  0  0  0  0  0
    6.8005    0.7875    0.5438 C   0  0  0  0  0  0  0  0  0  0  0  0
    7.7200   -0.0263    1.2839 O   0  0  0  0  0  0  0  0  0  0  0  0
    7.8638   -1.3505    0.7504 C   0  0  0  0  0  0  0  0  0  0  0  0
    6.5945   -1.8436    0.0392 C   0  0  0  0  0  0  0  0  0  0  0  0
    0.2435   -0.7164   -1.7335 C   0  0  0  0  0  0  0  0  0  0  0  0
   -1.0150   -0.3293   -1.2673 C   0  0  0  0  0  0  0  0  0  0  0  0
   -3.4037   -0.2365    0.8864 C   0  0  0  0  0  0  0  0  0  0  0  0
   -3.3465   -1.7038    0.9224 C   0  0  0  0  0  0  0  0  0  0  0  0
   -2.7511   -2.3259    2.0319 C   0  0  0  0  0  0  0  0  0  0  0  0
   -2.6684   -3.7149    2.1054 C   0  0  0  0  0  0  0  0  0  0  0  0
   -3.1766   -4.4929    1.0697 C   0  0  0  0  0  0  0  0  0  0  0  0
   -3.7673   -3.8867   -0.0430 C   0  0  0  0  0  0  0  0  0  0  0  0
   -3.8584   -2.4924   -0.1288 C   0  0  0  0  0  0  0  0  0  0  0  0
   -4.4069   -1.8157   -1.1895 O   0  0  0  0  0  0  0  0  0  0  0  0
   -5.0134   -2.5856   -2.2179 C   0  0  0  0  0  0  0  0  0  0  0  0
   -4.8258    0.5322    1.4409 S   0  0  0  0  0  0  0  0  0  0  0  0
   -4.1952    2.1050    1.1475 C   0  0  0  0  0  0  0  0  0  0  0  0
   -4.8549    3.3329    1.3810 C   0  0  0  0  0  0  0  0  0  0  0  0
   -6.7467    5.4121    1.1018 H   0  0  0  0  0  0  0  0  0  0  0  0
   -6.2767    6.9438    1.8488 H   0  0  0  0  0  0  0  0  0  0  0  0
   -6.0830    5.4553    2.7823 H   0  0  0  0  0  0  0  0  0  0  0  0
   -2.3931    5.4218    0.3299 H   0  0  0  0  0  0  0  0  0  0  0  0
   -1.2500    3.2754   -0.0790 H   0  0  0  0  0  0  0  0  0  0  0  0
   -0.0843    0.9244    1.7567 H   0  0  0  0  0  0  0  0  0  0  0  0
    2.1167    0.2505    0.9450 H   0  0  0  0  0  0  0  0  0  0  0  0
    3.8730    0.3790   -0.6269 H   0  0  0  0  0  0  0  0  0  0  0  0
    3.7290   -1.2368    0.1431 H   0  0  0  0  0  0  0  0  0  0  0  0
    4.7812   -2.2718   -1.8743 H   0  0  0  0  0  0  0  0  0  0  0  0
    4.8767   -0.7304   -2.6523 H   0  0  0  0  0  0  0  0  0  0  0  0
    7.6704    0.5151   -1.4003 H   0  0  0  0  0  0  0  0  0  0  0  0
    6.0132    1.0828   -1.4622 H   0  0  0  0  0  0  0  0  0  0  0  0
    7.1408    1.8245    0.6288 H   0  0  0  0  0  0  0  0  0  0  0  0
    5.8244    0.7266    1.0383 H   0  0  0  0  0  0  0  0  0  0  0  0
    8.1094   -2.0141    1.5858 H   0  0  0  0  0  0  0  0  0  0  0  0
    8.7225   -1.3548    0.0687 H   0  0  0  0  0  0  0  0  0  0  0  0
    5.7714   -1.8144    0.7618 H   0  0  0  0  0  0  0  0  0  0  0  0
    6.7308   -2.8837   -0.2760 H   0  0  0  0  0  0  0  0  0  0  0  0
    0.3328   -1.1782   -2.7135 H   0  0  0  0  0  0  0  0  0  0  0  0
   -1.8914   -0.4922   -1.8903 H   0  0  0  0  0  0  0  0  0  0  0  0
   -2.3492   -1.7237    2.8435 H   0  0  0  0  0  0  0  0  0  0  0  0
   -2.2068   -4.1874    2.9682 H   0  0  0  0  0  0  0  0  0  0  0  0
   -3.1108   -5.5768    1.1239 H   0  0  0  0  0  0  0  0  0  0  0  0
   -4.1416   -4.5336   -0.8290 H   0  0  0  0  0  0  0  0  0  0  0  0
   -4.2720   -3.2012   -2.7374 H   0  0  0  0  0  0  0  0  0  0  0  0
   -5.8328   -3.1968   -1.8255 H   0  0  0  0  0  0  0  0  0  0  0  0
   -5.4381   -1.8907   -2.9486 H   0  0  0  0  0  0  0  0  0  0  0  0
   -5.8604    3.3162    1.7849 H   0  0  0  0  0  0  0  0  0  0  0  0
  1  2  1  0
  2  3  1  0
  3  4  2  0
  4  5  1  0
  5  6  2  0
  6  7  1  0
  7  8  1  0
  8  9  2  0
  9 10  1  0
 10 11  2  0
 11 12  1  0
 12 13  1  0
 13 14  1  0
 14 15  1  0
 15 16  1  0
 16 17  1  0
 17 18  1  0
 18 19  1  0
 19 20  1  0
 11 21  1  0
 21 22  2  0
  7 23  2  0
 23 24  1  0
 24 25  2  0
 25 26  1  0
 26 27  2  0
 27 28  1  0
 28 29  2  0
 29 30  1  0
 30 31  1  0
 23 32  1  0
 32 33  1  0
 33 34  2  0
 34  3  1  0
 33  6  1  0
 22  8  1  0
 29 24  1  0
 20 15  1  0
  1 35  1  0
  1 36  1  0
  1 37  1  0
  4 38  1  0
  5 39  1  0
  9 40  1  0
 10 41  1  0
 13 42  1  0
 13 43  1  0
 14 44  1  0
 14 45  1  0
 16 46  1  0
 16 47  1  0
 17 48  1  0
 17 49  1  0
 19 50  1  0
 19 51  1  0
 20 52  1  0
 20 53  1  0
 21 54  1  0
 22 55  1  0
 25 56  1  0
 26 57  1  0
 27 58  1  0
 28 59  1  0
 31 60  1  0
 31 61  1  0
 31 62  1  0
 34 63  1  0
M  END
$$$$
