
     RDKit          3D

 43 44  0  0  0  0  0  0  0  0999 V2000
   -1.9029    1.8817    1.3022 O   0  0  0  0  0  0  0  0  0  0  0  0
   -2.1022    1.8792    0.0840 C   0  0  0  0  0  0  0  0  0  0  0  0
   -1.0830    2.4913   -0.8815 C   0  0  0  0  0  0  0  0  0  0  0  0
    0.0085    1.6426   -1.2140 O   0  0  0  0  0  0  0  0  0  0  0  0
    0.7886    1.2820   -0.0774 C   0  0  0  0  0  0  0  0  0  0  0  0
    2.1964    0.7671   -0.4272 C   0  0  0  0  0  0  0  0  0  0  0  0
    2.6986    0.8762   -1.5449 O   0  0  0  0  0  0  0  0  0  0  0  0
    2.8207    0.1987    0.6891 N   0  0  0  0  0  0  0  0  0  0  0  0
    4.0469   -0.4244    0.6669 N   0  0  0  0  0  0  0  0  0  0  0  0
    4.9836    0.1394   -0.0305 C   0  0  0  0  0  0  0  0  0  0  0  0
    6.3363   -0.4539   -0.1375 C   0  0  0  0  0  0  0  0  0  0  0  0
    7.3374    0.2725   -0.7903 C   0  0  0  0  0  0  0  0  0  0  0  0
    8.6301   -0.2540   -0.8802 C   0  0  0  0  0  0  0  0  0  0  0  0
    8.9070   -1.5013   -0.3244 C   0  0  0  0  0  0  0  0  0  0  0  0
   10.1486   -2.0023   -0.4090 F   0  0  0  0  0  0  0  0  0  0  0  0
    7.9149   -2.2400    0.3159 C   0  0  0  0  0  0  0  0  0  0  0  0
    6.6217   -1.7145    0.4119 C   0  0  0  0  0  0  0  0  0  0  0  0
   -3.2016    1.3185   -0.5611 N   0  0  0  0  0  0  0  0  0  0  0  0
   -4.1879    0.7270    0.1734 N   0  0  0  0  0  0  0  0  0  0  0  0
   -5.1891    0.2434   -0.5012 C   0  0  0  0  0  0  0  0  0  0  0  0
   -6.3295   -0.4188    0.1733 C   0  0  0  0  0  0  0  0  0  0  0  0
   -6.2890   -0.6813    1.5490 C   0  0  0  0  0  0  0  0  0  0  0  0
   -7.3813   -1.2934    2.1714 C   0  0  0  0  0  0  0  0  0  0  0  0
   -8.5027   -1.6334    1.4148 C   0  0  0  0  0  0  0  0  0  0  0  0
   -9.5525   -2.2125    2.0152 F   0  0  0  0  0  0  0  0  0  0  0  0
   -8.5478   -1.3853    0.0450 C   0  0  0  0  0  0  0  0  0  0  0  0
   -7.4562   -0.7751   -0.5839 C   0  0  0  0  0  0  0  0  0  0  0  0
   -0.7171    3.4378   -0.4552 H   0  0  0  0  0  0  0  0  0  0  0  0
   -1.5888    2.7555   -1.8207 H   0  0  0  0  0  0  0  0  0  0  0  0
    0.2602    0.4917    0.4676 H   0  0  0  0  0  0  0  0  0  0  0  0
    0.9270    2.1526    0.5796 H   0  0  0  0  0  0  0  0  0  0  0  0
    2.2201   -0.1280    1.4450 H   0  0  0  0  0  0  0  0  0  0  0  0
    4.8392    1.1122   -0.5378 H   0  0  0  0  0  0  0  0  0  0  0  0
    7.1219    1.2403   -1.2296 H   0  0  0  0  0  0  0  0  0  0  0  0
    9.4222    0.2955   -1.3782 H   0  0  0  0  0  0  0  0  0  0  0  0
    8.1531   -3.2195    0.7335 H   0  0  0  0  0  0  0  0  0  0  0  0
    5.8437   -2.2901    0.9104 H   0  0  0  0  0  0  0  0  0  0  0  0
   -3.2447    1.2713   -1.5803 H   0  0  0  0  0  0  0  0  0  0  0  0
   -5.2424    0.3203   -1.6030 H   0  0  0  0  0  0  0  0  0  0  0  0
   -5.4103   -0.4171    2.1360 H   0  0  0  0  0  0  0  0  0  0  0  0
   -7.3648   -1.5028    3.2374 H   0  0  0  0  0  0  0  0  0  0  0  0
   -9.4333   -1.6681   -0.5213 H   0  0  0  0  0  0  0  0  0  0  0  0
   -7.4995   -0.5808   -1.6540 H   0  0  0  0  0  0  0  0  0  0  0  0
  1  2  2  0
  2  3  1  0
  3  4  1  0
  4  5  1  0
  5  6  1  0
  6  7  2  0
  6  8  1  0
  8  9  1  0
  9 10  2  3
 10 11  1  0
 11 12  2  0
 12 13  1  0
 13 14  2  0
 14 15  1  0
 14 16  1  0
 16 17  2  0
  2 18  1  0
 18 19  1  0
 19 20  2  3
 20 21  1  0
 21 22  2  0
 22 23  1  0
 23 24  2  0
 24 25  1  0
 24 26  1  0
 26 27  2  0
 17 11  1  0
 27 21  1  0
  3 28  1  0
  3 29  1  0
  5 30  1  0
  5 31  1  0
  8 32  1  0
 10 33  1  0
 12 34  1  0
 13 35  1  0
 16 36  1  0
 17 37  1  0
 18 38  1  0
 20 39  1  0
 22 40  1  0
 23 41  1  0
 26 42  1  0
 27 43  1  0
M  END
$$$$
