
     RDKit          3D

 36 38  0  0  0  0  0  0  0  0999 V2000
    3.1690    2.5470    1.2573 N   0  0  0  0  0  0  0  0  0  0  0  0
    2.4086    1.8023    0.7927 C   0  0  0  0  0  0  0  0  0  0  0  0
    1.4556    0.8978    0.2171 C   0  0  0  0  0  0  0  0  0  0  0  0
    0.0813    1.2024    0.2219 C   0  0  0  0  0  0  0  0  0  0  0  0
   -0.4575    2.4332    0.8184 C   0  0  0  0  0  0  0  0  0  0  0  0
   -0.6041    2.5525    2.2092 C   0  0  0  0  0  0  0  0  0  0  0  0
   -1.1221    3.7203    2.7731 C   0  0  0  0  0  0  0  0  0  0  0  0
   -1.5025    4.7814    1.9545 C   0  0  0  0  0  0  0  0  0  0  0  0
   -1.3660    4.6770    0.5721 C   0  0  0  0  0  0  0  0  0  0  0  0
   -0.8478    3.5098    0.0068 C   0  0  0  0  0  0  0  0  0  0  0  0
   -0.8117    0.2907   -0.3623 C   0  0  0  0  0  0  0  0  0  0  0  0
   -0.3251   -0.8793   -0.9259 C   0  0  0  0  0  0  0  0  0  0  0  0
   -1.2134   -1.8692   -1.5531 C   0  0  0  0  0  0  0  0  0  0  0  0
   -2.4616   -1.6874   -2.1280 C   0  0  0  0  0  0  0  0  0  0  0  0
   -3.0283   -2.8980   -2.6253 C   0  0  0  0  0  0  0  0  0  0  0  0
   -2.2005   -3.9756   -2.4157 C   0  0  0  0  0  0  0  0  0  0  0  0
   -0.7542   -3.5279   -1.6265 S   0  0  0  0  0  0  0  0  0  0  0  0
    0.9933   -1.1719   -0.9400 N   0  0  0  0  0  0  0  0  0  0  0  0
    1.8618   -0.3035   -0.3649 C   0  0  0  0  0  0  0  0  0  0  0  0
    3.5819   -0.8022   -0.4347 S   0  0  0  0  0  0  0  0  0  0  0  0
    3.3927   -2.6158   -0.4108 C   0  0  0  0  0  0  0  0  0  0  0  0
    2.6879   -3.1091    0.8326 C   0  0  0  0  0  0  0  0  0  0  0  0
    2.3165   -2.4718    1.8055 O   0  0  0  0  0  0  0  0  0  0  0  0
    2.5025   -4.4487    0.8018 O   0  0  0  0  0  0  0  0  0  0  0  0
   -0.3118    1.7360    2.8671 H   0  0  0  0  0  0  0  0  0  0  0  0
   -1.2232    3.8031    3.8524 H   0  0  0  0  0  0  0  0  0  0  0  0
   -1.9003    5.6922    2.3951 H   0  0  0  0  0  0  0  0  0  0  0  0
   -1.6575    5.5073   -0.0662 H   0  0  0  0  0  0  0  0  0  0  0  0
   -0.7428    3.4509   -1.0747 H   0  0  0  0  0  0  0  0  0  0  0  0
   -1.8782    0.4987   -0.3527 H   0  0  0  0  0  0  0  0  0  0  0  0
   -2.9534   -0.7251   -2.2035 H   0  0  0  0  0  0  0  0  0  0  0  0
   -3.9923   -2.9724   -3.1138 H   0  0  0  0  0  0  0  0  0  0  0  0
   -2.3728   -5.0075   -2.6894 H   0  0  0  0  0  0  0  0  0  0  0  0
    2.8505   -2.9467   -1.3013 H   0  0  0  0  0  0  0  0  0  0  0  0
    4.3960   -3.0520   -0.4282 H   0  0  0  0  0  0  0  0  0  0  0  0
    2.0299   -4.6386    1.6394 H   0  0  0  0  0  0  0  0  0  0  0  0
  1  2  3  0
  2  3  1  0
  3  4  2  0
  4  5  1  0
  5  6  2  0
  6  7  1  0
  7  8  2  0
  8  9  1  0
  9 10  2  0
  4 11  1  0
 11 12  2  0
 12 13  1  0
 13 14  2  0
 14 15  1  0
 15 16  2  0
 16 17  1  0
 12 18  1  0
 18 19  2  0
 19 20  1  0
 20 21  1  0
 21 22  1  0
 22 23  2  0
 22 24  1  0
 19  3  1  0
 10  5  1  0
 17 13  1  0
  6 25  1  0
  7 26  1  0
  8 27  1  0
  9 28  1  0
 10 29  1  0
 11 30  1  0
 14 31  1  0
 15 32  1  0
 16 33  1  0
 21 34  1  0
 21 35  1  0
 24 36  1  0
M  END
$$$$
