
     RDKit          3D

 42 44  0  0  0  0  0  0  0  0999 V2000
   -6.4098    1.2913    1.4830 C   0  0  0  0  0  0  0  0  0  0  0  0
   -5.1514    0.8157    0.8182 C   0  0  0  0  0  0  0  0  0  0  0  0
   -4.5534    1.5787   -0.1902 C   0  0  0  0  0  0  0  0  0  0  0  0
   -3.3590    1.1648   -0.8016 C   0  0  0  0  0  0  0  0  0  0  0  0
   -2.7567    2.0226   -1.8836 C   0  0  0  0  0  0  0  0  0  0  0  0
   -2.7539   -0.0421   -0.3865 C   0  0  0  0  0  0  0  0  0  0  0  0
   -1.5282   -0.4952   -1.0250 C   0  0  0  0  0  0  0  0  0  0  0  0
   -1.5208   -1.3495   -2.1094 C   0  0  0  0  0  0  0  0  0  0  0  0
    0.0989   -1.6532   -2.5773 S   0  0  0  0  0  0  0  0  0  0  0  0
    0.6450   -0.6342   -1.3261 C   0  0  0  0  0  0  0  0  0  0  0  0
    1.9705   -0.3934   -1.0756 N   0  0  0  0  0  0  0  0  0  0  0  0
    3.0432   -0.8510   -1.7932 C   0  0  0  0  0  0  0  0  0  0  0  0
    3.0419   -1.4976   -2.8320 O   0  0  0  0  0  0  0  0  0  0  0  0
    4.3540   -0.4222   -1.2347 C   0  0  0  0  0  0  0  0  0  0  0  0
    4.6301   -0.4804    0.0777 C   0  0  0  0  0  0  0  0  0  0  0  0
    5.8888   -0.1166    0.6494 C   0  0  0  0  0  0  0  0  0  0  0  0
    6.3036   -0.3558    1.9520 C   0  0  0  0  0  0  0  0  0  0  0  0
    7.6107    0.1371    2.2322 C   0  0  0  0  0  0  0  0  0  0  0  0
    8.1687    0.7520    1.1376 C   0  0  0  0  0  0  0  0  0  0  0  0
    7.1207    0.7336   -0.2081 S   0  0  0  0  0  0  0  0  0  0  0  0
   -0.2850   -0.0903   -0.5767 N   0  0  0  0  0  0  0  0  0  0  0  0
   -3.3324   -0.8041    0.6526 C   0  0  0  0  0  0  0  0  0  0  0  0
   -2.7035   -2.0810    1.1456 C   0  0  0  0  0  0  0  0  0  0  0  0
   -4.5283   -0.3630    1.2419 C   0  0  0  0  0  0  0  0  0  0  0  0
   -6.1634    1.9427    2.3275 H   0  0  0  0  0  0  0  0  0  0  0  0
   -7.0379    1.8465    0.7779 H   0  0  0  0  0  0  0  0  0  0  0  0
   -7.0025    0.4462    1.8489 H   0  0  0  0  0  0  0  0  0  0  0  0
   -5.0239    2.5097   -0.5026 H   0  0  0  0  0  0  0  0  0  0  0  0
   -3.3369    2.9386   -2.0387 H   0  0  0  0  0  0  0  0  0  0  0  0
   -2.7386    1.4809   -2.8347 H   0  0  0  0  0  0  0  0  0  0  0  0
   -1.7399    2.3249   -1.6123 H   0  0  0  0  0  0  0  0  0  0  0  0
   -2.3572   -1.7939   -2.6296 H   0  0  0  0  0  0  0  0  0  0  0  0
    2.1104    0.2322   -0.2956 H   0  0  0  0  0  0  0  0  0  0  0  0
    5.0807   -0.1454   -1.9904 H   0  0  0  0  0  0  0  0  0  0  0  0
    3.8806   -0.8579    0.7701 H   0  0  0  0  0  0  0  0  0  0  0  0
    5.6915   -0.8733    2.6819 H   0  0  0  0  0  0  0  0  0  0  0  0
    8.1135    0.0445    3.1873 H   0  0  0  0  0  0  0  0  0  0  0  0
    9.1433    1.2145    1.0622 H   0  0  0  0  0  0  0  0  0  0  0  0
   -2.7239   -2.8437    0.3607 H   0  0  0  0  0  0  0  0  0  0  0  0
   -1.6701   -1.9044    1.4613 H   0  0  0  0  0  0  0  0  0  0  0  0
   -3.2402   -2.4840    2.0112 H   0  0  0  0  0  0  0  0  0  0  0  0
   -4.9792   -0.9440    2.0446 H   0  0  0  0  0  0  0  0  0  0  0  0
  1  2  1  0
  2  3  2  0
  3  4  1  0
  4  5  1  0
  4  6  2  0
  6  7  1  0
  7  8  2  0
  8  9  1  0
  9 10  1  0
 10 11  1  0
 11 12  1  0
 12 13  2  0
 12 14  1  0
 14 15  2  3
 15 16  1  0
 16 17  2  0
 17 18  1  0
 18 19  2  0
 19 20  1  0
 10 21  2  0
  6 22  1  0
 22 23  1  0
 22 24  2  0
 24  2  1  0
 21  7  1  0
 20 16  1  0
  1 25  1  0
  1 26  1  0
  1 27  1  0
  3 28  1  0
  5 29  1  0
  5 30  1  0
  5 31  1  0
  8 32  1  0
 11 33  1  0
 14 34  1  0
 15 35  1  0
 17 36  1  0
 18 37  1  0
 19 38  1  0
 23 39  1  0
 23 40  1  0
 23 41  1  0
 24 42  1  0
M  END
$$$$
