
     RDKit          3D

 47 48  0  0  0  0  0  0  0  0999 V2000
   -1.9248    3.4489   -2.6821 C   0  0  0  0  0  0  0  0  0  0  0  0
   -2.0052    1.6672   -2.9947 S   0  0  0  0  0  0  0  0  0  0  0  0
   -0.8557    1.0810   -1.7062 C   0  0  0  0  0  0  0  0  0  0  0  0
   -1.4680    1.1766   -0.3100 C   0  0  0  0  0  0  0  0  0  0  0  0
   -0.5688    0.5140    0.7392 C   0  0  0  0  0  0  0  0  0  0  0  0
    0.6700    1.3172    0.9020 N   0  0  0  0  0  0  0  0  0  0  0  0
    2.0470    0.4763    1.3911 S   0  0  0  0  0  6  0  0  0  0  0  0
    2.9429    1.4439    1.9811 O   0  0  0  0  0  0  0  0  0  0  0  0
    1.6275   -0.7185    2.0894 O   0  0  0  0  0  0  0  0  0  0  0  0
    2.7259    0.0098   -0.1810 C   0  0  0  0  0  0  0  0  0  0  0  0
    2.6892   -1.3244   -0.5909 C   0  0  0  0  0  0  0  0  0  0  0  0
    3.2143   -1.6733   -1.8363 C   0  0  0  0  0  0  0  0  0  0  0  0
    3.7700   -0.6953   -2.6734 C   0  0  0  0  0  0  0  0  0  0  0  0
    4.3646   -1.0805   -3.9967 C   0  0  0  0  0  0  0  0  0  0  0  0
    3.8223    0.6355   -2.2361 C   0  0  0  0  0  0  0  0  0  0  0  0
    3.2999    0.9916   -0.9923 C   0  0  0  0  0  0  0  0  0  0  0  0
   -1.2903    0.5124    2.0989 C   0  0  0  0  0  0  0  0  0  0  0  0
   -1.1689    1.4777    2.8613 O   0  0  0  0  0  0  0  0  0  0  0  0
   -2.1068   -0.5530    2.3979 N   0  0  0  0  0  0  0  0  0  0  0  0
   -2.8550   -0.5954    3.6418 C   0  0  0  0  0  0  0  0  0  0  0  0
   -3.8055   -1.7689    3.4652 C   0  0  0  0  0  0  0  0  0  0  0  0
   -2.9967   -2.7274    2.6014 C   0  0  0  0  0  0  0  0  0  0  0  0
   -2.2467   -1.7971    1.6562 C   0  0  0  0  0  0  0  0  0  0  0  0
   -2.3703    3.6933   -1.7150 H   0  0  0  0  0  0  0  0  0  0  0  0
   -2.4882    3.9720   -3.4595 H   0  0  0  0  0  0  0  0  0  0  0  0
   -0.8892    3.7973   -2.7127 H   0  0  0  0  0  0  0  0  0  0  0  0
   -0.6231    0.0362   -1.9388 H   0  0  0  0  0  0  0  0  0  0  0  0
    0.0791    1.6460   -1.7777 H   0  0  0  0  0  0  0  0  0  0  0  0
   -2.4497    0.6860   -0.3024 H   0  0  0  0  0  0  0  0  0  0  0  0
   -1.6387    2.2259   -0.0388 H   0  0  0  0  0  0  0  0  0  0  0  0
   -0.3214   -0.4992    0.4142 H   0  0  0  0  0  0  0  0  0  0  0  0
    0.5422    2.1432    1.4995 H   0  0  0  0  0  0  0  0  0  0  0  0
    2.2636   -2.0944    0.0479 H   0  0  0  0  0  0  0  0  0  0  0  0
    3.1920   -2.7149   -2.1510 H   0  0  0  0  0  0  0  0  0  0  0  0
    4.2811   -0.2591   -4.7161 H   0  0  0  0  0  0  0  0  0  0  0  0
    5.4213   -1.3360   -3.8716 H   0  0  0  0  0  0  0  0  0  0  0  0
    3.8399   -1.9411   -4.4247 H   0  0  0  0  0  0  0  0  0  0  0  0
    4.2739    1.4020   -2.8629 H   0  0  0  0  0  0  0  0  0  0  0  0
    3.3433    2.0268   -0.6613 H   0  0  0  0  0  0  0  0  0  0  0  0
   -2.1449   -0.7737    4.4571 H   0  0  0  0  0  0  0  0  0  0  0  0
   -3.3737    0.3510    3.8214 H   0  0  0  0  0  0  0  0  0  0  0  0
   -4.7029   -1.4488    2.9221 H   0  0  0  0  0  0  0  0  0  0  0  0
   -4.1166   -2.2077    4.4170 H   0  0  0  0  0  0  0  0  0  0  0  0
   -2.2838   -3.2766    3.2284 H   0  0  0  0  0  0  0  0  0  0  0  0
   -3.6167   -3.4557    2.0716 H   0  0  0  0  0  0  0  0  0  0  0  0
   -1.2710   -2.2023    1.3756 H   0  0  0  0  0  0  0  0  0  0  0  0
   -2.8274   -1.5885    0.7519 H   0  0  0  0  0  0  0  0  0  0  0  0
  1  2  1  0
  2  3  1  0
  3  4  1  0
  4  5  1  0
  5  6  1  0
  6  7  1  0
  7  8  2  0
  7  9  2  0
  7 10  1  0
 10 11  2  0
 11 12  1  0
 12 13  2  0
 13 14  1  0
 13 15  1  0
 15 16  2  0
  5 17  1  0
 17 18  2  0
 17 19  1  0
 19 20  1  0
 20 21  1  0
 21 22  1  0
 22 23  1  0
 16 10  1  0
 23 19  1  0
  1 24  1  0
  1 25  1  0
  1 26  1  0
  3 27  1  0
  3 28  1  0
  4 29  1  0
  4 30  1  0
  5 31  1  0
  6 32  1  0
 11 33  1  0
 12 34  1  0
 14 35  1  0
 14 36  1  0
 14 37  1  0
 15 38  1  0
 16 39  1  0
 20 40  1  0
 20 41  1  0
 21 42  1  0
 21 43  1  0
 22 44  1  0
 22 45  1  0
 23 46  1  0
 23 47  1  0
M  END
$$$$
