
     RDKit          3D

 47 49  0  0  0  0  0  0  0  0999 V2000
    0.6980    4.8751    0.8351 C   0  0  0  0  0  0  0  0  0  0  0  0
   -0.3397    4.3649   -0.0027 O   0  0  0  0  0  0  0  0  0  0  0  0
   -0.6266    3.0477    0.2192 C   0  0  0  0  0  0  0  0  0  0  0  0
   -0.1181    2.3560    1.0928 O   0  0  0  0  0  0  0  0  0  0  0  0
   -1.6931    2.5895   -0.7718 C   0  0  0  0  0  0  0  0  0  0  0  0
   -1.8745    1.1363   -0.7400 N   0  0  0  0  0  0  0  0  0  0  0  0
   -1.0888    0.2244   -1.4301 C   0  0  0  0  0  0  0  0  0  0  0  0
   -0.1093    0.5700   -2.4980 C   0  0  0  0  0  0  0  0  0  0  0  0
    1.2114    1.0085   -1.8874 C   0  0  0  0  0  0  0  0  0  0  0  0
    1.5178    2.1974   -1.8679 O   0  0  0  0  0  0  0  0  0  0  0  0
    1.9539   -0.0533   -1.3981 N   0  0  0  0  0  0  0  0  0  0  0  0
    3.2016   -0.0009   -0.7472 C   0  0  0  0  0  0  0  0  0  0  0  0
    3.7279   -1.2138   -0.2816 C   0  0  0  0  0  0  0  0  0  0  0  0
    4.9610   -1.2509    0.3767 C   0  0  0  0  0  0  0  0  0  0  0  0
    5.6737   -0.0716    0.5738 C   0  0  0  0  0  0  0  0  0  0  0  0
    7.1915   -0.1123    1.3809 Cl  0  0  0  0  0  0  0  0  0  0  0  0
    5.1624    1.1400    0.1179 C   0  0  0  0  0  0  0  0  0  0  0  0
    3.9285    1.1743   -0.5423 C   0  0  0  0  0  0  0  0  0  0  0  0
   -1.4000   -1.0088   -1.0073 C   0  0  0  0  0  0  0  0  0  0  0  0
   -0.8798   -2.1671   -1.5025 O   0  0  0  0  0  0  0  0  0  0  0  0
   -2.3928   -0.9750   -0.0441 N   0  0  0  0  0  0  0  0  0  0  0  0
   -2.9013   -2.0722    0.7025 C   0  0  0  0  0  0  0  0  0  0  0  0
   -2.0355   -3.0837    1.1496 C   0  0  0  0  0  0  0  0  0  0  0  0
   -2.5235   -4.1830    1.8625 C   0  0  0  0  0  0  0  0  0  0  0  0
   -3.8859   -4.2848    2.1282 C   0  0  0  0  0  0  0  0  0  0  0  0
   -4.4896   -5.6402    2.9967 Cl  0  0  0  0  0  0  0  0  0  0  0  0
   -4.7606   -3.2962    1.6885 C   0  0  0  0  0  0  0  0  0  0  0  0
   -4.2690   -2.1952    0.9784 C   0  0  0  0  0  0  0  0  0  0  0  0
   -2.7139    0.4237    0.1840 C   0  0  0  0  0  0  0  0  0  0  0  0
   -3.7502    1.1141    1.2949 S   0  0  0  0  0  0  0  0  0  0  0  0
    0.3541    4.9260    1.8731 H   0  0  0  0  0  0  0  0  0  0  0  0
    0.9370    5.8879    0.4983 H   0  0  0  0  0  0  0  0  0  0  0  0
    1.6027    4.2637    0.7549 H   0  0  0  0  0  0  0  0  0  0  0  0
   -1.4069    2.8927   -1.7829 H   0  0  0  0  0  0  0  0  0  0  0  0
   -2.6346    3.0839   -0.5164 H   0  0  0  0  0  0  0  0  0  0  0  0
    0.0799   -0.2854   -3.1579 H   0  0  0  0  0  0  0  0  0  0  0  0
   -0.4897    1.3633   -3.1490 H   0  0  0  0  0  0  0  0  0  0  0  0
    1.5202   -0.9693   -1.4576 H   0  0  0  0  0  0  0  0  0  0  0  0
    3.1864   -2.1461   -0.4214 H   0  0  0  0  0  0  0  0  0  0  0  0
    5.3558   -2.1987    0.7323 H   0  0  0  0  0  0  0  0  0  0  0  0
    5.7142    2.0645    0.2676 H   0  0  0  0  0  0  0  0  0  0  0  0
    3.5644    2.1386   -0.8820 H   0  0  0  0  0  0  0  0  0  0  0  0
   -1.5534   -2.8511   -1.3351 H   0  0  0  0  0  0  0  0  0  0  0  0
   -0.9614   -3.0037    0.9933 H   0  0  0  0  0  0  0  0  0  0  0  0
   -1.8347   -4.9457    2.2181 H   0  0  0  0  0  0  0  0  0  0  0  0
   -5.8265   -3.3737    1.8885 H   0  0  0  0  0  0  0  0  0  0  0  0
   -4.9829   -1.4598    0.6156 H   0  0  0  0  0  0  0  0  0  0  0  0
  1  2  1  0
  2  3  1  0
  3  4  2  0
  3  5  1  0
  5  6  1  0
  6  7  1  0
  7  8  1  0
  8  9  1  0
  9 10  2  0
  9 11  1  0
 11 12  1  0
 12 13  2  0
 13 14  1  0
 14 15  2  0
 15 16  1  0
 15 17  1  0
 17 18  2  0
  7 19  2  0
 19 20  1  0
 19 21  1  0
 21 22  1  0
 22 23  2  0
 23 24  1  0
 24 25  2  0
 25 26  1  0
 25 27  1  0
 27 28  2  0
 21 29  1  0
 29 30  2  0
 29  6  1  0
 18 12  1  0
 28 22  1  0
  1 31  1  0
  1 32  1  0
  1 33  1  0
  5 34  1  0
  5 35  1  0
  8 36  1  0
  8 37  1  0
 11 38  1  0
 13 39  1  0
 14 40  1  0
 17 41  1  0
 18 42  1  0
 20 43  1  0
 23 44  1  0
 24 45  1  0
 27 46  1  0
 28 47  1  0
M  END
$$$$
