
     RDKit          3D

 42 44  0  0  0  0  0  0  0  0999 V2000
   -5.2887    0.3895   -1.9628 C   0  0  0  0  0  0  0  0  0  0  0  0
   -4.8831    0.5421   -0.4886 C   0  0  0  0  0  0  0  0  0  0  0  0
   -5.3093    1.9220    0.0360 C   0  0  0  0  0  0  0  0  0  0  0  0
   -5.6145   -0.5366    0.3309 C   0  0  0  0  0  0  0  0  0  0  0  0
   -3.4420    0.3406   -0.3192 N   0  0  0  0  0  0  0  0  0  0  0  0
   -2.4416    1.1053   -0.8955 C   0  0  0  0  0  0  0  0  0  0  0  0
   -2.6533    2.0625   -1.6326 O   0  0  0  0  0  0  0  0  0  0  0  0
   -1.0819    0.6455   -0.5272 C   0  0  0  0  0  0  0  0  0  0  0  0
    0.0714    1.2410   -0.9727 N   0  0  0  0  0  0  0  0  0  0  0  0
    1.0333    0.5390   -0.4236 C   0  0  0  0  0  0  0  0  0  0  0  0
    2.3821    0.6989   -0.5353 N   0  0  0  0  0  0  0  0  0  0  0  0
    3.1386   -0.1420    0.1089 C   0  0  0  0  0  0  0  0  0  0  0  0
    4.6212   -0.0052    0.0097 C   0  0  0  0  0  0  0  0  0  0  0  0
    5.4750   -1.1154    0.0415 C   0  0  0  0  0  0  0  0  0  0  0  0
    6.8576   -0.9375   -0.0567 C   0  0  0  0  0  0  0  0  0  0  0  0
    7.3914    0.3432   -0.1956 C   0  0  0  0  0  0  0  0  0  0  0  0
    6.5457    1.4497   -0.2459 C   0  0  0  0  0  0  0  0  0  0  0  0
    5.1639    1.2771   -0.1487 C   0  0  0  0  0  0  0  0  0  0  0  0
    2.6173   -1.2438    0.9819 C   0  0  0  0  0  0  0  0  0  0  0  0
    1.2776   -1.3616    1.0604 C   0  0  0  0  0  0  0  0  0  0  0  0
    0.5811   -2.3815    1.8742 C   0  0  0  0  0  0  0  0  0  0  0  0
    1.4650   -3.1893    2.5231 F   0  0  0  0  0  0  0  0  0  0  0  0
   -0.2030   -1.8356    2.8356 F   0  0  0  0  0  0  0  0  0  0  0  0
   -0.1957   -3.2029    1.1261 F   0  0  0  0  0  0  0  0  0  0  0  0
    0.4736   -0.4771    0.3558 N   0  0  0  0  0  0  0  0  0  0  0  0
   -0.8771   -0.4096    0.2878 N   0  0  0  0  0  0  0  0  0  0  0  0
   -6.3762    0.4540   -2.0826 H   0  0  0  0  0  0  0  0  0  0  0  0
   -4.9627   -0.5779   -2.3621 H   0  0  0  0  0  0  0  0  0  0  0  0
   -4.8452    1.1678   -2.5921 H   0  0  0  0  0  0  0  0  0  0  0  0
   -6.3975    2.0437   -0.0095 H   0  0  0  0  0  0  0  0  0  0  0  0
   -4.8660    2.7361   -0.5465 H   0  0  0  0  0  0  0  0  0  0  0  0
   -4.9983    2.0597    1.0780 H   0  0  0  0  0  0  0  0  0  0  0  0
   -5.3399   -1.5428   -0.0069 H   0  0  0  0  0  0  0  0  0  0  0  0
   -5.3544   -0.4688    1.3938 H   0  0  0  0  0  0  0  0  0  0  0  0
   -6.7023   -0.4377    0.2438 H   0  0  0  0  0  0  0  0  0  0  0  0
   -3.1101   -0.4192    0.2692 H   0  0  0  0  0  0  0  0  0  0  0  0
    5.0900   -2.1281    0.1132 H   0  0  0  0  0  0  0  0  0  0  0  0
    7.5206   -1.7995   -0.0362 H   0  0  0  0  0  0  0  0  0  0  0  0
    8.4674    0.4788   -0.2765 H   0  0  0  0  0  0  0  0  0  0  0  0
    6.9600    2.4478   -0.3670 H   0  0  0  0  0  0  0  0  0  0  0  0
    4.5144    2.1495   -0.1976 H   0  0  0  0  0  0  0  0  0  0  0  0
    3.2958   -1.8815    1.5350 H   0  0  0  0  0  0  0  0  0  0  0  0
  1  2  1  0
  2  3  1  0
  2  4  1  0
  2  5  1  0
  5  6  1  0
  6  7  2  0
  6  8  1  0
  8  9  1  0
  9 10  2  0
 10 11  1  0
 11 12  2  0
 12 13  1  0
 13 14  2  0
 14 15  1  0
 15 16  2  0
 16 17  1  0
 17 18  2  0
 12 19  1  0
 19 20  2  0
 20 21  1  0
 21 22  1  0
 21 23  1  0
 21 24  1  0
 20 25  1  0
 25 26  1  0
 26  8  2  0
 25 10  1  0
 18 13  1  0
  1 27  1  0
  1 28  1  0
  1 29  1  0
  3 30  1  0
  3 31  1  0
  3 32  1  0
  4 33  1  0
  4 34  1  0
  4 35  1  0
  5 36  1  0
 14 37  1  0
 15 38  1  0
 16 39  1  0
 17 40  1  0
 18 41  1  0
 19 42  1  0
M  END
$$$$
