
     RDKit          3D

 50 52  0  0  0  0  0  0  0  0999 V2000
    7.7919   -0.4055   -1.1244 C   0  0  0  0  0  0  0  0  0  0  0  0
    6.2960   -0.2691   -1.1551 C   0  0  0  0  0  0  0  0  0  0  0  0
    5.5498   -0.9325   -2.1398 C   0  0  0  0  0  0  0  0  0  0  0  0
    4.1542   -0.8461   -2.1714 C   0  0  0  0  0  0  0  0  0  0  0  0
    3.2527   -1.6566   -3.3859 Cl  0  0  0  0  0  0  0  0  0  0  0  0
    3.5377   -0.0840   -1.1798 C   0  0  0  0  0  0  0  0  0  0  0  0
    2.1996    0.1224   -1.0373 O   0  0  0  0  0  0  0  0  0  0  0  0
    2.0179    0.9205    0.0613 C   0  0  0  0  0  0  0  0  0  0  0  0
    0.6640    1.2877    0.4342 C   0  0  0  0  0  0  0  0  0  0  0  0
    0.3909    1.9822    1.4086 O   0  0  0  0  0  0  0  0  0  0  0  0
   -0.2977    0.7738   -0.4087 N   0  0  0  0  0  0  0  0  0  0  0  0
   -1.7224    0.9968   -0.2358 C   0  0  0  0  0  0  0  0  0  0  0  0
   -2.5078   -0.2123    0.3915 C   0  0  0  0  0  0  0  0  0  0  0  0
   -2.2524   -1.4961   -0.4313 C   0  0  0  0  0  0  0  0  0  0  0  0
   -1.9510   -0.4474    1.8191 C   0  0  0  0  0  0  0  0  0  0  0  0
   -3.9581    0.1361    0.4420 N   0  0  0  0  0  0  0  0  0  0  0  0
   -4.6497    0.2915   -0.8556 C   0  0  0  0  0  0  0  0  0  0  0  0
   -5.7094   -0.7916   -1.1237 C   0  0  0  0  0  0  0  0  0  0  0  0
   -6.7353   -0.8450   -0.1265 O   0  0  0  0  0  0  0  0  0  0  0  0
   -6.2871   -0.4053    1.1612 C   0  0  0  0  0  0  0  0  0  0  0  0
   -4.7845   -0.6419    1.3869 C   0  0  0  0  0  0  0  0  0  0  0  0
    3.2467    1.2296    0.6304 C   0  0  0  0  0  0  0  0  0  0  0  0
    3.4716    2.0691    1.8353 C   0  0  0  0  0  0  0  0  0  0  0  0
    4.2326    0.5797   -0.1758 C   0  0  0  0  0  0  0  0  0  0  0  0
    5.6389    0.4801   -0.1598 C   0  0  0  0  0  0  0  0  0  0  0  0
    8.2568    0.4886   -0.6959 H   0  0  0  0  0  0  0  0  0  0  0  0
    8.0752   -1.2750   -0.5235 H   0  0  0  0  0  0  0  0  0  0  0  0
    8.1936   -0.5268   -2.1359 H   0  0  0  0  0  0  0  0  0  0  0  0
    6.0609   -1.5260   -2.8959 H   0  0  0  0  0  0  0  0  0  0  0  0
    0.0293    0.2129   -1.1880 H   0  0  0  0  0  0  0  0  0  0  0  0
   -2.0921    1.2287   -1.2394 H   0  0  0  0  0  0  0  0  0  0  0  0
   -1.8737    1.8945    0.3763 H   0  0  0  0  0  0  0  0  0  0  0  0
   -2.8393   -2.3410   -0.0557 H   0  0  0  0  0  0  0  0  0  0  0  0
   -1.1996   -1.7974   -0.3800 H   0  0  0  0  0  0  0  0  0  0  0  0
   -2.4956   -1.3631   -1.4903 H   0  0  0  0  0  0  0  0  0  0  0  0
   -2.4143   -1.3131    2.3053 H   0  0  0  0  0  0  0  0  0  0  0  0
   -0.8755   -0.6543    1.8042 H   0  0  0  0  0  0  0  0  0  0  0  0
   -2.1109    0.4296    2.4569 H   0  0  0  0  0  0  0  0  0  0  0  0
   -3.9638    0.3320   -1.7061 H   0  0  0  0  0  0  0  0  0  0  0  0
   -5.1551    1.2651   -0.8271 H   0  0  0  0  0  0  0  0  0  0  0  0
   -6.1992   -0.6047   -2.0849 H   0  0  0  0  0  0  0  0  0  0  0  0
   -5.2439   -1.7819   -1.1862 H   0  0  0  0  0  0  0  0  0  0  0  0
   -6.8695   -0.9482    1.9128 H   0  0  0  0  0  0  0  0  0  0  0  0
   -6.5343    0.6578    1.2660 H   0  0  0  0  0  0  0  0  0  0  0  0
   -4.5469   -0.3493    2.4151 H   0  0  0  0  0  0  0  0  0  0  0  0
   -4.5881   -1.7146    1.2761 H   0  0  0  0  0  0  0  0  0  0  0  0
    2.9748    1.6297    2.7063 H   0  0  0  0  0  0  0  0  0  0  0  0
    3.0748    3.0774    1.6794 H   0  0  0  0  0  0  0  0  0  0  0  0
    4.5365    2.1616    2.0691 H   0  0  0  0  0  0  0  0  0  0  0  0
    6.2106    0.9816    0.6173 H   0  0  0  0  0  0  0  0  0  0  0  0
  1  2  1  0
  2  3  2  0
  3  4  1  0
  4  5  1  0
  4  6  2  0
  6  7  1  0
  7  8  1  0
  8  9  1  0
  9 10  2  0
  9 11  1  0
 11 12  1  0
 12 13  1  0
 13 14  1  0
 13 15  1  0
 13 16  1  0
 16 17  1  0
 17 18  1  0
 18 19  1  0
 19 20  1  0
 20 21  1  0
  8 22  2  0
 22 23  1  0
 22 24  1  0
 24 25  2  0
 25  2  1  0
 24  6  1  0
 21 16  1  0
  1 26  1  0
  1 27  1  0
  1 28  1  0
  3 29  1  0
 11 30  1  0
 12 31  1  0
 12 32  1  0
 14 33  1  0
 14 34  1  0
 14 35  1  0
 15 36  1  0
 15 37  1  0
 15 38  1  0
 17 39  1  0
 17 40  1  0
 18 41  1  0
 18 42  1  0
 20 43  1  0
 20 44  1  0
 21 45  1  0
 21 46  1  0
 23 47  1  0
 23 48  1  0
 23 49  1  0
 25 50  1  0
M  END
$$$$
