
     RDKit          3D

 51 54  0  0  0  0  0  0  0  0999 V2000
   -2.1375   -3.9077   -3.2085 C   0  0  0  0  0  0  0  0  0  0  0  0
   -2.6718   -3.3534   -2.0117 O   0  0  0  0  0  0  0  0  0  0  0  0
   -2.2338   -2.1070   -1.6580 C   0  0  0  0  0  0  0  0  0  0  0  0
   -2.7710   -1.6210   -0.4604 C   0  0  0  0  0  0  0  0  0  0  0  0
   -2.3977   -0.3691    0.0308 C   0  0  0  0  0  0  0  0  0  0  0  0
   -1.4685    0.3932   -0.6787 C   0  0  0  0  0  0  0  0  0  0  0  0
   -1.0834    1.7221   -0.1572 C   0  0  0  0  0  0  0  0  0  0  0  0
   -1.9646    2.6672   -0.2459 N   0  0  0  0  0  0  0  0  0  0  0  0
   -1.6394    3.9400    0.2315 C   0  0  0  0  0  0  0  0  0  0  0  0
   -2.5766    4.9678    0.1036 C   0  0  0  0  0  0  0  0  0  0  0  0
   -2.2923    6.2539    0.5719 C   0  0  0  0  0  0  0  0  0  0  0  0
   -1.0643    6.5219    1.1756 C   0  0  0  0  0  0  0  0  0  0  0  0
   -0.1209    5.5038    1.3086 C   0  0  0  0  0  0  0  0  0  0  0  0
   -0.4170    4.2202    0.8333 C   0  0  0  0  0  0  0  0  0  0  0  0
    0.5498    3.1184    0.9616 C   0  0  0  0  0  0  0  0  0  0  0  0
    1.6092    3.3124    1.5549 O   0  0  0  0  0  0  0  0  0  0  0  0
    0.1794    1.8917    0.4071 N   0  0  0  0  0  0  0  0  0  0  0  0
    1.1417    0.7950    0.5848 C   0  0  0  0  0  0  0  0  0  0  0  0
    0.9676    0.0747    1.9279 C   0  0  0  0  0  0  0  0  0  0  0  0
    1.9801   -0.9155    2.1351 O   0  0  0  0  0  0  0  0  0  0  0  0
    1.9328   -2.0460    1.3631 C   0  0  0  0  0  0  0  0  0  0  0  0
    0.7486   -2.6453    0.9261 C   0  0  0  0  0  0  0  0  0  0  0  0
    0.7902   -3.7991    0.1400 C   0  0  0  0  0  0  0  0  0  0  0  0
    2.0141   -4.3708   -0.1964 C   0  0  0  0  0  0  0  0  0  0  0  0
    3.1997   -3.7938    0.2582 C   0  0  0  0  0  0  0  0  0  0  0  0
    3.1707   -2.6335    1.0456 C   0  0  0  0  0  0  0  0  0  0  0  0
    4.4572   -2.0256    1.5299 C   0  0  0  0  0  0  0  0  0  0  0  0
   -0.9544   -0.0621   -1.8948 C   0  0  0  0  0  0  0  0  0  0  0  0
   -1.3305   -1.3193   -2.3777 C   0  0  0  0  0  0  0  0  0  0  0  0
   -1.0519   -4.0286   -3.1370 H   0  0  0  0  0  0  0  0  0  0  0  0
   -2.5739   -4.9025   -3.3399 H   0  0  0  0  0  0  0  0  0  0  0  0
   -2.4142   -3.3040   -4.0810 H   0  0  0  0  0  0  0  0  0  0  0  0
   -3.4891   -2.2240    0.0912 H   0  0  0  0  0  0  0  0  0  0  0  0
   -2.8247    0.0020    0.9597 H   0  0  0  0  0  0  0  0  0  0  0  0
   -3.5355    4.7608   -0.3667 H   0  0  0  0  0  0  0  0  0  0  0  0
   -3.0315    7.0439    0.4652 H   0  0  0  0  0  0  0  0  0  0  0  0
   -0.8422    7.5211    1.5421 H   0  0  0  0  0  0  0  0  0  0  0  0
    0.8381    5.7081    1.7795 H   0  0  0  0  0  0  0  0  0  0  0  0
    1.0702    0.0858   -0.2419 H   0  0  0  0  0  0  0  0  0  0  0  0
    2.1624    1.1937    0.5254 H   0  0  0  0  0  0  0  0  0  0  0  0
    1.0871    0.8028    2.7393 H   0  0  0  0  0  0  0  0  0  0  0  0
   -0.0390   -0.3353    2.0603 H   0  0  0  0  0  0  0  0  0  0  0  0
   -0.2244   -2.2510    1.1949 H   0  0  0  0  0  0  0  0  0  0  0  0
   -0.1370   -4.2548   -0.1996 H   0  0  0  0  0  0  0  0  0  0  0  0
    2.0457   -5.2699   -0.8039 H   0  0  0  0  0  0  0  0  0  0  0  0
    4.1498   -4.2572   -0.0030 H   0  0  0  0  0  0  0  0  0  0  0  0
    5.3257   -2.6132    1.2151 H   0  0  0  0  0  0  0  0  0  0  0  0
    4.5735   -1.0163    1.1225 H   0  0  0  0  0  0  0  0  0  0  0  0
    4.4658   -1.9793    2.6226 H   0  0  0  0  0  0  0  0  0  0  0  0
   -0.2649    0.5549   -2.4656 H   0  0  0  0  0  0  0  0  0  0  0  0
   -0.9073   -1.6501   -3.3208 H   0  0  0  0  0  0  0  0  0  0  0  0
  1  2  1  0
  2  3  1  0
  3  4  2  0
  4  5  1  0
  5  6  2  0
  6  7  1  0
  7  8  2  0
  8  9  1  0
  9 10  2  0
 10 11  1  0
 11 12  2  0
 12 13  1  0
 13 14  2  0
 14 15  1  0
 15 16  2  0
 15 17  1  0
 17 18  1  0
 18 19  1  0
 19 20  1  0
 20 21  1  0
 21 22  2  0
 22 23  1  0
 23 24  2  0
 24 25  1  0
 25 26  2  0
 26 27  1  0
  6 28  1  0
 28 29  2  0
 29  3  1  0
 17  7  1  0
 26 21  1  0
 14  9  1  0
  1 30  1  0
  1 31  1  0
  1 32  1  0
  4 33  1  0
  5 34  1  0
 10 35  1  0
 11 36  1  0
 12 37  1  0
 13 38  1  0
 18 39  1  0
 18 40  1  0
 19 41  1  0
 19 42  1  0
 22 43  1  0
 23 44  1  0
 24 45  1  0
 25 46  1  0
 27 47  1  0
 27 48  1  0
 27 49  1  0
 28 50  1  0
 29 51  1  0
M  END
$$$$
