
     RDKit          3D

 43 46  0  0  0  0  0  0  0  0999 V2000
   -2.4401    6.1892   -3.3752 N   0  0  0  0  0  0  0  0  0  0  0  0
   -2.0602    5.2198   -2.8642 C   0  0  0  0  0  0  0  0  0  0  0  0
   -1.6005    3.9798   -2.2348 C   0  0  0  0  0  0  0  0  0  0  0  0
   -1.6960    2.8275   -3.2234 C   0  0  0  0  0  0  0  0  0  0  0  0
   -1.3398    1.5630   -2.6089 N   0  0  0  0  0  0  0  0  0  0  0  0
   -2.1506    0.4869   -2.4191 C   0  0  0  0  0  0  0  0  0  0  0  0
   -1.3781   -0.4569   -1.7797 C   0  0  0  0  0  0  0  0  0  0  0  0
   -1.8895   -1.7296   -1.3809 C   0  0  0  0  0  0  0  0  0  0  0  0
   -1.7995   -2.3461   -0.1830 C   0  0  0  0  0  0  0  0  0  0  0  0
   -2.3732   -3.6447   -0.0337 C   0  0  0  0  0  0  0  0  0  0  0  0
   -2.8730   -4.6896    0.0444 N   0  0  0  0  0  0  0  0  0  0  0  0
   -1.1445   -1.7761    0.9485 C   0  0  0  0  0  0  0  0  0  0  0  0
   -0.1065   -2.3005    1.5694 N   0  0  0  0  0  0  0  0  0  0  0  0
    0.3066   -1.4915    2.6130 C   0  0  0  0  0  0  0  0  0  0  0  0
    1.4178   -1.7241    3.4478 C   0  0  0  0  0  0  0  0  0  0  0  0
    1.7245   -0.8155    4.4655 C   0  0  0  0  0  0  0  0  0  0  0  0
    0.9365    0.3141    4.6619 C   0  0  0  0  0  0  0  0  0  0  0  0
   -0.1732    0.5646    3.8486 C   0  0  0  0  0  0  0  0  0  0  0  0
   -0.4684   -0.3529    2.8266 C   0  0  0  0  0  0  0  0  0  0  0  0
   -1.7462   -0.3230    1.6772 S   0  0  0  0  0  0  0  0  0  0  0  0
   -0.0787    0.1294   -1.6681 C   0  0  0  0  0  0  0  0  0  0  0  0
    1.1602   -0.4338   -1.1328 C   0  0  0  0  0  0  0  0  0  0  0  0
    1.9668    0.3379   -0.2802 C   0  0  0  0  0  0  0  0  0  0  0  0
    3.1393   -0.1945    0.2588 C   0  0  0  0  0  0  0  0  0  0  0  0
    3.5094   -1.4945   -0.0617 C   0  0  0  0  0  0  0  0  0  0  0  0
    4.6318   -2.0079    0.4588 F   0  0  0  0  0  0  0  0  0  0  0  0
    2.7356   -2.2686   -0.9188 C   0  0  0  0  0  0  0  0  0  0  0  0
    1.5618   -1.7376   -1.4597 C   0  0  0  0  0  0  0  0  0  0  0  0
   -0.0937    1.3852   -2.1493 N   0  0  0  0  0  0  0  0  0  0  0  0
   -0.5687    4.1045   -1.8861 H   0  0  0  0  0  0  0  0  0  0  0  0
   -2.2095    3.7685   -1.3476 H   0  0  0  0  0  0  0  0  0  0  0  0
   -2.7138    2.7303   -3.6205 H   0  0  0  0  0  0  0  0  0  0  0  0
   -1.0213    2.9718   -4.0760 H   0  0  0  0  0  0  0  0  0  0  0  0
   -3.1866    0.4875   -2.7304 H   0  0  0  0  0  0  0  0  0  0  0  0
   -2.4492   -2.2476   -2.1624 H   0  0  0  0  0  0  0  0  0  0  0  0
    2.0315   -2.6055    3.2886 H   0  0  0  0  0  0  0  0  0  0  0  0
    2.5847   -0.9974    5.1058 H   0  0  0  0  0  0  0  0  0  0  0  0
    1.1851    1.0117    5.4593 H   0  0  0  0  0  0  0  0  0  0  0  0
   -0.7877    1.4459    4.0046 H   0  0  0  0  0  0  0  0  0  0  0  0
    1.6759    1.3548   -0.0258 H   0  0  0  0  0  0  0  0  0  0  0  0
    3.7592    0.3937    0.9271 H   0  0  0  0  0  0  0  0  0  0  0  0
    3.0490   -3.2795   -1.1585 H   0  0  0  0  0  0  0  0  0  0  0  0
    0.9727   -2.3488   -2.1378 H   0  0  0  0  0  0  0  0  0  0  0  0
  1  2  3  0
  2  3  1  0
  3  4  1  0
  4  5  1  0
  5  6  1  0
  6  7  2  0
  7  8  1  0
  8  9  2  3
  9 10  1  0
 10 11  3  0
  9 12  1  0
 12 13  2  0
 13 14  1  0
 14 15  2  0
 15 16  1  0
 16 17  2  0
 17 18  1  0
 18 19  2  0
 19 20  1  0
  7 21  1  0
 21 22  1  0
 22 23  2  0
 23 24  1  0
 24 25  2  0
 25 26  1  0
 25 27  1  0
 27 28  2  0
 21 29  2  0
 29  5  1  0
 20 12  1  0
 28 22  1  0
 19 14  1  0
  3 30  1  0
  3 31  1  0
  4 32  1  0
  4 33  1  0
  6 34  1  0
  8 35  1  0
 15 36  1  0
 16 37  1  0
 17 38  1  0
 18 39  1  0
 23 40  1  0
 24 41  1  0
 27 42  1  0
 28 43  1  0
M  END
$$$$
