
     RDKit          3D

 59 62  0  0  0  0  0  0  0  0999 V2000
   10.0467    3.7046   -0.3131 C   0  0  0  0  0  0  0  0  0  0  0  0
    8.5578    3.4941   -0.1034 C   0  0  0  0  0  0  0  0  0  0  0  0
    8.3075    2.0903   -0.1047 O   0  0  0  0  0  0  0  0  0  0  0  0
    7.0130    1.6883    0.0770 C   0  0  0  0  0  0  0  0  0  0  0  0
    5.9096    2.5232    0.2526 C   0  0  0  0  0  0  0  0  0  0  0  0
    4.6330    1.9765    0.4281 C   0  0  0  0  0  0  0  0  0  0  0  0
    4.4443    0.5890    0.4272 C   0  0  0  0  0  0  0  0  0  0  0  0
    3.0732   -0.0020    0.6350 C   0  0  0  0  0  0  0  0  0  0  0  0
    2.7961   -0.2890    2.1126 C   0  0  0  0  0  0  0  0  0  0  0  0
    1.4587   -0.8109    2.3245 N   0  0  0  0  0  0  0  0  0  0  0  0
    1.1495   -2.1280    2.0561 C   0  0  0  0  0  0  0  0  0  0  0  0
    1.9899   -2.9631    1.7325 O   0  0  0  0  0  0  0  0  0  0  0  0
   -0.3150   -2.4900    2.2416 C   0  0  0  0  0  0  0  0  0  0  0  0
   -1.2657   -1.6072    1.4656 C   0  0  0  0  0  0  0  0  0  0  0  0
   -2.2423   -0.8546    2.1313 C   0  0  0  0  0  0  0  0  0  0  0  0
   -3.1071   -0.0271    1.4108 C   0  0  0  0  0  0  0  0  0  0  0  0
   -3.0190    0.0512    0.0196 C   0  0  0  0  0  0  0  0  0  0  0  0
   -3.8789    0.8859   -0.7026 N   0  0  0  0  0  0  0  0  0  0  0  0
   -5.0301    0.4245   -1.0363 C   0  0  0  0  0  0  0  0  0  0  0  0
   -5.6098   -0.8130   -0.8322 N   0  0  0  0  0  0  0  0  0  0  0  0
   -6.7080   -1.0479   -1.7457 C   0  0  0  0  0  0  0  0  0  0  0  0
   -7.7478   -2.0695   -1.3604 C   0  0  0  0  0  0  0  0  0  0  0  0
   -9.1326   -1.5773   -2.4067 S   0  0  0  0  0  6  0  0  0  0  0  0
  -10.3143   -1.4690   -1.5790 O   0  0  0  0  0  0  0  0  0  0  0  0
   -9.1003   -2.3793   -3.6106 O   0  0  0  0  0  0  0  0  0  0  0  0
   -8.5495    0.0849   -2.8126 C   0  0  0  0  0  0  0  0  0  0  0  0
   -7.4713    0.2808   -1.7764 C   0  0  0  0  0  0  0  0  0  0  0  0
   -6.1281    1.4749   -1.9768 S   0  0  0  0  0  0  0  0  0  0  0  0
   -2.0420   -0.6916   -0.6452 C   0  0  0  0  0  0  0  0  0  0  0  0
   -1.1771   -1.5239    0.0687 C   0  0  0  0  0  0  0  0  0  0  0  0
    5.5549   -0.2446    0.2570 C   0  0  0  0  0  0  0  0  0  0  0  0
    6.8271    0.3042    0.0810 C   0  0  0  0  0  0  0  0  0  0  0  0
   10.3681    3.2651   -1.2630 H   0  0  0  0  0  0  0  0  0  0  0  0
   10.2936    4.7699   -0.3156 H   0  0  0  0  0  0  0  0  0  0  0  0
   10.6212    3.2103    0.4775 H   0  0  0  0  0  0  0  0  0  0  0  0
    8.2670    3.9314    0.8586 H   0  0  0  0  0  0  0  0  0  0  0  0
    8.0100    3.9796   -0.9192 H   0  0  0  0  0  0  0  0  0  0  0  0
    6.0051    3.6036    0.2573 H   0  0  0  0  0  0  0  0  0  0  0  0
    3.7862    2.6459    0.5639 H   0  0  0  0  0  0  0  0  0  0  0  0
    2.9784   -0.9197    0.0410 H   0  0  0  0  0  0  0  0  0  0  0  0
    2.3128    0.6816    0.2364 H   0  0  0  0  0  0  0  0  0  0  0  0
    2.8786    0.6264    2.7092 H   0  0  0  0  0  0  0  0  0  0  0  0
    3.5205   -1.0114    2.5073 H   0  0  0  0  0  0  0  0  0  0  0  0
    0.6979   -0.1463    2.4053 H   0  0  0  0  0  0  0  0  0  0  0  0
   -0.5326   -2.4538    3.3156 H   0  0  0  0  0  0  0  0  0  0  0  0
   -0.4634   -3.5282    1.9211 H   0  0  0  0  0  0  0  0  0  0  0  0
   -2.3360   -0.8989    3.2144 H   0  0  0  0  0  0  0  0  0  0  0  0
   -3.8538    0.5646    1.9341 H   0  0  0  0  0  0  0  0  0  0  0  0
   -4.9467   -1.5649   -0.6691 H   0  0  0  0  0  0  0  0  0  0  0  0
   -6.3011   -1.3004   -2.7373 H   0  0  0  0  0  0  0  0  0  0  0  0
   -8.0542   -1.9906   -0.3134 H   0  0  0  0  0  0  0  0  0  0  0  0
   -7.4520   -3.0944   -1.5932 H   0  0  0  0  0  0  0  0  0  0  0  0
   -8.1622    0.0684   -3.8351 H   0  0  0  0  0  0  0  0  0  0  0  0
   -9.3733    0.7950   -2.7202 H   0  0  0  0  0  0  0  0  0  0  0  0
   -7.9315    0.4840   -0.7987 H   0  0  0  0  0  0  0  0  0  0  0  0
   -1.9510   -0.6146   -1.7255 H   0  0  0  0  0  0  0  0  0  0  0  0
   -0.4245   -2.0957   -0.4724 H   0  0  0  0  0  0  0  0  0  0  0  0
    5.4384   -1.3266    0.2596 H   0  0  0  0  0  0  0  0  0  0  0  0
    7.6819   -0.3541   -0.0542 H   0  0  0  0  0  0  0  0  0  0  0  0
  1  2  1  0
  2  3  1  0
  3  4  1  0
  4  5  2  0
  5  6  1  0
  6  7  2  0
  7  8  1  0
  8  9  1  0
  9 10  1  0
 10 11  1  0
 11 12  2  0
 11 13  1  0
 13 14  1  0
 14 15  2  0
 15 16  1  0
 16 17  2  0
 17 18  1  0
 18 19  2  3
 19 20  1  0
 20 21  1  0
 21 22  1  0
 22 23  1  0
 23 24  2  0
 23 25  2  0
 23 26  1  0
 26 27  1  0
 27 28  1  0
 17 29  1  0
 29 30  2  0
  7 31  1  0
 31 32  2  0
 32  4  1  0
 30 14  1  0
 28 19  1  0
 27 21  1  0
  1 33  1  0
  1 34  1  0
  1 35  1  0
  2 36  1  0
  2 37  1  0
  5 38  1  0
  6 39  1  0
  8 40  1  0
  8 41  1  0
  9 42  1  0
  9 43  1  0
 10 44  1  0
 13 45  1  0
 13 46  1  0
 15 47  1  0
 16 48  1  0
 20 49  1  0
 21 50  1  0
 22 51  1  0
 22 52  1  0
 26 53  1  0
 26 54  1  0
 27 55  1  0
 29 56  1  0
 30 57  1  0
 31 58  1  0
 32 59  1  0
M  END
$$$$
