
     RDKit          3D

 36 38  0  0  0  0  0  0  0  0999 V2000
   -1.3469    4.2972   -0.7056 C   0  0  0  0  0  0  0  0  0  0  0  0
   -1.7821    2.8625   -0.7152 C   0  0  0  0  0  0  0  0  0  0  0  0
   -2.7691    2.4221   -1.5933 C   0  0  0  0  0  0  0  0  0  0  0  0
   -3.1771    1.0846   -1.5767 C   0  0  0  0  0  0  0  0  0  0  0  0
   -2.6373    0.1606   -0.6921 C   0  0  0  0  0  0  0  0  0  0  0  0
   -3.0747   -1.1020   -0.7444 N   0  0  0  0  0  0  0  0  0  0  0  0
   -2.5413   -2.0087    0.1029 C   0  0  0  0  0  0  0  0  0  0  0  0
   -3.0435   -3.4609    0.0642 C   0  0  0  0  0  0  0  0  0  0  0  0
   -3.9058   -3.8585   -1.4664 Cl  0  0  0  0  0  0  0  0  0  0  0  0
   -4.1771   -3.7423    1.4314 Cl  0  0  0  0  0  0  0  0  0  0  0  0
   -1.6698   -4.6212    0.2068 Cl  0  0  0  0  0  0  0  0  0  0  0  0
   -1.6188   -1.6824    1.0309 N   0  0  0  0  0  0  0  0  0  0  0  0
   -1.1925   -0.4056    1.0854 C   0  0  0  0  0  0  0  0  0  0  0  0
   -0.1994   -0.1227    2.0700 N   0  0  0  0  0  0  0  0  0  0  0  0
    1.0647    0.0967    1.5717 N   0  0  0  0  0  0  0  0  0  0  0  0
    1.7204   -1.0034    1.3571 C   0  0  0  0  0  0  0  0  0  0  0  0
    3.0867   -1.0037    0.8062 C   0  0  0  0  0  0  0  0  0  0  0  0
    3.7244   -2.2232    0.5956 C   0  0  0  0  0  0  0  0  0  0  0  0
    5.0055   -2.1937    0.0754 C   0  0  0  0  0  0  0  0  0  0  0  0
    5.6628   -1.0553   -0.2355 N   0  0  0  0  0  0  0  0  0  0  0  0
    5.0132    0.1096   -0.0189 C   0  0  0  0  0  0  0  0  0  0  0  0
    3.7333    0.1897    0.4962 C   0  0  0  0  0  0  0  0  0  0  0  0
   -1.6652    0.5899    0.2137 C   0  0  0  0  0  0  0  0  0  0  0  0
   -1.2428    1.9469    0.1935 C   0  0  0  0  0  0  0  0  0  0  0  0
   -1.9515    4.8669    0.0068 H   0  0  0  0  0  0  0  0  0  0  0  0
   -0.2921    4.3826   -0.4239 H   0  0  0  0  0  0  0  0  0  0  0  0
   -1.4548    4.7458   -1.6987 H   0  0  0  0  0  0  0  0  0  0  0  0
   -3.2259    3.1082   -2.3034 H   0  0  0  0  0  0  0  0  0  0  0  0
   -3.9409    0.7567   -2.2793 H   0  0  0  0  0  0  0  0  0  0  0  0
   -0.5370    0.6939    2.5830 H   0  0  0  0  0  0  0  0  0  0  0  0
    1.2735   -1.9904    1.5822 H   0  0  0  0  0  0  0  0  0  0  0  0
    3.2479   -3.1694    0.8244 H   0  0  0  0  0  0  0  0  0  0  0  0
    5.5565   -3.1113   -0.1123 H   0  0  0  0  0  0  0  0  0  0  0  0
    5.5695    1.0055   -0.2801 H   0  0  0  0  0  0  0  0  0  0  0  0
    3.2589    1.1523    0.6492 H   0  0  0  0  0  0  0  0  0  0  0  0
   -0.4715    2.2830    0.8845 H   0  0  0  0  0  0  0  0  0  0  0  0
  1  2  1  0
  2  3  2  0
  3  4  1  0
  4  5  2  0
  5  6  1  0
  6  7  2  0
  7  8  1  0
  8  9  1  0
  8 10  1  0
  8 11  1  0
  7 12  1  0
 12 13  2  0
 13 14  1  0
 14 15  1  0
 15 16  2  3
 16 17  1  0
 17 18  2  0
 18 19  1  0
 19 20  2  0
 20 21  1  0
 21 22  2  0
 13 23  1  0
 23 24  2  0
 24  2  1  0
 23  5  1  0
 22 17  1  0
  1 25  1  0
  1 26  1  0
  1 27  1  0
  3 28  1  0
  4 29  1  0
 14 30  1  0
 16 31  1  0
 18 32  1  0
 19 33  1  0
 21 34  1  0
 22 35  1  0
 24 36  1  0
M  END
$$$$
