
     RDKit          3D

 43 44  0  0  0  0  0  0  0  0999 V2000
    5.8010    2.8427   -3.0315 C   0  0  0  0  0  0  0  0  0  0  0  0
    5.2779    1.4524   -2.7279 C   0  0  0  0  0  0  0  0  0  0  0  0
    4.5416    1.5095   -1.5000 O   0  0  0  0  0  0  0  0  0  0  0  0
    4.0030    0.3179   -1.1169 C   0  0  0  0  0  0  0  0  0  0  0  0
    4.1061   -0.7364   -1.7330 O   0  0  0  0  0  0  0  0  0  0  0  0
    3.2329    0.4871    0.1826 C   0  0  0  0  0  0  0  0  0  0  0  0
    2.7292   -0.7928    0.6543 N   0  0  0  0  0  0  0  0  0  0  0  0
    2.0777   -0.8889    1.8619 C   0  0  0  0  0  0  0  0  0  0  0  0
    1.9747    0.0610    2.6347 O   0  0  0  0  0  0  0  0  0  0  0  0
    1.4792   -2.2554    2.1521 C   0  0  0  0  0  0  0  0  0  0  0  0
   -0.3344   -2.1680    2.1275 S   0  0  0  0  0  0  0  0  0  0  0  0
   -0.6117   -1.7068    0.4800 C   0  0  0  0  0  0  0  0  0  0  0  0
    0.1754   -2.0293   -0.5235 N   0  0  0  0  0  0  0  0  0  0  0  0
   -0.5258   -1.7344   -1.6598 N   0  0  0  0  0  0  0  0  0  0  0  0
   -1.7260   -1.2544   -1.3698 N   0  0  0  0  0  0  0  0  0  0  0  0
   -1.7681   -1.1278   -0.0157 N   0  0  0  0  0  0  0  0  0  0  0  0
   -2.8881   -0.5359    0.6177 C   0  0  0  0  0  0  0  0  0  0  0  0
   -4.1552   -0.8516    0.0851 C   0  0  0  0  0  0  0  0  0  0  0  0
   -5.3280   -0.3658    0.6745 C   0  0  0  0  0  0  0  0  0  0  0  0
   -6.6701   -0.7600    0.1327 C   0  0  0  0  0  0  0  0  0  0  0  0
   -5.2280    0.4365    1.8108 C   0  0  0  0  0  0  0  0  0  0  0  0
   -3.9757    0.7982    2.3113 C   0  0  0  0  0  0  0  0  0  0  0  0
   -2.7862    0.3513    1.7067 C   0  0  0  0  0  0  0  0  0  0  0  0
   -1.5046    0.9441    2.2293 C   0  0  0  0  0  0  0  0  0  0  0  0
    4.9739    3.5547   -3.1207 H   0  0  0  0  0  0  0  0  0  0  0  0
    6.3745    2.8492   -3.9626 H   0  0  0  0  0  0  0  0  0  0  0  0
    6.4419    3.1997   -2.2186 H   0  0  0  0  0  0  0  0  0  0  0  0
    4.6206    1.1194   -3.5389 H   0  0  0  0  0  0  0  0  0  0  0  0
    6.1172    0.7559   -2.6227 H   0  0  0  0  0  0  0  0  0  0  0  0
    3.8888    0.9072    0.9511 H   0  0  0  0  0  0  0  0  0  0  0  0
    2.3767    1.1470    0.0136 H   0  0  0  0  0  0  0  0  0  0  0  0
    2.5458   -1.4964   -0.0595 H   0  0  0  0  0  0  0  0  0  0  0  0
    1.8342   -3.0068    1.4397 H   0  0  0  0  0  0  0  0  0  0  0  0
    1.8122   -2.5663    3.1474 H   0  0  0  0  0  0  0  0  0  0  0  0
   -4.2398   -1.5123   -0.7784 H   0  0  0  0  0  0  0  0  0  0  0  0
   -7.4262   -0.0039    0.3688 H   0  0  0  0  0  0  0  0  0  0  0  0
   -6.9813   -1.7165    0.5640 H   0  0  0  0  0  0  0  0  0  0  0  0
   -6.6361   -0.8556   -0.9577 H   0  0  0  0  0  0  0  0  0  0  0  0
   -6.1241    0.8083    2.3032 H   0  0  0  0  0  0  0  0  0  0  0  0
   -3.9323    1.4665    3.1706 H   0  0  0  0  0  0  0  0  0  0  0  0
   -0.6934    0.8867    1.4991 H   0  0  0  0  0  0  0  0  0  0  0  0
   -1.6430    2.0123    2.4350 H   0  0  0  0  0  0  0  0  0  0  0  0
   -1.2064    0.4578    3.1618 H   0  0  0  0  0  0  0  0  0  0  0  0
  1  2  1  0
  2  3  1  0
  3  4  1  0
  4  5  2  0
  4  6  1  0
  6  7  1  0
  7  8  1  0
  8  9  2  0
  8 10  1  0
 10 11  1  0
 11 12  1  0
 12 13  2  0
 13 14  1  0
 14 15  2  0
 15 16  1  0
 16 17  1  0
 17 18  2  0
 18 19  1  0
 19 20  1  0
 19 21  2  0
 21 22  1  0
 22 23  2  0
 23 24  1  0
 16 12  1  0
 23 17  1  0
  1 25  1  0
  1 26  1  0
  1 27  1  0
  2 28  1  0
  2 29  1  0
  6 30  1  0
  6 31  1  0
  7 32  1  0
 10 33  1  0
 10 34  1  0
 18 35  1  0
 20 36  1  0
 20 37  1  0
 20 38  1  0
 21 39  1  0
 22 40  1  0
 24 41  1  0
 24 42  1  0
 24 43  1  0
M  END
$$$$
