
     RDKit          3D

 43 45  0  0  0  0  0  0  0  0999 V2000
    4.3188    0.3376   -0.6684 C   0  0  0  0  0  0  0  0  0  0  0  0
    4.0187   -0.0665    0.7729 C   0  0  0  0  0  0  0  0  0  0  0  0
    5.3167   -0.3777    1.5168 C   0  0  0  0  0  0  0  0  0  0  0  0
    2.9619   -1.5678    0.8169 S   0  0  0  0  0  0  0  0  0  0  0  0
    1.3593   -0.9038    0.3809 C   0  0  0  0  0  0  0  0  0  0  0  0
    0.3510   -1.7867    0.0593 C   0  0  0  0  0  0  0  0  0  0  0  0
   -0.8834   -1.2580   -0.2592 C   0  0  0  0  0  0  0  0  0  0  0  0
   -1.9465   -2.0815   -0.6154 N   0  0  0  0  0  0  0  0  0  0  0  0
   -3.1704   -1.4071   -1.0809 C   0  0  0  0  0  0  0  0  0  0  0  0
   -4.2033   -2.4634   -1.5033 C   0  0  0  0  0  0  0  0  0  0  0  0
   -4.5911   -3.3559   -0.4462 O   0  0  0  0  0  0  0  0  0  0  0  0
   -3.6226   -3.4431    0.6074 C   0  0  0  0  0  0  0  0  0  0  0  0
   -2.1667   -3.3403    0.1204 C   0  0  0  0  0  0  0  0  0  0  0  0
   -1.0640    0.0728   -0.2774 N   0  0  0  0  0  0  0  0  0  0  0  0
   -0.0308    0.8685    0.0569 C   0  0  0  0  0  0  0  0  0  0  0  0
   -0.2528    2.3296    0.0437 C   0  0  0  0  0  0  0  0  0  0  0  0
   -1.5017    2.8815   -0.3033 C   0  0  0  0  0  0  0  0  0  0  0  0
   -1.7142    4.2641   -0.3172 C   0  0  0  0  0  0  0  0  0  0  0  0
   -0.6787    5.1312    0.0169 C   0  0  0  0  0  0  0  0  0  0  0  0
    0.5667    4.6174    0.3643 C   0  0  0  0  0  0  0  0  0  0  0  0
    0.7749    3.2342    0.3769 C   0  0  0  0  0  0  0  0  0  0  0  0
    1.1867    0.4233    0.3998 N   0  0  0  0  0  0  0  0  0  0  0  0
    4.9632    1.2237   -0.6871 H   0  0  0  0  0  0  0  0  0  0  0  0
    4.8396   -0.4581   -1.2133 H   0  0  0  0  0  0  0  0  0  0  0  0
    3.4089    0.5903   -1.2219 H   0  0  0  0  0  0  0  0  0  0  0  0
    3.5201    0.7544    1.2986 H   0  0  0  0  0  0  0  0  0  0  0  0
    5.8753   -1.1936    1.0440 H   0  0  0  0  0  0  0  0  0  0  0  0
    5.9687    0.5030    1.5286 H   0  0  0  0  0  0  0  0  0  0  0  0
    5.1226   -0.6514    2.5601 H   0  0  0  0  0  0  0  0  0  0  0  0
    0.5344   -2.8523    0.0336 H   0  0  0  0  0  0  0  0  0  0  0  0
   -3.5903   -0.7892   -0.2768 H   0  0  0  0  0  0  0  0  0  0  0  0
   -2.9503   -0.7650   -1.9420 H   0  0  0  0  0  0  0  0  0  0  0  0
   -3.8051   -3.0778   -2.3193 H   0  0  0  0  0  0  0  0  0  0  0  0
   -5.1121   -1.9775   -1.8724 H   0  0  0  0  0  0  0  0  0  0  0  0
   -3.7793   -4.3986    1.1182 H   0  0  0  0  0  0  0  0  0  0  0  0
   -3.8408   -2.6491    1.3316 H   0  0  0  0  0  0  0  0  0  0  0  0
   -1.5100   -3.4387    0.9921 H   0  0  0  0  0  0  0  0  0  0  0  0
   -1.9516   -4.1695   -0.5634 H   0  0  0  0  0  0  0  0  0  0  0  0
   -2.3298    2.2261   -0.5693 H   0  0  0  0  0  0  0  0  0  0  0  0
   -2.6895    4.6591   -0.5894 H   0  0  0  0  0  0  0  0  0  0  0  0
   -0.8421    6.2055    0.0067 H   0  0  0  0  0  0  0  0  0  0  0  0
    1.3796    5.2896    0.6265 H   0  0  0  0  0  0  0  0  0  0  0  0
    1.7597    2.8606    0.6531 H   0  0  0  0  0  0  0  0  0  0  0  0
  1  2  1  0
  2  3  1  0
  2  4  1  0
  4  5  1  0
  5  6  2  0
  6  7  1  0
  7  8  1  0
  8  9  1  0
  9 10  1  0
 10 11  1  0
 11 12  1  0
 12 13  1  0
  7 14  2  0
 14 15  1  0
 15 16  1  0
 16 17  2  0
 17 18  1  0
 18 19  2  0
 19 20  1  0
 20 21  2  0
 15 22  2  0
 22  5  1  0
 13  8  1  0
 21 16  1  0
  1 23  1  0
  1 24  1  0
  1 25  1  0
  2 26  1  0
  3 27  1  0
  3 28  1  0
  3 29  1  0
  6 30  1  0
  9 31  1  0
  9 32  1  0
 10 33  1  0
 10 34  1  0
 12 35  1  0
 12 36  1  0
 13 37  1  0
 13 38  1  0
 17 39  1  0
 18 40  1  0
 19 41  1  0
 20 42  1  0
 21 43  1  0
M  END
$$$$
