
     RDKit          3D

 48 50  0  0  0  0  0  0  0  0999 V2000
    0.6624   -0.5675    0.0606 C   0  0  0  0  0  0  0  0  0  0  0  0
    0.4353    0.3716   -0.8682 C   0  0  0  0  0  0  0  0  0  0  0  0
    1.4383    1.2014   -1.5771 C   0  0  0  0  0  0  0  0  0  0  0  0
    2.7820    1.1922   -1.6201 C   0  0  0  0  0  0  0  0  0  0  0  0
    3.6337    0.2503   -0.9878 C   0  0  0  0  0  0  0  0  0  0  0  0
    4.7888    0.7908    0.1730 S   0  0  0  0  0  0  0  0  0  0  0  0
    5.3633   -0.7982    0.3488 C   0  0  0  0  0  0  0  0  0  0  0  0
    6.3753   -1.1431    1.2068 N   0  0  0  0  0  0  0  0  0  0  0  0
    7.0937   -0.3056    2.0277 C   0  0  0  0  0  0  0  0  0  0  0  0
    8.1254   -1.0625    2.8263 C   0  0  0  0  0  0  0  0  0  0  0  0
    6.9811    0.9087    2.1437 O   0  0  0  0  0  0  0  0  0  0  0  0
    4.7816   -1.7066   -0.3939 N   0  0  0  0  0  0  0  0  0  0  0  0
    3.8092   -1.1161   -1.1643 C   0  0  0  0  0  0  0  0  0  0  0  0
    3.0798   -1.8418   -2.0325 O   0  0  0  0  0  0  0  0  0  0  0  0
    0.6962    2.1646   -2.3921 C   0  0  0  0  0  0  0  0  0  0  0  0
   -0.6144    1.8892   -2.2521 C   0  0  0  0  0  0  0  0  0  0  0  0
   -1.7227    2.6664   -2.8789 C   0  0  0  0  0  0  0  0  0  0  0  0
   -0.8082    0.8032   -1.3739 N   0  0  0  0  0  0  0  0  0  0  0  0
   -2.0788    0.4105   -0.8838 C   0  0  0  0  0  0  0  0  0  0  0  0
   -3.0384   -0.1302   -1.7485 C   0  0  0  0  0  0  0  0  0  0  0  0
   -4.2975   -0.5150   -1.2742 C   0  0  0  0  0  0  0  0  0  0  0  0
   -4.6286   -0.3635    0.0774 C   0  0  0  0  0  0  0  0  0  0  0  0
   -5.9177   -0.7734    0.4748 N   0  0  0  0  0  0  0  0  0  0  0  0
   -6.4641   -0.7227    1.7450 C   0  0  0  0  0  0  0  0  0  0  0  0
   -7.8739   -1.2582    1.7716 C   0  0  0  0  0  0  0  0  0  0  0  0
   -5.9254   -0.3170    2.7678 O   0  0  0  0  0  0  0  0  0  0  0  0
   -3.6793    0.1774    0.9434 C   0  0  0  0  0  0  0  0  0  0  0  0
   -2.4184    0.5597    0.4666 C   0  0  0  0  0  0  0  0  0  0  0  0
   -0.1555   -1.1262    0.5031 H   0  0  0  0  0  0  0  0  0  0  0  0
    1.6443   -0.8152    0.4372 H   0  0  0  0  0  0  0  0  0  0  0  0
    3.2909    1.9565   -2.2056 H   0  0  0  0  0  0  0  0  0  0  0  0
    6.5895   -2.1305    1.1839 H   0  0  0  0  0  0  0  0  0  0  0  0
    7.6539   -1.8901    3.3635 H   0  0  0  0  0  0  0  0  0  0  0  0
    8.5876   -0.3931    3.5576 H   0  0  0  0  0  0  0  0  0  0  0  0
    8.9004   -1.4466    2.1577 H   0  0  0  0  0  0  0  0  0  0  0  0
    2.3800   -1.2944   -2.4254 H   0  0  0  0  0  0  0  0  0  0  0  0
    1.1276    2.9539   -2.9867 H   0  0  0  0  0  0  0  0  0  0  0  0
   -2.2703    2.0515   -3.5989 H   0  0  0  0  0  0  0  0  0  0  0  0
   -2.4220    3.0328   -2.1209 H   0  0  0  0  0  0  0  0  0  0  0  0
   -1.3399    3.5397   -3.4180 H   0  0  0  0  0  0  0  0  0  0  0  0
   -2.7991   -0.2700   -2.7993 H   0  0  0  0  0  0  0  0  0  0  0  0
   -5.0087   -0.9357   -1.9797 H   0  0  0  0  0  0  0  0  0  0  0  0
   -6.5071   -1.1502   -0.2567 H   0  0  0  0  0  0  0  0  0  0  0  0
   -8.3198   -1.0688    2.7526 H   0  0  0  0  0  0  0  0  0  0  0  0
   -7.8612   -2.3358    1.5886 H   0  0  0  0  0  0  0  0  0  0  0  0
   -8.4822   -0.7588    1.0127 H   0  0  0  0  0  0  0  0  0  0  0  0
   -3.8837    0.3215    1.9997 H   0  0  0  0  0  0  0  0  0  0  0  0
   -1.7036    0.9949    1.1615 H   0  0  0  0  0  0  0  0  0  0  0  0
  1  2  2  0
  2  3  1  0
  3  4  2  3
  4  5  1  0
  5  6  1  0
  6  7  1  0
  7  8  1  0
  8  9  1  0
  9 10  1  0
  9 11  2  0
  7 12  2  0
 12 13  1  0
 13 14  1  0
  3 15  1  0
 15 16  2  0
 16 17  1  0
 16 18  1  0
 18 19  1  0
 19 20  2  0
 20 21  1  0
 21 22  2  0
 22 23  1  0
 23 24  1  0
 24 25  1  0
 24 26  2  0
 22 27  1  0
 27 28  2  0
 18  2  1  0
 28 19  1  0
 13  5  2  0
  1 29  1  0
  1 30  1  0
  4 31  1  0
  8 32  1  0
 10 33  1  0
 10 34  1  0
 10 35  1  0
 14 36  1  0
 15 37  1  0
 17 38  1  0
 17 39  1  0
 17 40  1  0
 20 41  1  0
 21 42  1  0
 23 43  1  0
 25 44  1  0
 25 45  1  0
 25 46  1  0
 27 47  1  0
 28 48  1  0
M  END
$$$$
