
     RDKit          3D

 46 50  0  0  0  0  0  0  0  0999 V2000
   -7.4025    0.0693    1.4222 C   0  0  0  0  0  0  0  0  0  0  0  0
   -6.0368   -0.2000    0.8435 C   0  0  0  0  0  0  0  0  0  0  0  0
   -5.9262   -1.0855   -0.2432 C   0  0  0  0  0  0  0  0  0  0  0  0
   -4.6959   -1.3851   -0.8330 C   0  0  0  0  0  0  0  0  0  0  0  0
   -3.5740   -0.7603   -0.2899 C   0  0  0  0  0  0  0  0  0  0  0  0
   -3.6358    0.1274    0.7911 C   0  0  0  0  0  0  0  0  0  0  0  0
   -2.3761    0.5995    1.1261 N   0  0  0  0  0  0  0  0  0  0  0  0
   -1.5911    0.0122    0.2684 C   0  0  0  0  0  0  0  0  0  0  0  0
    0.1068    0.0612    0.0078 S   0  0  0  0  0  0  0  0  0  0  0  0
   -0.0561   -1.0763   -1.3070 C   0  0  0  0  0  0  0  0  0  0  0  0
    0.8882   -1.6228   -2.0857 C   0  0  0  0  0  0  0  0  0  0  0  0
    2.2856   -1.3684   -1.9987 C   0  0  0  0  0  0  0  0  0  0  0  0
    3.3151   -2.0384   -2.6521 C   0  0  0  0  0  0  0  0  0  0  0  0
    4.5417   -1.4539   -2.2560 C   0  0  0  0  0  0  0  0  0  0  0  0
    4.2181   -0.4525   -1.3706 C   0  0  0  0  0  0  0  0  0  0  0  0
    4.9872    0.5347   -0.6253 C   0  0  0  0  0  0  0  0  0  0  0  0
    6.0350    1.2033   -1.2849 C   0  0  0  0  0  0  0  0  0  0  0  0
    6.7786    2.1963   -0.6406 C   0  0  0  0  0  0  0  0  0  0  0  0
    6.4895    2.5394    0.6764 C   0  0  0  0  0  0  0  0  0  0  0  0
    5.4633    1.8821    1.3531 C   0  0  0  0  0  0  0  0  0  0  0  0
    4.7156    0.8789    0.7111 C   0  0  0  0  0  0  0  0  0  0  0  0
    3.6966    0.1595    1.5072 C   0  0  0  0  0  0  0  0  0  0  0  0
    3.5196   -1.0419    1.5630 O   0  0  0  0  0  0  0  0  0  0  0  0
    2.9464    1.0233    2.2175 O   0  0  0  0  0  0  0  0  0  0  0  0
    2.8662   -0.3789   -1.2410 O   0  0  0  0  0  0  0  0  0  0  0  0
   -1.4785   -1.4724   -1.5291 C   0  0  0  0  0  0  0  0  0  0  0  0
   -1.9570   -2.2312   -2.3523 O   0  0  0  0  0  0  0  0  0  0  0  0
   -2.2376   -0.8065   -0.5932 N   0  0  0  0  0  0  0  0  0  0  0  0
   -4.8825    0.4275    1.3847 C   0  0  0  0  0  0  0  0  0  0  0  0
   -4.9891    1.3761    2.5468 C   0  0  0  0  0  0  0  0  0  0  0  0
   -7.6470    1.1330    1.3401 H   0  0  0  0  0  0  0  0  0  0  0  0
   -7.4368   -0.2355    2.4729 H   0  0  0  0  0  0  0  0  0  0  0  0
   -8.1819   -0.4888    0.8925 H   0  0  0  0  0  0  0  0  0  0  0  0
   -6.8192   -1.5604   -0.6485 H   0  0  0  0  0  0  0  0  0  0  0  0
   -4.6237   -2.0711   -1.6719 H   0  0  0  0  0  0  0  0  0  0  0  0
    0.5831   -2.3393   -2.8470 H   0  0  0  0  0  0  0  0  0  0  0  0
    3.1890   -2.8692   -3.3332 H   0  0  0  0  0  0  0  0  0  0  0  0
    5.5370   -1.7383   -2.5662 H   0  0  0  0  0  0  0  0  0  0  0  0
    6.2677    0.9693   -2.3222 H   0  0  0  0  0  0  0  0  0  0  0  0
    7.5781    2.7066   -1.1726 H   0  0  0  0  0  0  0  0  0  0  0  0
    7.0641    3.3140    1.1784 H   0  0  0  0  0  0  0  0  0  0  0  0
    5.2519    2.1441    2.3877 H   0  0  0  0  0  0  0  0  0  0  0  0
    2.2650    0.4562    2.6355 H   0  0  0  0  0  0  0  0  0  0  0  0
   -5.6211    2.2302    2.2840 H   0  0  0  0  0  0  0  0  0  0  0  0
   -5.4118    0.8652    3.4174 H   0  0  0  0  0  0  0  0  0  0  0  0
   -4.0087    1.7672    2.8368 H   0  0  0  0  0  0  0  0  0  0  0  0
  1  2  1  0
  2  3  2  0
  3  4  1  0
  4  5  2  0
  5  6  1  0
  6  7  1  0
  7  8  2  0
  8  9  1  0
  9 10  1  0
 10 11  2  3
 11 12  1  0
 12 13  2  0
 13 14  1  0
 14 15  2  0
 15 16  1  0
 16 17  2  0
 17 18  1  0
 18 19  2  0
 19 20  1  0
 20 21  2  0
 21 22  1  0
 22 23  2  0
 22 24  1  0
 15 25  1  0
 10 26  1  0
 26 27  2  0
 26 28  1  0
  6 29  2  0
 29 30  1  0
 29  2  1  0
 28  5  1  0
 28  8  1  0
 25 12  1  0
 21 16  1  0
  1 31  1  0
  1 32  1  0
  1 33  1  0
  3 34  1  0
  4 35  1  0
 11 36  1  0
 13 37  1  0
 14 38  1  0
 17 39  1  0
 18 40  1  0
 19 41  1  0
 20 42  1  0
 24 43  1  0
 30 44  1  0
 30 45  1  0
 30 46  1  0
M  END
$$$$
