
     RDKit          3D

 36 38  0  0  0  0  0  0  0  0999 V2000
    6.2782    1.9970   -2.8422 Br  0  0  0  0  0  0  0  0  0  0  0  0
    5.0323    1.0324   -1.7987 C   0  0  0  0  0  0  0  0  0  0  0  0
    3.8112    1.6126   -1.4669 C   0  0  0  0  0  0  0  0  0  0  0  0
    2.8915    0.8956   -0.6959 C   0  0  0  0  0  0  0  0  0  0  0  0
    3.1851   -0.4017   -0.2468 C   0  0  0  0  0  0  0  0  0  0  0  0
    2.1990   -1.1206    0.5537 C   0  0  0  0  0  0  0  0  0  0  0  0
    2.5019   -2.1137    1.4614 C   0  0  0  0  0  0  0  0  0  0  0  0
    1.0704   -2.6869    2.2038 S   0  0  0  0  0  0  0  0  0  0  0  0
    0.1316   -1.5767    1.2657 C   0  0  0  0  0  0  0  0  0  0  0  0
   -1.2121   -1.5714    1.4549 N   0  0  0  0  0  0  0  0  0  0  0  0
   -1.9782   -1.0254    0.5609 C   0  0  0  0  0  0  0  0  0  0  0  0
   -3.4673   -1.0358    0.8812 C   0  0  0  0  0  0  0  0  0  0  0  0
   -3.9241    0.3471    1.3339 C   0  0  0  0  0  0  0  0  0  0  0  0
   -4.1492    1.3263    0.1812 C   0  0  0  0  0  0  0  0  0  0  0  0
   -2.9045    1.6392   -0.6526 C   0  0  0  0  0  0  0  0  0  0  0  0
   -2.3836    0.4403   -1.4395 C   0  0  0  0  0  0  0  0  0  0  0  0
   -1.5825   -0.4325   -0.6154 N   0  0  0  0  0  0  0  0  0  0  0  0
    0.8499   -0.8152    0.4593 N   0  0  0  0  0  0  0  0  0  0  0  0
    4.4185   -0.9716   -0.5961 C   0  0  0  0  0  0  0  0  0  0  0  0
    5.3403   -0.2564   -1.3688 C   0  0  0  0  0  0  0  0  0  0  0  0
    3.5633    2.6171   -1.7994 H   0  0  0  0  0  0  0  0  0  0  0  0
    1.9409    1.3602   -0.4393 H   0  0  0  0  0  0  0  0  0  0  0  0
    3.4630   -2.5202    1.7387 H   0  0  0  0  0  0  0  0  0  0  0  0
   -4.0341   -1.3853    0.0117 H   0  0  0  0  0  0  0  0  0  0  0  0
   -3.6434   -1.7548    1.6907 H   0  0  0  0  0  0  0  0  0  0  0  0
   -4.8729    0.2394    1.8735 H   0  0  0  0  0  0  0  0  0  0  0  0
   -3.2037    0.7750    2.0419 H   0  0  0  0  0  0  0  0  0  0  0  0
   -4.5258    2.2672    0.6016 H   0  0  0  0  0  0  0  0  0  0  0  0
   -4.9416    0.9434   -0.4740 H   0  0  0  0  0  0  0  0  0  0  0  0
   -2.1176    2.0554   -0.0117 H   0  0  0  0  0  0  0  0  0  0  0  0
   -3.1776    2.4239   -1.3690 H   0  0  0  0  0  0  0  0  0  0  0  0
   -3.2041   -0.1171   -1.9048 H   0  0  0  0  0  0  0  0  0  0  0  0
   -1.7503    0.8025   -2.2574 H   0  0  0  0  0  0  0  0  0  0  0  0
   -0.5710   -0.2916   -0.6769 H   0  0  0  0  0  0  0  0  0  0  0  0
    4.6768   -1.9819   -0.2890 H   0  0  0  0  0  0  0  0  0  0  0  0
    6.2898   -0.7158   -1.6314 H   0  0  0  0  0  0  0  0  0  0  0  0
  1  2  1  0
  2  3  2  0
  3  4  1  0
  4  5  2  0
  5  6  1  0
  6  7  2  0
  7  8  1  0
  8  9  1  0
  9 10  1  0
 10 11  2  3
 11 12  1  0
 12 13  1  0
 13 14  1  0
 14 15  1  0
 15 16  1  0
 16 17  1  0
  9 18  2  0
  5 19  1  0
 19 20  2  0
 20  2  1  0
 18  6  1  0
 17 11  1  0
  3 21  1  0
  4 22  1  0
  7 23  1  0
 12 24  1  0
 12 25  1  0
 13 26  1  0
 13 27  1  0
 14 28  1  0
 14 29  1  0
 15 30  1  0
 15 31  1  0
 16 32  1  0
 16 33  1  0
 17 34  1  0
 19 35  1  0
 20 36  1  0
M  END
$$$$
