
     RDKit          3D

 55 58  0  0  0  0  0  0  0  0999 V2000
   -4.4249    1.0140   -2.0117 C   0  0  0  0  0  0  0  0  0  0  0  0
   -4.0112   -0.2337   -1.2316 C   0  0  0  0  0  0  0  0  0  0  0  0
   -5.2149   -1.1052   -0.8652 C   0  0  0  0  0  0  0  0  0  0  0  0
   -3.1745    0.0883   -0.0794 N   0  0  0  0  0  0  0  0  0  0  0  0
   -1.8455   -0.2710    0.0758 C   0  0  0  0  0  0  0  0  0  0  0  0
   -1.1217   -0.8575   -0.9222 N   0  0  0  0  0  0  0  0  0  0  0  0
   -0.7296    0.0517   -2.0280 C   0  0  0  0  0  0  0  0  0  0  0  0
    0.7628   -0.0766   -2.4143 C   0  0  0  0  0  0  0  0  0  0  0  0
    1.7199   -0.0063   -1.2884 N   0  0  0  0  0  0  0  0  0  0  0  0
    1.8100    1.3931   -0.7790 C   0  0  0  0  0  0  0  0  0  0  0  0
    3.0644    1.6164    0.0813 C   0  0  0  0  0  0  0  0  0  0  0  0
    3.2180    2.6229    0.7688 O   0  0  0  0  0  0  0  0  0  0  0  0
    4.0165    0.6327   -0.0305 N   0  0  0  0  0  0  0  0  0  0  0  0
    5.3173    0.7543    0.5708 C   0  0  0  0  0  0  0  0  0  0  0  0
    5.9502   -0.5985    0.5948 C   0  0  0  0  0  0  0  0  0  0  0  0
    5.7694   -1.6080    1.5211 C   0  0  0  0  0  0  0  0  0  0  0  0
    6.5377   -2.7682    1.2168 C   0  0  0  0  0  0  0  0  0  0  0  0
    7.2789   -2.6076    0.0678 C   0  0  0  0  0  0  0  0  0  0  0  0
    7.0462   -1.0673   -0.6367 S   0  0  0  0  0  0  0  0  0  0  0  0
    1.2812   -0.9203   -0.1899 C   0  0  0  0  0  0  0  0  0  0  0  0
   -0.0153   -1.7219   -0.4542 C   0  0  0  0  0  0  0  0  0  0  0  0
   -1.4196    0.0114    1.2848 N   0  0  0  0  0  0  0  0  0  0  0  0
   -2.4543    0.6538    1.9066 C   0  0  0  0  0  0  0  0  0  0  0  0
   -2.5040    1.2018    3.1976 C   0  0  0  0  0  0  0  0  0  0  0  0
   -3.6801    1.8274    3.6228 C   0  0  0  0  0  0  0  0  0  0  0  0
   -4.7865    1.9046    2.7781 C   0  0  0  0  0  0  0  0  0  0  0  0
   -4.7557    1.3599    1.4884 C   0  0  0  0  0  0  0  0  0  0  0  0
   -3.5694    0.7356    1.0762 C   0  0  0  0  0  0  0  0  0  0  0  0
   -4.9410    0.7345   -2.9363 H   0  0  0  0  0  0  0  0  0  0  0  0
   -3.5498    1.6142   -2.2834 H   0  0  0  0  0  0  0  0  0  0  0  0
   -5.1002    1.6546   -1.4370 H   0  0  0  0  0  0  0  0  0  0  0  0
   -3.4027   -0.8444   -1.9073 H   0  0  0  0  0  0  0  0  0  0  0  0
   -5.7190   -1.4591   -1.7712 H   0  0  0  0  0  0  0  0  0  0  0  0
   -5.9560   -0.5645   -0.2704 H   0  0  0  0  0  0  0  0  0  0  0  0
   -4.9009   -1.9839   -0.2911 H   0  0  0  0  0  0  0  0  0  0  0  0
   -1.3387   -0.1876   -2.9072 H   0  0  0  0  0  0  0  0  0  0  0  0
   -0.9368    1.0989   -1.7697 H   0  0  0  0  0  0  0  0  0  0  0  0
    1.0103    0.6783   -3.1711 H   0  0  0  0  0  0  0  0  0  0  0  0
    0.9149   -1.0390   -2.9211 H   0  0  0  0  0  0  0  0  0  0  0  0
    1.9126    2.0877   -1.6219 H   0  0  0  0  0  0  0  0  0  0  0  0
    0.9234    1.6780   -0.2012 H   0  0  0  0  0  0  0  0  0  0  0  0
    3.8507   -0.0574   -0.7580 H   0  0  0  0  0  0  0  0  0  0  0  0
    5.2138    1.1540    1.5859 H   0  0  0  0  0  0  0  0  0  0  0  0
    5.8976    1.4766   -0.0137 H   0  0  0  0  0  0  0  0  0  0  0  0
    5.1113   -1.5154    2.3774 H   0  0  0  0  0  0  0  0  0  0  0  0
    6.5458   -3.6741    1.8104 H   0  0  0  0  0  0  0  0  0  0  0  0
    7.9474   -3.3208   -0.3944 H   0  0  0  0  0  0  0  0  0  0  0  0
    2.0909   -1.6412   -0.0229 H   0  0  0  0  0  0  0  0  0  0  0  0
    1.1703   -0.3780    0.7574 H   0  0  0  0  0  0  0  0  0  0  0  0
    0.1743   -2.4813   -1.2238 H   0  0  0  0  0  0  0  0  0  0  0  0
   -0.3017   -2.2818    0.4458 H   0  0  0  0  0  0  0  0  0  0  0  0
   -1.6361    1.1400    3.8447 H   0  0  0  0  0  0  0  0  0  0  0  0
   -3.7276    2.2578    4.6200 H   0  0  0  0  0  0  0  0  0  0  0  0
   -5.6919    2.3970    3.1274 H   0  0  0  0  0  0  0  0  0  0  0  0
   -5.6262    1.4310    0.8469 H   0  0  0  0  0  0  0  0  0  0  0  0
  1  2  1  0
  2  3  1  0
  2  4  1  0
  4  5  1  0
  5  6  1  0
  6  7  1  0
  7  8  1  0
  8  9  1  0
  9 10  1  0
 10 11  1  0
 11 12  2  0
 11 13  1  0
 13 14  1  0
 14 15  1  0
 15 16  2  0
 16 17  1  0
 17 18  2  0
 18 19  1  0
  9 20  1  0
 20 21  1  0
  5 22  2  0
 22 23  1  0
 23 24  2  0
 24 25  1  0
 25 26  2  0
 26 27  1  0
 27 28  2  0
 28  4  1  0
 21  6  1  0
 28 23  1  0
 19 15  1  0
  1 29  1  0
  1 30  1  0
  1 31  1  0
  2 32  1  0
  3 33  1  0
  3 34  1  0
  3 35  1  0
  7 36  1  0
  7 37  1  0
  8 38  1  0
  8 39  1  0
 10 40  1  0
 10 41  1  0
 13 42  1  0
 14 43  1  0
 14 44  1  0
 16 45  1  0
 17 46  1  0
 18 47  1  0
 20 48  1  0
 20 49  1  0
 21 50  1  0
 21 51  1  0
 24 52  1  0
 25 53  1  0
 26 54  1  0
 27 55  1  0
M  END
$$$$
