
     RDKit          3D

 61 61  0  0  0  0  0  0  0  0999 V2000
    8.2190    2.9542   -1.2107 C   0  0  0  0  0  0  0  0  0  0  0  0
    8.2164    1.4636   -1.5127 C   0  0  0  0  0  0  0  0  0  0  0  0
    6.8821    0.9545   -2.0622 C   0  0  0  0  0  0  0  0  0  0  0  0
    5.7370    1.0404   -1.0493 C   0  0  0  0  0  0  0  0  0  0  0  0
    4.4547    0.4245   -1.6152 C   0  0  0  0  0  0  0  0  0  0  0  0
    3.2412    0.5786   -0.6918 C   0  0  0  0  0  0  0  0  0  0  0  0
    3.3714   -0.2066    0.6161 C   0  0  0  0  0  0  0  0  0  0  0  0
    2.1319   -0.1072    1.5148 C   0  0  0  0  0  0  0  0  0  0  0  0
    1.1448   -1.2716    1.3747 C   0  0  0  0  0  0  0  0  0  0  0  0
    0.3723   -1.3528    0.0571 C   0  0  0  0  0  0  0  0  0  0  0  0
   -0.4943   -0.1340   -0.2777 C   0  0  0  0  0  0  0  0  0  0  0  0
   -1.5428    0.2461    0.7726 C   0  0  0  0  0  0  0  0  0  0  0  0
   -2.5643   -0.8617    1.0422 C   0  0  0  0  0  0  0  0  0  0  0  0
   -3.6535   -0.3837    2.0058 C   0  0  0  0  0  0  0  0  0  0  0  0
   -4.6521   -1.4808    2.3883 C   0  0  0  0  0  0  0  0  0  0  0  0
   -5.4899   -2.0174    1.2304 C   0  0  0  0  0  0  0  0  0  0  0  0
   -6.3162   -0.9768    0.6106 N   0  0  0  0  0  0  0  0  0  0  0  0
   -7.5015   -0.4671    1.1190 C   0  0  0  0  0  0  0  0  0  0  0  0
   -7.9391    0.4742    0.2312 C   0  0  0  0  0  0  0  0  0  0  0  0
   -7.0175    0.5077   -0.8022 N   0  0  0  0  0  4  0  0  0  0  0  0
   -7.0776    1.3761   -1.9705 C   0  0  0  0  0  0  0  0  0  0  0  0
   -6.0418   -0.3797   -0.5596 C   0  0  0  0  0  0  0  0  0  0  0  0
    9.2224    3.2749   -0.9127 H   0  0  0  0  0  0  0  0  0  0  0  0
    7.9258    3.5339   -2.0919 H   0  0  0  0  0  0  0  0  0  0  0  0
    7.5368    3.1996   -0.3915 H   0  0  0  0  0  0  0  0  0  0  0  0
    8.4845    0.9073   -0.6069 H   0  0  0  0  0  0  0  0  0  0  0  0
    8.9979    1.2575   -2.2539 H   0  0  0  0  0  0  0  0  0  0  0  0
    6.6197    1.5153   -2.9677 H   0  0  0  0  0  0  0  0  0  0  0  0
    7.0136   -0.0917   -2.3657 H   0  0  0  0  0  0  0  0  0  0  0  0
    5.5463    2.0865   -0.7855 H   0  0  0  0  0  0  0  0  0  0  0  0
    6.0322    0.5190   -0.1319 H   0  0  0  0  0  0  0  0  0  0  0  0
    4.6171   -0.6381   -1.8325 H   0  0  0  0  0  0  0  0  0  0  0  0
    4.2190    0.9094   -2.5706 H   0  0  0  0  0  0  0  0  0  0  0  0
    3.0823    1.6409   -0.4703 H   0  0  0  0  0  0  0  0  0  0  0  0
    2.3611    0.2392   -1.2447 H   0  0  0  0  0  0  0  0  0  0  0  0
    3.6127   -1.2558    0.4095 H   0  0  0  0  0  0  0  0  0  0  0  0
    4.2172    0.2037    1.1807 H   0  0  0  0  0  0  0  0  0  0  0  0
    1.6276    0.8565    1.3858 H   0  0  0  0  0  0  0  0  0  0  0  0
    2.4840   -0.1230    2.5550 H   0  0  0  0  0  0  0  0  0  0  0  0
    0.4304   -1.2193    2.2051 H   0  0  0  0  0  0  0  0  0  0  0  0
    1.6882   -2.2148    1.5147 H   0  0  0  0  0  0  0  0  0  0  0  0
   -0.2636   -2.2461    0.0861 H   0  0  0  0  0  0  0  0  0  0  0  0
    1.0734   -1.5274   -0.7666 H   0  0  0  0  0  0  0  0  0  0  0  0
   -1.0039   -0.3273   -1.2302 H   0  0  0  0  0  0  0  0  0  0  0  0
    0.1478    0.7364   -0.4529 H   0  0  0  0  0  0  0  0  0  0  0  0
   -1.0508    0.5358    1.7081 H   0  0  0  0  0  0  0  0  0  0  0  0
   -2.0711    1.1389    0.4144 H   0  0  0  0  0  0  0  0  0  0  0  0
   -2.0651   -1.7365    1.4732 H   0  0  0  0  0  0  0  0  0  0  0  0
   -3.0109   -1.1744    0.0926 H   0  0  0  0  0  0  0  0  0  0  0  0
   -4.1847    0.4723    1.5735 H   0  0  0  0  0  0  0  0  0  0  0  0
   -3.1792   -0.0211    2.9265 H   0  0  0  0  0  0  0  0  0  0  0  0
   -5.3234   -1.0778    3.1564 H   0  0  0  0  0  0  0  0  0  0  0  0
   -4.1120   -2.3155    2.8510 H   0  0  0  0  0  0  0  0  0  0  0  0
   -4.8616   -2.4734    0.4584 H   0  0  0  0  0  0  0  0  0  0  0  0
   -6.1637   -2.8019    1.5948 H   0  0  0  0  0  0  0  0  0  0  0  0
   -7.8775   -0.8417    2.0556 H   0  0  0  0  0  0  0  0  0  0  0  0
   -8.7930    1.1287    0.1977 H   0  0  0  0  0  0  0  0  0  0  0  0
   -8.1075    1.4299   -2.3334 H   0  0  0  0  0  0  0  0  0  0  0  0
   -6.4382    0.9752   -2.7615 H   0  0  0  0  0  0  0  0  0  0  0  0
   -6.7299    2.3727   -1.6867 H   0  0  0  0  0  0  0  0  0  0  0  0
   -5.1842   -0.5761   -1.1929 H   0  0  0  0  0  0  0  0  0  0  0  0
  1  2  1  0
  2  3  1  0
  3  4  1  0
  4  5  1  0
  5  6  1  0
  6  7  1  0
  7  8  1  0
  8  9  1  0
  9 10  1  0
 10 11  1  0
 11 12  1  0
 12 13  1  0
 13 14  1  0
 14 15  1  0
 15 16  1  0
 16 17  1  0
 17 18  1  0
 18 19  2  0
 19 20  1  0
 20 21  1  0
 20 22  2  0
 22 17  1  0
  1 23  1  0
  1 24  1  0
  1 25  1  0
  2 26  1  0
  2 27  1  0
  3 28  1  0
  3 29  1  0
  4 30  1  0
  4 31  1  0
  5 32  1  0
  5 33  1  0
  6 34  1  0
  6 35  1  0
  7 36  1  0
  7 37  1  0
  8 38  1  0
  8 39  1  0
  9 40  1  0
  9 41  1  0
 10 42  1  0
 10 43  1  0
 11 44  1  0
 11 45  1  0
 12 46  1  0
 12 47  1  0
 13 48  1  0
 13 49  1  0
 14 50  1  0
 14 51  1  0
 15 52  1  0
 15 53  1  0
 16 54  1  0
 16 55  1  0
 18 56  1  0
 19 57  1  0
 21 58  1  0
 21 59  1  0
 21 60  1  0
 22 61  1  0
M  CHG  1  20   1
M  END
$$$$
