
     RDKit          3D

 47 49  0  0  0  0  0  0  0  0999 V2000
   -5.6706   -1.5672    0.9762 C   0  0  0  0  0  0  0  0  0  0  0  0
   -5.7125   -0.6593   -0.1159 O   0  0  0  0  0  0  0  0  0  0  0  0
   -4.5744   -0.5232   -0.8707 C   0  0  0  0  0  0  0  0  0  0  0  0
   -3.4561   -1.3549   -0.7644 C   0  0  0  0  0  0  0  0  0  0  0  0
   -2.3421   -1.1473   -1.5812 C   0  0  0  0  0  0  0  0  0  0  0  0
   -2.3313   -0.1026   -2.5080 C   0  0  0  0  0  0  0  0  0  0  0  0
   -1.1837    0.1055   -3.3952 C   0  0  0  0  0  0  0  0  0  0  0  0
    0.0355    0.5322   -3.0348 C   0  0  0  0  0  0  0  0  0  0  0  0
    1.3132    0.7326   -4.1779 S   0  0  0  0  0  0  0  0  0  0  0  0
    2.4570    1.2776   -2.9608 C   0  0  0  0  0  0  0  0  0  0  0  0
    4.0413    1.6407   -3.3369 S   0  0  0  0  0  0  0  0  0  0  0  0
    1.8370    1.3347   -1.7318 N   0  0  0  0  0  0  0  0  0  0  0  0
    2.4861    1.7518   -0.4837 C   0  0  0  0  0  0  0  0  0  0  0  0
    3.0450    0.5640    0.2913 C   0  0  0  0  0  0  0  0  0  0  0  0
    3.6436    1.0507    1.5907 C   0  0  0  0  0  0  0  0  0  0  0  0
    4.3585    2.0467    1.6402 O   0  0  0  0  0  0  0  0  0  0  0  0
    3.2816    0.3255    2.6936 N   0  0  0  0  0  0  0  0  0  0  0  0
    4.0996   -0.5733    3.1238 C   0  0  0  0  0  0  0  0  0  0  0  0
    3.8614   -1.3089    4.2499 N   0  0  0  0  0  0  0  0  0  0  0  0
    5.0328   -1.9400    4.8235 C   0  0  0  0  0  0  0  0  0  0  0  0
    5.9061   -2.3539    3.6441 C   0  0  0  0  0  0  0  0  0  0  0  0
    5.6399   -1.0398    2.4088 S   0  0  0  0  0  0  0  0  0  0  0  0
    0.5181    0.9081   -1.6755 C   0  0  0  0  0  0  0  0  0  0  0  0
   -0.1461    0.8275   -0.6527 O   0  0  0  0  0  0  0  0  0  0  0  0
   -3.4535    0.7264   -2.6275 C   0  0  0  0  0  0  0  0  0  0  0  0
   -4.5739    0.5272   -1.8114 C   0  0  0  0  0  0  0  0  0  0  0  0
   -5.7156    1.2902   -1.8655 O   0  0  0  0  0  0  0  0  0  0  0  0
   -5.6675    2.4925   -2.6248 C   0  0  0  0  0  0  0  0  0  0  0  0
   -4.8533   -1.3271    1.6632 H   0  0  0  0  0  0  0  0  0  0  0  0
   -6.6075   -1.4683    1.5323 H   0  0  0  0  0  0  0  0  0  0  0  0
   -5.6006   -2.6010    0.6236 H   0  0  0  0  0  0  0  0  0  0  0  0
   -3.4193   -2.1780   -0.0586 H   0  0  0  0  0  0  0  0  0  0  0  0
   -1.4831   -1.8069   -1.4809 H   0  0  0  0  0  0  0  0  0  0  0  0
   -1.3964   -0.1102   -4.4405 H   0  0  0  0  0  0  0  0  0  0  0  0
    3.2753    2.4785   -0.7045 H   0  0  0  0  0  0  0  0  0  0  0  0
    1.7462    2.2788    0.1334 H   0  0  0  0  0  0  0  0  0  0  0  0
    3.8268    0.0504   -0.2791 H   0  0  0  0  0  0  0  0  0  0  0  0
    2.2543   -0.1675    0.4976 H   0  0  0  0  0  0  0  0  0  0  0  0
    3.1796   -0.8996    4.8784 H   0  0  0  0  0  0  0  0  0  0  0  0
    5.5612   -1.2254    5.4655 H   0  0  0  0  0  0  0  0  0  0  0  0
    4.7548   -2.8060    5.4326 H   0  0  0  0  0  0  0  0  0  0  0  0
    5.5578   -3.3014    3.2197 H   0  0  0  0  0  0  0  0  0  0  0  0
    6.9618   -2.4510    3.9139 H   0  0  0  0  0  0  0  0  0  0  0  0
   -3.4365    1.5201   -3.3671 H   0  0  0  0  0  0  0  0  0  0  0  0
   -5.6017    2.2770   -3.6965 H   0  0  0  0  0  0  0  0  0  0  0  0
   -4.8458    3.1413   -2.2982 H   0  0  0  0  0  0  0  0  0  0  0  0
   -6.6035    3.0329   -2.4557 H   0  0  0  0  0  0  0  0  0  0  0  0
  1  2  1  0
  2  3  1  0
  3  4  2  0
  4  5  1  0
  5  6  2  0
  6  7  1  0
  7  8  2  3
  8  9  1  0
  9 10  1  0
 10 11  2  0
 10 12  1  0
 12 13  1  0
 13 14  1  0
 14 15  1  0
 15 16  2  0
 15 17  1  0
 17 18  2  3
 18 19  1  0
 19 20  1  0
 20 21  1  0
 21 22  1  0
 12 23  1  0
 23 24  2  0
  6 25  1  0
 25 26  2  0
 26 27  1  0
 27 28  1  0
 26  3  1  0
 23  8  1  0
 22 18  1  0
  1 29  1  0
  1 30  1  0
  1 31  1  0
  4 32  1  0
  5 33  1  0
  7 34  1  0
 13 35  1  0
 13 36  1  0
 14 37  1  0
 14 38  1  0
 19 39  1  0
 20 40  1  0
 20 41  1  0
 21 42  1  0
 21 43  1  0
 25 44  1  0
 28 45  1  0
 28 46  1  0
 28 47  1  0
M  END
$$$$
