
     RDKit          3D

 37 38  0  0  0  0  0  0  0  0999 V2000
    5.2504    1.2616    2.3106 C   0  0  0  0  0  0  0  0  0  0  0  0
    5.2455    0.8041    0.8507 C   0  0  0  0  0  0  0  0  0  0  0  0
    5.2813   -0.7227    0.7671 C   0  0  0  0  0  0  0  0  0  0  0  0
    4.0931    1.4200    0.0348 C   0  0  0  0  0  0  0  0  0  0  0  0
    2.7225    1.0432    0.5025 C   0  0  0  0  0  0  0  0  0  0  0  0
    2.1097    1.5757    1.5413 N   0  0  0  0  0  0  0  0  0  0  0  0
    0.8457    1.0509    1.7252 N   0  0  0  0  0  0  0  0  0  0  0  0
    0.5366    0.1892    0.7863 C   0  0  0  0  0  0  0  0  0  0  0  0
   -0.7343   -0.5232    0.8575 N   0  0  0  0  0  0  0  0  0  0  0  0
   -1.8279    0.0609   -0.3066 S   0  0  0  0  0  6  0  0  0  0  0  0
   -2.4993    1.1811    0.3179 O   0  0  0  0  0  0  0  0  0  0  0  0
   -1.1499    0.1770   -1.5798 O   0  0  0  0  0  0  0  0  0  0  0  0
   -2.9570   -1.3339   -0.3729 C   0  0  0  0  0  0  0  0  0  0  0  0
   -4.0727   -1.0331   -1.3381 C   0  0  0  0  0  0  0  0  0  0  0  0
   -5.2444   -0.3996   -0.8993 C   0  0  0  0  0  0  0  0  0  0  0  0
   -6.2758   -0.1188   -1.7966 C   0  0  0  0  0  0  0  0  0  0  0  0
   -6.1469   -0.4654   -3.1398 C   0  0  0  0  0  0  0  0  0  0  0  0
   -4.9851   -1.0896   -3.5886 C   0  0  0  0  0  0  0  0  0  0  0  0
   -3.9519   -1.3716   -2.6938 C   0  0  0  0  0  0  0  0  0  0  0  0
    1.7865   -0.1401   -0.3272 S   0  0  0  0  0  0  0  0  0  0  0  0
    4.4020    0.8537    2.8691 H   0  0  0  0  0  0  0  0  0  0  0  0
    5.2138    2.3539    2.3777 H   0  0  0  0  0  0  0  0  0  0  0  0
    6.1653    0.9281    2.8126 H   0  0  0  0  0  0  0  0  0  0  0  0
    6.1766    1.1717    0.3982 H   0  0  0  0  0  0  0  0  0  0  0  0
    4.4279   -1.1788    1.2790 H   0  0  0  0  0  0  0  0  0  0  0  0
    6.1921   -1.1103    1.2363 H   0  0  0  0  0  0  0  0  0  0  0  0
    5.2771   -1.0569   -0.2756 H   0  0  0  0  0  0  0  0  0  0  0  0
    4.2191    1.1509   -1.0219 H   0  0  0  0  0  0  0  0  0  0  0  0
    4.1754    2.5142    0.0745 H   0  0  0  0  0  0  0  0  0  0  0  0
   -1.1228   -0.3025    1.7779 H   0  0  0  0  0  0  0  0  0  0  0  0
   -2.3907   -2.2154   -0.6900 H   0  0  0  0  0  0  0  0  0  0  0  0
   -3.3477   -1.5061    0.6350 H   0  0  0  0  0  0  0  0  0  0  0  0
   -5.3610   -0.1076    0.1429 H   0  0  0  0  0  0  0  0  0  0  0  0
   -7.1779    0.3780   -1.4487 H   0  0  0  0  0  0  0  0  0  0  0  0
   -6.9485   -0.2411   -3.8387 H   0  0  0  0  0  0  0  0  0  0  0  0
   -4.8799   -1.3502   -4.6387 H   0  0  0  0  0  0  0  0  0  0  0  0
   -3.0471   -1.8473   -3.0680 H   0  0  0  0  0  0  0  0  0  0  0  0
  1  2  1  0
  2  3  1  0
  2  4  1  0
  4  5  1  0
  5  6  2  0
  6  7  1  0
  7  8  2  0
  8  9  1  0
  9 10  1  0
 10 11  2  0
 10 12  2  0
 10 13  1  0
 13 14  1  0
 14 15  2  0
 15 16  1  0
 16 17  2  0
 17 18  1  0
 18 19  2  0
  8 20  1  0
 20  5  1  0
 19 14  1  0
  1 21  1  0
  1 22  1  0
  1 23  1  0
  2 24  1  0
  3 25  1  0
  3 26  1  0
  3 27  1  0
  4 28  1  0
  4 29  1  0
  9 30  1  0
 13 31  1  0
 13 32  1  0
 15 33  1  0
 16 34  1  0
 17 35  1  0
 18 36  1  0
 19 37  1  0
M  END
$$$$
