
     RDKit          3D

 46 48  0  0  0  0  0  0  0  0999 V2000
    4.9081    1.2389   -4.3889 C   0  0  0  0  0  0  0  0  0  0  0  0
    5.2810    2.5566   -4.0138 O   0  0  0  0  0  0  0  0  0  0  0  0
    5.2193    2.7954   -2.6040 C   0  0  0  0  0  0  0  0  0  0  0  0
    3.7869    2.9198   -2.0844 C   0  0  0  0  0  0  0  0  0  0  0  0
    3.2607    1.6092   -1.8112 O   0  0  0  0  0  0  0  0  0  0  0  0
    1.9742    1.6088   -1.3545 C   0  0  0  0  0  0  0  0  0  0  0  0
    1.3070    2.6256   -1.2039 O   0  0  0  0  0  0  0  0  0  0  0  0
    1.4667    0.2784   -1.0627 C   0  0  0  0  0  0  0  0  0  0  0  0
    2.1318   -0.9324   -1.2023 C   0  0  0  0  0  0  0  0  0  0  0  0
    3.4870   -1.3209   -1.6519 C   0  0  0  0  0  0  0  0  0  0  0  0
    1.3241   -1.9675   -0.8368 O   0  0  0  0  0  0  0  0  0  0  0  0
    0.1363   -1.4389   -0.4488 C   0  0  0  0  0  0  0  0  0  0  0  0
   -0.9589   -2.1704    0.0045 C   0  0  0  0  0  0  0  0  0  0  0  0
   -2.0945   -1.4374    0.3640 C   0  0  0  0  0  0  0  0  0  0  0  0
   -2.1122   -0.0450    0.2610 C   0  0  0  0  0  0  0  0  0  0  0  0
   -3.2650    0.6742    0.6835 N   0  0  0  0  0  0  0  0  0  0  0  0
   -3.3760    1.0911    2.3214 S   0  0  0  0  0  6  0  0  0  0  0  0
   -2.0518    1.3266    2.8534 O   0  0  0  0  0  0  0  0  0  0  0  0
   -4.4093    2.1016    2.4084 O   0  0  0  0  0  0  0  0  0  0  0  0
   -4.0323   -0.3892    3.0533 C   0  0  0  0  0  0  0  0  0  0  0  0
   -5.3861   -0.6991    2.8743 C   0  0  0  0  0  0  0  0  0  0  0  0
   -5.9062   -1.8549    3.4575 C   0  0  0  0  0  0  0  0  0  0  0  0
   -5.0754   -2.6769    4.2144 C   0  0  0  0  0  0  0  0  0  0  0  0
   -5.5784   -3.7862    4.7709 F   0  0  0  0  0  0  0  0  0  0  0  0
   -3.7319   -2.3652    4.4049 C   0  0  0  0  0  0  0  0  0  0  0  0
   -3.2030   -1.2111    3.8260 C   0  0  0  0  0  0  0  0  0  0  0  0
   -0.9917    0.6637   -0.1941 C   0  0  0  0  0  0  0  0  0  0  0  0
    0.1634   -0.0557   -0.5644 C   0  0  0  0  0  0  0  0  0  0  0  0
    3.8320    1.0924   -4.2665 H   0  0  0  0  0  0  0  0  0  0  0  0
    5.4653    0.4945   -3.8123 H   0  0  0  0  0  0  0  0  0  0  0  0
    5.1474    1.1061   -5.4476 H   0  0  0  0  0  0  0  0  0  0  0  0
    5.7801    2.0184   -2.0720 H   0  0  0  0  0  0  0  0  0  0  0  0
    5.7309    3.7502   -2.4435 H   0  0  0  0  0  0  0  0  0  0  0  0
    3.7952    3.4863   -1.1463 H   0  0  0  0  0  0  0  0  0  0  0  0
    3.1555    3.4217   -2.8264 H   0  0  0  0  0  0  0  0  0  0  0  0
    3.6199   -1.0825   -2.7110 H   0  0  0  0  0  0  0  0  0  0  0  0
    4.2531   -0.7959   -1.0734 H   0  0  0  0  0  0  0  0  0  0  0  0
    3.6540   -2.3956   -1.5269 H   0  0  0  0  0  0  0  0  0  0  0  0
   -0.9255   -3.2511    0.0735 H   0  0  0  0  0  0  0  0  0  0  0  0
   -2.9737   -1.9728    0.7142 H   0  0  0  0  0  0  0  0  0  0  0  0
   -3.5592    1.4611    0.1041 H   0  0  0  0  0  0  0  0  0  0  0  0
   -6.0322   -0.0482    2.2892 H   0  0  0  0  0  0  0  0  0  0  0  0
   -6.9521   -2.1182    3.3325 H   0  0  0  0  0  0  0  0  0  0  0  0
   -3.1087   -3.0205    5.0058 H   0  0  0  0  0  0  0  0  0  0  0  0
   -2.1545   -0.9622    3.9774 H   0  0  0  0  0  0  0  0  0  0  0  0
   -1.0008    1.7489   -0.2464 H   0  0  0  0  0  0  0  0  0  0  0  0
  1  2  1  0
  2  3  1  0
  3  4  1  0
  4  5  1  0
  5  6  1  0
  6  7  2  0
  6  8  1  0
  8  9  2  0
  9 10  1  0
  9 11  1  0
 11 12  1  0
 12 13  2  0
 13 14  1  0
 14 15  2  0
 15 16  1  0
 16 17  1  0
 17 18  2  0
 17 19  2  0
 17 20  1  0
 20 21  2  0
 21 22  1  0
 22 23  2  0
 23 24  1  0
 23 25  1  0
 25 26  2  0
 15 27  1  0
 27 28  2  0
 28  8  1  0
 28 12  1  0
 26 20  1  0
  1 29  1  0
  1 30  1  0
  1 31  1  0
  3 32  1  0
  3 33  1  0
  4 34  1  0
  4 35  1  0
 10 36  1  0
 10 37  1  0
 10 38  1  0
 13 39  1  0
 14 40  1  0
 16 41  1  0
 21 42  1  0
 22 43  1  0
 25 44  1  0
 26 45  1  0
 27 46  1  0
M  END
$$$$
