
     RDKit          3D

 61 64  0  0  0  0  0  0  0  0999 V2000
    9.2319   -1.9768   -0.0091 C   0  0  0  0  0  0  0  0  0  0  0  0
    7.9349   -1.9985    0.7606 C   0  0  0  0  0  0  0  0  0  0  0  0
    7.9214   -1.8607    1.9779 O   0  0  0  0  0  0  0  0  0  0  0  0
    6.8449   -2.1873   -0.0719 N   0  0  0  0  0  0  0  0  0  0  0  0
    5.4868   -2.2701    0.2977 C   0  0  0  0  0  0  0  0  0  0  0  0
    4.5553   -2.4563   -0.7352 C   0  0  0  0  0  0  0  0  0  0  0  0
    3.1879   -2.5451   -0.4591 C   0  0  0  0  0  0  0  0  0  0  0  0
    2.7487   -2.4455    0.8609 C   0  0  0  0  0  0  0  0  0  0  0  0
    1.0184   -2.5498    1.2396 S   0  0  0  0  0  6  0  0  0  0  0  0
    0.2844   -2.7292    0.0041 O   0  0  0  0  0  0  0  0  0  0  0  0
    0.8680   -3.4839    2.3344 O   0  0  0  0  0  0  0  0  0  0  0  0
    0.6691   -0.9852    1.8250 N   0  0  0  0  0  0  0  0  0  0  0  0
    0.9361    0.1365    0.8560 C   0  0  0  0  0  0  0  0  0  0  0  0
   -0.1123    1.2583    0.9339 C   0  0  0  0  0  0  0  0  0  0  0  0
   -1.4658    0.7190    0.6844 N   0  0  0  0  0  0  0  0  0  0  0  0
   -2.4451    1.6622    0.6075 C   0  0  0  0  0  0  0  0  0  0  0  0
   -2.4092    2.8684    1.1277 N   0  0  0  0  0  0  0  0  0  0  0  0
   -3.5908    3.4653    0.7758 C   0  0  0  0  0  0  0  0  0  0  0  0
   -4.0670    4.7467    1.0933 C   0  0  0  0  0  0  0  0  0  0  0  0
   -5.3175    5.1421    0.6048 C   0  0  0  0  0  0  0  0  0  0  0  0
   -6.0774    4.2796   -0.1875 C   0  0  0  0  0  0  0  0  0  0  0  0
   -5.6176    2.9985   -0.5157 C   0  0  0  0  0  0  0  0  0  0  0  0
   -4.3662    2.6188   -0.0113 C   0  0  0  0  0  0  0  0  0  0  0  0
   -3.6013    1.4770   -0.1274 N   0  0  0  0  0  0  0  0  0  0  0  0
   -3.9405    0.3171   -0.9325 C   0  0  0  0  0  0  0  0  0  0  0  0
   -3.0940    0.1602   -2.2090 C   0  0  0  0  0  0  0  0  0  0  0  0
   -3.3447    1.2936   -3.2069 C   0  0  0  0  0  0  0  0  0  0  0  0
   -3.3966   -1.1878   -2.8679 C   0  0  0  0  0  0  0  0  0  0  0  0
   -1.7805   -0.5103    1.4521 C   0  0  0  0  0  0  0  0  0  0  0  0
   -0.6828   -0.8745    2.4676 C   0  0  0  0  0  0  0  0  0  0  0  0
    3.6622   -2.2714    1.9012 C   0  0  0  0  0  0  0  0  0  0  0  0
    5.0286   -2.1813    1.6156 C   0  0  0  0  0  0  0  0  0  0  0  0
   10.0594   -1.7579    0.6725 H   0  0  0  0  0  0  0  0  0  0  0  0
    9.1989   -1.1994   -0.7783 H   0  0  0  0  0  0  0  0  0  0  0  0
    9.4045   -2.9526   -0.4720 H   0  0  0  0  0  0  0  0  0  0  0  0
    7.0438   -2.2795   -1.0600 H   0  0  0  0  0  0  0  0  0  0  0  0
    4.8801   -2.5373   -1.7699 H   0  0  0  0  0  0  0  0  0  0  0  0
    2.4814   -2.6923   -1.2730 H   0  0  0  0  0  0  0  0  0  0  0  0
    0.9581   -0.2404   -0.1723 H   0  0  0  0  0  0  0  0  0  0  0  0
    1.9253    0.5481    1.0829 H   0  0  0  0  0  0  0  0  0  0  0  0
   -0.0658    1.7466    1.9163 H   0  0  0  0  0  0  0  0  0  0  0  0
    0.1318    2.0141    0.1764 H   0  0  0  0  0  0  0  0  0  0  0  0
   -3.4682    5.4108    1.7072 H   0  0  0  0  0  0  0  0  0  0  0  0
   -5.6969    6.1325    0.8453 H   0  0  0  0  0  0  0  0  0  0  0  0
   -7.0453    4.6092   -0.5596 H   0  0  0  0  0  0  0  0  0  0  0  0
   -6.2141    2.3394   -1.1372 H   0  0  0  0  0  0  0  0  0  0  0  0
   -3.8425   -0.5615   -0.2864 H   0  0  0  0  0  0  0  0  0  0  0  0
   -5.0044    0.3755   -1.1893 H   0  0  0  0  0  0  0  0  0  0  0  0
   -2.0282    0.1707   -1.9497 H   0  0  0  0  0  0  0  0  0  0  0  0
   -2.7611    1.1388   -4.1202 H   0  0  0  0  0  0  0  0  0  0  0  0
   -4.4011    1.3522   -3.4876 H   0  0  0  0  0  0  0  0  0  0  0  0
   -3.0492    2.2615   -2.7928 H   0  0  0  0  0  0  0  0  0  0  0  0
   -3.1882   -2.0125   -2.1788 H   0  0  0  0  0  0  0  0  0  0  0  0
   -2.7764   -1.3334   -3.7585 H   0  0  0  0  0  0  0  0  0  0  0  0
   -4.4466   -1.2560   -3.1716 H   0  0  0  0  0  0  0  0  0  0  0  0
   -2.7295   -0.4082    1.9944 H   0  0  0  0  0  0  0  0  0  0  0  0
   -1.9016   -1.3327    0.7384 H   0  0  0  0  0  0  0  0  0  0  0  0
   -0.6180   -0.1099    3.2523 H   0  0  0  0  0  0  0  0  0  0  0  0
   -0.9464   -1.8043    2.9831 H   0  0  0  0  0  0  0  0  0  0  0  0
    3.3205   -2.2051    2.9325 H   0  0  0  0  0  0  0  0  0  0  0  0
    5.7104   -2.0457    2.4500 H   0  0  0  0  0  0  0  0  0  0  0  0
  1  2  1  0
  2  3  2  0
  2  4  1  0
  4  5  1  0
  5  6  2  0
  6  7  1  0
  7  8  2  0
  8  9  1  0
  9 10  2  0
  9 11  2  0
  9 12  1  0
 12 13  1  0
 13 14  1  0
 14 15  1  0
 15 16  1  0
 16 17  2  0
 17 18  1  0
 18 19  2  0
 19 20  1  0
 20 21  2  0
 21 22  1  0
 22 23  2  0
 23 24  1  0
 24 25  1  0
 25 26  1  0
 26 27  1  0
 26 28  1  0
 15 29  1  0
 29 30  1  0
  8 31  1  0
 31 32  2  0
 32  5  1  0
 30 12  1  0
 24 16  1  0
 23 18  1  0
  1 33  1  0
  1 34  1  0
  1 35  1  0
  4 36  1  0
  6 37  1  0
  7 38  1  0
 13 39  1  0
 13 40  1  0
 14 41  1  0
 14 42  1  0
 19 43  1  0
 20 44  1  0
 21 45  1  0
 22 46  1  0
 25 47  1  0
 25 48  1  0
 26 49  1  0
 27 50  1  0
 27 51  1  0
 27 52  1  0
 28 53  1  0
 28 54  1  0
 28 55  1  0
 29 56  1  0
 29 57  1  0
 30 58  1  0
 30 59  1  0
 31 60  1  0
 32 61  1  0
M  END
$$$$
