
     RDKit          3D

 61 63  0  0  0  0  0  0  0  0999 V2000
   -3.6640   -3.7523   -1.7026 C   0  0  0  0  0  0  0  0  0  0  0  0
   -2.9494   -3.7910   -0.3590 C   0  0  0  0  0  0  0  0  0  0  0  0
   -2.6053   -2.3967    0.1862 C   0  0  0  0  0  0  0  0  0  0  0  0
   -3.7605   -1.4895    0.3125 N   0  0  0  0  0  0  0  0  0  0  0  0
   -4.6696   -1.9023    1.3951 C   0  0  0  0  0  0  0  0  0  0  0  0
   -5.9780   -1.1031    1.4821 C   0  0  0  0  0  0  0  0  0  0  0  0
   -6.8040   -1.1714    0.2056 C   0  0  0  0  0  0  0  0  0  0  0  0
   -3.3244   -0.0818    0.4028 C   0  0  0  0  0  0  0  0  0  0  0  0
   -2.5612    0.3432    1.6744 C   0  0  0  0  0  0  0  0  0  0  0  0
   -2.1937    1.7634    1.5737 N   0  0  0  0  0  0  0  0  0  0  0  0
   -0.9578    2.3344    2.5558 S   0  0  0  0  0  6  0  0  0  0  0  0
   -1.0739    3.7755    2.5507 O   0  0  0  0  0  0  0  0  0  0  0  0
   -0.9685    1.5712    3.7828 O   0  0  0  0  0  0  0  0  0  0  0  0
    0.4823    1.9071    1.6120 C   0  0  0  0  0  0  0  0  0  0  0  0
    1.2859    0.8276    2.0120 C   0  0  0  0  0  0  0  0  0  0  0  0
    2.4317    0.4943    1.2791 C   0  0  0  0  0  0  0  0  0  0  0  0
    2.7557    1.2468    0.1591 C   0  0  0  0  0  0  0  0  0  0  0  0
    1.9543    2.3302   -0.2172 C   0  0  0  0  0  0  0  0  0  0  0  0
    0.8181    2.6815    0.4977 C   0  0  0  0  0  0  0  0  0  0  0  0
    2.5349    3.0482   -1.3896 C   0  0  0  0  0  0  0  0  0  0  0  0
    3.6217    2.0662   -1.8372 C   0  0  0  0  0  0  0  0  0  0  0  0
    3.8435    1.1097   -0.7383 N   0  0  0  0  0  0  0  0  0  0  0  0
    4.8541    0.1542   -0.6290 C   0  0  0  0  0  0  0  0  0  0  0  0
    4.8582   -0.6826    0.2908 O   0  0  0  0  0  0  0  0  0  0  0  0
    6.0243    0.1149   -1.6265 C   0  0  0  0  0  0  0  0  0  0  0  0
    7.0076    1.3036   -1.7290 C   0  0  0  0  0  0  0  0  0  0  0  0
    7.2299    0.9149   -3.2037 C   0  0  0  0  0  0  0  0  0  0  0  0
    5.8744    0.1810   -3.1616 C   0  0  0  0  0  0  0  0  0  0  0  0
   -4.6521   -3.2902   -1.6168 H   0  0  0  0  0  0  0  0  0  0  0  0
   -3.0832   -3.1910   -2.4418 H   0  0  0  0  0  0  0  0  0  0  0  0
   -3.8045   -4.7691   -2.0829 H   0  0  0  0  0  0  0  0  0  0  0  0
   -2.0152   -4.3524   -0.4780 H   0  0  0  0  0  0  0  0  0  0  0  0
   -3.5531   -4.3553    0.3601 H   0  0  0  0  0  0  0  0  0  0  0  0
   -1.8749   -1.9602   -0.5077 H   0  0  0  0  0  0  0  0  0  0  0  0
   -2.0921   -2.5081    1.1494 H   0  0  0  0  0  0  0  0  0  0  0  0
   -4.9597   -2.9490    1.2501 H   0  0  0  0  0  0  0  0  0  0  0  0
   -4.1602   -1.8610    2.3655 H   0  0  0  0  0  0  0  0  0  0  0  0
   -6.5764   -1.5130    2.3045 H   0  0  0  0  0  0  0  0  0  0  0  0
   -5.7823   -0.0570    1.7410 H   0  0  0  0  0  0  0  0  0  0  0  0
   -7.0302   -2.2092   -0.0589 H   0  0  0  0  0  0  0  0  0  0  0  0
   -7.7522   -0.6433    0.3421 H   0  0  0  0  0  0  0  0  0  0  0  0
   -6.2818   -0.7081   -0.6364 H   0  0  0  0  0  0  0  0  0  0  0  0
   -4.1952    0.5732    0.2734 H   0  0  0  0  0  0  0  0  0  0  0  0
   -2.7004    0.1458   -0.4732 H   0  0  0  0  0  0  0  0  0  0  0  0
   -1.6614   -0.2697    1.7866 H   0  0  0  0  0  0  0  0  0  0  0  0
   -3.1920    0.2138    2.5601 H   0  0  0  0  0  0  0  0  0  0  0  0
   -2.9386    2.4488    1.4518 H   0  0  0  0  0  0  0  0  0  0  0  0
    1.0315    0.2430    2.8944 H   0  0  0  0  0  0  0  0  0  0  0  0
    3.0375   -0.3444    1.6057 H   0  0  0  0  0  0  0  0  0  0  0  0
    0.2143    3.5371    0.2077 H   0  0  0  0  0  0  0  0  0  0  0  0
    1.8037    3.2295   -2.1821 H   0  0  0  0  0  0  0  0  0  0  0  0
    2.9756    3.9970   -1.0661 H   0  0  0  0  0  0  0  0  0  0  0  0
    4.5374    2.5867   -2.1178 H   0  0  0  0  0  0  0  0  0  0  0  0
    3.2624    1.4921   -2.6983 H   0  0  0  0  0  0  0  0  0  0  0  0
    6.6095   -0.7945   -1.3914 H   0  0  0  0  0  0  0  0  0  0  0  0
    6.5722    2.2961   -1.5880 H   0  0  0  0  0  0  0  0  0  0  0  0
    7.8951    1.2299   -1.0941 H   0  0  0  0  0  0  0  0  0  0  0  0
    8.0857    0.2480   -3.3570 H   0  0  0  0  0  0  0  0  0  0  0  0
    7.2956    1.7477   -3.9078 H   0  0  0  0  0  0  0  0  0  0  0  0
    5.8613   -0.7890   -3.6681 H   0  0  0  0  0  0  0  0  0  0  0  0
    5.0575    0.7789   -3.5648 H   0  0  0  0  0  0  0  0  0  0  0  0
  1  2  1  0
  2  3  1  0
  3  4  1  0
  4  5  1  0
  5  6  1  0
  6  7  1  0
  4  8  1  0
  8  9  1  0
  9 10  1  0
 10 11  1  0
 11 12  2  0
 11 13  2  0
 11 14  1  0
 14 15  2  0
 15 16  1  0
 16 17  2  0
 17 18  1  0
 18 19  2  0
 18 20  1  0
 20 21  1  0
 21 22  1  0
 22 23  1  0
 23 24  2  0
 23 25  1  0
 25 26  1  0
 26 27  1  0
 27 28  1  0
 19 14  1  0
 28 25  1  0
 22 17  1  0
  1 29  1  0
  1 30  1  0
  1 31  1  0
  2 32  1  0
  2 33  1  0
  3 34  1  0
  3 35  1  0
  5 36  1  0
  5 37  1  0
  6 38  1  0
  6 39  1  0
  7 40  1  0
  7 41  1  0
  7 42  1  0
  8 43  1  0
  8 44  1  0
  9 45  1  0
  9 46  1  0
 10 47  1  0
 15 48  1  0
 16 49  1  0
 19 50  1  0
 20 51  1  0
 20 52  1  0
 21 53  1  0
 21 54  1  0
 25 55  1  0
 26 56  1  0
 26 57  1  0
 27 58  1  0
 27 59  1  0
 28 60  1  0
 28 61  1  0
M  END
$$$$
