
     RDKit          3D

 46 47  0  0  0  0  0  0  0  0999 V2000
    1.0514   -3.4887    2.1287 C   0  0  0  0  0  0  0  0  0  0  0  0
    0.8515   -2.9819    0.7133 C   0  0  0  0  0  0  0  0  0  0  0  0
    0.9131   -1.5466    0.6885 O   0  0  0  0  0  0  0  0  0  0  0  0
    2.1618   -1.0090    0.5646 C   0  0  0  0  0  0  0  0  0  0  0  0
    3.1810   -1.6704    0.4082 O   0  0  0  0  0  0  0  0  0  0  0  0
    2.1454    0.4536    0.5410 C   0  0  0  0  0  0  0  0  0  0  0  0
    3.0706    1.2350   -0.1470 C   0  0  0  0  0  0  0  0  0  0  0  0
    4.2447    0.8401   -0.9735 C   0  0  0  0  0  0  0  0  0  0  0  0
    2.7474    2.5543    0.0420 N   0  0  0  0  0  0  0  0  0  0  0  0
    1.6367    2.6617    0.8402 C   0  0  0  0  0  0  0  0  0  0  0  0
    1.0852    3.9931    1.2082 C   0  0  0  0  0  0  0  0  0  0  0  0
    1.2533    1.3729    1.1888 C   0  0  0  0  0  0  0  0  0  0  0  0
   -0.0493    0.9165    2.2512 S   0  0  0  0  0  6  0  0  0  0  0  0
    0.5574   -0.0386    3.1497 O   0  0  0  0  0  0  0  0  0  0  0  0
   -0.6288    2.1549    2.7189 O   0  0  0  0  0  0  0  0  0  0  0  0
   -1.2010    0.1115    1.3329 N   0  0  0  0  0  0  0  0  0  0  0  0
   -1.9186    0.9217    0.3454 C   0  0  0  0  0  0  0  0  0  0  0  0
   -2.7115    0.0346   -0.5903 C   0  0  0  0  0  0  0  0  0  0  0  0
   -3.9615   -0.4421   -0.1547 C   0  0  0  0  0  0  0  0  0  0  0  0
   -4.7286   -1.2830   -0.9591 C   0  0  0  0  0  0  0  0  0  0  0  0
   -4.2546   -1.6667   -2.2083 C   0  0  0  0  0  0  0  0  0  0  0  0
   -3.0107   -1.2161   -2.6502 C   0  0  0  0  0  0  0  0  0  0  0  0
   -2.2218   -0.3732   -1.8499 C   0  0  0  0  0  0  0  0  0  0  0  0
   -0.8867    0.0814   -2.3729 C   0  0  0  0  0  0  0  0  0  0  0  0
    0.3101   -3.0471    2.8028 H   0  0  0  0  0  0  0  0  0  0  0  0
    2.0376   -3.2077    2.5115 H   0  0  0  0  0  0  0  0  0  0  0  0
    0.9579   -4.5776    2.1676 H   0  0  0  0  0  0  0  0  0  0  0  0
   -0.1461   -3.2629    0.3597 H   0  0  0  0  0  0  0  0  0  0  0  0
    1.5738   -3.4265    0.0193 H   0  0  0  0  0  0  0  0  0  0  0  0
    5.0235    0.4016   -0.3418 H   0  0  0  0  0  0  0  0  0  0  0  0
    3.9519    0.1039   -1.7288 H   0  0  0  0  0  0  0  0  0  0  0  0
    4.6766    1.7003   -1.4954 H   0  0  0  0  0  0  0  0  0  0  0  0
    3.2642    3.3374   -0.3407 H   0  0  0  0  0  0  0  0  0  0  0  0
    1.6240    4.8031    0.7052 H   0  0  0  0  0  0  0  0  0  0  0  0
    1.1678    4.1584    2.2868 H   0  0  0  0  0  0  0  0  0  0  0  0
    0.0327    4.0666    0.9169 H   0  0  0  0  0  0  0  0  0  0  0  0
   -0.7997   -0.7481    0.9522 H   0  0  0  0  0  0  0  0  0  0  0  0
   -1.2278    1.5448   -0.2297 H   0  0  0  0  0  0  0  0  0  0  0  0
   -2.6034    1.6065    0.8599 H   0  0  0  0  0  0  0  0  0  0  0  0
   -4.3395   -0.1597    0.8269 H   0  0  0  0  0  0  0  0  0  0  0  0
   -5.6935   -1.6396   -0.6082 H   0  0  0  0  0  0  0  0  0  0  0  0
   -4.8511   -2.3210   -2.8387 H   0  0  0  0  0  0  0  0  0  0  0  0
   -2.6585   -1.5328   -3.6300 H   0  0  0  0  0  0  0  0  0  0  0  0
   -0.9009    1.1594   -2.5613 H   0  0  0  0  0  0  0  0  0  0  0  0
   -0.0943   -0.1562   -1.6578 H   0  0  0  0  0  0  0  0  0  0  0  0
   -0.6318   -0.4178   -3.3139 H   0  0  0  0  0  0  0  0  0  0  0  0
  1  2  1  0
  2  3  1  0
  3  4  1  0
  4  5  2  0
  4  6  1  0
  6  7  2  0
  7  8  1  0
  7  9  1  0
  9 10  1  0
 10 11  1  0
 10 12  2  0
 12 13  1  0
 13 14  2  0
 13 15  2  0
 13 16  1  0
 16 17  1  0
 17 18  1  0
 18 19  2  0
 19 20  1  0
 20 21  2  0
 21 22  1  0
 22 23  2  0
 23 24  1  0
 12  6  1  0
 23 18  1  0
  1 25  1  0
  1 26  1  0
  1 27  1  0
  2 28  1  0
  2 29  1  0
  8 30  1  0
  8 31  1  0
  8 32  1  0
  9 33  1  0
 11 34  1  0
 11 35  1  0
 11 36  1  0
 16 37  1  0
 17 38  1  0
 17 39  1  0
 19 40  1  0
 20 41  1  0
 21 42  1  0
 22 43  1  0
 24 44  1  0
 24 45  1  0
 24 46  1  0
M  END
$$$$
