
     RDKit          3D

 67 72  0  0  0  0  0  0  0  0999 V2000
   -2.1594   -0.7280    2.5992 O   0  0  0  0  0  0  0  0  0  0  0  0
   -2.2193   -0.4325    1.4043 C   0  0  0  0  0  0  0  0  0  0  0  0
   -0.9722   -0.4870    0.5290 C   0  0  0  0  0  0  0  0  0  0  0  0
   -0.8606   -1.8603   -0.1407 C   0  0  0  0  0  0  0  0  0  0  0  0
    0.4066   -1.9299   -0.9856 C   0  0  0  0  0  0  0  0  0  0  0  0
    1.6589   -1.5850   -0.1757 C   0  0  0  0  0  0  0  0  0  0  0  0
    1.4831   -0.3015    0.5193 N   0  0  0  0  0  0  0  0  0  0  0  0
    2.6525    0.1786    1.1572 C   0  0  0  0  0  0  0  0  0  0  0  0
    2.5351    0.8064    2.3706 N   0  0  0  0  0  0  0  0  0  0  0  0
    3.6277    1.2938    2.9907 C   0  0  0  0  0  0  0  0  0  0  0  0
    4.9016    1.2636    2.5700 N   0  0  0  0  0  0  0  0  0  0  0  0
    4.9948    0.6593    1.3743 C   0  0  0  0  0  0  0  0  0  0  0  0
    3.9691    0.1118    0.6199 C   0  0  0  0  0  0  0  0  0  0  0  0
    4.4845   -0.3972   -0.5594 N   0  0  0  0  0  0  0  0  0  0  0  0
    5.7844   -0.1673   -0.5305 C   0  0  0  0  0  0  0  0  0  0  0  0
    6.1389    0.4648    0.6412 N   0  0  0  0  0  0  0  0  0  0  0  0
    7.4515    0.9151    1.0619 C   0  0  0  0  0  0  0  0  0  0  0  0
    8.6159    0.0665    0.5623 C   0  0  0  0  0  0  0  0  0  0  0  0
    8.9991    0.3429   -0.8919 C   0  0  0  0  0  0  0  0  0  0  0  0
    7.8305    0.4656   -1.8703 C   0  0  0  0  0  0  0  0  0  0  0  0
    6.7260   -0.5546   -1.6264 C   0  0  0  0  0  0  0  0  0  0  0  0
    0.2800   -0.2203    1.3736 C   0  0  0  0  0  0  0  0  0  0  0  0
   -3.4234   -0.1041    0.7965 N   0  0  0  0  0  0  0  0  0  0  0  0
   -4.6363   -0.0195    1.6277 C   0  0  0  0  0  0  0  0  0  0  0  0
   -5.5499    1.1424    1.2026 C   0  0  0  0  0  0  0  0  0  0  0  0
   -5.9535    1.0562   -0.2209 N   0  0  0  0  0  0  0  0  0  0  0  0
   -7.2960    0.7316   -0.5067 C   0  0  0  0  0  0  0  0  0  0  0  0
   -7.8606    1.2327   -1.6935 C   0  0  0  0  0  0  0  0  0  0  0  0
   -9.1816    0.9449   -2.0551 C   0  0  0  0  0  0  0  0  0  0  0  0
   -9.9702    0.1408   -1.2361 C   0  0  0  0  0  0  0  0  0  0  0  0
   -9.4352   -0.3747   -0.0585 C   0  0  0  0  0  0  0  0  0  0  0  0
   -8.1168   -0.0830    0.2943 C   0  0  0  0  0  0  0  0  0  0  0  0
   -7.6412   -0.6416    1.4196 F   0  0  0  0  0  0  0  0  0  0  0  0
   -5.0200    0.3043   -1.0954 C   0  0  0  0  0  0  0  0  0  0  0  0
   -3.5695    0.3772   -0.5850 C   0  0  0  0  0  0  0  0  0  0  0  0
   -1.0222    0.2980   -0.2353 H   0  0  0  0  0  0  0  0  0  0  0  0
   -0.8400   -2.6498    0.6226 H   0  0  0  0  0  0  0  0  0  0  0  0
   -1.7332   -2.0665   -0.7699 H   0  0  0  0  0  0  0  0  0  0  0  0
    0.3149   -1.2300   -1.8265 H   0  0  0  0  0  0  0  0  0  0  0  0
    0.5104   -2.9328   -1.4151 H   0  0  0  0  0  0  0  0  0  0  0  0
    1.8620   -2.3812    0.5519 H   0  0  0  0  0  0  0  0  0  0  0  0
    2.4841   -1.5608   -0.8901 H   0  0  0  0  0  0  0  0  0  0  0  0
    3.4517    1.7714    3.9504 H   0  0  0  0  0  0  0  0  0  0  0  0
    7.4618    0.8905    2.1582 H   0  0  0  0  0  0  0  0  0  0  0  0
    7.5516    1.9609    0.7495 H   0  0  0  0  0  0  0  0  0  0  0  0
    9.4963    0.2692    1.1850 H   0  0  0  0  0  0  0  0  0  0  0  0
    8.3890   -0.9993    0.6932 H   0  0  0  0  0  0  0  0  0  0  0  0
    9.6671   -0.4603   -1.2274 H   0  0  0  0  0  0  0  0  0  0  0  0
    9.5878    1.2677   -0.9425 H   0  0  0  0  0  0  0  0  0  0  0  0
    7.4235    1.4846   -1.8358 H   0  0  0  0  0  0  0  0  0  0  0  0
    8.2270    0.3303   -2.8843 H   0  0  0  0  0  0  0  0  0  0  0  0
    6.1391   -0.6475   -2.5486 H   0  0  0  0  0  0  0  0  0  0  0  0
    7.1437   -1.5473   -1.4227 H   0  0  0  0  0  0  0  0  0  0  0  0
    0.1730    0.7829    1.8080 H   0  0  0  0  0  0  0  0  0  0  0  0
    0.3604   -0.9378    2.2018 H   0  0  0  0  0  0  0  0  0  0  0  0
   -5.1564   -0.9789    1.5200 H   0  0  0  0  0  0  0  0  0  0  0  0
   -4.3714    0.0946    2.6837 H   0  0  0  0  0  0  0  0  0  0  0  0
   -4.9883    2.0785    1.3145 H   0  0  0  0  0  0  0  0  0  0  0  0
   -6.4050    1.2374    1.8808 H   0  0  0  0  0  0  0  0  0  0  0  0
   -7.2677    1.8782   -2.3373 H   0  0  0  0  0  0  0  0  0  0  0  0
   -9.5915    1.3540   -2.9758 H   0  0  0  0  0  0  0  0  0  0  0  0
  -10.9966   -0.0841   -1.5144 H   0  0  0  0  0  0  0  0  0  0  0  0
  -10.0314   -1.0108    0.5892 H   0  0  0  0  0  0  0  0  0  0  0  0
   -5.0543    0.7116   -2.1126 H   0  0  0  0  0  0  0  0  0  0  0  0
   -5.3167   -0.7525   -1.1443 H   0  0  0  0  0  0  0  0  0  0  0  0
   -3.2186    1.4158   -0.5967 H   0  0  0  0  0  0  0  0  0  0  0  0
   -2.9247   -0.1982   -1.2526 H   0  0  0  0  0  0  0  0  0  0  0  0
  1  2  2  0
  2  3  1  0
  3  4  1  0
  4  5  1  0
  5  6  1  0
  6  7  1  0
  7  8  1  0
  8  9  2  0
  9 10  1  0
 10 11  2  0
 11 12  1  0
 12 13  2  0
 13 14  1  0
 14 15  2  0
 15 16  1  0
 16 17  1  0
 17 18  1  0
 18 19  1  0
 19 20  1  0
 20 21  1  0
  7 22  1  0
  2 23  1  0
 23 24  1  0
 24 25  1  0
 25 26  1  0
 26 27  1  0
 27 28  2  0
 28 29  1  0
 29 30  2  0
 30 31  1  0
 31 32  2  0
 32 33  1  0
 26 34  1  0
 34 35  1  0
 22  3  1  0
 35 23  1  0
 13  8  1  0
 21 15  1  0
 32 27  1  0
 16 12  1  0
  3 36  1  0
  4 37  1  0
  4 38  1  0
  5 39  1  0
  5 40  1  0
  6 41  1  0
  6 42  1  0
 10 43  1  0
 17 44  1  0
 17 45  1  0
 18 46  1  0
 18 47  1  0
 19 48  1  0
 19 49  1  0
 20 50  1  0
 20 51  1  0
 21 52  1  0
 21 53  1  0
 22 54  1  0
 22 55  1  0
 24 56  1  0
 24 57  1  0
 25 58  1  0
 25 59  1  0
 28 60  1  0
 29 61  1  0
 30 62  1  0
 31 63  1  0
 34 64  1  0
 34 65  1  0
 35 66  1  0
 35 67  1  0
M  END
$$$$
