
     RDKit          3D

 34 36  0  0  0  0  0  0  0  0999 V2000
   -2.2816   -2.9781   -2.4578 O   0  0  0  0  0  0  0  0  0  0  0  0
   -2.1006   -1.9938   -1.7516 C   0  0  0  0  0  0  0  0  0  0  0  0
   -3.1738   -1.2219   -1.3203 O   0  0  0  0  0  0  0  0  0  0  0  0
   -2.9844   -0.0871   -0.5079 C   0  0  0  0  0  0  0  0  0  0  0  0
   -4.1419    0.6027   -0.1426 C   0  0  0  0  0  0  0  0  0  0  0  0
   -4.0356    1.7342    0.6591 C   0  0  0  0  0  0  0  0  0  0  0  0
   -2.7801    2.1625    1.0850 C   0  0  0  0  0  0  0  0  0  0  0  0
   -1.6287    1.4594    0.7097 C   0  0  0  0  0  0  0  0  0  0  0  0
   -1.7100    0.3158   -0.0978 C   0  0  0  0  0  0  0  0  0  0  0  0
   -0.5294   -0.4694   -0.5276 C   0  0  0  0  0  0  0  0  0  0  0  0
    0.7379   -0.0519   -0.1079 N   0  0  0  0  0  0  0  0  0  0  0  0
    1.2731   -0.4155    1.2126 C   0  0  0  0  0  0  0  0  0  0  0  0
    2.7344   -0.8381    1.0827 C   0  0  0  0  0  0  0  0  0  0  0  0
    3.5620    0.2335    0.3764 C   0  0  0  0  0  0  0  0  0  0  0  0
    2.9415    0.5972   -0.9707 C   0  0  0  0  0  0  0  0  0  0  0  0
    1.4778    1.0029   -0.8168 C   0  0  0  0  0  0  0  0  0  0  0  0
   -0.7925   -1.5376   -1.3007 C   0  0  0  0  0  0  0  0  0  0  0  0
    0.3156   -2.3237   -1.7384 N   0  0  0  0  0  4  0  0  0  0  0  0
    0.8458   -2.0044   -2.8128 O   0  0  0  0  0  0  0  0  0  0  0  0
    0.6639   -3.2646   -1.0099 O   0  0  0  0  0  1  0  0  0  0  0  0
   -5.1163    0.2601   -0.4803 H   0  0  0  0  0  0  0  0  0  0  0  0
   -4.9281    2.2819    0.9519 H   0  0  0  0  0  0  0  0  0  0  0  0
   -2.6933    3.0471    1.7121 H   0  0  0  0  0  0  0  0  0  0  0  0
   -0.6686    1.8253    1.0623 H   0  0  0  0  0  0  0  0  0  0  0  0
    0.6979   -1.2402    1.6504 H   0  0  0  0  0  0  0  0  0  0  0  0
    1.1868    0.4398    1.8930 H   0  0  0  0  0  0  0  0  0  0  0  0
    2.7967   -1.7737    0.5133 H   0  0  0  0  0  0  0  0  0  0  0  0
    3.1529   -1.0368    2.0755 H   0  0  0  0  0  0  0  0  0  0  0  0
    3.6203    1.1284    1.0078 H   0  0  0  0  0  0  0  0  0  0  0  0
    4.5867   -0.1251    0.2292 H   0  0  0  0  0  0  0  0  0  0  0  0
    3.0143   -0.2654   -1.6445 H   0  0  0  0  0  0  0  0  0  0  0  0
    3.5067    1.4147   -1.4318 H   0  0  0  0  0  0  0  0  0  0  0  0
    1.0470    1.1784   -1.8098 H   0  0  0  0  0  0  0  0  0  0  0  0
    1.4038    1.9434   -0.2581 H   0  0  0  0  0  0  0  0  0  0  0  0
  1  2  2  0
  2  3  1  0
  3  4  1  0
  4  5  2  0
  5  6  1  0
  6  7  2  0
  7  8  1  0
  8  9  2  0
  9 10  1  0
 10 11  1  0
 11 12  1  0
 12 13  1  0
 13 14  1  0
 14 15  1  0
 15 16  1  0
 10 17  2  0
 17 18  1  0
 18 19  2  0
 18 20  1  0
 17  2  1  0
  9  4  1  0
 16 11  1  0
  5 21  1  0
  6 22  1  0
  7 23  1  0
  8 24  1  0
 12 25  1  0
 12 26  1  0
 13 27  1  0
 13 28  1  0
 14 29  1  0
 14 30  1  0
 15 31  1  0
 15 32  1  0
 16 33  1  0
 16 34  1  0
M  CHG  2  18   1  20  -1
M  END
$$$$
