
     RDKit          3D

 60 64  0  0  0  0  0  0  0  0999 V2000
    5.2193    1.2298    2.2758 C   0  0  0  0  0  0  0  0  0  0  0  0
    4.8311    0.3021    1.2726 O   0  0  0  0  0  0  0  0  0  0  0  0
    5.8100   -0.2437    0.4812 C   0  0  0  0  0  0  0  0  0  0  0  0
    7.1702    0.0843    0.6007 C   0  0  0  0  0  0  0  0  0  0  0  0
    8.1294   -0.5239   -0.2123 C   0  0  0  0  0  0  0  0  0  0  0  0
    7.7457   -1.4724   -1.1492 C   0  0  0  0  0  0  0  0  0  0  0  0
    6.3984   -1.8035   -1.2806 C   0  0  0  0  0  0  0  0  0  0  0  0
    5.4100   -1.1915   -0.4843 C   0  0  0  0  0  0  0  0  0  0  0  0
    4.0195   -1.5916   -0.7215 C   0  0  0  0  0  0  0  0  0  0  0  0
    3.5750   -2.6777   -1.3306 N   0  0  0  0  0  0  0  0  0  0  0  0
    2.2092   -2.5029   -1.3423 C   0  0  0  0  0  0  0  0  0  0  0  0
    1.3520   -3.4929   -1.9093 C   0  0  0  0  0  0  0  0  0  0  0  0
    0.6351   -4.2751   -2.3844 N   0  0  0  0  0  0  0  0  0  0  0  0
    1.8588   -1.2986   -0.7595 C   0  0  0  0  0  0  0  0  0  0  0  0
    0.7165   -0.6053   -0.5181 N   0  0  0  0  0  0  0  0  0  0  0  0
    0.7458    0.6165    0.2996 C   0  0  0  0  0  0  0  0  0  0  0  0
   -0.6543    0.9233    0.8807 C   0  0  0  0  0  0  0  0  0  0  0  0
   -1.6813    1.1211   -0.1553 N   0  0  0  0  0  0  0  0  0  0  0  0
   -3.0664    1.1951    0.3674 C   0  0  0  0  0  0  0  0  0  0  0  0
   -3.5894   -0.1383    0.9265 C   0  0  0  0  0  0  0  0  0  0  0  0
   -3.5670   -0.3636    2.3141 C   0  0  0  0  0  0  0  0  0  0  0  0
   -4.0363   -1.5608    2.8571 C   0  0  0  0  0  0  0  0  0  0  0  0
   -4.5422   -2.5540    2.0210 C   0  0  0  0  0  0  0  0  0  0  0  0
   -4.5783   -2.3513    0.6442 C   0  0  0  0  0  0  0  0  0  0  0  0
   -4.1093   -1.1532    0.1010 C   0  0  0  0  0  0  0  0  0  0  0  0
   -4.0439    1.9341   -0.5727 C   0  0  0  0  0  0  0  0  0  0  0  0
   -5.4389    1.8246   -0.4081 C   0  0  0  0  0  0  0  0  0  0  0  0
   -6.3259    2.5215   -1.2341 C   0  0  0  0  0  0  0  0  0  0  0  0
   -5.8396    3.3651   -2.2251 C   0  0  0  0  0  0  0  0  0  0  0  0
   -4.4662    3.5246   -2.3802 C   0  0  0  0  0  0  0  0  0  0  0  0
   -3.5789    2.8265   -1.5561 C   0  0  0  0  0  0  0  0  0  0  0  0
   -1.4632    0.2707   -1.3357 C   0  0  0  0  0  0  0  0  0  0  0  0
   -0.5734   -0.9739   -1.1125 C   0  0  0  0  0  0  0  0  0  0  0  0
    3.0340   -0.7164   -0.3582 O   0  0  0  0  0  0  0  0  0  0  0  0
    5.8898    0.7645    3.0039 H   0  0  0  0  0  0  0  0  0  0  0  0
    5.6697    2.1234    1.8329 H   0  0  0  0  0  0  0  0  0  0  0  0
    4.3173    1.5421    2.8078 H   0  0  0  0  0  0  0  0  0  0  0  0
    7.5211    0.8140    1.3229 H   0  0  0  0  0  0  0  0  0  0  0  0
    9.1781   -0.2565   -0.1091 H   0  0  0  0  0  0  0  0  0  0  0  0
    8.4879   -1.9526   -1.7809 H   0  0  0  0  0  0  0  0  0  0  0  0
    6.1116   -2.5448   -2.0234 H   0  0  0  0  0  0  0  0  0  0  0  0
    1.4410    0.5019    1.1403 H   0  0  0  0  0  0  0  0  0  0  0  0
    1.0934    1.4596   -0.3107 H   0  0  0  0  0  0  0  0  0  0  0  0
   -0.9204    0.0919    1.5442 H   0  0  0  0  0  0  0  0  0  0  0  0
   -0.5873    1.8263    1.4986 H   0  0  0  0  0  0  0  0  0  0  0  0
   -3.0240    1.8906    1.2193 H   0  0  0  0  0  0  0  0  0  0  0  0
   -3.1756    0.3978    2.9881 H   0  0  0  0  0  0  0  0  0  0  0  0
   -4.0121   -1.7153    3.9340 H   0  0  0  0  0  0  0  0  0  0  0  0
   -4.9106   -3.4839    2.4434 H   0  0  0  0  0  0  0  0  0  0  0  0
   -4.9781   -3.1214   -0.0087 H   0  0  0  0  0  0  0  0  0  0  0  0
   -4.1705   -1.0142   -0.9732 H   0  0  0  0  0  0  0  0  0  0  0  0
   -5.8578    1.1918    0.3690 H   0  0  0  0  0  0  0  0  0  0  0  0
   -7.3972    2.4061   -1.0981 H   0  0  0  0  0  0  0  0  0  0  0  0
   -6.5290    3.9071   -2.8670 H   0  0  0  0  0  0  0  0  0  0  0  0
   -4.0796    4.1970   -3.1395 H   0  0  0  0  0  0  0  0  0  0  0  0
   -2.5095    2.9920   -1.6902 H   0  0  0  0  0  0  0  0  0  0  0  0
   -2.3962   -0.0292   -1.8227 H   0  0  0  0  0  0  0  0  0  0  0  0
   -0.9550    0.9026   -2.0779 H   0  0  0  0  0  0  0  0  0  0  0  0
   -1.0807   -1.6944   -0.4611 H   0  0  0  0  0  0  0  0  0  0  0  0
   -0.4317   -1.4449   -2.0906 H   0  0  0  0  0  0  0  0  0  0  0  0
  1  2  1  0
  2  3  1  0
  3  4  2  0
  4  5  1  0
  5  6  2  0
  6  7  1  0
  7  8  2  0
  8  9  1  0
  9 10  2  0
 10 11  1  0
 11 12  1  0
 12 13  3  0
 11 14  2  0
 14 15  1  0
 15 16  1  0
 16 17  1  0
 17 18  1  0
 18 19  1  0
 19 20  1  0
 20 21  2  0
 21 22  1  0
 22 23  2  0
 23 24  1  0
 24 25  2  0
 19 26  1  0
 26 27  2  0
 27 28  1  0
 28 29  2  0
 29 30  1  0
 30 31  2  0
 18 32  1  0
 32 33  1  0
 14 34  1  0
  8  3  1  0
 34  9  1  0
 33 15  1  0
 25 20  1  0
 31 26  1  0
  1 35  1  0
  1 36  1  0
  1 37  1  0
  4 38  1  0
  5 39  1  0
  6 40  1  0
  7 41  1  0
 16 42  1  0
 16 43  1  0
 17 44  1  0
 17 45  1  0
 19 46  1  0
 21 47  1  0
 22 48  1  0
 23 49  1  0
 24 50  1  0
 25 51  1  0
 27 52  1  0
 28 53  1  0
 29 54  1  0
 30 55  1  0
 31 56  1  0
 32 57  1  0
 32 58  1  0
 33 59  1  0
 33 60  1  0
M  END
$$$$
