
     RDKit          3D

 44 46  0  0  0  0  0  0  0  0999 V2000
   -2.4949    0.5284    0.8354 O   0  0  0  0  0  0  0  0  0  0  0  0
   -3.3111    0.0893    0.0267 C   0  0  0  0  0  0  0  0  0  0  0  0
   -3.0172   -0.8001   -1.0046 N   0  0  0  0  0  0  0  0  0  0  0  0
   -1.7765   -1.3627   -1.1817 N   0  0  0  0  0  0  0  0  0  0  0  0
   -0.7522   -0.5656   -1.0869 C   0  0  0  0  0  0  0  0  0  0  0  0
    0.6465   -1.0460   -1.1942 C   0  0  0  0  0  0  0  0  0  0  0  0
    0.9362   -2.3540   -1.2063 C   0  0  0  0  0  0  0  0  0  0  0  0
    0.0258   -3.3770   -1.1438 O   0  0  0  0  0  0  0  0  0  0  0  0
    2.2153   -2.7916   -1.2875 N   0  0  0  0  0  0  0  0  0  0  0  0
    3.3141   -1.9826   -1.3347 C   0  0  0  0  0  0  0  0  0  0  0  0
    4.4358   -2.4790   -1.4129 O   0  0  0  0  0  0  0  0  0  0  0  0
    3.0561   -0.6226   -1.3027 N   0  0  0  0  0  0  0  0  0  0  0  0
    4.1890    0.2905   -1.3167 C   0  0  0  0  0  0  0  0  0  0  0  0
    4.6424    0.6459    0.0830 C   0  0  0  0  0  0  0  0  0  0  0  0
    5.5896   -0.1466    0.7477 C   0  0  0  0  0  0  0  0  0  0  0  0
    5.9909    0.1685    2.0469 C   0  0  0  0  0  0  0  0  0  0  0  0
    5.4465    1.2743    2.6969 C   0  0  0  0  0  0  0  0  0  0  0  0
    4.4986    2.0647    2.0501 C   0  0  0  0  0  0  0  0  0  0  0  0
    4.0961    1.7517    0.7508 C   0  0  0  0  0  0  0  0  0  0  0  0
    1.7770   -0.0871   -1.2770 C   0  0  0  0  0  0  0  0  0  0  0  0
    1.5386    1.1188   -1.3414 O   0  0  0  0  0  0  0  0  0  0  0  0
   -4.7429    0.4721    0.1786 C   0  0  0  0  0  0  0  0  0  0  0  0
   -5.6359    0.4122   -0.9030 C   0  0  0  0  0  0  0  0  0  0  0  0
   -6.9779    0.7627   -0.7272 C   0  0  0  0  0  0  0  0  0  0  0  0
   -7.4349    1.1812    0.5219 C   0  0  0  0  0  0  0  0  0  0  0  0
   -6.5505    1.2648    1.5962 C   0  0  0  0  0  0  0  0  0  0  0  0
   -5.2108    0.9231    1.4225 C   0  0  0  0  0  0  0  0  0  0  0  0
   -4.4075    1.0547    2.5243 O   0  0  0  0  0  0  0  0  0  0  0  0
   -3.7782   -1.3864   -1.3378 H   0  0  0  0  0  0  0  0  0  0  0  0
   -0.8621    0.5246   -0.9463 H   0  0  0  0  0  0  0  0  0  0  0  0
   -0.8702   -2.9768   -1.0976 H   0  0  0  0  0  0  0  0  0  0  0  0
    2.3813   -3.7903   -1.2950 H   0  0  0  0  0  0  0  0  0  0  0  0
    3.9251    1.2069   -1.8591 H   0  0  0  0  0  0  0  0  0  0  0  0
    5.0259   -0.1539   -1.8697 H   0  0  0  0  0  0  0  0  0  0  0  0
    6.0183   -1.0192    0.2571 H   0  0  0  0  0  0  0  0  0  0  0  0
    6.7260   -0.4524    2.5523 H   0  0  0  0  0  0  0  0  0  0  0  0
    5.7580    1.5177    3.7092 H   0  0  0  0  0  0  0  0  0  0  0  0
    4.0687    2.9239    2.5584 H   0  0  0  0  0  0  0  0  0  0  0  0
    3.3483    2.3751    0.2632 H   0  0  0  0  0  0  0  0  0  0  0  0
   -5.3066    0.1222   -1.8970 H   0  0  0  0  0  0  0  0  0  0  0  0
   -7.6678    0.7181   -1.5672 H   0  0  0  0  0  0  0  0  0  0  0  0
   -8.4786    1.4549    0.6582 H   0  0  0  0  0  0  0  0  0  0  0  0
   -6.9005    1.6041    2.5679 H   0  0  0  0  0  0  0  0  0  0  0  0
   -3.4736    0.9433    2.2362 H   0  0  0  0  0  0  0  0  0  0  0  0
  1  2  2  0
  2  3  1  0
  3  4  1  0
  4  5  2  3
  5  6  1  0
  6  7  2  0
  7  8  1  0
  7  9  1  0
  9 10  1  0
 10 11  2  0
 10 12  1  0
 12 13  1  0
 13 14  1  0
 14 15  2  0
 15 16  1  0
 16 17  2  0
 17 18  1  0
 18 19  2  0
 12 20  1  0
 20 21  2  0
  2 22  1  0
 22 23  2  0
 23 24  1  0
 24 25  2  0
 25 26  1  0
 26 27  2  0
 27 28  1  0
 20  6  1  0
 27 22  1  0
 19 14  1  0
  3 29  1  0
  5 30  1  0
  8 31  1  0
  9 32  1  0
 13 33  1  0
 13 34  1  0
 15 35  1  0
 16 36  1  0
 17 37  1  0
 18 38  1  0
 19 39  1  0
 23 40  1  0
 24 41  1  0
 25 42  1  0
 26 43  1  0
 28 44  1  0
M  END
$$$$
