
     RDKit          3D

 37 39  0  0  0  0  0  0  0  0999 V2000
   -5.2106   -1.0239    0.8553 C   0  0  0  0  0  0  0  0  0  0  0  0
   -4.2151   -0.2173    0.0752 C   0  0  0  0  0  0  0  0  0  0  0  0
   -4.5959    0.5730   -0.9393 C   0  0  0  0  0  0  0  0  0  0  0  0
   -3.6596    1.3827   -1.7340 C   0  0  0  0  0  0  0  0  0  0  0  0
   -4.0651    2.0913   -2.6481 O   0  0  0  0  0  0  0  0  0  0  0  0
   -2.3206    1.3022   -1.3953 O   0  0  0  0  0  0  0  0  0  0  0  0
   -1.8853    0.4830   -0.3337 C   0  0  0  0  0  0  0  0  0  0  0  0
   -0.5094    0.4829   -0.0823 C   0  0  0  0  0  0  0  0  0  0  0  0
   -0.0070   -0.2964    0.9537 C   0  0  0  0  0  0  0  0  0  0  0  0
    1.3050   -0.4137    1.3157 O   0  0  0  0  0  0  0  0  0  0  0  0
    2.2366    0.5770    0.8549 C   0  0  0  0  0  0  0  0  0  0  0  0
    3.3315    0.7221    1.9231 C   0  0  0  0  0  0  0  0  0  0  0  0
    4.5405    0.7888    1.7580 O   0  0  0  0  0  0  0  0  0  0  0  0
    2.8370    0.8479    3.1787 O   0  0  0  0  0  0  0  0  0  0  0  0
    2.8191    0.2009   -0.5007 C   0  0  0  0  0  0  0  0  0  0  0  0
    3.1527    1.2058   -1.4238 C   0  0  0  0  0  0  0  0  0  0  0  0
    3.6931    0.8763   -2.6680 C   0  0  0  0  0  0  0  0  0  0  0  0
    3.9132   -0.4580   -3.0026 C   0  0  0  0  0  0  0  0  0  0  0  0
    3.5976   -1.4647   -2.0929 C   0  0  0  0  0  0  0  0  0  0  0  0
    3.0574   -1.1386   -0.8480 C   0  0  0  0  0  0  0  0  0  0  0  0
   -0.8899   -1.0767    1.7049 C   0  0  0  0  0  0  0  0  0  0  0  0
   -2.2659   -1.0677    1.4418 C   0  0  0  0  0  0  0  0  0  0  0  0
   -2.7867   -0.2792    0.4118 C   0  0  0  0  0  0  0  0  0  0  0  0
   -4.9930   -2.0942    0.7746 H   0  0  0  0  0  0  0  0  0  0  0  0
   -5.1999   -0.7381    1.9125 H   0  0  0  0  0  0  0  0  0  0  0  0
   -6.2326   -0.8731    0.4899 H   0  0  0  0  0  0  0  0  0  0  0  0
   -5.6341    0.6635   -1.2385 H   0  0  0  0  0  0  0  0  0  0  0  0
    0.1282    1.0818   -0.7223 H   0  0  0  0  0  0  0  0  0  0  0  0
    1.7571    1.5642    0.8031 H   0  0  0  0  0  0  0  0  0  0  0  0
    3.6381    0.9283    3.7372 H   0  0  0  0  0  0  0  0  0  0  0  0
    2.9978    2.2550   -1.1809 H   0  0  0  0  0  0  0  0  0  0  0  0
    3.9469    1.6615   -3.3756 H   0  0  0  0  0  0  0  0  0  0  0  0
    4.3358   -0.7133   -3.9708 H   0  0  0  0  0  0  0  0  0  0  0  0
    3.7745   -2.5055   -2.3514 H   0  0  0  0  0  0  0  0  0  0  0  0
    2.8206   -1.9393   -0.1499 H   0  0  0  0  0  0  0  0  0  0  0  0
   -0.5038   -1.6984    2.5104 H   0  0  0  0  0  0  0  0  0  0  0  0
   -2.9084   -1.6898    2.0590 H   0  0  0  0  0  0  0  0  0  0  0  0
  1  2  1  0
  2  3  2  0
  3  4  1  0
  4  5  2  0
  4  6  1  0
  6  7  1  0
  7  8  2  0
  8  9  1  0
  9 10  1  0
 10 11  1  0
 11 12  1  0
 12 13  2  0
 12 14  1  0
 11 15  1  0
 15 16  2  0
 16 17  1  0
 17 18  2  0
 18 19  1  0
 19 20  2  0
  9 21  2  0
 21 22  1  0
 22 23  2  0
 23  2  1  0
 23  7  1  0
 20 15  1  0
  1 24  1  0
  1 25  1  0
  1 26  1  0
  3 27  1  0
  8 28  1  0
 11 29  1  0
 14 30  1  0
 16 31  1  0
 17 32  1  0
 18 33  1  0
 19 34  1  0
 20 35  1  0
 21 36  1  0
 22 37  1  0
M  END
$$$$
