
     RDKit          3D

 52 55  0  0  0  0  0  0  0  0999 V2000
    8.2005   -1.3470    2.2687 C   0  0  0  0  0  0  0  0  0  0  0  0
    7.5195   -1.9514    1.0562 C   0  0  0  0  0  0  0  0  0  0  0  0
    6.1678   -1.4790    1.0246 O   0  0  0  0  0  0  0  0  0  0  0  0
    5.4259   -1.9552   -0.0172 C   0  0  0  0  0  0  0  0  0  0  0  0
    5.8671   -2.7211   -0.8667 O   0  0  0  0  0  0  0  0  0  0  0  0
    4.0793   -1.3996    0.0256 C   0  0  0  0  0  0  0  0  0  0  0  0
    3.1570   -1.4788   -1.4215 S   0  0  0  0  0  0  0  0  0  0  0  0
    1.8521   -0.6427   -0.7341 C   0  0  0  0  0  0  0  0  0  0  0  0
    0.7505   -0.3632   -1.4634 N   0  0  0  0  0  0  0  0  0  0  0  0
   -0.1956    0.2852   -0.8484 C   0  0  0  0  0  0  0  0  0  0  0  0
   -1.4730    0.6525   -1.5773 C   0  0  0  0  0  0  0  0  0  0  0  0
   -1.6601    0.2896   -3.2622 S   0  0  0  0  0  0  0  0  0  0  0  0
   -1.3194   -1.4979   -3.3044 C   0  0  0  0  0  0  0  0  0  0  0  0
   -2.1526   -2.1841   -4.3624 C   0  0  0  0  0  0  0  0  0  0  0  0
   -3.2119   -1.8212   -4.8467 O   0  0  0  0  0  0  0  0  0  0  0  0
   -1.6267   -3.3752   -4.7247 O   0  0  0  0  0  0  0  0  0  0  0  0
   -2.4375    1.3221   -0.9292 C   0  0  0  0  0  0  0  0  0  0  0  0
   -2.3021    1.6674    0.4633 C   0  0  0  0  0  0  0  0  0  0  0  0
   -3.3387    2.4258    1.2233 C   0  0  0  0  0  0  0  0  0  0  0  0
   -3.0201    3.3269    1.9986 O   0  0  0  0  0  0  0  0  0  0  0  0
   -4.7805    2.1291    1.0231 C   0  0  0  0  0  0  0  0  0  0  0  0
   -5.2264    0.8500    0.6589 C   0  0  0  0  0  0  0  0  0  0  0  0
   -6.5898    0.6100    0.4661 C   0  0  0  0  0  0  0  0  0  0  0  0
   -7.5148    1.6375    0.6481 C   0  0  0  0  0  0  0  0  0  0  0  0
   -7.0828    2.9040    1.0390 C   0  0  0  0  0  0  0  0  0  0  0  0
   -5.7252    3.1436    1.2386 C   0  0  0  0  0  0  0  0  0  0  0  0
   -5.3870    4.4055    1.6499 O   0  0  0  0  0  0  0  0  0  0  0  0
   -1.1658    1.3717    1.1096 C   0  0  0  0  0  0  0  0  0  0  0  0
   -0.1150    0.6854    0.5007 N   0  0  0  0  0  0  0  0  0  0  0  0
    1.0280    0.4082    1.2780 C   0  0  0  0  0  0  0  0  0  0  0  0
    1.1483    0.7459    2.4542 O   0  0  0  0  0  0  0  0  0  0  0  0
    2.0766   -0.3233    0.5810 C   0  0  0  0  0  0  0  0  0  0  0  0
    3.3604   -0.7943    1.0580 C   0  0  0  0  0  0  0  0  0  0  0  0
    3.8427   -0.6352    2.4694 C   0  0  0  0  0  0  0  0  0  0  0  0
    9.2401   -1.6788    2.3384 H   0  0  0  0  0  0  0  0  0  0  0  0
    8.1806   -0.2534    2.2166 H   0  0  0  0  0  0  0  0  0  0  0  0
    7.6757   -1.6313    3.1868 H   0  0  0  0  0  0  0  0  0  0  0  0
    7.5287   -3.0444    1.1340 H   0  0  0  0  0  0  0  0  0  0  0  0
    8.0418   -1.6399    0.1448 H   0  0  0  0  0  0  0  0  0  0  0  0
   -0.2627   -1.6420   -3.5468 H   0  0  0  0  0  0  0  0  0  0  0  0
   -1.5517   -1.9678   -2.3439 H   0  0  0  0  0  0  0  0  0  0  0  0
   -2.2511   -3.7150   -5.4004 H   0  0  0  0  0  0  0  0  0  0  0  0
   -3.3343    1.6440   -1.4535 H   0  0  0  0  0  0  0  0  0  0  0  0
   -4.5353    0.0212    0.5330 H   0  0  0  0  0  0  0  0  0  0  0  0
   -6.9338   -0.3811    0.1778 H   0  0  0  0  0  0  0  0  0  0  0  0
   -8.5755    1.4504    0.4974 H   0  0  0  0  0  0  0  0  0  0  0  0
   -7.8030    3.7028    1.1977 H   0  0  0  0  0  0  0  0  0  0  0  0
   -4.4519    4.3881    1.9531 H   0  0  0  0  0  0  0  0  0  0  0  0
   -1.0224    1.6564    2.1520 H   0  0  0  0  0  0  0  0  0  0  0  0
    3.0151   -0.5809    3.1806 H   0  0  0  0  0  0  0  0  0  0  0  0
    4.4447   -1.4939    2.7826 H   0  0  0  0  0  0  0  0  0  0  0  0
    4.4440    0.2743    2.5636 H   0  0  0  0  0  0  0  0  0  0  0  0
  1  2  1  0
  2  3  1  0
  3  4  1  0
  4  5  2  0
  4  6  1  0
  6  7  1  0
  7  8  1  0
  8  9  1  0
  9 10  2  0
 10 11  1  0
 11 12  1  0
 12 13  1  0
 13 14  1  0
 14 15  2  0
 14 16  1  0
 11 17  2  0
 17 18  1  0
 18 19  1  0
 19 20  2  0
 19 21  1  0
 21 22  2  0
 22 23  1  0
 23 24  2  0
 24 25  1  0
 25 26  2  0
 26 27  1  0
 18 28  2  0
 28 29  1  0
 29 30  1  0
 30 31  2  0
 30 32  1  0
 32 33  1  0
 33 34  1  0
 33  6  2  0
 32  8  2  0
 29 10  1  0
 26 21  1  0
  1 35  1  0
  1 36  1  0
  1 37  1  0
  2 38  1  0
  2 39  1  0
 13 40  1  0
 13 41  1  0
 16 42  1  0
 17 43  1  0
 22 44  1  0
 23 45  1  0
 24 46  1  0
 25 47  1  0
 27 48  1  0
 28 49  1  0
 34 50  1  0
 34 51  1  0
 34 52  1  0
M  END
$$$$
