
     RDKit          3D

 42 44  0  0  0  0  0  0  0  0999 V2000
   -1.9154    1.5869    1.6905 O   0  0  0  0  0  0  0  0  0  0  0  0
   -2.0035    0.9568    0.6335 C   0  0  0  0  0  0  0  0  0  0  0  0
   -3.2478    1.0854   -0.2778 C   0  0  0  0  0  0  0  0  0  0  0  0
   -4.0892   -0.1892   -0.2453 C   0  0  0  0  0  0  0  0  0  0  0  0
   -5.5070    0.3177   -0.1401 C   0  0  0  0  0  0  0  0  0  0  0  0
   -5.3238    1.5984    0.6339 C   0  0  0  0  0  0  0  0  0  0  0  0
   -4.1131    2.1619    0.1260 O   0  0  0  0  0  0  0  0  0  0  0  0
   -0.9936    0.0843    0.2387 N   0  0  0  0  0  0  0  0  0  0  0  0
    0.1476   -0.1142    1.1388 C   0  0  0  0  0  0  0  0  0  0  0  0
    0.7905   -1.4969    0.9775 C   0  0  0  0  0  0  0  0  0  0  0  0
    1.1949   -1.7725   -0.4308 N   0  0  0  0  0  0  0  0  0  0  0  0
    2.8125   -2.1825   -0.7265 S   0  0  0  0  0  6  0  0  0  0  0  0
    2.9348   -2.5114   -2.1312 O   0  0  0  0  0  0  0  0  0  0  0  0
    3.2325   -3.1114    0.3010 O   0  0  0  0  0  0  0  0  0  0  0  0
    3.6812   -0.6508   -0.4566 C   0  0  0  0  0  0  0  0  0  0  0  0
    3.9090    0.2143   -1.5318 C   0  0  0  0  0  0  0  0  0  0  0  0
    4.6043    1.4049   -1.3213 C   0  0  0  0  0  0  0  0  0  0  0  0
    5.0834    1.7183   -0.0483 C   0  0  0  0  0  0  0  0  0  0  0  0
    4.8806    0.8383    1.0160 C   0  0  0  0  0  0  0  0  0  0  0  0
    4.1866   -0.3545    0.8133 C   0  0  0  0  0  0  0  0  0  0  0  0
    0.5027   -0.9591   -1.4643 C   0  0  0  0  0  0  0  0  0  0  0  0
   -0.9374   -0.6321   -1.0412 C   0  0  0  0  0  0  0  0  0  0  0  0
   -2.9253    1.3336   -1.2927 H   0  0  0  0  0  0  0  0  0  0  0  0
   -3.9386   -0.8100   -1.1338 H   0  0  0  0  0  0  0  0  0  0  0  0
   -3.8446   -0.8064    0.6278 H   0  0  0  0  0  0  0  0  0  0  0  0
   -6.1883   -0.3858    0.3450 H   0  0  0  0  0  0  0  0  0  0  0  0
   -5.8913    0.5380   -1.1430 H   0  0  0  0  0  0  0  0  0  0  0  0
   -5.1977    1.4098    1.7057 H   0  0  0  0  0  0  0  0  0  0  0  0
   -6.1489    2.3013    0.4917 H   0  0  0  0  0  0  0  0  0  0  0  0
   -0.1648    0.0240    2.1795 H   0  0  0  0  0  0  0  0  0  0  0  0
    0.8756    0.6720    0.9052 H   0  0  0  0  0  0  0  0  0  0  0  0
    1.6354   -1.5824    1.6660 H   0  0  0  0  0  0  0  0  0  0  0  0
    0.0708   -2.2739    1.2633 H   0  0  0  0  0  0  0  0  0  0  0  0
    3.5562   -0.0326   -2.5306 H   0  0  0  0  0  0  0  0  0  0  0  0
    4.7827    2.0857   -2.1504 H   0  0  0  0  0  0  0  0  0  0  0  0
    5.6296    2.6452    0.1120 H   0  0  0  0  0  0  0  0  0  0  0  0
    5.2741    1.0789    2.0010 H   0  0  0  0  0  0  0  0  0  0  0  0
    4.0545   -1.0457    1.6425 H   0  0  0  0  0  0  0  0  0  0  0  0
    0.4735   -1.5181   -2.4053 H   0  0  0  0  0  0  0  0  0  0  0  0
    1.0454   -0.0229   -1.6289 H   0  0  0  0  0  0  0  0  0  0  0  0
   -1.5083   -1.5587   -0.9106 H   0  0  0  0  0  0  0  0  0  0  0  0
   -1.4196   -0.0446   -1.8257 H   0  0  0  0  0  0  0  0  0  0  0  0
  1  2  2  0
  2  3  1  0
  3  4  1  0
  4  5  1  0
  5  6  1  0
  6  7  1  0
  2  8  1  0
  8  9  1  0
  9 10  1  0
 10 11  1  0
 11 12  1  0
 12 13  2  0
 12 14  2  0
 12 15  1  0
 15 16  2  0
 16 17  1  0
 17 18  2  0
 18 19  1  0
 19 20  2  0
 11 21  1  0
 21 22  1  0
  7  3  1  0
 22  8  1  0
 20 15  1  0
  3 23  1  0
  4 24  1  0
  4 25  1  0
  5 26  1  0
  5 27  1  0
  6 28  1  0
  6 29  1  0
  9 30  1  0
  9 31  1  0
 10 32  1  0
 10 33  1  0
 16 34  1  0
 17 35  1  0
 18 36  1  0
 19 37  1  0
 20 38  1  0
 21 39  1  0
 21 40  1  0
 22 41  1  0
 22 42  1  0
M  END
$$$$
