
     RDKit          3D

 47 50  0  0  0  0  0  0  0  0999 V2000
    6.5698   -2.3905   -0.7889 C   0  0  0  0  0  0  0  0  0  0  0  0
    6.3448   -1.2051   -1.3715 C   0  0  0  0  0  0  0  0  0  0  0  0
    6.0535    0.0682   -0.6255 C   0  0  0  0  0  0  0  0  0  0  0  0
    4.6429    0.3914   -0.7791 N   0  0  0  0  0  0  0  0  0  0  0  0
    4.2732    1.1370   -1.8788 C   0  0  0  0  0  0  0  0  0  0  0  0
    5.0526    1.5059   -2.7561 O   0  0  0  0  0  0  0  0  0  0  0  0
    2.9554    1.4606   -1.9894 N   0  0  0  0  0  0  0  0  0  0  0  0
    1.9188    0.9405   -1.2740 C   0  0  0  0  0  0  0  0  0  0  0  0
    0.7684    1.0982   -1.6612 O   0  0  0  0  0  0  0  0  0  0  0  0
    2.3195    0.1882   -0.0657 C   0  0  0  0  0  0  0  0  0  0  0  0
    1.4481   -0.2958    0.8427 C   0  0  0  0  0  0  0  0  0  0  0  0
   -0.0101   -0.1637    0.8290 C   0  0  0  0  0  0  0  0  0  0  0  0
   -0.8012   -1.1800    0.2940 C   0  0  0  0  0  0  0  0  0  0  0  0
   -2.2026   -1.0779    0.3111 C   0  0  0  0  0  0  0  0  0  0  0  0
   -2.8336    0.0640    0.8449 C   0  0  0  0  0  0  0  0  0  0  0  0
   -2.0215    1.0907    1.3675 C   0  0  0  0  0  0  0  0  0  0  0  0
   -0.6221    0.9657    1.3723 C   0  0  0  0  0  0  0  0  0  0  0  0
   -2.6474    2.3297    1.9545 C   0  0  0  0  0  0  0  0  0  0  0  0
   -4.0330    2.5676    1.3720 C   0  0  0  0  0  0  0  0  0  0  0  0
   -4.8677    1.3039    1.5076 C   0  0  0  0  0  0  0  0  0  0  0  0
   -4.2182    0.1722    0.8596 N   0  0  0  0  0  0  0  0  0  0  0  0
   -5.0388   -0.8071    0.1593 C   0  0  0  0  0  0  0  0  0  0  0  0
   -4.4372   -2.1988    0.2741 C   0  0  0  0  0  0  0  0  0  0  0  0
   -3.0228   -2.1924   -0.2871 C   0  0  0  0  0  0  0  0  0  0  0  0
    3.7652   -0.0673    0.1922 C   0  0  0  0  0  0  0  0  0  0  0  0
    4.1351   -0.6477    1.2131 O   0  0  0  0  0  0  0  0  0  0  0  0
    6.7861   -3.2721   -1.3845 H   0  0  0  0  0  0  0  0  0  0  0  0
    6.5325   -2.5108    0.2907 H   0  0  0  0  0  0  0  0  0  0  0  0
    6.3936   -1.1306   -2.4565 H   0  0  0  0  0  0  0  0  0  0  0  0
    6.6762    0.8742   -1.0305 H   0  0  0  0  0  0  0  0  0  0  0  0
    6.3104   -0.0295    0.4355 H   0  0  0  0  0  0  0  0  0  0  0  0
    2.6965    1.9455   -2.8373 H   0  0  0  0  0  0  0  0  0  0  0  0
    1.8081   -0.8502    1.7094 H   0  0  0  0  0  0  0  0  0  0  0  0
   -0.3339   -2.0622   -0.1370 H   0  0  0  0  0  0  0  0  0  0  0  0
   -0.0151    1.7626    1.7948 H   0  0  0  0  0  0  0  0  0  0  0  0
   -2.7088    2.2099    3.0429 H   0  0  0  0  0  0  0  0  0  0  0  0
   -2.0214    3.2058    1.7480 H   0  0  0  0  0  0  0  0  0  0  0  0
   -3.9501    2.8440    0.3125 H   0  0  0  0  0  0  0  0  0  0  0  0
   -4.5197    3.4020    1.8890 H   0  0  0  0  0  0  0  0  0  0  0  0
   -5.0308    1.0663    2.5659 H   0  0  0  0  0  0  0  0  0  0  0  0
   -5.8540    1.4836    1.0633 H   0  0  0  0  0  0  0  0  0  0  0  0
   -6.0507   -0.8257    0.5812 H   0  0  0  0  0  0  0  0  0  0  0  0
   -5.1336   -0.5149   -0.8939 H   0  0  0  0  0  0  0  0  0  0  0  0
   -4.4187   -2.5080    1.3276 H   0  0  0  0  0  0  0  0  0  0  0  0
   -5.0528   -2.9256   -0.2678 H   0  0  0  0  0  0  0  0  0  0  0  0
   -2.5549   -3.1616   -0.0790 H   0  0  0  0  0  0  0  0  0  0  0  0
   -3.0501   -2.0600   -1.3755 H   0  0  0  0  0  0  0  0  0  0  0  0
  1  2  2  0
  2  3  1  0
  3  4  1  0
  4  5  1  0
  5  6  2  0
  5  7  1  0
  7  8  1  0
  8  9  2  0
  8 10  1  0
 10 11  2  3
 11 12  1  0
 12 13  2  0
 13 14  1  0
 14 15  2  0
 15 16  1  0
 16 17  2  0
 16 18  1  0
 18 19  1  0
 19 20  1  0
 20 21  1  0
 21 22  1  0
 22 23  1  0
 23 24  1  0
 10 25  1  0
 25 26  2  0
 25  4  1  0
 17 12  1  0
 24 14  1  0
 21 15  1  0
  1 27  1  0
  1 28  1  0
  2 29  1  0
  3 30  1  0
  3 31  1  0
  7 32  1  0
 11 33  1  0
 13 34  1  0
 17 35  1  0
 18 36  1  0
 18 37  1  0
 19 38  1  0
 19 39  1  0
 20 40  1  0
 20 41  1  0
 22 42  1  0
 22 43  1  0
 23 44  1  0
 23 45  1  0
 24 46  1  0
 24 47  1  0
M  END
$$$$
