
     RDKit          3D

 43 45  0  0  0  0  0  0  0  0999 V2000
   -5.3114   -2.3842   -0.8381 C   0  0  0  0  0  0  0  0  0  0  0  0
   -4.9182   -1.1788   -0.1147 N   0  0  0  0  0  0  0  0  0  0  0  0
   -4.0718   -1.4870    1.0594 C   0  0  0  0  0  0  0  0  0  0  0  0
   -2.5603   -1.2451    0.8486 C   0  0  0  0  0  0  0  0  0  0  0  0
   -2.2973    0.1719    0.4949 N   0  0  0  0  0  0  0  0  0  0  0  0
   -0.9802    0.4011    0.0809 C   0  0  0  0  0  0  0  0  0  0  0  0
   -0.5760    0.1916   -1.2459 C   0  0  0  0  0  0  0  0  0  0  0  0
    0.7499    0.4084   -1.6463 C   0  0  0  0  0  0  0  0  0  0  0  0
    1.7150    0.8304   -0.7236 C   0  0  0  0  0  0  0  0  0  0  0  0
    3.1002    1.0621   -1.2060 C   0  0  0  0  0  0  0  0  0  0  0  0
    3.2722    1.4516   -2.3576 O   0  0  0  0  0  0  0  0  0  0  0  0
    4.2802    0.8385   -0.3340 C   0  0  0  0  0  0  0  0  0  0  0  0
    5.3819    1.6919   -0.4739 C   0  0  0  0  0  0  0  0  0  0  0  0
    6.5163    1.5081    0.3199 C   0  0  0  0  0  0  0  0  0  0  0  0
    6.5513    0.4633    1.2422 C   0  0  0  0  0  0  0  0  0  0  0  0
    8.0863    0.2120    2.3161 Br  0  0  0  0  0  0  0  0  0  0  0  0
    5.4667   -0.4043    1.3730 C   0  0  0  0  0  0  0  0  0  0  0  0
    4.3307   -0.2224    0.5792 C   0  0  0  0  0  0  0  0  0  0  0  0
    1.3448    1.0666    0.5993 C   0  0  0  0  0  0  0  0  0  0  0  0
    0.0128    0.8382    0.9753 C   0  0  0  0  0  0  0  0  0  0  0  0
   -0.3292    1.0913    2.3571 N   0  0  0  0  0  4  0  0  0  0  0  0
   -0.5960    2.2604    2.6671 O   0  0  0  0  0  0  0  0  0  0  0  0
   -0.2411    0.1329    3.1387 O   0  0  0  0  0  1  0  0  0  0  0  0
   -3.3751    0.8209   -0.2927 C   0  0  0  0  0  0  0  0  0  0  0  0
   -4.2635   -0.2117   -1.0222 C   0  0  0  0  0  0  0  0  0  0  0  0
   -5.8913   -3.0496   -0.1889 H   0  0  0  0  0  0  0  0  0  0  0  0
   -5.9581   -2.1312   -1.6856 H   0  0  0  0  0  0  0  0  0  0  0  0
   -4.4459   -2.9397   -1.2165 H   0  0  0  0  0  0  0  0  0  0  0  0
   -4.2345   -2.5141    1.4087 H   0  0  0  0  0  0  0  0  0  0  0  0
   -4.4106   -0.8379    1.8775 H   0  0  0  0  0  0  0  0  0  0  0  0
   -2.1947   -1.9186    0.0619 H   0  0  0  0  0  0  0  0  0  0  0  0
   -2.0297   -1.4965    1.7738 H   0  0  0  0  0  0  0  0  0  0  0  0
   -1.2891   -0.1518   -1.9913 H   0  0  0  0  0  0  0  0  0  0  0  0
    1.0270    0.2452   -2.6875 H   0  0  0  0  0  0  0  0  0  0  0  0
    5.3590    2.5007   -1.2023 H   0  0  0  0  0  0  0  0  0  0  0  0
    7.3642    2.1790    0.2065 H   0  0  0  0  0  0  0  0  0  0  0  0
    5.5009   -1.2284    2.0818 H   0  0  0  0  0  0  0  0  0  0  0  0
    3.5078   -0.9264    0.6726 H   0  0  0  0  0  0  0  0  0  0  0  0
    2.0578    1.4395    1.3301 H   0  0  0  0  0  0  0  0  0  0  0  0
   -3.9949    1.3971    0.4059 H   0  0  0  0  0  0  0  0  0  0  0  0
   -2.9769    1.5450   -1.0143 H   0  0  0  0  0  0  0  0  0  0  0  0
   -3.6395   -0.7400   -1.7552 H   0  0  0  0  0  0  0  0  0  0  0  0
   -5.0395    0.3202   -1.5847 H   0  0  0  0  0  0  0  0  0  0  0  0
  1  2  1  0
  2  3  1  0
  3  4  1  0
  4  5  1  0
  5  6  1  0
  6  7  2  0
  7  8  1  0
  8  9  2  0
  9 10  1  0
 10 11  2  0
 10 12  1  0
 12 13  2  0
 13 14  1  0
 14 15  2  0
 15 16  1  0
 15 17  1  0
 17 18  2  0
  9 19  1  0
 19 20  2  0
 20 21  1  0
 21 22  2  0
 21 23  1  0
  5 24  1  0
 24 25  1  0
 25  2  1  0
 20  6  1  0
 18 12  1  0
  1 26  1  0
  1 27  1  0
  1 28  1  0
  3 29  1  0
  3 30  1  0
  4 31  1  0
  4 32  1  0
  7 33  1  0
  8 34  1  0
 13 35  1  0
 14 36  1  0
 17 37  1  0
 18 38  1  0
 19 39  1  0
 24 40  1  0
 24 41  1  0
 25 42  1  0
 25 43  1  0
M  CHG  2  21   1  23  -1
M  END
$$$$
