
     RDKit          3D

 45 48  0  0  0  0  0  0  0  0999 V2000
    3.9710    0.0448   -2.7239 O   0  0  0  0  0  0  0  0  0  0  0  0
    3.2956    0.2385   -1.7201 C   0  0  0  0  0  0  0  0  0  0  0  0
    2.2847   -0.5706   -1.2356 N   0  0  0  0  0  0  0  0  0  0  0  0
    1.8397   -1.8244   -1.7363 C   0  0  0  0  0  0  0  0  0  0  0  0
    2.4649   -2.4488   -2.8246 C   0  0  0  0  0  0  0  0  0  0  0  0
    2.0148   -3.6798   -3.3085 C   0  0  0  0  0  0  0  0  0  0  0  0
    0.9325   -4.3108   -2.7111 C   0  0  0  0  0  0  0  0  0  0  0  0
    0.2995   -3.7116   -1.6234 C   0  0  0  0  0  0  0  0  0  0  0  0
    0.7370   -2.4703   -1.1170 C   0  0  0  0  0  0  0  0  0  0  0  0
    0.0526   -1.8805    0.0342 C   0  0  0  0  0  0  0  0  0  0  0  0
    0.3166   -0.7679    0.6941 N   0  0  0  0  0  0  0  0  0  0  0  0
   -0.6254   -0.6732    1.6936 N   0  0  0  0  0  0  0  0  0  0  0  0
   -1.4134   -1.7230    1.5734 C   0  0  0  0  0  0  0  0  0  0  0  0
   -2.7675   -2.0780    2.5971 S   0  0  0  0  0  0  0  0  0  0  0  0
   -3.2384   -0.4100    3.1342 C   0  0  0  0  0  0  0  0  0  0  0  0
   -3.9696    0.3643    2.0632 C   0  0  0  0  0  0  0  0  0  0  0  0
   -3.3069    1.3504    1.3164 C   0  0  0  0  0  0  0  0  0  0  0  0
   -3.9804    2.0560    0.3164 C   0  0  0  0  0  0  0  0  0  0  0  0
   -5.3206    1.7803    0.0568 C   0  0  0  0  0  0  0  0  0  0  0  0
   -6.1498    2.6492   -1.1750 Cl  0  0  0  0  0  0  0  0  0  0  0  0
   -5.9934    0.8041    0.7877 C   0  0  0  0  0  0  0  0  0  0  0  0
   -5.3202    0.0974    1.7870 C   0  0  0  0  0  0  0  0  0  0  0  0
   -1.0319   -2.5435    0.5455 O   0  0  0  0  0  0  0  0  0  0  0  0
    3.5368    1.4872   -0.9363 C   0  0  0  0  0  0  0  0  0  0  0  0
    3.3456    1.5479    0.4513 C   0  0  0  0  0  0  0  0  0  0  0  0
    3.5854    2.7406    1.1385 C   0  0  0  0  0  0  0  0  0  0  0  0
    4.0247    3.8704    0.4486 C   0  0  0  0  0  0  0  0  0  0  0  0
    4.2335    3.8111   -0.9285 C   0  0  0  0  0  0  0  0  0  0  0  0
    3.9950    2.6218   -1.6194 C   0  0  0  0  0  0  0  0  0  0  0  0
    1.7456   -0.1994   -0.4575 H   0  0  0  0  0  0  0  0  0  0  0  0
    3.3173   -2.0010   -3.3265 H   0  0  0  0  0  0  0  0  0  0  0  0
    2.5173   -4.1404   -4.1560 H   0  0  0  0  0  0  0  0  0  0  0  0
    0.5826   -5.2683   -3.0889 H   0  0  0  0  0  0  0  0  0  0  0  0
   -0.5443   -4.2304   -1.1716 H   0  0  0  0  0  0  0  0  0  0  0  0
   -2.3632    0.1436    3.4930 H   0  0  0  0  0  0  0  0  0  0  0  0
   -3.8990   -0.5121    4.0035 H   0  0  0  0  0  0  0  0  0  0  0  0
   -2.2578    1.5746    1.5038 H   0  0  0  0  0  0  0  0  0  0  0  0
   -3.4533    2.8153   -0.2553 H   0  0  0  0  0  0  0  0  0  0  0  0
   -7.0385    0.5869    0.5838 H   0  0  0  0  0  0  0  0  0  0  0  0
   -5.8562   -0.6666    2.3473 H   0  0  0  0  0  0  0  0  0  0  0  0
    3.0350    0.6751    1.0195 H   0  0  0  0  0  0  0  0  0  0  0  0
    3.4378    2.7859    2.2149 H   0  0  0  0  0  0  0  0  0  0  0  0
    4.2137    4.7963    0.9866 H   0  0  0  0  0  0  0  0  0  0  0  0
    4.5857    4.6885   -1.4651 H   0  0  0  0  0  0  0  0  0  0  0  0
    4.1651    2.5806   -2.6936 H   0  0  0  0  0  0  0  0  0  0  0  0
  1  2  2  0
  2  3  1  0
  3  4  1  0
  4  5  2  0
  5  6  1  0
  6  7  2  0
  7  8  1  0
  8  9  2  0
  9 10  1  0
 10 11  2  0
 11 12  1  0
 12 13  2  0
 13 14  1  0
 14 15  1  0
 15 16  1  0
 16 17  2  0
 17 18  1  0
 18 19  2  0
 19 20  1  0
 19 21  1  0
 21 22  2  0
 13 23  1  0
  2 24  1  0
 24 25  2  0
 25 26  1  0
 26 27  2  0
 27 28  1  0
 28 29  2  0
  9  4  1  0
 23 10  1  0
 29 24  1  0
 22 16  1  0
  3 30  1  0
  5 31  1  0
  6 32  1  0
  7 33  1  0
  8 34  1  0
 15 35  1  0
 15 36  1  0
 17 37  1  0
 18 38  1  0
 21 39  1  0
 22 40  1  0
 25 41  1  0
 26 42  1  0
 27 43  1  0
 28 44  1  0
 29 45  1  0
M  END
$$$$
