
     RDKit          3D

 69 71  0  0  0  0  0  0  0  0999 V2000
    6.4136   -3.9427    2.3075 C   0  0  0  0  0  0  0  0  0  0  0  0
    6.5605   -2.4543    2.0324 C   0  0  0  0  0  0  0  0  0  0  0  0
    5.3369   -1.6311    2.4426 C   0  0  0  0  0  0  0  0  0  0  0  0
    4.1063   -1.9065    1.5725 C   0  0  0  0  0  0  0  0  0  0  0  0
    2.8882   -1.0558    1.9471 C   0  0  0  0  0  0  0  0  0  0  0  0
    3.0830    0.4618    1.8964 C   0  0  0  0  0  0  0  0  0  0  0  0
    3.6712    1.0503    0.6091 C   0  0  0  0  0  0  0  0  0  0  0  0
    2.6904    1.1869   -0.5581 C   0  0  0  0  0  0  0  0  0  0  0  0
    2.4921   -0.0915   -1.3800 C   0  0  0  0  0  0  0  0  0  0  0  0
    1.6550    0.1754   -2.6318 C   0  0  0  0  0  0  0  0  0  0  0  0
    0.3564    0.6333   -2.2115 O   0  0  0  0  0  0  0  0  0  0  0  0
   -0.2382    1.5646   -3.0131 C   0  0  0  0  0  0  0  0  0  0  0  0
    0.1932    1.9682   -4.0827 O   0  0  0  0  0  0  0  0  0  0  0  0
   -1.5122    2.0760   -2.3614 C   0  0  0  0  0  0  0  0  0  0  0  0
   -2.4320    0.9776   -1.9910 N   0  0  0  0  0  0  0  0  0  0  0  0
   -2.3696    0.2380   -0.8545 C   0  0  0  0  0  0  0  0  0  0  0  0
   -1.4014    0.4106    0.3094 C   0  0  0  0  0  0  0  0  0  0  0  0
   -2.0073    0.2306    1.5865 O   0  0  0  0  0  0  0  0  0  0  0  0
   -2.8718    1.1887    2.0380 C   0  0  0  0  0  0  0  0  0  0  0  0
   -3.5918    0.8192    3.1796 C   0  0  0  0  0  0  0  0  0  0  0  0
   -4.5278    1.6881    3.7462 C   0  0  0  0  0  0  0  0  0  0  0  0
   -4.7374    2.9378    3.1746 C   0  0  0  0  0  0  0  0  0  0  0  0
   -5.8882    4.0141    3.8613 Cl  0  0  0  0  0  0  0  0  0  0  0  0
   -4.0143    3.3226    2.0470 C   0  0  0  0  0  0  0  0  0  0  0  0
   -3.0793    2.4494    1.4775 C   0  0  0  0  0  0  0  0  0  0  0  0
   -3.3294   -0.7134   -0.9518 N   0  0  0  0  0  4  0  0  0  0  0  0
   -3.5702   -1.7573    0.0456 C   0  0  0  0  0  0  0  0  0  0  0  0
   -4.0599   -0.5461   -2.1218 C   0  0  0  0  0  0  0  0  0  0  0  0
   -5.1551   -1.2378   -2.6353 C   0  0  0  0  0  0  0  0  0  0  0  0
   -5.6225   -0.8160   -3.8872 C   0  0  0  0  0  0  0  0  0  0  0  0
   -5.0152    0.2452   -4.5829 C   0  0  0  0  0  0  0  0  0  0  0  0
   -3.9183    0.9392   -4.0549 C   0  0  0  0  0  0  0  0  0  0  0  0
   -3.4674    0.5181   -2.8037 C   0  0  0  0  0  0  0  0  0  0  0  0
    6.2016   -4.1261    3.3666 H   0  0  0  0  0  0  0  0  0  0  0  0
    5.6109   -4.3872    1.7112 H   0  0  0  0  0  0  0  0  0  0  0  0
    7.3428   -4.4639    2.0537 H   0  0  0  0  0  0  0  0  0  0  0  0
    7.4296   -2.0848    2.5898 H   0  0  0  0  0  0  0  0  0  0  0  0
    6.7762   -2.2967    0.9687 H   0  0  0  0  0  0  0  0  0  0  0  0
    5.6136   -0.5736    2.3656 H   0  0  0  0  0  0  0  0  0  0  0  0
    5.0977   -1.8214    3.4962 H   0  0  0  0  0  0  0  0  0  0  0  0
    4.3562   -1.7562    0.5160 H   0  0  0  0  0  0  0  0  0  0  0  0
    3.8165   -2.9596    1.6719 H   0  0  0  0  0  0  0  0  0  0  0  0
    2.0476   -1.3390    1.3060 H   0  0  0  0  0  0  0  0  0  0  0  0
    2.5779   -1.3221    2.9659 H   0  0  0  0  0  0  0  0  0  0  0  0
    3.7397    0.7477    2.7271 H   0  0  0  0  0  0  0  0  0  0  0  0
    2.1202    0.9431    2.1080 H   0  0  0  0  0  0  0  0  0  0  0  0
    4.0017    2.0680    0.8581 H   0  0  0  0  0  0  0  0  0  0  0  0
    4.5741    0.5168    0.2964 H   0  0  0  0  0  0  0  0  0  0  0  0
    1.7280    1.5594   -0.1877 H   0  0  0  0  0  0  0  0  0  0  0  0
    3.0833    1.9622   -1.2299 H   0  0  0  0  0  0  0  0  0  0  0  0
    3.4628   -0.5047   -1.6786 H   0  0  0  0  0  0  0  0  0  0  0  0
    1.9780   -0.8421   -0.7729 H   0  0  0  0  0  0  0  0  0  0  0  0
    2.1637    0.9081   -3.2688 H   0  0  0  0  0  0  0  0  0  0  0  0
    1.5208   -0.7532   -3.1960 H   0  0  0  0  0  0  0  0  0  0  0  0
   -2.0188    2.7527   -3.0562 H   0  0  0  0  0  0  0  0  0  0  0  0
   -1.2553    2.6649   -1.4776 H   0  0  0  0  0  0  0  0  0  0  0  0
   -0.6682   -0.3896    0.1681 H   0  0  0  0  0  0  0  0  0  0  0  0
   -0.8840    1.3682    0.2300 H   0  0  0  0  0  0  0  0  0  0  0  0
   -3.4260   -0.1526    3.6404 H   0  0  0  0  0  0  0  0  0  0  0  0
   -5.0807    1.3877    4.6333 H   0  0  0  0  0  0  0  0  0  0  0  0
   -4.1699    4.3090    1.6160 H   0  0  0  0  0  0  0  0  0  0  0  0
   -2.5285    2.8085    0.6189 H   0  0  0  0  0  0  0  0  0  0  0  0
   -4.0569   -2.6190   -0.4151 H   0  0  0  0  0  0  0  0  0  0  0  0
   -4.2127   -1.3573    0.8314 H   0  0  0  0  0  0  0  0  0  0  0  0
   -2.6208   -2.0954    0.4643 H   0  0  0  0  0  0  0  0  0  0  0  0
   -5.6195   -2.0579   -2.1023 H   0  0  0  0  0  0  0  0  0  0  0  0
   -6.4762   -1.3248   -4.3373 H   0  0  0  0  0  0  0  0  0  0  0  0
   -5.4089    0.5331   -5.5594 H   0  0  0  0  0  0  0  0  0  0  0  0
   -3.4540    1.7542   -4.5971 H   0  0  0  0  0  0  0  0  0  0  0  0
  1  2  1  0
  2  3  1  0
  3  4  1  0
  4  5  1  0
  5  6  1  0
  6  7  1  0
  7  8  1  0
  8  9  1  0
  9 10  1  0
 10 11  1  0
 11 12  1  0
 12 13  2  0
 12 14  1  0
 14 15  1  0
 15 16  1  0
 16 17  1  0
 17 18  1  0
 18 19  1  0
 19 20  2  0
 20 21  1  0
 21 22  2  0
 22 23  1  0
 22 24  1  0
 24 25  2  0
 16 26  2  0
 26 27  1  0
 26 28  1  0
 28 29  2  0
 29 30  1  0
 30 31  2  0
 31 32  1  0
 32 33  2  0
 33 15  1  0
 25 19  1  0
 33 28  1  0
  1 34  1  0
  1 35  1  0
  1 36  1  0
  2 37  1  0
  2 38  1  0
  3 39  1  0
  3 40  1  0
  4 41  1  0
  4 42  1  0
  5 43  1  0
  5 44  1  0
  6 45  1  0
  6 46  1  0
  7 47  1  0
  7 48  1  0
  8 49  1  0
  8 50  1  0
  9 51  1  0
  9 52  1  0
 10 53  1  0
 10 54  1  0
 14 55  1  0
 14 56  1  0
 17 57  1  0
 17 58  1  0
 20 59  1  0
 21 60  1  0
 24 61  1  0
 25 62  1  0
 27 63  1  0
 27 64  1  0
 27 65  1  0
 29 66  1  0
 30 67  1  0
 31 68  1  0
 32 69  1  0
M  CHG  1  26   1
M  END
$$$$
