
     RDKit          3D

 47 50  0  0  0  0  0  0  0  0999 V2000
   -2.4931    1.8888    3.5801 C   0  0  0  0  0  0  0  0  0  0  0  0
   -2.0653    1.3838    2.2839 N   0  0  0  0  0  0  0  0  0  0  0  0
   -2.3295    2.3473    1.2033 C   0  0  0  0  0  0  0  0  0  0  0  0
   -2.2911    1.7430   -0.2272 C   0  0  0  0  0  0  0  0  0  0  0  0
   -1.5460    0.4811   -0.2897 N   0  0  0  0  0  0  0  0  0  0  0  0
   -1.3915   -0.0113   -1.6573 C   0  0  0  0  0  0  0  0  0  0  0  0
   -0.3783   -1.1280   -1.7952 C   0  0  0  0  0  0  0  0  0  0  0  0
   -0.7516   -2.3473   -2.3597 C   0  0  0  0  0  0  0  0  0  0  0  0
    0.1942   -3.3630   -2.5349 C   0  0  0  0  0  0  0  0  0  0  0  0
   -0.3752   -4.8409   -3.2421 Cl  0  0  0  0  0  0  0  0  0  0  0  0
    1.5531   -3.1832   -2.1705 C   0  0  0  0  0  0  0  0  0  0  0  0
    2.5586   -4.1619   -2.3425 C   0  0  0  0  0  0  0  0  0  0  0  0
    3.8726   -3.9060   -1.9705 C   0  0  0  0  0  0  0  0  0  0  0  0
    4.1588   -2.6692   -1.4378 C   0  0  0  0  0  0  0  0  0  0  0  0
    3.2355   -1.7030   -1.2595 N   0  0  0  0  0  0  0  0  0  0  0  0
    1.9505   -1.9550   -1.6021 C   0  0  0  0  0  0  0  0  0  0  0  0
    0.9651   -0.9777   -1.4046 C   0  0  0  0  0  0  0  0  0  0  0  0
    1.3447    0.2409   -0.8118 O   0  0  0  0  0  0  0  0  0  0  0  0
    1.4608    0.1436    0.5783 C   0  0  0  0  0  0  0  0  0  0  0  0
    1.3037   -0.8854    1.2320 O   0  0  0  0  0  0  0  0  0  0  0  0
    1.7896    1.4554    1.1144 C   0  0  0  0  0  0  0  0  0  0  0  0
    1.9880    2.6561    0.4531 C   0  0  0  0  0  0  0  0  0  0  0  0
    2.2862    3.7304    1.3413 C   0  0  0  0  0  0  0  0  0  0  0  0
    2.3065    3.3194    2.6542 C   0  0  0  0  0  0  0  0  0  0  0  0
    1.9709    1.6507    2.8097 S   0  0  0  0  0  0  0  0  0  0  0  0
   -2.1448   -0.5115    0.6253 C   0  0  0  0  0  0  0  0  0  0  0  0
   -2.6513    0.0757    1.9726 C   0  0  0  0  0  0  0  0  0  0  0  0
   -3.5773    2.0408    3.6275 H   0  0  0  0  0  0  0  0  0  0  0  0
   -2.0009    2.8419    3.8033 H   0  0  0  0  0  0  0  0  0  0  0  0
   -2.2087    1.1933    4.3774 H   0  0  0  0  0  0  0  0  0  0  0  0
   -1.5707    3.1368    1.2684 H   0  0  0  0  0  0  0  0  0  0  0  0
   -3.3081    2.8270    1.3359 H   0  0  0  0  0  0  0  0  0  0  0  0
   -3.3205    1.5812   -0.5743 H   0  0  0  0  0  0  0  0  0  0  0  0
   -1.8383    2.4860   -0.8952 H   0  0  0  0  0  0  0  0  0  0  0  0
   -1.0404    0.8004   -2.3088 H   0  0  0  0  0  0  0  0  0  0  0  0
   -2.3635   -0.3220   -2.0626 H   0  0  0  0  0  0  0  0  0  0  0  0
   -1.7819   -2.5128   -2.6675 H   0  0  0  0  0  0  0  0  0  0  0  0
    2.3248   -5.1351   -2.7674 H   0  0  0  0  0  0  0  0  0  0  0  0
    4.6481   -4.6530   -2.0944 H   0  0  0  0  0  0  0  0  0  0  0  0
    5.1667   -2.4090   -1.1277 H   0  0  0  0  0  0  0  0  0  0  0  0
    1.9197    2.7605   -0.6233 H   0  0  0  0  0  0  0  0  0  0  0  0
    2.4747    4.7510    1.0323 H   0  0  0  0  0  0  0  0  0  0  0  0
    2.5022    3.9163    3.5341 H   0  0  0  0  0  0  0  0  0  0  0  0
   -2.9905   -1.0199    0.1441 H   0  0  0  0  0  0  0  0  0  0  0  0
   -1.3940   -1.2776    0.8496 H   0  0  0  0  0  0  0  0  0  0  0  0
   -2.4170   -0.6416    2.7687 H   0  0  0  0  0  0  0  0  0  0  0  0
   -3.7454    0.1633    1.9285 H   0  0  0  0  0  0  0  0  0  0  0  0
  1  2  1  0
  2  3  1  0
  3  4  1  0
  4  5  1  0
  5  6  1  0
  6  7  1  0
  7  8  2  0
  8  9  1  0
  9 10  1  0
  9 11  2  0
 11 12  1  0
 12 13  2  0
 13 14  1  0
 14 15  2  0
 15 16  1  0
 16 17  2  0
 17 18  1  0
 18 19  1  0
 19 20  2  0
 19 21  1  0
 21 22  2  0
 22 23  1  0
 23 24  2  0
 24 25  1  0
  5 26  1  0
 26 27  1  0
 27  2  1  0
 17  7  1  0
 25 21  1  0
 16 11  1  0
  1 28  1  0
  1 29  1  0
  1 30  1  0
  3 31  1  0
  3 32  1  0
  4 33  1  0
  4 34  1  0
  6 35  1  0
  6 36  1  0
  8 37  1  0
 12 38  1  0
 13 39  1  0
 14 40  1  0
 22 41  1  0
 23 42  1  0
 24 43  1  0
 26 44  1  0
 26 45  1  0
 27 46  1  0
 27 47  1  0
M  END
$$$$
