
     RDKit          3D

 60 64  0  0  0  0  0  0  0  0999 V2000
   -3.5300    3.9705    2.1600 C   0  0  0  0  0  0  0  0  0  0  0  0
   -2.6156    3.7652    0.9665 C   0  0  0  0  0  0  0  0  0  0  0  0
   -2.2617    2.3680    0.7827 N   0  0  0  0  0  0  0  0  0  0  0  0
   -1.1616    1.7503    1.3520 C   0  0  0  0  0  0  0  0  0  0  0  0
   -0.3270    2.4147    2.1401 O   0  0  0  0  0  0  0  0  0  0  0  0
   -1.1784    0.4496    0.9179 C   0  0  0  0  0  0  0  0  0  0  0  0
   -2.2772    0.2818    0.0691 C   0  0  0  0  0  0  0  0  0  0  0  0
   -2.9432    1.4757   -0.0253 C   0  0  0  0  0  0  0  0  0  0  0  0
   -4.0153    1.8405   -0.7166 O   0  0  0  0  0  0  0  0  0  0  0  0
   -2.3567   -1.1062   -0.4620 C   0  0  0  0  0  0  0  0  0  0  0  0
   -2.2936   -1.0713   -2.0171 C   0  0  0  0  0  0  0  0  0  0  0  0
   -1.3907   -1.5078   -2.7200 O   0  0  0  0  0  0  0  0  0  0  0  0
   -3.4249   -0.4726   -2.5257 O   0  0  0  0  0  0  0  0  0  0  0  0
   -3.4383   -0.3836   -3.9512 C   0  0  0  0  0  0  0  0  0  0  0  0
   -3.6134   -1.8527    0.0136 C   0  0  0  0  0  0  0  0  0  0  0  0
   -3.5693   -3.3379   -0.3531 C   0  0  0  0  0  0  0  0  0  0  0  0
   -2.1650   -3.9316   -0.2460 C   0  0  0  0  0  0  0  0  0  0  0  0
   -1.2464   -3.0814    0.6299 C   0  0  0  0  0  0  0  0  0  0  0  0
   -1.0879   -1.7292    0.0943 N   0  0  0  0  0  0  0  0  0  0  0  0
   -0.4340   -0.8176    1.0806 C   0  0  0  0  0  0  0  0  0  0  0  0
    1.0208   -0.5352    0.7844 C   0  0  0  0  0  0  0  0  0  0  0  0
    1.9704   -0.6557    1.8089 C   0  0  0  0  0  0  0  0  0  0  0  0
    3.3205   -0.3761    1.5730 C   0  0  0  0  0  0  0  0  0  0  0  0
    3.7618    0.0396    0.3097 C   0  0  0  0  0  0  0  0  0  0  0  0
    5.1754    0.3578    0.0725 C   0  0  0  0  0  0  0  0  0  0  0  0
    6.1697   -0.6261    0.2090 C   0  0  0  0  0  0  0  0  0  0  0  0
    7.5160   -0.3213   -0.0054 C   0  0  0  0  0  0  0  0  0  0  0  0
    7.8884    0.9736   -0.3615 C   0  0  0  0  0  0  0  0  0  0  0  0
    6.9120    1.9564   -0.5029 C   0  0  0  0  0  0  0  0  0  0  0  0
    7.3680    3.5566   -0.9390 Cl  0  0  0  0  0  0  0  0  0  0  0  0
    5.5667    1.6559   -0.2896 C   0  0  0  0  0  0  0  0  0  0  0  0
    2.8163    0.1451   -0.7180 C   0  0  0  0  0  0  0  0  0  0  0  0
    1.4682   -0.1466   -0.4876 C   0  0  0  0  0  0  0  0  0  0  0  0
   -3.0631    3.6153    3.0834 H   0  0  0  0  0  0  0  0  0  0  0  0
   -4.4721    3.4290    2.0337 H   0  0  0  0  0  0  0  0  0  0  0  0
   -3.7608    5.0319    2.2816 H   0  0  0  0  0  0  0  0  0  0  0  0
   -3.0945    4.1197    0.0474 H   0  0  0  0  0  0  0  0  0  0  0  0
   -1.6894    4.3368    1.0863 H   0  0  0  0  0  0  0  0  0  0  0  0
    0.4557    1.8489    2.2679 H   0  0  0  0  0  0  0  0  0  0  0  0
   -4.2367    1.1062   -1.3195 H   0  0  0  0  0  0  0  0  0  0  0  0
   -3.4739   -1.3844   -4.3928 H   0  0  0  0  0  0  0  0  0  0  0  0
   -2.5659    0.1725   -4.3134 H   0  0  0  0  0  0  0  0  0  0  0  0
   -4.3413    0.1587   -4.2467 H   0  0  0  0  0  0  0  0  0  0  0  0
   -4.5297   -1.4057   -0.3949 H   0  0  0  0  0  0  0  0  0  0  0  0
   -3.7073   -1.7634    1.1063 H   0  0  0  0  0  0  0  0  0  0  0  0
   -3.9435   -3.4868   -1.3726 H   0  0  0  0  0  0  0  0  0  0  0  0
   -4.2554   -3.8829    0.3042 H   0  0  0  0  0  0  0  0  0  0  0  0
   -1.7302   -4.0299   -1.2473 H   0  0  0  0  0  0  0  0  0  0  0  0
   -2.2292   -4.9469    0.1593 H   0  0  0  0  0  0  0  0  0  0  0  0
   -0.2614   -3.5640    0.6910 H   0  0  0  0  0  0  0  0  0  0  0  0
   -1.6602   -3.0616    1.6491 H   0  0  0  0  0  0  0  0  0  0  0  0
   -0.5727   -1.1691    2.1111 H   0  0  0  0  0  0  0  0  0  0  0  0
    1.6677   -0.9718    2.8039 H   0  0  0  0  0  0  0  0  0  0  0  0
    4.0336   -0.4789    2.3893 H   0  0  0  0  0  0  0  0  0  0  0  0
    5.8928   -1.6452    0.4747 H   0  0  0  0  0  0  0  0  0  0  0  0
    8.2717   -1.0949    0.1032 H   0  0  0  0  0  0  0  0  0  0  0  0
    8.9353    1.2090   -0.5279 H   0  0  0  0  0  0  0  0  0  0  0  0
    4.8173    2.4379   -0.3910 H   0  0  0  0  0  0  0  0  0  0  0  0
    3.1246    0.4410   -1.7168 H   0  0  0  0  0  0  0  0  0  0  0  0
    0.7648   -0.0702   -1.3127 H   0  0  0  0  0  0  0  0  0  0  0  0
  1  2  1  0
  2  3  1  0
  3  4  1  0
  4  5  1  0
  4  6  2  0
  6  7  1  0
  7  8  2  0
  8  9  1  0
  7 10  1  0
 10 11  1  0
 11 12  2  0
 11 13  1  0
 13 14  1  0
 10 15  1  0
 15 16  1  0
 16 17  1  0
 17 18  1  0
 18 19  1  0
 19 20  1  0
 20 21  1  0
 21 22  2  0
 22 23  1  0
 23 24  2  0
 24 25  1  0
 25 26  2  0
 26 27  1  0
 27 28  2  0
 28 29  1  0
 29 30  1  0
 29 31  2  0
 24 32  1  0
 32 33  2  0
  8  3  1  0
 19 10  1  0
 33 21  1  0
 20  6  1  0
 31 25  1  0
  1 34  1  0
  1 35  1  0
  1 36  1  0
  2 37  1  0
  2 38  1  0
  5 39  1  0
  9 40  1  0
 14 41  1  0
 14 42  1  0
 14 43  1  0
 15 44  1  0
 15 45  1  0
 16 46  1  0
 16 47  1  0
 17 48  1  0
 17 49  1  0
 18 50  1  0
 18 51  1  0
 20 52  1  0
 22 53  1  0
 23 54  1  0
 26 55  1  0
 27 56  1  0
 28 57  1  0
 31 58  1  0
 32 59  1  0
 33 60  1  0
M  END
$$$$
