
     RDKit          3D

 34 35  0  0  0  0  0  0  0  0999 V2000
   -0.5965   -1.4152   -1.6219 C   0  0  0  0  0  0  0  0  0  0  0  0
   -0.8960   -0.4736   -0.4737 C   0  0  0  0  0  0  0  0  0  0  0  0
   -0.0070    0.3235    0.0676 N   0  0  0  0  0  0  0  0  0  0  0  0
    1.2867    0.2336   -0.3794 N   0  0  0  0  0  0  0  0  0  0  0  0
    1.9607    1.5296   -0.5541 C   0  0  0  0  0  0  0  0  0  0  0  0
    2.9962    1.7852    0.5326 C   0  0  0  0  0  0  0  0  0  0  0  0
    4.0801    0.7029    0.5347 C   0  0  0  0  0  0  0  0  0  0  0  0
    3.5839   -0.6389   -0.0118 C   0  0  0  0  0  0  0  0  0  0  0  0
    2.0954   -0.8282    0.2526 C   0  0  0  0  0  0  0  0  0  0  0  0
   -2.2976   -0.4197    0.0451 C   0  0  0  0  0  0  0  0  0  0  0  0
   -2.7648    0.7156    0.5961 C   0  0  0  0  0  0  0  0  0  0  0  0
   -2.0407    1.8653    0.7881 O   0  0  0  0  0  0  0  0  0  0  0  0
   -4.0468    0.8255    1.0352 N   0  0  0  0  0  0  0  0  0  0  0  0
   -4.9703   -0.1724    0.9533 C   0  0  0  0  0  0  0  0  0  0  0  0
   -6.1154   -0.0495    1.3724 O   0  0  0  0  0  0  0  0  0  0  0  0
   -4.5285   -1.3276    0.3760 N   0  0  0  0  0  0  0  0  0  0  0  0
   -3.2437   -1.5634   -0.0335 C   0  0  0  0  0  0  0  0  0  0  0  0
   -2.9006   -2.6753   -0.4235 O   0  0  0  0  0  0  0  0  0  0  0  0
    0.1847   -1.0088   -2.2699 H   0  0  0  0  0  0  0  0  0  0  0  0
   -0.2724   -2.3816   -1.2274 H   0  0  0  0  0  0  0  0  0  0  0  0
   -1.4830   -1.5575   -2.2464 H   0  0  0  0  0  0  0  0  0  0  0  0
    2.4434    1.5043   -1.5381 H   0  0  0  0  0  0  0  0  0  0  0  0
    1.2108    2.3284   -0.5799 H   0  0  0  0  0  0  0  0  0  0  0  0
    3.4569    2.7703    0.3999 H   0  0  0  0  0  0  0  0  0  0  0  0
    2.4984    1.7963    1.5106 H   0  0  0  0  0  0  0  0  0  0  0  0
    4.9383    1.0321   -0.0634 H   0  0  0  0  0  0  0  0  0  0  0  0
    4.4504    0.5757    1.5590 H   0  0  0  0  0  0  0  0  0  0  0  0
    4.1600   -1.4569    0.4346 H   0  0  0  0  0  0  0  0  0  0  0  0
    3.7665   -0.6759   -1.0934 H   0  0  0  0  0  0  0  0  0  0  0  0
    1.9047   -0.8054    1.3328 H   0  0  0  0  0  0  0  0  0  0  0  0
    1.7603   -1.7948   -0.1336 H   0  0  0  0  0  0  0  0  0  0  0  0
   -1.0979    1.6540    0.5925 H   0  0  0  0  0  0  0  0  0  0  0  0
   -4.3382    1.7008    1.4522 H   0  0  0  0  0  0  0  0  0  0  0  0
   -5.1780   -2.0983    0.3440 H   0  0  0  0  0  0  0  0  0  0  0  0
  1  2  1  0
  2  3  2  3
  3  4  1  0
  4  5  1  0
  5  6  1  0
  6  7  1  0
  7  8  1  0
  8  9  1  0
  2 10  1  0
 10 11  2  0
 11 12  1  0
 11 13  1  0
 13 14  1  0
 14 15  2  0
 14 16  1  0
 16 17  1  0
 17 18  2  0
  9  4  1  0
 17 10  1  0
  1 19  1  0
  1 20  1  0
  1 21  1  0
  5 22  1  0
  5 23  1  0
  6 24  1  0
  6 25  1  0
  7 26  1  0
  7 27  1  0
  8 28  1  0
  8 29  1  0
  9 30  1  0
  9 31  1  0
 12 32  1  0
 13 33  1  0
 16 34  1  0
M  END
$$$$
