
     RDKit          3D

 34 37  0  0  0  0  0  0  0  0999 V2000
    4.8555    1.8305   -0.7922 N   0  0  0  0  0  0  0  0  0  0  0  0
    3.7607    1.0319   -0.3936 C   0  0  0  0  0  0  0  0  0  0  0  0
    3.4684    0.8365    0.9704 C   0  0  0  0  0  0  0  0  0  0  0  0
    4.5568    1.3984    2.1936 Cl  0  0  0  0  0  0  0  0  0  0  0  0
    2.3116    0.1691    1.3777 C   0  0  0  0  0  0  0  0  0  0  0  0
    1.3962   -0.2748    0.4209 C   0  0  0  0  0  0  0  0  0  0  0  0
    0.1855   -1.0025    0.8707 C   0  0  0  0  0  0  0  0  0  0  0  0
    0.3351   -1.9425    1.7506 N   0  0  0  0  0  0  0  0  0  0  0  0
   -0.8720   -2.6694    2.2025 C   0  0  0  0  0  0  0  0  0  0  0  0
   -1.8742   -2.9202    1.0807 C   0  0  0  0  0  0  0  0  0  0  0  0
   -2.0912   -1.6671    0.3892 N   0  0  0  0  0  0  0  0  0  0  0  0
   -3.2513   -1.3751   -0.2149 N   0  0  0  0  0  0  0  0  0  0  0  0
   -3.0800   -0.1163   -0.6517 C   0  0  0  0  0  0  0  0  0  0  0  0
   -3.9816    0.7259   -1.3233 C   0  0  0  0  0  0  0  0  0  0  0  0
   -3.4677    2.0089   -1.6054 C   0  0  0  0  0  0  0  0  0  0  0  0
   -2.1524    2.4279   -1.2402 C   0  0  0  0  0  0  0  0  0  0  0  0
   -1.2211    1.6078   -0.5691 C   0  0  0  0  0  0  0  0  0  0  0  0
   -1.7395    0.3371   -0.3157 C   0  0  0  0  0  0  0  0  0  0  0  0
   -1.1120   -0.7144    0.3112 C   0  0  0  0  0  0  0  0  0  0  0  0
    1.6500   -0.0810   -0.9388 C   0  0  0  0  0  0  0  0  0  0  0  0
    2.8106    0.5883   -1.3343 C   0  0  0  0  0  0  0  0  0  0  0  0
    3.0662    0.8358   -3.0285 Cl  0  0  0  0  0  0  0  0  0  0  0  0
    5.1569    1.6576   -1.7488 H   0  0  0  0  0  0  0  0  0  0  0  0
    5.6190    1.8353   -0.1192 H   0  0  0  0  0  0  0  0  0  0  0  0
    2.1177    0.0019    2.4351 H   0  0  0  0  0  0  0  0  0  0  0  0
   -1.3362   -2.0976    3.0159 H   0  0  0  0  0  0  0  0  0  0  0  0
   -0.5595   -3.6302    2.6255 H   0  0  0  0  0  0  0  0  0  0  0  0
   -2.8292   -3.2818    1.4730 H   0  0  0  0  0  0  0  0  0  0  0  0
   -1.4850   -3.6282    0.3416 H   0  0  0  0  0  0  0  0  0  0  0  0
   -4.9822    0.4155   -1.5892 H   0  0  0  0  0  0  0  0  0  0  0  0
   -4.1111    2.7216   -2.1220 H   0  0  0  0  0  0  0  0  0  0  0  0
   -1.8538    3.4467   -1.4926 H   0  0  0  0  0  0  0  0  0  0  0  0
   -0.2418    1.9692   -0.2899 H   0  0  0  0  0  0  0  0  0  0  0  0
    0.9519   -0.4448   -1.6891 H   0  0  0  0  0  0  0  0  0  0  0  0
  1  2  1  0
  2  3  2  0
  3  4  1  0
  3  5  1  0
  5  6  2  0
  6  7  1  0
  7  8  2  0
  8  9  1  0
  9 10  1  0
 10 11  1  0
 11 12  1  0
 12 13  2  0
 13 14  1  0
 14 15  2  0
 15 16  1  0
 16 17  2  0
 17 18  1  0
 18 19  2  0
  6 20  1  0
 20 21  2  0
 21 22  1  0
 21  2  1  0
 19  7  1  0
 19 11  1  0
 18 13  1  0
  1 23  1  0
  1 24  1  0
  5 25  1  0
  9 26  1  0
  9 27  1  0
 10 28  1  0
 10 29  1  0
 14 30  1  0
 15 31  1  0
 16 32  1  0
 17 33  1  0
 20 34  1  0
M  END
$$$$
