
     RDKit          3D

 51 54  0  0  0  0  0  0  0  0999 V2000
   -0.4938    1.9942   -0.7204 O   0  0  0  0  0  0  0  0  0  0  0  0
   -0.8049    0.8876   -0.2711 C   0  0  0  0  0  0  0  0  0  0  0  0
    0.2673   -0.0769    0.0448 C   0  0  0  0  0  0  0  0  0  0  0  0
    1.6622    0.2087   -0.0023 C   0  0  0  0  0  0  0  0  0  0  0  0
    2.2836   -0.9698    0.3288 C   0  0  0  0  0  0  0  0  0  0  0  0
    3.6899   -1.4175    0.4652 C   0  0  0  0  0  0  0  0  0  0  0  0
    4.5196   -0.3805   -0.0577 O   0  0  0  0  0  0  0  0  0  0  0  0
    5.8673   -0.6097   -0.0746 C   0  0  0  0  0  0  0  0  0  0  0  0
    6.5135   -1.7574    0.3856 C   0  0  0  0  0  0  0  0  0  0  0  0
    7.9051   -1.8573    0.3064 C   0  0  0  0  0  0  0  0  0  0  0  0
    8.6564   -0.8142   -0.2354 C   0  0  0  0  0  0  0  0  0  0  0  0
    8.0227    0.3424   -0.7103 C   0  0  0  0  0  0  0  0  0  0  0  0
    8.8331    1.4786   -1.2811 C   0  0  0  0  0  0  0  0  0  0  0  0
    9.3602    2.2764   -0.3117 F   0  0  0  0  0  0  0  0  0  0  0  0
    8.1155    2.3015   -2.0962 F   0  0  0  0  0  0  0  0  0  0  0  0
    9.8904    1.0498   -2.0268 F   0  0  0  0  0  0  0  0  0  0  0  0
    6.6250    0.4339   -0.6154 C   0  0  0  0  0  0  0  0  0  0  0  0
    1.3327   -1.9086    0.5785 O   0  0  0  0  0  0  0  0  0  0  0  0
    0.0800   -1.3632    0.3944 N   0  0  0  0  0  0  0  0  0  0  0  0
   -2.1580    0.5611   -0.0726 N   0  0  0  0  0  0  0  0  0  0  0  0
   -3.1698    1.5158   -0.5207 C   0  0  0  0  0  0  0  0  0  0  0  0
   -4.3740    0.8053   -1.1307 C   0  0  0  0  0  0  0  0  0  0  0  0
   -4.9971   -0.2348   -0.1786 C   0  0  0  0  0  0  0  0  0  0  0  0
   -6.4040    0.1458    0.2458 C   0  0  0  0  0  0  0  0  0  0  0  0
   -6.6669    1.2999    0.9912 C   0  0  0  0  0  0  0  0  0  0  0  0
   -7.9775    1.5867    1.3448 C   0  0  0  0  0  0  0  0  0  0  0  0
   -9.0323    0.8155    1.0097 N   0  0  0  0  0  0  0  0  0  0  0  0
   -8.7627   -0.2912    0.2879 C   0  0  0  0  0  0  0  0  0  0  0  0
   -7.4876   -0.6629   -0.1114 C   0  0  0  0  0  0  0  0  0  0  0  0
   -4.1053   -0.5282    1.0392 C   0  0  0  0  0  0  0  0  0  0  0  0
   -2.6355   -0.6266    0.6388 C   0  0  0  0  0  0  0  0  0  0  0  0
    2.1319    1.1468   -0.2652 H   0  0  0  0  0  0  0  0  0  0  0  0
    3.9146   -1.5846    1.5258 H   0  0  0  0  0  0  0  0  0  0  0  0
    3.8290   -2.3433   -0.1074 H   0  0  0  0  0  0  0  0  0  0  0  0
    5.9698   -2.5934    0.8147 H   0  0  0  0  0  0  0  0  0  0  0  0
    8.4053   -2.7529    0.6691 H   0  0  0  0  0  0  0  0  0  0  0  0
    9.7404   -0.9067   -0.2890 H   0  0  0  0  0  0  0  0  0  0  0  0
    6.1141    1.3283   -0.9711 H   0  0  0  0  0  0  0  0  0  0  0  0
   -2.7514    2.2055   -1.2617 H   0  0  0  0  0  0  0  0  0  0  0  0
   -3.4656    2.1174    0.3477 H   0  0  0  0  0  0  0  0  0  0  0  0
   -5.1086    1.5446   -1.4721 H   0  0  0  0  0  0  0  0  0  0  0  0
   -4.0336    0.2815   -2.0341 H   0  0  0  0  0  0  0  0  0  0  0  0
   -5.0683   -1.1703   -0.7519 H   0  0  0  0  0  0  0  0  0  0  0  0
   -5.8736    1.9728    1.2981 H   0  0  0  0  0  0  0  0  0  0  0  0
   -8.2181    2.4737    1.9257 H   0  0  0  0  0  0  0  0  0  0  0  0
   -9.6273   -0.8949    0.0277 H   0  0  0  0  0  0  0  0  0  0  0  0
   -7.3520   -1.5676   -0.6924 H   0  0  0  0  0  0  0  0  0  0  0  0
   -4.4237   -1.4625    1.5184 H   0  0  0  0  0  0  0  0  0  0  0  0
   -4.2091    0.2550    1.8005 H   0  0  0  0  0  0  0  0  0  0  0  0
   -2.4913   -1.4899   -0.0203 H   0  0  0  0  0  0  0  0  0  0  0  0
   -2.0375   -0.7640    1.5448 H   0  0  0  0  0  0  0  0  0  0  0  0
  1  2  2  0
  2  3  1  0
  3  4  1  0
  4  5  2  0
  5  6  1  0
  6  7  1  0
  7  8  1  0
  8  9  2  0
  9 10  1  0
 10 11  2  0
 11 12  1  0
 12 13  1  0
 13 14  1  0
 13 15  1  0
 13 16  1  0
 12 17  2  0
  5 18  1  0
 18 19  1  0
  2 20  1  0
 20 21  1  0
 21 22  1  0
 22 23  1  0
 23 24  1  0
 24 25  2  0
 25 26  1  0
 26 27  2  0
 27 28  1  0
 28 29  2  0
 23 30  1  0
 30 31  1  0
 19  3  2  0
 31 20  1  0
 17  8  1  0
 29 24  1  0
  4 32  1  0
  6 33  1  0
  6 34  1  0
  9 35  1  0
 10 36  1  0
 11 37  1  0
 17 38  1  0
 21 39  1  0
 21 40  1  0
 22 41  1  0
 22 42  1  0
 23 43  1  0
 25 44  1  0
 26 45  1  0
 28 46  1  0
 29 47  1  0
 30 48  1  0
 30 49  1  0
 31 50  1  0
 31 51  1  0
M  END
$$$$
