
     RDKit          3D

 45 47  0  0  0  0  0  0  0  0999 V2000
   -5.2406    1.7477    0.0307 C   0  0  0  0  0  0  0  0  0  0  0  0
   -3.9502    1.0901    0.2256 N   0  0  0  0  0  0  0  0  0  0  0  0
   -3.5154    0.3238   -0.9562 C   0  0  0  0  0  0  0  0  0  0  0  0
   -4.3067   -0.9864   -0.8748 C   0  0  0  0  0  0  0  0  0  0  0  0
   -4.6198   -1.1568    0.6142 C   0  0  0  0  0  0  0  0  0  0  0  0
   -3.9847    0.0661    1.2853 C   0  0  0  0  0  0  0  0  0  0  0  0
   -2.5196   -0.1867    1.6830 C   0  0  0  0  0  0  0  0  0  0  0  0
   -1.6697   -0.6755    0.4998 C   0  0  0  0  0  0  0  0  0  0  0  0
   -0.2809   -0.5110    0.8468 O   0  0  0  0  0  0  0  0  0  0  0  0
    0.6062   -1.2760    0.1557 C   0  0  0  0  0  0  0  0  0  0  0  0
    0.3176   -2.0831   -0.7181 O   0  0  0  0  0  0  0  0  0  0  0  0
    2.0144   -0.9705    0.5836 C   0  0  0  0  0  0  0  0  0  0  0  0
    2.6441   -0.0179   -0.4261 C   0  0  0  0  0  0  0  0  0  0  0  0
    4.0021    0.3827   -0.0407 N   0  0  0  0  0  0  0  0  0  0  0  0
    4.9785   -0.7074   -0.1162 C   0  0  0  0  0  0  0  0  0  0  0  0
    6.3191    0.0148   -0.1092 C   0  0  0  0  0  0  0  0  0  0  0  0
    6.0160    1.4301   -0.5868 C   0  0  0  0  0  0  0  0  0  0  0  0
    4.5351    1.4207   -0.9276 C   0  0  0  0  0  0  0  0  0  0  0  0
   -2.0024    0.0966   -0.7878 C   0  0  0  0  0  0  0  0  0  0  0  0
   -6.0556    1.0610   -0.2197 H   0  0  0  0  0  0  0  0  0  0  0  0
   -5.1653    2.4904   -0.7712 H   0  0  0  0  0  0  0  0  0  0  0  0
   -5.5241    2.2931    0.9376 H   0  0  0  0  0  0  0  0  0  0  0  0
   -3.6936    0.8554   -1.8977 H   0  0  0  0  0  0  0  0  0  0  0  0
   -3.7532   -1.8416   -1.2762 H   0  0  0  0  0  0  0  0  0  0  0  0
   -5.2443   -0.9075   -1.4379 H   0  0  0  0  0  0  0  0  0  0  0  0
   -4.2353   -2.1037    1.0069 H   0  0  0  0  0  0  0  0  0  0  0  0
   -5.7066   -1.1571    0.7605 H   0  0  0  0  0  0  0  0  0  0  0  0
   -4.5444    0.3877    2.1707 H   0  0  0  0  0  0  0  0  0  0  0  0
   -2.0836    0.7323    2.0984 H   0  0  0  0  0  0  0  0  0  0  0  0
   -2.4685   -0.9270    2.4914 H   0  0  0  0  0  0  0  0  0  0  0  0
   -1.8750   -1.7446    0.3565 H   0  0  0  0  0  0  0  0  0  0  0  0
    2.0084   -0.5383    1.5913 H   0  0  0  0  0  0  0  0  0  0  0  0
    2.5544   -1.9215    0.6503 H   0  0  0  0  0  0  0  0  0  0  0  0
    2.0149    0.8805   -0.4866 H   0  0  0  0  0  0  0  0  0  0  0  0
    2.6350   -0.4675   -1.4282 H   0  0  0  0  0  0  0  0  0  0  0  0
    4.8736   -1.2809   -1.0461 H   0  0  0  0  0  0  0  0  0  0  0  0
    4.8993   -1.3973    0.7297 H   0  0  0  0  0  0  0  0  0  0  0  0
    6.7435    0.0455    0.9009 H   0  0  0  0  0  0  0  0  0  0  0  0
    7.0422   -0.4847   -0.7623 H   0  0  0  0  0  0  0  0  0  0  0  0
    6.2229    2.1446    0.2189 H   0  0  0  0  0  0  0  0  0  0  0  0
    6.6291    1.7101   -1.4493 H   0  0  0  0  0  0  0  0  0  0  0  0
    4.0745    2.3967   -0.7445 H   0  0  0  0  0  0  0  0  0  0  0  0
    4.3973    1.1601   -1.9849 H   0  0  0  0  0  0  0  0  0  0  0  0
   -1.4778    1.0618   -0.7851 H   0  0  0  0  0  0  0  0  0  0  0  0
   -1.6106   -0.4489   -1.6549 H   0  0  0  0  0  0  0  0  0  0  0  0
  1  2  1  0
  2  3  1  0
  3  4  1  0
  4  5  1  0
  5  6  1  0
  6  7  1  0
  7  8  1  0
  8  9  1  0
  9 10  1  0
 10 11  2  0
 10 12  1  0
 12 13  1  0
 13 14  1  0
 14 15  1  0
 15 16  1  0
 16 17  1  0
 17 18  1  0
  8 19  1  0
  6  2  1  0
 18 14  1  0
 19  3  1  0
  1 20  1  0
  1 21  1  0
  1 22  1  0
  3 23  1  0
  4 24  1  0
  4 25  1  0
  5 26  1  0
  5 27  1  0
  6 28  1  0
  7 29  1  0
  7 30  1  0
  8 31  1  0
 12 32  1  0
 12 33  1  0
 13 34  1  0
 13 35  1  0
 15 36  1  0
 15 37  1  0
 16 38  1  0
 16 39  1  0
 17 40  1  0
 17 41  1  0
 18 42  1  0
 18 43  1  0
 19 44  1  0
 19 45  1  0
M  END
$$$$
