
     RDKit          3D

 52 54  0  0  0  0  0  0  0  0999 V2000
   -8.0017   -1.3252   -1.2472 C   0  0  0  0  0  0  0  0  0  0  0  0
   -6.9483   -0.5798   -0.4243 C   0  0  0  0  0  0  0  0  0  0  0  0
   -7.0592    0.9233   -0.6827 C   0  0  0  0  0  0  0  0  0  0  0  0
   -5.5492   -1.1288   -0.7479 C   0  0  0  0  0  0  0  0  0  0  0  0
   -4.4391   -0.5407    0.1232 C   0  0  0  0  0  0  0  0  0  0  0  0
   -3.2249   -1.2193   -0.2052 O   0  0  0  0  0  0  0  0  0  0  0  0
   -2.1015   -0.8588    0.4866 C   0  0  0  0  0  0  0  0  0  0  0  0
   -2.0222    0.1395    1.4610 C   0  0  0  0  0  0  0  0  0  0  0  0
   -0.8033    0.4094    2.0918 C   0  0  0  0  0  0  0  0  0  0  0  0
    0.3380   -0.3124    1.7353 C   0  0  0  0  0  0  0  0  0  0  0  0
    1.6107   -0.0246    2.4257 C   0  0  0  0  0  0  0  0  0  0  0  0
    1.6681   -0.2745    3.6270 O   0  0  0  0  0  0  0  0  0  0  0  0
    2.6618    0.5242    1.6970 N   0  0  0  0  0  0  0  0  0  0  0  0
    2.6295    0.7853    0.2434 C   0  0  0  0  0  0  0  0  0  0  0  0
    3.5345    1.9641   -0.1698 C   0  0  0  0  0  0  0  0  0  0  0  0
    4.8830    1.8223    0.3971 N   0  0  0  0  0  0  0  0  0  0  0  0
    5.7048    0.9036   -0.2553 C   0  0  0  0  0  0  0  0  0  0  0  0
    5.4351    0.5812   -1.5330 N   0  0  0  0  0  0  0  0  0  0  0  0
    6.2561   -0.2897   -2.1506 C   0  0  0  0  0  0  0  0  0  0  0  0
    7.3412   -0.8666   -1.5462 C   0  0  0  0  0  0  0  0  0  0  0  0
    7.5421   -0.4908   -0.2449 C   0  0  0  0  0  0  0  0  0  0  0  0
    6.7475    0.3769    0.4100 N   0  0  0  0  0  0  0  0  0  0  0  0
    4.8696    1.7105    1.8650 C   0  0  0  0  0  0  0  0  0  0  0  0
    3.9964    0.5263    2.3210 C   0  0  0  0  0  0  0  0  0  0  0  0
    0.2641   -1.3280    0.7801 C   0  0  0  0  0  0  0  0  0  0  0  0
   -0.9556   -1.5901    0.1536 C   0  0  0  0  0  0  0  0  0  0  0  0
   -7.9652   -2.4007   -1.0440 H   0  0  0  0  0  0  0  0  0  0  0  0
   -9.0092   -0.9743   -0.9996 H   0  0  0  0  0  0  0  0  0  0  0  0
   -7.8453   -1.1770   -2.3212 H   0  0  0  0  0  0  0  0  0  0  0  0
   -7.1606   -0.7621    0.6368 H   0  0  0  0  0  0  0  0  0  0  0  0
   -8.0825    1.2728   -0.5075 H   0  0  0  0  0  0  0  0  0  0  0  0
   -6.7905    1.1695   -1.7155 H   0  0  0  0  0  0  0  0  0  0  0  0
   -6.4051    1.4917   -0.0146 H   0  0  0  0  0  0  0  0  0  0  0  0
   -5.3062   -0.9562   -1.8047 H   0  0  0  0  0  0  0  0  0  0  0  0
   -5.5464   -2.2200   -0.6236 H   0  0  0  0  0  0  0  0  0  0  0  0
   -4.6830   -0.6984    1.1805 H   0  0  0  0  0  0  0  0  0  0  0  0
   -4.3273    0.5288   -0.0850 H   0  0  0  0  0  0  0  0  0  0  0  0
   -2.8885    0.7211    1.7582 H   0  0  0  0  0  0  0  0  0  0  0  0
   -0.7444    1.1754    2.8613 H   0  0  0  0  0  0  0  0  0  0  0  0
    1.6074    1.0025   -0.0795 H   0  0  0  0  0  0  0  0  0  0  0  0
    2.9498   -0.1387   -0.2515 H   0  0  0  0  0  0  0  0  0  0  0  0
    3.5429    2.0893   -1.2591 H   0  0  0  0  0  0  0  0  0  0  0  0
    3.0998    2.8906    0.2283 H   0  0  0  0  0  0  0  0  0  0  0  0
    6.0023   -0.5117   -3.1827 H   0  0  0  0  0  0  0  0  0  0  0  0
    7.9905   -1.5619   -2.0573 H   0  0  0  0  0  0  0  0  0  0  0  0
    8.3733   -0.8827    0.3335 H   0  0  0  0  0  0  0  0  0  0  0  0
    5.8762    1.6448    2.2945 H   0  0  0  0  0  0  0  0  0  0  0  0
    4.4379    2.6364    2.2674 H   0  0  0  0  0  0  0  0  0  0  0  0
    4.4679   -0.4262    2.0507 H   0  0  0  0  0  0  0  0  0  0  0  0
    3.9065    0.5440    3.4123 H   0  0  0  0  0  0  0  0  0  0  0  0
    1.1420   -1.9170    0.5301 H   0  0  0  0  0  0  0  0  0  0  0  0
   -1.0196   -2.3773   -0.5941 H   0  0  0  0  0  0  0  0  0  0  0  0
  1  2  1  0
  2  3  1  0
  2  4  1  0
  4  5  1  0
  5  6  1  0
  6  7  1  0
  7  8  2  0
  8  9  1  0
  9 10  2  0
 10 11  1  0
 11 12  2  0
 11 13  1  0
 13 14  1  0
 14 15  1  0
 15 16  1  0
 16 17  1  0
 17 18  2  0
 18 19  1  0
 19 20  2  0
 20 21  1  0
 21 22  2  0
 16 23  1  0
 23 24  1  0
 10 25  1  0
 25 26  2  0
 26  7  1  0
 24 13  1  0
 22 17  1  0
  1 27  1  0
  1 28  1  0
  1 29  1  0
  2 30  1  0
  3 31  1  0
  3 32  1  0
  3 33  1  0
  4 34  1  0
  4 35  1  0
  5 36  1  0
  5 37  1  0
  8 38  1  0
  9 39  1  0
 14 40  1  0
 14 41  1  0
 15 42  1  0
 15 43  1  0
 19 44  1  0
 20 45  1  0
 21 46  1  0
 23 47  1  0
 23 48  1  0
 24 49  1  0
 24 50  1  0
 25 51  1  0
 26 52  1  0
M  END
$$$$
