
     RDKit          3D

 64 64  0  0  0  0  0  0  0  0999 V2000
   -8.0530    0.8035   -2.3999 C   0  0  0  0  0  0  0  0  0  0  0  0
   -7.3141    1.3724   -1.1979 C   0  0  0  0  0  0  0  0  0  0  0  0
   -7.9882    0.9653    0.1146 C   0  0  0  0  0  0  0  0  0  0  0  0
   -7.2769    1.5235    1.3521 C   0  0  0  0  0  0  0  0  0  0  0  0
   -6.3102    0.5464    2.0311 C   0  0  0  0  0  0  0  0  0  0  0  0
   -5.1143    0.1440    1.1675 C   0  0  0  0  0  0  0  0  0  0  0  0
   -4.1112   -0.6911    1.9682 C   0  0  0  0  0  0  0  0  0  0  0  0
   -2.9498   -1.2269    1.1238 C   0  0  0  0  0  0  0  0  0  0  0  0
   -2.0193   -0.1270    0.6057 C   0  0  0  0  0  0  0  0  0  0  0  0
   -0.8507   -0.6592   -0.2327 C   0  0  0  0  0  0  0  0  0  0  0  0
    0.1632   -1.4675    0.5817 C   0  0  0  0  0  0  0  0  0  0  0  0
    1.3502   -1.9717   -0.2480 C   0  0  0  0  0  0  0  0  0  0  0  0
    2.2911   -0.8528   -0.7024 C   0  0  0  0  0  0  0  0  0  0  0  0
    3.4848   -1.3528   -1.5243 C   0  0  0  0  0  0  0  0  0  0  0  0
    4.4260   -2.3329   -0.8159 C   0  0  0  0  0  0  0  0  0  0  0  0
    5.0890   -1.8019    0.4525 C   0  0  0  0  0  0  0  0  0  0  0  0
    6.0223   -0.6887    0.1368 N   0  0  0  0  0  4  0  0  0  0  0  0
    5.6720    0.5873    0.4252 C   0  0  0  0  0  0  0  0  0  0  0  0
    6.5342    1.6387    0.1506 C   0  0  0  0  0  0  0  0  0  0  0  0
    7.7741    1.3656   -0.4185 C   0  0  0  0  0  0  0  0  0  0  0  0
    8.7179    2.4555   -0.7249 C   0  0  0  0  0  0  0  0  0  0  0  0
    8.4173    3.6896   -0.4813 N   0  0  0  0  0  0  0  0  0  0  0  0
    9.4938    4.4936   -0.8717 O   0  0  0  0  0  0  0  0  0  0  0  0
    8.1327    0.0531   -0.6995 C   0  0  0  0  0  0  0  0  0  0  0  0
    7.2334   -0.9646   -0.4062 C   0  0  0  0  0  0  0  0  0  0  0  0
   -8.0612   -0.2910   -2.3726 H   0  0  0  0  0  0  0  0  0  0  0  0
   -7.5640    1.1163   -3.3281 H   0  0  0  0  0  0  0  0  0  0  0  0
   -9.0895    1.1550   -2.4268 H   0  0  0  0  0  0  0  0  0  0  0  0
   -7.2918    2.4659   -1.2774 H   0  0  0  0  0  0  0  0  0  0  0  0
   -6.2760    1.0288   -1.2269 H   0  0  0  0  0  0  0  0  0  0  0  0
   -9.0123    1.3610    0.1032 H   0  0  0  0  0  0  0  0  0  0  0  0
   -8.0770   -0.1257    0.1802 H   0  0  0  0  0  0  0  0  0  0  0  0
   -8.0455    1.7781    2.0938 H   0  0  0  0  0  0  0  0  0  0  0  0
   -6.7592    2.4605    1.1145 H   0  0  0  0  0  0  0  0  0  0  0  0
   -6.8584   -0.3526    2.3394 H   0  0  0  0  0  0  0  0  0  0  0  0
   -5.9448    1.0191    2.9517 H   0  0  0  0  0  0  0  0  0  0  0  0
   -5.4578   -0.4430    0.3089 H   0  0  0  0  0  0  0  0  0  0  0  0
   -4.6290    1.0473    0.7830 H   0  0  0  0  0  0  0  0  0  0  0  0
   -3.7160   -0.0982    2.8020 H   0  0  0  0  0  0  0  0  0  0  0  0
   -4.6348   -1.5480    2.4104 H   0  0  0  0  0  0  0  0  0  0  0  0
   -2.3824   -1.9233    1.7506 H   0  0  0  0  0  0  0  0  0  0  0  0
   -3.3441   -1.8071    0.2810 H   0  0  0  0  0  0  0  0  0  0  0  0
   -1.6304    0.4587    1.4472 H   0  0  0  0  0  0  0  0  0  0  0  0
   -2.5886    0.5646   -0.0255 H   0  0  0  0  0  0  0  0  0  0  0  0
   -0.3523    0.2048   -0.6857 H   0  0  0  0  0  0  0  0  0  0  0  0
   -1.2370   -1.2703   -1.0572 H   0  0  0  0  0  0  0  0  0  0  0  0
    0.5311   -0.8668    1.4221 H   0  0  0  0  0  0  0  0  0  0  0  0
   -0.3326   -2.3446    1.0121 H   0  0  0  0  0  0  0  0  0  0  0  0
    0.9834   -2.5286   -1.1183 H   0  0  0  0  0  0  0  0  0  0  0  0
    1.9052   -2.6825    0.3744 H   0  0  0  0  0  0  0  0  0  0  0  0
    2.6399   -0.2888    0.1685 H   0  0  0  0  0  0  0  0  0  0  0  0
    1.7403   -0.1416   -1.3281 H   0  0  0  0  0  0  0  0  0  0  0  0
    3.1039   -1.8402   -2.4310 H   0  0  0  0  0  0  0  0  0  0  0  0
    4.0597   -0.4850   -1.8690 H   0  0  0  0  0  0  0  0  0  0  0  0
    3.8783   -3.2486   -0.5667 H   0  0  0  0  0  0  0  0  0  0  0  0
    5.1993   -2.6351   -1.5327 H   0  0  0  0  0  0  0  0  0  0  0  0
    4.3609   -1.4561    1.1925 H   0  0  0  0  0  0  0  0  0  0  0  0
    5.6896   -2.5855    0.9296 H   0  0  0  0  0  0  0  0  0  0  0  0
    4.6979    0.7584    0.8745 H   0  0  0  0  0  0  0  0  0  0  0  0
    6.2384    2.6604    0.3823 H   0  0  0  0  0  0  0  0  0  0  0  0
    9.6915    2.1797   -1.1710 H   0  0  0  0  0  0  0  0  0  0  0  0
    9.1834    5.3953   -0.6609 H   0  0  0  0  0  0  0  0  0  0  0  0
    9.0984   -0.1852   -1.1398 H   0  0  0  0  0  0  0  0  0  0  0  0
    7.4693   -2.0073   -0.6029 H   0  0  0  0  0  0  0  0  0  0  0  0
  1  2  1  0
  2  3  1  0
  3  4  1  0
  4  5  1  0
  5  6  1  0
  6  7  1  0
  7  8  1  0
  8  9  1  0
  9 10  1  0
 10 11  1  0
 11 12  1  0
 12 13  1  0
 13 14  1  0
 14 15  1  0
 15 16  1  0
 16 17  1  0
 17 18  2  0
 18 19  1  0
 19 20  2  0
 20 21  1  0
 21 22  2  3
 22 23  1  0
 20 24  1  0
 24 25  2  0
 25 17  1  0
  1 26  1  0
  1 27  1  0
  1 28  1  0
  2 29  1  0
  2 30  1  0
  3 31  1  0
  3 32  1  0
  4 33  1  0
  4 34  1  0
  5 35  1  0
  5 36  1  0
  6 37  1  0
  6 38  1  0
  7 39  1  0
  7 40  1  0
  8 41  1  0
  8 42  1  0
  9 43  1  0
  9 44  1  0
 10 45  1  0
 10 46  1  0
 11 47  1  0
 11 48  1  0
 12 49  1  0
 12 50  1  0
 13 51  1  0
 13 52  1  0
 14 53  1  0
 14 54  1  0
 15 55  1  0
 15 56  1  0
 16 57  1  0
 16 58  1  0
 18 59  1  0
 19 60  1  0
 21 61  1  0
 23 62  1  0
 24 63  1  0
 25 64  1  0
M  CHG  1  17   1
M  END
$$$$
