
     RDKit          3D

 35 37  0  0  0  0  0  0  0  0999 V2000
   -2.4127   -2.3552   -0.7434 C   0  0  0  0  0  0  0  0  0  0  0  0
   -2.3362   -1.6943    0.6259 C   0  0  0  0  0  0  0  0  0  0  0  0
   -1.8399   -0.3245    0.5258 N   0  0  0  0  0  0  0  0  0  0  0  0
   -0.5127    0.1647    0.6635 C   0  0  0  0  0  0  0  0  0  0  0  0
    0.6661   -0.4986    0.7855 C   0  0  0  0  0  0  0  0  0  0  0  0
    0.8671   -2.2335    0.7412 S   0  0  0  0  0  0  0  0  0  0  0  0
    2.6159   -2.1889    0.8085 C   0  0  0  0  0  0  0  0  0  0  0  0
    3.5682   -3.5570    0.8392 S   0  0  0  0  0  0  0  0  0  0  0  0
    3.0049   -0.8750    0.8706 N   0  0  0  0  0  0  0  0  0  0  0  0
    4.3608   -0.4836    0.9224 N   0  0  0  0  0  0  0  0  0  0  0  0
    4.9596   -0.2465   -0.3028 C   0  0  0  0  0  0  0  0  0  0  0  0
    6.2791    0.4691   -0.2037 C   0  0  0  0  0  0  0  0  0  0  0  0
    4.4693   -0.5744   -1.3797 O   0  0  0  0  0  0  0  0  0  0  0  0
    2.0360    0.1122    0.9501 C   0  0  0  0  0  0  0  0  0  0  0  0
    2.3043    1.2807    1.1995 O   0  0  0  0  0  0  0  0  0  0  0  0
   -0.4736    1.9748    0.6124 S   0  0  0  0  0  0  0  0  0  0  0  0
   -2.2246    2.0067    0.3298 C   0  0  0  0  0  0  0  0  0  0  0  0
   -2.9883    3.1524    0.1407 C   0  0  0  0  0  0  0  0  0  0  0  0
   -4.3564    3.0135   -0.0772 C   0  0  0  0  0  0  0  0  0  0  0  0
   -4.9340    1.7408   -0.1049 C   0  0  0  0  0  0  0  0  0  0  0  0
   -4.1507    0.5944    0.0880 C   0  0  0  0  0  0  0  0  0  0  0  0
   -2.7802    0.7155    0.3133 C   0  0  0  0  0  0  0  0  0  0  0  0
   -3.1318   -1.8451   -1.3922 H   0  0  0  0  0  0  0  0  0  0  0  0
   -1.4465   -2.3430   -1.2561 H   0  0  0  0  0  0  0  0  0  0  0  0
   -2.7327   -3.3970   -0.6420 H   0  0  0  0  0  0  0  0  0  0  0  0
   -1.7225   -2.2897    1.3056 H   0  0  0  0  0  0  0  0  0  0  0  0
   -3.3238   -1.7273    1.1019 H   0  0  0  0  0  0  0  0  0  0  0  0
    4.5632    0.1770    1.6687 H   0  0  0  0  0  0  0  0  0  0  0  0
    6.6569    0.4742    0.8226 H   0  0  0  0  0  0  0  0  0  0  0  0
    6.1530    1.5006   -0.5424 H   0  0  0  0  0  0  0  0  0  0  0  0
    7.0111   -0.0415   -0.8355 H   0  0  0  0  0  0  0  0  0  0  0  0
   -2.5293    4.1357    0.1599 H   0  0  0  0  0  0  0  0  0  0  0  0
   -4.9747    3.8946   -0.2294 H   0  0  0  0  0  0  0  0  0  0  0  0
   -6.0026    1.6390   -0.2814 H   0  0  0  0  0  0  0  0  0  0  0  0
   -4.6424   -0.3709    0.0461 H   0  0  0  0  0  0  0  0  0  0  0  0
  1  2  1  0
  2  3  1  0
  3  4  1  0
  4  5  2  3
  5  6  1  0
  6  7  1  0
  7  8  2  0
  7  9  1  0
  9 10  1  0
 10 11  1  0
 11 12  1  0
 11 13  2  0
  9 14  1  0
 14 15  2  0
  4 16  1  0
 16 17  1  0
 17 18  2  0
 18 19  1  0
 19 20  2  0
 20 21  1  0
 21 22  2  0
 22  3  1  0
 14  5  1  0
 22 17  1  0
  1 23  1  0
  1 24  1  0
  1 25  1  0
  2 26  1  0
  2 27  1  0
 10 28  1  0
 12 29  1  0
 12 30  1  0
 12 31  1  0
 18 32  1  0
 19 33  1  0
 20 34  1  0
 21 35  1  0
M  END
$$$$
