
     RDKit          3D

 40 41  0  0  0  0  0  0  0  0999 V2000
   -5.1116    1.7816   -0.2679 C   0  0  0  0  0  0  0  0  0  0  0  0
   -3.7667    1.6520    0.4484 C   0  0  0  0  0  0  0  0  0  0  0  0
   -2.6491    1.3639   -0.5678 C   0  0  0  0  0  0  0  0  0  0  0  0
   -1.4466    0.6899    0.0858 C   0  0  0  0  0  0  0  0  0  0  0  0
   -1.8180   -0.5773    0.7246 N   0  0  0  0  0  0  0  0  0  0  0  0
   -1.0012   -1.7063    0.7560 C   0  0  0  0  0  0  0  0  0  0  0  0
   -1.4068   -2.8323    1.0339 O   0  0  0  0  0  0  0  0  0  0  0  0
    0.4373   -1.5546    0.4452 C   0  0  0  0  0  0  0  0  0  0  0  0
    1.2359   -0.6665    1.1740 C   0  0  0  0  0  0  0  0  0  0  0  0
    2.5934   -0.5482    0.8688 C   0  0  0  0  0  0  0  0  0  0  0  0
    3.1486   -1.3287   -0.1475 C   0  0  0  0  0  0  0  0  0  0  0  0
    4.5240   -1.1801   -0.4955 N   0  0  0  0  0  0  0  0  0  0  0  0
    4.9501    0.1999   -1.3838 S   0  0  0  0  0  6  0  0  0  0  0  0
    5.9526    1.0573   -0.1906 C   0  0  0  0  0  0  0  0  0  0  0  0
    5.8266   -0.2727   -2.4341 O   0  0  0  0  0  0  0  0  0  0  0  0
    3.7833    1.0037   -1.6706 O   0  0  0  0  0  0  0  0  0  0  0  0
    2.3538   -2.2255   -0.8654 C   0  0  0  0  0  0  0  0  0  0  0  0
    0.9970   -2.3491   -0.5603 C   0  0  0  0  0  0  0  0  0  0  0  0
   -3.2097   -0.7343    1.1396 C   0  0  0  0  0  0  0  0  0  0  0  0
   -3.8245    0.5944    1.5653 C   0  0  0  0  0  0  0  0  0  0  0  0
   -5.8991    2.0746    0.4347 H   0  0  0  0  0  0  0  0  0  0  0  0
   -5.0624    2.5451   -1.0515 H   0  0  0  0  0  0  0  0  0  0  0  0
   -5.4081    0.8350   -0.7323 H   0  0  0  0  0  0  0  0  0  0  0  0
   -3.5591    2.6199    0.9239 H   0  0  0  0  0  0  0  0  0  0  0  0
   -2.3384    2.2997   -1.0474 H   0  0  0  0  0  0  0  0  0  0  0  0
   -3.0254    0.7121   -1.3674 H   0  0  0  0  0  0  0  0  0  0  0  0
   -1.0275    1.3380    0.8638 H   0  0  0  0  0  0  0  0  0  0  0  0
   -0.6734    0.5200   -0.6697 H   0  0  0  0  0  0  0  0  0  0  0  0
    0.8069   -0.0744    1.9779 H   0  0  0  0  0  0  0  0  0  0  0  0
    3.2081    0.1476    1.4311 H   0  0  0  0  0  0  0  0  0  0  0  0
    4.9421   -1.9975   -0.9454 H   0  0  0  0  0  0  0  0  0  0  0  0
    5.3340    1.3330    0.6649 H   0  0  0  0  0  0  0  0  0  0  0  0
    6.3471    1.9577   -0.6673 H   0  0  0  0  0  0  0  0  0  0  0  0
    6.7763    0.4079    0.1127 H   0  0  0  0  0  0  0  0  0  0  0  0
    2.7747   -2.8285   -1.6650 H   0  0  0  0  0  0  0  0  0  0  0  0
    0.3751   -3.0544   -1.1070 H   0  0  0  0  0  0  0  0  0  0  0  0
   -3.2636   -1.4517    1.9662 H   0  0  0  0  0  0  0  0  0  0  0  0
   -3.7621   -1.1652    0.2960 H   0  0  0  0  0  0  0  0  0  0  0  0
   -4.8526    0.4405    1.9125 H   0  0  0  0  0  0  0  0  0  0  0  0
   -3.2611    0.9736    2.4288 H   0  0  0  0  0  0  0  0  0  0  0  0
  1  2  1  0
  2  3  1  0
  3  4  1  0
  4  5  1  0
  5  6  1  0
  6  7  2  0
  6  8  1  0
  8  9  2  0
  9 10  1  0
 10 11  2  0
 11 12  1  0
 12 13  1  0
 13 14  1  0
 13 15  2  0
 13 16  2  0
 11 17  1  0
 17 18  2  0
  5 19  1  0
 19 20  1  0
 20  2  1  0
 18  8  1  0
  1 21  1  0
  1 22  1  0
  1 23  1  0
  2 24  1  0
  3 25  1  0
  3 26  1  0
  4 27  1  0
  4 28  1  0
  9 29  1  0
 10 30  1  0
 12 31  1  0
 14 32  1  0
 14 33  1  0
 14 34  1  0
 17 35  1  0
 18 36  1  0
 19 37  1  0
 19 38  1  0
 20 39  1  0
 20 40  1  0
M  END
$$$$
