
     RDKit          3D

 67 69  0  0  0  0  0  0  0  0999 V2000
   -2.0164    3.6775   -2.2014 C   0  0  0  0  0  0  0  0  0  0  0  0
   -2.4317    2.3607   -2.8761 C   0  0  0  0  0  0  0  0  0  0  0  0
   -3.9596    2.2043   -2.8409 C   0  0  0  0  0  0  0  0  0  0  0  0
   -1.9798    2.4130   -4.3479 C   0  0  0  0  0  0  0  0  0  0  0  0
   -1.7762    1.2057   -2.2425 N   0  0  0  0  0  0  0  0  0  0  0  0
   -1.9154    0.8472   -0.9078 C   0  0  0  0  0  0  0  0  0  0  0  0
   -2.5652    1.5069   -0.1008 O   0  0  0  0  0  0  0  0  0  0  0  0
   -1.1798   -0.4766   -0.5375 C   0  0  0  0  0  0  0  0  0  0  0  0
   -1.7407   -1.7194   -1.2368 C   0  0  0  0  0  0  0  0  0  0  0  0
   -0.8932   -2.8244   -1.4467 C   0  0  0  0  0  0  0  0  0  0  0  0
   -1.3683   -3.9779   -2.0728 C   0  0  0  0  0  0  0  0  0  0  0  0
   -2.6933   -4.0384   -2.4834 C   0  0  0  0  0  0  0  0  0  0  0  0
   -3.1488   -5.1451   -3.0841 F   0  0  0  0  0  0  0  0  0  0  0  0
   -3.5541   -2.9700   -2.2735 C   0  0  0  0  0  0  0  0  0  0  0  0
   -3.0822   -1.8137   -1.6490 C   0  0  0  0  0  0  0  0  0  0  0  0
   -1.0510   -0.6845    0.9257 N   0  0  0  0  0  0  0  0  0  0  0  0
    0.1521   -0.5626    1.6193 C   0  0  0  0  0  0  0  0  0  0  0  0
    0.2465   -0.7842    2.8278 O   0  0  0  0  0  0  0  0  0  0  0  0
    1.3842   -0.1479    0.8354 C   0  0  0  0  0  0  0  0  0  0  0  0
    2.6069   -0.0180    1.7402 C   0  0  0  0  0  0  0  0  0  0  0  0
    3.8311    0.4315    0.9686 C   0  0  0  0  0  0  0  0  0  0  0  0
    3.7793    0.7191   -0.2220 O   0  0  0  0  0  0  0  0  0  0  0  0
    4.9484    0.4647    1.7696 N   0  0  0  0  0  0  0  0  0  0  0  0
    6.2461    0.8512    1.4375 C   0  0  0  0  0  0  0  0  0  0  0  0
    6.6186    1.3592    0.2004 C   0  0  0  0  0  0  0  0  0  0  0  0
    7.9496    1.7226   -0.0026 C   0  0  0  0  0  0  0  0  0  0  0  0
    8.8642    1.5736    1.0313 C   0  0  0  0  0  0  0  0  0  0  0  0
    8.4062    1.0606    2.2317 C   0  0  0  0  0  0  0  0  0  0  0  0
    7.1220    0.7018    2.4553 N   0  0  0  0  0  0  0  0  0  0  0  0
   -2.2873   -0.9718    1.6784 C   0  0  0  0  0  0  0  0  0  0  0  0
   -2.3212   -2.3802    2.2930 C   0  0  0  0  0  0  0  0  0  0  0  0
   -3.1366   -2.2153    3.5659 C   0  0  0  0  0  0  0  0  0  0  0  0
   -2.7033   -0.8549    4.0861 C   0  0  0  0  0  0  0  0  0  0  0  0
   -2.5923    0.0063    2.8322 C   0  0  0  0  0  0  0  0  0  0  0  0
   -2.3787    3.7462   -1.1706 H   0  0  0  0  0  0  0  0  0  0  0  0
   -0.9249    3.7762   -2.1722 H   0  0  0  0  0  0  0  0  0  0  0  0
   -2.4184    4.5418   -2.7428 H   0  0  0  0  0  0  0  0  0  0  0  0
   -4.2683    1.2581   -3.3002 H   0  0  0  0  0  0  0  0  0  0  0  0
   -4.4529    3.0185   -3.3837 H   0  0  0  0  0  0  0  0  0  0  0  0
   -4.3482    2.2113   -1.8173 H   0  0  0  0  0  0  0  0  0  0  0  0
   -2.4332    3.2583   -4.8771 H   0  0  0  0  0  0  0  0  0  0  0  0
   -0.8906    2.5121   -4.4238 H   0  0  0  0  0  0  0  0  0  0  0  0
   -2.2600    1.4963   -4.8797 H   0  0  0  0  0  0  0  0  0  0  0  0
   -1.3680    0.5160   -2.8638 H   0  0  0  0  0  0  0  0  0  0  0  0
   -0.1836   -0.3347   -0.9673 H   0  0  0  0  0  0  0  0  0  0  0  0
    0.1435   -2.7951   -1.1150 H   0  0  0  0  0  0  0  0  0  0  0  0
   -0.7161   -4.8292   -2.2380 H   0  0  0  0  0  0  0  0  0  0  0  0
   -4.5895   -3.0448   -2.5915 H   0  0  0  0  0  0  0  0  0  0  0  0
   -3.7809   -0.9954   -1.4807 H   0  0  0  0  0  0  0  0  0  0  0  0
    1.5896   -0.9046    0.0703 H   0  0  0  0  0  0  0  0  0  0  0  0
    1.1848    0.8141    0.3498 H   0  0  0  0  0  0  0  0  0  0  0  0
    2.4156    0.7136    2.5345 H   0  0  0  0  0  0  0  0  0  0  0  0
    2.8265   -0.9829    2.2132 H   0  0  0  0  0  0  0  0  0  0  0  0
    4.8804    0.1560    2.7307 H   0  0  0  0  0  0  0  0  0  0  0  0
    5.9064    1.4950   -0.6055 H   0  0  0  0  0  0  0  0  0  0  0  0
    8.2626    2.1288   -0.9611 H   0  0  0  0  0  0  0  0  0  0  0  0
    9.9043    1.8517    0.9058 H   0  0  0  0  0  0  0  0  0  0  0  0
    9.0767    0.9284    3.0758 H   0  0  0  0  0  0  0  0  0  0  0  0
   -3.1337   -0.8942    0.9863 H   0  0  0  0  0  0  0  0  0  0  0  0
   -2.7738   -3.1086    1.6126 H   0  0  0  0  0  0  0  0  0  0  0  0
   -1.3196   -2.7496    2.5367 H   0  0  0  0  0  0  0  0  0  0  0  0
   -2.9481   -3.0163    4.2866 H   0  0  0  0  0  0  0  0  0  0  0  0
   -4.2075   -2.2080    3.3324 H   0  0  0  0  0  0  0  0  0  0  0  0
   -3.4092   -0.4420    4.8118 H   0  0  0  0  0  0  0  0  0  0  0  0
   -1.7280   -0.9352    4.5784 H   0  0  0  0  0  0  0  0  0  0  0  0
   -1.8574    0.8084    2.9492 H   0  0  0  0  0  0  0  0  0  0  0  0
   -3.5588    0.4893    2.6439 H   0  0  0  0  0  0  0  0  0  0  0  0
  1  2  1  0
  2  3  1  0
  2  4  1  0
  2  5  1  0
  5  6  1  0
  6  7  2  0
  6  8  1  0
  8  9  1  0
  9 10  2  0
 10 11  1  0
 11 12  2  0
 12 13  1  0
 12 14  1  0
 14 15  2  0
  8 16  1  0
 16 17  1  0
 17 18  2  0
 17 19  1  0
 19 20  1  0
 20 21  1  0
 21 22  2  0
 21 23  1  0
 23 24  1  0
 24 25  2  0
 25 26  1  0
 26 27  2  0
 27 28  1  0
 28 29  2  0
 16 30  1  0
 30 31  1  0
 31 32  1  0
 32 33  1  0
 33 34  1  0
 15  9  1  0
 29 24  1  0
 34 30  1  0
  1 35  1  0
  1 36  1  0
  1 37  1  0
  3 38  1  0
  3 39  1  0
  3 40  1  0
  4 41  1  0
  4 42  1  0
  4 43  1  0
  5 44  1  0
  8 45  1  0
 10 46  1  0
 11 47  1  0
 14 48  1  0
 15 49  1  0
 19 50  1  0
 19 51  1  0
 20 52  1  0
 20 53  1  0
 23 54  1  0
 25 55  1  0
 26 56  1  0
 27 57  1  0
 28 58  1  0
 30 59  1  0
 31 60  1  0
 31 61  1  0
 32 62  1  0
 32 63  1  0
 33 64  1  0
 33 65  1  0
 34 66  1  0
 34 67  1  0
M  END
$$$$
