
     RDKit          3D

 40 42  0  0  0  0  0  0  0  0999 V2000
    6.6003    0.6358   -2.7435 N   0  0  0  0  0  0  0  0  0  0  0  0
    5.4725    0.8961   -2.6578 C   0  0  0  0  0  0  0  0  0  0  0  0
    4.0854    1.2034   -2.5413 C   0  0  0  0  0  0  0  0  0  0  0  0
    3.5853    2.2217   -3.4062 C   0  0  0  0  0  0  0  0  0  0  0  0
    3.1654    3.0443   -4.1093 N   0  0  0  0  0  0  0  0  0  0  0  0
    3.2895    0.5626   -1.6497 C   0  0  0  0  0  0  0  0  0  0  0  0
    1.8534    0.8192   -1.5249 C   0  0  0  0  0  0  0  0  0  0  0  0
    1.1412    0.4472   -0.4465 C   0  0  0  0  0  0  0  0  0  0  0  0
   -0.3093    0.5474   -0.4297 C   0  0  0  0  0  0  0  0  0  0  0  0
   -1.0978   -0.1747    0.3968 C   0  0  0  0  0  0  0  0  0  0  0  0
   -2.5012   -0.0919    0.4035 N   0  0  0  0  0  0  0  0  0  0  0  0
   -3.3428   -0.6542    1.4860 C   0  0  0  0  0  0  0  0  0  0  0  0
   -4.6587    0.1290    1.6165 C   0  0  0  0  0  0  0  0  0  0  0  0
   -5.4681    0.1022    0.4336 O   0  0  0  0  0  0  0  0  0  0  0  0
   -4.6970   -0.0391   -0.7665 C   0  0  0  0  0  0  0  0  0  0  0  0
   -3.2849    0.5604   -0.6729 C   0  0  0  0  0  0  0  0  0  0  0  0
   -0.4521   -1.1707    1.3632 C   0  0  0  0  0  0  0  0  0  0  0  0
    1.0362   -1.4542    1.1055 C   0  0  0  0  0  0  0  0  0  0  0  0
    1.7631   -0.1444    0.8002 C   0  0  0  0  0  0  0  0  0  0  0  0
    3.2880   -0.3047    0.7108 C   0  0  0  0  0  0  0  0  0  0  0  0
    3.7753   -0.5384   -0.7160 C   0  0  0  0  0  0  0  0  0  0  0  0
    1.3371    1.2748   -2.3692 H   0  0  0  0  0  0  0  0  0  0  0  0
   -0.7509    1.2309   -1.1481 H   0  0  0  0  0  0  0  0  0  0  0  0
   -2.8245   -0.6048    2.4491 H   0  0  0  0  0  0  0  0  0  0  0  0
   -3.5518   -1.7052    1.2557 H   0  0  0  0  0  0  0  0  0  0  0  0
   -5.2604   -0.2806    2.4341 H   0  0  0  0  0  0  0  0  0  0  0  0
   -4.4544    1.1793    1.8559 H   0  0  0  0  0  0  0  0  0  0  0  0
   -5.2570    0.4428   -1.5743 H   0  0  0  0  0  0  0  0  0  0  0  0
   -4.6413   -1.1086   -1.0018 H   0  0  0  0  0  0  0  0  0  0  0  0
   -2.7976    0.4231   -1.6445 H   0  0  0  0  0  0  0  0  0  0  0  0
   -3.3453    1.6337   -0.4588 H   0  0  0  0  0  0  0  0  0  0  0  0
   -0.5541   -0.7757    2.3821 H   0  0  0  0  0  0  0  0  0  0  0  0
   -0.9877   -2.1270    1.3274 H   0  0  0  0  0  0  0  0  0  0  0  0
    1.4656   -1.9424    1.9884 H   0  0  0  0  0  0  0  0  0  0  0  0
    1.1411   -2.1580    0.2691 H   0  0  0  0  0  0  0  0  0  0  0  0
    1.5749    0.5425    1.6390 H   0  0  0  0  0  0  0  0  0  0  0  0
    3.6338   -1.1147    1.3637 H   0  0  0  0  0  0  0  0  0  0  0  0
    3.7586    0.6134    1.0895 H   0  0  0  0  0  0  0  0  0  0  0  0
    3.4032   -1.5048   -1.0810 H   0  0  0  0  0  0  0  0  0  0  0  0
    4.8670   -0.6157   -0.6939 H   0  0  0  0  0  0  0  0  0  0  0  0
  1  2  3  0
  2  3  1  0
  3  4  1  0
  4  5  3  0
  3  6  2  3
  6  7  1  0
  7  8  2  0
  8  9  1  0
  9 10  2  0
 10 11  1  0
 11 12  1  0
 12 13  1  0
 13 14  1  0
 14 15  1  0
 15 16  1  0
 10 17  1  0
 17 18  1  0
 18 19  1  0
 19 20  1  0
 20 21  1  0
 21  6  1  0
 19  8  1  0
 16 11  1  0
  7 22  1  0
  9 23  1  0
 12 24  1  0
 12 25  1  0
 13 26  1  0
 13 27  1  0
 15 28  1  0
 15 29  1  0
 16 30  1  0
 16 31  1  0
 17 32  1  0
 17 33  1  0
 18 34  1  0
 18 35  1  0
 19 36  1  0
 20 37  1  0
 20 38  1  0
 21 39  1  0
 21 40  1  0
M  END
$$$$
