
     RDKit          3D

 58 62  0  0  0  0  0  0  0  0999 V2000
   -4.3841    1.3764   -3.1270 C   0  0  0  0  0  0  0  0  0  0  0  0
   -5.0709    0.6623   -2.0988 O   0  0  0  0  0  0  0  0  0  0  0  0
   -4.8157    1.1646   -0.8490 C   0  0  0  0  0  0  0  0  0  0  0  0
   -5.0529    2.5111   -0.5519 C   0  0  0  0  0  0  0  0  0  0  0  0
   -4.8289    2.9950    0.7362 C   0  0  0  0  0  0  0  0  0  0  0  0
   -4.3844    2.1320    1.7331 C   0  0  0  0  0  0  0  0  0  0  0  0
   -4.1689    0.7837    1.4439 C   0  0  0  0  0  0  0  0  0  0  0  0
   -4.3824    0.2794    0.1492 C   0  0  0  0  0  0  0  0  0  0  0  0
   -4.1328   -1.1863   -0.1383 C   0  0  0  0  0  0  0  0  0  0  0  0
   -2.7153   -1.5461   -0.0795 N   0  0  0  0  0  0  0  0  0  0  0  0
   -2.1893   -2.0842    1.0889 C   0  0  0  0  0  0  0  0  0  0  0  0
   -2.8606   -2.3059    2.0953 O   0  0  0  0  0  0  0  0  0  0  0  0
   -0.7386   -2.4318    1.1111 C   0  0  0  0  0  0  0  0  0  0  0  0
   -0.2084   -3.0220    2.2686 C   0  0  0  0  0  0  0  0  0  0  0  0
    1.1332   -3.3935    2.3176 C   0  0  0  0  0  0  0  0  0  0  0  0
    1.9470   -3.1871    1.2078 C   0  0  0  0  0  0  0  0  0  0  0  0
    1.4298   -2.5968    0.0500 C   0  0  0  0  0  0  0  0  0  0  0  0
    0.0893   -2.1995    0.0027 C   0  0  0  0  0  0  0  0  0  0  0  0
   -0.5133   -1.5866   -1.1166 N   0  0  0  0  0  0  0  0  0  0  0  0
   -0.0517   -1.1172   -2.3309 C   0  0  0  0  0  0  0  0  0  0  0  0
    1.5950   -0.9253   -2.8348 S   0  0  0  0  0  0  0  0  0  0  0  0
    1.8248    0.8292   -2.4055 C   0  0  0  0  0  0  0  0  0  0  0  0
    1.9602    0.9763   -0.8963 C   0  0  0  0  0  0  0  0  0  0  0  0
    0.9428    1.0987   -0.2068 O   0  0  0  0  0  0  0  0  0  0  0  0
    3.2354    0.9552   -0.3254 N   0  0  0  0  0  0  0  0  0  0  0  0
    4.3940    0.3377   -0.9772 C   0  0  0  0  0  0  0  0  0  0  0  0
    5.7143    0.9247   -0.4878 C   0  0  0  0  0  0  0  0  0  0  0  0
    5.8069    0.8927    1.0328 C   0  0  0  0  0  0  0  0  0  0  0  0
    4.6055    1.6020    1.6447 C   0  0  0  0  0  0  0  0  0  0  0  0
    3.2941    1.0122    1.1374 C   0  0  0  0  0  0  0  0  0  0  0  0
   -1.0572   -0.7112   -3.0737 N   0  0  0  0  0  0  0  0  0  0  0  0
   -2.2001   -0.8443   -2.3351 N   0  0  0  0  0  0  0  0  0  0  0  0
   -1.8701   -1.3172   -1.1531 C   0  0  0  0  0  0  0  0  0  0  0  0
   -4.9612    2.2557   -3.4295 H   0  0  0  0  0  0  0  0  0  0  0  0
   -4.2992    0.7156   -3.9955 H   0  0  0  0  0  0  0  0  0  0  0  0
   -3.3718    1.6696   -2.8247 H   0  0  0  0  0  0  0  0  0  0  0  0
   -5.4281    3.1881   -1.3130 H   0  0  0  0  0  0  0  0  0  0  0  0
   -5.0100    4.0419    0.9632 H   0  0  0  0  0  0  0  0  0  0  0  0
   -4.2112    2.5045    2.7393 H   0  0  0  0  0  0  0  0  0  0  0  0
   -3.8348    0.1222    2.2408 H   0  0  0  0  0  0  0  0  0  0  0  0
   -4.5243   -1.4885   -1.1166 H   0  0  0  0  0  0  0  0  0  0  0  0
   -4.6957   -1.7792    0.5938 H   0  0  0  0  0  0  0  0  0  0  0  0
   -0.8431   -3.2002    3.1354 H   0  0  0  0  0  0  0  0  0  0  0  0
    1.5373   -3.8544    3.2158 H   0  0  0  0  0  0  0  0  0  0  0  0
    2.9901   -3.4947    1.2393 H   0  0  0  0  0  0  0  0  0  0  0  0
    2.1087   -2.4926   -0.7860 H   0  0  0  0  0  0  0  0  0  0  0  0
    0.9626    1.4192   -2.7369 H   0  0  0  0  0  0  0  0  0  0  0  0
    2.6885    1.2447   -2.9286 H   0  0  0  0  0  0  0  0  0  0  0  0
    4.3517   -0.7357   -0.7571 H   0  0  0  0  0  0  0  0  0  0  0  0
    4.3463    0.4435   -2.0614 H   0  0  0  0  0  0  0  0  0  0  0  0
    6.5523    0.3709   -0.9244 H   0  0  0  0  0  0  0  0  0  0  0  0
    5.7988    1.9631   -0.8316 H   0  0  0  0  0  0  0  0  0  0  0  0
    6.7333    1.3768    1.3610 H   0  0  0  0  0  0  0  0  0  0  0  0
    5.8424   -0.1466    1.3810 H   0  0  0  0  0  0  0  0  0  0  0  0
    4.6464    1.5333    2.7370 H   0  0  0  0  0  0  0  0  0  0  0  0
    4.6473    2.6674    1.3863 H   0  0  0  0  0  0  0  0  0  0  0  0
    3.1647   -0.0116    1.5098 H   0  0  0  0  0  0  0  0  0  0  0  0
    2.4622    1.6089    1.5290 H   0  0  0  0  0  0  0  0  0  0  0  0
  1  2  1  0
  2  3  1  0
  3  4  2  0
  4  5  1  0
  5  6  2  0
  6  7  1  0
  7  8  2  0
  8  9  1  0
  9 10  1  0
 10 11  1  0
 11 12  2  0
 11 13  1  0
 13 14  2  0
 14 15  1  0
 15 16  2  0
 16 17  1  0
 17 18  2  0
 18 19  1  0
 19 20  1  0
 20 21  1  0
 21 22  1  0
 22 23  1  0
 23 24  2  0
 23 25  1  0
 25 26  1  0
 26 27  1  0
 27 28  1  0
 28 29  1  0
 29 30  1  0
 20 31  2  0
 31 32  1  0
 32 33  2  0
  8  3  1  0
 33 10  1  0
 18 13  1  0
 33 19  1  0
 30 25  1  0
  1 34  1  0
  1 35  1  0
  1 36  1  0
  4 37  1  0
  5 38  1  0
  6 39  1  0
  7 40  1  0
  9 41  1  0
  9 42  1  0
 14 43  1  0
 15 44  1  0
 16 45  1  0
 17 46  1  0
 22 47  1  0
 22 48  1  0
 26 49  1  0
 26 50  1  0
 27 51  1  0
 27 52  1  0
 28 53  1  0
 28 54  1  0
 29 55  1  0
 29 56  1  0
 30 57  1  0
 30 58  1  0
M  END
$$$$
