
     RDKit          3D

 33 34  0  0  0  0  0  0  0  0999 V2000
    2.2987   -0.4403   -3.8867 C   0  0  0  0  0  0  0  0  0  0  0  0
    2.3544   -1.1269   -2.5315 C   0  0  0  0  0  0  0  0  0  0  0  0
    0.9670   -1.4513   -1.9885 C   0  0  0  0  0  0  0  0  0  0  0  0
   -0.0528   -1.2695   -2.6639 O   0  0  0  0  0  0  0  0  0  0  0  0
    0.8392   -1.9520   -0.5620 C   0  0  0  0  0  0  0  0  0  0  0  0
    1.8476   -2.9724   -0.2558 C   0  0  0  0  0  0  0  0  0  0  0  0
    2.6133   -3.8217   -0.0519 N   0  0  0  0  0  0  0  0  0  0  0  0
    0.9243   -0.7739    0.3466 C   0  0  0  0  0  0  0  0  0  0  0  0
    2.0314   -0.2530    0.8310 N   0  0  0  0  0  0  0  0  0  0  0  0
    1.6992    0.8148    1.6125 N   0  0  0  0  0  0  0  0  0  0  0  0
    0.3903    0.9517    1.5987 C   0  0  0  0  0  0  0  0  0  0  0  0
   -0.1451   -0.0176    0.7851 N   0  0  0  0  0  0  0  0  0  0  0  0
   -1.5438   -0.2364    0.4678 C   0  0  0  0  0  0  0  0  0  0  0  0
   -2.4176    1.0139    0.4592 C   0  0  0  0  0  0  0  0  0  0  0  0
   -2.8155    1.5046    1.8510 C   0  0  0  0  0  0  0  0  0  0  0  0
   -1.6966    1.5162    2.8922 C   0  0  0  0  0  0  0  0  0  0  0  0
   -0.3622    2.0029    2.3419 C   0  0  0  0  0  0  0  0  0  0  0  0
    3.3087   -0.2010   -4.2327 H   0  0  0  0  0  0  0  0  0  0  0  0
    1.7308    0.4951   -3.8312 H   0  0  0  0  0  0  0  0  0  0  0  0
    1.8228   -1.0826   -4.6350 H   0  0  0  0  0  0  0  0  0  0  0  0
    2.8674   -0.4686   -1.8232 H   0  0  0  0  0  0  0  0  0  0  0  0
    2.9232   -2.0574   -2.6248 H   0  0  0  0  0  0  0  0  0  0  0  0
   -0.1411   -2.4343   -0.4684 H   0  0  0  0  0  0  0  0  0  0  0  0
   -1.5812   -0.6703   -0.5352 H   0  0  0  0  0  0  0  0  0  0  0  0
   -1.9216   -0.9876    1.1707 H   0  0  0  0  0  0  0  0  0  0  0  0
   -3.3402    0.7988   -0.0945 H   0  0  0  0  0  0  0  0  0  0  0  0
   -1.9144    1.8193   -0.0901 H   0  0  0  0  0  0  0  0  0  0  0  0
   -3.2190    2.5186    1.7473 H   0  0  0  0  0  0  0  0  0  0  0  0
   -3.6361    0.8856    2.2341 H   0  0  0  0  0  0  0  0  0  0  0  0
   -1.5871    0.5149    3.3282 H   0  0  0  0  0  0  0  0  0  0  0  0
   -2.0070    2.1719    3.7146 H   0  0  0  0  0  0  0  0  0  0  0  0
    0.2594    2.3231    3.1882 H   0  0  0  0  0  0  0  0  0  0  0  0
   -0.4967    2.8857    1.7063 H   0  0  0  0  0  0  0  0  0  0  0  0
  1  2  1  0
  2  3  1  0
  3  4  2  0
  3  5  1  0
  5  6  1  0
  6  7  3  0
  5  8  1  0
  8  9  2  0
  9 10  1  0
 10 11  2  0
 11 12  1  0
 12 13  1  0
 13 14  1  0
 14 15  1  0
 15 16  1  0
 16 17  1  0
 12  8  1  0
 17 11  1  0
  1 18  1  0
  1 19  1  0
  1 20  1  0
  2 21  1  0
  2 22  1  0
  5 23  1  0
 13 24  1  0
 13 25  1  0
 14 26  1  0
 14 27  1  0
 15 28  1  0
 15 29  1  0
 16 30  1  0
 16 31  1  0
 17 32  1  0
 17 33  1  0
M  END
$$$$
