
     RDKit          3D

 39 41  0  0  0  0  0  0  0  0999 V2000
   -5.1743    1.8984    0.8051 O   0  0  0  0  0  0  0  0  0  0  0  0
   -4.2035    1.3519    0.3161 C   0  0  0  0  0  0  0  0  0  0  0  0
   -3.0396    2.0135    0.1387 O   0  0  0  0  0  0  0  0  0  0  0  0
   -4.1426   -0.0100   -0.2581 C   0  0  0  0  0  0  0  0  0  0  0  0
   -5.1769   -0.3540   -1.0862 N   0  0  0  0  0  0  0  0  0  0  0  0
   -5.0849   -1.5744   -1.6610 C   0  0  0  0  0  0  0  0  0  0  0  0
   -4.0077   -2.4187   -1.4450 C   0  0  0  0  0  0  0  0  0  0  0  0
   -2.9768   -2.0886   -0.6335 N   0  0  0  0  0  0  0  0  0  0  0  0
   -3.0716   -0.8616   -0.0298 C   0  0  0  0  0  0  0  0  0  0  0  0
   -2.0317   -0.5391    0.9813 C   0  0  0  0  0  0  0  0  0  0  0  0
   -2.4042   -0.1090    2.0728 O   0  0  0  0  0  0  0  0  0  0  0  0
   -0.6875   -0.7744    0.6794 N   0  0  0  0  0  0  0  0  0  0  0  0
    0.3143   -0.4416    1.6989 C   0  0  0  0  0  0  0  0  0  0  0  0
    0.9164    0.9537    1.4341 C   0  0  0  0  0  0  0  0  0  0  0  0
    1.4803    1.0233    0.0561 N   0  0  0  0  0  0  0  0  0  0  0  0
    2.8272    0.6761   -0.0830 C   0  0  0  0  0  0  0  0  0  0  0  0
    3.3003   -0.2329   -1.0414 C   0  0  0  0  0  0  0  0  0  0  0  0
    4.6614   -0.5478   -1.1536 C   0  0  0  0  0  0  0  0  0  0  0  0
    5.5912    0.0550   -0.3153 C   0  0  0  0  0  0  0  0  0  0  0  0
    5.1593    0.9787    0.6271 C   0  0  0  0  0  0  0  0  0  0  0  0
    3.7978    1.2851    0.7330 C   0  0  0  0  0  0  0  0  0  0  0  0
    0.4932    0.6439   -0.9822 C   0  0  0  0  0  0  0  0  0  0  0  0
   -0.1511   -0.7327   -0.6903 C   0  0  0  0  0  0  0  0  0  0  0  0
   -3.2093    2.8867    0.5551 H   0  0  0  0  0  0  0  0  0  0  0  0
   -5.9071   -1.8578   -2.3098 H   0  0  0  0  0  0  0  0  0  0  0  0
   -3.9493   -3.3937   -1.9173 H   0  0  0  0  0  0  0  0  0  0  0  0
   -0.1257   -0.4772    2.7007 H   0  0  0  0  0  0  0  0  0  0  0  0
    1.0952   -1.2099    1.6522 H   0  0  0  0  0  0  0  0  0  0  0  0
    1.6483    1.1891    2.2129 H   0  0  0  0  0  0  0  0  0  0  0  0
    0.1263    1.7114    1.5117 H   0  0  0  0  0  0  0  0  0  0  0  0
    2.6233   -0.7376   -1.7217 H   0  0  0  0  0  0  0  0  0  0  0  0
    4.9897   -1.2649   -1.9014 H   0  0  0  0  0  0  0  0  0  0  0  0
    6.6469   -0.1852   -0.4039 H   0  0  0  0  0  0  0  0  0  0  0  0
    5.8769    1.4743    1.2752 H   0  0  0  0  0  0  0  0  0  0  0  0
    3.5040    2.0463    1.4515 H   0  0  0  0  0  0  0  0  0  0  0  0
   -0.2973    1.4056   -0.9749 H   0  0  0  0  0  0  0  0  0  0  0  0
    0.9226    0.6738   -1.9899 H   0  0  0  0  0  0  0  0  0  0  0  0
    0.5907   -1.5346   -0.7667 H   0  0  0  0  0  0  0  0  0  0  0  0
   -0.9241   -0.9208   -1.4372 H   0  0  0  0  0  0  0  0  0  0  0  0
  1  2  2  0
  2  3  1  0
  2  4  1  0
  4  5  2  0
  5  6  1  0
  6  7  2  0
  7  8  1  0
  8  9  2  0
  9 10  1  0
 10 11  2  0
 10 12  1  0
 12 13  1  0
 13 14  1  0
 14 15  1  0
 15 16  1  0
 16 17  2  0
 17 18  1  0
 18 19  2  0
 19 20  1  0
 20 21  2  0
 15 22  1  0
 22 23  1  0
  9  4  1  0
 23 12  1  0
 21 16  1  0
  3 24  1  0
  6 25  1  0
  7 26  1  0
 13 27  1  0
 13 28  1  0
 14 29  1  0
 14 30  1  0
 17 31  1  0
 18 32  1  0
 19 33  1  0
 20 34  1  0
 21 35  1  0
 22 36  1  0
 22 37  1  0
 23 38  1  0
 23 39  1  0
M  END
$$$$
