
     RDKit          3D

 50 53  0  0  0  0  0  0  0  0999 V2000
   -2.5780    1.2593    1.6182 O   0  0  0  0  0  0  0  0  0  0  0  0
   -2.5125    0.8647    0.4522 C   0  0  0  0  0  0  0  0  0  0  0  0
   -3.4658   -0.2222   -0.0685 C   0  0  0  0  0  0  0  0  0  0  0  0
   -2.6945   -1.5090   -0.4332 C   0  0  0  0  0  0  0  0  0  0  0  0
   -2.8427   -2.6026    0.6198 C   0  0  0  0  0  0  0  0  0  0  0  0
   -4.3034   -2.9992    0.8312 C   0  0  0  0  0  0  0  0  0  0  0  0
   -5.2778   -1.8336    0.6626 C   0  0  0  0  0  0  0  0  0  0  0  0
   -4.6051   -0.4945    0.9360 C   0  0  0  0  0  0  0  0  0  0  0  0
   -1.5494    1.3711   -0.4281 N   0  0  0  0  0  0  0  0  0  0  0  0
   -1.7075    1.3507   -1.8836 C   0  0  0  0  0  0  0  0  0  0  0  0
   -0.3668    1.3516   -2.6101 C   0  0  0  0  0  0  0  0  0  0  0  0
    0.5372    2.4830   -2.1271 C   0  0  0  0  0  0  0  0  0  0  0  0
    0.6984    2.4871   -0.6024 C   0  0  0  0  0  0  0  0  0  0  0  0
    1.6391    1.4220   -0.1438 C   0  0  0  0  0  0  0  0  0  0  0  0
    2.9195    1.5221    0.1326 N   0  0  0  0  0  0  0  0  0  0  0  0
    3.2558    0.2290    0.4776 C   0  0  0  0  0  0  0  0  0  0  0  0
    4.6105   -0.1438    0.8744 C   0  0  0  0  0  0  0  0  0  0  0  0
    5.6276    0.8252    0.9114 C   0  0  0  0  0  0  0  0  0  0  0  0
    6.9276    0.4783    1.2892 C   0  0  0  0  0  0  0  0  0  0  0  0
    7.2136   -0.8375    1.6310 C   0  0  0  0  0  0  0  0  0  0  0  0
    8.4595   -1.1697    1.9925 F   0  0  0  0  0  0  0  0  0  0  0  0
    6.2253   -1.8136    1.6029 C   0  0  0  0  0  0  0  0  0  0  0  0
    4.9246   -1.4680    1.2252 C   0  0  0  0  0  0  0  0  0  0  0  0
    2.2296   -0.6346    0.4042 N   0  0  0  0  0  0  0  0  0  0  0  0
    1.1583    0.1543   -0.0029 O   0  0  0  0  0  0  0  0  0  0  0  0
   -0.6601    2.4111    0.1033 C   0  0  0  0  0  0  0  0  0  0  0  0
   -3.9429    0.1730   -0.9738 H   0  0  0  0  0  0  0  0  0  0  0  0
   -1.6276   -1.3130   -0.5885 H   0  0  0  0  0  0  0  0  0  0  0  0
   -3.0798   -1.8915   -1.3874 H   0  0  0  0  0  0  0  0  0  0  0  0
   -2.4183   -2.2486    1.5678 H   0  0  0  0  0  0  0  0  0  0  0  0
   -2.2623   -3.4863    0.3310 H   0  0  0  0  0  0  0  0  0  0  0  0
   -4.5796   -3.7942    0.1280 H   0  0  0  0  0  0  0  0  0  0  0  0
   -4.4084   -3.4296    1.8345 H   0  0  0  0  0  0  0  0  0  0  0  0
   -6.1363   -1.9718    1.3296 H   0  0  0  0  0  0  0  0  0  0  0  0
   -5.6748   -1.8353   -0.3604 H   0  0  0  0  0  0  0  0  0  0  0  0
   -4.2376   -0.4908    1.9698 H   0  0  0  0  0  0  0  0  0  0  0  0
   -5.3439    0.3138    0.8719 H   0  0  0  0  0  0  0  0  0  0  0  0
   -2.2790    0.4822   -2.2141 H   0  0  0  0  0  0  0  0  0  0  0  0
   -2.2903    2.2394   -2.1549 H   0  0  0  0  0  0  0  0  0  0  0  0
    0.1329    0.3880   -2.4561 H   0  0  0  0  0  0  0  0  0  0  0  0
   -0.5340    1.4496   -3.6888 H   0  0  0  0  0  0  0  0  0  0  0  0
    0.0945    3.4385   -2.4374 H   0  0  0  0  0  0  0  0  0  0  0  0
    1.5127    2.4120   -2.6234 H   0  0  0  0  0  0  0  0  0  0  0  0
    1.1615    3.4422   -0.3187 H   0  0  0  0  0  0  0  0  0  0  0  0
    5.4118    1.8588    0.6460 H   0  0  0  0  0  0  0  0  0  0  0  0
    7.7142    1.2255    1.3187 H   0  0  0  0  0  0  0  0  0  0  0  0
    6.4700   -2.8355    1.8749 H   0  0  0  0  0  0  0  0  0  0  0  0
    4.1586   -2.2414    1.2084 H   0  0  0  0  0  0  0  0  0  0  0  0
   -0.5117    2.2707    1.1808 H   0  0  0  0  0  0  0  0  0  0  0  0
   -1.1928    3.3629   -0.0225 H   0  0  0  0  0  0  0  0  0  0  0  0
  1  2  2  0
  2  3  1  0
  3  4  1  0
  4  5  1  0
  5  6  1  0
  6  7  1  0
  7  8  1  0
  2  9  1  0
  9 10  1  0
 10 11  1  0
 11 12  1  0
 12 13  1  0
 13 14  1  0
 14 15  2  0
 15 16  1  0
 16 17  1  0
 17 18  2  0
 18 19  1  0
 19 20  2  0
 20 21  1  0
 20 22  1  0
 22 23  2  0
 16 24  2  0
 24 25  1  0
 13 26  1  0
  8  3  1  0
 26  9  1  0
 25 14  1  0
 23 17  1  0
  3 27  1  0
  4 28  1  0
  4 29  1  0
  5 30  1  0
  5 31  1  0
  6 32  1  0
  6 33  1  0
  7 34  1  0
  7 35  1  0
  8 36  1  0
  8 37  1  0
 10 38  1  0
 10 39  1  0
 11 40  1  0
 11 41  1  0
 12 42  1  0
 12 43  1  0
 13 44  1  0
 18 45  1  0
 19 46  1  0
 22 47  1  0
 23 48  1  0
 26 49  1  0
 26 50  1  0
M  END
$$$$
