
     RDKit          3D

 44 45  0  0  0  0  0  0  0  0999 V2000
   -1.9809   -0.1929   -3.2643 C   0  0  0  0  0  0  0  0  0  0  0  0
   -1.4588    0.1132   -1.9757 O   0  0  0  0  0  0  0  0  0  0  0  0
   -2.2696   -0.0990   -0.8900 C   0  0  0  0  0  0  0  0  0  0  0  0
   -3.5936   -0.5492   -0.9686 C   0  0  0  0  0  0  0  0  0  0  0  0
   -4.3587   -0.7351    0.1918 C   0  0  0  0  0  0  0  0  0  0  0  0
   -5.6601   -1.1729    0.2007 O   0  0  0  0  0  0  0  0  0  0  0  0
   -6.2831   -1.4572   -1.0435 C   0  0  0  0  0  0  0  0  0  0  0  0
   -3.7962   -0.4659    1.4548 C   0  0  0  0  0  0  0  0  0  0  0  0
   -4.6152   -0.6754    2.5355 O   0  0  0  0  0  0  0  0  0  0  0  0
   -4.1019   -0.3860    3.8278 C   0  0  0  0  0  0  0  0  0  0  0  0
   -2.4772   -0.0169    1.5385 C   0  0  0  0  0  0  0  0  0  0  0  0
   -1.7179    0.1656    0.3738 C   0  0  0  0  0  0  0  0  0  0  0  0
   -0.3170    0.6399    0.4896 C   0  0  0  0  0  0  0  0  0  0  0  0
    0.2078    0.9472    1.6384 N   0  0  0  0  0  0  0  0  0  0  0  0
    1.5191    1.3414    1.6720 N   0  0  0  0  0  0  0  0  0  0  0  0
    2.5329    0.7095    0.9539 C   0  0  0  0  0  0  0  0  0  0  0  0
    2.3829   -0.1734    0.1130 O   0  0  0  0  0  0  0  0  0  0  0  0
    3.9138    1.2173    1.3133 C   0  0  0  0  0  0  0  0  0  0  0  0
    4.9168    0.7245    0.3415 N   0  0  0  0  0  4  0  0  0  0  0  0
    5.2636    1.4941   -0.7168 C   0  0  0  0  0  0  0  0  0  0  0  0
    6.1984    1.0455   -1.6429 C   0  0  0  0  0  0  0  0  0  0  0  0
    6.7688   -0.2101   -1.4823 C   0  0  0  0  0  0  0  0  0  0  0  0
    6.3884   -0.9977   -0.4041 C   0  0  0  0  0  0  0  0  0  0  0  0
    5.4506   -0.5109    0.4990 C   0  0  0  0  0  0  0  0  0  0  0  0
   -2.8356    0.4476   -3.5046 H   0  0  0  0  0  0  0  0  0  0  0  0
   -1.1957    0.0114   -3.9986 H   0  0  0  0  0  0  0  0  0  0  0  0
   -2.2421   -1.2533   -3.3431 H   0  0  0  0  0  0  0  0  0  0  0  0
   -4.0372   -0.7555   -1.9339 H   0  0  0  0  0  0  0  0  0  0  0  0
   -6.3435   -0.5602   -1.6684 H   0  0  0  0  0  0  0  0  0  0  0  0
   -7.3055   -1.7886   -0.8380 H   0  0  0  0  0  0  0  0  0  0  0  0
   -5.7684   -2.2704   -1.5655 H   0  0  0  0  0  0  0  0  0  0  0  0
   -4.8914   -0.5949    4.5561 H   0  0  0  0  0  0  0  0  0  0  0  0
   -3.2499   -1.0308    4.0668 H   0  0  0  0  0  0  0  0  0  0  0  0
   -3.8360    0.6722    3.9196 H   0  0  0  0  0  0  0  0  0  0  0  0
   -2.0204    0.1943    2.4991 H   0  0  0  0  0  0  0  0  0  0  0  0
    0.2485    0.7482   -0.4511 H   0  0  0  0  0  0  0  0  0  0  0  0
    1.7446    1.7989    2.5535 H   0  0  0  0  0  0  0  0  0  0  0  0
    4.1997    0.8581    2.3072 H   0  0  0  0  0  0  0  0  0  0  0  0
    3.9370    2.3118    1.3078 H   0  0  0  0  0  0  0  0  0  0  0  0
    4.7866    2.4648   -0.8187 H   0  0  0  0  0  0  0  0  0  0  0  0
    6.4750    1.6678   -2.4914 H   0  0  0  0  0  0  0  0  0  0  0  0
    7.4976   -0.5796   -2.2026 H   0  0  0  0  0  0  0  0  0  0  0  0
    6.8118   -1.9914   -0.2744 H   0  0  0  0  0  0  0  0  0  0  0  0
    5.1118   -1.1059    1.3426 H   0  0  0  0  0  0  0  0  0  0  0  0
  1  2  1  0
  2  3  1  0
  3  4  2  0
  4  5  1  0
  5  6  1  0
  6  7  1  0
  5  8  2  0
  8  9  1  0
  9 10  1  0
  8 11  1  0
 11 12  2  0
 12 13  1  0
 13 14  2  3
 14 15  1  0
 15 16  1  0
 16 17  2  0
 16 18  1  0
 18 19  1  0
 19 20  2  0
 20 21  1  0
 21 22  2  0
 22 23  1  0
 23 24  2  0
 12  3  1  0
 24 19  1  0
  1 25  1  0
  1 26  1  0
  1 27  1  0
  4 28  1  0
  7 29  1  0
  7 30  1  0
  7 31  1  0
 10 32  1  0
 10 33  1  0
 10 34  1  0
 11 35  1  0
 13 36  1  0
 15 37  1  0
 18 38  1  0
 18 39  1  0
 20 40  1  0
 21 41  1  0
 22 42  1  0
 23 43  1  0
 24 44  1  0
M  CHG  1  19   1
M  END
$$$$
