
     RDKit          3D

 37 38  0  0  0  0  0  0  0  0999 V2000
   -3.0856    2.8951   -0.2096 C   0  0  0  0  0  0  0  0  0  0  0  0
   -2.1337    1.9394   -0.6572 O   0  0  0  0  0  0  0  0  0  0  0  0
   -2.2702    0.6501   -0.2097 C   0  0  0  0  0  0  0  0  0  0  0  0
   -3.3081    0.2050    0.6220 C   0  0  0  0  0  0  0  0  0  0  0  0
   -3.4008   -1.1355    1.0138 C   0  0  0  0  0  0  0  0  0  0  0  0
   -4.3787   -1.5365    1.9347 N   0  0  0  0  0  0  0  0  0  0  0  0
   -2.3803   -2.0121    0.6518 C   0  0  0  0  0  0  0  0  0  0  0  0
   -1.3426   -1.5862   -0.1779 C   0  0  0  0  0  0  0  0  0  0  0  0
   -1.2814   -0.2578   -0.6294 C   0  0  0  0  0  0  0  0  0  0  0  0
   -0.1291    0.1584   -1.5230 C   0  0  0  0  0  0  0  0  0  0  0  0
    1.1654    0.4056   -0.7731 C   0  0  0  0  0  0  0  0  0  0  0  0
    1.3355    1.6263   -0.1002 C   0  0  0  0  0  0  0  0  0  0  0  0
    2.5041    1.8922    0.6138 C   0  0  0  0  0  0  0  0  0  0  0  0
    3.5069    0.9301    0.7112 C   0  0  0  0  0  0  0  0  0  0  0  0
    4.7235    1.2428    1.3342 N   0  0  0  0  0  0  0  0  0  0  0  0
    3.3682   -0.2634   -0.0066 C   0  0  0  0  0  0  0  0  0  0  0  0
    2.2000   -0.5461   -0.7296 C   0  0  0  0  0  0  0  0  0  0  0  0
    1.9813   -1.7069   -1.4268 O   0  0  0  0  0  0  0  0  0  0  0  0
    3.0169   -2.6802   -1.4249 C   0  0  0  0  0  0  0  0  0  0  0  0
   -4.0924    2.6428   -0.5581 H   0  0  0  0  0  0  0  0  0  0  0  0
   -3.0564    3.0024    0.8797 H   0  0  0  0  0  0  0  0  0  0  0  0
   -2.8169    3.8624   -0.6450 H   0  0  0  0  0  0  0  0  0  0  0  0
   -4.0668    0.8908    0.9813 H   0  0  0  0  0  0  0  0  0  0  0  0
   -4.5623   -2.5350    1.9225 H   0  0  0  0  0  0  0  0  0  0  0  0
   -5.2315   -0.9882    1.8920 H   0  0  0  0  0  0  0  0  0  0  0  0
   -2.3818   -3.0376    1.0100 H   0  0  0  0  0  0  0  0  0  0  0  0
   -0.5659   -2.2933   -0.4617 H   0  0  0  0  0  0  0  0  0  0  0  0
   -0.3833    1.0595   -2.0961 H   0  0  0  0  0  0  0  0  0  0  0  0
    0.0069   -0.6056   -2.2994 H   0  0  0  0  0  0  0  0  0  0  0  0
    0.5535    2.3819   -0.1378 H   0  0  0  0  0  0  0  0  0  0  0  0
    2.6177    2.8575    1.0988 H   0  0  0  0  0  0  0  0  0  0  0  0
    5.2422    0.4291    1.6485 H   0  0  0  0  0  0  0  0  0  0  0  0
    4.6354    1.9455    2.0619 H   0  0  0  0  0  0  0  0  0  0  0  0
    4.1930   -0.9664    0.0163 H   0  0  0  0  0  0  0  0  0  0  0  0
    3.2129   -3.0467   -0.4119 H   0  0  0  0  0  0  0  0  0  0  0  0
    2.6768   -3.5300   -2.0245 H   0  0  0  0  0  0  0  0  0  0  0  0
    3.9277   -2.2893   -1.8902 H   0  0  0  0  0  0  0  0  0  0  0  0
  1  2  1  0
  2  3  1  0
  3  4  2  0
  4  5  1  0
  5  6  1  0
  5  7  2  0
  7  8  1  0
  8  9  2  0
  9 10  1  0
 10 11  1  0
 11 12  2  0
 12 13  1  0
 13 14  2  0
 14 15  1  0
 14 16  1  0
 16 17  2  0
 17 18  1  0
 18 19  1  0
  9  3  1  0
 17 11  1  0
  1 20  1  0
  1 21  1  0
  1 22  1  0
  4 23  1  0
  6 24  1  0
  6 25  1  0
  7 26  1  0
  8 27  1  0
 10 28  1  0
 10 29  1  0
 12 30  1  0
 13 31  1  0
 15 32  1  0
 15 33  1  0
 16 34  1  0
 19 35  1  0
 19 36  1  0
 19 37  1  0
M  END
$$$$
