
     RDKit          3D

 46 47  0  0  0  0  0  0  0  0999 V2000
    8.7880    0.9009   -0.0386 O   0  0  0  0  0  0  0  0  0  0  0  0
    7.7146    0.9665   -0.6154 C   0  0  0  0  0  0  0  0  0  0  0  0
    7.4689    1.9475   -1.5059 O   0  0  0  0  0  0  0  0  0  0  0  0
    6.5601    0.0272   -0.4523 C   0  0  0  0  0  0  0  0  0  0  0  0
    5.3763    0.7362    0.1879 C   0  0  0  0  0  0  0  0  0  0  0  0
    4.2146   -0.2107    0.4255 C   0  0  0  0  0  0  0  0  0  0  0  0
    4.2708   -1.3965    0.1220 O   0  0  0  0  0  0  0  0  0  0  0  0
    3.1366    0.4442    1.0006 N   0  0  0  0  0  0  0  0  0  0  0  0
    1.8995   -0.1129    1.3851 C   0  0  0  0  0  0  0  0  0  0  0  0
    0.9345    0.7684    1.8961 C   0  0  0  0  0  0  0  0  0  0  0  0
   -0.3193    0.3012    2.3004 C   0  0  0  0  0  0  0  0  0  0  0  0
   -0.6121   -1.0586    2.1906 C   0  0  0  0  0  0  0  0  0  0  0  0
   -2.1959   -1.6743    2.7059 S   0  0  0  0  0  6  0  0  0  0  0  0
   -1.9900   -2.9675    3.3177 O   0  0  0  0  0  0  0  0  0  0  0  0
   -2.8976   -0.6083    3.3853 O   0  0  0  0  0  0  0  0  0  0  0  0
   -2.9697   -1.9548    1.2458 N   0  0  0  0  0  0  0  0  0  0  0  0
   -3.1592   -0.8521    0.2985 C   0  0  0  0  0  0  0  0  0  0  0  0
   -4.4189   -1.1058   -0.5312 C   0  0  0  0  0  0  0  0  0  0  0  0
   -4.6508   -0.0105   -1.5413 C   0  0  0  0  0  0  0  0  0  0  0  0
   -4.1559   -0.1284   -2.8471 C   0  0  0  0  0  0  0  0  0  0  0  0
   -4.3567    0.8964   -3.7734 C   0  0  0  0  0  0  0  0  0  0  0  0
   -5.0492    2.0477   -3.4028 C   0  0  0  0  0  0  0  0  0  0  0  0
   -5.5397    2.1769   -2.1052 C   0  0  0  0  0  0  0  0  0  0  0  0
   -5.3412    1.1534   -1.1772 C   0  0  0  0  0  0  0  0  0  0  0  0
    0.3433   -1.9516    1.7027 C   0  0  0  0  0  0  0  0  0  0  0  0
    1.5940   -1.4743    1.2959 C   0  0  0  0  0  0  0  0  0  0  0  0
    8.3110    2.4506   -1.5394 H   0  0  0  0  0  0  0  0  0  0  0  0
    6.8913   -0.8130    0.1697 H   0  0  0  0  0  0  0  0  0  0  0  0
    6.3029   -0.3885   -1.4332 H   0  0  0  0  0  0  0  0  0  0  0  0
    5.6748    1.1702    1.1507 H   0  0  0  0  0  0  0  0  0  0  0  0
    5.0291    1.5544   -0.4554 H   0  0  0  0  0  0  0  0  0  0  0  0
    3.2379    1.4412    1.1485 H   0  0  0  0  0  0  0  0  0  0  0  0
    1.1438    1.8319    1.9882 H   0  0  0  0  0  0  0  0  0  0  0  0
   -1.0529    0.9997    2.6982 H   0  0  0  0  0  0  0  0  0  0  0  0
   -2.8469   -2.9003    0.8870 H   0  0  0  0  0  0  0  0  0  0  0  0
   -2.2823   -0.7932   -0.3559 H   0  0  0  0  0  0  0  0  0  0  0  0
   -3.2523    0.1022    0.8275 H   0  0  0  0  0  0  0  0  0  0  0  0
   -4.3434   -2.0726   -1.0465 H   0  0  0  0  0  0  0  0  0  0  0  0
   -5.2952   -1.1911    0.1252 H   0  0  0  0  0  0  0  0  0  0  0  0
   -3.6138   -1.0201   -3.1537 H   0  0  0  0  0  0  0  0  0  0  0  0
   -3.9742    0.7959   -4.7858 H   0  0  0  0  0  0  0  0  0  0  0  0
   -5.2073    2.8440   -4.1256 H   0  0  0  0  0  0  0  0  0  0  0  0
   -6.0807    3.0744   -1.8160 H   0  0  0  0  0  0  0  0  0  0  0  0
   -5.7314    1.2689   -0.1681 H   0  0  0  0  0  0  0  0  0  0  0  0
    0.1307   -3.0169    1.6412 H   0  0  0  0  0  0  0  0  0  0  0  0
    2.3138   -2.1980    0.9243 H   0  0  0  0  0  0  0  0  0  0  0  0
  1  2  2  0
  2  3  1  0
  2  4  1  0
  4  5  1  0
  5  6  1  0
  6  7  2  0
  6  8  1  0
  8  9  1  0
  9 10  2  0
 10 11  1  0
 11 12  2  0
 12 13  1  0
 13 14  2  0
 13 15  2  0
 13 16  1  0
 16 17  1  0
 17 18  1  0
 18 19  1  0
 19 20  2  0
 20 21  1  0
 21 22  2  0
 22 23  1  0
 23 24  2  0
 12 25  1  0
 25 26  2  0
 26  9  1  0
 24 19  1  0
  3 27  1  0
  4 28  1  0
  4 29  1  0
  5 30  1  0
  5 31  1  0
  8 32  1  0
 10 33  1  0
 11 34  1  0
 16 35  1  0
 17 36  1  0
 17 37  1  0
 18 38  1  0
 18 39  1  0
 20 40  1  0
 21 41  1  0
 22 42  1  0
 23 43  1  0
 24 44  1  0
 25 45  1  0
 26 46  1  0
M  END
$$$$
