
     RDKit          3D

 52 56  0  0  0  0  0  0  0  0999 V2000
    0.2125    2.1939   -2.4820 O   0  0  0  0  0  0  0  0  0  0  0  0
    0.1581    1.5161   -1.4631 C   0  0  0  0  0  0  0  0  0  0  0  0
    1.4173    1.2501   -0.7492 C   0  0  0  0  0  0  0  0  0  0  0  0
    2.1274    0.1106   -1.1171 C   0  0  0  0  0  0  0  0  0  0  0  0
    3.2975   -0.1676   -0.4336 C   0  0  0  0  0  0  0  0  0  0  0  0
    4.1201   -1.3491   -0.7246 C   0  0  0  0  0  0  0  0  0  0  0  0
    4.3146   -2.3116    0.2904 C   0  0  0  0  0  0  0  0  0  0  0  0
    5.0820   -3.4583    0.0679 C   0  0  0  0  0  0  0  0  0  0  0  0
    5.6827   -3.6624   -1.1771 C   0  0  0  0  0  0  0  0  0  0  0  0
    5.5198   -2.7172   -2.1937 C   0  0  0  0  0  0  0  0  0  0  0  0
    4.7439   -1.5718   -1.9713 C   0  0  0  0  0  0  0  0  0  0  0  0
    4.6210   -0.4464   -3.2845 Cl  0  0  0  0  0  0  0  0  0  0  0  0
    3.7417    0.6117    0.5839 N   0  0  0  0  0  0  0  0  0  0  0  0
    3.0675    1.7281    0.9076 C   0  0  0  0  0  0  0  0  0  0  0  0
    3.5623    2.5298    1.9294 C   0  0  0  0  0  0  0  0  0  0  0  0
    2.9151    3.7022    2.3304 C   0  0  0  0  0  0  0  0  0  0  0  0
    1.7438    4.0856    1.6913 C   0  0  0  0  0  0  0  0  0  0  0  0
    0.8550    5.6639    2.2253 Br  0  0  0  0  0  0  0  0  0  0  0  0
    1.2217    3.3051    0.6612 C   0  0  0  0  0  0  0  0  0  0  0  0
    1.8778    2.1144    0.2626 C   0  0  0  0  0  0  0  0  0  0  0  0
   -1.0105    0.9759   -0.9470 N   0  0  0  0  0  0  0  0  0  0  0  0
   -2.2563    1.1747   -1.6953 C   0  0  0  0  0  0  0  0  0  0  0  0
   -3.3516    0.1636   -1.3148 C   0  0  0  0  0  0  0  0  0  0  0  0
   -3.6241    0.2176    0.1335 N   0  0  0  0  0  0  0  0  0  0  0  0
   -4.6531   -0.6211    0.5730 C   0  0  0  0  0  0  0  0  0  0  0  0
   -5.1545   -0.5025    1.8758 C   0  0  0  0  0  0  0  0  0  0  0  0
   -6.1937   -1.3314    2.3057 C   0  0  0  0  0  0  0  0  0  0  0  0
   -6.7231   -2.2662    1.4242 C   0  0  0  0  0  0  0  0  0  0  0  0
   -6.1917   -2.3194    0.1465 C   0  0  0  0  0  0  0  0  0  0  0  0
   -5.1859   -1.5227   -0.2883 N   0  0  0  0  0  0  0  0  0  0  0  0
   -2.4554    0.3708    1.0202 C   0  0  0  0  0  0  0  0  0  0  0  0
   -1.1155    0.1714    0.2782 C   0  0  0  0  0  0  0  0  0  0  0  0
    1.7706   -0.5332   -1.9134 H   0  0  0  0  0  0  0  0  0  0  0  0
    3.8663   -2.1602    1.2760 H   0  0  0  0  0  0  0  0  0  0  0  0
    5.2159   -4.1848    0.8711 H   0  0  0  0  0  0  0  0  0  0  0  0
    6.2886   -4.5488   -1.3513 H   0  0  0  0  0  0  0  0  0  0  0  0
    6.0103   -2.8731   -3.1573 H   0  0  0  0  0  0  0  0  0  0  0  0
    4.4838    2.2345    2.4295 H   0  0  0  0  0  0  0  0  0  0  0  0
    3.3382    4.3007    3.1361 H   0  0  0  0  0  0  0  0  0  0  0  0
    0.3081    3.6222    0.1604 H   0  0  0  0  0  0  0  0  0  0  0  0
   -2.5942    2.1955   -1.4757 H   0  0  0  0  0  0  0  0  0  0  0  0
   -2.0485    1.1169   -2.7709 H   0  0  0  0  0  0  0  0  0  0  0  0
   -3.0223   -0.8441   -1.6054 H   0  0  0  0  0  0  0  0  0  0  0  0
   -4.2596    0.4063   -1.8805 H   0  0  0  0  0  0  0  0  0  0  0  0
   -4.7599    0.2531    2.5527 H   0  0  0  0  0  0  0  0  0  0  0  0
   -6.5895   -1.2364    3.3152 H   0  0  0  0  0  0  0  0  0  0  0  0
   -7.5338   -2.9275    1.7158 H   0  0  0  0  0  0  0  0  0  0  0  0
   -6.5764   -3.0275   -0.5891 H   0  0  0  0  0  0  0  0  0  0  0  0
   -2.4768   -0.3336    1.8621 H   0  0  0  0  0  0  0  0  0  0  0  0
   -2.4831    1.3860    1.4406 H   0  0  0  0  0  0  0  0  0  0  0  0
   -0.2917    0.3931    0.9604 H   0  0  0  0  0  0  0  0  0  0  0  0
   -1.0126   -0.8772   -0.0293 H   0  0  0  0  0  0  0  0  0  0  0  0
  1  2  2  0
  2  3  1  0
  3  4  2  0
  4  5  1  0
  5  6  1  0
  6  7  2  0
  7  8  1  0
  8  9  2  0
  9 10  1  0
 10 11  2  0
 11 12  1  0
  5 13  2  0
 13 14  1  0
 14 15  2  0
 15 16  1  0
 16 17  2  0
 17 18  1  0
 17 19  1  0
 19 20  2  0
  2 21  1  0
 21 22  1  0
 22 23  1  0
 23 24  1  0
 24 25  1  0
 25 26  2  0
 26 27  1  0
 27 28  2  0
 28 29  1  0
 29 30  2  0
 24 31  1  0
 31 32  1  0
 20  3  1  0
 32 21  1  0
 11  6  1  0
 20 14  1  0
 30 25  1  0
  4 33  1  0
  7 34  1  0
  8 35  1  0
  9 36  1  0
 10 37  1  0
 15 38  1  0
 16 39  1  0
 19 40  1  0
 22 41  1  0
 22 42  1  0
 23 43  1  0
 23 44  1  0
 26 45  1  0
 27 46  1  0
 28 47  1  0
 29 48  1  0
 31 49  1  0
 31 50  1  0
 32 51  1  0
 32 52  1  0
M  END
$$$$
