
     RDKit          3D

 44 46  0  0  0  0  0  0  0  0999 V2000
   -6.8230    1.8286   -0.9831 C   0  0  0  0  0  0  0  0  0  0  0  0
   -5.9498    0.6626   -0.6230 C   0  0  0  0  0  0  0  0  0  0  0  0
   -6.4957   -0.6182   -0.5081 C   0  0  0  0  0  0  0  0  0  0  0  0
   -5.6789   -1.7066   -0.2030 C   0  0  0  0  0  0  0  0  0  0  0  0
   -4.3004   -1.5337   -0.0172 C   0  0  0  0  0  0  0  0  0  0  0  0
   -3.4377   -2.7213    0.3105 C   0  0  0  0  0  0  0  0  0  0  0  0
   -3.7408   -0.2502   -0.1461 C   0  0  0  0  0  0  0  0  0  0  0  0
   -2.3858   -0.1769    0.0474 O   0  0  0  0  0  0  0  0  0  0  0  0
   -1.7668    1.0995   -0.0922 C   0  0  0  0  0  0  0  0  0  0  0  0
   -0.3200    0.9171    0.1697 C   0  0  0  0  0  0  0  0  0  0  0  0
    0.4607   -0.0947    0.6701 C   0  0  0  0  0  0  0  0  0  0  0  0
    1.7898    0.4156    0.6555 C   0  0  0  0  0  0  0  0  0  0  0  0
    2.9904   -0.3328    1.0727 C   0  0  0  0  0  0  0  0  0  0  0  0
    2.8988   -1.5505    1.2511 O   0  0  0  0  0  0  0  0  0  0  0  0
    4.2164    0.3163    1.2736 N   0  0  0  0  0  0  0  0  0  0  0  0
    4.4395    1.7490    1.1262 C   0  0  0  0  0  0  0  0  0  0  0  0
    5.4120   -0.5202    1.3935 C   0  0  0  0  0  0  0  0  0  0  0  0
    6.1369   -0.5950    0.0774 C   0  0  0  0  0  0  0  0  0  0  0  0
    7.0408    0.2798   -0.3234 N   0  0  0  0  0  0  0  0  0  0  0  0
    7.5025   -0.0683   -1.5772 C   0  0  0  0  0  0  0  0  0  0  0  0
    6.9514   -1.2079   -2.1197 C   0  0  0  0  0  0  0  0  0  0  0  0
    5.8119   -1.8752   -1.0288 S   0  0  0  0  0  0  0  0  0  0  0  0
    1.7912    1.6612    0.1512 N   0  0  0  0  0  0  0  0  0  0  0  0
    0.4786    1.9733   -0.1345 O   0  0  0  0  0  0  0  0  0  0  0  0
   -4.5678    0.8367   -0.4535 C   0  0  0  0  0  0  0  0  0  0  0  0
   -6.4470    2.7523   -0.5299 H   0  0  0  0  0  0  0  0  0  0  0  0
   -7.8446    1.6805   -0.6168 H   0  0  0  0  0  0  0  0  0  0  0  0
   -6.8516    1.9528   -2.0701 H   0  0  0  0  0  0  0  0  0  0  0  0
   -7.5615   -0.7785   -0.6544 H   0  0  0  0  0  0  0  0  0  0  0  0
   -6.1262   -2.6941   -0.1133 H   0  0  0  0  0  0  0  0  0  0  0  0
   -2.9415   -2.5747    1.2754 H   0  0  0  0  0  0  0  0  0  0  0  0
   -4.0282   -3.6410    0.3779 H   0  0  0  0  0  0  0  0  0  0  0  0
   -2.6826   -2.8679   -0.4687 H   0  0  0  0  0  0  0  0  0  0  0  0
   -1.9062    1.4799   -1.1109 H   0  0  0  0  0  0  0  0  0  0  0  0
   -2.1745    1.8055    0.6406 H   0  0  0  0  0  0  0  0  0  0  0  0
    0.1341   -1.0710    0.9989 H   0  0  0  0  0  0  0  0  0  0  0  0
    3.6460    2.3089    1.6271 H   0  0  0  0  0  0  0  0  0  0  0  0
    4.4755    2.0021    0.0628 H   0  0  0  0  0  0  0  0  0  0  0  0
    5.3852    2.0323    1.5986 H   0  0  0  0  0  0  0  0  0  0  0  0
    5.1612   -1.5238    1.7535 H   0  0  0  0  0  0  0  0  0  0  0  0
    6.0658   -0.0750    2.1526 H   0  0  0  0  0  0  0  0  0  0  0  0
    8.2505    0.5513   -2.0568 H   0  0  0  0  0  0  0  0  0  0  0  0
    7.1565   -1.6661   -3.0761 H   0  0  0  0  0  0  0  0  0  0  0  0
   -4.1654    1.8382   -0.5672 H   0  0  0  0  0  0  0  0  0  0  0  0
  1  2  1  0
  2  3  2  0
  3  4  1  0
  4  5  2  0
  5  6  1  0
  5  7  1  0
  7  8  1  0
  8  9  1  0
  9 10  1  0
 10 11  2  0
 11 12  1  0
 12 13  1  0
 13 14  2  0
 13 15  1  0
 15 16  1  0
 15 17  1  0
 17 18  1  0
 18 19  2  0
 19 20  1  0
 20 21  2  0
 21 22  1  0
 12 23  2  0
 23 24  1  0
  7 25  2  0
 25  2  1  0
 24 10  1  0
 22 18  1  0
  1 26  1  0
  1 27  1  0
  1 28  1  0
  3 29  1  0
  4 30  1  0
  6 31  1  0
  6 32  1  0
  6 33  1  0
  9 34  1  0
  9 35  1  0
 11 36  1  0
 16 37  1  0
 16 38  1  0
 16 39  1  0
 17 40  1  0
 17 41  1  0
 20 42  1  0
 21 43  1  0
 25 44  1  0
M  END
$$$$
