
     RDKit          3D

 42 45  0  0  0  0  0  0  0  0999 V2000
    8.9130   -0.8817    1.1246 O   0  0  0  0  0  0  0  0  0  0  0  0
    8.1055   -0.1411    1.6575 C   0  0  0  0  0  0  0  0  0  0  0  0
    8.2164    1.1956    1.5529 O   0  0  0  0  0  0  0  0  0  0  0  0
    6.8935   -0.5625    2.4369 C   0  0  0  0  0  0  0  0  0  0  0  0
    5.6938   -0.7979    1.5274 C   0  0  0  0  0  0  0  0  0  0  0  0
    5.1017    0.5095    0.9885 C   0  0  0  0  0  0  0  0  0  0  0  0
    3.9015    0.2631    0.1862 N   0  0  0  0  0  0  0  0  0  0  0  0
    2.6823    0.1561    0.8333 C   0  0  0  0  0  0  0  0  0  0  0  0
    2.5029    0.2531    2.0400 O   0  0  0  0  0  0  0  0  0  0  0  0
    1.5924   -0.1165   -0.1449 C   0  0  0  0  0  0  0  0  0  0  0  0
    0.3245   -0.2105    0.2749 C   0  0  0  0  0  0  0  0  0  0  0  0
   -0.8308   -0.4515   -0.5207 C   0  0  0  0  0  0  0  0  0  0  0  0
   -1.0211   -1.0743   -1.7471 C   0  0  0  0  0  0  0  0  0  0  0  0
   -2.4037   -1.0381   -2.0477 C   0  0  0  0  0  0  0  0  0  0  0  0
   -3.0321   -0.4082   -0.9923 C   0  0  0  0  0  0  0  0  0  0  0  0
   -4.4346   -0.1366   -0.8309 C   0  0  0  0  0  0  0  0  0  0  0  0
   -5.3250   -0.4846   -1.7361 N   0  0  0  0  0  0  0  0  0  0  0  0
   -6.5896   -0.1010   -1.3221 C   0  0  0  0  0  0  0  0  0  0  0  0
   -7.7895   -0.3069   -2.0329 C   0  0  0  0  0  0  0  0  0  0  0  0
   -9.0026    0.1343   -1.4940 C   0  0  0  0  0  0  0  0  0  0  0  0
   -9.0333    0.7757   -0.2598 C   0  0  0  0  0  0  0  0  0  0  0  0
   -7.8574    0.9922    0.4654 C   0  0  0  0  0  0  0  0  0  0  0  0
   -6.6449    0.5450   -0.0855 C   0  0  0  0  0  0  0  0  0  0  0  0
   -5.0517    0.6619    0.5549 S   0  0  0  0  0  0  0  0  0  0  0  0
   -2.0769   -0.0679   -0.0719 O   0  0  0  0  0  0  0  0  0  0  0  0
    2.2484   -0.2246   -1.7256 S   0  0  0  0  0  0  0  0  0  0  0  0
    3.8936    0.0667   -1.1782 C   0  0  0  0  0  0  0  0  0  0  0  0
    5.1868    0.0824   -2.2312 S   0  0  0  0  0  0  0  0  0  0  0  0
    9.0314    1.3263    1.0217 H   0  0  0  0  0  0  0  0  0  0  0  0
    6.6753    0.1797    3.2130 H   0  0  0  0  0  0  0  0  0  0  0  0
    7.1531   -1.4888    2.9626 H   0  0  0  0  0  0  0  0  0  0  0  0
    4.9251   -1.3341    2.0975 H   0  0  0  0  0  0  0  0  0  0  0  0
    5.9746   -1.4522    0.6932 H   0  0  0  0  0  0  0  0  0  0  0  0
    4.8314    1.1624    1.8272 H   0  0  0  0  0  0  0  0  0  0  0  0
    5.8362    1.0508    0.3861 H   0  0  0  0  0  0  0  0  0  0  0  0
    0.1179   -0.0569    1.3336 H   0  0  0  0  0  0  0  0  0  0  0  0
   -0.2572   -1.5236   -2.3655 H   0  0  0  0  0  0  0  0  0  0  0  0
   -2.8973   -1.4313   -2.9265 H   0  0  0  0  0  0  0  0  0  0  0  0
   -7.7615   -0.8077   -2.9956 H   0  0  0  0  0  0  0  0  0  0  0  0
   -9.9258   -0.0267   -2.0459 H   0  0  0  0  0  0  0  0  0  0  0  0
   -9.9838    1.1140    0.1482 H   0  0  0  0  0  0  0  0  0  0  0  0
   -7.8826    1.4930    1.4285 H   0  0  0  0  0  0  0  0  0  0  0  0
  1  2  2  0
  2  3  1  0
  2  4  1  0
  4  5  1  0
  5  6  1  0
  6  7  1  0
  7  8  1  0
  8  9  2  0
  8 10  1  0
 10 11  2  3
 11 12  1  0
 12 13  2  0
 13 14  1  0
 14 15  2  0
 15 16  1  0
 16 17  2  0
 17 18  1  0
 18 19  2  0
 19 20  1  0
 20 21  2  0
 21 22  1  0
 22 23  2  0
 23 24  1  0
 15 25  1  0
 10 26  1  0
 26 27  1  0
 27 28  2  0
 27  7  1  0
 25 12  1  0
 24 16  1  0
 23 18  1  0
  3 29  1  0
  4 30  1  0
  4 31  1  0
  5 32  1  0
  5 33  1  0
  6 34  1  0
  6 35  1  0
 11 36  1  0
 13 37  1  0
 14 38  1  0
 19 39  1  0
 20 40  1  0
 21 41  1  0
 22 42  1  0
M  END
$$$$
