
     RDKit          3D

 46 48  0  0  0  0  0  0  0  0999 V2000
    5.2110   -1.8939   -0.4498 C   0  0  0  0  0  0  0  0  0  0  0  0
    4.1749   -1.0905   -1.2129 C   0  0  0  0  0  0  0  0  0  0  0  0
    3.3469   -0.3582   -0.2982 O   0  0  0  0  0  0  0  0  0  0  0  0
    2.2687   -1.0281    0.2135 C   0  0  0  0  0  0  0  0  0  0  0  0
    1.9828   -2.1816   -0.0928 O   0  0  0  0  0  0  0  0  0  0  0  0
    1.4675   -0.1437    1.1918 C   0  0  0  0  0  0  0  0  0  0  0  0
    2.2750   -0.2280    2.5070 C   0  0  0  0  0  0  0  0  0  0  0  0
    2.4168   -1.5011    2.9524 F   0  0  0  0  0  0  0  0  0  0  0  0
    3.5257    0.2854    2.3879 F   0  0  0  0  0  0  0  0  0  0  0  0
    1.6699    0.4684    3.5067 F   0  0  0  0  0  0  0  0  0  0  0  0
    1.4074    1.2391    0.6788 N   0  0  0  0  0  0  0  0  0  0  0  0
    0.4413    1.4565   -0.1349 C   0  0  0  0  0  0  0  0  0  0  0  0
    0.2850    2.7239   -0.8784 C   0  0  0  0  0  0  0  0  0  0  0  0
    1.2046    3.7602   -0.6938 C   0  0  0  0  0  0  0  0  0  0  0  0
    1.0515    4.9524   -1.3993 C   0  0  0  0  0  0  0  0  0  0  0  0
   -0.0198    5.0687   -2.2701 C   0  0  0  0  0  0  0  0  0  0  0  0
   -0.9274    4.0894   -2.4759 N   0  0  0  0  0  0  0  0  0  0  0  0
   -0.7544    2.9402   -1.7757 C   0  0  0  0  0  0  0  0  0  0  0  0
   -0.5510    0.5963   -0.4152 O   0  0  0  0  0  0  0  0  0  0  0  0
   -0.7543   -0.3753    0.5020 C   0  0  0  0  0  0  0  0  0  0  0  0
   -2.0122   -0.9337    0.4298 N   0  0  0  0  0  0  0  0  0  0  0  0
   -2.9415   -0.6525   -0.6663 C   0  0  0  0  0  0  0  0  0  0  0  0
   -3.8578   -1.8422   -0.9347 C   0  0  0  0  0  0  0  0  0  0  0  0
   -4.6706   -2.2302    0.2973 C   0  0  0  0  0  0  0  0  0  0  0  0
   -3.9372   -1.9258    1.6010 C   0  0  0  0  0  0  0  0  0  0  0  0
   -2.4225   -1.9344    1.4214 C   0  0  0  0  0  0  0  0  0  0  0  0
    0.1254   -0.7175    1.3684 N   0  0  0  0  0  0  0  0  0  0  0  0
    5.8010   -1.2402    0.2010 H   0  0  0  0  0  0  0  0  0  0  0  0
    4.7343   -2.6385    0.1956 H   0  0  0  0  0  0  0  0  0  0  0  0
    5.8862   -2.4096   -1.1384 H   0  0  0  0  0  0  0  0  0  0  0  0
    4.6761   -0.3542   -1.8496 H   0  0  0  0  0  0  0  0  0  0  0  0
    3.5745   -1.7287   -1.8711 H   0  0  0  0  0  0  0  0  0  0  0  0
    2.0385    3.6473   -0.0044 H   0  0  0  0  0  0  0  0  0  0  0  0
    1.7521    5.7705   -1.2711 H   0  0  0  0  0  0  0  0  0  0  0  0
   -0.1809    5.9788   -2.8417 H   0  0  0  0  0  0  0  0  0  0  0  0
   -1.5087    2.1857   -1.9777 H   0  0  0  0  0  0  0  0  0  0  0  0
   -2.3964   -0.4372   -1.5927 H   0  0  0  0  0  0  0  0  0  0  0  0
   -3.5331    0.2366   -0.4183 H   0  0  0  0  0  0  0  0  0  0  0  0
   -3.2475   -2.7009   -1.2440 H   0  0  0  0  0  0  0  0  0  0  0  0
   -4.5327   -1.6225   -1.7696 H   0  0  0  0  0  0  0  0  0  0  0  0
   -4.9107   -3.2988    0.2421 H   0  0  0  0  0  0  0  0  0  0  0  0
   -5.6302   -1.6994    0.2969 H   0  0  0  0  0  0  0  0  0  0  0  0
   -4.2487   -0.9367    1.9618 H   0  0  0  0  0  0  0  0  0  0  0  0
   -4.2345   -2.6470    2.3705 H   0  0  0  0  0  0  0  0  0  0  0  0
   -2.0777   -2.9259    1.1048 H   0  0  0  0  0  0  0  0  0  0  0  0
   -1.9674   -1.7233    2.3963 H   0  0  0  0  0  0  0  0  0  0  0  0
  1  2  1  0
  2  3  1  0
  3  4  1  0
  4  5  2  0
  4  6  1  0
  6  7  1  0
  7  8  1  0
  7  9  1  0
  7 10  1  0
  6 11  1  0
 11 12  2  0
 12 13  1  0
 13 14  2  0
 14 15  1  0
 15 16  2  0
 16 17  1  0
 17 18  2  0
 12 19  1  0
 19 20  1  0
 20 21  1  0
 21 22  1  0
 22 23  1  0
 23 24  1  0
 24 25  1  0
 25 26  1  0
 20 27  2  0
 27  6  1  0
 18 13  1  0
 26 21  1  0
  1 28  1  0
  1 29  1  0
  1 30  1  0
  2 31  1  0
  2 32  1  0
 14 33  1  0
 15 34  1  0
 16 35  1  0
 18 36  1  0
 22 37  1  0
 22 38  1  0
 23 39  1  0
 23 40  1  0
 24 41  1  0
 24 42  1  0
 25 43  1  0
 25 44  1  0
 26 45  1  0
 26 46  1  0
M  END
$$$$
