
     RDKit          3D

 45 47  0  0  0  0  0  0  0  0999 V2000
    0.0216    2.9293   -1.4648 C   0  0  0  0  0  0  0  0  0  0  0  0
    0.6307    1.6388   -1.0216 C   0  0  0  0  0  0  0  0  0  0  0  0
   -0.0408    0.4993   -0.7896 C   0  0  0  0  0  0  0  0  0  0  0  0
   -1.3841    0.1571   -0.8350 N   0  0  0  0  0  0  0  0  0  0  0  0
   -2.2013    0.2943    0.3928 C   0  0  0  0  0  0  0  0  0  0  0  0
   -2.7394    1.7186    0.5258 C   0  0  0  0  0  0  0  0  0  0  0  0
   -3.2349   -0.8259    0.4283 C   0  0  0  0  0  0  0  0  0  0  0  0
   -2.8218   -2.0683    0.9580 C   0  0  0  0  0  0  0  0  0  0  0  0
   -3.6879   -3.1616    1.0146 C   0  0  0  0  0  0  0  0  0  0  0  0
   -4.9866   -3.0405    0.5345 C   0  0  0  0  0  0  0  0  0  0  0  0
   -5.4139   -1.8305   -0.0089 C   0  0  0  0  0  0  0  0  0  0  0  0
   -4.5419   -0.7373   -0.0665 C   0  0  0  0  0  0  0  0  0  0  0  0
   -4.9881    0.4251   -0.6257 O   0  0  0  0  0  0  0  0  0  0  0  0
    1.0188   -0.5156   -0.4424 C   0  0  0  0  0  0  0  0  0  0  0  0
    0.7435   -1.6703   -0.1459 O   0  0  0  0  0  0  0  0  0  0  0  0
    2.2433    0.1610   -0.4644 N   0  0  0  0  0  0  0  0  0  0  0  0
    3.4036   -0.2195    0.2593 C   0  0  0  0  0  0  0  0  0  0  0  0
    3.6634   -1.5676    0.5418 C   0  0  0  0  0  0  0  0  0  0  0  0
    4.8071   -1.9485    1.2518 C   0  0  0  0  0  0  0  0  0  0  0  0
    5.7078   -0.9851    1.6958 C   0  0  0  0  0  0  0  0  0  0  0  0
    5.4637    0.3593    1.4332 C   0  0  0  0  0  0  0  0  0  0  0  0
    4.3204    0.7375    0.7218 C   0  0  0  0  0  0  0  0  0  0  0  0
    2.0219    1.5123   -0.8668 N   0  0  0  0  0  0  0  0  0  0  0  0
    2.8790    1.9406   -1.9861 C   0  0  0  0  0  0  0  0  0  0  0  0
   -1.0641    2.8577   -1.5755 H   0  0  0  0  0  0  0  0  0  0  0  0
    0.2347    3.7179   -0.7362 H   0  0  0  0  0  0  0  0  0  0  0  0
    0.4210    3.2373   -2.4362 H   0  0  0  0  0  0  0  0  0  0  0  0
   -1.4099   -0.8389   -1.0783 H   0  0  0  0  0  0  0  0  0  0  0  0
   -1.5531    0.1395    1.2683 H   0  0  0  0  0  0  0  0  0  0  0  0
   -3.2018    2.0765   -0.3996 H   0  0  0  0  0  0  0  0  0  0  0  0
   -1.9249    2.4140    0.7573 H   0  0  0  0  0  0  0  0  0  0  0  0
   -3.4713    1.7942    1.3371 H   0  0  0  0  0  0  0  0  0  0  0  0
   -1.8021   -2.1913    1.3247 H   0  0  0  0  0  0  0  0  0  0  0  0
   -3.3425   -4.1056    1.4284 H   0  0  0  0  0  0  0  0  0  0  0  0
   -5.6635   -3.8896    0.5764 H   0  0  0  0  0  0  0  0  0  0  0  0
   -6.4297   -1.7568   -0.3857 H   0  0  0  0  0  0  0  0  0  0  0  0
   -5.8677    0.2773   -1.0085 H   0  0  0  0  0  0  0  0  0  0  0  0
    2.9918   -2.3509    0.1998 H   0  0  0  0  0  0  0  0  0  0  0  0
    4.9896   -3.0007    1.4553 H   0  0  0  0  0  0  0  0  0  0  0  0
    6.5941   -1.2815    2.2505 H   0  0  0  0  0  0  0  0  0  0  0  0
    6.1558    1.1179    1.7891 H   0  0  0  0  0  0  0  0  0  0  0  0
    4.1411    1.7975    0.5648 H   0  0  0  0  0  0  0  0  0  0  0  0
    2.5786    1.4478   -2.9181 H   0  0  0  0  0  0  0  0  0  0  0  0
    2.8062    3.0246   -2.1227 H   0  0  0  0  0  0  0  0  0  0  0  0
    3.9336    1.7109   -1.8097 H   0  0  0  0  0  0  0  0  0  0  0  0
  1  2  1  0
  2  3  2  0
  3  4  1  0
  4  5  1  0
  5  6  1  0
  5  7  1  0
  7  8  2  0
  8  9  1  0
  9 10  2  0
 10 11  1  0
 11 12  2  0
 12 13  1  0
  3 14  1  0
 14 15  2  0
 14 16  1  0
 16 17  1  0
 17 18  2  0
 18 19  1  0
 19 20  2  0
 20 21  1  0
 21 22  2  0
 16 23  1  0
 23 24  1  0
 23  2  1  0
 12  7  1  0
 22 17  1  0
  1 25  1  0
  1 26  1  0
  1 27  1  0
  4 28  1  0
  5 29  1  0
  6 30  1  0
  6 31  1  0
  6 32  1  0
  8 33  1  0
  9 34  1  0
 10 35  1  0
 11 36  1  0
 13 37  1  0
 18 38  1  0
 19 39  1  0
 20 40  1  0
 21 41  1  0
 22 42  1  0
 24 43  1  0
 24 44  1  0
 24 45  1  0
M  END
$$$$
