
     RDKit          3D

 43 45  0  0  0  0  0  0  0  0999 V2000
   -3.3427   -1.4562   -2.3739 C   0  0  0  0  0  0  0  0  0  0  0  0
   -2.9218   -2.5197   -1.3623 C   0  0  0  0  0  0  0  0  0  0  0  0
   -3.6996   -3.8134   -1.6001 C   0  0  0  0  0  0  0  0  0  0  0  0
   -1.1327   -2.8934   -1.5289 S   0  0  0  0  0  0  0  0  0  0  0  0
   -0.3799   -1.5208   -0.6627 C   0  0  0  0  0  0  0  0  0  0  0  0
    0.9965   -1.4452   -0.6321 C   0  0  0  0  0  0  0  0  0  0  0  0
    1.5633   -0.3833    0.0428 C   0  0  0  0  0  0  0  0  0  0  0  0
    2.9422   -0.2476    0.1391 N   0  0  0  0  0  0  0  0  0  0  0  0
    3.7936   -0.5597   -1.0242 C   0  0  0  0  0  0  0  0  0  0  0  0
    4.7709    0.5936   -1.3122 C   0  0  0  0  0  0  0  0  0  0  0  0
    5.6159    0.9274   -0.2033 O   0  0  0  0  0  0  0  0  0  0  0  0
    4.9764    0.7597    1.0719 C   0  0  0  0  0  0  0  0  0  0  0  0
    3.4422    0.8277    1.0115 C   0  0  0  0  0  0  0  0  0  0  0  0
    0.7831    0.5174    0.6628 N   0  0  0  0  0  0  0  0  0  0  0  0
   -0.5517    0.3747    0.5832 C   0  0  0  0  0  0  0  0  0  0  0  0
   -1.3932    1.3917    1.2489 C   0  0  0  0  0  0  0  0  0  0  0  0
   -2.8007    1.3461    1.1765 C   0  0  0  0  0  0  0  0  0  0  0  0
   -3.6006    2.3116    1.8016 C   0  0  0  0  0  0  0  0  0  0  0  0
   -3.0042    3.3457    2.5148 C   0  0  0  0  0  0  0  0  0  0  0  0
   -3.9817    4.5350    3.2802 Cl  0  0  0  0  0  0  0  0  0  0  0  0
   -1.6183    3.4213    2.6087 C   0  0  0  0  0  0  0  0  0  0  0  0
   -0.8243    2.4530    1.9816 C   0  0  0  0  0  0  0  0  0  0  0  0
   -1.1707   -0.6206   -0.0669 N   0  0  0  0  0  0  0  0  0  0  0  0
   -2.8170   -0.5089   -2.2191 H   0  0  0  0  0  0  0  0  0  0  0  0
   -3.1597   -1.7826   -3.4039 H   0  0  0  0  0  0  0  0  0  0  0  0
   -4.4145   -1.2473   -2.2810 H   0  0  0  0  0  0  0  0  0  0  0  0
   -3.1377   -2.1806   -0.3440 H   0  0  0  0  0  0  0  0  0  0  0  0
   -3.5337   -4.2122   -2.6075 H   0  0  0  0  0  0  0  0  0  0  0  0
   -3.4211   -4.5857   -0.8744 H   0  0  0  0  0  0  0  0  0  0  0  0
   -4.7752   -3.6351   -1.4911 H   0  0  0  0  0  0  0  0  0  0  0  0
    1.6036   -2.2096   -1.0975 H   0  0  0  0  0  0  0  0  0  0  0  0
    3.2116   -0.7442   -1.9339 H   0  0  0  0  0  0  0  0  0  0  0  0
    4.3598   -1.4700   -0.7906 H   0  0  0  0  0  0  0  0  0  0  0  0
    4.2206    1.4981   -1.5984 H   0  0  0  0  0  0  0  0  0  0  0  0
    5.4213    0.3311   -2.1525 H   0  0  0  0  0  0  0  0  0  0  0  0
    5.2986   -0.2084    1.4744 H   0  0  0  0  0  0  0  0  0  0  0  0
    5.3642    1.5371    1.7377 H   0  0  0  0  0  0  0  0  0  0  0  0
    3.1359    1.8061    0.6172 H   0  0  0  0  0  0  0  0  0  0  0  0
    3.0431    0.7145    2.0270 H   0  0  0  0  0  0  0  0  0  0  0  0
   -3.2909    0.5467    0.6225 H   0  0  0  0  0  0  0  0  0  0  0  0
   -4.6840    2.2467    1.7249 H   0  0  0  0  0  0  0  0  0  0  0  0
   -1.1458    4.2264    3.1646 H   0  0  0  0  0  0  0  0  0  0  0  0
    0.2587    2.5331    2.0685 H   0  0  0  0  0  0  0  0  0  0  0  0
  1  2  1  0
  2  3  1  0
  2  4  1  0
  4  5  1  0
  5  6  2  0
  6  7  1  0
  7  8  1  0
  8  9  1  0
  9 10  1  0
 10 11  1  0
 11 12  1  0
 12 13  1  0
  7 14  2  0
 14 15  1  0
 15 16  1  0
 16 17  2  0
 17 18  1  0
 18 19  2  0
 19 20  1  0
 19 21  1  0
 21 22  2  0
 15 23  2  0
 23  5  1  0
 13  8  1  0
 22 16  1  0
  1 24  1  0
  1 25  1  0
  1 26  1  0
  2 27  1  0
  3 28  1  0
  3 29  1  0
  3 30  1  0
  6 31  1  0
  9 32  1  0
  9 33  1  0
 10 34  1  0
 10 35  1  0
 12 36  1  0
 12 37  1  0
 13 38  1  0
 13 39  1  0
 17 40  1  0
 18 41  1  0
 21 42  1  0
 22 43  1  0
M  END
$$$$
