
     RDKit          3D

 50 53  0  0  0  0  0  0  0  0999 V2000
   -8.2011    2.2087    0.7045 C   0  0  0  0  0  0  0  0  0  0  0  0
   -6.9073    1.4491    0.7420 C   0  0  0  0  0  0  0  0  0  0  0  0
   -5.7450    1.9985    0.1922 C   0  0  0  0  0  0  0  0  0  0  0  0
   -4.5422    1.2808    0.1916 C   0  0  0  0  0  0  0  0  0  0  0  0
   -4.4858   -0.0030    0.7344 C   0  0  0  0  0  0  0  0  0  0  0  0
   -3.3187   -0.8002    0.7697 N   0  0  0  0  0  0  0  0  0  0  0  0
   -2.0656   -0.4750    0.2737 C   0  0  0  0  0  0  0  0  0  0  0  0
   -1.7509    0.5745   -0.2815 O   0  0  0  0  0  0  0  0  0  0  0  0
   -1.0427   -1.6069    0.4505 C   0  0  0  0  0  0  0  0  0  0  0  0
    0.3081   -1.2105    0.0290 N   0  0  0  0  0  4  0  0  0  0  0  0
    1.4368   -1.0848    0.8391 C   0  0  0  0  0  0  0  0  0  0  0  0
    2.5020   -0.6375    0.0662 C   0  0  0  0  0  0  0  0  0  0  0  0
    3.9602   -0.3400    0.5707 C   0  0  0  0  0  0  0  0  0  0  0  0
    4.9262    0.1677   -0.2979 C   0  0  0  0  0  0  0  0  0  0  0  0
    6.2221    0.4250    0.1627 C   0  0  0  0  0  0  0  0  0  0  0  0
    6.5637    0.1913    1.4973 C   0  0  0  0  0  0  0  0  0  0  0  0
    7.9632    0.4388    1.9809 C   0  0  0  0  0  0  0  0  0  0  0  0
    5.5964   -0.3269    2.3625 C   0  0  0  0  0  0  0  0  0  0  0  0
    4.2998   -0.5842    1.9061 C   0  0  0  0  0  0  0  0  0  0  0  0
    1.9526   -0.5318   -1.1987 N   0  0  0  0  0  0  0  0  0  0  0  0
    0.6547   -0.8241   -1.1962 C   0  0  0  0  0  0  0  0  0  0  0  0
    0.0239   -0.6812   -2.5302 C   0  0  0  0  0  0  0  0  0  0  0  0
    1.2514   -0.5677   -3.4549 C   0  0  0  0  0  0  0  0  0  0  0  0
    2.4165   -0.1407   -2.5216 C   0  0  0  0  0  0  0  0  0  0  0  0
   -5.6532   -0.5560    1.2801 C   0  0  0  0  0  0  0  0  0  0  0  0
   -6.8541    0.1608    1.2772 C   0  0  0  0  0  0  0  0  0  0  0  0
   -8.0246    3.2857    0.7835 H   0  0  0  0  0  0  0  0  0  0  0  0
   -8.8470    1.9231    1.5405 H   0  0  0  0  0  0  0  0  0  0  0  0
   -8.7274    2.0026   -0.2319 H   0  0  0  0  0  0  0  0  0  0  0  0
   -5.7627    3.0000   -0.2354 H   0  0  0  0  0  0  0  0  0  0  0  0
   -3.6735    1.7665   -0.2402 H   0  0  0  0  0  0  0  0  0  0  0  0
   -3.4463   -1.7105    1.1982 H   0  0  0  0  0  0  0  0  0  0  0  0
   -1.0126   -1.9036    1.5017 H   0  0  0  0  0  0  0  0  0  0  0  0
   -1.3485   -2.4634   -0.1553 H   0  0  0  0  0  0  0  0  0  0  0  0
    1.3367   -1.3201    1.8834 H   0  0  0  0  0  0  0  0  0  0  0  0
    4.7115    0.3862   -1.3359 H   0  0  0  0  0  0  0  0  0  0  0  0
    6.9669    0.8150   -0.5301 H   0  0  0  0  0  0  0  0  0  0  0  0
    8.4327    1.2567    1.4203 H   0  0  0  0  0  0  0  0  0  0  0  0
    7.9650    0.7263    3.0384 H   0  0  0  0  0  0  0  0  0  0  0  0
    8.5672   -0.4663    1.8584 H   0  0  0  0  0  0  0  0  0  0  0  0
    5.8499   -0.5337    3.4015 H   0  0  0  0  0  0  0  0  0  0  0  0
    3.5862   -0.9810    2.6209 H   0  0  0  0  0  0  0  0  0  0  0  0
   -0.5606    0.2399   -2.5162 H   0  0  0  0  0  0  0  0  0  0  0  0
   -0.5929   -1.5584   -2.7299 H   0  0  0  0  0  0  0  0  0  0  0  0
    1.4761   -1.5540   -3.8776 H   0  0  0  0  0  0  0  0  0  0  0  0
    1.0974    0.1274   -4.2848 H   0  0  0  0  0  0  0  0  0  0  0  0
    2.5609    0.9431   -2.5406 H   0  0  0  0  0  0  0  0  0  0  0  0
    3.3385   -0.6638   -2.7845 H   0  0  0  0  0  0  0  0  0  0  0  0
   -5.6557   -1.5499    1.7164 H   0  0  0  0  0  0  0  0  0  0  0  0
   -7.7480   -0.2928    1.7000 H   0  0  0  0  0  0  0  0  0  0  0  0
  1  2  1  0
  2  3  2  0
  3  4  1  0
  4  5  2  0
  5  6  1  0
  6  7  1  0
  7  8  2  0
  7  9  1  0
  9 10  1  0
 10 11  1  0
 11 12  2  0
 12 13  1  0
 13 14  2  0
 14 15  1  0
 15 16  2  0
 16 17  1  0
 16 18  1  0
 18 19  2  0
 12 20  1  0
 20 21  1  0
 21 22  1  0
 22 23  1  0
 23 24  1  0
  5 25  1  0
 25 26  2  0
 26  2  1  0
 21 10  2  0
 19 13  1  0
 24 20  1  0
  1 27  1  0
  1 28  1  0
  1 29  1  0
  3 30  1  0
  4 31  1  0
  6 32  1  0
  9 33  1  0
  9 34  1  0
 11 35  1  0
 14 36  1  0
 15 37  1  0
 17 38  1  0
 17 39  1  0
 17 40  1  0
 18 41  1  0
 19 42  1  0
 22 43  1  0
 22 44  1  0
 23 45  1  0
 23 46  1  0
 24 47  1  0
 24 48  1  0
 25 49  1  0
 26 50  1  0
M  CHG  1  10   1
M  END
$$$$
