
     RDKit          3D

 44 46  0  0  0  0  0  0  0  0999 V2000
    7.5704    0.3823    0.6387 C   0  0  0  0  0  0  0  0  0  0  0  0
    6.6854   -0.5561    1.4371 C   0  0  0  0  0  0  0  0  0  0  0  0
    5.4529   -0.7870    0.7392 O   0  0  0  0  0  0  0  0  0  0  0  0
    4.4699    0.1204    0.9661 C   0  0  0  0  0  0  0  0  0  0  0  0
    4.5510    1.0979    1.6926 O   0  0  0  0  0  0  0  0  0  0  0  0
    3.2466   -0.2304    0.1940 C   0  0  0  0  0  0  0  0  0  0  0  0
    2.1377    0.6158    0.2883 C   0  0  0  0  0  0  0  0  0  0  0  0
    0.9645    0.3275   -0.4188 C   0  0  0  0  0  0  0  0  0  0  0  0
    0.8603   -0.8208   -1.2121 C   0  0  0  0  0  0  0  0  0  0  0  0
   -0.2851   -1.1172   -1.9834 N   0  0  0  0  0  0  0  0  0  0  0  0
   -1.6331   -0.7616   -1.7250 C   0  0  0  0  0  0  0  0  0  0  0  0
   -2.5532   -0.9562   -2.7394 C   0  0  0  0  0  0  0  0  0  0  0  0
   -3.8625   -0.6049   -2.4829 C   0  0  0  0  0  0  0  0  0  0  0  0
   -4.9170   -0.7931   -3.5303 C   0  0  0  0  0  0  0  0  0  0  0  0
   -4.2494   -0.0980   -1.2993 N   0  0  0  0  0  0  0  0  0  0  0  0
   -3.2950    0.0683   -0.3643 C   0  0  0  0  0  0  0  0  0  0  0  0
   -3.6951    0.6246    0.9450 C   0  0  0  0  0  0  0  0  0  0  0  0
   -5.0247    1.0073    1.2076 C   0  0  0  0  0  0  0  0  0  0  0  0
   -5.4055    1.5311    2.4476 C   0  0  0  0  0  0  0  0  0  0  0  0
   -4.4620    1.6858    3.4583 C   0  0  0  0  0  0  0  0  0  0  0  0
   -3.1401    1.3180    3.2299 C   0  0  0  0  0  0  0  0  0  0  0  0
   -2.7637    0.7941    1.9885 C   0  0  0  0  0  0  0  0  0  0  0  0
   -1.9986   -0.2450   -0.5426 N   0  0  0  0  0  0  0  0  0  0  0  0
    1.9918   -1.6430   -1.3282 C   0  0  0  0  0  0  0  0  0  0  0  0
    3.1698   -1.3616   -0.6250 C   0  0  0  0  0  0  0  0  0  0  0  0
    7.0985    1.3629    0.5218 H   0  0  0  0  0  0  0  0  0  0  0  0
    7.7376   -0.0125   -0.3687 H   0  0  0  0  0  0  0  0  0  0  0  0
    8.5382    0.5169    1.1300 H   0  0  0  0  0  0  0  0  0  0  0  0
    6.5053   -0.1761    2.4489 H   0  0  0  0  0  0  0  0  0  0  0  0
    7.1802   -1.5272    1.5431 H   0  0  0  0  0  0  0  0  0  0  0  0
    2.1787    1.5118    0.9050 H   0  0  0  0  0  0  0  0  0  0  0  0
    0.1331    1.0237   -0.3433 H   0  0  0  0  0  0  0  0  0  0  0  0
   -0.2520   -2.0572   -2.3622 H   0  0  0  0  0  0  0  0  0  0  0  0
   -2.2571   -1.3556   -3.7006 H   0  0  0  0  0  0  0  0  0  0  0  0
   -4.6442   -0.2616   -4.4470 H   0  0  0  0  0  0  0  0  0  0  0  0
   -5.8813   -0.4046   -3.1869 H   0  0  0  0  0  0  0  0  0  0  0  0
   -5.0382   -1.8574   -3.7535 H   0  0  0  0  0  0  0  0  0  0  0  0
   -5.7832    0.8977    0.4340 H   0  0  0  0  0  0  0  0  0  0  0  0
   -6.4398    1.8173    2.6192 H   0  0  0  0  0  0  0  0  0  0  0  0
   -4.7563    2.0924    4.4222 H   0  0  0  0  0  0  0  0  0  0  0  0
   -2.3975    1.4362    4.0151 H   0  0  0  0  0  0  0  0  0  0  0  0
   -1.7228    0.5119    1.8381 H   0  0  0  0  0  0  0  0  0  0  0  0
    1.9679   -2.5241   -1.9651 H   0  0  0  0  0  0  0  0  0  0  0  0
    4.0176   -2.0335   -0.7319 H   0  0  0  0  0  0  0  0  0  0  0  0
  1  2  1  0
  2  3  1  0
  3  4  1  0
  4  5  2  0
  4  6  1  0
  6  7  2  0
  7  8  1  0
  8  9  2  0
  9 10  1  0
 10 11  1  0
 11 12  2  0
 12 13  1  0
 13 14  1  0
 13 15  2  0
 15 16  1  0
 16 17  1  0
 17 18  2  0
 18 19  1  0
 19 20  2  0
 20 21  1  0
 21 22  2  0
 16 23  2  0
  9 24  1  0
 24 25  2  0
 25  6  1  0
 23 11  1  0
 22 17  1  0
  1 26  1  0
  1 27  1  0
  1 28  1  0
  2 29  1  0
  2 30  1  0
  7 31  1  0
  8 32  1  0
 10 33  1  0
 12 34  1  0
 14 35  1  0
 14 36  1  0
 14 37  1  0
 18 38  1  0
 19 39  1  0
 20 40  1  0
 21 41  1  0
 22 42  1  0
 24 43  1  0
 25 44  1  0
M  END
$$$$
