
     RDKit          3D

 55 57  0  0  0  0  0  0  0  0999 V2000
    2.6219   -0.5657    2.9527 O   0  0  0  0  0  0  0  0  0  0  0  0
    2.1265    0.2521    2.1877 C   0  0  0  0  0  0  0  0  0  0  0  0
    2.6152    1.5001    1.8594 N   0  0  0  0  0  0  0  0  0  0  0  0
    3.7879    2.1233    2.3234 C   0  0  0  0  0  0  0  0  0  0  0  0
    4.0705    3.4032    1.8286 C   0  0  0  0  0  0  0  0  0  0  0  0
    5.2155    4.0904    2.2403 C   0  0  0  0  0  0  0  0  0  0  0  0
    6.0889    3.5032    3.1515 C   0  0  0  0  0  0  0  0  0  0  0  0
    5.8159    2.2310    3.6488 C   0  0  0  0  0  0  0  0  0  0  0  0
    4.6697    1.5433    3.2366 C   0  0  0  0  0  0  0  0  0  0  0  0
    0.8298   -0.0296    1.4661 C   0  0  0  0  0  0  0  0  0  0  0  0
    0.2455   -1.2301    1.6169 C   0  0  0  0  0  0  0  0  0  0  0  0
   -1.0062   -1.6153    0.8811 C   0  0  0  0  0  0  0  0  0  0  0  0
   -0.9461   -3.0202    0.3037 C   0  0  0  0  0  0  0  0  0  0  0  0
    0.0951   -3.4175   -0.5498 C   0  0  0  0  0  0  0  0  0  0  0  0
    0.1311   -4.7098   -1.0795 C   0  0  0  0  0  0  0  0  0  0  0  0
   -0.8782   -5.6335   -0.7755 C   0  0  0  0  0  0  0  0  0  0  0  0
   -0.8292   -7.0362   -1.3286 C   0  0  0  0  0  0  0  0  0  0  0  0
   -0.1750   -7.8980   -0.5025 F   0  0  0  0  0  0  0  0  0  0  0  0
   -2.0659   -7.5743   -1.5263 F   0  0  0  0  0  0  0  0  0  0  0  0
   -0.1955   -7.1166   -2.5322 F   0  0  0  0  0  0  0  0  0  0  0  0
   -1.9152   -5.2412    0.0826 C   0  0  0  0  0  0  0  0  0  0  0  0
   -1.9508   -3.9486    0.6127 C   0  0  0  0  0  0  0  0  0  0  0  0
   -1.3386   -0.5888   -0.2068 C   0  0  0  0  0  0  0  0  0  0  0  0
   -1.0735    0.8151    0.3291 C   0  0  0  0  0  0  0  0  0  0  0  0
   -1.3896    1.7760   -0.6814 O   0  0  0  0  0  0  0  0  0  0  0  0
   -2.7487    2.2027   -0.6414 C   0  0  0  0  0  0  0  0  0  0  0  0
   -3.0007    3.1819   -1.7836 C   0  0  0  0  0  0  0  0  0  0  0  0
   -2.7906    2.5338   -3.1573 C   0  0  0  0  0  0  0  0  0  0  0  0
   -3.0626    3.5115   -4.2940 C   0  0  0  0  0  0  0  0  0  0  0  0
   -4.4281    3.9055   -4.2968 O   0  0  0  0  0  0  0  0  0  0  0  0
    0.3102    0.9778    0.6710 O   0  0  0  0  0  0  0  0  0  0  0  0
    2.0515    2.0194    1.1936 H   0  0  0  0  0  0  0  0  0  0  0  0
    3.4044    3.8825    1.1160 H   0  0  0  0  0  0  0  0  0  0  0  0
    5.4241    5.0825    1.8490 H   0  0  0  0  0  0  0  0  0  0  0  0
    6.9806    4.0340    3.4740 H   0  0  0  0  0  0  0  0  0  0  0  0
    6.4943    1.7671    4.3603 H   0  0  0  0  0  0  0  0  0  0  0  0
    4.4948    0.5544    3.6484 H   0  0  0  0  0  0  0  0  0  0  0  0
    0.6913   -1.9747    2.2749 H   0  0  0  0  0  0  0  0  0  0  0  0
   -1.8120   -1.5870    1.6285 H   0  0  0  0  0  0  0  0  0  0  0  0
    0.8937   -2.7227   -0.8061 H   0  0  0  0  0  0  0  0  0  0  0  0
    0.9551   -4.9932   -1.7333 H   0  0  0  0  0  0  0  0  0  0  0  0
   -2.7045   -5.9454    0.3432 H   0  0  0  0  0  0  0  0  0  0  0  0
   -2.7711   -3.6760    1.2740 H   0  0  0  0  0  0  0  0  0  0  0  0
   -2.3782   -0.7032   -0.5353 H   0  0  0  0  0  0  0  0  0  0  0  0
   -0.7229   -0.7458   -1.1032 H   0  0  0  0  0  0  0  0  0  0  0  0
   -1.6658    1.0191    1.2319 H   0  0  0  0  0  0  0  0  0  0  0  0
   -3.4217    1.3430   -0.7277 H   0  0  0  0  0  0  0  0  0  0  0  0
   -2.9407    2.7048    0.3136 H   0  0  0  0  0  0  0  0  0  0  0  0
   -2.3152    4.0327   -1.6871 H   0  0  0  0  0  0  0  0  0  0  0  0
   -4.0229    3.5679   -1.7005 H   0  0  0  0  0  0  0  0  0  0  0  0
   -1.7623    2.1656   -3.2454 H   0  0  0  0  0  0  0  0  0  0  0  0
   -3.4622    1.6717   -3.2494 H   0  0  0  0  0  0  0  0  0  0  0  0
   -2.4465    4.4105   -4.1935 H   0  0  0  0  0  0  0  0  0  0  0  0
   -2.8353    3.0514   -5.2609 H   0  0  0  0  0  0  0  0  0  0  0  0
   -4.9577    3.1160   -4.5017 H   0  0  0  0  0  0  0  0  0  0  0  0
  1  2  2  0
  2  3  1  0
  3  4  1  0
  4  5  2  0
  5  6  1  0
  6  7  2  0
  7  8  1  0
  8  9  2  0
  2 10  1  0
 10 11  2  0
 11 12  1  0
 12 13  1  0
 13 14  2  0
 14 15  1  0
 15 16  2  0
 16 17  1  0
 17 18  1  0
 17 19  1  0
 17 20  1  0
 16 21  1  0
 21 22  2  0
 12 23  1  0
 23 24  1  0
 24 25  1  0
 25 26  1  0
 26 27  1  0
 27 28  1  0
 28 29  1  0
 29 30  1  0
 24 31  1  0
  9  4  1  0
 31 10  1  0
 22 13  1  0
  3 32  1  0
  5 33  1  0
  6 34  1  0
  7 35  1  0
  8 36  1  0
  9 37  1  0
 11 38  1  0
 12 39  1  0
 14 40  1  0
 15 41  1  0
 21 42  1  0
 22 43  1  0
 23 44  1  0
 23 45  1  0
 24 46  1  0
 26 47  1  0
 26 48  1  0
 27 49  1  0
 27 50  1  0
 28 51  1  0
 28 52  1  0
 29 53  1  0
 29 54  1  0
 30 55  1  0
M  END
$$$$
