
     RDKit          3D

 46 49  0  0  0  0  0  0  0  0999 V2000
    6.3621   -0.7181   -0.9859 N   0  0  0  0  0  0  0  0  0  0  0  0
    6.0381   -0.4554    0.6470 S   0  0  0  0  0  6  0  0  0  0  0  0
    6.6067    0.8385    0.9492 O   0  0  0  0  0  0  0  0  0  0  0  0
    6.3975   -1.6504    1.3717 O   0  0  0  0  0  0  0  0  0  0  0  0
    4.2736   -0.3100    0.6353 C   0  0  0  0  0  0  0  0  0  0  0  0
    3.6752    0.9478    0.6256 C   0  0  0  0  0  0  0  0  0  0  0  0
    2.2782    1.0474    0.6056 C   0  0  0  0  0  0  0  0  0  0  0  0
    1.4545   -0.0914    0.6003 C   0  0  0  0  0  0  0  0  0  0  0  0
    0.0634   -0.0090    0.5695 N   0  0  0  0  0  0  0  0  0  0  0  0
   -0.7037   -1.1386    0.6030 N   0  0  0  0  0  0  0  0  0  0  0  0
   -1.9341   -0.7647    0.7846 C   0  0  0  0  0  0  0  0  0  0  0  0
   -3.0680   -1.7163    0.8530 C   0  0  0  0  0  0  0  0  0  0  0  0
   -2.8240   -3.0784    0.6364 C   0  0  0  0  0  0  0  0  0  0  0  0
   -3.8716   -3.9994    0.6938 C   0  0  0  0  0  0  0  0  0  0  0  0
   -5.1668   -3.5647    0.9683 C   0  0  0  0  0  0  0  0  0  0  0  0
   -5.4163   -2.2103    1.1867 C   0  0  0  0  0  0  0  0  0  0  0  0
   -4.3702   -1.2852    1.1302 C   0  0  0  0  0  0  0  0  0  0  0  0
   -2.1313    0.7159    0.9578 C   0  0  0  0  0  0  0  0  0  0  0  0
   -0.7267    1.2235    0.6265 C   0  0  0  0  0  0  0  0  0  0  0  0
   -0.7235    2.0041   -0.6798 C   0  0  0  0  0  0  0  0  0  0  0  0
   -0.6975    1.3640   -1.9298 C   0  0  0  0  0  0  0  0  0  0  0  0
   -0.7214    2.1058   -3.1118 C   0  0  0  0  0  0  0  0  0  0  0  0
   -0.7784    3.4966   -3.0620 C   0  0  0  0  0  0  0  0  0  0  0  0
   -0.8130    4.1474   -1.8308 C   0  0  0  0  0  0  0  0  0  0  0  0
   -0.7890    3.4073   -0.6470 C   0  0  0  0  0  0  0  0  0  0  0  0
    2.0986   -1.3436    0.6237 C   0  0  0  0  0  0  0  0  0  0  0  0
    3.4920   -1.4622    0.6469 C   0  0  0  0  0  0  0  0  0  0  0  0
    6.8950    0.0752   -1.3460 H   0  0  0  0  0  0  0  0  0  0  0  0
    5.5210   -0.8920   -1.5357 H   0  0  0  0  0  0  0  0  0  0  0  0
    4.2762    1.8544    0.6316 H   0  0  0  0  0  0  0  0  0  0  0  0
    1.8476    2.0444    0.5878 H   0  0  0  0  0  0  0  0  0  0  0  0
   -1.8169   -3.4307    0.4218 H   0  0  0  0  0  0  0  0  0  0  0  0
   -3.6746   -5.0552    0.5248 H   0  0  0  0  0  0  0  0  0  0  0  0
   -5.9822   -4.2827    1.0134 H   0  0  0  0  0  0  0  0  0  0  0  0
   -6.4279   -1.8747    1.4024 H   0  0  0  0  0  0  0  0  0  0  0  0
   -4.5971   -0.2387    1.3087 H   0  0  0  0  0  0  0  0  0  0  0  0
   -2.9150    1.1052    0.3023 H   0  0  0  0  0  0  0  0  0  0  0  0
   -2.3846    0.9175    2.0041 H   0  0  0  0  0  0  0  0  0  0  0  0
   -0.3729    1.8640    1.4447 H   0  0  0  0  0  0  0  0  0  0  0  0
   -0.6503    0.2773   -1.9886 H   0  0  0  0  0  0  0  0  0  0  0  0
   -0.6944    1.5954   -4.0711 H   0  0  0  0  0  0  0  0  0  0  0  0
   -0.7963    4.0728   -3.9834 H   0  0  0  0  0  0  0  0  0  0  0  0
   -0.8594    5.2329   -1.7930 H   0  0  0  0  0  0  0  0  0  0  0  0
   -0.8204    3.9367    0.3030 H   0  0  0  0  0  0  0  0  0  0  0  0
    1.4999   -2.2529    0.6292 H   0  0  0  0  0  0  0  0  0  0  0  0
    3.9478   -2.4494    0.6757 H   0  0  0  0  0  0  0  0  0  0  0  0
  1  2  1  0
  2  3  2  0
  2  4  2  0
  2  5  1  0
  5  6  2  0
  6  7  1  0
  7  8  2  0
  8  9  1  0
  9 10  1  0
 10 11  2  0
 11 12  1  0
 12 13  2  0
 13 14  1  0
 14 15  2  0
 15 16  1  0
 16 17  2  0
 11 18  1  0
 18 19  1  0
 19 20  1  0
 20 21  2  0
 21 22  1  0
 22 23  2  0
 23 24  1  0
 24 25  2  0
  8 26  1  0
 26 27  2  0
 27  5  1  0
 19  9  1  0
 25 20  1  0
 17 12  1  0
  1 28  1  0
  1 29  1  0
  6 30  1  0
  7 31  1  0
 13 32  1  0
 14 33  1  0
 15 34  1  0
 16 35  1  0
 17 36  1  0
 18 37  1  0
 18 38  1  0
 19 39  1  0
 21 40  1  0
 22 41  1  0
 23 42  1  0
 24 43  1  0
 25 44  1  0
 26 45  1  0
 27 46  1  0
M  END
$$$$
