
     RDKit          3D

 45 48  0  0  0  0  0  0  0  0999 V2000
   -2.2543    0.7946   -2.4803 C   0  0  0  0  0  0  0  0  0  0  0  0
   -3.6113    0.7256   -1.7739 C   0  0  0  0  0  0  0  0  0  0  0  0
   -4.5865    1.7093   -2.4245 C   0  0  0  0  0  0  0  0  0  0  0  0
   -3.4905    1.0276   -0.2696 C   0  0  0  0  0  0  0  0  0  0  0  0
   -2.7448    0.0028    0.4580 N   0  0  0  0  0  0  0  0  0  0  0  0
   -1.4208    0.2725    0.6985 N   0  0  0  0  0  0  0  0  0  0  0  0
   -0.7115   -0.5946    1.3614 C   0  0  0  0  0  0  0  0  0  0  0  0
    0.7499   -0.2074    1.5742 C   0  0  0  0  0  0  0  0  0  0  0  0
    1.2839   -0.4246    2.6489 O   0  0  0  0  0  0  0  0  0  0  0  0
    1.2698    0.3872    0.4529 N   0  0  0  0  0  0  0  0  0  0  0  0
    2.5704    0.7877    0.3808 C   0  0  0  0  0  0  0  0  0  0  0  0
    3.5508    0.6367    1.2377 N   0  0  0  0  0  0  0  0  0  0  0  0
    4.7322    1.1805    0.7618 N   0  0  0  0  0  0  0  0  0  0  0  0
    4.5760    1.7065   -0.4340 C   0  0  0  0  0  0  0  0  0  0  0  0
    5.7479    2.3723   -1.2233 C   0  0  0  0  0  0  0  0  0  0  0  0
    7.1701    2.1511   -0.7795 C   0  0  0  0  0  0  0  0  0  0  0  0
    6.6633    1.4831   -2.0252 C   0  0  0  0  0  0  0  0  0  0  0  0
    2.9886    1.5901   -1.0686 S   0  0  0  0  0  0  0  0  0  0  0  0
   -1.2352   -1.8840    1.8437 C   0  0  0  0  0  0  0  0  0  0  0  0
   -0.4571   -2.8415    2.5068 C   0  0  0  0  0  0  0  0  0  0  0  0
   -1.0306   -4.0482    2.9201 C   0  0  0  0  0  0  0  0  0  0  0  0
   -2.3762   -4.3085    2.6699 C   0  0  0  0  0  0  0  0  0  0  0  0
   -3.1514   -3.3621    2.0019 C   0  0  0  0  0  0  0  0  0  0  0  0
   -2.5770   -2.1517    1.5870 C   0  0  0  0  0  0  0  0  0  0  0  0
   -3.3941   -1.1633    0.8593 C   0  0  0  0  0  0  0  0  0  0  0  0
   -4.5773   -1.4043    0.6325 O   0  0  0  0  0  0  0  0  0  0  0  0
   -1.5733    0.0203   -2.1104 H   0  0  0  0  0  0  0  0  0  0  0  0
   -1.7771    1.7700   -2.3308 H   0  0  0  0  0  0  0  0  0  0  0  0
   -2.3705    0.6384   -3.5582 H   0  0  0  0  0  0  0  0  0  0  0  0
   -4.0131   -0.2871   -1.9089 H   0  0  0  0  0  0  0  0  0  0  0  0
   -5.5729    1.6544   -1.9494 H   0  0  0  0  0  0  0  0  0  0  0  0
   -4.7176    1.4803   -3.4873 H   0  0  0  0  0  0  0  0  0  0  0  0
   -4.2258    2.7402   -2.3423 H   0  0  0  0  0  0  0  0  0  0  0  0
   -3.0064    1.9983   -0.1041 H   0  0  0  0  0  0  0  0  0  0  0  0
   -4.4915    1.0895    0.1750 H   0  0  0  0  0  0  0  0  0  0  0  0
    0.6456    0.6203   -0.3080 H   0  0  0  0  0  0  0  0  0  0  0  0
    5.5127    3.3507   -1.6328 H   0  0  0  0  0  0  0  0  0  0  0  0
    7.3491    1.5372    0.0995 H   0  0  0  0  0  0  0  0  0  0  0  0
    7.8716    2.9731   -0.8884 H   0  0  0  0  0  0  0  0  0  0  0  0
    7.0189    1.8512   -2.9811 H   0  0  0  0  0  0  0  0  0  0  0  0
    6.5141    0.4072   -1.9890 H   0  0  0  0  0  0  0  0  0  0  0  0
    0.5968   -2.6794    2.7217 H   0  0  0  0  0  0  0  0  0  0  0  0
   -0.4227   -4.7857    3.4412 H   0  0  0  0  0  0  0  0  0  0  0  0
   -2.8208   -5.2472    2.9927 H   0  0  0  0  0  0  0  0  0  0  0  0
   -4.2014   -3.5693    1.8021 H   0  0  0  0  0  0  0  0  0  0  0  0
  1  2  1  0
  2  3  1  0
  2  4  1  0
  4  5  1  0
  5  6  1  0
  6  7  2  0
  7  8  1  0
  8  9  2  0
  8 10  1  0
 10 11  1  0
 11 12  2  0
 12 13  1  0
 13 14  2  0
 14 15  1  0
 15 16  1  0
 16 17  1  0
 14 18  1  0
  7 19  1  0
 19 20  2  0
 20 21  1  0
 21 22  2  0
 22 23  1  0
 23 24  2  0
 24 25  1  0
 25 26  2  0
 25  5  1  0
 18 11  1  0
 24 19  1  0
 17 15  1  0
  1 27  1  0
  1 28  1  0
  1 29  1  0
  2 30  1  0
  3 31  1  0
  3 32  1  0
  3 33  1  0
  4 34  1  0
  4 35  1  0
 10 36  1  0
 15 37  1  0
 16 38  1  0
 16 39  1  0
 17 40  1  0
 17 41  1  0
 20 42  1  0
 21 43  1  0
 22 44  1  0
 23 45  1  0
M  END
$$$$
