
     RDKit          3D

 46 48  0  0  0  0  0  0  0  0999 V2000
   -0.3823    0.7171    1.2286 O   0  0  0  0  0  0  0  0  0  0  0  0
   -0.3561   -0.0156    0.2462 C   0  0  0  0  0  0  0  0  0  0  0  0
    0.9228   -0.6807   -0.2359 C   0  0  0  0  0  0  0  0  0  0  0  0
    2.0483   -0.5431    0.7927 C   0  0  0  0  0  0  0  0  0  0  0  0
    3.2508   -1.3001    0.4176 N   0  0  0  0  0  0  0  0  0  0  0  0
    3.9560   -0.8309   -0.7758 C   0  0  0  0  0  0  0  0  0  0  0  0
    4.5914    0.5591   -0.7264 C   0  0  0  0  0  0  0  0  0  0  0  0
    5.6451    0.7426    0.3651 C   0  0  0  0  0  0  0  0  0  0  0  0
    5.0397    0.9039    1.7547 C   0  0  0  0  0  0  0  0  0  0  0  0
    4.5542   -0.3762    2.4329 C   0  0  0  0  0  0  0  0  0  0  0  0
    4.1548   -1.5549    1.5403 C   0  0  0  0  0  0  0  0  0  0  0  0
   -1.4282   -0.3306   -0.5755 N   0  0  0  0  0  0  0  0  0  0  0  0
   -2.7646    0.1041   -0.4545 C   0  0  0  0  0  0  0  0  0  0  0  0
   -3.2143    0.9872    0.5309 C   0  0  0  0  0  0  0  0  0  0  0  0
   -4.5591    1.3744    0.5792 C   0  0  0  0  0  0  0  0  0  0  0  0
   -5.4606    0.8860   -0.3615 C   0  0  0  0  0  0  0  0  0  0  0  0
   -5.0259   -0.0162   -1.3335 C   0  0  0  0  0  0  0  0  0  0  0  0
   -3.6832   -0.3943   -1.3884 C   0  0  0  0  0  0  0  0  0  0  0  0
   -5.8595   -0.5668   -2.2756 O   0  0  0  0  0  0  0  0  0  0  0  0
   -7.2369   -0.3734   -1.9319 C   0  0  0  0  0  0  0  0  0  0  0  0
   -7.4833    1.0533   -1.4708 C   0  0  0  0  0  0  0  0  0  0  0  0
   -6.7554    1.3274   -0.2696 O   0  0  0  0  0  0  0  0  0  0  0  0
    1.1992   -0.2048   -1.1834 H   0  0  0  0  0  0  0  0  0  0  0  0
    0.7175   -1.7422   -0.4237 H   0  0  0  0  0  0  0  0  0  0  0  0
    2.2718    0.5166    0.9611 H   0  0  0  0  0  0  0  0  0  0  0  0
    1.6695   -0.9352    1.7468 H   0  0  0  0  0  0  0  0  0  0  0  0
    4.7372   -1.5607   -1.0291 H   0  0  0  0  0  0  0  0  0  0  0  0
    3.2770   -0.8681   -1.6362 H   0  0  0  0  0  0  0  0  0  0  0  0
    3.8167    1.3295   -0.6403 H   0  0  0  0  0  0  0  0  0  0  0  0
    5.0790    0.7310   -1.6954 H   0  0  0  0  0  0  0  0  0  0  0  0
    6.3768   -0.0728    0.3467 H   0  0  0  0  0  0  0  0  0  0  0  0
    6.2008    1.6612    0.1360 H   0  0  0  0  0  0  0  0  0  0  0  0
    4.2145    1.6251    1.7103 H   0  0  0  0  0  0  0  0  0  0  0  0
    5.7877    1.3664    2.4111 H   0  0  0  0  0  0  0  0  0  0  0  0
    5.3536   -0.7316    3.0969 H   0  0  0  0  0  0  0  0  0  0  0  0
    3.7211   -0.1186    3.1003 H   0  0  0  0  0  0  0  0  0  0  0  0
    3.6766   -2.3050    2.1854 H   0  0  0  0  0  0  0  0  0  0  0  0
    5.0626   -2.0569    1.1788 H   0  0  0  0  0  0  0  0  0  0  0  0
   -1.2390   -0.9647   -1.3431 H   0  0  0  0  0  0  0  0  0  0  0  0
   -2.5428    1.4024    1.2761 H   0  0  0  0  0  0  0  0  0  0  0  0
   -4.8938    2.0690    1.3449 H   0  0  0  0  0  0  0  0  0  0  0  0
   -3.3720   -1.0891   -2.1630 H   0  0  0  0  0  0  0  0  0  0  0  0
   -7.5070   -1.0989   -1.1552 H   0  0  0  0  0  0  0  0  0  0  0  0
   -7.8327   -0.5906   -2.8231 H   0  0  0  0  0  0  0  0  0  0  0  0
   -7.1819    1.7808   -2.2344 H   0  0  0  0  0  0  0  0  0  0  0  0
   -8.5459    1.2040   -1.2564 H   0  0  0  0  0  0  0  0  0  0  0  0
  1  2  2  0
  2  3  1  0
  3  4  1  0
  4  5  1  0
  5  6  1  0
  6  7  1  0
  7  8  1  0
  8  9  1  0
  9 10  1  0
 10 11  1  0
  2 12  1  0
 12 13  1  0
 13 14  2  0
 14 15  1  0
 15 16  2  0
 16 17  1  0
 17 18  2  0
 17 19  1  0
 19 20  1  0
 20 21  1  0
 21 22  1  0
 11  5  1  0
 18 13  1  0
 22 16  1  0
  3 23  1  0
  3 24  1  0
  4 25  1  0
  4 26  1  0
  6 27  1  0
  6 28  1  0
  7 29  1  0
  7 30  1  0
  8 31  1  0
  8 32  1  0
  9 33  1  0
  9 34  1  0
 10 35  1  0
 10 36  1  0
 11 37  1  0
 11 38  1  0
 12 39  1  0
 14 40  1  0
 15 41  1  0
 18 42  1  0
 20 43  1  0
 20 44  1  0
 21 45  1  0
 21 46  1  0
M  END
$$$$
