
     RDKit          3D

 54 57  0  0  0  0  0  0  0  0999 V2000
    8.1184   -1.9697    1.7256 C   0  0  0  0  0  0  0  0  0  0  0  0
    6.7394   -1.6631    1.8824 O   0  0  0  0  0  0  0  0  0  0  0  0
    6.0432   -1.3271    0.7527 C   0  0  0  0  0  0  0  0  0  0  0  0
    6.5699   -1.2496   -0.5360 C   0  0  0  0  0  0  0  0  0  0  0  0
    5.7468   -0.8901   -1.6035 C   0  0  0  0  0  0  0  0  0  0  0  0
    4.3973   -0.6089   -1.3849 C   0  0  0  0  0  0  0  0  0  0  0  0
    3.8538   -0.6856   -0.0974 C   0  0  0  0  0  0  0  0  0  0  0  0
    2.4831   -0.3791    0.0367 N   0  0  0  0  0  0  0  0  0  0  0  0
    1.7175   -0.4250    1.1872 C   0  0  0  0  0  0  0  0  0  0  0  0
    2.0736   -0.8008    2.2969 O   0  0  0  0  0  0  0  0  0  0  0  0
    0.3122    0.0110    0.9551 C   0  0  0  0  0  0  0  0  0  0  0  0
   -0.6716   -0.6617    1.5739 C   0  0  0  0  0  0  0  0  0  0  0  0
   -2.0796   -0.3870    1.3299 C   0  0  0  0  0  0  0  0  0  0  0  0
   -3.1164   -1.1636    2.0676 C   0  0  0  0  0  0  0  0  0  0  0  0
   -2.7763   -2.0243    2.8820 O   0  0  0  0  0  0  0  0  0  0  0  0
   -4.4321   -0.8566    1.7692 N   0  0  0  0  0  0  0  0  0  0  0  0
   -5.4585   -1.5299    2.4239 C   0  0  0  0  0  0  0  0  0  0  0  0
   -6.7467   -1.2750    2.1640 C   0  0  0  0  0  0  0  0  0  0  0  0
   -7.0962   -0.2825    1.1835 C   0  0  0  0  0  0  0  0  0  0  0  0
   -6.1407    0.3878    0.5289 C   0  0  0  0  0  0  0  0  0  0  0  0
   -4.7052    0.1067    0.8167 C   0  0  0  0  0  0  0  0  0  0  0  0
   -3.8040    0.7698    0.1673 N   0  0  0  0  0  0  0  0  0  0  0  0
   -2.4708    0.5346    0.4191 C   0  0  0  0  0  0  0  0  0  0  0  0
   -1.4739    1.2688   -0.2743 N   0  0  0  0  0  0  0  0  0  0  0  0
   -1.8840    2.2844   -1.2649 C   0  0  0  0  0  0  0  0  0  0  0  0
   -2.2186    1.6486   -2.6294 C   0  0  0  0  0  0  0  0  0  0  0  0
   -2.8497    2.6975   -3.5481 C   0  0  0  0  0  0  0  0  0  0  0  0
   -0.9860    1.0449   -3.3054 C   0  0  0  0  0  0  0  0  0  0  0  0
   -0.1131    1.1065    0.0180 C   0  0  0  0  0  0  0  0  0  0  0  0
    0.7805    1.8962   -0.5107 N   0  0  0  0  0  0  0  0  0  0  0  0
    4.6868   -1.0434    0.9646 C   0  0  0  0  0  0  0  0  0  0  0  0
    8.6746   -1.1051    1.3485 H   0  0  0  0  0  0  0  0  0  0  0  0
    8.5200   -2.2188    2.7126 H   0  0  0  0  0  0  0  0  0  0  0  0
    8.2580   -2.8428    1.0796 H   0  0  0  0  0  0  0  0  0  0  0  0
    7.6136   -1.4604   -0.7424 H   0  0  0  0  0  0  0  0  0  0  0  0
    6.1582   -0.8278   -2.6079 H   0  0  0  0  0  0  0  0  0  0  0  0
    3.7813   -0.3290   -2.2360 H   0  0  0  0  0  0  0  0  0  0  0  0
    2.0022   -0.1453   -0.8275 H   0  0  0  0  0  0  0  0  0  0  0  0
   -0.4344   -1.4738    2.2598 H   0  0  0  0  0  0  0  0  0  0  0  0
   -5.1702   -2.2762    3.1604 H   0  0  0  0  0  0  0  0  0  0  0  0
   -7.5404   -1.8052    2.6806 H   0  0  0  0  0  0  0  0  0  0  0  0
   -8.1469   -0.0924    0.9894 H   0  0  0  0  0  0  0  0  0  0  0  0
   -6.3611    1.1423   -0.2158 H   0  0  0  0  0  0  0  0  0  0  0  0
   -1.1172    3.0582   -1.3940 H   0  0  0  0  0  0  0  0  0  0  0  0
   -2.7579    2.8299   -0.8845 H   0  0  0  0  0  0  0  0  0  0  0  0
   -2.9516    0.8447   -2.4899 H   0  0  0  0  0  0  0  0  0  0  0  0
   -2.1606    3.5280   -3.7359 H   0  0  0  0  0  0  0  0  0  0  0  0
   -3.1209    2.2572   -4.5135 H   0  0  0  0  0  0  0  0  0  0  0  0
   -3.7620    3.1071   -3.1016 H   0  0  0  0  0  0  0  0  0  0  0  0
   -1.2429    0.6435   -4.2917 H   0  0  0  0  0  0  0  0  0  0  0  0
   -0.5745    0.2193   -2.7167 H   0  0  0  0  0  0  0  0  0  0  0  0
   -0.1995    1.7947   -3.4421 H   0  0  0  0  0  0  0  0  0  0  0  0
    1.7207    1.7291   -0.1340 H   0  0  0  0  0  0  0  0  0  0  0  0
    4.3125   -1.1108    1.9817 H   0  0  0  0  0  0  0  0  0  0  0  0
  1  2  1  0
  2  3  1  0
  3  4  2  0
  4  5  1  0
  5  6  2  0
  6  7  1  0
  7  8  1  0
  8  9  1  0
  9 10  2  0
  9 11  1  0
 11 12  2  0
 12 13  1  0
 13 14  1  0
 14 15  2  0
 14 16  1  0
 16 17  1  0
 17 18  2  0
 18 19  1  0
 19 20  2  0
 20 21  1  0
 21 22  2  0
 22 23  1  0
 23 24  1  0
 24 25  1  0
 25 26  1  0
 26 27  1  0
 26 28  1  0
 24 29  1  0
 29 30  2  3
  7 31  2  0
 31  3  1  0
 29 11  1  0
 23 13  2  0
 21 16  1  0
  1 32  1  0
  1 33  1  0
  1 34  1  0
  4 35  1  0
  5 36  1  0
  6 37  1  0
  8 38  1  0
 12 39  1  0
 17 40  1  0
 18 41  1  0
 19 42  1  0
 20 43  1  0
 25 44  1  0
 25 45  1  0
 26 46  1  0
 27 47  1  0
 27 48  1  0
 27 49  1  0
 28 50  1  0
 28 51  1  0
 28 52  1  0
 30 53  1  0
 31 54  1  0
M  END
$$$$
