
     RDKit          3D

 45 48  0  0  0  0  0  0  0  0999 V2000
    1.0827   -2.5427    0.2449 O   0  0  0  0  0  0  0  0  0  0  0  0
   -0.1347   -2.4051    0.1642 C   0  0  0  0  0  0  0  0  0  0  0  0
   -0.8031   -1.2166    0.2795 N   0  0  0  0  0  0  0  0  0  0  0  0
   -0.4504   -0.2275   -0.4609 C   0  0  0  0  0  0  0  0  0  0  0  0
    0.5601   -0.2685   -1.3730 N   0  0  0  0  0  0  0  0  0  0  0  0
    1.7207    0.1120   -0.9447 C   0  0  0  0  0  0  0  0  0  0  0  0
    2.8805    0.0808   -1.6842 N   0  0  0  0  0  0  0  0  0  0  0  0
    3.8959    0.3591   -0.7962 C   0  0  0  0  0  0  0  0  0  0  0  0
    5.2590    0.4135   -0.9681 C   0  0  0  0  0  0  0  0  0  0  0  0
    6.0346    0.8164    0.1256 C   0  0  0  0  0  0  0  0  0  0  0  0
    5.4322    1.1703    1.3493 C   0  0  0  0  0  0  0  0  0  0  0  0
    4.0440    1.1318    1.4972 C   0  0  0  0  0  0  0  0  0  0  0  0
    3.3086    0.7302    0.4040 C   0  0  0  0  0  0  0  0  0  0  0  0
    1.9255    0.6195    0.3497 O   0  0  0  0  0  0  0  0  0  0  0  0
   -1.1110    0.9739   -0.4389 N   0  0  0  0  0  0  0  0  0  0  0  0
   -2.2178    1.3120    0.3189 C   0  0  0  0  0  0  0  0  0  0  0  0
   -2.9831    0.5303    0.8703 O   0  0  0  0  0  0  0  0  0  0  0  0
   -2.5309    2.7683    0.3449 C   0  0  0  0  0  0  0  0  0  0  0  0
   -3.8723    3.1649    0.4062 C   0  0  0  0  0  0  0  0  0  0  0  0
   -4.2013    4.5210    0.4293 C   0  0  0  0  0  0  0  0  0  0  0  0
   -3.1924    5.4835    0.4023 C   0  0  0  0  0  0  0  0  0  0  0  0
   -1.8534    5.0941    0.3614 C   0  0  0  0  0  0  0  0  0  0  0  0
   -1.5186    3.7383    0.3370 C   0  0  0  0  0  0  0  0  0  0  0  0
   -0.9991   -3.6109   -0.0246 C   0  0  0  0  0  0  0  0  0  0  0  0
   -2.3977   -3.5151    0.0015 C   0  0  0  0  0  0  0  0  0  0  0  0
   -3.1826   -4.6559   -0.1811 C   0  0  0  0  0  0  0  0  0  0  0  0
   -2.5771   -5.8949   -0.3895 C   0  0  0  0  0  0  0  0  0  0  0  0
   -1.1865   -5.9986   -0.4139 C   0  0  0  0  0  0  0  0  0  0  0  0
   -0.3981   -4.8604   -0.2313 C   0  0  0  0  0  0  0  0  0  0  0  0
    2.9821   -0.6472   -2.3734 H   0  0  0  0  0  0  0  0  0  0  0  0
    5.7233    0.1588   -1.9139 H   0  0  0  0  0  0  0  0  0  0  0  0
    7.1176    0.8616    0.0304 H   0  0  0  0  0  0  0  0  0  0  0  0
    6.0558    1.4772    2.1862 H   0  0  0  0  0  0  0  0  0  0  0  0
    3.5649    1.3986    2.4318 H   0  0  0  0  0  0  0  0  0  0  0  0
   -0.7090    1.6667   -1.0481 H   0  0  0  0  0  0  0  0  0  0  0  0
   -4.6630    2.4173    0.4357 H   0  0  0  0  0  0  0  0  0  0  0  0
   -5.2442    4.8252    0.4743 H   0  0  0  0  0  0  0  0  0  0  0  0
   -3.4507    6.5398    0.4260 H   0  0  0  0  0  0  0  0  0  0  0  0
   -1.0703    5.8488    0.3612 H   0  0  0  0  0  0  0  0  0  0  0  0
   -0.4685    3.4585    0.3443 H   0  0  0  0  0  0  0  0  0  0  0  0
   -2.8855   -2.5566    0.1723 H   0  0  0  0  0  0  0  0  0  0  0  0
   -4.2665   -4.5753   -0.1562 H   0  0  0  0  0  0  0  0  0  0  0  0
   -3.1905   -6.7816   -0.5292 H   0  0  0  0  0  0  0  0  0  0  0  0
   -0.7152   -6.9651   -0.5725 H   0  0  0  0  0  0  0  0  0  0  0  0
    0.6859   -4.9502   -0.2489 H   0  0  0  0  0  0  0  0  0  0  0  0
  1  2  2  0
  2  3  1  0
  3  4  2  3
  4  5  1  0
  5  6  2  3
  6  7  1  0
  7  8  1  0
  8  9  2  0
  9 10  1  0
 10 11  2  0
 11 12  1  0
 12 13  2  0
 13 14  1  0
  4 15  1  0
 15 16  1  0
 16 17  2  0
 16 18  1  0
 18 19  2  0
 19 20  1  0
 20 21  2  0
 21 22  1  0
 22 23  2  0
  2 24  1  0
 24 25  2  0
 25 26  1  0
 26 27  2  0
 27 28  1  0
 28 29  2  0
 14  6  1  0
 23 18  1  0
 29 24  1  0
 13  8  1  0
  7 30  1  0
  9 31  1  0
 10 32  1  0
 11 33  1  0
 12 34  1  0
 15 35  1  0
 19 36  1  0
 20 37  1  0
 21 38  1  0
 22 39  1  0
 23 40  1  0
 25 41  1  0
 26 42  1  0
 27 43  1  0
 28 44  1  0
 29 45  1  0
M  END
$$$$
