
     RDKit          3D

 56 60  0  0  0  0  0  0  0  0999 V2000
    4.3874   -4.1279    2.1209 C   0  0  0  0  0  0  0  0  0  0  0  0
    3.9990   -3.7393    0.7039 C   0  0  0  0  0  0  0  0  0  0  0  0
    3.6637   -2.3403    0.5999 N   0  0  0  0  0  0  0  0  0  0  0  0
    4.5655   -1.3249    0.2989 C   0  0  0  0  0  0  0  0  0  0  0  0
    5.7485   -1.3963    0.0310 O   0  0  0  0  0  0  0  0  0  0  0  0
    3.7800   -0.0754    0.3775 C   0  0  0  0  0  0  0  0  0  0  0  0
    4.1401    1.2387    0.1674 C   0  0  0  0  0  0  0  0  0  0  0  0
    3.1459    2.2104    0.3328 C   0  0  0  0  0  0  0  0  0  0  0  0
    1.8270    1.8529    0.7020 C   0  0  0  0  0  0  0  0  0  0  0  0
    1.4573    0.4930    0.9180 C   0  0  0  0  0  0  0  0  0  0  0  0
    0.2200   -0.1158    1.2776 C   0  0  0  0  0  0  0  0  0  0  0  0
   -1.2428    0.8735    1.5229 S   0  0  0  0  0  6  0  0  0  0  0  0
   -2.2977   -0.0013    2.0002 O   0  0  0  0  0  0  0  0  0  0  0  0
   -0.8510    2.0192    2.3168 O   0  0  0  0  0  0  0  0  0  0  0  0
   -1.6526    1.3760   -0.0369 N   0  0  0  0  0  0  0  0  0  0  0  0
   -1.6792    2.7271   -0.4660 C   0  0  0  0  0  0  0  0  0  0  0  0
   -1.1936    3.1104   -1.5244 O   0  0  0  0  0  0  0  0  0  0  0  0
   -2.4150    3.6986    0.3761 C   0  0  0  0  0  0  0  0  0  0  0  0
   -3.4870    3.3540    1.2042 C   0  0  0  0  0  0  0  0  0  0  0  0
   -4.1179    4.3463    1.9531 C   0  0  0  0  0  0  0  0  0  0  0  0
   -3.6645    5.6510    1.8370 C   0  0  0  0  0  0  0  0  0  0  0  0
   -2.6471    6.0213    1.0295 N   0  0  0  0  0  0  0  0  0  0  0  0
   -2.0468    5.0373    0.3150 C   0  0  0  0  0  0  0  0  0  0  0  0
   -1.7504    0.3688   -1.0542 C   0  0  0  0  0  0  0  0  0  0  0  0
   -2.8474   -0.4967   -1.0614 C   0  0  0  0  0  0  0  0  0  0  0  0
   -2.9357   -1.5232   -2.0087 C   0  0  0  0  0  0  0  0  0  0  0  0
   -1.9246   -1.6926   -2.9545 C   0  0  0  0  0  0  0  0  0  0  0  0
   -1.8845   -2.6528   -3.9262 O   0  0  0  0  0  0  0  0  0  0  0  0
   -3.0011   -3.5291   -4.0143 C   0  0  0  0  0  0  0  0  0  0  0  0
   -0.8285   -0.8267   -2.9444 C   0  0  0  0  0  0  0  0  0  0  0  0
   -0.7384    0.1996   -2.0013 C   0  0  0  0  0  0  0  0  0  0  0  0
    0.1125   -1.5228    1.4459 C   0  0  0  0  0  0  0  0  0  0  0  0
    1.2170   -2.3645    1.2439 C   0  0  0  0  0  0  0  0  0  0  0  0
    2.4092   -1.7779    0.8788 C   0  0  0  0  0  0  0  0  0  0  0  0
    2.4989   -0.4154    0.7333 C   0  0  0  0  0  0  0  0  0  0  0  0
    3.5615   -3.9565    2.8188 H   0  0  0  0  0  0  0  0  0  0  0  0
    4.6572   -5.1875    2.1645 H   0  0  0  0  0  0  0  0  0  0  0  0
    5.2444   -3.5411    2.4679 H   0  0  0  0  0  0  0  0  0  0  0  0
    4.8457   -3.9389    0.0372 H   0  0  0  0  0  0  0  0  0  0  0  0
    3.1558   -4.3433    0.3527 H   0  0  0  0  0  0  0  0  0  0  0  0
    5.1549    1.5025   -0.1114 H   0  0  0  0  0  0  0  0  0  0  0  0
    3.3909    3.2604    0.1801 H   0  0  0  0  0  0  0  0  0  0  0  0
    1.1036    2.6555    0.8261 H   0  0  0  0  0  0  0  0  0  0  0  0
   -3.8494    2.3324    1.2721 H   0  0  0  0  0  0  0  0  0  0  0  0
   -4.9459    4.1074    2.6122 H   0  0  0  0  0  0  0  0  0  0  0  0
   -4.1239    6.4568    2.4032 H   0  0  0  0  0  0  0  0  0  0  0  0
   -1.2351    5.3747   -0.3256 H   0  0  0  0  0  0  0  0  0  0  0  0
   -3.6431   -0.3855   -0.3281 H   0  0  0  0  0  0  0  0  0  0  0  0
   -3.8042   -2.1729   -1.9768 H   0  0  0  0  0  0  0  0  0  0  0  0
   -3.1016   -4.1311   -3.1053 H   0  0  0  0  0  0  0  0  0  0  0  0
   -3.9220   -2.9760   -4.2268 H   0  0  0  0  0  0  0  0  0  0  0  0
   -2.8236   -4.2139   -4.8492 H   0  0  0  0  0  0  0  0  0  0  0  0
   -0.0374   -0.9501   -3.6809 H   0  0  0  0  0  0  0  0  0  0  0  0
    0.1246    0.8607   -2.0212 H   0  0  0  0  0  0  0  0  0  0  0  0
   -0.8395   -1.9719    1.7273 H   0  0  0  0  0  0  0  0  0  0  0  0
    1.1207   -3.4372    1.3690 H   0  0  0  0  0  0  0  0  0  0  0  0
  1  2  1  0
  2  3  1  0
  3  4  1  0
  4  5  2  0
  4  6  1  0
  6  7  2  0
  7  8  1  0
  8  9  2  0
  9 10  1  0
 10 11  2  0
 11 12  1  0
 12 13  2  0
 12 14  2  0
 12 15  1  0
 15 16  1  0
 16 17  2  0
 16 18  1  0
 18 19  2  0
 19 20  1  0
 20 21  2  0
 21 22  1  0
 22 23  2  0
 15 24  1  0
 24 25  2  0
 25 26  1  0
 26 27  2  0
 27 28  1  0
 28 29  1  0
 27 30  1  0
 30 31  2  0
 11 32  1  0
 32 33  2  0
 33 34  1  0
 34 35  2  0
 34  3  1  0
 35  6  1  0
 35 10  1  0
 23 18  1  0
 31 24  1  0
  1 36  1  0
  1 37  1  0
  1 38  1  0
  2 39  1  0
  2 40  1  0
  7 41  1  0
  8 42  1  0
  9 43  1  0
 19 44  1  0
 20 45  1  0
 21 46  1  0
 23 47  1  0
 25 48  1  0
 26 49  1  0
 29 50  1  0
 29 51  1  0
 29 52  1  0
 30 53  1  0
 31 54  1  0
 32 55  1  0
 33 56  1  0
M  END
$$$$
