
     RDKit          3D

 56 58  0  0  0  0  0  0  0  0999 V2000
   -6.2491    3.9767    0.0952 C   0  0  0  0  0  0  0  0  0  0  0  0
   -5.9766    3.0721   -1.0904 C   0  0  0  0  0  0  0  0  0  0  0  0
   -5.4283    1.8194   -0.6493 O   0  0  0  0  0  0  0  0  0  0  0  0
   -4.0898    1.8054   -0.3940 C   0  0  0  0  0  0  0  0  0  0  0  0
   -3.3338    2.7481   -0.5736 O   0  0  0  0  0  0  0  0  0  0  0  0
   -3.6572    0.4437    0.0858 C   0  0  0  0  0  0  0  0  0  0  0  0
   -2.8681    0.5757    1.3645 C   0  0  0  0  0  0  0  0  0  0  0  0
   -3.4230    0.7422    2.4515 O   0  0  0  0  0  0  0  0  0  0  0  0
   -1.3895    0.5683    1.3230 C   0  0  0  0  0  0  0  0  0  0  0  0
   -0.7230    0.3802    0.1746 C   0  0  0  0  0  0  0  0  0  0  0  0
    0.7302    0.4079    0.1162 C   0  0  0  0  0  0  0  0  0  0  0  0
    1.5364   -0.2274    0.9822 C   0  0  0  0  0  0  0  0  0  0  0  0
    3.0020   -0.1847    0.9127 C   0  0  0  0  0  0  0  0  0  0  0  0
    3.7011   -0.2859   -0.2903 C   0  0  0  0  0  0  0  0  0  0  0  0
    5.1044   -0.2575   -0.3056 C   0  0  0  0  0  0  0  0  0  0  0  0
    5.8689   -0.1257    0.8678 C   0  0  0  0  0  0  0  0  0  0  0  0
    7.2703   -0.1006    0.8326 N   0  0  0  0  0  0  0  0  0  0  0  0
    7.9046    0.4365   -0.3721 C   0  0  0  0  0  0  0  0  0  0  0  0
    8.0076    0.1207    2.0753 C   0  0  0  0  0  0  0  0  0  0  0  0
    5.1401   -0.0681    2.0685 C   0  0  0  0  0  0  0  0  0  0  0  0
    3.7367   -0.0956    2.0953 C   0  0  0  0  0  0  0  0  0  0  0  0
   -1.4183    0.1650   -1.1477 C   0  0  0  0  0  0  0  0  0  0  0  0
   -2.8961   -0.2715   -1.0429 C   0  0  0  0  0  0  0  0  0  0  0  0
   -3.0923   -1.7839   -0.9691 C   0  0  0  0  0  0  0  0  0  0  0  0
   -2.3411   -2.6166   -0.1241 C   0  0  0  0  0  0  0  0  0  0  0  0
   -2.5837   -3.9934   -0.0829 C   0  0  0  0  0  0  0  0  0  0  0  0
   -3.5776   -4.5584   -0.8820 C   0  0  0  0  0  0  0  0  0  0  0  0
   -4.3343   -3.7468   -1.7228 C   0  0  0  0  0  0  0  0  0  0  0  0
   -4.0943   -2.3708   -1.7637 C   0  0  0  0  0  0  0  0  0  0  0  0
   -6.8751    3.4705    0.8308 H   0  0  0  0  0  0  0  0  0  0  0  0
   -5.3173    4.2464    0.6062 H   0  0  0  0  0  0  0  0  0  0  0  0
   -6.7495    4.8966   -0.2206 H   0  0  0  0  0  0  0  0  0  0  0  0
   -5.3219    3.5507   -1.8230 H   0  0  0  0  0  0  0  0  0  0  0  0
   -6.9209    2.8489   -1.6020 H   0  0  0  0  0  0  0  0  0  0  0  0
   -4.5582   -0.1307    0.3436 H   0  0  0  0  0  0  0  0  0  0  0  0
   -0.8957    0.7463    2.2725 H   0  0  0  0  0  0  0  0  0  0  0  0
    1.1547    0.9803   -0.7078 H   0  0  0  0  0  0  0  0  0  0  0  0
    1.1244   -0.7973    1.8114 H   0  0  0  0  0  0  0  0  0  0  0  0
    3.1732   -0.4044   -1.2338 H   0  0  0  0  0  0  0  0  0  0  0  0
    5.5858   -0.3617   -1.2741 H   0  0  0  0  0  0  0  0  0  0  0  0
    8.9893    0.5133   -0.2460 H   0  0  0  0  0  0  0  0  0  0  0  0
    7.7470   -0.2224   -1.2320 H   0  0  0  0  0  0  0  0  0  0  0  0
    7.5287    1.4385   -0.6034 H   0  0  0  0  0  0  0  0  0  0  0  0
    7.7599   -0.6398    2.8228 H   0  0  0  0  0  0  0  0  0  0  0  0
    7.8073    1.1188    2.4821 H   0  0  0  0  0  0  0  0  0  0  0  0
    9.0890    0.0383    1.9098 H   0  0  0  0  0  0  0  0  0  0  0  0
    5.6431    0.0125    3.0281 H   0  0  0  0  0  0  0  0  0  0  0  0
    3.2315   -0.0353    3.0578 H   0  0  0  0  0  0  0  0  0  0  0  0
   -0.8659   -0.5676   -1.7497 H   0  0  0  0  0  0  0  0  0  0  0  0
   -1.3718    1.1128   -1.7011 H   0  0  0  0  0  0  0  0  0  0  0  0
   -3.3437    0.0308   -2.0028 H   0  0  0  0  0  0  0  0  0  0  0  0
   -1.5577   -2.2225    0.5193 H   0  0  0  0  0  0  0  0  0  0  0  0
   -1.9962   -4.6256    0.5780 H   0  0  0  0  0  0  0  0  0  0  0  0
   -3.7673   -5.6290   -0.8467 H   0  0  0  0  0  0  0  0  0  0  0  0
   -5.1172   -4.1840   -2.3459 H   0  0  0  0  0  0  0  0  0  0  0  0
   -4.7017   -1.7595   -2.4264 H   0  0  0  0  0  0  0  0  0  0  0  0
  1  2  1  0
  2  3  1  0
  3  4  1  0
  4  5  2  0
  4  6  1  0
  6  7  1  0
  7  8  2  0
  7  9  1  0
  9 10  2  0
 10 11  1  0
 11 12  2  3
 12 13  1  0
 13 14  2  0
 14 15  1  0
 15 16  2  0
 16 17  1  0
 17 18  1  0
 17 19  1  0
 16 20  1  0
 20 21  2  0
 10 22  1  0
 22 23  1  0
 23 24  1  0
 24 25  2  0
 25 26  1  0
 26 27  2  0
 27 28  1  0
 28 29  2  0
 23  6  1  0
 29 24  1  0
 21 13  1  0
  1 30  1  0
  1 31  1  0
  1 32  1  0
  2 33  1  0
  2 34  1  0
  6 35  1  0
  9 36  1  0
 11 37  1  0
 12 38  1  0
 14 39  1  0
 15 40  1  0
 18 41  1  0
 18 42  1  0
 18 43  1  0
 19 44  1  0
 19 45  1  0
 19 46  1  0
 20 47  1  0
 21 48  1  0
 22 49  1  0
 22 50  1  0
 23 51  1  0
 25 52  1  0
 26 53  1  0
 27 54  1  0
 28 55  1  0
 29 56  1  0
M  END
$$$$
