
     RDKit          3D

 67 72  0  0  0  0  0  0  0  0999 V2000
    4.2385    2.1002    2.6560 C   0  0  0  0  0  0  0  0  0  0  0  0
    4.8455    0.9510    1.8339 C   0  0  0  0  0  0  0  0  0  0  0  0
    5.2276   -0.1845    2.7912 C   0  0  0  0  0  0  0  0  0  0  0  0
    6.0599    1.4893    1.0652 C   0  0  0  0  0  0  0  0  0  0  0  0
    3.7872    0.5481    0.9273 O   0  0  0  0  0  0  0  0  0  0  0  0
    3.9782   -0.4424    0.0189 C   0  0  0  0  0  0  0  0  0  0  0  0
    5.0043   -1.1017   -0.0860 O   0  0  0  0  0  0  0  0  0  0  0  0
    2.8695   -0.6243   -0.7781 N   0  0  0  0  0  0  0  0  0  0  0  0
    2.8554   -1.6829   -1.7872 C   0  0  0  0  0  0  0  0  0  0  0  0
    1.4522   -2.3031   -1.9317 C   0  0  0  0  0  0  0  0  0  0  0  0
    0.4522   -1.3153   -2.3223 N   0  0  0  0  0  0  0  0  0  0  0  0
    0.7282    0.0887   -1.8684 C   0  0  2  0  0  0  0  0  0  0  0  0
    1.6507    0.1838   -0.6401 C   0  0  0  0  0  0  0  0  0  0  0  0
   -0.6308    0.6156   -1.6418 C   0  0  0  0  0  0  0  0  0  0  0  0
   -1.6135   -0.3614   -1.8330 C   0  0  0  0  0  0  0  0  0  0  0  0
   -2.8373    0.2209   -1.6247 C   0  0  0  0  0  0  0  0  0  0  0  0
   -4.0718   -0.2631   -1.6729 O   0  0  0  0  0  0  0  0  0  0  0  0
   -2.5960    1.5526   -1.3026 N   0  0  0  0  0  0  0  0  0  0  0  0
   -3.6480    2.5447   -1.0976 C   0  0  0  0  0  0  0  0  0  0  0  0
   -3.8660    2.8449    0.3659 C   0  0  0  0  0  0  0  0  0  0  0  0
   -3.5285    4.0983    0.9056 C   0  0  0  0  0  0  0  0  0  0  0  0
   -3.7240    4.3610    2.2632 C   0  0  0  0  0  0  0  0  0  0  0  0
   -4.2733    3.3819    3.0914 C   0  0  0  0  0  0  0  0  0  0  0  0
   -4.6275    2.1397    2.5653 C   0  0  0  0  0  0  0  0  0  0  0  0
   -4.4232    1.8717    1.2115 C   0  0  0  0  0  0  0  0  0  0  0  0
   -1.2263    1.7925   -1.2855 C   0  0  0  0  0  0  0  0  0  0  0  0
   -0.6582    2.9526   -0.9807 O   0  0  0  0  0  0  0  0  0  0  0  0
   -0.9903   -1.6619   -2.1681 C   0  0  1  0  0  0  0  0  0  0  0  0
   -1.5567   -2.3315   -3.4532 C   0  0  0  0  0  0  0  0  0  0  0  0
   -1.5178   -1.9434   -4.6111 O   0  0  0  0  0  0  0  0  0  0  0  0
   -2.1671   -3.5237   -3.0486 N   0  0  0  0  0  0  0  0  0  0  0  0
   -2.0774   -3.7022   -1.6760 C   0  0  0  0  0  0  0  0  0  0  0  0
   -2.5774   -4.7610   -0.9466 C   0  0  0  0  0  0  0  0  0  0  0  0
   -2.3917   -4.7323    0.4366 C   0  0  0  0  0  0  0  0  0  0  0  0
   -1.7254   -3.6569    1.0499 C   0  0  0  0  0  0  0  0  0  0  0  0
   -1.2293   -2.5937    0.2900 C   0  0  0  0  0  0  0  0  0  0  0  0
   -1.4036   -2.6289   -1.0858 C   0  0  0  0  0  0  0  0  0  0  0  0
    3.3604    1.7595    3.2201 H   0  0  0  0  0  0  0  0  0  0  0  0
    4.9627    2.5226    3.3638 H   0  0  0  0  0  0  0  0  0  0  0  0
    3.8880    2.9045    1.9977 H   0  0  0  0  0  0  0  0  0  0  0  0
    5.7185   -1.0135    2.2712 H   0  0  0  0  0  0  0  0  0  0  0  0
    5.9143    0.1688    3.5690 H   0  0  0  0  0  0  0  0  0  0  0  0
    4.3380   -0.6029    3.2773 H   0  0  0  0  0  0  0  0  0  0  0  0
    5.7535    2.2340    0.3202 H   0  0  0  0  0  0  0  0  0  0  0  0
    6.5804    0.6949    0.5192 H   0  0  0  0  0  0  0  0  0  0  0  0
    6.7861    1.9525    1.7415 H   0  0  0  0  0  0  0  0  0  0  0  0
    3.1739   -1.2328   -2.7348 H   0  0  0  0  0  0  0  0  0  0  0  0
    3.5830   -2.4599   -1.5333 H   0  0  0  0  0  0  0  0  0  0  0  0
    1.4840   -3.1013   -2.6814 H   0  0  0  0  0  0  0  0  0  0  0  0
    1.2129   -2.7638   -0.9683 H   0  0  0  0  0  0  0  0  0  0  0  0
    1.1955    0.6158   -2.7097 H   0  0  0  0  0  0  0  0  0  0  0  0
    1.9244    1.2305   -0.4572 H   0  0  0  0  0  0  0  0  0  0  0  0
    1.1393   -0.1739    0.2637 H   0  0  0  0  0  0  0  0  0  0  0  0
   -4.0084   -1.2117   -1.8875 H   0  0  0  0  0  0  0  0  0  0  0  0
   -3.3552    3.4431   -1.6535 H   0  0  0  0  0  0  0  0  0  0  0  0
   -4.5771    2.1841   -1.5538 H   0  0  0  0  0  0  0  0  0  0  0  0
   -3.1162    4.8855    0.2760 H   0  0  0  0  0  0  0  0  0  0  0  0
   -3.4527    5.3309    2.6777 H   0  0  0  0  0  0  0  0  0  0  0  0
   -4.4296    3.5869    4.1473 H   0  0  0  0  0  0  0  0  0  0  0  0
   -5.0614    1.3780    3.2110 H   0  0  0  0  0  0  0  0  0  0  0  0
   -4.7007    0.8951    0.8148 H   0  0  0  0  0  0  0  0  0  0  0  0
   -1.3231    3.5565   -0.6122 H   0  0  0  0  0  0  0  0  0  0  0  0
   -2.6025   -4.1556   -3.7034 H   0  0  0  0  0  0  0  0  0  0  0  0
   -3.0962   -5.5872   -1.4188 H   0  0  0  0  0  0  0  0  0  0  0  0
   -2.7680   -5.5491    1.0492 H   0  0  0  0  0  0  0  0  0  0  0  0
   -1.5927   -3.6507    2.1296 H   0  0  0  0  0  0  0  0  0  0  0  0
   -0.7195   -1.7644    0.7699 H   0  0  0  0  0  0  0  0  0  0  0  0
  1  2  1  0
  2  3  1  0
  2  4  1  0
  2  5  1  0
  5  6  1  0
  6  7  2  0
  6  8  1  0
  8  9  1  0
  9 10  1  0
 10 11  1  0
 11 12  1  0
 12 13  1  0
 12 14  1  0
 14 15  1  0
 15 16  2  0
 16 17  1  0
 16 18  1  0
 18 19  1  0
 19 20  1  0
 20 21  2  0
 21 22  1  0
 22 23  2  0
 23 24  1  0
 24 25  2  0
 18 26  1  0
 26 27  1  0
 15 28  1  0
 28 29  1  0
 29 30  2  0
 29 31  1  0
 31 32  1  0
 32 33  2  0
 33 34  1  0
 34 35  2  0
 35 36  1  0
 36 37  2  0
 13  8  1  0
 26 14  2  0
 37 28  1  0
 28 11  1  6
 37 32  1  0
 25 20  1  0
  1 38  1  0
  1 39  1  0
  1 40  1  0
  3 41  1  0
  3 42  1  0
  3 43  1  0
  4 44  1  0
  4 45  1  0
  4 46  1  0
  9 47  1  0
  9 48  1  0
 10 49  1  0
 10 50  1  0
 12 51  1  6
 13 52  1  0
 13 53  1  0
 17 54  1  0
 19 55  1  0
 19 56  1  0
 21 57  1  0
 22 58  1  0
 23 59  1  0
 24 60  1  0
 25 61  1  0
 27 62  1  0
 31 63  1  0
 33 64  1  0
 34 65  1  0
 35 66  1  0
 36 67  1  0
M  END
$$$$
