
     RDKit          3D

 45 48  0  0  0  0  0  0  0  0999 V2000
   -1.6931   -1.9813   -2.0994 C   0  0  0  0  0  0  0  0  0  0  0  0
   -1.3219   -2.3202   -0.7631 O   0  0  0  0  0  0  0  0  0  0  0  0
   -2.3844   -2.1473    0.0894 C   0  0  0  0  0  0  0  0  0  0  0  0
   -3.2113   -3.2637    0.2785 C   0  0  0  0  0  0  0  0  0  0  0  0
   -4.3047   -3.1905    1.1353 C   0  0  0  0  0  0  0  0  0  0  0  0
   -4.5653   -2.0065    1.8143 C   0  0  0  0  0  0  0  0  0  0  0  0
   -3.7236   -0.9017    1.6422 C   0  0  0  0  0  0  0  0  0  0  0  0
   -2.6005   -0.9393    0.7841 C   0  0  0  0  0  0  0  0  0  0  0  0
   -1.7326    0.2516    0.6597 C   0  0  0  0  0  0  0  0  0  0  0  0
   -2.2901    1.4509    0.9572 N   0  0  0  0  0  0  0  0  0  0  0  0
   -1.4850    2.5378    0.8501 C   0  0  0  0  0  0  0  0  0  0  0  0
   -2.0934    3.8614    1.1606 C   0  0  0  0  0  0  0  0  0  0  0  0
   -3.4165    3.8382    1.5109 N   0  0  0  0  0  0  0  0  0  0  0  0
   -1.4587    4.9068    1.1030 O   0  0  0  0  0  0  0  0  0  0  0  0
   -0.1815    2.4369    0.4679 C   0  0  0  0  0  0  0  0  0  0  0  0
    0.8165    3.3772    0.2768 N   0  0  0  0  0  0  0  0  0  0  0  0
    1.9804    2.7171   -0.1384 C   0  0  0  0  0  0  0  0  0  0  0  0
    3.0234    3.3036   -0.3779 O   0  0  0  0  0  0  0  0  0  0  0  0
    1.6601    1.3252   -0.1952 N   0  0  0  0  0  0  0  0  0  0  0  0
    2.5216    0.2614   -0.5860 C   0  0  0  0  0  0  0  0  0  0  0  0
    2.1531   -1.0900   -0.5062 C   0  0  0  0  0  0  0  0  0  0  0  0
    3.0211   -2.1167   -0.9004 C   0  0  0  0  0  0  0  0  0  0  0  0
    4.2872   -1.8179   -1.3873 C   0  0  0  0  0  0  0  0  0  0  0  0
    4.6905   -0.4881   -1.4911 C   0  0  0  0  0  0  0  0  0  0  0  0
    6.0686   -0.1497   -1.9790 C   0  0  0  0  0  0  0  0  0  0  0  0
    3.8121    0.5317   -1.0783 C   0  0  0  0  0  0  0  0  0  0  0  0
    0.3014    1.1828    0.1916 C   0  0  0  0  0  0  0  0  0  0  0  0
   -0.4506    0.0824    0.2777 N   0  0  0  0  0  0  0  0  0  0  0  0
   -2.4492   -2.6747   -2.4839 H   0  0  0  0  0  0  0  0  0  0  0  0
   -2.0547   -0.9497   -2.1688 H   0  0  0  0  0  0  0  0  0  0  0  0
   -0.8014   -2.0704   -2.7268 H   0  0  0  0  0  0  0  0  0  0  0  0
   -2.9953   -4.1912   -0.2457 H   0  0  0  0  0  0  0  0  0  0  0  0
   -4.9460   -4.0564    1.2773 H   0  0  0  0  0  0  0  0  0  0  0  0
   -5.4152   -1.9417    2.4900 H   0  0  0  0  0  0  0  0  0  0  0  0
   -3.9462    0.0022    2.2078 H   0  0  0  0  0  0  0  0  0  0  0  0
   -3.9316    2.9652    1.5167 H   0  0  0  0  0  0  0  0  0  0  0  0
   -3.8922    4.7074    1.7103 H   0  0  0  0  0  0  0  0  0  0  0  0
    0.7269    4.3777    0.4131 H   0  0  0  0  0  0  0  0  0  0  0  0
    1.1907   -1.4063   -0.1213 H   0  0  0  0  0  0  0  0  0  0  0  0
    2.6998   -3.1521   -0.8164 H   0  0  0  0  0  0  0  0  0  0  0  0
    4.9541   -2.6245   -1.6812 H   0  0  0  0  0  0  0  0  0  0  0  0
    6.7751   -0.1672   -1.1430 H   0  0  0  0  0  0  0  0  0  0  0  0
    6.3993   -0.8670   -2.7387 H   0  0  0  0  0  0  0  0  0  0  0  0
    6.0904    0.8439   -2.4395 H   0  0  0  0  0  0  0  0  0  0  0  0
    4.1727    1.5526   -1.1662 H   0  0  0  0  0  0  0  0  0  0  0  0
  1  2  1  0
  2  3  1  0
  3  4  2  0
  4  5  1  0
  5  6  2  0
  6  7  1  0
  7  8  2  0
  8  9  1  0
  9 10  2  0
 10 11  1  0
 11 12  1  0
 12 13  1  0
 12 14  2  0
 11 15  2  0
 15 16  1  0
 16 17  1  0
 17 18  2  0
 17 19  1  0
 19 20  1  0
 20 21  2  0
 21 22  1  0
 22 23  2  0
 23 24  1  0
 24 25  1  0
 24 26  2  0
 19 27  1  0
 27 28  2  0
  8  3  1  0
 28  9  1  0
 27 15  1  0
 26 20  1  0
  1 29  1  0
  1 30  1  0
  1 31  1  0
  4 32  1  0
  5 33  1  0
  6 34  1  0
  7 35  1  0
 13 36  1  0
 13 37  1  0
 16 38  1  0
 21 39  1  0
 22 40  1  0
 23 41  1  0
 25 42  1  0
 25 43  1  0
 25 44  1  0
 26 45  1  0
M  END
$$$$
