
     RDKit          3D

 48 50  0  0  0  0  0  0  0  0999 V2000
   -0.4526    1.0430    2.0260 C   0  0  0  0  0  0  0  0  0  0  0  0
   -0.1333    0.6988    0.7698 C   0  0  0  0  0  0  0  0  0  0  0  0
    1.2400    0.5823    0.2217 C   0  0  0  0  0  0  0  0  0  0  0  0
    2.3858    0.7189    0.9129 C   0  0  0  0  0  0  0  0  0  0  0  0
    3.6857    0.5915    0.3476 C   0  0  0  0  0  0  0  0  0  0  0  0
    4.8316   -0.4729    1.0794 S   0  0  0  0  0  0  0  0  0  0  0  0
    5.9886   -0.0454   -0.0904 C   0  0  0  0  0  0  0  0  0  0  0  0
    7.2517   -0.5794   -0.1296 N   0  0  0  0  0  0  0  0  0  0  0  0
    7.7965   -1.4939    0.7414 C   0  0  0  0  0  0  0  0  0  0  0  0
    9.2174   -1.8507    0.3785 C   0  0  0  0  0  0  0  0  0  0  0  0
    7.2708   -1.9873    1.7322 O   0  0  0  0  0  0  0  0  0  0  0  0
    5.6122    0.8427   -0.9797 N   0  0  0  0  0  0  0  0  0  0  0  0
    4.3171    1.2105   -0.7186 C   0  0  0  0  0  0  0  0  0  0  0  0
    3.7166    2.1462   -1.4682 O   0  0  0  0  0  0  0  0  0  0  0  0
    1.1081    0.2458   -1.1930 C   0  0  0  0  0  0  0  0  0  0  0  0
   -0.2091    0.1659   -1.4683 C   0  0  0  0  0  0  0  0  0  0  0  0
   -0.7772   -0.2355   -2.7873 C   0  0  0  0  0  0  0  0  0  0  0  0
   -0.9825    0.4311   -0.3186 N   0  0  0  0  0  0  0  0  0  0  0  0
   -2.3940    0.3308   -0.2546 C   0  0  0  0  0  0  0  0  0  0  0  0
   -3.0179   -0.5502    0.6386 C   0  0  0  0  0  0  0  0  0  0  0  0
   -4.4141   -0.6530    0.7031 C   0  0  0  0  0  0  0  0  0  0  0  0
   -5.2189    0.1279   -0.1248 C   0  0  0  0  0  0  0  0  0  0  0  0
   -6.6284    0.0882   -0.1238 N   0  0  0  0  0  0  0  0  0  0  0  0
   -7.4486   -0.6869    0.6760 C   0  0  0  0  0  0  0  0  0  0  0  0
   -8.9112   -0.4530    0.3884 C   0  0  0  0  0  0  0  0  0  0  0  0
   -7.1017   -1.4707    1.5519 O   0  0  0  0  0  0  0  0  0  0  0  0
   -4.6049    1.0110   -1.0200 C   0  0  0  0  0  0  0  0  0  0  0  0
   -3.2100    1.1099   -1.0834 C   0  0  0  0  0  0  0  0  0  0  0  0
    0.2913    1.2522    2.7839 H   0  0  0  0  0  0  0  0  0  0  0  0
   -1.4878    1.1452    2.3322 H   0  0  0  0  0  0  0  0  0  0  0  0
    2.3509    0.9079    1.9813 H   0  0  0  0  0  0  0  0  0  0  0  0
    7.8083   -0.2193   -0.8914 H   0  0  0  0  0  0  0  0  0  0  0  0
    9.9030   -1.1995    0.9270 H   0  0  0  0  0  0  0  0  0  0  0  0
    9.4071   -2.8935    0.6486 H   0  0  0  0  0  0  0  0  0  0  0  0
    9.3951   -1.7437   -0.6955 H   0  0  0  0  0  0  0  0  0  0  0  0
    4.3751    2.4351   -2.1218 H   0  0  0  0  0  0  0  0  0  0  0  0
    1.9158    0.0560   -1.8797 H   0  0  0  0  0  0  0  0  0  0  0  0
    0.0105   -0.5576   -3.4774 H   0  0  0  0  0  0  0  0  0  0  0  0
   -1.4734   -1.0727   -2.6754 H   0  0  0  0  0  0  0  0  0  0  0  0
   -1.3005    0.6014   -3.2584 H   0  0  0  0  0  0  0  0  0  0  0  0
   -2.4142   -1.1833    1.2851 H   0  0  0  0  0  0  0  0  0  0  0  0
   -4.8353   -1.3591    1.4116 H   0  0  0  0  0  0  0  0  0  0  0  0
   -7.0869    0.7085   -0.7786 H   0  0  0  0  0  0  0  0  0  0  0  0
   -9.2563    0.4169    0.9532 H   0  0  0  0  0  0  0  0  0  0  0  0
   -9.0799   -0.2891   -0.6798 H   0  0  0  0  0  0  0  0  0  0  0  0
   -9.4855   -1.3339    0.6898 H   0  0  0  0  0  0  0  0  0  0  0  0
   -5.1966    1.6412   -1.6782 H   0  0  0  0  0  0  0  0  0  0  0  0
   -2.7585    1.8215   -1.7701 H   0  0  0  0  0  0  0  0  0  0  0  0
  1  2  2  0
  2  3  1  0
  3  4  2  3
  4  5  1  0
  5  6  1  0
  6  7  1  0
  7  8  1  0
  8  9  1  0
  9 10  1  0
  9 11  2  0
  7 12  2  0
 12 13  1  0
 13 14  1  0
  3 15  1  0
 15 16  2  0
 16 17  1  0
 16 18  1  0
 18 19  1  0
 19 20  2  0
 20 21  1  0
 21 22  2  0
 22 23  1  0
 23 24  1  0
 24 25  1  0
 24 26  2  0
 22 27  1  0
 27 28  2  0
 18  2  1  0
 28 19  1  0
 13  5  2  0
  1 29  1  0
  1 30  1  0
  4 31  1  0
  8 32  1  0
 10 33  1  0
 10 34  1  0
 10 35  1  0
 14 36  1  0
 15 37  1  0
 17 38  1  0
 17 39  1  0
 17 40  1  0
 20 41  1  0
 21 42  1  0
 23 43  1  0
 25 44  1  0
 25 45  1  0
 25 46  1  0
 27 47  1  0
 28 48  1  0
M  END
$$$$
