
     RDKit          3D

 47 48  0  0  0  0  0  0  0  0999 V2000
    6.3877   -1.9449    1.4032 C   0  0  0  0  0  0  0  0  0  0  0  0
    5.9584   -0.7235    0.6460 C   0  0  0  0  0  0  0  0  0  0  0  0
    6.4648   -0.4617   -0.6316 C   0  0  0  0  0  0  0  0  0  0  0  0
    6.0828    0.6908   -1.3230 C   0  0  0  0  0  0  0  0  0  0  0  0
    5.1967    1.6105   -0.7434 C   0  0  0  0  0  0  0  0  0  0  0  0
    4.7711    2.8473   -1.4958 C   0  0  0  0  0  0  0  0  0  0  0  0
    3.4970    2.5070   -2.7429 S   0  0  0  0  0  0  0  0  0  0  0  0
    2.1036    2.3147   -1.7282 C   0  0  0  0  0  0  0  0  0  0  0  0
    1.8970    2.9541   -0.5933 N   0  0  0  0  0  0  0  0  0  0  0  0
    0.6825    2.5206   -0.1046 N   0  0  0  0  0  0  0  0  0  0  0  0
    0.2213    1.6584   -0.9851 C   0  0  0  0  0  0  0  0  0  0  0  0
   -1.0369    0.8792   -0.9865 C   0  0  0  0  0  0  0  0  0  0  0  0
   -2.1626    1.6357   -0.2821 C   0  0  0  0  0  0  0  0  0  0  0  0
   -3.4434    0.9694   -0.4014 N   0  0  0  0  0  0  0  0  0  0  0  0
   -3.7524   -0.1654    0.2855 C   0  0  0  0  0  0  0  0  0  0  0  0
   -2.9815   -0.7706    1.0115 O   0  0  0  0  0  0  0  0  0  0  0  0
   -5.0353   -0.4954    0.0202 O   0  0  0  0  0  0  0  0  0  0  0  0
   -5.6373   -1.6700    0.6247 C   0  0  0  0  0  0  0  0  0  0  0  0
   -7.0704   -1.7011    0.0700 C   0  0  0  0  0  0  0  0  0  0  0  0
   -5.7052   -1.5365    2.1513 C   0  0  0  0  0  0  0  0  0  0  0  0
   -4.9175   -2.9543    0.1923 C   0  0  0  0  0  0  0  0  0  0  0  0
    1.0626    1.4830   -2.0499 O   0  0  0  0  0  0  0  0  0  0  0  0
    4.7008    1.3509    0.5415 C   0  0  0  0  0  0  0  0  0  0  0  0
    5.0824    0.1976    1.2312 C   0  0  0  0  0  0  0  0  0  0  0  0
    5.5581   -2.3441    1.9963 H   0  0  0  0  0  0  0  0  0  0  0  0
    6.7105   -2.7385    0.7210 H   0  0  0  0  0  0  0  0  0  0  0  0
    7.2175   -1.6980    2.0724 H   0  0  0  0  0  0  0  0  0  0  0  0
    7.1580   -1.1570   -1.1007 H   0  0  0  0  0  0  0  0  0  0  0  0
    6.4813    0.8651   -2.3206 H   0  0  0  0  0  0  0  0  0  0  0  0
    4.4397    3.6329   -0.8068 H   0  0  0  0  0  0  0  0  0  0  0  0
    5.6445    3.2603   -2.0143 H   0  0  0  0  0  0  0  0  0  0  0  0
   -0.8588   -0.0861   -0.4988 H   0  0  0  0  0  0  0  0  0  0  0  0
   -1.3343    0.6604   -2.0203 H   0  0  0  0  0  0  0  0  0  0  0  0
   -1.9369    1.7555    0.7848 H   0  0  0  0  0  0  0  0  0  0  0  0
   -2.2867    2.6362   -0.7122 H   0  0  0  0  0  0  0  0  0  0  0  0
   -4.2010    1.3927   -0.9204 H   0  0  0  0  0  0  0  0  0  0  0  0
   -7.0631   -1.7593   -1.0253 H   0  0  0  0  0  0  0  0  0  0  0  0
   -7.6083   -0.7802    0.3268 H   0  0  0  0  0  0  0  0  0  0  0  0
   -7.6383   -2.5535    0.4578 H   0  0  0  0  0  0  0  0  0  0  0  0
   -6.1534   -0.5778    2.4383 H   0  0  0  0  0  0  0  0  0  0  0  0
   -4.7117   -1.5675    2.6095 H   0  0  0  0  0  0  0  0  0  0  0  0
   -6.2960   -2.3447    2.5961 H   0  0  0  0  0  0  0  0  0  0  0  0
   -5.4711   -3.8456    0.5067 H   0  0  0  0  0  0  0  0  0  0  0  0
   -4.7963   -2.9850   -0.8979 H   0  0  0  0  0  0  0  0  0  0  0  0
   -3.9131   -3.0268    0.6223 H   0  0  0  0  0  0  0  0  0  0  0  0
    4.0076    2.0436    1.0170 H   0  0  0  0  0  0  0  0  0  0  0  0
    4.6856    0.0214    2.2290 H   0  0  0  0  0  0  0  0  0  0  0  0
  1  2  1  0
  2  3  2  0
  3  4  1  0
  4  5  2  0
  5  6  1  0
  6  7  1  0
  7  8  1  0
  8  9  2  0
  9 10  1  0
 10 11  2  0
 11 12  1  0
 12 13  1  0
 13 14  1  0
 14 15  1  0
 15 16  2  0
 15 17  1  0
 17 18  1  0
 18 19  1  0
 18 20  1  0
 18 21  1  0
 11 22  1  0
  5 23  1  0
 23 24  2  0
 24  2  1  0
 22  8  1  0
  1 25  1  0
  1 26  1  0
  1 27  1  0
  3 28  1  0
  4 29  1  0
  6 30  1  0
  6 31  1  0
 12 32  1  0
 12 33  1  0
 13 34  1  0
 13 35  1  0
 14 36  1  0
 19 37  1  0
 19 38  1  0
 19 39  1  0
 20 40  1  0
 20 41  1  0
 20 42  1  0
 21 43  1  0
 21 44  1  0
 21 45  1  0
 23 46  1  0
 24 47  1  0
M  END
$$$$
