
     RDKit          3D

 42 43  0  0  0  0  0  0  0  0999 V2000
   -3.4656    0.2904   -0.3832 C   0  0  0  0  0  0  0  0  0  0  0  0
   -2.1238   -0.0760    0.2701 C   0  0  0  0  0  0  0  0  0  0  0  0
   -1.7447   -1.4964   -0.1738 C   0  0  0  0  0  0  0  0  0  0  0  0
   -2.3374   -0.0893    1.7999 C   0  0  0  0  0  0  0  0  0  0  0  0
   -1.0011    0.9588   -0.0375 C   0  0  0  0  0  0  0  0  0  0  0  0
   -0.5057    0.9393   -1.4116 N   0  0  0  0  0  0  0  0  0  0  0  0
   -0.9897    1.6856   -2.4503 C   0  0  0  0  0  0  0  0  0  0  0  0
   -2.2040    2.2559   -2.3820 N   0  0  0  0  0  0  0  0  0  0  0  0
   -0.2297    1.8695   -3.4941 N   0  0  0  0  0  0  0  0  0  0  0  0
    1.0014    1.1108   -3.1641 C   0  0  0  0  0  0  0  0  0  0  0  0
    0.9477    0.8437   -1.6428 C   0  0  0  0  0  0  0  0  0  0  0  0
    1.5948   -0.5108   -1.3192 C   0  0  0  0  0  0  0  0  0  0  0  0
    2.1050   -0.7056    0.0959 C   0  0  0  0  0  0  0  0  0  0  0  0
    1.9190   -1.9424    0.7348 C   0  0  0  0  0  0  0  0  0  0  0  0
    2.4002   -2.1655    2.0275 C   0  0  0  0  0  0  0  0  0  0  0  0
    3.0932   -1.1548    2.6810 C   0  0  0  0  0  0  0  0  0  0  0  0
    3.5813   -1.3259    3.9420 O   0  0  0  0  0  0  0  0  0  0  0  0
    3.3206    0.0644    2.0579 C   0  0  0  0  0  0  0  0  0  0  0  0
    2.8389    0.2853    0.7653 C   0  0  0  0  0  0  0  0  0  0  0  0
   -4.2700   -0.3620   -0.0224 H   0  0  0  0  0  0  0  0  0  0  0  0
   -3.4316    0.1701   -1.4700 H   0  0  0  0  0  0  0  0  0  0  0  0
   -3.7551    1.3204   -0.1499 H   0  0  0  0  0  0  0  0  0  0  0  0
   -0.8431   -1.8404    0.3362 H   0  0  0  0  0  0  0  0  0  0  0  0
   -2.5417   -2.2101    0.0660 H   0  0  0  0  0  0  0  0  0  0  0  0
   -1.5741   -1.5521   -1.2539 H   0  0  0  0  0  0  0  0  0  0  0  0
   -3.1212   -0.7992    2.0877 H   0  0  0  0  0  0  0  0  0  0  0  0
   -2.6338    0.9006    2.1650 H   0  0  0  0  0  0  0  0  0  0  0  0
   -1.4209   -0.3798    2.3262 H   0  0  0  0  0  0  0  0  0  0  0  0
   -1.3398    1.9697    0.2236 H   0  0  0  0  0  0  0  0  0  0  0  0
   -0.1665    0.7654    0.6455 H   0  0  0  0  0  0  0  0  0  0  0  0
   -2.3378    2.8770   -3.1732 H   0  0  0  0  0  0  0  0  0  0  0  0
   -2.3935    2.7337   -1.5144 H   0  0  0  0  0  0  0  0  0  0  0  0
    1.0076    0.1848   -3.7513 H   0  0  0  0  0  0  0  0  0  0  0  0
    1.8904    1.6934   -3.4263 H   0  0  0  0  0  0  0  0  0  0  0  0
    1.4412    1.6799   -1.1342 H   0  0  0  0  0  0  0  0  0  0  0  0
    2.4720   -0.6524   -1.9655 H   0  0  0  0  0  0  0  0  0  0  0  0
    0.8942   -1.3152   -1.5745 H   0  0  0  0  0  0  0  0  0  0  0  0
    1.3920   -2.7477    0.2262 H   0  0  0  0  0  0  0  0  0  0  0  0
    2.2295   -3.1283    2.4982 H   0  0  0  0  0  0  0  0  0  0  0  0
    3.3623   -2.2242    4.2389 H   0  0  0  0  0  0  0  0  0  0  0  0
    3.8807    0.8400    2.5728 H   0  0  0  0  0  0  0  0  0  0  0  0
    3.0590    1.2394    0.2939 H   0  0  0  0  0  0  0  0  0  0  0  0
  1  2  1  0
  2  3  1  0
  2  4  1  0
  2  5  1  0
  5  6  1  0
  6  7  1  0
  7  8  1  0
  7  9  2  0
  9 10  1  0
 10 11  1  0
 11 12  1  0
 12 13  1  0
 13 14  2  0
 14 15  1  0
 15 16  2  0
 16 17  1  0
 16 18  1  0
 18 19  2  0
 11  6  1  0
 19 13  1  0
  1 20  1  0
  1 21  1  0
  1 22  1  0
  3 23  1  0
  3 24  1  0
  3 25  1  0
  4 26  1  0
  4 27  1  0
  4 28  1  0
  5 29  1  0
  5 30  1  0
  8 31  1  0
  8 32  1  0
 10 33  1  0
 10 34  1  0
 11 35  1  0
 12 36  1  0
 12 37  1  0
 14 38  1  0
 15 39  1  0
 17 40  1  0
 18 41  1  0
 19 42  1  0
M  END
$$$$
