
     RDKit          3D

 49 51  0  0  0  0  0  0  0  0999 V2000
   -3.8239   -2.8957    3.3557 C   0  0  0  0  0  0  0  0  0  0  0  0
   -3.2252   -2.0714    2.2438 C   0  0  0  0  0  0  0  0  0  0  0  0
   -3.7326   -2.3202    0.8665 C   0  0  0  0  0  0  0  0  0  0  0  0
   -3.1879   -1.5488   -0.0844 C   0  0  0  0  0  0  0  0  0  0  0  0
   -3.5321   -1.6999   -1.5356 C   0  0  0  0  0  0  0  0  0  0  0  0
   -2.2530   -0.5930    0.2593 N   0  0  0  0  0  0  0  0  0  0  0  0
   -1.7550   -0.4738    1.5360 C   0  0  0  0  0  0  0  0  0  0  0  0
   -0.7935    0.2980    1.9280 N   0  0  0  0  0  0  0  0  0  0  0  0
   -0.2657    1.2048    1.0618 C   0  0  0  0  0  0  0  0  0  0  0  0
    0.6831    0.9180    0.2340 N   0  0  0  0  0  0  0  0  0  0  0  0
    1.3167   -0.5604    0.1038 S   0  0  0  0  0  6  0  0  0  0  0  0
    0.4019   -1.3435   -0.7105 O   0  0  0  0  0  0  0  0  0  0  0  0
    1.7964   -1.0330    1.3863 O   0  0  0  0  0  0  0  0  0  0  0  0
    2.7486   -0.1633   -0.8996 C   0  0  0  0  0  0  0  0  0  0  0  0
    3.4992   -1.4221   -1.2490 C   0  0  0  0  0  0  0  0  0  0  0  0
    4.4709   -1.9367   -0.3786 C   0  0  0  0  0  0  0  0  0  0  0  0
    5.1653   -3.1031   -0.7022 C   0  0  0  0  0  0  0  0  0  0  0  0
    4.8960   -3.7676   -1.8965 C   0  0  0  0  0  0  0  0  0  0  0  0
    3.9289   -3.2693   -2.7668 C   0  0  0  0  0  0  0  0  0  0  0  0
    3.2321   -2.1033   -2.4454 C   0  0  0  0  0  0  0  0  0  0  0  0
   -0.8041    2.4582    1.1885 N   0  0  0  0  0  0  0  0  0  0  0  0
   -0.5739    3.6615    0.4989 C   0  0  0  0  0  0  0  0  0  0  0  0
    0.1722    3.7410   -0.6842 C   0  0  0  0  0  0  0  0  0  0  0  0
    0.3732    4.9619   -1.3403 C   0  0  0  0  0  0  0  0  0  0  0  0
   -0.1718    6.1341   -0.8270 C   0  0  0  0  0  0  0  0  0  0  0  0
   -0.9221    6.0879    0.3430 C   0  0  0  0  0  0  0  0  0  0  0  0
   -1.1211    4.8656    0.9945 C   0  0  0  0  0  0  0  0  0  0  0  0
   -2.1660    4.8817    2.5872 Br  0  0  0  0  0  0  0  0  0  0  0  0
   -2.3026   -1.2156    2.5553 N   0  0  0  0  0  0  0  0  0  0  0  0
   -3.0649   -3.5828    3.7409 H   0  0  0  0  0  0  0  0  0  0  0  0
   -4.1498   -2.2343    4.1638 H   0  0  0  0  0  0  0  0  0  0  0  0
   -4.6836   -3.4743    3.0084 H   0  0  0  0  0  0  0  0  0  0  0  0
   -4.4604   -3.0971    0.6837 H   0  0  0  0  0  0  0  0  0  0  0  0
   -3.9417   -0.7634   -1.9282 H   0  0  0  0  0  0  0  0  0  0  0  0
   -4.2758   -2.4864   -1.7010 H   0  0  0  0  0  0  0  0  0  0  0  0
   -2.6386   -1.9566   -2.1142 H   0  0  0  0  0  0  0  0  0  0  0  0
   -1.6352   -0.3035   -0.4923 H   0  0  0  0  0  0  0  0  0  0  0  0
    2.3996    0.3474   -1.8031 H   0  0  0  0  0  0  0  0  0  0  0  0
    3.3826    0.5258   -0.3324 H   0  0  0  0  0  0  0  0  0  0  0  0
    4.6853   -1.4405    0.5667 H   0  0  0  0  0  0  0  0  0  0  0  0
    5.9110   -3.4976   -0.0167 H   0  0  0  0  0  0  0  0  0  0  0  0
    5.4339   -4.6787   -2.1445 H   0  0  0  0  0  0  0  0  0  0  0  0
    3.7119   -3.7938   -3.6938 H   0  0  0  0  0  0  0  0  0  0  0  0
    2.4719   -1.7379   -3.1329 H   0  0  0  0  0  0  0  0  0  0  0  0
   -1.3995    2.5495    2.0050 H   0  0  0  0  0  0  0  0  0  0  0  0
    0.6063    2.8559   -1.1360 H   0  0  0  0  0  0  0  0  0  0  0  0
    0.9561    4.9915   -2.2580 H   0  0  0  0  0  0  0  0  0  0  0  0
   -0.0142    7.0802   -1.3384 H   0  0  0  0  0  0  0  0  0  0  0  0
   -1.3489    7.0052    0.7408 H   0  0  0  0  0  0  0  0  0  0  0  0
  1  2  1  0
  2  3  1  0
  3  4  2  0
  4  5  1  0
  4  6  1  0
  6  7  1  0
  7  8  2  3
  8  9  1  0
  9 10  2  3
 10 11  1  0
 11 12  2  0
 11 13  2  0
 11 14  1  0
 14 15  1  0
 15 16  2  0
 16 17  1  0
 17 18  2  0
 18 19  1  0
 19 20  2  0
  9 21  1  0
 21 22  1  0
 22 23  2  0
 23 24  1  0
 24 25  2  0
 25 26  1  0
 26 27  2  0
 27 28  1  0
  7 29  1  0
 29  2  2  0
 20 15  1  0
 27 22  1  0
  1 30  1  0
  1 31  1  0
  1 32  1  0
  3 33  1  0
  5 34  1  0
  5 35  1  0
  5 36  1  0
  6 37  1  0
 14 38  1  0
 14 39  1  0
 16 40  1  0
 17 41  1  0
 18 42  1  0
 19 43  1  0
 20 44  1  0
 21 45  1  0
 23 46  1  0
 24 47  1  0
 25 48  1  0
 26 49  1  0
M  END
$$$$
