
     RDKit          3D

 47 50  0  0  0  0  0  0  0  0999 V2000
   -5.2539    1.5347    0.3083 C   0  0  0  0  0  0  0  0  0  0  0  0
   -3.8146    1.7309    0.1673 N   0  0  0  0  0  0  0  0  0  0  0  0
   -3.1487    1.7634    1.4799 C   0  0  0  0  0  0  0  0  0  0  0  0
   -1.6105    1.8833    1.3565 C   0  0  0  0  0  0  0  0  0  0  0  0
   -0.9751    0.8535    0.5073 N   0  0  0  0  0  0  0  0  0  0  0  0
   -0.9441   -0.4516    1.1805 C   0  0  0  0  0  0  0  0  0  0  0  0
   -0.1174   -1.4965    0.4606 C   0  0  0  0  0  0  0  0  0  0  0  0
   -0.7089   -2.6848    0.0310 C   0  0  0  0  0  0  0  0  0  0  0  0
    0.0583   -3.6661   -0.6054 C   0  0  0  0  0  0  0  0  0  0  0  0
   -0.7757   -5.1028   -1.1033 Cl  0  0  0  0  0  0  0  0  0  0  0  0
    1.4506   -3.4982   -0.8162 C   0  0  0  0  0  0  0  0  0  0  0  0
    2.2830   -4.4584   -1.4354 C   0  0  0  0  0  0  0  0  0  0  0  0
    3.6429   -4.2234   -1.5970 C   0  0  0  0  0  0  0  0  0  0  0  0
    4.1476   -3.0309   -1.1290 C   0  0  0  0  0  0  0  0  0  0  0  0
    3.3946   -2.0875   -0.5281 N   0  0  0  0  0  0  0  0  0  0  0  0
    2.0666   -2.3051   -0.3846 C   0  0  0  0  0  0  0  0  0  0  0  0
    1.2569   -1.3312    0.2162 C   0  0  0  0  0  0  0  0  0  0  0  0
    1.8616   -0.1320    0.6330 O   0  0  0  0  0  0  0  0  0  0  0  0
    2.0545    0.7578   -0.4258 C   0  0  0  0  0  0  0  0  0  0  0  0
    1.7230    0.5568   -1.5919 O   0  0  0  0  0  0  0  0  0  0  0  0
    2.6915    1.9620    0.0844 C   0  0  0  0  0  0  0  0  0  0  0  0
    3.1161    2.2618    1.3681 C   0  0  0  0  0  0  0  0  0  0  0  0
    3.6945    3.5611    1.4664 C   0  0  0  0  0  0  0  0  0  0  0  0
    3.6946    4.2155    0.2561 C   0  0  0  0  0  0  0  0  0  0  0  0
    3.0026    3.2670   -0.9860 S   0  0  0  0  0  0  0  0  0  0  0  0
   -1.6797    0.8250   -0.7938 C   0  0  0  0  0  0  0  0  0  0  0  0
   -3.2181    0.6951   -0.6948 C   0  0  0  0  0  0  0  0  0  0  0  0
   -5.7440    1.5659   -0.6710 H   0  0  0  0  0  0  0  0  0  0  0  0
   -5.6947    2.3395    0.9069 H   0  0  0  0  0  0  0  0  0  0  0  0
   -5.4972    0.5783    0.7849 H   0  0  0  0  0  0  0  0  0  0  0  0
   -3.5124    2.6278    2.0488 H   0  0  0  0  0  0  0  0  0  0  0  0
   -3.3984    0.8670    2.0620 H   0  0  0  0  0  0  0  0  0  0  0  0
   -1.3688    2.8672    0.9321 H   0  0  0  0  0  0  0  0  0  0  0  0
   -1.1599    1.8801    2.3567 H   0  0  0  0  0  0  0  0  0  0  0  0
   -1.9554   -0.8365    1.3583 H   0  0  0  0  0  0  0  0  0  0  0  0
   -0.4927   -0.3390    2.1758 H   0  0  0  0  0  0  0  0  0  0  0  0
   -1.7723   -2.8525    0.1885 H   0  0  0  0  0  0  0  0  0  0  0  0
    1.8768   -5.3990   -1.7996 H   0  0  0  0  0  0  0  0  0  0  0  0
    4.2869   -4.9525   -2.0751 H   0  0  0  0  0  0  0  0  0  0  0  0
    5.2021   -2.7892   -1.2263 H   0  0  0  0  0  0  0  0  0  0  0  0
    3.0180    1.5780    2.2032 H   0  0  0  0  0  0  0  0  0  0  0  0
    4.0904    3.9919    2.3780 H   0  0  0  0  0  0  0  0  0  0  0  0
    4.0680    5.2065    0.0373 H   0  0  0  0  0  0  0  0  0  0  0  0
   -1.4434    1.7595   -1.3209 H   0  0  0  0  0  0  0  0  0  0  0  0
   -1.2866    0.0297   -1.4372 H   0  0  0  0  0  0  0  0  0  0  0  0
   -3.4760   -0.3071   -0.3291 H   0  0  0  0  0  0  0  0  0  0  0  0
   -3.6327    0.7850   -1.7063 H   0  0  0  0  0  0  0  0  0  0  0  0
  1  2  1  0
  2  3  1  0
  3  4  1  0
  4  5  1  0
  5  6  1  0
  6  7  1  0
  7  8  2  0
  8  9  1  0
  9 10  1  0
  9 11  2  0
 11 12  1  0
 12 13  2  0
 13 14  1  0
 14 15  2  0
 15 16  1  0
 16 17  2  0
 17 18  1  0
 18 19  1  0
 19 20  2  0
 19 21  1  0
 21 22  2  0
 22 23  1  0
 23 24  2  0
 24 25  1  0
  5 26  1  0
 26 27  1  0
 27  2  1  0
 17  7  1  0
 25 21  1  0
 16 11  1  0
  1 28  1  0
  1 29  1  0
  1 30  1  0
  3 31  1  0
  3 32  1  0
  4 33  1  0
  4 34  1  0
  6 35  1  0
  6 36  1  0
  8 37  1  0
 12 38  1  0
 13 39  1  0
 14 40  1  0
 22 41  1  0
 23 42  1  0
 24 43  1  0
 26 44  1  0
 26 45  1  0
 27 46  1  0
 27 47  1  0
M  END
$$$$
