
     RDKit          3D

 30 31  0  0  0  0  0  0  0  0999 V2000
   -4.8869   -0.9479   -0.7067 C   0  0  0  0  0  0  0  0  0  0  0  0
   -4.1520    0.2430   -0.1227 C   0  0  0  0  0  0  0  0  0  0  0  0
   -2.7479   -0.0264   -0.1809 O   0  0  0  0  0  0  0  0  0  0  0  0
   -1.9613    0.9724    0.3170 C   0  0  0  0  0  0  0  0  0  0  0  0
   -2.3925    2.0223    0.7810 O   0  0  0  0  0  0  0  0  0  0  0  0
   -0.5618    0.6105    0.2167 C   0  0  0  0  0  0  0  0  0  0  0  0
   -0.2157   -0.6077   -0.3191 O   0  0  0  0  0  0  0  0  0  0  0  0
    1.1304   -0.6793   -0.2821 C   0  0  0  0  0  0  0  0  0  0  0  0
    1.6848    0.4566    0.2567 C   0  0  0  0  0  0  0  0  0  0  0  0
    0.5903    1.3075    0.5873 C   0  0  0  0  0  0  0  0  0  0  0  0
    0.6394    2.6598    1.2031 C   0  0  0  0  0  0  0  0  0  0  0  0
    3.1288    0.5686    0.3854 C   0  0  0  0  0  0  0  0  0  0  0  0
    3.6749    1.5472    0.8870 O   0  0  0  0  0  0  0  0  0  0  0  0
    3.9467   -0.5804   -0.2126 C   0  0  0  0  0  0  0  0  0  0  0  0
    3.2196   -1.9353   -0.1437 C   0  0  0  0  0  0  0  0  0  0  0  0
    1.8211   -1.8872   -0.7823 C   0  0  0  0  0  0  0  0  0  0  0  0
   -4.6517   -1.8587   -0.1461 H   0  0  0  0  0  0  0  0  0  0  0  0
   -5.9685   -0.7884   -0.6840 H   0  0  0  0  0  0  0  0  0  0  0  0
   -4.5766   -1.1224   -1.7422 H   0  0  0  0  0  0  0  0  0  0  0  0
   -4.3815    1.1412   -0.7069 H   0  0  0  0  0  0  0  0  0  0  0  0
   -4.4580    0.3912    0.9189 H   0  0  0  0  0  0  0  0  0  0  0  0
    0.0868    3.3799    0.5909 H   0  0  0  0  0  0  0  0  0  0  0  0
    1.6625    3.0307    1.3018 H   0  0  0  0  0  0  0  0  0  0  0  0
    0.1916    2.6380    2.2019 H   0  0  0  0  0  0  0  0  0  0  0  0
    4.1705   -0.3246   -1.2546 H   0  0  0  0  0  0  0  0  0  0  0  0
    4.8933   -0.6505    0.3343 H   0  0  0  0  0  0  0  0  0  0  0  0
    3.8227   -2.7087   -0.6323 H   0  0  0  0  0  0  0  0  0  0  0  0
    3.1196   -2.2250    0.9110 H   0  0  0  0  0  0  0  0  0  0  0  0
    1.2620   -2.7946   -0.5324 H   0  0  0  0  0  0  0  0  0  0  0  0
    1.9096   -1.8321   -1.8730 H   0  0  0  0  0  0  0  0  0  0  0  0
  1  2  1  0
  2  3  1  0
  3  4  1  0
  4  5  2  0
  4  6  1  0
  6  7  1  0
  7  8  1  0
  8  9  2  0
  9 10  1  0
 10 11  1  0
  9 12  1  0
 12 13  2  0
 12 14  1  0
 14 15  1  0
 15 16  1  0
 10  6  2  0
 16  8  1  0
  1 17  1  0
  1 18  1  0
  1 19  1  0
  2 20  1  0
  2 21  1  0
 11 22  1  0
 11 23  1  0
 11 24  1  0
 14 25  1  0
 14 26  1  0
 15 27  1  0
 15 28  1  0
 16 29  1  0
 16 30  1  0
M  END
$$$$
