
     RDKit          3D

 60 64  0  0  0  0  0  0  0  0999 V2000
   -7.9260   -4.2497    3.3221 C   0  0  0  0  0  0  0  0  0  0  0  0
   -7.0472   -3.1521    2.8021 C   0  0  0  0  0  0  0  0  0  0  0  0
   -7.4466   -1.8177    2.8919 C   0  0  0  0  0  0  0  0  0  0  0  0
   -6.6073   -0.7966    2.4326 C   0  0  0  0  0  0  0  0  0  0  0  0
   -5.3474   -1.0738    1.8779 C   0  0  0  0  0  0  0  0  0  0  0  0
   -4.5549    0.0001    1.4581 N   0  0  0  0  0  0  0  0  0  0  0  0
   -3.2574    0.1153    0.9636 C   0  0  0  0  0  0  0  0  0  0  0  0
   -2.4458   -0.9251    0.8820 N   0  0  0  0  0  0  0  0  0  0  0  0
   -1.2348   -0.6521    0.4220 C   0  0  0  0  0  0  0  0  0  0  0  0
   -0.3847   -1.7457    0.3532 O   0  0  0  0  0  0  0  0  0  0  0  0
    0.9366   -1.4545    0.1273 C   0  0  0  0  0  0  0  0  0  0  0  0
    1.7231   -0.8889    1.1192 C   0  0  0  0  0  0  0  0  0  0  0  0
    3.0693   -0.6772    0.8473 C   0  0  0  0  0  0  0  0  0  0  0  0
    3.5569   -1.0628   -0.3876 C   0  0  0  0  0  0  0  0  0  0  0  0
    4.8946   -0.8329   -0.6262 O   0  0  0  0  0  0  0  0  0  0  0  0
    5.3180   -1.2788   -1.9174 C   0  0  0  0  0  0  0  0  0  0  0  0
    6.7876   -0.9623   -2.0824 C   0  0  0  0  0  0  0  0  0  0  0  0
    7.2508   -0.3072   -3.2331 C   0  0  0  0  0  0  0  0  0  0  0  0
    8.6106   -0.0336   -3.3943 C   0  0  0  0  0  0  0  0  0  0  0  0
    9.5220   -0.4169   -2.4114 C   0  0  0  0  0  0  0  0  0  0  0  0
    9.0760   -1.0774   -1.2685 C   0  0  0  0  0  0  0  0  0  0  0  0
    7.7171   -1.3526   -1.1060 C   0  0  0  0  0  0  0  0  0  0  0  0
    2.7730   -1.6387   -1.3252 N   0  0  0  0  0  0  0  0  0  0  0  0
    1.4466   -1.8481   -1.0605 N   0  0  0  0  0  0  0  0  0  0  0  0
   -0.8005    0.5459    0.0455 N   0  0  0  0  0  0  0  0  0  0  0  0
   -1.6765    1.5340    0.1397 C   0  0  0  0  0  0  0  0  0  0  0  0
   -1.2713    2.8235   -0.2182 N   0  0  0  0  0  0  0  0  0  0  0  0
   -2.3800    3.7283   -0.5683 C   0  0  0  0  0  0  0  0  0  0  0  0
   -1.8406    5.1374   -0.8564 C   0  0  0  0  0  0  0  0  0  0  0  0
   -0.8257    5.1165   -1.8721 O   0  0  0  0  0  0  0  0  0  0  0  0
    0.2787    4.3033   -1.4441 C   0  0  0  0  0  0  0  0  0  0  0  0
   -0.1554    2.8531   -1.1827 C   0  0  0  0  0  0  0  0  0  0  0  0
   -2.9079    1.3507    0.6081 N   0  0  0  0  0  0  0  0  0  0  0  0
   -4.9516   -2.4121    1.8152 C   0  0  0  0  0  0  0  0  0  0  0  0
   -5.7873   -3.4400    2.2718 C   0  0  0  0  0  0  0  0  0  0  0  0
   -7.7873   -5.1684    2.7426 H   0  0  0  0  0  0  0  0  0  0  0  0
   -8.9833   -3.9740    3.2443 H   0  0  0  0  0  0  0  0  0  0  0  0
   -7.6919   -4.4524    4.3720 H   0  0  0  0  0  0  0  0  0  0  0  0
   -8.4110   -1.5590    3.3218 H   0  0  0  0  0  0  0  0  0  0  0  0
   -6.9498    0.2309    2.5224 H   0  0  0  0  0  0  0  0  0  0  0  0
   -4.9930    0.9096    1.4546 H   0  0  0  0  0  0  0  0  0  0  0  0
    1.3001   -0.6119    2.0782 H   0  0  0  0  0  0  0  0  0  0  0  0
    3.7248   -0.2273    1.5838 H   0  0  0  0  0  0  0  0  0  0  0  0
    4.7426   -0.7637   -2.6976 H   0  0  0  0  0  0  0  0  0  0  0  0
    5.1859   -2.3642   -2.0177 H   0  0  0  0  0  0  0  0  0  0  0  0
    6.5554   -0.0039   -4.0131 H   0  0  0  0  0  0  0  0  0  0  0  0
    8.9595    0.4780   -4.2877 H   0  0  0  0  0  0  0  0  0  0  0  0
   10.5797   -0.2026   -2.5377 H   0  0  0  0  0  0  0  0  0  0  0  0
    9.7860   -1.3795   -0.5026 H   0  0  0  0  0  0  0  0  0  0  0  0
    7.3822   -1.8714   -0.2099 H   0  0  0  0  0  0  0  0  0  0  0  0
   -2.8917    3.3514   -1.4632 H   0  0  0  0  0  0  0  0  0  0  0  0
   -3.1083    3.8064    0.2477 H   0  0  0  0  0  0  0  0  0  0  0  0
   -1.4276    5.5946    0.0506 H   0  0  0  0  0  0  0  0  0  0  0  0
   -2.6532    5.7796   -1.2112 H   0  0  0  0  0  0  0  0  0  0  0  0
    0.7206    4.7492   -0.5449 H   0  0  0  0  0  0  0  0  0  0  0  0
    1.0360    4.3278   -2.2346 H   0  0  0  0  0  0  0  0  0  0  0  0
   -0.4783    2.4003   -2.1293 H   0  0  0  0  0  0  0  0  0  0  0  0
    0.7159    2.3026   -0.8071 H   0  0  0  0  0  0  0  0  0  0  0  0
   -3.9860   -2.6924    1.4059 H   0  0  0  0  0  0  0  0  0  0  0  0
   -5.4390   -4.4691    2.2072 H   0  0  0  0  0  0  0  0  0  0  0  0
  1  2  1  0
  2  3  2  0
  3  4  1  0
  4  5  2  0
  5  6  1  0
  6  7  1  0
  7  8  2  0
  8  9  1  0
  9 10  1  0
 10 11  1  0
 11 12  2  0
 12 13  1  0
 13 14  2  0
 14 15  1  0
 15 16  1  0
 16 17  1  0
 17 18  2  0
 18 19  1  0
 19 20  2  0
 20 21  1  0
 21 22  2  0
 14 23  1  0
 23 24  2  0
  9 25  2  0
 25 26  1  0
 26 27  1  0
 27 28  1  0
 28 29  1  0
 29 30  1  0
 30 31  1  0
 31 32  1  0
 26 33  2  0
  5 34  1  0
 34 35  2  0
 35  2  1  0
 33  7  1  0
 24 11  1  0
 32 27  1  0
 22 17  1  0
  1 36  1  0
  1 37  1  0
  1 38  1  0
  3 39  1  0
  4 40  1  0
  6 41  1  0
 12 42  1  0
 13 43  1  0
 16 44  1  0
 16 45  1  0
 18 46  1  0
 19 47  1  0
 20 48  1  0
 21 49  1  0
 22 50  1  0
 28 51  1  0
 28 52  1  0
 29 53  1  0
 29 54  1  0
 31 55  1  0
 31 56  1  0
 32 57  1  0
 32 58  1  0
 34 59  1  0
 35 60  1  0
M  END
$$$$
