
     RDKit          3D

 39 41  0  0  0  0  0  0  0  0999 V2000
   -2.1069    0.5670   -2.5328 C   0  0  0  0  0  0  0  0  0  0  0  0
   -2.8378    0.1829   -1.2719 C   0  0  0  0  0  0  0  0  0  0  0  0
   -4.1992   -0.1469   -1.3797 C   0  0  0  0  0  0  0  0  0  0  0  0
   -4.9250   -0.5367   -0.2618 C   0  0  0  0  0  0  0  0  0  0  0  0
   -4.3063   -0.5684    0.9826 C   0  0  0  0  0  0  0  0  0  0  0  0
   -2.9511   -0.2162    1.1345 C   0  0  0  0  0  0  0  0  0  0  0  0
   -2.4300   -0.1693    2.5461 C   0  0  0  0  0  0  0  0  0  0  0  0
   -2.1926    0.1105   -0.0105 C   0  0  0  0  0  0  0  0  0  0  0  0
   -0.8132    0.4352    0.0309 N   0  0  0  0  0  0  0  0  0  0  0  0
    0.1596   -0.2011    0.7900 C   0  0  0  0  0  0  0  0  0  0  0  0
   -0.0141   -1.1703    1.5186 O   0  0  0  0  0  0  0  0  0  0  0  0
    1.5397    0.4273    0.5790 C   0  0  0  0  0  0  0  0  0  0  0  0
    2.6286   -0.0884    1.5445 C   0  0  0  0  0  0  0  0  0  0  0  0
    3.7094   -0.6321    0.5925 C   0  0  0  0  0  0  0  0  0  0  0  0
    4.3799    0.5472   -0.1334 C   0  0  0  0  0  0  0  0  0  0  0  0
    3.2926    1.0150   -1.1123 C   0  0  0  0  0  0  0  0  0  0  0  0
    2.1234    0.0619   -0.8088 C   0  0  0  0  0  0  0  0  0  0  0  0
    2.8646   -1.2460   -0.5198 C   0  0  0  0  0  0  0  0  0  0  0  0
   -1.7521    1.6004   -2.4655 H   0  0  0  0  0  0  0  0  0  0  0  0
   -1.2592   -0.1049   -2.7023 H   0  0  0  0  0  0  0  0  0  0  0  0
   -2.7548    0.5001   -3.4135 H   0  0  0  0  0  0  0  0  0  0  0  0
   -4.7013   -0.1141   -2.3443 H   0  0  0  0  0  0  0  0  0  0  0  0
   -5.9745   -0.8020   -0.3555 H   0  0  0  0  0  0  0  0  0  0  0  0
   -4.8958   -0.8496    1.8536 H   0  0  0  0  0  0  0  0  0  0  0  0
   -2.0864   -1.1580    2.8627 H   0  0  0  0  0  0  0  0  0  0  0  0
   -3.2223    0.1462    3.2356 H   0  0  0  0  0  0  0  0  0  0  0  0
   -1.6299    0.5674    2.6616 H   0  0  0  0  0  0  0  0  0  0  0  0
   -0.4580    0.9435   -0.7662 H   0  0  0  0  0  0  0  0  0  0  0  0
    1.4247    1.5129    0.6935 H   0  0  0  0  0  0  0  0  0  0  0  0
    3.0164    0.7180    2.1764 H   0  0  0  0  0  0  0  0  0  0  0  0
    2.2707   -0.8837    2.2059 H   0  0  0  0  0  0  0  0  0  0  0  0
    4.4178   -1.3073    1.0763 H   0  0  0  0  0  0  0  0  0  0  0  0
    4.6867    1.3433    0.5524 H   0  0  0  0  0  0  0  0  0  0  0  0
    5.2648    0.2126   -0.6865 H   0  0  0  0  0  0  0  0  0  0  0  0
    3.0295    2.0673   -0.9659 H   0  0  0  0  0  0  0  0  0  0  0  0
    3.6377    0.8906   -2.1451 H   0  0  0  0  0  0  0  0  0  0  0  0
    1.3949   -0.0028   -1.6197 H   0  0  0  0  0  0  0  0  0  0  0  0
    2.2095   -2.0515   -0.1728 H   0  0  0  0  0  0  0  0  0  0  0  0
    3.4600   -1.5999   -1.3682 H   0  0  0  0  0  0  0  0  0  0  0  0
  1  2  1  0
  2  3  2  0
  3  4  1  0
  4  5  2  0
  5  6  1  0
  6  7  1  0
  6  8  2  0
  8  9  1  0
  9 10  1  0
 10 11  2  0
 10 12  1  0
 12 13  1  0
 13 14  1  0
 14 15  1  0
 15 16  1  0
 16 17  1  0
 17 18  1  0
  8  2  1  0
 17 12  1  0
 18 14  1  0
  1 19  1  0
  1 20  1  0
  1 21  1  0
  3 22  1  0
  4 23  1  0
  5 24  1  0
  7 25  1  0
  7 26  1  0
  7 27  1  0
  9 28  1  0
 12 29  1  0
 13 30  1  0
 13 31  1  0
 14 32  1  0
 15 33  1  0
 15 34  1  0
 16 35  1  0
 16 36  1  0
 17 37  1  0
 18 38  1  0
 18 39  1  0
M  END
$$$$
