
     RDKit          3D

 59 62  0  0  0  0  0  0  0  0999 V2000
    6.3894   -0.3680   -6.9909 C   0  0  0  0  0  0  0  0  0  0  0  0
    5.7844   -0.6771   -5.6536 C   0  0  0  0  0  0  0  0  0  0  0  0
    4.9372   -1.7795   -5.4954 C   0  0  0  0  0  0  0  0  0  0  0  0
    4.3510   -2.0517   -4.2566 C   0  0  0  0  0  0  0  0  0  0  0  0
    4.5989   -1.2225   -3.1551 C   0  0  0  0  0  0  0  0  0  0  0  0
    3.9554   -1.4950   -1.8206 C   0  0  0  0  0  0  0  0  0  0  0  0
    2.7837   -0.6689   -1.6396 N   0  0  0  0  0  0  0  0  0  0  0  0
    2.8185    0.4839   -0.8862 C   0  0  0  0  0  0  0  0  0  0  0  0
    3.7969    0.8464   -0.2424 O   0  0  0  0  0  0  0  0  0  0  0  0
    1.5274    1.2761   -0.9658 C   0  0  0  0  0  0  0  0  0  0  0  0
    1.4692    2.4344    0.0294 C   0  0  0  0  0  0  0  0  0  0  0  0
    1.3887    1.9920    1.4939 C   0  0  0  0  0  0  0  0  0  0  0  0
    0.1464    1.2914    1.8063 N   0  0  0  0  0  0  0  0  0  0  0  0
    0.2169   -0.1062    1.7933 N   0  0  0  0  0  0  0  0  0  0  0  0
   -0.8284   -0.8360    2.0651 C   0  0  0  0  0  0  0  0  0  0  0  0
   -0.6803   -2.3305    2.0343 C   0  0  0  0  0  0  0  0  0  0  0  0
   -2.0798   -0.1920    2.3804 C   0  0  0  0  0  0  0  0  0  0  0  0
   -3.3295   -0.6467    2.7684 C   0  0  0  0  0  0  0  0  0  0  0  0
   -3.7714   -2.0161    3.1388 C   0  0  0  0  0  0  0  0  0  0  0  0
   -4.1413    0.4941    2.8157 N   0  0  0  0  0  0  0  0  0  0  0  0
   -5.5590    0.6252    2.9516 C   0  0  0  0  0  0  0  0  0  0  0  0
   -6.0919    1.8779    3.3043 C   0  0  0  0  0  0  0  0  0  0  0  0
   -7.4708    2.0548    3.4389 C   0  0  0  0  0  0  0  0  0  0  0  0
   -8.3348    0.9889    3.2082 C   0  0  0  0  0  0  0  0  0  0  0  0
   -7.8212   -0.2505    2.8348 C   0  0  0  0  0  0  0  0  0  0  0  0
   -6.4402   -0.4329    2.6996 C   0  0  0  0  0  0  0  0  0  0  0  0
   -3.3943    1.6253    2.6972 N   0  0  0  0  0  0  0  0  0  0  0  0
   -2.1703    1.2036    2.3742 C   0  0  0  0  0  0  0  0  0  0  0  0
   -1.0182    2.0433    2.0717 C   0  0  0  0  0  0  0  0  0  0  0  0
   -1.0574    3.2716    2.0465 O   0  0  0  0  0  0  0  0  0  0  0  0
    5.4290   -0.1061   -3.3224 C   0  0  0  0  0  0  0  0  0  0  0  0
    6.0141    0.1657   -4.5608 C   0  0  0  0  0  0  0  0  0  0  0  0
    7.3517    0.1420   -6.8760 H   0  0  0  0  0  0  0  0  0  0  0  0
    5.7157    0.2733   -7.5676 H   0  0  0  0  0  0  0  0  0  0  0  0
    6.5750   -1.2870   -7.5570 H   0  0  0  0  0  0  0  0  0  0  0  0
    4.7297   -2.4355   -6.3379 H   0  0  0  0  0  0  0  0  0  0  0  0
    3.7002   -2.9172   -4.1592 H   0  0  0  0  0  0  0  0  0  0  0  0
    4.6770   -1.3360   -1.0115 H   0  0  0  0  0  0  0  0  0  0  0  0
    3.6268   -2.5385   -1.7615 H   0  0  0  0  0  0  0  0  0  0  0  0
    2.0214   -0.7963   -2.2904 H   0  0  0  0  0  0  0  0  0  0  0  0
    1.4648    1.6847   -1.9819 H   0  0  0  0  0  0  0  0  0  0  0  0
    0.6752    0.6017   -0.8322 H   0  0  0  0  0  0  0  0  0  0  0  0
    2.3547    3.0695   -0.0954 H   0  0  0  0  0  0  0  0  0  0  0  0
    0.5991    3.0563   -0.2132 H   0  0  0  0  0  0  0  0  0  0  0  0
    2.2321    1.3507    1.7711 H   0  0  0  0  0  0  0  0  0  0  0  0
    1.4459    2.8819    2.1323 H   0  0  0  0  0  0  0  0  0  0  0  0
    0.2654   -2.6090    1.5599 H   0  0  0  0  0  0  0  0  0  0  0  0
   -0.6821   -2.7179    3.0564 H   0  0  0  0  0  0  0  0  0  0  0  0
   -1.4983   -2.7813    1.4667 H   0  0  0  0  0  0  0  0  0  0  0  0
   -2.9435   -2.5936    3.5598 H   0  0  0  0  0  0  0  0  0  0  0  0
   -4.1422   -2.5552    2.2619 H   0  0  0  0  0  0  0  0  0  0  0  0
   -4.5411   -2.0019    3.9158 H   0  0  0  0  0  0  0  0  0  0  0  0
   -5.4399    2.7311    3.4899 H   0  0  0  0  0  0  0  0  0  0  0  0
   -7.8655    3.0277    3.7213 H   0  0  0  0  0  0  0  0  0  0  0  0
   -9.4079    1.1280    3.3077 H   0  0  0  0  0  0  0  0  0  0  0  0
   -8.4993   -1.0760    2.6323 H   0  0  0  0  0  0  0  0  0  0  0  0
   -6.1028   -1.4003    2.3491 H   0  0  0  0  0  0  0  0  0  0  0  0
    5.6191    0.5621   -2.4831 H   0  0  0  0  0  0  0  0  0  0  0  0
    6.6509    1.0415   -4.6647 H   0  0  0  0  0  0  0  0  0  0  0  0
  1  2  1  0
  2  3  2  0
  3  4  1  0
  4  5  2  0
  5  6  1  0
  6  7  1  0
  7  8  1  0
  8  9  2  0
  8 10  1  0
 10 11  1  0
 11 12  1  0
 12 13  1  0
 13 14  1  0
 14 15  2  0
 15 16  1  0
 15 17  1  0
 17 18  2  0
 18 19  1  0
 18 20  1  0
 20 21  1  0
 21 22  2  0
 22 23  1  0
 23 24  2  0
 24 25  1  0
 25 26  2  0
 20 27  1  0
 27 28  2  0
 28 29  1  0
 29 30  2  0
  5 31  1  0
 31 32  2  0
 32  2  1  0
 29 13  1  0
 28 17  1  0
 26 21  1  0
  1 33  1  0
  1 34  1  0
  1 35  1  0
  3 36  1  0
  4 37  1  0
  6 38  1  0
  6 39  1  0
  7 40  1  0
 10 41  1  0
 10 42  1  0
 11 43  1  0
 11 44  1  0
 12 45  1  0
 12 46  1  0
 16 47  1  0
 16 48  1  0
 16 49  1  0
 19 50  1  0
 19 51  1  0
 19 52  1  0
 22 53  1  0
 23 54  1  0
 24 55  1  0
 25 56  1  0
 26 57  1  0
 31 58  1  0
 32 59  1  0
M  END
$$$$
