
     RDKit          3D

 50 52  0  0  0  0  0  0  0  0999 V2000
   -3.1172   -0.7359   -3.2284 C   0  0  0  0  0  0  0  0  0  0  0  0
   -3.9309   -0.1759   -2.2068 O   0  0  0  0  0  0  0  0  0  0  0  0
   -3.4419   -0.1893   -0.9265 C   0  0  0  0  0  0  0  0  0  0  0  0
   -2.2342   -0.7682   -0.5413 C   0  0  0  0  0  0  0  0  0  0  0  0
   -1.8287   -0.6997    0.7973 C   0  0  0  0  0  0  0  0  0  0  0  0
   -0.5500   -1.3103    1.2227 C   0  0  0  0  0  0  0  0  0  0  0  0
   -0.5891   -2.1478    2.1200 O   0  0  0  0  0  0  0  0  0  0  0  0
    0.6242   -0.9084    0.5972 N   0  0  0  0  0  0  0  0  0  0  0  0
    0.7553    0.3097   -0.2203 C   0  0  0  0  0  0  0  0  0  0  0  0
    2.1874    0.8773   -0.2274 C   0  0  0  0  0  0  0  0  0  0  0  0
    3.1379   -0.1550   -0.6793 N   0  0  0  0  0  0  0  0  0  0  0  0
    4.4616    0.2907   -0.8143 C   0  0  0  0  0  0  0  0  0  0  0  0
    4.9131    0.5117   -2.1280 C   0  0  0  0  0  0  0  0  0  0  0  0
    6.2100    0.9587   -2.3813 C   0  0  0  0  0  0  0  0  0  0  0  0
    6.7253    1.2146   -4.0027 Cl  0  0  0  0  0  0  0  0  0  0  0  0
    7.0898    1.1996   -1.3317 C   0  0  0  0  0  0  0  0  0  0  0  0
    6.6656    0.9926   -0.0195 C   0  0  0  0  0  0  0  0  0  0  0  0
    5.3637    0.5438    0.2419 C   0  0  0  0  0  0  0  0  0  0  0  0
    4.9356    0.3327    1.9053 Cl  0  0  0  0  0  0  0  0  0  0  0  0
    2.9580   -1.5086   -0.1053 C   0  0  0  0  0  0  0  0  0  0  0  0
    1.8768   -1.5622    0.9899 C   0  0  0  0  0  0  0  0  0  0  0  0
   -2.6344   -0.0996    1.7720 C   0  0  0  0  0  0  0  0  0  0  0  0
   -3.8468    0.4810    1.4048 C   0  0  0  0  0  0  0  0  0  0  0  0
   -4.7055    1.1138    2.2655 O   0  0  0  0  0  0  0  0  0  0  0  0
   -4.3349    1.1729    3.6364 C   0  0  0  0  0  0  0  0  0  0  0  0
   -4.2440    0.4242    0.0550 C   0  0  0  0  0  0  0  0  0  0  0  0
   -5.4151    1.0424   -0.3284 O   0  0  0  0  0  0  0  0  0  0  0  0
   -6.5014    0.1220   -0.2344 C   0  0  0  0  0  0  0  0  0  0  0  0
   -2.1573   -0.2138   -3.3011 H   0  0  0  0  0  0  0  0  0  0  0  0
   -2.9730   -1.8098   -3.0716 H   0  0  0  0  0  0  0  0  0  0  0  0
   -3.6395   -0.6061   -4.1811 H   0  0  0  0  0  0  0  0  0  0  0  0
   -1.5967   -1.2847   -1.2504 H   0  0  0  0  0  0  0  0  0  0  0  0
    0.0588    1.0736    0.1402 H   0  0  0  0  0  0  0  0  0  0  0  0
    0.4694    0.0371   -1.2427 H   0  0  0  0  0  0  0  0  0  0  0  0
    2.2212    1.7399   -0.9039 H   0  0  0  0  0  0  0  0  0  0  0  0
    2.4386    1.2323    0.7786 H   0  0  0  0  0  0  0  0  0  0  0  0
    4.2355    0.3246   -2.9582 H   0  0  0  0  0  0  0  0  0  0  0  0
    8.1009    1.5477   -1.5259 H   0  0  0  0  0  0  0  0  0  0  0  0
    7.3547    1.1844    0.7997 H   0  0  0  0  0  0  0  0  0  0  0  0
    2.6459   -2.1608   -0.9306 H   0  0  0  0  0  0  0  0  0  0  0  0
    3.8929   -1.9298    0.2830 H   0  0  0  0  0  0  0  0  0  0  0  0
    2.2252   -1.0536    1.8961 H   0  0  0  0  0  0  0  0  0  0  0  0
    1.6811   -2.6057    1.2611 H   0  0  0  0  0  0  0  0  0  0  0  0
   -2.2844   -0.1009    2.7995 H   0  0  0  0  0  0  0  0  0  0  0  0
   -5.1258    1.7050    4.1738 H   0  0  0  0  0  0  0  0  0  0  0  0
   -4.2567    0.1695    4.0677 H   0  0  0  0  0  0  0  0  0  0  0  0
   -3.4051    1.7357    3.7701 H   0  0  0  0  0  0  0  0  0  0  0  0
   -6.6519   -0.2155    0.7968 H   0  0  0  0  0  0  0  0  0  0  0  0
   -6.3552   -0.7384   -0.8964 H   0  0  0  0  0  0  0  0  0  0  0  0
   -7.4090    0.6426   -0.5542 H   0  0  0  0  0  0  0  0  0  0  0  0
  1  2  1  0
  2  3  1  0
  3  4  2  0
  4  5  1  0
  5  6  1  0
  6  7  2  0
  6  8  1  0
  8  9  1  0
  9 10  1  0
 10 11  1  0
 11 12  1  0
 12 13  2  0
 13 14  1  0
 14 15  1  0
 14 16  2  0
 16 17  1  0
 17 18  2  0
 18 19  1  0
 11 20  1  0
 20 21  1  0
  5 22  2  0
 22 23  1  0
 23 24  1  0
 24 25  1  0
 23 26  2  0
 26 27  1  0
 27 28  1  0
 26  3  1  0
 21  8  1  0
 18 12  1  0
  1 29  1  0
  1 30  1  0
  1 31  1  0
  4 32  1  0
  9 33  1  0
  9 34  1  0
 10 35  1  0
 10 36  1  0
 13 37  1  0
 16 38  1  0
 17 39  1  0
 20 40  1  0
 20 41  1  0
 21 42  1  0
 21 43  1  0
 22 44  1  0
 25 45  1  0
 25 46  1  0
 25 47  1  0
 28 48  1  0
 28 49  1  0
 28 50  1  0
M  END
$$$$
