
     RDKit          3D

 62 65  0  0  0  0  0  0  0  0999 V2000
    8.9644   -3.2212   -0.9855 C   0  0  0  0  0  0  0  0  0  0  0  0
    8.1826   -1.9435   -1.0619 C   0  0  0  0  0  0  0  0  0  0  0  0
    7.8140   -1.2705    0.1082 C   0  0  0  0  0  0  0  0  0  0  0  0
    7.1017   -0.0717    0.0416 C   0  0  0  0  0  0  0  0  0  0  0  0
    6.7595    0.4859   -1.1982 C   0  0  0  0  0  0  0  0  0  0  0  0
    5.9484    1.7561   -1.2588 C   0  0  0  0  0  0  0  0  0  0  0  0
    4.5372    1.4543   -1.1606 N   0  0  0  0  0  0  0  0  0  0  0  0
    3.8727    1.5115    0.0462 C   0  0  0  0  0  0  0  0  0  0  0  0
    4.3617    1.9674    1.0732 O   0  0  0  0  0  0  0  0  0  0  0  0
    2.4683    0.9560   -0.0355 C   0  0  0  0  0  0  0  0  0  0  0  0
    1.7748    0.9658    1.3241 C   0  0  0  0  0  0  0  0  0  0  0  0
    0.4338    0.3056    1.2642 C   0  0  0  0  0  0  0  0  0  0  0  0
    0.1349   -1.0458    1.5573 C   0  0  0  0  0  0  0  0  0  0  0  0
    1.0670   -2.1071    2.0116 C   0  0  0  0  0  0  0  0  0  0  0  0
   -1.1549   -1.3261    1.3704 N   0  0  0  0  0  0  0  0  0  0  0  0
   -1.7267   -0.1559    0.9749 N   0  0  0  0  0  0  0  0  0  0  0  0
   -3.1243   -0.1052    0.6862 C   0  0  0  0  0  0  0  0  0  0  0  0
   -3.8901   -1.2591    0.7597 C   0  0  0  0  0  0  0  0  0  0  0  0
   -5.2508   -1.1892    0.4483 C   0  0  0  0  0  0  0  0  0  0  0  0
   -5.8352    0.0216    0.0861 C   0  0  0  0  0  0  0  0  0  0  0  0
   -7.1747    0.1135   -0.2615 N   0  0  0  0  0  0  0  0  0  0  0  0
   -8.1805   -0.7473    0.3772 C   0  0  0  0  0  0  0  0  0  0  0  0
   -9.4220    0.0657    0.7838 C   0  0  0  0  0  0  0  0  0  0  0  0
  -10.0314    0.7736   -0.3010 O   0  0  0  0  0  0  0  0  0  0  0  0
   -9.0819    1.3047   -1.2423 C   0  0  0  0  0  0  0  0  0  0  0  0
   -7.6514    1.4355   -0.6956 C   0  0  0  0  0  0  0  0  0  0  0  0
   -5.0437    1.1163    0.0238 N   0  0  0  0  0  0  0  0  0  0  0  0
   -3.6921    1.0617    0.3259 N   0  0  0  0  0  0  0  0  0  0  0  0
   -0.7815    0.8627    0.8988 C   0  0  0  0  0  0  0  0  0  0  0  0
   -1.0952    2.2552    0.4790 C   0  0  0  0  0  0  0  0  0  0  0  0
    7.1392   -0.1826   -2.3707 C   0  0  0  0  0  0  0  0  0  0  0  0
    7.8514   -1.3830   -2.3017 C   0  0  0  0  0  0  0  0  0  0  0  0
    8.8419   -3.8139   -1.8985 H   0  0  0  0  0  0  0  0  0  0  0  0
    8.6187   -3.8385   -0.1480 H   0  0  0  0  0  0  0  0  0  0  0  0
   10.0269   -3.0015   -0.8507 H   0  0  0  0  0  0  0  0  0  0  0  0
    8.0729   -1.6791    1.0831 H   0  0  0  0  0  0  0  0  0  0  0  0
    6.8045    0.4280    0.9628 H   0  0  0  0  0  0  0  0  0  0  0  0
    6.2554    2.4488   -0.4658 H   0  0  0  0  0  0  0  0  0  0  0  0
    6.1084    2.2653   -2.2170 H   0  0  0  0  0  0  0  0  0  0  0  0
    4.1352    0.9002   -1.9058 H   0  0  0  0  0  0  0  0  0  0  0  0
    1.9005    1.5551   -0.7567 H   0  0  0  0  0  0  0  0  0  0  0  0
    2.5266   -0.0683   -0.4218 H   0  0  0  0  0  0  0  0  0  0  0  0
    2.4007    0.4572    2.0675 H   0  0  0  0  0  0  0  0  0  0  0  0
    1.6648    1.9952    1.6857 H   0  0  0  0  0  0  0  0  0  0  0  0
    0.5458   -3.0549    2.1885 H   0  0  0  0  0  0  0  0  0  0  0  0
    1.8411   -2.2818    1.2584 H   0  0  0  0  0  0  0  0  0  0  0  0
    1.5534   -1.8118    2.9456 H   0  0  0  0  0  0  0  0  0  0  0  0
   -3.4512   -2.2164    1.0318 H   0  0  0  0  0  0  0  0  0  0  0  0
   -5.8329   -2.1054    0.4658 H   0  0  0  0  0  0  0  0  0  0  0  0
   -7.7960   -1.2434    1.2746 H   0  0  0  0  0  0  0  0  0  0  0  0
   -8.4718   -1.5185   -0.3439 H   0  0  0  0  0  0  0  0  0  0  0  0
   -9.1637    0.7942    1.5585 H   0  0  0  0  0  0  0  0  0  0  0  0
  -10.1804   -0.5971    1.2075 H   0  0  0  0  0  0  0  0  0  0  0  0
   -9.4513    2.2835   -1.5666 H   0  0  0  0  0  0  0  0  0  0  0  0
   -9.0907    0.6449   -2.1194 H   0  0  0  0  0  0  0  0  0  0  0  0
   -7.0138    1.8415   -1.4891 H   0  0  0  0  0  0  0  0  0  0  0  0
   -7.6431    2.1316    0.1522 H   0  0  0  0  0  0  0  0  0  0  0  0
   -0.1954    2.8773    0.4637 H   0  0  0  0  0  0  0  0  0  0  0  0
   -1.7975    2.7234    1.1715 H   0  0  0  0  0  0  0  0  0  0  0  0
   -1.5101    2.2737   -0.5306 H   0  0  0  0  0  0  0  0  0  0  0  0
    6.8844    0.2253   -3.3470 H   0  0  0  0  0  0  0  0  0  0  0  0
    8.1414   -1.8820   -3.2237 H   0  0  0  0  0  0  0  0  0  0  0  0
  1  2  1  0
  2  3  2  0
  3  4  1  0
  4  5  2  0
  5  6  1  0
  6  7  1  0
  7  8  1  0
  8  9  2  0
  8 10  1  0
 10 11  1  0
 11 12  1  0
 12 13  1  0
 13 14  1  0
 13 15  2  0
 15 16  1  0
 16 17  1  0
 17 18  2  0
 18 19  1  0
 19 20  2  0
 20 21  1  0
 21 22  1  0
 22 23  1  0
 23 24  1  0
 24 25  1  0
 25 26  1  0
 20 27  1  0
 27 28  2  0
 16 29  1  0
 29 30  1  0
  5 31  1  0
 31 32  2  0
 32  2  1  0
 29 12  2  0
 28 17  1  0
 26 21  1  0
  1 33  1  0
  1 34  1  0
  1 35  1  0
  3 36  1  0
  4 37  1  0
  6 38  1  0
  6 39  1  0
  7 40  1  0
 10 41  1  0
 10 42  1  0
 11 43  1  0
 11 44  1  0
 14 45  1  0
 14 46  1  0
 14 47  1  0
 18 48  1  0
 19 49  1  0
 22 50  1  0
 22 51  1  0
 23 52  1  0
 23 53  1  0
 25 54  1  0
 25 55  1  0
 26 56  1  0
 26 57  1  0
 30 58  1  0
 30 59  1  0
 30 60  1  0
 31 61  1  0
 32 62  1  0
M  END
$$$$
