
     RDKit          3D

 69 71  0  0  0  0  0  0  0  0999 V2000
   -7.0717    2.2217    2.4355 C   0  0  0  0  0  0  0  0  0  0  0  0
   -6.6057    0.7794    2.3237 C   0  0  0  0  0  0  0  0  0  0  0  0
   -6.4153    0.3128    0.8726 C   0  0  0  0  0  0  0  0  0  0  0  0
   -5.4080    1.0554    0.1017 N   0  0  0  0  0  0  0  0  0  0  0  0
   -5.7088    1.2842   -1.3193 C   0  0  0  0  0  0  0  0  0  0  0  0
   -5.9483    2.7554   -1.6651 C   0  0  0  0  0  0  0  0  0  0  0  0
   -7.3449    3.2286   -1.2948 C   0  0  0  0  0  0  0  0  0  0  0  0
   -4.0775    1.0033    0.5548 C   0  0  0  0  0  0  0  0  0  0  0  0
   -3.7544    0.3397    1.5438 O   0  0  0  0  0  0  0  0  0  0  0  0
   -3.0522    1.8932   -0.1730 C   0  0  0  0  0  0  0  0  0  0  0  0
   -1.6867    1.5858    0.2531 N   0  0  0  0  0  0  0  0  0  0  0  0
   -1.0357    0.5408   -0.4122 C   0  0  0  0  0  0  0  0  0  0  0  0
   -1.5639   -0.0244   -1.3754 O   0  0  0  0  0  0  0  0  0  0  0  0
    0.2406    0.1831    0.0393 N   0  0  0  0  0  0  0  0  0  0  0  0
    0.9181   -0.9092   -0.6539 C   0  0  0  0  0  0  0  0  0  0  0  0
    1.7479   -0.3966   -1.8361 C   0  0  0  0  0  0  0  0  0  0  0  0
    2.3155   -1.5180   -2.7097 C   0  0  0  0  0  0  0  0  0  0  0  0
    3.2418   -2.5095   -1.9998 C   0  0  0  0  0  0  0  0  0  0  0  0
    4.4961   -1.8599   -1.4172 C   0  0  0  0  0  0  0  0  0  0  0  0
    5.4708   -2.8862   -0.8545 C   0  0  0  0  0  0  0  0  0  0  0  0
    5.2060   -4.0819   -0.8109 O   0  0  0  0  0  0  0  0  0  0  0  0
    6.6468   -2.2861   -0.4349 N   0  0  0  0  0  0  0  0  0  0  0  0
    7.7677   -2.9088    0.1526 C   0  0  0  0  0  0  0  0  0  0  0  0
    7.8106   -4.2571    0.5139 C   0  0  0  0  0  0  0  0  0  0  0  0
    8.9570   -4.7973    1.1040 C   0  0  0  0  0  0  0  0  0  0  0  0
   10.0801   -3.9983    1.3177 C   0  0  0  0  0  0  0  0  0  0  0  0
   10.0466   -2.6516    0.9635 C   0  0  0  0  0  0  0  0  0  0  0  0
    8.8904   -2.1079    0.3954 C   0  0  0  0  0  0  0  0  0  0  0  0
    0.9558    0.8476    1.0436 C   0  0  0  0  0  0  0  0  0  0  0  0
    2.1250    0.5759    1.3129 O   0  0  0  0  0  0  0  0  0  0  0  0
    0.1947    1.8713    1.7022 C   0  0  0  0  0  0  0  0  0  0  0  0
    0.7822    2.7672    3.0193 S   0  0  0  0  0  0  0  0  0  0  0  0
   -0.6893    3.6342    3.1429 C   0  0  0  0  0  0  0  0  0  0  0  0
   -1.6009    3.2428    2.1827 C   0  0  0  0  0  0  0  0  0  0  0  0
   -1.0777    2.2204    1.3369 C   0  0  0  0  0  0  0  0  0  0  0  0
   -8.0414    2.3600    1.9469 H   0  0  0  0  0  0  0  0  0  0  0  0
   -6.3497    2.9095    1.9840 H   0  0  0  0  0  0  0  0  0  0  0  0
   -7.1841    2.5009    3.4867 H   0  0  0  0  0  0  0  0  0  0  0  0
   -5.6865    0.6612    2.9052 H   0  0  0  0  0  0  0  0  0  0  0  0
   -7.3541    0.1332    2.8006 H   0  0  0  0  0  0  0  0  0  0  0  0
   -7.3830    0.3972    0.3631 H   0  0  0  0  0  0  0  0  0  0  0  0
   -6.1266   -0.7455    0.8604 H   0  0  0  0  0  0  0  0  0  0  0  0
   -4.8753    0.8975   -1.9154 H   0  0  0  0  0  0  0  0  0  0  0  0
   -6.5758    0.6790   -1.6144 H   0  0  0  0  0  0  0  0  0  0  0  0
   -5.8258    2.8824   -2.7471 H   0  0  0  0  0  0  0  0  0  0  0  0
   -5.2090    3.4028   -1.1807 H   0  0  0  0  0  0  0  0  0  0  0  0
   -7.5270    3.1456   -0.2219 H   0  0  0  0  0  0  0  0  0  0  0  0
   -7.4719    4.2799   -1.5752 H   0  0  0  0  0  0  0  0  0  0  0  0
   -8.1055    2.6439   -1.8213 H   0  0  0  0  0  0  0  0  0  0  0  0
   -3.1135    1.7587   -1.2546 H   0  0  0  0  0  0  0  0  0  0  0  0
   -3.2803    2.9413    0.0431 H   0  0  0  0  0  0  0  0  0  0  0  0
    1.5619   -1.4353    0.0599 H   0  0  0  0  0  0  0  0  0  0  0  0
    0.1736   -1.6347   -1.0052 H   0  0  0  0  0  0  0  0  0  0  0  0
    2.5575    0.2489   -1.4754 H   0  0  0  0  0  0  0  0  0  0  0  0
    1.1205    0.2415   -2.4722 H   0  0  0  0  0  0  0  0  0  0  0  0
    1.4803   -2.0774   -3.1500 H   0  0  0  0  0  0  0  0  0  0  0  0
    2.8575   -1.0652   -3.5498 H   0  0  0  0  0  0  0  0  0  0  0  0
    3.5396   -3.2745   -2.7282 H   0  0  0  0  0  0  0  0  0  0  0  0
    2.6957   -3.0425   -1.2124 H   0  0  0  0  0  0  0  0  0  0  0  0
    4.2275   -1.1752   -0.6062 H   0  0  0  0  0  0  0  0  0  0  0  0
    5.0109   -1.2870   -2.1975 H   0  0  0  0  0  0  0  0  0  0  0  0
    6.7295   -1.2903   -0.5958 H   0  0  0  0  0  0  0  0  0  0  0  0
    6.9584   -4.9149    0.3690 H   0  0  0  0  0  0  0  0  0  0  0  0
    8.9686   -5.8470    1.3928 H   0  0  0  0  0  0  0  0  0  0  0  0
   10.9726   -4.4237    1.7690 H   0  0  0  0  0  0  0  0  0  0  0  0
   10.9157   -2.0233    1.1384 H   0  0  0  0  0  0  0  0  0  0  0  0
    8.8936   -1.0543    0.1283 H   0  0  0  0  0  0  0  0  0  0  0  0
   -0.8160    4.3820    3.9141 H   0  0  0  0  0  0  0  0  0  0  0  0
   -2.5906    3.6753    2.1141 H   0  0  0  0  0  0  0  0  0  0  0  0
  1  2  1  0
  2  3  1  0
  3  4  1  0
  4  5  1  0
  5  6  1  0
  6  7  1  0
  4  8  1  0
  8  9  2  0
  8 10  1  0
 10 11  1  0
 11 12  1  0
 12 13  2  0
 12 14  1  0
 14 15  1  0
 15 16  1  0
 16 17  1  0
 17 18  1  0
 18 19  1  0
 19 20  1  0
 20 21  2  0
 20 22  1  0
 22 23  1  0
 23 24  2  0
 24 25  1  0
 25 26  2  0
 26 27  1  0
 27 28  2  0
 14 29  1  0
 29 30  2  0
 29 31  1  0
 31 32  1  0
 32 33  1  0
 33 34  2  0
 34 35  1  0
 35 11  1  0
 28 23  1  0
 35 31  2  0
  1 36  1  0
  1 37  1  0
  1 38  1  0
  2 39  1  0
  2 40  1  0
  3 41  1  0
  3 42  1  0
  5 43  1  0
  5 44  1  0
  6 45  1  0
  6 46  1  0
  7 47  1  0
  7 48  1  0
  7 49  1  0
 10 50  1  0
 10 51  1  0
 15 52  1  0
 15 53  1  0
 16 54  1  0
 16 55  1  0
 17 56  1  0
 17 57  1  0
 18 58  1  0
 18 59  1  0
 19 60  1  0
 19 61  1  0
 22 62  1  0
 24 63  1  0
 25 64  1  0
 26 65  1  0
 27 66  1  0
 28 67  1  0
 33 68  1  0
 34 69  1  0
M  END
$$$$
