
     RDKit          3D

 63 67  0  0  0  0  0  0  0  0999 V2000
   -2.7583   -1.8176    3.0976 O   0  0  0  0  0  0  0  0  0  0  0  0
   -2.5542   -0.8760    2.3399 C   0  0  0  0  0  0  0  0  0  0  0  0
   -3.2583   -0.6685    1.1767 N   0  0  0  0  0  0  0  0  0  0  0  0
   -4.2694   -1.6100    0.7126 C   0  0  0  0  0  0  0  0  0  0  0  0
   -3.5747   -2.7695   -0.0200 C   0  0  0  0  0  0  0  0  0  0  0  0
   -4.5762   -3.6068   -0.8015 C   0  0  0  0  0  0  0  0  0  0  0  0
   -5.2341   -2.7564   -1.8835 C   0  0  0  0  0  0  0  0  0  0  0  0
   -5.7792   -1.4562   -1.3477 C   0  0  0  0  0  0  0  0  0  0  0  0
   -6.7473   -0.7705   -2.0987 C   0  0  0  0  0  0  0  0  0  0  0  0
   -7.2823    0.4331   -1.6420 C   0  0  0  0  0  0  0  0  0  0  0  0
   -6.8581    0.9643   -0.4291 C   0  0  0  0  0  0  0  0  0  0  0  0
   -5.8874    0.2991    0.3195 C   0  0  0  0  0  0  0  0  0  0  0  0
   -5.3142   -0.9025   -0.1384 C   0  0  0  0  0  0  0  0  0  0  0  0
   -1.5165    0.1354    2.6798 C   0  0  0  0  0  0  0  0  0  0  0  0
   -1.2282    0.3561    4.0353 C   0  0  0  0  0  0  0  0  0  0  0  0
   -0.2690    1.2985    4.4140 C   0  0  0  0  0  0  0  0  0  0  0  0
    0.4188    2.0180    3.4394 C   0  0  0  0  0  0  0  0  0  0  0  0
    0.1503    1.7762    2.0883 C   0  0  0  0  0  0  0  0  0  0  0  0
    1.0474    2.6916    0.8608 S   0  0  0  0  0  6  0  0  0  0  0  0
    1.0080    4.0838    1.2535 O   0  0  0  0  0  0  0  0  0  0  0  0
    0.5894    2.2728   -0.4473 O   0  0  0  0  0  0  0  0  0  0  0  0
    2.6436    2.1258    1.0556 N   0  0  0  0  0  0  0  0  0  0  0  0
    2.8273    0.6455    0.8624 C   0  0  0  0  0  0  0  0  0  0  0  0
    4.2715    0.2693    0.4785 C   0  0  0  0  0  0  0  0  0  0  0  0
    4.6685    0.9312   -0.7718 N   0  0  0  0  0  0  0  0  0  0  0  0
    5.6917    0.4405   -1.5680 C   0  0  0  0  0  0  0  0  0  0  0  0
    6.6209   -0.5007   -1.0961 C   0  0  0  0  0  0  0  0  0  0  0  0
    7.6506   -0.9989   -1.9049 C   0  0  0  0  0  0  0  0  0  0  0  0
    7.7744   -0.5689   -3.2195 C   0  0  0  0  0  0  0  0  0  0  0  0
    6.8689    0.3575   -3.7208 C   0  0  0  0  0  0  0  0  0  0  0  0
    5.8442    0.8506   -2.9035 C   0  0  0  0  0  0  0  0  0  0  0  0
    4.0891    2.2637   -1.0222 C   0  0  0  0  0  0  0  0  0  0  0  0
    3.6560    2.9359    0.2932 C   0  0  0  0  0  0  0  0  0  0  0  0
   -0.8147    0.8416    1.6973 C   0  0  0  0  0  0  0  0  0  0  0  0
   -3.0844    0.1401    0.5969 H   0  0  0  0  0  0  0  0  0  0  0  0
   -4.7910   -2.0207    1.5874 H   0  0  0  0  0  0  0  0  0  0  0  0
   -2.8122   -2.3822   -0.7109 H   0  0  0  0  0  0  0  0  0  0  0  0
   -3.0421   -3.4014    0.7018 H   0  0  0  0  0  0  0  0  0  0  0  0
   -4.0726   -4.4631   -1.2636 H   0  0  0  0  0  0  0  0  0  0  0  0
   -5.3369   -4.0076   -0.1197 H   0  0  0  0  0  0  0  0  0  0  0  0
   -4.5026   -2.5248   -2.6668 H   0  0  0  0  0  0  0  0  0  0  0  0
   -6.0406   -3.3386   -2.3442 H   0  0  0  0  0  0  0  0  0  0  0  0
   -7.0954   -1.1783   -3.0453 H   0  0  0  0  0  0  0  0  0  0  0  0
   -8.0363    0.9505   -2.2291 H   0  0  0  0  0  0  0  0  0  0  0  0
   -7.2849    1.8947   -0.0630 H   0  0  0  0  0  0  0  0  0  0  0  0
   -5.5804    0.7227    1.2743 H   0  0  0  0  0  0  0  0  0  0  0  0
   -1.7619   -0.2039    4.8023 H   0  0  0  0  0  0  0  0  0  0  0  0
   -0.0635    1.4709    5.4683 H   0  0  0  0  0  0  0  0  0  0  0  0
    1.1626    2.7574    3.7307 H   0  0  0  0  0  0  0  0  0  0  0  0
    2.1523    0.2797    0.0804 H   0  0  0  0  0  0  0  0  0  0  0  0
    2.5693    0.1426    1.8004 H   0  0  0  0  0  0  0  0  0  0  0  0
    4.9603    0.5581    1.2810 H   0  0  0  0  0  0  0  0  0  0  0  0
    4.3085   -0.8212    0.3704 H   0  0  0  0  0  0  0  0  0  0  0  0
    6.5788   -0.8555   -0.0708 H   0  0  0  0  0  0  0  0  0  0  0  0
    8.3542   -1.7214   -1.5003 H   0  0  0  0  0  0  0  0  0  0  0  0
    8.5700   -0.9548   -3.8503 H   0  0  0  0  0  0  0  0  0  0  0  0
    6.9478    0.6949   -4.7502 H   0  0  0  0  0  0  0  0  0  0  0  0
    5.1417    1.5505   -3.3481 H   0  0  0  0  0  0  0  0  0  0  0  0
    3.2306    2.1600   -1.6955 H   0  0  0  0  0  0  0  0  0  0  0  0
    4.8195    2.9277   -1.5000 H   0  0  0  0  0  0  0  0  0  0  0  0
    4.5243    3.0698    0.9509 H   0  0  0  0  0  0  0  0  0  0  0  0
    3.2785    3.9420    0.0823 H   0  0  0  0  0  0  0  0  0  0  0  0
   -0.9925    0.6577    0.6415 H   0  0  0  0  0  0  0  0  0  0  0  0
  1  2  2  0
  2  3  1  0
  3  4  1  0
  4  5  1  0
  5  6  1  0
  6  7  1  0
  7  8  1  0
  8  9  2  0
  9 10  1  0
 10 11  2  0
 11 12  1  0
 12 13  2  0
  2 14  1  0
 14 15  2  0
 15 16  1  0
 16 17  2  0
 17 18  1  0
 18 19  1  0
 19 20  2  0
 19 21  2  0
 19 22  1  0
 22 23  1  0
 23 24  1  0
 24 25  1  0
 25 26  1  0
 26 27  2  0
 27 28  1  0
 28 29  2  0
 29 30  1  0
 30 31  2  0
 25 32  1  0
 32 33  1  0
 18 34  2  0
 13  4  1  0
 34 14  1  0
 13  8  1  0
 33 22  1  0
 31 26  1  0
  3 35  1  0
  4 36  1  0
  5 37  1  0
  5 38  1  0
  6 39  1  0
  6 40  1  0
  7 41  1  0
  7 42  1  0
  9 43  1  0
 10 44  1  0
 11 45  1  0
 12 46  1  0
 15 47  1  0
 16 48  1  0
 17 49  1  0
 23 50  1  0
 23 51  1  0
 24 52  1  0
 24 53  1  0
 27 54  1  0
 28 55  1  0
 29 56  1  0
 30 57  1  0
 31 58  1  0
 32 59  1  0
 32 60  1  0
 33 61  1  0
 33 62  1  0
 34 63  1  0
M  END
$$$$
