
     RDKit          3D

 63 65  0  0  0  0  0  0  0  0999 V2000
    1.3290   -1.7613    1.7069 C   0  0  0  0  0  0  0  0  0  0  0  0
    0.0273   -1.0126    1.4462 C   0  0  0  0  0  0  0  0  0  0  0  0
   -0.3390   -0.7414    0.0545 N   0  0  0  0  0  0  0  0  0  0  0  0
    0.3912    0.3581   -0.5936 C   0  0  0  0  0  0  0  0  0  0  0  0
    1.8240    0.0171   -1.0315 C   0  0  0  0  0  0  0  0  0  0  0  0
    2.0476   -0.8619   -1.8604 O   0  0  0  0  0  0  0  0  0  0  0  0
    2.7775    0.8143   -0.4141 N   0  0  0  0  0  0  0  0  0  0  0  0
    4.1667    0.8356   -0.6573 C   0  0  0  0  0  0  0  0  0  0  0  0
    4.9401    1.7043    0.1207 C   0  0  0  0  0  0  0  0  0  0  0  0
    6.3256    1.8084   -0.0746 C   0  0  0  0  0  0  0  0  0  0  0  0
    6.9605    1.0452   -1.0529 C   0  0  0  0  0  0  0  0  0  0  0  0
    8.3418    1.0996   -1.3261 N   0  0  0  0  0  0  0  0  0  0  0  0
    9.2913    1.9007   -0.7166 C   0  0  0  0  0  0  0  0  0  0  0  0
   10.6685    1.6913   -1.2955 C   0  0  0  0  0  0  0  0  0  0  0  0
    9.1038    2.7222    0.1734 O   0  0  0  0  0  0  0  0  0  0  0  0
    6.1878    0.1710   -1.8243 C   0  0  0  0  0  0  0  0  0  0  0  0
    4.8034    0.0669   -1.6293 C   0  0  0  0  0  0  0  0  0  0  0  0
   -0.4905   -1.9373   -0.7987 C   0  0  0  0  0  0  0  0  0  0  0  0
   -1.7560   -2.7249   -0.4207 C   0  0  0  0  0  0  0  0  0  0  0  0
   -1.7630   -3.9530   -0.4084 O   0  0  0  0  0  0  0  0  0  0  0  0
   -2.8314   -1.8909   -0.1705 N   0  0  0  0  0  0  0  0  0  0  0  0
   -4.1667   -2.2144    0.1554 C   0  0  0  0  0  0  0  0  0  0  0  0
   -4.6028   -3.5439    0.2362 C   0  0  0  0  0  0  0  0  0  0  0  0
   -5.9266   -3.8497    0.5628 C   0  0  0  0  0  0  0  0  0  0  0  0
   -6.8366   -2.8313    0.8170 C   0  0  0  0  0  0  0  0  0  0  0  0
   -6.4273   -1.4999    0.7389 C   0  0  0  0  0  0  0  0  0  0  0  0
   -5.0986   -1.1753    0.4050 C   0  0  0  0  0  0  0  0  0  0  0  0
   -4.6860    0.2656    0.3209 C   0  0  0  0  0  0  0  0  0  0  0  0
   -3.5350    0.6004    0.0537 O   0  0  0  0  0  0  0  0  0  0  0  0
   -5.6534    1.3468    0.5660 C   0  0  0  0  0  0  0  0  0  0  0  0
   -5.7050    1.9399    1.8301 C   0  0  0  0  0  0  0  0  0  0  0  0
   -6.6142    2.9712    2.0635 C   0  0  0  0  0  0  0  0  0  0  0  0
   -7.4501    3.4111    1.0328 C   0  0  0  0  0  0  0  0  0  0  0  0
   -7.3812    2.8233   -0.2328 C   0  0  0  0  0  0  0  0  0  0  0  0
   -6.4778    1.7881   -0.4730 C   0  0  0  0  0  0  0  0  0  0  0  0
    2.2026   -1.2043    1.3595 H   0  0  0  0  0  0  0  0  0  0  0  0
    1.3353   -2.7523    1.2433 H   0  0  0  0  0  0  0  0  0  0  0  0
    1.4511   -1.9091    2.7857 H   0  0  0  0  0  0  0  0  0  0  0  0
    0.0522   -0.0638    1.9984 H   0  0  0  0  0  0  0  0  0  0  0  0
   -0.7851   -1.5828    1.9162 H   0  0  0  0  0  0  0  0  0  0  0  0
   -0.1480    0.6747   -1.4964 H   0  0  0  0  0  0  0  0  0  0  0  0
    0.3841    1.2384    0.0603 H   0  0  0  0  0  0  0  0  0  0  0  0
    2.4503    1.4369    0.3142 H   0  0  0  0  0  0  0  0  0  0  0  0
    4.4836    2.3265    0.8854 H   0  0  0  0  0  0  0  0  0  0  0  0
    6.8735    2.5052    0.5516 H   0  0  0  0  0  0  0  0  0  0  0  0
    8.6682    0.4902   -2.0659 H   0  0  0  0  0  0  0  0  0  0  0  0
   10.8423    0.6343   -1.5181 H   0  0  0  0  0  0  0  0  0  0  0  0
   11.4215    2.0125   -0.5689 H   0  0  0  0  0  0  0  0  0  0  0  0
   10.7713    2.2817   -2.2105 H   0  0  0  0  0  0  0  0  0  0  0  0
    6.6415   -0.4389   -2.6028 H   0  0  0  0  0  0  0  0  0  0  0  0
    4.2535   -0.6188   -2.2674 H   0  0  0  0  0  0  0  0  0  0  0  0
   -0.6305   -1.6480   -1.8482 H   0  0  0  0  0  0  0  0  0  0  0  0
    0.3769   -2.6014   -0.7473 H   0  0  0  0  0  0  0  0  0  0  0  0
   -2.5966   -0.8907   -0.1668 H   0  0  0  0  0  0  0  0  0  0  0  0
   -3.9283   -4.3745    0.0489 H   0  0  0  0  0  0  0  0  0  0  0  0
   -6.2395   -4.8898    0.6200 H   0  0  0  0  0  0  0  0  0  0  0  0
   -7.8652   -3.0726    1.0746 H   0  0  0  0  0  0  0  0  0  0  0  0
   -7.1678   -0.7319    0.9468 H   0  0  0  0  0  0  0  0  0  0  0  0
   -5.0398    1.6083    2.6237 H   0  0  0  0  0  0  0  0  0  0  0  0
   -6.6635    3.4407    3.0433 H   0  0  0  0  0  0  0  0  0  0  0  0
   -8.1513    4.2229    1.2129 H   0  0  0  0  0  0  0  0  0  0  0  0
   -8.0229    3.1830   -1.0359 H   0  0  0  0  0  0  0  0  0  0  0  0
   -6.4141    1.3404   -1.4607 H   0  0  0  0  0  0  0  0  0  0  0  0
  1  2  1  0
  2  3  1  0
  3  4  1  0
  4  5  1  0
  5  6  2  0
  5  7  1  0
  7  8  1  0
  8  9  2  0
  9 10  1  0
 10 11  2  0
 11 12  1  0
 12 13  1  0
 13 14  1  0
 13 15  2  0
 11 16  1  0
 16 17  2  0
  3 18  1  0
 18 19  1  0
 19 20  2  0
 19 21  1  0
 21 22  1  0
 22 23  2  0
 23 24  1  0
 24 25  2  0
 25 26  1  0
 26 27  2  0
 27 28  1  0
 28 29  2  0
 28 30  1  0
 30 31  2  0
 31 32  1  0
 32 33  2  0
 33 34  1  0
 34 35  2  0
 17  8  1  0
 27 22  1  0
 35 30  1  0
  1 36  1  0
  1 37  1  0
  1 38  1  0
  2 39  1  0
  2 40  1  0
  4 41  1  0
  4 42  1  0
  7 43  1  0
  9 44  1  0
 10 45  1  0
 12 46  1  0
 14 47  1  0
 14 48  1  0
 14 49  1  0
 16 50  1  0
 17 51  1  0
 18 52  1  0
 18 53  1  0
 21 54  1  0
 23 55  1  0
 24 56  1  0
 25 57  1  0
 26 58  1  0
 31 59  1  0
 32 60  1  0
 33 61  1  0
 34 62  1  0
 35 63  1  0
M  END
$$$$
