
     RDKit          3D

 42 44  0  0  0  0  0  0  0  0999 V2000
   -0.9783    5.3741    0.3019 C   0  0  0  0  0  0  0  0  0  0  0  0
   -1.5974    5.0272   -0.9313 O   0  0  0  0  0  0  0  0  0  0  0  0
   -1.7436    3.6884   -1.1971 C   0  0  0  0  0  0  0  0  0  0  0  0
   -1.3783    2.6411   -0.3537 C   0  0  0  0  0  0  0  0  0  0  0  0
   -1.5857    1.3148   -0.7572 C   0  0  0  0  0  0  0  0  0  0  0  0
   -1.1990    0.2187    0.1383 C   0  0  0  0  0  0  0  0  0  0  0  0
   -0.0747   -0.5144    0.0132 C   0  0  0  0  0  0  0  0  0  0  0  0
    0.8638   -0.3269   -1.0380 C   0  0  0  0  0  0  0  0  0  0  0  0
    1.6358   -0.1618   -1.8890 N   0  0  0  0  0  0  0  0  0  0  0  0
    0.1147   -1.6105    1.0085 C   0  0  0  0  0  0  0  0  0  0  0  0
   -0.8530   -2.2284    1.4485 O   0  0  0  0  0  0  0  0  0  0  0  0
    1.4866   -1.9014    1.4233 C   0  0  0  0  0  0  0  0  0  0  0  0
    2.5719   -1.0382    1.4318 C   0  0  0  0  0  0  0  0  0  0  0  0
    3.6687   -1.7171    1.8960 N   0  0  0  0  0  0  0  0  0  0  0  0
    3.3230   -3.0019    2.2353 C   0  0  0  0  0  0  0  0  0  0  0  0
    4.1083   -4.0352    2.7602 C   0  0  0  0  0  0  0  0  0  0  0  0
    3.4838   -5.2580    3.0185 C   0  0  0  0  0  0  0  0  0  0  0  0
    2.1278   -5.4378    2.7607 C   0  0  0  0  0  0  0  0  0  0  0  0
    1.3587   -4.3945    2.2329 C   0  0  0  0  0  0  0  0  0  0  0  0
    1.9624   -3.1471    1.9624 C   0  0  0  0  0  0  0  0  0  0  0  0
   -2.1614    1.0345   -2.0061 C   0  0  0  0  0  0  0  0  0  0  0  0
   -2.5306    2.0735   -2.8629 C   0  0  0  0  0  0  0  0  0  0  0  0
   -3.1010    1.9118   -4.0968 O   0  0  0  0  0  0  0  0  0  0  0  0
   -3.2014    0.5895   -4.6054 C   0  0  0  0  0  0  0  0  0  0  0  0
   -2.3194    3.3920   -2.4418 C   0  0  0  0  0  0  0  0  0  0  0  0
   -2.6796    4.4327   -3.2654 O   0  0  0  0  0  0  0  0  0  0  0  0
   -0.9193    6.4657    0.3507 H   0  0  0  0  0  0  0  0  0  0  0  0
    0.0431    4.9820    0.3541 H   0  0  0  0  0  0  0  0  0  0  0  0
   -1.5774    5.0343    1.1526 H   0  0  0  0  0  0  0  0  0  0  0  0
   -0.9344    2.8303    0.6182 H   0  0  0  0  0  0  0  0  0  0  0  0
   -1.9032    0.0267    0.9474 H   0  0  0  0  0  0  0  0  0  0  0  0
    2.6751    0.0015    1.1490 H   0  0  0  0  0  0  0  0  0  0  0  0
    4.5994   -1.3325    1.9873 H   0  0  0  0  0  0  0  0  0  0  0  0
    5.1657   -3.8991    2.9630 H   0  0  0  0  0  0  0  0  0  0  0  0
    4.0663   -6.0815    3.4250 H   0  0  0  0  0  0  0  0  0  0  0  0
    1.6589   -6.3962    2.9690 H   0  0  0  0  0  0  0  0  0  0  0  0
    0.3002   -4.5484    2.0375 H   0  0  0  0  0  0  0  0  0  0  0  0
   -2.3211   -0.0020   -2.2871 H   0  0  0  0  0  0  0  0  0  0  0  0
   -3.8850   -0.0142   -3.9987 H   0  0  0  0  0  0  0  0  0  0  0  0
   -2.2164    0.1169   -4.6786 H   0  0  0  0  0  0  0  0  0  0  0  0
   -3.6177    0.6494   -5.6153 H   0  0  0  0  0  0  0  0  0  0  0  0
   -2.4362    5.2424   -2.7792 H   0  0  0  0  0  0  0  0  0  0  0  0
  1  2  1  0
  2  3  1  0
  3  4  2  0
  4  5  1  0
  5  6  1  0
  6  7  2  3
  7  8  1  0
  8  9  3  0
  7 10  1  0
 10 11  2  0
 10 12  1  0
 12 13  2  0
 13 14  1  0
 14 15  1  0
 15 16  2  0
 16 17  1  0
 17 18  2  0
 18 19  1  0
 19 20  2  0
  5 21  2  0
 21 22  1  0
 22 23  1  0
 23 24  1  0
 22 25  2  0
 25 26  1  0
 25  3  1  0
 20 12  1  0
 20 15  1  0
  1 27  1  0
  1 28  1  0
  1 29  1  0
  4 30  1  0
  6 31  1  0
 13 32  1  0
 14 33  1  0
 16 34  1  0
 17 35  1  0
 18 36  1  0
 19 37  1  0
 21 38  1  0
 24 39  1  0
 24 40  1  0
 24 41  1  0
 26 42  1  0
M  END
$$$$
