
     RDKit          3D

 55 58  0  0  0  0  0  0  0  0999 V2000
   -4.1766   -4.5640    0.2672 C   0  0  0  0  0  0  0  0  0  0  0  0
   -3.9194   -3.6392    1.3700 N   0  0  0  0  0  0  0  0  0  0  0  0
   -3.7364   -4.2617    2.6810 C   0  0  0  0  0  0  0  0  0  0  0  0
   -3.2651   -2.4306    1.1083 C   0  0  0  0  0  0  0  0  0  0  0  0
   -2.8702   -1.5613    2.1366 C   0  0  0  0  0  0  0  0  0  0  0  0
   -2.2325   -0.3332    1.8855 C   0  0  0  0  0  0  0  0  0  0  0  0
   -1.9614    0.0958    0.5828 C   0  0  0  0  0  0  0  0  0  0  0  0
   -1.3414    1.3276    0.2956 N   0  0  0  0  0  0  0  0  0  0  0  0
   -0.2181    1.4108   -0.5290 C   0  0  0  0  0  0  0  0  0  0  0  0
    0.2484    0.4789   -1.2932 N   0  0  0  0  0  0  0  0  0  0  0  0
    1.3403    0.7411   -2.0756 C   0  0  0  0  0  0  0  0  0  0  0  0
    1.2801    1.3775   -3.1216 O   0  0  0  0  0  0  0  0  0  0  0  0
    2.6163    0.0996   -1.5703 C   0  0  0  0  0  0  0  0  0  0  0  0
    3.8383    0.6317   -2.3111 C   0  0  0  0  0  0  0  0  0  0  0  0
    5.1157    0.0535   -1.7548 C   0  0  0  0  0  0  0  0  0  0  0  0
    5.8185    0.7243   -0.7450 C   0  0  0  0  0  0  0  0  0  0  0  0
    6.9898    0.1787   -0.2174 C   0  0  0  0  0  0  0  0  0  0  0  0
    7.4663   -1.0425   -0.6907 C   0  0  0  0  0  0  0  0  0  0  0  0
    6.7719   -1.7196   -1.6913 C   0  0  0  0  0  0  0  0  0  0  0  0
    5.6005   -1.1758   -2.2204 C   0  0  0  0  0  0  0  0  0  0  0  0
    0.5485    3.0067   -0.3487 S   0  0  0  0  0  0  0  0  0  0  0  0
   -0.8749    3.6828    0.5373 C   0  0  0  0  0  0  0  0  0  0  0  0
   -1.8762    4.2940   -0.4254 C   0  0  0  0  0  0  0  0  0  0  0  0
   -3.3769    4.2699    0.5123 S   0  0  0  0  0  6  0  0  0  0  0  0
   -4.4895    4.0057   -0.3722 O   0  0  0  0  0  0  0  0  0  0  0  0
   -3.3546    5.4060    1.4115 O   0  0  0  0  0  0  0  0  0  0  0  0
   -3.0121    2.8166    1.4657 C   0  0  0  0  0  0  0  0  0  0  0  0
   -1.5418    2.4703    1.2087 C   0  0  0  0  0  0  0  0  0  0  0  0
   -2.3576   -0.7586   -0.4500 C   0  0  0  0  0  0  0  0  0  0  0  0
   -2.9987   -1.9823   -0.1929 C   0  0  0  0  0  0  0  0  0  0  0  0
   -3.2398   -4.9284   -0.1683 H   0  0  0  0  0  0  0  0  0  0  0  0
   -4.7878   -4.0940   -0.5110 H   0  0  0  0  0  0  0  0  0  0  0  0
   -4.7460   -5.4357    0.6092 H   0  0  0  0  0  0  0  0  0  0  0  0
   -4.1783   -3.6512    3.4756 H   0  0  0  0  0  0  0  0  0  0  0  0
   -2.6743   -4.4294    2.8930 H   0  0  0  0  0  0  0  0  0  0  0  0
   -4.2398   -5.2337    2.7343 H   0  0  0  0  0  0  0  0  0  0  0  0
   -3.0562   -1.8128    3.1765 H   0  0  0  0  0  0  0  0  0  0  0  0
   -1.9411    0.2579    2.7482 H   0  0  0  0  0  0  0  0  0  0  0  0
    2.7072    0.3041   -0.4967 H   0  0  0  0  0  0  0  0  0  0  0  0
    2.5259   -0.9851   -1.7001 H   0  0  0  0  0  0  0  0  0  0  0  0
    3.8749    1.7273   -2.2506 H   0  0  0  0  0  0  0  0  0  0  0  0
    3.7699    0.3982   -3.3815 H   0  0  0  0  0  0  0  0  0  0  0  0
    5.4590    1.6780   -0.3654 H   0  0  0  0  0  0  0  0  0  0  0  0
    7.5315    0.7073    0.5624 H   0  0  0  0  0  0  0  0  0  0  0  0
    8.3792   -1.4661   -0.2807 H   0  0  0  0  0  0  0  0  0  0  0  0
    7.1431   -2.6717   -2.0610 H   0  0  0  0  0  0  0  0  0  0  0  0
    5.0691   -1.7163   -3.0004 H   0  0  0  0  0  0  0  0  0  0  0  0
   -0.5568    4.4161    1.2867 H   0  0  0  0  0  0  0  0  0  0  0  0
   -2.0446    3.6956   -1.3267 H   0  0  0  0  0  0  0  0  0  0  0  0
   -1.6333    5.3230   -0.7012 H   0  0  0  0  0  0  0  0  0  0  0  0
   -3.1700    3.0744    2.5175 H   0  0  0  0  0  0  0  0  0  0  0  0
   -3.7194    2.0355    1.1782 H   0  0  0  0  0  0  0  0  0  0  0  0
   -1.0334    2.2551    2.1581 H   0  0  0  0  0  0  0  0  0  0  0  0
   -2.1910   -0.4778   -1.4887 H   0  0  0  0  0  0  0  0  0  0  0  0
   -3.2790   -2.5730   -1.0600 H   0  0  0  0  0  0  0  0  0  0  0  0
  1  2  1  0
  2  3  1  0
  2  4  1  0
  4  5  2  0
  5  6  1  0
  6  7  2  0
  7  8  1  0
  8  9  1  0
  9 10  2  3
 10 11  1  0
 11 12  2  0
 11 13  1  0
 13 14  1  0
 14 15  1  0
 15 16  2  0
 16 17  1  0
 17 18  2  0
 18 19  1  0
 19 20  2  0
  9 21  1  0
 21 22  1  0
 22 23  1  0
 23 24  1  0
 24 25  2  0
 24 26  2  0
 24 27  1  0
 27 28  1  0
  7 29  1  0
 29 30  2  0
 30  4  1  0
 28  8  1  0
 20 15  1  0
 28 22  1  0
  1 31  1  0
  1 32  1  0
  1 33  1  0
  3 34  1  0
  3 35  1  0
  3 36  1  0
  5 37  1  0
  6 38  1  0
 13 39  1  0
 13 40  1  0
 14 41  1  0
 14 42  1  0
 16 43  1  0
 17 44  1  0
 18 45  1  0
 19 46  1  0
 20 47  1  0
 22 48  1  0
 23 49  1  0
 23 50  1  0
 27 51  1  0
 27 52  1  0
 28 53  1  0
 29 54  1  0
 30 55  1  0
M  END
$$$$
