
     RDKit          3D

 47 49  0  0  0  0  0  0  0  0999 V2000
    6.9442   -3.1938   -2.9860 C   0  0  0  0  0  0  0  0  0  0  0  0
    6.2738   -3.3913   -1.7473 O   0  0  0  0  0  0  0  0  0  0  0  0
    5.2892   -2.4977   -1.4305 C   0  0  0  0  0  0  0  0  0  0  0  0
    4.8350   -1.4548   -2.2350 C   0  0  0  0  0  0  0  0  0  0  0  0
    3.8116   -0.6072   -1.7862 C   0  0  0  0  0  0  0  0  0  0  0  0
    3.2433   -0.7806   -0.5242 C   0  0  0  0  0  0  0  0  0  0  0  0
    2.1866    0.0068   -0.0201 N   0  0  0  0  0  0  0  0  0  0  0  0
    1.7846    1.3035   -0.3245 C   0  0  0  0  0  0  0  0  0  0  0  0
    2.7769    2.4856   -0.9917 S   0  0  0  0  0  0  0  0  0  0  0  0
    0.4413    1.5304    0.0813 N   0  0  0  0  0  0  0  0  0  0  0  0
   -0.1278    2.8862    0.1021 C   0  0  0  0  0  0  0  0  0  0  0  0
   -1.2307    3.0119    1.1510 C   0  0  0  0  0  0  0  0  0  0  0  0
   -2.2607    1.9234    1.0157 C   0  0  0  0  0  0  0  0  0  0  0  0
   -3.5451    2.1013    1.5526 C   0  0  0  0  0  0  0  0  0  0  0  0
   -4.5067    1.0894    1.4596 C   0  0  0  0  0  0  0  0  0  0  0  0
   -5.7851    1.1851    1.9515 O   0  0  0  0  0  0  0  0  0  0  0  0
   -6.1575    2.3961    2.5927 C   0  0  0  0  0  0  0  0  0  0  0  0
   -4.1771   -0.1236    0.8261 C   0  0  0  0  0  0  0  0  0  0  0  0
   -5.1746   -1.0657    0.7713 O   0  0  0  0  0  0  0  0  0  0  0  0
   -4.8930   -2.2918    0.1132 C   0  0  0  0  0  0  0  0  0  0  0  0
   -2.8900   -0.3029    0.3057 C   0  0  0  0  0  0  0  0  0  0  0  0
   -1.9204    0.7100    0.4044 C   0  0  0  0  0  0  0  0  0  0  0  0
   -0.5468    0.4698   -0.1795 C   0  0  0  0  0  0  0  0  0  0  0  0
    3.6816   -1.8473    0.2670 C   0  0  0  0  0  0  0  0  0  0  0  0
    4.7016   -2.6924   -0.1808 C   0  0  0  0  0  0  0  0  0  0  0  0
    7.4393   -2.2176   -3.0173 H   0  0  0  0  0  0  0  0  0  0  0  0
    7.7182   -3.9625   -3.0732 H   0  0  0  0  0  0  0  0  0  0  0  0
    6.2568   -3.3166   -3.8294 H   0  0  0  0  0  0  0  0  0  0  0  0
    5.2445   -1.2731   -3.2231 H   0  0  0  0  0  0  0  0  0  0  0  0
    3.4595    0.1624   -2.4653 H   0  0  0  0  0  0  0  0  0  0  0  0
    1.7865   -0.3227    0.8499 H   0  0  0  0  0  0  0  0  0  0  0  0
    0.6421    3.6273    0.3363 H   0  0  0  0  0  0  0  0  0  0  0  0
   -0.5110    3.1030   -0.9033 H   0  0  0  0  0  0  0  0  0  0  0  0
   -1.7023    3.9967    1.0541 H   0  0  0  0  0  0  0  0  0  0  0  0
   -0.7943    2.9433    2.1552 H   0  0  0  0  0  0  0  0  0  0  0  0
   -3.7701    3.0443    2.0404 H   0  0  0  0  0  0  0  0  0  0  0  0
   -5.5497    2.5733    3.4860 H   0  0  0  0  0  0  0  0  0  0  0  0
   -6.1028    3.2430    1.9008 H   0  0  0  0  0  0  0  0  0  0  0  0
   -7.1988    2.2977    2.9144 H   0  0  0  0  0  0  0  0  0  0  0  0
   -4.6473   -2.1279   -0.9411 H   0  0  0  0  0  0  0  0  0  0  0  0
   -4.0962   -2.8408    0.6256 H   0  0  0  0  0  0  0  0  0  0  0  0
   -5.7970   -2.9073    0.1512 H   0  0  0  0  0  0  0  0  0  0  0  0
   -2.6120   -1.2311   -0.1840 H   0  0  0  0  0  0  0  0  0  0  0  0
   -0.1761   -0.4870    0.2011 H   0  0  0  0  0  0  0  0  0  0  0  0
   -0.6369    0.3838   -1.2701 H   0  0  0  0  0  0  0  0  0  0  0  0
    3.2511   -2.0299    1.2478 H   0  0  0  0  0  0  0  0  0  0  0  0
    5.0419   -3.5085    0.4520 H   0  0  0  0  0  0  0  0  0  0  0  0
  1  2  1  0
  2  3  1  0
  3  4  2  0
  4  5  1  0
  5  6  2  0
  6  7  1  0
  7  8  1  0
  8  9  2  0
  8 10  1  0
 10 11  1  0
 11 12  1  0
 12 13  1  0
 13 14  2  0
 14 15  1  0
 15 16  1  0
 16 17  1  0
 15 18  2  0
 18 19  1  0
 19 20  1  0
 18 21  1  0
 21 22  2  0
 22 23  1  0
  6 24  1  0
 24 25  2  0
 25  3  1  0
 23 10  1  0
 22 13  1  0
  1 26  1  0
  1 27  1  0
  1 28  1  0
  4 29  1  0
  5 30  1  0
  7 31  1  0
 11 32  1  0
 11 33  1  0
 12 34  1  0
 12 35  1  0
 14 36  1  0
 17 37  1  0
 17 38  1  0
 17 39  1  0
 20 40  1  0
 20 41  1  0
 20 42  1  0
 21 43  1  0
 23 44  1  0
 23 45  1  0
 24 46  1  0
 25 47  1  0
M  END
$$$$
