
     RDKit          3D

 44 47  0  0  0  0  0  0  0  0999 V2000
    2.0099    1.2564   -2.1283 C   0  0  0  0  0  0  0  0  0  0  0  0
    2.4340    0.0868   -1.2387 C   0  0  0  0  0  0  0  0  0  0  0  0
    1.5757   -1.0976   -1.3784 N   0  0  0  0  0  0  0  0  0  0  0  0
    0.2097   -1.0668   -1.0327 C   0  0  0  0  0  0  0  0  0  0  0  0
   -0.3636    0.0864   -0.6575 N   0  0  0  0  0  0  0  0  0  0  0  0
   -1.6606    0.0574   -0.3025 C   0  0  0  0  0  0  0  0  0  0  0  0
   -2.2911    1.3198    0.1367 C   0  0  0  0  0  0  0  0  0  0  0  0
   -1.7117    2.5724   -0.1393 C   0  0  0  0  0  0  0  0  0  0  0  0
   -2.3091    3.7661    0.2795 C   0  0  0  0  0  0  0  0  0  0  0  0
   -3.5073    3.7347    0.9857 C   0  0  0  0  0  0  0  0  0  0  0  0
   -4.1085    2.5128    1.2701 C   0  0  0  0  0  0  0  0  0  0  0  0
   -3.5071    1.3221    0.8488 C   0  0  0  0  0  0  0  0  0  0  0  0
   -2.4310   -1.0429   -0.3125 N   0  0  0  0  0  0  0  0  0  0  0  0
   -1.8728   -2.1777   -0.7323 C   0  0  0  0  0  0  0  0  0  0  0  0
   -2.6607   -3.3220   -0.7807 C   0  0  0  0  0  0  0  0  0  0  0  0
   -2.1582   -4.5492   -1.2201 C   0  0  0  0  0  0  0  0  0  0  0  0
   -0.8359   -4.6426   -1.6280 C   0  0  0  0  0  0  0  0  0  0  0  0
   -0.0271   -3.5089   -1.5842 C   0  0  0  0  0  0  0  0  0  0  0  0
   -0.5329   -2.2628   -1.1266 C   0  0  0  0  0  0  0  0  0  0  0  0
    2.7487    0.3901    0.2183 C   0  0  0  0  0  0  0  0  0  0  0  0
    2.1017    1.4050    0.9365 C   0  0  0  0  0  0  0  0  0  0  0  0
    2.4094    1.6442    2.2782 C   0  0  0  0  0  0  0  0  0  0  0  0
    3.3712    0.8721    2.9241 C   0  0  0  0  0  0  0  0  0  0  0  0
    4.0234   -0.1434    2.2307 C   0  0  0  0  0  0  0  0  0  0  0  0
    3.7130   -0.3845    0.8905 C   0  0  0  0  0  0  0  0  0  0  0  0
    1.8797    0.9236   -3.1643 H   0  0  0  0  0  0  0  0  0  0  0  0
    1.0748    1.7264   -1.8199 H   0  0  0  0  0  0  0  0  0  0  0  0
    2.7773    2.0388   -2.1211 H   0  0  0  0  0  0  0  0  0  0  0  0
    3.3967   -0.2205   -1.6737 H   0  0  0  0  0  0  0  0  0  0  0  0
    1.9935   -1.8709   -0.8675 H   0  0  0  0  0  0  0  0  0  0  0  0
   -0.7821    2.6268   -0.7005 H   0  0  0  0  0  0  0  0  0  0  0  0
   -1.8371    4.7175    0.0488 H   0  0  0  0  0  0  0  0  0  0  0  0
   -3.9736    4.6608    1.3110 H   0  0  0  0  0  0  0  0  0  0  0  0
   -5.0459    2.4803    1.8191 H   0  0  0  0  0  0  0  0  0  0  0  0
   -3.9978    0.3790    1.0855 H   0  0  0  0  0  0  0  0  0  0  0  0
   -3.7016   -3.2552   -0.4709 H   0  0  0  0  0  0  0  0  0  0  0  0
   -2.8052   -5.4221   -1.2482 H   0  0  0  0  0  0  0  0  0  0  0  0
   -0.4359   -5.5885   -1.9835 H   0  0  0  0  0  0  0  0  0  0  0  0
    1.0019   -3.5912   -1.9263 H   0  0  0  0  0  0  0  0  0  0  0  0
    1.3338    2.0120    0.4660 H   0  0  0  0  0  0  0  0  0  0  0  0
    1.8887    2.4303    2.8191 H   0  0  0  0  0  0  0  0  0  0  0  0
    3.6068    1.0587    3.9683 H   0  0  0  0  0  0  0  0  0  0  0  0
    4.7719   -0.7498    2.7336 H   0  0  0  0  0  0  0  0  0  0  0  0
    4.2347   -1.1838    0.3685 H   0  0  0  0  0  0  0  0  0  0  0  0
  1  2  1  0
  2  3  1  0
  3  4  1  0
  4  5  2  0
  5  6  1  0
  6  7  1  0
  7  8  2  0
  8  9  1  0
  9 10  2  0
 10 11  1  0
 11 12  2  0
  6 13  2  0
 13 14  1  0
 14 15  2  0
 15 16  1  0
 16 17  2  0
 17 18  1  0
 18 19  2  0
  2 20  1  0
 20 21  2  0
 21 22  1  0
 22 23  2  0
 23 24  1  0
 24 25  2  0
 19  4  1  0
 25 20  1  0
 12  7  1  0
 19 14  1  0
  1 26  1  0
  1 27  1  0
  1 28  1  0
  2 29  1  0
  3 30  1  0
  8 31  1  0
  9 32  1  0
 10 33  1  0
 11 34  1  0
 12 35  1  0
 15 36  1  0
 16 37  1  0
 17 38  1  0
 18 39  1  0
 21 40  1  0
 22 41  1  0
 23 42  1  0
 24 43  1  0
 25 44  1  0
M  END
$$$$
