
     RDKit          3D

 72 76  0  0  0  0  0  0  0  0999 V2000
    9.1401    1.3513   -1.4616 C   0  0  0  0  0  0  0  0  0  0  0  0
    8.3105    0.8216   -2.4885 O   0  0  0  0  0  0  0  0  0  0  0  0
    7.0655    0.3949   -2.1164 C   0  0  0  0  0  0  0  0  0  0  0  0
    6.5690    0.3461   -0.8146 C   0  0  0  0  0  0  0  0  0  0  0  0
    5.2715   -0.1279   -0.5748 C   0  0  0  0  0  0  0  0  0  0  0  0
    4.4630   -0.5465   -1.6368 C   0  0  0  0  0  0  0  0  0  0  0  0
    3.1104   -1.0425   -1.3982 C   0  0  0  0  0  0  0  0  0  0  0  0
    2.9533   -2.2264   -0.7934 N   0  0  0  0  0  0  0  0  0  0  0  0
    1.3440   -2.6015   -0.7304 S   0  0  0  0  0  0  0  0  0  0  0  0
    0.7941   -1.1516   -1.4406 C   0  0  0  0  0  0  0  0  0  0  0  0
   -0.6128   -0.9531   -1.6640 C   0  0  0  0  0  0  0  0  0  0  0  0
   -1.1199   -1.3721   -2.7064 O   0  0  0  0  0  0  0  0  0  0  0  0
   -1.3752   -0.2980   -0.6599 N   0  0  0  0  0  0  0  0  0  0  0  0
   -2.7595    0.0179   -0.9199 C   0  0  0  0  0  0  0  0  0  0  0  0
   -3.7382   -0.0671    0.0847 C   0  0  0  0  0  0  0  0  0  0  0  0
   -5.0658    0.2873   -0.1756 C   0  0  0  0  0  0  0  0  0  0  0  0
   -5.4244    0.7488   -1.4351 C   0  0  0  0  0  0  0  0  0  0  0  0
   -6.6889    1.1106   -1.6762 F   0  0  0  0  0  0  0  0  0  0  0  0
   -4.4814    0.8505   -2.4446 C   0  0  0  0  0  0  0  0  0  0  0  0
   -3.1555    0.4828   -2.1897 C   0  0  0  0  0  0  0  0  0  0  0  0
   -0.7776    0.1468    0.6393 C   0  0  0  0  0  0  0  0  0  0  0  0
   -1.0122   -0.8521    1.8085 C   0  0  0  0  0  0  0  0  0  0  0  0
   -0.8240   -0.5616    2.9901 O   0  0  0  0  0  0  0  0  0  0  0  0
   -1.3290   -2.1466    1.4173 N   0  0  0  0  0  0  0  0  0  0  0  0
   -1.5442   -3.2086    2.3880 C   0  0  0  0  0  0  0  0  0  0  0  0
   -1.3283   -4.5876    1.7463 C   0  0  0  0  0  0  0  0  0  0  0  0
   -2.6470   -5.3381    1.9125 C   0  0  0  0  0  0  0  0  0  0  0  0
   -3.6883   -4.2399    2.0436 C   0  0  0  0  0  0  0  0  0  0  0  0
   -2.9850   -3.2092    2.9125 C   0  0  0  0  0  0  0  0  0  0  0  0
   -1.0589    1.6253    0.9361 C   0  0  0  0  0  0  0  0  0  0  0  0
   -1.9910    2.0549    1.8933 C   0  0  0  0  0  0  0  0  0  0  0  0
   -2.2820    3.4165    2.0664 C   0  0  0  0  0  0  0  0  0  0  0  0
   -1.6307    4.3748    1.2935 C   0  0  0  0  0  0  0  0  0  0  0  0
   -1.8291    5.7293    1.3527 O   0  0  0  0  0  0  0  0  0  0  0  0
   -2.8442    6.1952    2.2386 C   0  0  0  0  0  0  0  0  0  0  0  0
   -0.6737    3.9643    0.3612 C   0  0  0  0  0  0  0  0  0  0  0  0
   -0.3974    2.6052    0.1754 C   0  0  0  0  0  0  0  0  0  0  0  0
    1.8843   -0.3928   -1.8138 C   0  0  0  0  0  0  0  0  0  0  0  0
    1.7966    0.8017   -2.4535 N   0  0  0  0  0  0  0  0  0  0  0  0
    4.9674   -0.5019   -2.9416 C   0  0  0  0  0  0  0  0  0  0  0  0
    6.2603   -0.0337   -3.1762 C   0  0  0  0  0  0  0  0  0  0  0  0
   10.0887    1.6523   -1.9223 H   0  0  0  0  0  0  0  0  0  0  0  0
    9.3648    0.5935   -0.7003 H   0  0  0  0  0  0  0  0  0  0  0  0
    8.6915    2.2485   -1.0125 H   0  0  0  0  0  0  0  0  0  0  0  0
    7.1675    0.6539    0.0357 H   0  0  0  0  0  0  0  0  0  0  0  0
    4.9028   -0.1793    0.4482 H   0  0  0  0  0  0  0  0  0  0  0  0
   -3.5127   -0.4188    1.0877 H   0  0  0  0  0  0  0  0  0  0  0  0
   -5.8197    0.2164    0.6018 H   0  0  0  0  0  0  0  0  0  0  0  0
   -4.7765    1.2298   -3.4181 H   0  0  0  0  0  0  0  0  0  0  0  0
   -2.4366    0.6147   -2.9957 H   0  0  0  0  0  0  0  0  0  0  0  0
    0.3144    0.1113    0.5418 H   0  0  0  0  0  0  0  0  0  0  0  0
   -1.7106   -2.2753    0.4845 H   0  0  0  0  0  0  0  0  0  0  0  0
   -0.8416   -3.0591    3.2145 H   0  0  0  0  0  0  0  0  0  0  0  0
   -0.5152   -5.1357    2.2401 H   0  0  0  0  0  0  0  0  0  0  0  0
   -1.0693   -4.5066    0.6831 H   0  0  0  0  0  0  0  0  0  0  0  0
   -2.8439   -6.0085    1.0708 H   0  0  0  0  0  0  0  0  0  0  0  0
   -2.6162   -5.9418    2.8298 H   0  0  0  0  0  0  0  0  0  0  0  0
   -3.9275   -3.8175    1.0610 H   0  0  0  0  0  0  0  0  0  0  0  0
   -4.6162   -4.5995    2.4985 H   0  0  0  0  0  0  0  0  0  0  0  0
   -3.4774   -2.2324    2.8684 H   0  0  0  0  0  0  0  0  0  0  0  0
   -2.9960   -3.5424    3.9567 H   0  0  0  0  0  0  0  0  0  0  0  0
   -2.5189    1.3407    2.5191 H   0  0  0  0  0  0  0  0  0  0  0  0
   -3.0331    3.6868    2.8080 H   0  0  0  0  0  0  0  0  0  0  0  0
   -2.5871    5.9728    3.2784 H   0  0  0  0  0  0  0  0  0  0  0  0
   -3.8241    5.7795    1.9798 H   0  0  0  0  0  0  0  0  0  0  0  0
   -2.9071    7.2829    2.1376 H   0  0  0  0  0  0  0  0  0  0  0  0
   -0.1545    4.7083   -0.2415 H   0  0  0  0  0  0  0  0  0  0  0  0
    0.3364    2.3192   -0.5751 H   0  0  0  0  0  0  0  0  0  0  0  0
    1.0006    1.0177   -3.0481 H   0  0  0  0  0  0  0  0  0  0  0  0
    2.6413    1.2704   -2.7809 H   0  0  0  0  0  0  0  0  0  0  0  0
    4.3586   -0.8439   -3.7764 H   0  0  0  0  0  0  0  0  0  0  0  0
    6.6520   -0.0048   -4.1913 H   0  0  0  0  0  0  0  0  0  0  0  0
  1  2  1  0
  2  3  1  0
  3  4  2  0
  4  5  1  0
  5  6  2  0
  6  7  1  0
  7  8  2  0
  8  9  1  0
  9 10  1  0
 10 11  1  0
 11 12  2  0
 11 13  1  0
 13 14  1  0
 14 15  2  0
 15 16  1  0
 16 17  2  0
 17 18  1  0
 17 19  1  0
 19 20  2  0
 13 21  1  0
 21 22  1  0
 22 23  2  0
 22 24  1  0
 24 25  1  0
 25 26  1  0
 26 27  1  0
 27 28  1  0
 28 29  1  0
 21 30  1  0
 30 31  2  0
 31 32  1  0
 32 33  2  0
 33 34  1  0
 34 35  1  0
 33 36  1  0
 36 37  2  0
 10 38  2  0
 38 39  1  0
  6 40  1  0
 40 41  2  0
 41  3  1  0
 38  7  1  0
 20 14  1  0
 29 25  1  0
 37 30  1  0
  1 42  1  0
  1 43  1  0
  1 44  1  0
  4 45  1  0
  5 46  1  0
 15 47  1  0
 16 48  1  0
 19 49  1  0
 20 50  1  0
 21 51  1  0
 24 52  1  0
 25 53  1  0
 26 54  1  0
 26 55  1  0
 27 56  1  0
 27 57  1  0
 28 58  1  0
 28 59  1  0
 29 60  1  0
 29 61  1  0
 31 62  1  0
 32 63  1  0
 35 64  1  0
 35 65  1  0
 35 66  1  0
 36 67  1  0
 37 68  1  0
 39 69  1  0
 39 70  1  0
 40 71  1  0
 41 72  1  0
M  END
$$$$
