
     RDKit          3D

 45 47  0  0  0  0  0  0  0  0999 V2000
    5.6826    1.0732    0.7524 C   0  0  0  0  0  0  0  0  0  0  0  0
    4.3991    0.6312    0.3256 O   0  0  0  0  0  0  0  0  0  0  0  0
    4.1892    0.5504   -1.0335 C   0  0  0  0  0  0  0  0  0  0  0  0
    5.1599    0.7964   -2.0092 C   0  0  0  0  0  0  0  0  0  0  0  0
    4.8366    0.6812   -3.3625 C   0  0  0  0  0  0  0  0  0  0  0  0
    3.5471    0.3208   -3.7449 C   0  0  0  0  0  0  0  0  0  0  0  0
    2.5710    0.0718   -2.7777 C   0  0  0  0  0  0  0  0  0  0  0  0
    2.8813    0.1835   -1.4215 C   0  0  0  0  0  0  0  0  0  0  0  0
    1.9537   -0.0503   -0.3817 N   0  0  0  0  0  0  0  0  0  0  0  0
    0.6171   -0.3968   -0.4826 C   0  0  0  0  0  0  0  0  0  0  0  0
   -0.0010   -0.5871   -1.5283 O   0  0  0  0  0  0  0  0  0  0  0  0
   -0.0332   -0.5959    0.8917 C   0  0  0  0  0  0  0  0  0  0  0  0
    0.2447   -1.9997    1.4266 C   0  0  0  0  0  0  0  0  0  0  0  0
   -0.9425   -2.2505    2.3371 C   0  0  0  0  0  0  0  0  0  0  0  0
   -2.1061   -1.6503    1.5613 C   0  0  0  0  0  0  0  0  0  0  0  0
   -1.5150   -0.5232    0.8119 N   0  0  0  0  0  0  0  0  0  0  0  0
   -2.1784    1.0136    0.9768 S   0  0  0  0  0  6  0  0  0  0  0  0
   -1.3776    1.9508    0.2215 O   0  0  0  0  0  0  0  0  0  0  0  0
   -2.4290    1.2197    2.3884 O   0  0  0  0  0  0  0  0  0  0  0  0
   -3.7317    0.8369    0.1403 C   0  0  0  0  0  0  0  0  0  0  0  0
   -3.7285    0.5114   -1.2209 C   0  0  0  0  0  0  0  0  0  0  0  0
   -4.9420    0.3649   -1.8945 C   0  0  0  0  0  0  0  0  0  0  0  0
   -6.1424    0.5471   -1.2061 C   0  0  0  0  0  0  0  0  0  0  0  0
   -7.6381    0.3637   -2.0370 Cl  0  0  0  0  0  0  0  0  0  0  0  0
   -6.1423    0.8754    0.1515 C   0  0  0  0  0  0  0  0  0  0  0  0
   -4.9317    1.0228    0.8320 C   0  0  0  0  0  0  0  0  0  0  0  0
    6.4625    0.3667    0.4504 H   0  0  0  0  0  0  0  0  0  0  0  0
    5.6749    1.1117    1.8460 H   0  0  0  0  0  0  0  0  0  0  0  0
    5.8952    2.0826    0.3853 H   0  0  0  0  0  0  0  0  0  0  0  0
    6.1751    1.0790   -1.7534 H   0  0  0  0  0  0  0  0  0  0  0  0
    5.5916    0.8745   -4.1206 H   0  0  0  0  0  0  0  0  0  0  0  0
    3.2947    0.2334   -4.7989 H   0  0  0  0  0  0  0  0  0  0  0  0
    1.5770   -0.2026   -3.1158 H   0  0  0  0  0  0  0  0  0  0  0  0
    2.3475    0.1058    0.5412 H   0  0  0  0  0  0  0  0  0  0  0  0
    0.3393    0.1522    1.6028 H   0  0  0  0  0  0  0  0  0  0  0  0
    0.2664   -2.7394    0.6167 H   0  0  0  0  0  0  0  0  0  0  0  0
    1.1986   -2.0593    1.9596 H   0  0  0  0  0  0  0  0  0  0  0  0
   -0.8067   -1.7154    3.2849 H   0  0  0  0  0  0  0  0  0  0  0  0
   -1.0906   -3.3106    2.5607 H   0  0  0  0  0  0  0  0  0  0  0  0
   -2.5066   -2.3706    0.8394 H   0  0  0  0  0  0  0  0  0  0  0  0
   -2.9168   -1.3537    2.2317 H   0  0  0  0  0  0  0  0  0  0  0  0
   -2.7876    0.3701   -1.7521 H   0  0  0  0  0  0  0  0  0  0  0  0
   -4.9435    0.1115   -2.9515 H   0  0  0  0  0  0  0  0  0  0  0  0
   -7.0804    1.0199    0.6817 H   0  0  0  0  0  0  0  0  0  0  0  0
   -4.9333    1.2828    1.8881 H   0  0  0  0  0  0  0  0  0  0  0  0
  1  2  1  0
  2  3  1  0
  3  4  2  0
  4  5  1  0
  5  6  2  0
  6  7  1  0
  7  8  2  0
  8  9  1  0
  9 10  1  0
 10 11  2  0
 10 12  1  0
 12 13  1  0
 13 14  1  0
 14 15  1  0
 15 16  1  0
 16 17  1  0
 17 18  2  0
 17 19  2  0
 17 20  1  0
 20 21  2  0
 21 22  1  0
 22 23  2  0
 23 24  1  0
 23 25  1  0
 25 26  2  0
  8  3  1  0
 16 12  1  0
 26 20  1  0
  1 27  1  0
  1 28  1  0
  1 29  1  0
  4 30  1  0
  5 31  1  0
  6 32  1  0
  7 33  1  0
  9 34  1  0
 12 35  1  0
 13 36  1  0
 13 37  1  0
 14 38  1  0
 14 39  1  0
 15 40  1  0
 15 41  1  0
 21 42  1  0
 22 43  1  0
 25 44  1  0
 26 45  1  0
M  END
$$$$
