
     RDKit          3D

 59 63  0  0  0  0  0  0  0  0999 V2000
   -3.8651   -1.1380   -4.9509 C   0  0  0  0  0  0  0  0  0  0  0  0
   -3.4469   -0.2202   -3.8098 C   0  0  0  0  0  0  0  0  0  0  0  0
   -2.5683   -0.9674   -2.7876 C   0  0  0  0  0  0  0  0  0  0  0  0
   -2.0613   -0.0128   -1.7751 N   0  0  0  0  0  0  0  0  0  0  0  0
   -1.5962   -0.6922   -0.6377 C   0  0  0  0  0  0  0  0  0  0  0  0
   -2.4911   -1.1446    0.2661 N   0  0  0  0  0  0  0  0  0  0  0  0
   -2.0291   -1.7913    1.3527 C   0  0  0  0  0  0  0  0  0  0  0  0
   -2.9272   -2.2911    2.2884 C   0  0  0  0  0  0  0  0  0  0  0  0
   -2.4876   -2.9677    3.4276 C   0  0  0  0  0  0  0  0  0  0  0  0
   -1.1257   -3.1447    3.6365 C   0  0  0  0  0  0  0  0  0  0  0  0
   -0.2163   -2.6450    2.7037 C   0  0  0  0  0  0  0  0  0  0  0  0
   -0.6461   -1.9734    1.5653 C   0  0  0  0  0  0  0  0  0  0  0  0
    0.2565   -1.5058    0.6857 N   0  0  0  0  0  0  0  0  0  0  0  0
   -0.2232   -0.8898   -0.4362 C   0  0  0  0  0  0  0  0  0  0  0  0
    0.7896   -0.3069   -1.3981 C   0  0  0  0  0  0  0  0  0  0  0  0
    1.9602   -1.1749   -1.5926 C   0  0  0  0  0  0  0  0  0  0  0  0
    2.8784   -1.8645   -1.7765 N   0  0  0  0  0  0  0  0  0  0  0  0
    1.2593    1.0727   -0.9582 C   0  0  0  0  0  0  0  0  0  0  0  0
    1.4463    1.9759   -1.7749 O   0  0  0  0  0  0  0  0  0  0  0  0
    1.5031    1.2400    0.3905 N   0  0  0  0  0  0  0  0  0  0  0  0
    2.1020    2.4408    0.9280 C   0  0  0  0  0  0  0  0  0  0  0  0
    3.5533    2.2025    1.2580 C   0  0  0  0  0  0  0  0  0  0  0  0
    4.5180    2.1725    0.2233 C   0  0  0  0  0  0  0  0  0  0  0  0
    5.8658    1.9187    0.5006 C   0  0  0  0  0  0  0  0  0  0  0  0
    6.2190    1.6974    1.8137 C   0  0  0  0  0  0  0  0  0  0  0  0
    5.2894    1.7227    2.8262 C   0  0  0  0  0  0  0  0  0  0  0  0
    3.9532    1.9681    2.5844 C   0  0  0  0  0  0  0  0  0  0  0  0
    5.8423    1.4773    4.0451 O   0  0  0  0  0  0  0  0  0  0  0  0
    7.2245    1.2797    3.6797 C   0  0  0  0  0  0  0  0  0  0  0  0
    7.4730    1.4296    2.2671 O   0  0  0  0  0  0  0  0  0  0  0  0
   -3.0186    1.0740   -1.4534 C   0  0  0  0  0  0  0  0  0  0  0  0
   -4.4813    0.7976   -1.8760 C   0  0  0  0  0  0  0  0  0  0  0  0
   -5.2388   -0.1173   -0.9188 C   0  0  0  0  0  0  0  0  0  0  0  0
   -4.6481    0.2911   -3.2120 O   0  0  0  0  0  0  0  0  0  0  0  0
   -4.4662   -1.9749   -4.5775 H   0  0  0  0  0  0  0  0  0  0  0  0
   -4.4913   -0.5966   -5.6677 H   0  0  0  0  0  0  0  0  0  0  0  0
   -2.9954   -1.5384   -5.4802 H   0  0  0  0  0  0  0  0  0  0  0  0
   -2.8954    0.6321   -4.2274 H   0  0  0  0  0  0  0  0  0  0  0  0
   -3.1534   -1.7714   -2.3217 H   0  0  0  0  0  0  0  0  0  0  0  0
   -1.7134   -1.4274   -3.2980 H   0  0  0  0  0  0  0  0  0  0  0  0
   -3.9934   -2.1529    2.1223 H   0  0  0  0  0  0  0  0  0  0  0  0
   -3.2081   -3.3538    4.1447 H   0  0  0  0  0  0  0  0  0  0  0  0
   -0.7681   -3.6722    4.5176 H   0  0  0  0  0  0  0  0  0  0  0  0
    0.8504   -2.7875    2.8635 H   0  0  0  0  0  0  0  0  0  0  0  0
    0.3291   -0.1842   -2.3857 H   0  0  0  0  0  0  0  0  0  0  0  0
    1.4705    0.4234    0.9975 H   0  0  0  0  0  0  0  0  0  0  0  0
    2.0049    3.2781    0.2278 H   0  0  0  0  0  0  0  0  0  0  0  0
    1.5407    2.7041    1.8315 H   0  0  0  0  0  0  0  0  0  0  0  0
    4.2101    2.3410   -0.8089 H   0  0  0  0  0  0  0  0  0  0  0  0
    6.6062    1.8891   -0.2906 H   0  0  0  0  0  0  0  0  0  0  0  0
    3.2428    1.9739    3.4033 H   0  0  0  0  0  0  0  0  0  0  0  0
    7.5243    0.2707    3.9842 H   0  0  0  0  0  0  0  0  0  0  0  0
    7.8376    2.0072    4.2230 H   0  0  0  0  0  0  0  0  0  0  0  0
   -2.9670    1.3854   -0.4020 H   0  0  0  0  0  0  0  0  0  0  0  0
   -2.6742    1.9425   -2.0314 H   0  0  0  0  0  0  0  0  0  0  0  0
   -5.0051    1.7621   -1.8593 H   0  0  0  0  0  0  0  0  0  0  0  0
   -4.8901   -1.1511   -0.9762 H   0  0  0  0  0  0  0  0  0  0  0  0
   -5.1574    0.2310    0.1157 H   0  0  0  0  0  0  0  0  0  0  0  0
   -6.3012   -0.1429   -1.1889 H   0  0  0  0  0  0  0  0  0  0  0  0
  1  2  1  0
  2  3  1  0
  3  4  1  0
  4  5  1  0
  5  6  2  0
  6  7  1  0
  7  8  2  0
  8  9  1  0
  9 10  2  0
 10 11  1  0
 11 12  2  0
 12 13  1  0
 13 14  2  0
 14 15  1  0
 15 16  1  0
 16 17  3  0
 15 18  1  0
 18 19  2  0
 18 20  1  0
 20 21  1  0
 21 22  1  0
 22 23  2  0
 23 24  1  0
 24 25  2  0
 25 26  1  0
 26 27  2  0
 26 28  1  0
 28 29  1  0
 29 30  1  0
  4 31  1  0
 31 32  1  0
 32 33  1  0
 32 34  1  0
 34  2  1  0
 14  5  1  0
 27 22  1  0
 12  7  1  0
 30 25  1  0
  1 35  1  0
  1 36  1  0
  1 37  1  0
  2 38  1  0
  3 39  1  0
  3 40  1  0
  8 41  1  0
  9 42  1  0
 10 43  1  0
 11 44  1  0
 15 45  1  0
 20 46  1  0
 21 47  1  0
 21 48  1  0
 23 49  1  0
 24 50  1  0
 27 51  1  0
 29 52  1  0
 29 53  1  0
 31 54  1  0
 31 55  1  0
 32 56  1  0
 33 57  1  0
 33 58  1  0
 33 59  1  0
M  END
$$$$
