
     RDKit          3D

 53 56  0  0  0  0  0  0  0  0999 V2000
   -0.7543    2.0383    2.0584 O   0  0  0  0  0  0  0  0  0  0  0  0
   -0.0317    1.1477    1.6122 C   0  0  0  0  0  0  0  0  0  0  0  0
   -0.3567   -0.3193    1.8314 C   0  0  0  0  0  0  0  0  0  0  0  0
   -1.5540   -0.4869    2.7618 C   0  0  0  0  0  0  0  0  0  0  0  0
   -1.8963   -2.2468    3.0907 S   0  0  0  0  0  0  0  0  0  0  0  0
   -2.7717   -2.6243    1.6006 C   0  0  0  0  0  0  0  0  0  0  0  0
   -4.1013   -2.5058    1.6135 N   0  0  0  0  0  0  0  0  0  0  0  0
   -4.7545   -2.7989    0.4734 C   0  0  0  0  0  0  0  0  0  0  0  0
   -6.2091   -2.6646    0.5168 C   0  0  0  0  0  0  0  0  0  0  0  0
   -7.2319   -2.8727   -0.3929 C   0  0  0  0  0  0  0  0  0  0  0  0
   -8.4439   -2.5556    0.2699 C   0  0  0  0  0  0  0  0  0  0  0  0
   -8.0921   -2.1731    1.5410 C   0  0  0  0  0  0  0  0  0  0  0  0
   -6.7462   -2.2352    1.6998 O   0  0  0  0  0  0  0  0  0  0  0  0
   -4.0985   -3.1983   -0.6731 C   0  0  0  0  0  0  0  0  0  0  0  0
   -2.7178   -3.2771   -0.6060 C   0  0  0  0  0  0  0  0  0  0  0  0
   -1.9307   -3.7155   -1.8297 C   0  0  0  0  0  0  0  0  0  0  0  0
   -1.6614   -5.0511   -1.8324 F   0  0  0  0  0  0  0  0  0  0  0  0
   -0.7297   -3.0834   -1.9590 F   0  0  0  0  0  0  0  0  0  0  0  0
   -2.5952   -3.4735   -2.9985 F   0  0  0  0  0  0  0  0  0  0  0  0
   -2.0445   -2.9963    0.5372 N   0  0  0  0  0  0  0  0  0  0  0  0
    1.1100    1.4251    0.8763 N   0  0  0  0  0  0  0  0  0  0  0  0
    1.5106    2.8203    0.6763 C   0  0  0  0  0  0  0  0  0  0  0  0
    3.0384    3.0071    0.6445 C   0  0  0  0  0  0  0  0  0  0  0  0
    3.6834    2.1270   -0.3482 N   0  0  0  0  0  0  0  0  0  0  0  0
    4.8703    2.5073   -0.9595 C   0  0  0  0  0  0  0  0  0  0  0  0
    5.7679    3.3923   -0.3371 C   0  0  0  0  0  0  0  0  0  0  0  0
    6.9715    3.7799   -0.9404 C   0  0  0  0  0  0  0  0  0  0  0  0
    7.3130    3.2866   -2.1930 C   0  0  0  0  0  0  0  0  0  0  0  0
    6.4514    2.4062   -2.8352 C   0  0  0  0  0  0  0  0  0  0  0  0
    5.2505    2.0236   -2.2225 C   0  0  0  0  0  0  0  0  0  0  0  0
    2.9206    0.9572   -0.8082 C   0  0  0  0  0  0  0  0  0  0  0  0
    2.0025    0.4105    0.3021 C   0  0  0  0  0  0  0  0  0  0  0  0
    0.5233   -0.8101    2.2626 H   0  0  0  0  0  0  0  0  0  0  0  0
   -0.5739   -0.7584    0.8527 H   0  0  0  0  0  0  0  0  0  0  0  0
   -1.3434   -0.0111    3.7262 H   0  0  0  0  0  0  0  0  0  0  0  0
   -2.4483   -0.0008    2.3557 H   0  0  0  0  0  0  0  0  0  0  0  0
   -7.1264   -3.2121   -1.4130 H   0  0  0  0  0  0  0  0  0  0  0  0
   -9.4485   -2.5995   -0.1281 H   0  0  0  0  0  0  0  0  0  0  0  0
   -8.6480   -1.8449    2.4079 H   0  0  0  0  0  0  0  0  0  0  0  0
   -4.6314   -3.4337   -1.5866 H   0  0  0  0  0  0  0  0  0  0  0  0
    1.0801    3.4583    1.4554 H   0  0  0  0  0  0  0  0  0  0  0  0
    1.0774    3.1342   -0.2814 H   0  0  0  0  0  0  0  0  0  0  0  0
    3.4533    2.7815    1.6343 H   0  0  0  0  0  0  0  0  0  0  0  0
    3.2348    4.0631    0.4227 H   0  0  0  0  0  0  0  0  0  0  0  0
    5.5567    3.7835    0.6544 H   0  0  0  0  0  0  0  0  0  0  0  0
    7.6400    4.4626   -0.4227 H   0  0  0  0  0  0  0  0  0  0  0  0
    8.2453    3.5845   -2.6646 H   0  0  0  0  0  0  0  0  0  0  0  0
    6.7055    2.0149   -3.8166 H   0  0  0  0  0  0  0  0  0  0  0  0
    4.6037    1.3488   -2.7754 H   0  0  0  0  0  0  0  0  0  0  0  0
    3.5920    0.1434   -1.1068 H   0  0  0  0  0  0  0  0  0  0  0  0
    2.3163    1.2412   -1.6786 H   0  0  0  0  0  0  0  0  0  0  0  0
    2.6110    0.0258    1.1296 H   0  0  0  0  0  0  0  0  0  0  0  0
    1.4120   -0.4216   -0.0925 H   0  0  0  0  0  0  0  0  0  0  0  0
  1  2  2  0
  2  3  1  0
  3  4  1  0
  4  5  1  0
  5  6  1  0
  6  7  2  0
  7  8  1  0
  8  9  1  0
  9 10  2  0
 10 11  1  0
 11 12  2  0
 12 13  1  0
  8 14  2  0
 14 15  1  0
 15 16  1  0
 16 17  1  0
 16 18  1  0
 16 19  1  0
 15 20  2  0
  2 21  1  0
 21 22  1  0
 22 23  1  0
 23 24  1  0
 24 25  1  0
 25 26  2  0
 26 27  1  0
 27 28  2  0
 28 29  1  0
 29 30  2  0
 24 31  1  0
 31 32  1  0
 20  6  1  0
 32 21  1  0
 13  9  1  0
 30 25  1  0
  3 33  1  0
  3 34  1  0
  4 35  1  0
  4 36  1  0
 10 37  1  0
 11 38  1  0
 12 39  1  0
 14 40  1  0
 22 41  1  0
 22 42  1  0
 23 43  1  0
 23 44  1  0
 26 45  1  0
 27 46  1  0
 28 47  1  0
 29 48  1  0
 30 49  1  0
 31 50  1  0
 31 51  1  0
 32 52  1  0
 32 53  1  0
M  END
$$$$
