
     RDKit          3D

 57 59  0  0  0  0  0  0  0  0999 V2000
   -2.1449    2.4064    2.2761 C   0  0  0  0  0  0  0  0  0  0  0  0
   -2.4457    0.9531    1.9432 C   0  0  0  0  0  0  0  0  0  0  0  0
   -2.5794    0.7385    0.4960 N   0  0  0  0  0  0  0  0  0  0  0  0
   -1.3984    0.4688   -0.2070 C   0  0  0  0  0  0  0  0  0  0  0  0
   -0.2917    0.5098    0.3442 O   0  0  0  0  0  0  0  0  0  0  0  0
   -1.5055    0.1335   -1.7067 C   0  0  0  0  0  0  0  0  0  0  0  0
   -0.2643   -0.3829   -2.1930 O   0  0  0  0  0  0  0  0  0  0  0  0
   -0.0266   -1.6544   -1.7885 C   0  0  0  0  0  0  0  0  0  0  0  0
   -0.8216   -2.4336   -1.2948 O   0  0  0  0  0  0  0  0  0  0  0  0
    1.4244   -1.8640   -1.8274 C   0  0  0  0  0  0  0  0  0  0  0  0
    2.0735   -1.9530   -0.5909 C   0  0  0  0  0  0  0  0  0  0  0  0
    3.4751   -2.0166   -0.5253 C   0  0  0  0  0  0  0  0  0  0  0  0
    4.1882   -2.0837    1.1037 S   0  0  0  0  0  6  0  0  0  0  0  0
    5.4823   -2.7208    1.0331 O   0  0  0  0  0  0  0  0  0  0  0  0
    3.1655   -2.6287    1.9739 O   0  0  0  0  0  0  0  0  0  0  0  0
    4.3969   -0.4691    1.5213 N   0  0  0  0  0  0  0  0  0  0  0  0
    5.5592    0.3014    1.0203 C   0  0  0  0  0  0  0  0  0  0  0  0
    5.1427    1.2842   -0.0765 C   0  0  0  0  0  0  0  0  0  0  0  0
    4.0830    2.1425    0.3655 O   0  0  0  0  0  0  0  0  0  0  0  0
    2.9219    1.3768    0.7200 C   0  0  0  0  0  0  0  0  0  0  0  0
    3.2246    0.3851    1.8483 C   0  0  0  0  0  0  0  0  0  0  0  0
    4.2159   -2.0575   -1.7090 C   0  0  0  0  0  0  0  0  0  0  0  0
    5.9368   -2.1052   -1.7980 Cl  0  0  0  0  0  0  0  0  0  0  0  0
    3.5473   -2.0082   -2.9457 C   0  0  0  0  0  0  0  0  0  0  0  0
    2.1550   -1.9029   -3.0098 C   0  0  0  0  0  0  0  0  0  0  0  0
    1.4068   -1.8364   -4.5611 Cl  0  0  0  0  0  0  0  0  0  0  0  0
   -3.9257    0.6385   -0.0979 C   0  0  0  0  0  0  0  0  0  0  0  0
   -4.5454   -0.7529    0.1110 C   0  0  0  0  0  0  0  0  0  0  0  0
   -5.9461   -0.6828   -0.4836 C   0  0  0  0  0  0  0  0  0  0  0  0
   -6.5182    0.9795   -0.1617 S   0  0  0  0  0  6  0  0  0  0  0  0
   -6.8316    1.6080   -1.4279 O   0  0  0  0  0  0  0  0  0  0  0  0
   -7.4494    0.9525    0.9455 O   0  0  0  0  0  0  0  0  0  0  0  0
   -4.9645    1.6362    0.4184 C   0  0  0  0  0  0  0  0  0  0  0  0
   -1.2033    2.7297    1.8200 H   0  0  0  0  0  0  0  0  0  0  0  0
   -2.0604    2.5373    3.3589 H   0  0  0  0  0  0  0  0  0  0  0  0
   -2.9343    3.0709    1.9114 H   0  0  0  0  0  0  0  0  0  0  0  0
   -1.6326    0.3251    2.3265 H   0  0  0  0  0  0  0  0  0  0  0  0
   -3.3533    0.6169    2.4537 H   0  0  0  0  0  0  0  0  0  0  0  0
   -1.7092    1.0625   -2.2485 H   0  0  0  0  0  0  0  0  0  0  0  0
   -2.3116   -0.5772   -1.9119 H   0  0  0  0  0  0  0  0  0  0  0  0
    1.4748   -1.9280    0.3211 H   0  0  0  0  0  0  0  0  0  0  0  0
    6.3587   -0.3530    0.6644 H   0  0  0  0  0  0  0  0  0  0  0  0
    5.9650    0.8587    1.8738 H   0  0  0  0  0  0  0  0  0  0  0  0
    5.9924    1.9199   -0.3449 H   0  0  0  0  0  0  0  0  0  0  0  0
    4.8201    0.7657   -0.9846 H   0  0  0  0  0  0  0  0  0  0  0  0
    2.5510    0.8709   -0.1765 H   0  0  0  0  0  0  0  0  0  0  0  0
    2.1489    2.0808    1.0446 H   0  0  0  0  0  0  0  0  0  0  0  0
    2.3372   -0.2123    2.0747 H   0  0  0  0  0  0  0  0  0  0  0  0
    3.4772    0.9376    2.7612 H   0  0  0  0  0  0  0  0  0  0  0  0
    4.1225   -2.0382   -3.8704 H   0  0  0  0  0  0  0  0  0  0  0  0
   -3.8345    0.8089   -1.1765 H   0  0  0  0  0  0  0  0  0  0  0  0
   -4.6084   -0.9857    1.1810 H   0  0  0  0  0  0  0  0  0  0  0  0
   -3.9551   -1.5471   -0.3571 H   0  0  0  0  0  0  0  0  0  0  0  0
   -6.6285   -1.4045   -0.0296 H   0  0  0  0  0  0  0  0  0  0  0  0
   -5.9196   -0.8226   -1.5680 H   0  0  0  0  0  0  0  0  0  0  0  0
   -5.0226    1.6801    1.5084 H   0  0  0  0  0  0  0  0  0  0  0  0
   -4.8147    2.6416    0.0176 H   0  0  0  0  0  0  0  0  0  0  0  0
  1  2  1  0
  2  3  1  0
  3  4  1  0
  4  5  2  0
  4  6  1  0
  6  7  1  0
  7  8  1  0
  8  9  2  0
  8 10  1  0
 10 11  2  0
 11 12  1  0
 12 13  1  0
 13 14  2  0
 13 15  2  0
 13 16  1  0
 16 17  1  0
 17 18  1  0
 18 19  1  0
 19 20  1  0
 20 21  1  0
 12 22  2  0
 22 23  1  0
 22 24  1  0
 24 25  2  0
 25 26  1  0
  3 27  1  0
 27 28  1  0
 28 29  1  0
 29 30  1  0
 30 31  2  0
 30 32  2  0
 30 33  1  0
 25 10  1  0
 33 27  1  0
 21 16  1  0
  1 34  1  0
  1 35  1  0
  1 36  1  0
  2 37  1  0
  2 38  1  0
  6 39  1  0
  6 40  1  0
 11 41  1  0
 17 42  1  0
 17 43  1  0
 18 44  1  0
 18 45  1  0
 20 46  1  0
 20 47  1  0
 21 48  1  0
 21 49  1  0
 24 50  1  0
 27 51  1  0
 28 52  1  0
 28 53  1  0
 29 54  1  0
 29 55  1  0
 33 56  1  0
 33 57  1  0
M  END
$$$$
