
     RDKit          3D

 53 56  0  0  0  0  0  0  0  0999 V2000
    7.2252    2.6527    0.7460 C   0  0  0  0  0  0  0  0  0  0  0  0
    5.8847    3.1085    0.8874 O   0  0  0  0  0  0  0  0  0  0  0  0
    4.9747    2.2059    1.3659 C   0  0  0  0  0  0  0  0  0  0  0  0
    5.2232    0.8654    1.6579 C   0  0  0  0  0  0  0  0  0  0  0  0
    4.1955    0.0476    2.1413 C   0  0  0  0  0  0  0  0  0  0  0  0
    2.9094    0.5620    2.3477 C   0  0  0  0  0  0  0  0  0  0  0  0
    1.7973   -0.3274    2.8328 C   0  0  0  0  0  0  0  0  0  0  0  0
    1.1134   -0.9325    1.7163 N   0  0  0  0  0  0  0  0  0  0  0  0
    0.0464   -1.7829    1.9212 C   0  0  0  0  0  0  0  0  0  0  0  0
   -0.2604   -2.1787    3.0478 O   0  0  0  0  0  0  0  0  0  0  0  0
   -0.7229   -2.2313    0.6835 C   0  0  0  0  0  0  0  0  0  0  0  0
    0.0886   -3.1758   -0.0953 C   0  0  0  0  0  0  0  0  0  0  0  0
    0.7134   -3.9339   -0.7165 N   0  0  0  0  0  0  0  0  0  0  0  0
   -1.2004   -1.0762   -0.1755 C   0  0  0  0  0  0  0  0  0  0  0  0
   -0.3284   -0.0481   -0.4113 N   0  0  0  0  0  0  0  0  0  0  0  0
   -0.7465    0.9441   -1.2181 C   0  0  0  0  0  0  0  0  0  0  0  0
    0.0980    2.0153   -1.4864 C   0  0  0  0  0  0  0  0  0  0  0  0
   -0.3032    3.0644   -2.3157 C   0  0  0  0  0  0  0  0  0  0  0  0
   -1.5693    3.0404   -2.8861 C   0  0  0  0  0  0  0  0  0  0  0  0
   -2.4221    1.9668   -2.6233 C   0  0  0  0  0  0  0  0  0  0  0  0
   -2.0328    0.9171   -1.7991 C   0  0  0  0  0  0  0  0  0  0  0  0
   -2.8835   -0.1006   -1.5702 N   0  0  0  0  0  0  0  0  0  0  0  0
   -2.4713   -1.1091   -0.7666 C   0  0  0  0  0  0  0  0  0  0  0  0
   -3.3422   -2.1888   -0.5176 N   0  0  0  0  0  0  0  0  0  0  0  0
   -3.9773   -2.6928   -1.7573 C   0  0  0  0  0  0  0  0  0  0  0  0
   -5.4544   -2.3384   -1.6387 C   0  0  0  0  0  0  0  0  0  0  0  0
   -5.6849   -2.4127   -0.1427 C   0  0  0  0  0  0  0  0  0  0  0  0
   -4.4188   -1.7693    0.4099 C   0  0  0  0  0  0  0  0  0  0  0  0
    2.6619    1.9055    2.0397 C   0  0  0  0  0  0  0  0  0  0  0  0
    3.6893    2.7185    1.5557 C   0  0  0  0  0  0  0  0  0  0  0  0
    7.8285    3.4952    0.3942 H   0  0  0  0  0  0  0  0  0  0  0  0
    7.2947    1.8565   -0.0031 H   0  0  0  0  0  0  0  0  0  0  0  0
    7.6375    2.3270    1.7080 H   0  0  0  0  0  0  0  0  0  0  0  0
    6.2023    0.4207    1.5168 H   0  0  0  0  0  0  0  0  0  0  0  0
    4.4051   -0.9988    2.3522 H   0  0  0  0  0  0  0  0  0  0  0  0
    1.0699    0.2487    3.4190 H   0  0  0  0  0  0  0  0  0  0  0  0
    2.1802   -1.1184    3.4902 H   0  0  0  0  0  0  0  0  0  0  0  0
    1.0863   -0.3947    0.8488 H   0  0  0  0  0  0  0  0  0  0  0  0
   -1.5885   -2.7733    1.0845 H   0  0  0  0  0  0  0  0  0  0  0  0
    1.0917    2.0331   -1.0438 H   0  0  0  0  0  0  0  0  0  0  0  0
    0.3735    3.8930   -2.5144 H   0  0  0  0  0  0  0  0  0  0  0  0
   -1.8956    3.8500   -3.5362 H   0  0  0  0  0  0  0  0  0  0  0  0
   -3.4127    1.9456   -3.0720 H   0  0  0  0  0  0  0  0  0  0  0  0
   -3.8616   -3.7840   -1.7669 H   0  0  0  0  0  0  0  0  0  0  0  0
   -3.5369   -2.3171   -2.6883 H   0  0  0  0  0  0  0  0  0  0  0  0
   -5.6331   -1.3190   -2.0009 H   0  0  0  0  0  0  0  0  0  0  0  0
   -6.0950   -3.0224   -2.2028 H   0  0  0  0  0  0  0  0  0  0  0  0
   -5.7560   -3.4586    0.1806 H   0  0  0  0  0  0  0  0  0  0  0  0
   -6.5918   -1.8906    0.1750 H   0  0  0  0  0  0  0  0  0  0  0  0
   -4.5512   -0.6793    0.4464 H   0  0  0  0  0  0  0  0  0  0  0  0
   -4.2065   -2.1196    1.4257 H   0  0  0  0  0  0  0  0  0  0  0  0
    1.6684    2.3279    2.1740 H   0  0  0  0  0  0  0  0  0  0  0  0
    3.4882    3.7623    1.3262 H   0  0  0  0  0  0  0  0  0  0  0  0
  1  2  1  0
  2  3  1  0
  3  4  2  0
  4  5  1  0
  5  6  2  0
  6  7  1  0
  7  8  1  0
  8  9  1  0
  9 10  2  0
  9 11  1  0
 11 12  1  0
 12 13  3  0
 11 14  1  0
 14 15  2  0
 15 16  1  0
 16 17  2  0
 17 18  1  0
 18 19  2  0
 19 20  1  0
 20 21  2  0
 21 22  1  0
 22 23  2  0
 23 24  1  0
 24 25  1  0
 25 26  1  0
 26 27  1  0
 27 28  1  0
  6 29  1  0
 29 30  2  0
 30  3  1  0
 23 14  1  0
 28 24  1  0
 21 16  1  0
  1 31  1  0
  1 32  1  0
  1 33  1  0
  4 34  1  0
  5 35  1  0
  7 36  1  0
  7 37  1  0
  8 38  1  0
 11 39  1  0
 17 40  1  0
 18 41  1  0
 19 42  1  0
 20 43  1  0
 25 44  1  0
 25 45  1  0
 26 46  1  0
 26 47  1  0
 27 48  1  0
 27 49  1  0
 28 50  1  0
 28 51  1  0
 29 52  1  0
 30 53  1  0
M  END
$$$$
