
     RDKit          3D

 67 72  0  0  0  0  0  0  0  0999 V2000
   -2.4478   -2.9286    0.6516 O   0  0  0  0  0  0  0  0  0  0  0  0
   -2.1980   -1.7518    0.3799 C   0  0  0  0  0  0  0  0  0  0  0  0
   -3.1748   -0.8794   -0.4415 C   0  0  0  0  0  0  0  0  0  0  0  0
   -4.5878   -1.4892   -0.4097 C   0  0  0  0  0  0  0  0  0  0  0  0
   -5.5620   -0.7761   -1.3219 C   0  0  0  0  0  0  0  0  0  0  0  0
   -6.4794    0.1450   -0.7984 C   0  0  0  0  0  0  0  0  0  0  0  0
   -7.3603    0.8227   -1.6424 C   0  0  0  0  0  0  0  0  0  0  0  0
   -7.3322    0.5871   -3.0151 C   0  0  0  0  0  0  0  0  0  0  0  0
   -6.4271   -0.3307   -3.5455 C   0  0  0  0  0  0  0  0  0  0  0  0
   -5.5453   -1.0102   -2.7037 C   0  0  0  0  0  0  0  0  0  0  0  0
   -3.1948    0.4834    0.0977 N   0  0  0  0  0  0  0  0  0  0  0  0
   -1.9132    1.0473    0.1231 C   0  0  0  0  0  0  0  0  0  0  0  0
   -1.8678    2.3645   -0.1153 N   0  0  0  0  0  0  0  0  0  0  0  0
   -0.6596    2.9238   -0.0426 C   0  0  0  0  0  0  0  0  0  0  0  0
    0.4929    2.2865    0.1924 N   0  0  0  0  0  0  0  0  0  0  0  0
    0.4346    0.9520    0.3976 C   0  0  0  0  0  0  0  0  0  0  0  0
    1.6690    0.2621    0.4414 N   0  0  0  0  0  0  0  0  0  0  0  0
    2.7946    1.0789    0.9654 C   0  0  0  0  0  0  0  0  0  0  0  0
    3.6932    1.6753   -0.1413 C   0  0  0  0  0  0  0  0  0  0  0  0
    4.2391    0.6147   -1.0127 N   0  0  0  0  0  0  0  0  0  0  0  0
    5.4758    0.7422   -1.6222 C   0  0  0  0  0  0  0  0  0  0  0  0
    6.0504    2.0002   -1.8705 C   0  0  0  0  0  0  0  0  0  0  0  0
    7.2990    2.1392   -2.4894 C   0  0  0  0  0  0  0  0  0  0  0  0
    8.0124    1.0128   -2.8793 C   0  0  0  0  0  0  0  0  0  0  0  0
    7.4726   -0.2469   -2.6513 C   0  0  0  0  0  0  0  0  0  0  0  0
    6.2217   -0.3750   -2.0341 C   0  0  0  0  0  0  0  0  0  0  0  0
    3.4470   -0.6236   -1.1106 C   0  0  0  0  0  0  0  0  0  0  0  0
    1.9428   -0.3393   -0.8944 C   0  0  0  0  0  0  0  0  0  0  0  0
   -0.7904    0.2658    0.4252 C   0  0  0  0  0  0  0  0  0  0  0  0
   -0.9789   -1.1363    0.7092 N   0  0  0  0  0  0  0  0  0  0  0  0
   -0.1028   -1.8400    1.6472 C   0  0  0  0  0  0  0  0  0  0  0  0
   -0.4141   -1.5024    3.0923 C   0  0  0  0  0  0  0  0  0  0  0  0
    0.2855   -0.4865    3.7596 C   0  0  0  0  0  0  0  0  0  0  0  0
   -0.0313   -0.1524    5.0773 C   0  0  0  0  0  0  0  0  0  0  0  0
   -1.0491   -0.8313    5.7439 C   0  0  0  0  0  0  0  0  0  0  0  0
   -1.7499   -1.8457    5.0945 C   0  0  0  0  0  0  0  0  0  0  0  0
   -1.4371   -2.1773    3.7756 C   0  0  0  0  0  0  0  0  0  0  0  0
   -2.8071   -0.8668   -1.4771 H   0  0  0  0  0  0  0  0  0  0  0  0
   -4.5570   -2.5452   -0.7101 H   0  0  0  0  0  0  0  0  0  0  0  0
   -4.9761   -1.4885    0.6179 H   0  0  0  0  0  0  0  0  0  0  0  0
   -6.5107    0.3413    0.2715 H   0  0  0  0  0  0  0  0  0  0  0  0
   -8.0669    1.5374   -1.2280 H   0  0  0  0  0  0  0  0  0  0  0  0
   -8.0187    1.1157   -3.6713 H   0  0  0  0  0  0  0  0  0  0  0  0
   -6.4071   -0.5165   -4.6160 H   0  0  0  0  0  0  0  0  0  0  0  0
   -4.8486   -1.7264   -3.1346 H   0  0  0  0  0  0  0  0  0  0  0  0
   -3.8219    1.1402   -0.3607 H   0  0  0  0  0  0  0  0  0  0  0  0
   -0.6037    3.9949   -0.2048 H   0  0  0  0  0  0  0  0  0  0  0  0
    3.4090    0.4060    1.5786 H   0  0  0  0  0  0  0  0  0  0  0  0
    2.4555    1.8645    1.6522 H   0  0  0  0  0  0  0  0  0  0  0  0
    4.5011    2.2223    0.3600 H   0  0  0  0  0  0  0  0  0  0  0  0
    3.1276    2.3869   -0.7539 H   0  0  0  0  0  0  0  0  0  0  0  0
    5.5173    2.9101   -1.6083 H   0  0  0  0  0  0  0  0  0  0  0  0
    7.7051    3.1307   -2.6684 H   0  0  0  0  0  0  0  0  0  0  0  0
    8.9818    1.1151   -3.3584 H   0  0  0  0  0  0  0  0  0  0  0  0
    8.0218   -1.1371   -2.9466 H   0  0  0  0  0  0  0  0  0  0  0  0
    5.8529   -1.3820   -1.8590 H   0  0  0  0  0  0  0  0  0  0  0  0
    3.5554   -1.0756   -2.1038 H   0  0  0  0  0  0  0  0  0  0  0  0
    3.8024   -1.3434   -0.3627 H   0  0  0  0  0  0  0  0  0  0  0  0
    1.3889   -1.2805   -0.9934 H   0  0  0  0  0  0  0  0  0  0  0  0
    1.6051    0.3305   -1.6994 H   0  0  0  0  0  0  0  0  0  0  0  0
   -0.2327   -2.9225    1.5157 H   0  0  0  0  0  0  0  0  0  0  0  0
    0.9546   -1.6833    1.4356 H   0  0  0  0  0  0  0  0  0  0  0  0
    1.0787    0.0575    3.2536 H   0  0  0  0  0  0  0  0  0  0  0  0
    0.5114    0.6438    5.5811 H   0  0  0  0  0  0  0  0  0  0  0  0
   -1.2981   -0.5691    6.7683 H   0  0  0  0  0  0  0  0  0  0  0  0
   -2.5465   -2.3746    5.6115 H   0  0  0  0  0  0  0  0  0  0  0  0
   -2.0002   -2.9664    3.2788 H   0  0  0  0  0  0  0  0  0  0  0  0
  1  2  2  0
  2  3  1  0
  3  4  1  0
  4  5  1  0
  5  6  2  0
  6  7  1  0
  7  8  2  0
  8  9  1  0
  9 10  2  0
  3 11  1  0
 11 12  1  0
 12 13  2  0
 13 14  1  0
 14 15  2  0
 15 16  1  0
 16 17  1  0
 17 18  1  0
 18 19  1  0
 19 20  1  0
 20 21  1  0
 21 22  2  0
 22 23  1  0
 23 24  2  0
 24 25  1  0
 25 26  2  0
 20 27  1  0
 27 28  1  0
 16 29  2  0
 29 30  1  0
 30 31  1  0
 31 32  1  0
 32 33  2  0
 33 34  1  0
 34 35  2  0
 35 36  1  0
 36 37  2  0
 30  2  1  0
 37 32  1  0
 10  5  1  0
 29 12  1  0
 28 17  1  0
 26 21  1  0
  3 38  1  0
  4 39  1  0
  4 40  1  0
  6 41  1  0
  7 42  1  0
  8 43  1  0
  9 44  1  0
 10 45  1  0
 11 46  1  0
 14 47  1  0
 18 48  1  0
 18 49  1  0
 19 50  1  0
 19 51  1  0
 22 52  1  0
 23 53  1  0
 24 54  1  0
 25 55  1  0
 26 56  1  0
 27 57  1  0
 27 58  1  0
 28 59  1  0
 28 60  1  0
 31 61  1  0
 31 62  1  0
 33 63  1  0
 34 64  1  0
 35 65  1  0
 36 66  1  0
 37 67  1  0
M  END
$$$$
