
     RDKit          3D

 31 32  0  0  0  0  0  0  0  0999 V2000
   -4.7184    2.0120   -0.2860 N   0  0  0  0  0  0  0  0  0  0  0  0
   -4.1386    0.7744   -0.6456 N   0  0  0  0  0  0  0  0  0  0  0  0
   -4.2600   -0.3101    0.2159 C   0  0  0  0  0  0  0  0  0  0  0  0
   -4.9643   -0.2958    1.2248 O   0  0  0  0  0  0  0  0  0  0  0  0
   -3.4789   -1.5456   -0.2303 C   0  0  0  0  0  0  0  0  0  0  0  0
   -2.3382   -1.2687   -1.0326 O   0  0  0  0  0  0  0  0  0  0  0  0
   -1.1833   -0.9000   -0.3994 C   0  0  0  0  0  0  0  0  0  0  0  0
   -0.0712   -0.7991   -1.2361 C   0  0  0  0  0  0  0  0  0  0  0  0
    1.1740   -0.4191   -0.7278 C   0  0  0  0  0  0  0  0  0  0  0  0
    1.3332   -0.1242    0.6355 C   0  0  0  0  0  0  0  0  0  0  0  0
    2.6680    0.2888    1.2231 C   0  0  0  0  0  0  0  0  0  0  0  0
    3.3105    1.8255    0.4802 S   0  0  0  0  0  0  0  0  0  0  0  0
    5.0430    1.3106    0.4109 C   0  0  0  0  0  0  0  0  0  0  0  0
    5.0678   -0.1523    0.0192 C   0  0  0  0  0  0  0  0  0  0  0  0
    3.9171   -1.0367    1.1015 S   0  0  0  0  0  0  0  0  0  0  0  0
    0.2056   -0.2250    1.4667 C   0  0  0  0  0  0  0  0  0  0  0  0
   -1.0414   -0.6075    0.9555 C   0  0  0  0  0  0  0  0  0  0  0  0
   -4.8296    2.0092    0.7369 H   0  0  0  0  0  0  0  0  0  0  0  0
   -5.6831    2.0099   -0.6303 H   0  0  0  0  0  0  0  0  0  0  0  0
   -3.3606    0.7690   -1.3084 H   0  0  0  0  0  0  0  0  0  0  0  0
   -4.1644   -2.1389   -0.8464 H   0  0  0  0  0  0  0  0  0  0  0  0
   -3.2217   -2.1653    0.6366 H   0  0  0  0  0  0  0  0  0  0  0  0
   -0.1692   -1.0216   -2.2961 H   0  0  0  0  0  0  0  0  0  0  0  0
    2.0195   -0.3543   -1.4094 H   0  0  0  0  0  0  0  0  0  0  0  0
    2.5463    0.4937    2.2921 H   0  0  0  0  0  0  0  0  0  0  0  0
    5.5822    1.9205   -0.3199 H   0  0  0  0  0  0  0  0  0  0  0  0
    5.5079    1.4729    1.3896 H   0  0  0  0  0  0  0  0  0  0  0  0
    6.0732   -0.5694    0.1300 H   0  0  0  0  0  0  0  0  0  0  0  0
    4.7623   -0.2938   -1.0234 H   0  0  0  0  0  0  0  0  0  0  0  0
    0.2854   -0.0027    2.5296 H   0  0  0  0  0  0  0  0  0  0  0  0
   -1.8735   -0.6564    1.6509 H   0  0  0  0  0  0  0  0  0  0  0  0
  1  2  1  0
  2  3  1  0
  3  4  2  0
  3  5  1  0
  5  6  1  0
  6  7  1  0
  7  8  2  0
  8  9  1  0
  9 10  2  0
 10 11  1  0
 11 12  1  0
 12 13  1  0
 13 14  1  0
 14 15  1  0
 10 16  1  0
 16 17  2  0
 17  7  1  0
 15 11  1  0
  1 18  1  0
  1 19  1  0
  2 20  1  0
  5 21  1  0
  5 22  1  0
  8 23  1  0
  9 24  1  0
 11 25  1  0
 13 26  1  0
 13 27  1  0
 14 28  1  0
 14 29  1  0
 16 30  1  0
 17 31  1  0
M  END
$$$$
