
     RDKit          3D

 36 37  0  0  0  0  0  0  0  0999 V2000
   -6.8137    0.3673   -0.9806 C   0  0  0  0  0  0  0  0  0  0  0  0
   -5.3271    0.4412   -1.2343 C   0  0  0  0  0  0  0  0  0  0  0  0
   -4.9010    0.4965   -2.3832 O   0  0  0  0  0  0  0  0  0  0  0  0
   -4.5785    0.4298   -0.0715 N   0  0  0  0  0  0  0  0  0  0  0  0
   -3.1752    0.5017    0.0456 C   0  0  0  0  0  0  0  0  0  0  0  0
   -2.6369    0.4597    1.3363 C   0  0  0  0  0  0  0  0  0  0  0  0
   -1.2525    0.5308    1.5438 C   0  0  0  0  0  0  0  0  0  0  0  0
   -0.3822    0.6486    0.4624 C   0  0  0  0  0  0  0  0  0  0  0  0
    1.0185    0.7405    0.5797 N   0  0  0  0  0  0  0  0  0  0  0  0
    1.7784    0.6718    1.7355 C   0  0  0  0  0  0  0  0  0  0  0  0
    1.3573    0.5016    2.8766 O   0  0  0  0  0  0  0  0  0  0  0  0
    3.2665    0.8773    1.4830 C   0  0  0  0  0  0  0  0  0  0  0  0
    3.8680   -0.1221    0.5205 C   0  0  0  0  0  0  0  0  0  0  0  0
    3.7925   -1.4985    0.7868 C   0  0  0  0  0  0  0  0  0  0  0  0
    4.3487   -2.4210   -0.1003 C   0  0  0  0  0  0  0  0  0  0  0  0
    4.9858   -1.9686   -1.2491 C   0  0  0  0  0  0  0  0  0  0  0  0
    5.5225   -2.8551   -2.0977 F   0  0  0  0  0  0  0  0  0  0  0  0
    5.0755   -0.6103   -1.5297 C   0  0  0  0  0  0  0  0  0  0  0  0
    4.5202    0.3148   -0.6440 C   0  0  0  0  0  0  0  0  0  0  0  0
   -0.9202    0.6902   -0.8281 C   0  0  0  0  0  0  0  0  0  0  0  0
   -2.3041    0.6154   -1.0354 C   0  0  0  0  0  0  0  0  0  0  0  0
   -7.3002    1.2112   -1.4789 H   0  0  0  0  0  0  0  0  0  0  0  0
   -7.1987   -0.5723   -1.3875 H   0  0  0  0  0  0  0  0  0  0  0  0
   -7.0567    0.4163    0.0847 H   0  0  0  0  0  0  0  0  0  0  0  0
   -5.0864    0.3642    0.8011 H   0  0  0  0  0  0  0  0  0  0  0  0
   -3.2803    0.3709    2.2076 H   0  0  0  0  0  0  0  0  0  0  0  0
   -0.8897    0.4910    2.5673 H   0  0  0  0  0  0  0  0  0  0  0  0
    1.5299    0.8171   -0.2921 H   0  0  0  0  0  0  0  0  0  0  0  0
    3.8012    0.8118    2.4391 H   0  0  0  0  0  0  0  0  0  0  0  0
    3.4010    1.9032    1.1161 H   0  0  0  0  0  0  0  0  0  0  0  0
    3.2990   -1.8616    1.6875 H   0  0  0  0  0  0  0  0  0  0  0  0
    4.2918   -3.4863    0.0991 H   0  0  0  0  0  0  0  0  0  0  0  0
    5.5819   -0.2824   -2.4326 H   0  0  0  0  0  0  0  0  0  0  0  0
    4.6058    1.3761   -0.8701 H   0  0  0  0  0  0  0  0  0  0  0  0
   -0.2763    0.7799   -1.6992 H   0  0  0  0  0  0  0  0  0  0  0  0
   -2.6648    0.6530   -2.0582 H   0  0  0  0  0  0  0  0  0  0  0  0
  1  2  1  0
  2  3  2  0
  2  4  1  0
  4  5  1  0
  5  6  2  0
  6  7  1  0
  7  8  2  0
  8  9  1  0
  9 10  1  0
 10 11  2  0
 10 12  1  0
 12 13  1  0
 13 14  2  0
 14 15  1  0
 15 16  2  0
 16 17  1  0
 16 18  1  0
 18 19  2  0
  8 20  1  0
 20 21  2  0
 21  5  1  0
 19 13  1  0
  1 22  1  0
  1 23  1  0
  1 24  1  0
  4 25  1  0
  6 26  1  0
  7 27  1  0
  9 28  1  0
 12 29  1  0
 12 30  1  0
 14 31  1  0
 15 32  1  0
 18 33  1  0
 19 34  1  0
 20 35  1  0
 21 36  1  0
M  END
$$$$
