
     RDKit          3D

 45 47  0  0  0  0  0  0  0  0999 V2000
    4.1667   -0.1641    4.6409 N   0  0  0  0  0  0  0  0  0  0  0  0
    4.5399   -0.0228    3.5508 C   0  0  0  0  0  0  0  0  0  0  0  0
    4.9848    0.1548    2.2072 C   0  0  0  0  0  0  0  0  0  0  0  0
    6.3969    0.1570    2.0066 C   0  0  0  0  0  0  0  0  0  0  0  0
    7.5440    0.1623    1.8295 N   0  0  0  0  0  0  0  0  0  0  0  0
    4.1219    0.3236    1.1724 C   0  0  0  0  0  0  0  0  0  0  0  0
    2.6644    0.3562    1.3444 C   0  0  0  0  0  0  0  0  0  0  0  0
    1.7881    0.3986    0.3223 C   0  0  0  0  0  0  0  0  0  0  0  0
    0.3528    0.4342    0.5700 C   0  0  0  0  0  0  0  0  0  0  0  0
   -0.6000    0.3442   -0.3836 C   0  0  0  0  0  0  0  0  0  0  0  0
   -1.9880    0.3893   -0.1274 N   0  0  0  0  0  0  0  0  0  0  0  0
   -2.5779    0.0812    1.1874 C   0  0  0  0  0  0  0  0  0  0  0  0
   -3.6130   -1.0461    1.1144 C   0  0  0  0  0  0  0  0  0  0  0  0
   -4.9381   -0.6107    0.4954 C   0  0  0  0  0  0  0  0  0  0  0  0
   -4.9849   -0.6526   -1.0305 C   0  0  0  0  0  0  0  0  0  0  0  0
   -3.7162   -0.2394   -1.7747 C   0  0  0  0  0  0  0  0  0  0  0  0
   -2.9476    0.9055   -1.1235 C   0  0  0  0  0  0  0  0  0  0  0  0
   -0.1655    0.1591   -1.8349 C   0  0  0  0  0  0  0  0  0  0  0  0
    1.2510   -0.3977   -1.9867 C   0  0  0  0  0  0  0  0  0  0  0  0
    2.2317    0.3960   -1.1234 C   0  0  0  0  0  0  0  0  0  0  0  0
    3.6526   -0.1591   -1.2700 C   0  0  0  0  0  0  0  0  0  0  0  0
    4.5922    0.5070   -0.2659 C   0  0  0  0  0  0  0  0  0  0  0  0
    2.2692    0.3392    2.3597 H   0  0  0  0  0  0  0  0  0  0  0  0
    0.0630    0.5719    1.6068 H   0  0  0  0  0  0  0  0  0  0  0  0
   -3.0161    0.9901    1.6173 H   0  0  0  0  0  0  0  0  0  0  0  0
   -1.8143   -0.2553    1.8955 H   0  0  0  0  0  0  0  0  0  0  0  0
   -3.2065   -1.9207    0.5930 H   0  0  0  0  0  0  0  0  0  0  0  0
   -3.8203   -1.3632    2.1446 H   0  0  0  0  0  0  0  0  0  0  0  0
   -5.1964    0.3972    0.8435 H   0  0  0  0  0  0  0  0  0  0  0  0
   -5.7351   -1.2658    0.8698 H   0  0  0  0  0  0  0  0  0  0  0  0
   -5.8152   -0.0147   -1.3597 H   0  0  0  0  0  0  0  0  0  0  0  0
   -5.2493   -1.6682   -1.3522 H   0  0  0  0  0  0  0  0  0  0  0  0
   -4.0086    0.0586   -2.7894 H   0  0  0  0  0  0  0  0  0  0  0  0
   -3.0693   -1.1174   -1.8915 H   0  0  0  0  0  0  0  0  0  0  0  0
   -3.6290    1.6294   -0.6596 H   0  0  0  0  0  0  0  0  0  0  0  0
   -2.4217    1.4713   -1.9007 H   0  0  0  0  0  0  0  0  0  0  0  0
   -0.8441   -0.5300   -2.3495 H   0  0  0  0  0  0  0  0  0  0  0  0
   -0.2268    1.1263   -2.3490 H   0  0  0  0  0  0  0  0  0  0  0  0
    1.2593   -1.4577   -1.6986 H   0  0  0  0  0  0  0  0  0  0  0  0
    1.5483   -0.3534   -3.0414 H   0  0  0  0  0  0  0  0  0  0  0  0
    2.2323    1.4393   -1.4717 H   0  0  0  0  0  0  0  0  0  0  0  0
    4.0177    0.0179   -2.2888 H   0  0  0  0  0  0  0  0  0  0  0  0
    3.6604   -1.2464   -1.1139 H   0  0  0  0  0  0  0  0  0  0  0  0
    5.5936    0.0929   -0.4251 H   0  0  0  0  0  0  0  0  0  0  0  0
    4.6528    1.5821   -0.4804 H   0  0  0  0  0  0  0  0  0  0  0  0
  1  2  3  0
  2  3  1  0
  3  4  1  0
  4  5  3  0
  3  6  2  3
  6  7  1  0
  7  8  2  0
  8  9  1  0
  9 10  2  0
 10 11  1  0
 11 12  1  0
 12 13  1  0
 13 14  1  0
 14 15  1  0
 15 16  1  0
 16 17  1  0
 10 18  1  0
 18 19  1  0
 19 20  1  0
 20 21  1  0
 21 22  1  0
 22  6  1  0
 20  8  1  0
 17 11  1  0
  7 23  1  0
  9 24  1  0
 12 25  1  0
 12 26  1  0
 13 27  1  0
 13 28  1  0
 14 29  1  0
 14 30  1  0
 15 31  1  0
 15 32  1  0
 16 33  1  0
 16 34  1  0
 17 35  1  0
 17 36  1  0
 18 37  1  0
 18 38  1  0
 19 39  1  0
 19 40  1  0
 20 41  1  0
 21 42  1  0
 21 43  1  0
 22 44  1  0
 22 45  1  0
M  END
$$$$
