
     RDKit          3D

 62 66  0  0  0  0  0  0  0  0999 V2000
   -3.1621   -5.8657   -1.0346 C   0  0  0  0  0  0  0  0  0  0  0  0
   -3.3867   -4.6918   -0.2645 O   0  0  0  0  0  0  0  0  0  0  0  0
   -3.0318   -3.5000   -0.8352 C   0  0  0  0  0  0  0  0  0  0  0  0
   -2.4414   -3.3349   -2.0883 C   0  0  0  0  0  0  0  0  0  0  0  0
   -2.1229   -2.0554   -2.5501 C   0  0  0  0  0  0  0  0  0  0  0  0
   -2.3938   -0.9365   -1.7621 C   0  0  0  0  0  0  0  0  0  0  0  0
   -2.9875   -1.0851   -0.5034 C   0  0  0  0  0  0  0  0  0  0  0  0
   -3.2539    0.0916    0.3335 C   0  0  0  0  0  0  0  0  0  0  0  0
   -4.8806    0.4797    0.6960 S   0  0  0  0  0  0  0  0  0  0  0  0
   -4.4433    1.8699    1.6027 C   0  0  0  0  0  0  0  0  0  0  0  0
   -5.3164    2.7602    2.2570 C   0  0  0  0  0  0  0  0  0  0  0  0
   -4.7857    3.8472    2.9607 C   0  0  0  0  0  0  0  0  0  0  0  0
   -3.4139    4.0497    3.0191 C   0  0  0  0  0  0  0  0  0  0  0  0
   -2.7776    5.0686    3.6739 O   0  0  0  0  0  0  0  0  0  0  0  0
   -3.5966    5.9942    4.3770 C   0  0  0  0  0  0  0  0  0  0  0  0
   -2.5572    3.1573    2.3631 C   0  0  0  0  0  0  0  0  0  0  0  0
   -3.0600    2.0468    1.6346 C   0  0  0  0  0  0  0  0  0  0  0  0
   -2.3764    1.0104    0.8905 C   0  0  0  0  0  0  0  0  0  0  0  0
   -0.9311    0.8969    0.7161 C   0  0  0  0  0  0  0  0  0  0  0  0
   -0.2369    1.8630   -0.0177 C   0  0  0  0  0  0  0  0  0  0  0  0
    1.1444    1.7486   -0.1914 C   0  0  0  0  0  0  0  0  0  0  0  0
    1.8465    0.6744    0.3615 C   0  0  0  0  0  0  0  0  0  0  0  0
    3.1897    0.6815    0.1077 O   0  0  0  0  0  0  0  0  0  0  0  0
    3.9437   -0.4489    0.5519 C   0  0  0  0  0  0  0  0  0  0  0  0
    5.4110   -0.3040    0.1002 C   0  0  0  0  0  0  0  0  0  0  0  0
    5.7574   -0.6135   -1.2914 N   0  0  0  0  0  0  0  0  0  0  0  0
    5.6251   -2.0160   -1.6695 C   0  0  0  0  0  0  0  0  0  0  0  0
    5.7528   -1.9814   -3.1885 C   0  0  0  0  0  0  0  0  0  0  0  0
    5.4745   -0.5341   -3.5846 C   0  0  0  0  0  0  0  0  0  0  0  0
    5.0177    0.1385   -2.2997 C   0  0  0  0  0  0  0  0  0  0  0  0
    1.1561   -0.2831    1.1049 C   0  0  0  0  0  0  0  0  0  0  0  0
   -0.2276   -0.1718    1.2824 C   0  0  0  0  0  0  0  0  0  0  0  0
   -3.3008   -2.3743   -0.0498 C   0  0  0  0  0  0  0  0  0  0  0  0
   -3.5099   -6.7217   -0.4482 H   0  0  0  0  0  0  0  0  0  0  0  0
   -3.7380   -5.8442   -1.9658 H   0  0  0  0  0  0  0  0  0  0  0  0
   -2.0947   -6.0094   -1.2321 H   0  0  0  0  0  0  0  0  0  0  0  0
   -2.2137   -4.1793   -2.7300 H   0  0  0  0  0  0  0  0  0  0  0  0
   -1.6609   -1.9295   -3.5260 H   0  0  0  0  0  0  0  0  0  0  0  0
   -2.1384    0.0526   -2.1359 H   0  0  0  0  0  0  0  0  0  0  0  0
   -6.3914    2.6058    2.2182 H   0  0  0  0  0  0  0  0  0  0  0  0
   -5.4837    4.5158    3.4541 H   0  0  0  0  0  0  0  0  0  0  0  0
   -4.1619    5.4969    5.1719 H   0  0  0  0  0  0  0  0  0  0  0  0
   -2.9393    6.7317    4.8476 H   0  0  0  0  0  0  0  0  0  0  0  0
   -4.2627    6.5302    3.6930 H   0  0  0  0  0  0  0  0  0  0  0  0
   -1.4830    3.3204    2.4190 H   0  0  0  0  0  0  0  0  0  0  0  0
   -0.7630    2.7043   -0.4624 H   0  0  0  0  0  0  0  0  0  0  0  0
    1.6781    2.5019   -0.7658 H   0  0  0  0  0  0  0  0  0  0  0  0
    3.5130   -1.3814    0.1722 H   0  0  0  0  0  0  0  0  0  0  0  0
    3.9308   -0.4706    1.6488 H   0  0  0  0  0  0  0  0  0  0  0  0
    6.0285   -0.9456    0.7418 H   0  0  0  0  0  0  0  0  0  0  0  0
    5.7365    0.7249    0.3004 H   0  0  0  0  0  0  0  0  0  0  0  0
    6.4038   -2.6385   -1.2182 H   0  0  0  0  0  0  0  0  0  0  0  0
    4.6490   -2.4329   -1.3986 H   0  0  0  0  0  0  0  0  0  0  0  0
    6.7594   -2.2717   -3.5096 H   0  0  0  0  0  0  0  0  0  0  0  0
    5.0391   -2.6668   -3.6573 H   0  0  0  0  0  0  0  0  0  0  0  0
    4.7209   -0.4633   -4.3749 H   0  0  0  0  0  0  0  0  0  0  0  0
    6.3959   -0.0691   -3.9556 H   0  0  0  0  0  0  0  0  0  0  0  0
    5.2643    1.2045   -2.2930 H   0  0  0  0  0  0  0  0  0  0  0  0
    3.9330    0.0206   -2.2011 H   0  0  0  0  0  0  0  0  0  0  0  0
    1.6594   -1.1278    1.5625 H   0  0  0  0  0  0  0  0  0  0  0  0
   -0.7512   -0.9273    1.8642 H   0  0  0  0  0  0  0  0  0  0  0  0
   -3.7548   -2.5125    0.9292 H   0  0  0  0  0  0  0  0  0  0  0  0
  1  2  1  0
  2  3  1  0
  3  4  2  0
  4  5  1  0
  5  6  2  0
  6  7  1  0
  7  8  1  0
  8  9  1  0
  9 10  1  0
 10 11  2  0
 11 12  1  0
 12 13  2  0
 13 14  1  0
 14 15  1  0
 13 16  1  0
 16 17  2  0
 17 18  1  0
 18 19  1  0
 19 20  2  0
 20 21  1  0
 21 22  2  0
 22 23  1  0
 23 24  1  0
 24 25  1  0
 25 26  1  0
 26 27  1  0
 27 28  1  0
 28 29  1  0
 29 30  1  0
 22 31  1  0
 31 32  2  0
  7 33  2  0
 33  3  1  0
 18  8  2  0
 32 19  1  0
 17 10  1  0
 30 26  1  0
  1 34  1  0
  1 35  1  0
  1 36  1  0
  4 37  1  0
  5 38  1  0
  6 39  1  0
 11 40  1  0
 12 41  1  0
 15 42  1  0
 15 43  1  0
 15 44  1  0
 16 45  1  0
 20 46  1  0
 21 47  1  0
 24 48  1  0
 24 49  1  0
 25 50  1  0
 25 51  1  0
 27 52  1  0
 27 53  1  0
 28 54  1  0
 28 55  1  0
 29 56  1  0
 29 57  1  0
 30 58  1  0
 30 59  1  0
 31 60  1  0
 32 61  1  0
 33 62  1  0
M  END
$$$$
