
     RDKit          3D

 46 49  0  0  0  0  0  0  0  0999 V2000
    6.4676   -0.0365   -0.6833 N   0  0  0  0  0  0  0  0  0  0  0  0
    5.9544   -1.0152    0.5803 S   0  0  0  0  0  6  0  0  0  0  0  0
    6.4673   -0.4056    1.7854 O   0  0  0  0  0  0  0  0  0  0  0  0
    6.2877   -2.3670    0.1959 O   0  0  0  0  0  0  0  0  0  0  0  0
    4.2018   -0.8036    0.5200 C   0  0  0  0  0  0  0  0  0  0  0  0
    3.5947    0.1839    1.2935 C   0  0  0  0  0  0  0  0  0  0  0  0
    2.2019    0.3310    1.2609 C   0  0  0  0  0  0  0  0  0  0  0  0
    1.3884   -0.4989    0.4707 C   0  0  0  0  0  0  0  0  0  0  0  0
    0.0017   -0.3632    0.4238 N   0  0  0  0  0  0  0  0  0  0  0  0
   -0.7596   -1.2152   -0.3245 N   0  0  0  0  0  0  0  0  0  0  0  0
   -2.0016   -0.9898   -0.0206 C   0  0  0  0  0  0  0  0  0  0  0  0
   -3.1315   -1.7122   -0.6510 C   0  0  0  0  0  0  0  0  0  0  0  0
   -4.4532   -1.5098   -0.2364 C   0  0  0  0  0  0  0  0  0  0  0  0
   -5.4960   -2.2081   -0.8543 C   0  0  0  0  0  0  0  0  0  0  0  0
   -5.2174   -3.1070   -1.8830 C   0  0  0  0  0  0  0  0  0  0  0  0
   -6.6299   -4.0479   -2.7143 Br  0  0  0  0  0  0  0  0  0  0  0  0
   -3.9054   -3.3169   -2.3012 C   0  0  0  0  0  0  0  0  0  0  0  0
   -2.8631   -2.6198   -1.6847 C   0  0  0  0  0  0  0  0  0  0  0  0
   -2.2178    0.0421    1.0516 C   0  0  0  0  0  0  0  0  0  0  0  0
   -0.7962    0.5882    1.1999 C   0  0  0  0  0  0  0  0  0  0  0  0
   -0.7052    2.0176    0.6804 C   0  0  0  0  0  0  0  0  0  0  0  0
   -0.5564    2.3050   -0.6888 C   0  0  0  0  0  0  0  0  0  0  0  0
   -0.4991    3.6255   -1.1372 C   0  0  0  0  0  0  0  0  0  0  0  0
   -0.5975    4.6645   -0.2216 C   0  0  0  0  0  0  0  0  0  0  0  0
   -0.5441    5.9318   -0.6516 F   0  0  0  0  0  0  0  0  0  0  0  0
   -0.7534    4.4089    1.1350 C   0  0  0  0  0  0  0  0  0  0  0  0
   -0.8103    3.0889    1.5865 C   0  0  0  0  0  0  0  0  0  0  0  0
    2.0384   -1.4914   -0.2878 C   0  0  0  0  0  0  0  0  0  0  0  0
    3.4281   -1.6534   -0.2657 C   0  0  0  0  0  0  0  0  0  0  0  0
    6.9210   -0.6044   -1.3991 H   0  0  0  0  0  0  0  0  0  0  0  0
    7.0496    0.7194   -0.3226 H   0  0  0  0  0  0  0  0  0  0  0  0
    4.1894    0.8438    1.9208 H   0  0  0  0  0  0  0  0  0  0  0  0
    1.7684    1.1186    1.8699 H   0  0  0  0  0  0  0  0  0  0  0  0
   -4.6988   -0.8193    0.5648 H   0  0  0  0  0  0  0  0  0  0  0  0
   -6.5197   -2.0449   -0.5260 H   0  0  0  0  0  0  0  0  0  0  0  0
   -3.6810   -4.0173   -3.1017 H   0  0  0  0  0  0  0  0  0  0  0  0
   -1.8405   -2.7899   -2.0170 H   0  0  0  0  0  0  0  0  0  0  0  0
   -2.5408   -0.4651    1.9670 H   0  0  0  0  0  0  0  0  0  0  0  0
   -2.9580    0.7916    0.7584 H   0  0  0  0  0  0  0  0  0  0  0  0
   -0.5057    0.5570    2.2578 H   0  0  0  0  0  0  0  0  0  0  0  0
   -0.4728    1.4966   -1.4145 H   0  0  0  0  0  0  0  0  0  0  0  0
   -0.3758    3.8462   -2.1926 H   0  0  0  0  0  0  0  0  0  0  0  0
   -0.8294    5.2386    1.8306 H   0  0  0  0  0  0  0  0  0  0  0  0
   -0.9345    2.9028    2.6515 H   0  0  0  0  0  0  0  0  0  0  0  0
    1.4485   -2.1606   -0.9115 H   0  0  0  0  0  0  0  0  0  0  0  0
    3.8860   -2.4390   -0.8613 H   0  0  0  0  0  0  0  0  0  0  0  0
  1  2  1  0
  2  3  2  0
  2  4  2  0
  2  5  1  0
  5  6  2  0
  6  7  1  0
  7  8  2  0
  8  9  1  0
  9 10  1  0
 10 11  2  0
 11 12  1  0
 12 13  2  0
 13 14  1  0
 14 15  2  0
 15 16  1  0
 15 17  1  0
 17 18  2  0
 11 19  1  0
 19 20  1  0
 20 21  1  0
 21 22  2  0
 22 23  1  0
 23 24  2  0
 24 25  1  0
 24 26  1  0
 26 27  2  0
  8 28  1  0
 28 29  2  0
 29  5  1  0
 20  9  1  0
 27 21  1  0
 18 12  1  0
  1 30  1  0
  1 31  1  0
  6 32  1  0
  7 33  1  0
 13 34  1  0
 14 35  1  0
 17 36  1  0
 18 37  1  0
 19 38  1  0
 19 39  1  0
 20 40  1  0
 22 41  1  0
 23 42  1  0
 26 43  1  0
 27 44  1  0
 28 45  1  0
 29 46  1  0
M  END
$$$$
