
     RDKit          3D

 33 34  0  0  0  0  0  0  0  0999 V2000
    6.4938   -0.2883   -1.1273 C   0  0  0  0  0  0  0  0  0  0  0  0
    5.8536   -0.5634    0.2267 C   0  0  0  0  0  0  0  0  0  0  0  0
    5.4863    0.7004    1.0072 C   0  0  0  0  0  0  0  0  0  0  0  0
    4.2109    1.7229    0.2081 S   0  0  0  0  0  0  0  0  0  0  0  0
    2.7612    0.8000    0.5297 C   0  0  0  0  0  0  0  0  0  0  0  0
    2.7286   -0.2303    1.3474 N   0  0  0  0  0  0  0  0  0  0  0  0
    1.4662   -0.7848    1.4265 N   0  0  0  0  0  0  0  0  0  0  0  0
    0.5963   -0.1377    0.6813 C   0  0  0  0  0  0  0  0  0  0  0  0
   -0.7169   -0.5307    0.5984 N   0  0  0  0  0  0  0  0  0  0  0  0
   -1.7481    0.1546   -0.0118 C   0  0  0  0  0  0  0  0  0  0  0  0
   -1.6508    1.2607   -0.5245 O   0  0  0  0  0  0  0  0  0  0  0  0
   -2.9170   -0.5949    0.0402 N   0  0  0  0  0  0  0  0  0  0  0  0
   -4.2055   -0.2154   -0.3934 C   0  0  0  0  0  0  0  0  0  0  0  0
   -5.2063   -1.1963   -0.3559 C   0  0  0  0  0  0  0  0  0  0  0  0
   -6.5113   -0.9019   -0.7604 C   0  0  0  0  0  0  0  0  0  0  0  0
   -6.8298    0.3784   -1.2033 C   0  0  0  0  0  0  0  0  0  0  0  0
   -5.8442    1.3615   -1.2388 C   0  0  0  0  0  0  0  0  0  0  0  0
   -4.5379    1.0668   -0.8339 C   0  0  0  0  0  0  0  0  0  0  0  0
    1.2532    1.1669   -0.1938 S   0  0  0  0  0  0  0  0  0  0  0  0
    5.7913    0.1850   -1.8194 H   0  0  0  0  0  0  0  0  0  0  0  0
    7.3688    0.3611   -1.0231 H   0  0  0  0  0  0  0  0  0  0  0  0
    6.8236   -1.2277   -1.5828 H   0  0  0  0  0  0  0  0  0  0  0  0
    4.9780   -1.2083    0.0916 H   0  0  0  0  0  0  0  0  0  0  0  0
    6.5679   -1.1378    0.8295 H   0  0  0  0  0  0  0  0  0  0  0  0
    6.3788    1.3261    1.1193 H   0  0  0  0  0  0  0  0  0  0  0  0
    5.1643    0.4375    2.0205 H   0  0  0  0  0  0  0  0  0  0  0  0
   -0.9353   -1.3126    1.1940 H   0  0  0  0  0  0  0  0  0  0  0  0
   -2.8183   -1.5595    0.3175 H   0  0  0  0  0  0  0  0  0  0  0  0
   -4.9875   -2.2045   -0.0146 H   0  0  0  0  0  0  0  0  0  0  0  0
   -7.2778   -1.6718   -0.7295 H   0  0  0  0  0  0  0  0  0  0  0  0
   -7.8432    0.6119   -1.5192 H   0  0  0  0  0  0  0  0  0  0  0  0
   -6.0872    2.3644   -1.5813 H   0  0  0  0  0  0  0  0  0  0  0  0
   -3.8058    1.8674   -0.8714 H   0  0  0  0  0  0  0  0  0  0  0  0
  1  2  1  0
  2  3  1  0
  3  4  1  0
  4  5  1  0
  5  6  2  0
  6  7  1  0
  7  8  2  0
  8  9  1  0
  9 10  1  0
 10 11  2  0
 10 12  1  0
 12 13  1  0
 13 14  2  0
 14 15  1  0
 15 16  2  0
 16 17  1  0
 17 18  2  0
  8 19  1  0
 19  5  1  0
 18 13  1  0
  1 20  1  0
  1 21  1  0
  1 22  1  0
  2 23  1  0
  2 24  1  0
  3 25  1  0
  3 26  1  0
  9 27  1  0
 12 28  1  0
 14 29  1  0
 15 30  1  0
 16 31  1  0
 17 32  1  0
 18 33  1  0
M  END
$$$$
