
     RDKit          3D

 49 52  0  0  0  0  0  0  0  0999 V2000
   -0.0798   -0.7415    4.1061 O   0  0  0  0  0  0  0  0  0  0  0  0
    0.7481   -0.7866    3.1996 C   0  0  0  0  0  0  0  0  0  0  0  0
    2.1900   -1.2315    3.4676 C   0  0  0  0  0  0  0  0  0  0  0  0
    2.8299   -1.8018    2.2799 N   0  0  0  0  0  0  0  0  0  0  0  0
    3.2437   -0.9135    1.3030 N   0  0  0  0  0  0  0  0  0  0  0  0
    3.7807   -1.4022    0.2249 C   0  0  0  0  0  0  0  0  0  0  0  0
    4.2015   -0.4681   -0.8592 C   0  0  0  0  0  0  0  0  0  0  0  0
    4.1130   -0.8261   -2.2136 C   0  0  0  0  0  0  0  0  0  0  0  0
    4.5061    0.0793   -3.2031 C   0  0  0  0  0  0  0  0  0  0  0  0
    4.9709    1.3390   -2.8386 C   0  0  0  0  0  0  0  0  0  0  0  0
    5.3479    2.2026   -3.7909 F   0  0  0  0  0  0  0  0  0  0  0  0
    5.0454    1.7160   -1.5019 C   0  0  0  0  0  0  0  0  0  0  0  0
    4.6564    0.8137   -0.5085 C   0  0  0  0  0  0  0  0  0  0  0  0
    4.0104   -2.8451   -0.0013 C   0  0  0  0  0  0  0  0  0  0  0  0
    3.5641   -3.6841    0.9333 C   0  0  0  0  0  0  0  0  0  0  0  0
    2.8928   -3.1822    2.1478 C   0  0  0  0  0  0  0  0  0  0  0  0
    2.4547   -3.9887    2.9618 O   0  0  0  0  0  0  0  0  0  0  0  0
    0.5666   -0.3043    1.9142 N   0  0  0  0  0  0  0  0  0  0  0  0
   -0.5916    0.2359    1.3346 C   0  0  0  0  0  0  0  0  0  0  0  0
   -0.4656    0.7931    0.0553 C   0  0  0  0  0  0  0  0  0  0  0  0
   -1.5709    1.3609   -0.5847 C   0  0  0  0  0  0  0  0  0  0  0  0
   -2.8211    1.3506    0.0402 C   0  0  0  0  0  0  0  0  0  0  0  0
   -3.9760    1.9586   -0.6688 C   0  0  0  0  0  0  0  0  0  0  0  0
   -3.8118    2.9555   -1.3647 O   0  0  0  0  0  0  0  0  0  0  0  0
   -5.1868    1.3125   -0.4999 N   0  0  0  0  0  0  0  0  0  0  0  0
   -6.3769    1.7585   -1.1505 C   0  0  0  0  0  0  0  0  0  0  0  0
   -6.7590    1.2200   -2.5010 C   0  0  0  0  0  0  0  0  0  0  0  0
   -7.5637    0.8452   -1.2902 C   0  0  0  0  0  0  0  0  0  0  0  0
   -2.9539    0.7958    1.3183 C   0  0  0  0  0  0  0  0  0  0  0  0
   -1.8409    0.2405    1.9598 C   0  0  0  0  0  0  0  0  0  0  0  0
    2.1783   -1.9693    4.2761 H   0  0  0  0  0  0  0  0  0  0  0  0
    2.7704   -0.3622    3.7926 H   0  0  0  0  0  0  0  0  0  0  0  0
    3.7228   -1.7914   -2.5221 H   0  0  0  0  0  0  0  0  0  0  0  0
    4.4469   -0.1886   -4.2542 H   0  0  0  0  0  0  0  0  0  0  0  0
    5.4044    2.7072   -1.2417 H   0  0  0  0  0  0  0  0  0  0  0  0
    4.7176    1.1133    0.5355 H   0  0  0  0  0  0  0  0  0  0  0  0
    4.5351   -3.2021   -0.8758 H   0  0  0  0  0  0  0  0  0  0  0  0
    3.6845   -4.7578    0.8573 H   0  0  0  0  0  0  0  0  0  0  0  0
    1.4167   -0.3151    1.3493 H   0  0  0  0  0  0  0  0  0  0  0  0
    0.4954    0.8058   -0.4536 H   0  0  0  0  0  0  0  0  0  0  0  0
   -1.4575    1.8094   -1.5689 H   0  0  0  0  0  0  0  0  0  0  0  0
   -5.2095    0.4252   -0.0133 H   0  0  0  0  0  0  0  0  0  0  0  0
   -6.5903    2.8095   -0.9685 H   0  0  0  0  0  0  0  0  0  0  0  0
   -6.1215    0.4674   -2.9512 H   0  0  0  0  0  0  0  0  0  0  0  0
   -7.1917    1.9156   -3.2118 H   0  0  0  0  0  0  0  0  0  0  0  0
   -8.5509    1.2818   -1.1824 H   0  0  0  0  0  0  0  0  0  0  0  0
   -7.4872   -0.1738   -0.9310 H   0  0  0  0  0  0  0  0  0  0  0  0
   -3.9062    0.8115    1.8421 H   0  0  0  0  0  0  0  0  0  0  0  0
   -1.9812   -0.1881    2.9497 H   0  0  0  0  0  0  0  0  0  0  0  0
  1  2  2  0
  2  3  1  0
  3  4  1  0
  4  5  1  0
  5  6  2  0
  6  7  1  0
  7  8  2  0
  8  9  1  0
  9 10  2  0
 10 11  1  0
 10 12  1  0
 12 13  2  0
  6 14  1  0
 14 15  2  0
 15 16  1  0
 16 17  2  0
  2 18  1  0
 18 19  1  0
 19 20  2  0
 20 21  1  0
 21 22  2  0
 22 23  1  0
 23 24  2  0
 23 25  1  0
 25 26  1  0
 26 27  1  0
 27 28  1  0
 22 29  1  0
 29 30  2  0
 16  4  1  0
 30 19  1  0
 13  7  1  0
 28 26  1  0
  3 31  1  0
  3 32  1  0
  8 33  1  0
  9 34  1  0
 12 35  1  0
 13 36  1  0
 14 37  1  0
 15 38  1  0
 18 39  1  0
 20 40  1  0
 21 41  1  0
 25 42  1  0
 26 43  1  0
 27 44  1  0
 27 45  1  0
 28 46  1  0
 28 47  1  0
 29 48  1  0
 30 49  1  0
M  END
$$$$
