
     RDKit          3D

 41 42  0  0  0  0  0  0  0  0999 V2000
   -5.1373   -0.5763    0.6350 C   0  0  0  0  0  0  0  0  0  0  0  0
   -3.7418   -0.4500    0.0777 C   0  0  0  0  0  0  0  0  0  0  0  0
   -3.2911   -1.0833   -1.0262 C   0  0  0  0  0  0  0  0  0  0  0  0
   -4.1297   -1.9506   -1.9304 C   0  0  0  0  0  0  0  0  0  0  0  0
   -1.8568   -0.9486   -1.4911 C   0  0  0  0  0  0  0  0  0  0  0  0
   -0.8826   -0.4085   -0.4300 C   0  0  0  0  0  0  0  0  0  0  0  0
    0.4589   -0.0781   -1.1023 C   0  0  0  0  0  0  0  0  0  0  0  0
    0.5301    0.1824   -2.2992 O   0  0  0  0  0  0  0  0  0  0  0  0
    1.5262   -0.0850   -0.2212 N   0  0  0  0  0  0  0  0  0  0  0  0
    2.8872    0.1473   -0.5081 C   0  0  0  0  0  0  0  0  0  0  0  0
    3.3972    0.3178   -1.7983 C   0  0  0  0  0  0  0  0  0  0  0  0
    4.7634    0.5415   -2.0059 C   0  0  0  0  0  0  0  0  0  0  0  0
    5.6389    0.5964   -0.9239 C   0  0  0  0  0  0  0  0  0  0  0  0
    5.1340    0.4235    0.3690 C   0  0  0  0  0  0  0  0  0  0  0  0
    6.0454    0.4817    1.5177 N   0  0  0  0  0  4  0  0  0  0  0  0
    7.2520    0.6488    1.2899 O   0  0  0  0  0  0  0  0  0  0  0  0
    5.5547    0.3621    2.6496 O   0  0  0  0  0  1  0  0  0  0  0  0
    3.7657    0.1975    0.5812 C   0  0  0  0  0  0  0  0  0  0  0  0
   -1.5000    0.8170    0.2605 C   0  0  0  0  0  0  0  0  0  0  0  0
   -0.6268    1.3476    1.3710 C   0  0  0  0  0  0  0  0  0  0  0  0
    0.2225    0.7181    1.9838 O   0  0  0  0  0  0  0  0  0  0  0  0
   -0.8792    2.6354    1.6633 O   0  0  0  0  0  0  0  0  0  0  0  0
   -2.8554    0.4681    0.8907 C   0  0  0  0  0  0  0  0  0  0  0  0
   -5.7031   -1.4098    0.2138 H   0  0  0  0  0  0  0  0  0  0  0  0
   -5.6983    0.3466    0.4565 H   0  0  0  0  0  0  0  0  0  0  0  0
   -5.0957   -0.7491    1.7162 H   0  0  0  0  0  0  0  0  0  0  0  0
   -5.2035   -1.8522   -1.7588 H   0  0  0  0  0  0  0  0  0  0  0  0
   -3.8552   -3.0025   -1.8025 H   0  0  0  0  0  0  0  0  0  0  0  0
   -3.9594   -1.6760   -2.9774 H   0  0  0  0  0  0  0  0  0  0  0  0
   -1.4880   -1.9293   -1.8205 H   0  0  0  0  0  0  0  0  0  0  0  0
   -1.8625   -0.3043   -2.3803 H   0  0  0  0  0  0  0  0  0  0  0  0
   -0.7023   -1.2039    0.3075 H   0  0  0  0  0  0  0  0  0  0  0  0
    1.2953   -0.1965    0.7671 H   0  0  0  0  0  0  0  0  0  0  0  0
    2.7559    0.2766   -2.6743 H   0  0  0  0  0  0  0  0  0  0  0  0
    5.1384    0.6715   -3.0190 H   0  0  0  0  0  0  0  0  0  0  0  0
    6.6973    0.7720   -1.1039 H   0  0  0  0  0  0  0  0  0  0  0  0
    3.3831    0.0656    1.5916 H   0  0  0  0  0  0  0  0  0  0  0  0
   -1.6179    1.6155   -0.4850 H   0  0  0  0  0  0  0  0  0  0  0  0
   -0.2635    2.8670    2.3904 H   0  0  0  0  0  0  0  0  0  0  0  0
   -3.3950    1.4054    1.0825 H   0  0  0  0  0  0  0  0  0  0  0  0
   -2.7011   -0.0016    1.8724 H   0  0  0  0  0  0  0  0  0  0  0  0
  1  2  1  0
  2  3  2  0
  3  4  1  0
  3  5  1  0
  5  6  1  0
  6  7  1  0
  7  8  2  0
  7  9  1  0
  9 10  1  0
 10 11  2  0
 11 12  1  0
 12 13  2  0
 13 14  1  0
 14 15  1  0
 15 16  2  0
 15 17  1  0
 14 18  2  0
  6 19  1  0
 19 20  1  0
 20 21  2  0
 20 22  1  0
 19 23  1  0
 23  2  1  0
 18 10  1  0
  1 24  1  0
  1 25  1  0
  1 26  1  0
  4 27  1  0
  4 28  1  0
  4 29  1  0
  5 30  1  0
  5 31  1  0
  6 32  1  0
  9 33  1  0
 11 34  1  0
 12 35  1  0
 13 36  1  0
 18 37  1  0
 19 38  1  0
 22 39  1  0
 23 40  1  0
 23 41  1  0
M  CHG  2  15   1  17  -1
M  END
$$$$
