
     RDKit          3D

 45 47  0  0  0  0  0  0  0  0999 V2000
    7.0184    2.2737   -0.1199 C   0  0  0  0  0  0  0  0  0  0  0  0
    5.7402    1.5367    0.1504 C   0  0  0  0  0  0  0  0  0  0  0  0
    5.3413    0.4734   -0.6585 C   0  0  0  0  0  0  0  0  0  0  0  0
    4.1344   -0.1841   -0.4108 C   0  0  0  0  0  0  0  0  0  0  0  0
    3.2998    0.2060    0.6513 C   0  0  0  0  0  0  0  0  0  0  0  0
    2.0404   -0.5019    0.8595 C   0  0  0  0  0  0  0  0  0  0  0  0
    1.9323   -1.8790    0.8665 C   0  0  0  0  0  0  0  0  0  0  0  0
    0.3023   -2.3390    1.1162 S   0  0  0  0  0  0  0  0  0  0  0  0
   -0.1452   -0.6751    1.2244 C   0  0  0  0  0  0  0  0  0  0  0  0
   -1.5698   -0.2415    1.4272 C   0  0  0  0  0  0  0  0  0  0  0  0
   -2.1838   -0.9048    2.5819 C   0  0  0  0  0  0  0  0  0  0  0  0
   -2.6333   -1.4119    3.5262 N   0  0  0  0  0  0  0  0  0  0  0  0
   -2.2937   -0.4558    0.1230 C   0  0  0  0  0  0  0  0  0  0  0  0
   -3.4244   -1.0850    0.0333 N   0  0  0  0  0  0  0  0  0  0  0  0
   -3.9784   -1.1969   -1.2522 C   0  0  0  0  0  0  0  0  0  0  0  0
   -3.7897   -2.4035   -1.9384 C   0  0  0  0  0  0  0  0  0  0  0  0
   -4.2968   -2.5832   -3.2249 C   0  0  0  0  0  0  0  0  0  0  0  0
   -5.0059   -1.5555   -3.8379 C   0  0  0  0  0  0  0  0  0  0  0  0
   -5.2171   -0.3535   -3.1606 C   0  0  0  0  0  0  0  0  0  0  0  0
   -4.7278   -0.1678   -1.8575 C   0  0  0  0  0  0  0  0  0  0  0  0
   -5.0573    1.4187   -1.0938 S   0  0  0  0  0  0  0  0  0  0  0  0
   -5.7317    0.9090    0.4963 C   0  0  0  0  0  0  0  0  0  0  0  0
   -6.5970    1.8554    0.9450 F   0  0  0  0  0  0  0  0  0  0  0  0
   -4.7642    0.8026    1.4398 F   0  0  0  0  0  0  0  0  0  0  0  0
   -6.4195   -0.2538    0.4408 F   0  0  0  0  0  0  0  0  0  0  0  0
    0.8482    0.1761    1.0572 N   0  0  0  0  0  0  0  0  0  0  0  0
    3.6930    1.2821    1.4726 C   0  0  0  0  0  0  0  0  0  0  0  0
    2.8495    1.7710    2.6204 C   0  0  0  0  0  0  0  0  0  0  0  0
    4.9077    1.9397    1.2030 C   0  0  0  0  0  0  0  0  0  0  0  0
    6.7996    3.2608   -0.5412 H   0  0  0  0  0  0  0  0  0  0  0  0
    7.6522    1.7301   -0.8282 H   0  0  0  0  0  0  0  0  0  0  0  0
    7.5904    2.3959    0.8054 H   0  0  0  0  0  0  0  0  0  0  0  0
    5.9609    0.1523   -1.4935 H   0  0  0  0  0  0  0  0  0  0  0  0
    3.8441   -0.9971   -1.0732 H   0  0  0  0  0  0  0  0  0  0  0  0
    2.7091   -2.6205    0.7448 H   0  0  0  0  0  0  0  0  0  0  0  0
   -1.5725    0.8424    1.6003 H   0  0  0  0  0  0  0  0  0  0  0  0
   -1.8183   -0.0122   -0.7747 H   0  0  0  0  0  0  0  0  0  0  0  0
   -3.2372   -3.2106   -1.4616 H   0  0  0  0  0  0  0  0  0  0  0  0
   -4.1400   -3.5256   -3.7459 H   0  0  0  0  0  0  0  0  0  0  0  0
   -5.4046   -1.6918   -4.8410 H   0  0  0  0  0  0  0  0  0  0  0  0
   -5.7812    0.4333   -3.6572 H   0  0  0  0  0  0  0  0  0  0  0  0
    2.5500    0.9399    3.2671 H   0  0  0  0  0  0  0  0  0  0  0  0
    1.9619    2.2902    2.2471 H   0  0  0  0  0  0  0  0  0  0  0  0
    3.4035    2.4774    3.2478 H   0  0  0  0  0  0  0  0  0  0  0  0
    5.2104    2.7821    1.8237 H   0  0  0  0  0  0  0  0  0  0  0  0
  1  2  1  0
  2  3  2  0
  3  4  1  0
  4  5  2  0
  5  6  1  0
  6  7  2  0
  7  8  1  0
  8  9  1  0
  9 10  1  0
 10 11  1  0
 11 12  3  0
 10 13  1  0
 13 14  2  3
 14 15  1  0
 15 16  2  0
 16 17  1  0
 17 18  2  0
 18 19  1  0
 19 20  2  0
 20 21  1  0
 21 22  1  0
 22 23  1  0
 22 24  1  0
 22 25  1  0
  9 26  2  0
  5 27  1  0
 27 28  1  0
 27 29  2  0
 29  2  1  0
 26  6  1  0
 20 15  1  0
  1 30  1  0
  1 31  1  0
  1 32  1  0
  3 33  1  0
  4 34  1  0
  7 35  1  0
 10 36  1  0
 13 37  1  0
 16 38  1  0
 17 39  1  0
 18 40  1  0
 19 41  1  0
 28 42  1  0
 28 43  1  0
 28 44  1  0
 29 45  1  0
M  END
$$$$
