
     RDKit          3D

 45 48  0  0  0  0  0  0  0  0999 V2000
    1.4122    1.0786   -5.1995 O   0  0  0  0  0  0  0  0  0  0  0  0
    1.0412    1.0698   -4.0395 C   0  0  0  0  0  0  0  0  0  0  0  0
    0.1826    1.9818   -3.5658 O   0  0  0  0  0  0  0  0  0  0  0  0
    1.5545    0.1542   -3.0151 C   0  0  0  0  0  0  0  0  0  0  0  0
    0.9002   -0.3789   -1.9711 C   0  0  0  0  0  0  0  0  0  0  0  0
   -0.4755   -0.2666   -1.6181 C   0  0  0  0  0  0  0  0  0  0  0  0
   -1.5452   -0.2929   -2.4833 C   0  0  0  0  0  0  0  0  0  0  0  0
   -2.6881   -0.1860   -1.7207 N   0  0  0  0  0  0  0  0  0  0  0  0
   -4.0390   -0.1399   -2.1707 C   0  0  0  0  0  0  0  0  0  0  0  0
   -4.3548   -0.1915   -3.5358 C   0  0  0  0  0  0  0  0  0  0  0  0
   -5.6902   -0.1437   -3.9479 C   0  0  0  0  0  0  0  0  0  0  0  0
   -6.7136   -0.0442   -3.0069 C   0  0  0  0  0  0  0  0  0  0  0  0
   -6.4073    0.0085   -1.6490 C   0  0  0  0  0  0  0  0  0  0  0  0
   -5.0760   -0.0388   -1.2296 C   0  0  0  0  0  0  0  0  0  0  0  0
   -2.3962   -0.1386   -0.3952 N   0  0  0  0  0  0  0  0  0  0  0  0
   -1.0603   -0.1849   -0.3345 C   0  0  0  0  0  0  0  0  0  0  0  0
   -0.3060   -0.1454    1.0375 C   0  0  0  0  0  0  0  0  0  0  0  0
   -0.9036   -0.0701    2.2790 C   0  0  0  0  0  0  0  0  0  0  0  0
    0.1411   -0.0592    3.2348 C   0  0  0  0  0  0  0  0  0  0  0  0
    1.3260   -0.1243    2.5282 C   0  0  0  0  0  0  0  0  0  0  0  0
    2.7395   -0.1489    2.8993 C   0  0  0  0  0  0  0  0  0  0  0  0
    3.1215   -0.2516    4.2472 C   0  0  0  0  0  0  0  0  0  0  0  0
    4.4721   -0.2749    4.6157 C   0  0  0  0  0  0  0  0  0  0  0  0
    5.4590   -0.1936    3.6272 C   0  0  0  0  0  0  0  0  0  0  0  0
    6.8768   -0.2177    4.0075 N   0  0  0  0  0  4  0  0  0  0  0  0
    7.1485   -0.3026    5.2137 O   0  0  0  0  0  0  0  0  0  0  0  0
    7.7184   -0.1523    3.1002 O   0  0  0  0  0  1  0  0  0  0  0  0
    5.1023   -0.0892    2.2789 C   0  0  0  0  0  0  0  0  0  0  0  0
    3.7486   -0.0675    1.9243 C   0  0  0  0  0  0  0  0  0  0  0  0
    1.0513   -0.1800    1.1905 O   0  0  0  0  0  0  0  0  0  0  0  0
   -0.0223    2.5484   -4.3369 H   0  0  0  0  0  0  0  0  0  0  0  0
    2.5981   -0.1036   -3.1682 H   0  0  0  0  0  0  0  0  0  0  0  0
    1.4979   -0.9978   -1.3020 H   0  0  0  0  0  0  0  0  0  0  0  0
   -1.5812   -0.3758   -3.5579 H   0  0  0  0  0  0  0  0  0  0  0  0
   -3.5929   -0.2681   -4.3048 H   0  0  0  0  0  0  0  0  0  0  0  0
   -5.9327   -0.1845   -5.0072 H   0  0  0  0  0  0  0  0  0  0  0  0
   -7.7503   -0.0075   -3.3318 H   0  0  0  0  0  0  0  0  0  0  0  0
   -7.2039    0.0865   -0.9134 H   0  0  0  0  0  0  0  0  0  0  0  0
   -4.8626    0.0043   -0.1631 H   0  0  0  0  0  0  0  0  0  0  0  0
   -1.9689   -0.0280    2.4609 H   0  0  0  0  0  0  0  0  0  0  0  0
    0.0340   -0.0042    4.3086 H   0  0  0  0  0  0  0  0  0  0  0  0
    2.3706   -0.3190    5.0318 H   0  0  0  0  0  0  0  0  0  0  0  0
    4.7317   -0.3569    5.6694 H   0  0  0  0  0  0  0  0  0  0  0  0
    5.8554   -0.0228    1.4962 H   0  0  0  0  0  0  0  0  0  0  0  0
    3.4873    0.0194    0.8708 H   0  0  0  0  0  0  0  0  0  0  0  0
  1  2  2  0
  2  3  1  0
  2  4  1  0
  4  5  2  3
  5  6  1  0
  6  7  2  0
  7  8  1  0
  8  9  1  0
  9 10  2  0
 10 11  1  0
 11 12  2  0
 12 13  1  0
 13 14  2  0
  8 15  1  0
 15 16  2  0
 16 17  1  0
 17 18  2  0
 18 19  1  0
 19 20  2  0
 20 21  1  0
 21 22  2  0
 22 23  1  0
 23 24  2  0
 24 25  1  0
 25 26  2  0
 25 27  1  0
 24 28  1  0
 28 29  2  0
 20 30  1  0
 16  6  1  0
 30 17  1  0
 14  9  1  0
 29 21  1  0
  3 31  1  0
  4 32  1  0
  5 33  1  0
  7 34  1  0
 10 35  1  0
 11 36  1  0
 12 37  1  0
 13 38  1  0
 14 39  1  0
 18 40  1  0
 19 41  1  0
 22 42  1  0
 23 43  1  0
 28 44  1  0
 29 45  1  0
M  CHG  2  25   1  27  -1
M  END
$$$$
