
     RDKit          3D

 47 50  0  0  0  0  0  0  0  0999 V2000
   -4.7005    1.9942    0.1175 O   0  0  0  0  0  0  0  0  0  0  0  0
   -3.7430    1.2750    0.4489 C   0  0  0  0  0  0  0  0  0  0  0  0
   -3.4426    0.9947    1.9409 C   0  0  0  0  0  0  0  0  0  0  0  0
   -4.4372    1.5681    2.9969 C   0  0  0  0  0  0  0  0  0  0  0  0
   -5.1415    0.2017    3.0030 C   0  0  0  0  0  0  0  0  0  0  0  0
   -3.8240   -0.4092    2.4983 C   0  0  0  0  0  0  0  0  0  0  0  0
   -2.9470    0.7104   -0.5471 N   0  0  0  0  0  0  0  0  0  0  0  0
   -3.3115    0.9445   -1.9535 C   0  0  0  0  0  0  0  0  0  0  0  0
   -2.3474    0.1479   -2.8300 C   0  0  0  0  0  0  0  0  0  0  0  0
   -1.4188   -0.4366   -1.8141 C   0  0  0  0  0  0  0  0  0  0  0  0
   -0.3205   -1.2443   -2.0835 C   0  0  0  0  0  0  0  0  0  0  0  0
    0.4222   -1.7133   -1.0004 C   0  0  0  0  0  0  0  0  0  0  0  0
    1.8141   -2.7846   -1.2725 S   0  0  0  0  0  6  0  0  0  0  0  0
    1.7384   -3.8421   -0.2892 O   0  0  0  0  0  0  0  0  0  0  0  0
    1.8944   -3.0613   -2.6906 O   0  0  0  0  0  0  0  0  0  0  0  0
    3.1131   -1.8229   -0.8683 N   0  0  0  0  0  0  0  0  0  0  0  0
    3.3886   -0.6252   -1.6713 C   0  0  0  0  0  0  0  0  0  0  0  0
    4.5527    0.1450   -1.0786 C   0  0  0  0  0  0  0  0  0  0  0  0
    5.6535    0.4984   -1.8593 C   0  0  0  0  0  0  0  0  0  0  0  0
    6.7080    1.1818   -1.2588 C   0  0  0  0  0  0  0  0  0  0  0  0
    6.6335    1.4985    0.0925 C   0  0  0  0  0  0  0  0  0  0  0  0
    5.5002    1.1187    0.7972 C   0  0  0  0  0  0  0  0  0  0  0  0
    4.4617    0.4503    0.2480 N   0  0  0  0  0  0  0  0  0  0  0  0
    0.0614   -1.3850    0.3162 C   0  0  0  0  0  0  0  0  0  0  0  0
   -1.0503   -0.5667    0.5642 C   0  0  0  0  0  0  0  0  0  0  0  0
   -1.7962   -0.0980   -0.5062 C   0  0  0  0  0  0  0  0  0  0  0  0
   -2.4262    1.3237    2.1932 H   0  0  0  0  0  0  0  0  0  0  0  0
   -5.0559    2.4150    2.6873 H   0  0  0  0  0  0  0  0  0  0  0  0
   -3.9597    1.8215    3.9527 H   0  0  0  0  0  0  0  0  0  0  0  0
   -5.4829   -0.1485    3.9797 H   0  0  0  0  0  0  0  0  0  0  0  0
   -5.9674    0.1244    2.2868 H   0  0  0  0  0  0  0  0  0  0  0  0
   -3.9405   -1.2119    1.7646 H   0  0  0  0  0  0  0  0  0  0  0  0
   -3.1620   -0.7580    3.3004 H   0  0  0  0  0  0  0  0  0  0  0  0
   -3.2447    2.0196   -2.1606 H   0  0  0  0  0  0  0  0  0  0  0  0
   -4.3507    0.6338   -2.1166 H   0  0  0  0  0  0  0  0  0  0  0  0
   -2.8729   -0.6401   -3.3786 H   0  0  0  0  0  0  0  0  0  0  0  0
   -1.8184    0.7980   -3.5338 H   0  0  0  0  0  0  0  0  0  0  0  0
   -0.0628   -1.5089   -3.1058 H   0  0  0  0  0  0  0  0  0  0  0  0
    3.2715   -1.6983    0.1346 H   0  0  0  0  0  0  0  0  0  0  0  0
    3.6047   -0.9163   -2.7072 H   0  0  0  0  0  0  0  0  0  0  0  0
    2.5228    0.0481   -1.6692 H   0  0  0  0  0  0  0  0  0  0  0  0
    5.7049    0.2373   -2.9101 H   0  0  0  0  0  0  0  0  0  0  0  0
    7.5850    1.4578   -1.8403 H   0  0  0  0  0  0  0  0  0  0  0  0
    7.4404    2.0281    0.5865 H   0  0  0  0  0  0  0  0  0  0  0  0
    5.3965    1.3469    1.8547 H   0  0  0  0  0  0  0  0  0  0  0  0
    0.6370   -1.7721    1.1558 H   0  0  0  0  0  0  0  0  0  0  0  0
   -1.2801   -0.3402    1.5953 H   0  0  0  0  0  0  0  0  0  0  0  0
  1  2  2  0
  2  3  1  0
  3  4  1  0
  4  5  1  0
  5  6  1  0
  2  7  1  0
  7  8  1  0
  8  9  1  0
  9 10  1  0
 10 11  2  0
 11 12  1  0
 12 13  1  0
 13 14  2  0
 13 15  2  0
 13 16  1  0
 16 17  1  0
 17 18  1  0
 18 19  2  0
 19 20  1  0
 20 21  2  0
 21 22  1  0
 22 23  2  0
 12 24  2  0
 24 25  1  0
 25 26  2  0
  6  3  1  0
 26  7  1  0
 26 10  1  0
 23 18  1  0
  3 27  1  0
  4 28  1  0
  4 29  1  0
  5 30  1  0
  5 31  1  0
  6 32  1  0
  6 33  1  0
  8 34  1  0
  8 35  1  0
  9 36  1  0
  9 37  1  0
 11 38  1  0
 16 39  1  0
 17 40  1  0
 17 41  1  0
 19 42  1  0
 20 43  1  0
 21 44  1  0
 22 45  1  0
 24 46  1  0
 25 47  1  0
M  END
$$$$
