
     RDKit          3D

 34 35  0  0  0  0  0  0  0  0999 V2000
   -0.0169   -1.7117    0.9824 C   0  0  0  0  0  0  0  0  0  0  0  0
   -0.7769   -0.9105    0.0263 N   0  0  0  0  0  0  0  0  0  0  0  0
   -0.2461    0.1707   -0.6810 C   0  0  0  0  0  0  0  0  0  0  0  0
   -0.9595    0.8806   -1.3962 O   0  0  0  0  0  0  0  0  0  0  0  0
    1.2402    0.4741   -0.5801 C   0  0  0  0  0  0  0  0  0  0  0  0
    1.5693    1.4051    0.9452 S   0  0  0  0  0  0  0  0  0  0  0  0
    3.2992    1.7230    0.7247 C   0  0  0  0  0  0  0  0  0  0  0  0
    3.8291    2.6969    1.4825 N   0  0  0  0  0  0  0  0  0  0  0  0
    5.1444    2.9322    1.3258 C   0  0  0  0  0  0  0  0  0  0  0  0
    5.9404    2.2314    0.4531 C   0  0  0  0  0  0  0  0  0  0  0  0
    5.3036    1.2507   -0.2682 C   0  0  0  0  0  0  0  0  0  0  0  0
    3.9911    0.9731   -0.1513 N   0  0  0  0  0  0  0  0  0  0  0  0
   -2.2260   -1.1674   -0.0050 C   0  0  0  0  0  0  0  0  0  0  0  0
   -2.7861   -1.5011   -1.3977 C   0  0  0  0  0  0  0  0  0  0  0  0
   -4.2908   -1.6592   -1.2139 C   0  0  0  0  0  0  0  0  0  0  0  0
   -4.7464   -0.5068    0.0751 S   0  0  0  0  0  6  0  0  0  0  0  0
   -5.3301   -1.2630    1.1655 O   0  0  0  0  0  0  0  0  0  0  0  0
   -5.4199    0.6282   -0.5185 O   0  0  0  0  0  0  0  0  0  0  0  0
   -3.0926   -0.0346    0.5474 C   0  0  0  0  0  0  0  0  0  0  0  0
    1.0605   -1.5779    0.9026 H   0  0  0  0  0  0  0  0  0  0  0  0
   -0.2381   -2.7694    0.8086 H   0  0  0  0  0  0  0  0  0  0  0  0
   -0.3335   -1.4348    1.9925 H   0  0  0  0  0  0  0  0  0  0  0  0
    1.8235   -0.4478   -0.6490 H   0  0  0  0  0  0  0  0  0  0  0  0
    1.5105    1.0897   -1.4461 H   0  0  0  0  0  0  0  0  0  0  0  0
    5.5498    3.7277    1.9446 H   0  0  0  0  0  0  0  0  0  0  0  0
    6.9956    2.4375    0.3426 H   0  0  0  0  0  0  0  0  0  0  0  0
    5.8461    0.6396   -0.9841 H   0  0  0  0  0  0  0  0  0  0  0  0
   -2.4035   -2.0541    0.6215 H   0  0  0  0  0  0  0  0  0  0  0  0
   -2.5988   -0.6964   -2.1154 H   0  0  0  0  0  0  0  0  0  0  0  0
   -2.3377   -2.4109   -1.8103 H   0  0  0  0  0  0  0  0  0  0  0  0
   -4.5391   -2.6657   -0.8647 H   0  0  0  0  0  0  0  0  0  0  0  0
   -4.8476   -1.4340   -2.1259 H   0  0  0  0  0  0  0  0  0  0  0  0
   -3.0291    0.0469    1.6351 H   0  0  0  0  0  0  0  0  0  0  0  0
   -2.8846    0.9377    0.0962 H   0  0  0  0  0  0  0  0  0  0  0  0
  1  2  1  0
  2  3  1  0
  3  4  2  0
  3  5  1  0
  5  6  1  0
  6  7  1  0
  7  8  2  0
  8  9  1  0
  9 10  2  0
 10 11  1  0
 11 12  2  0
  2 13  1  0
 13 14  1  0
 14 15  1  0
 15 16  1  0
 16 17  2  0
 16 18  2  0
 16 19  1  0
 12  7  1  0
 19 13  1  0
  1 20  1  0
  1 21  1  0
  1 22  1  0
  5 23  1  0
  5 24  1  0
  9 25  1  0
 10 26  1  0
 11 27  1  0
 13 28  1  0
 14 29  1  0
 14 30  1  0
 15 31  1  0
 15 32  1  0
 19 33  1  0
 19 34  1  0
M  END
$$$$
