
     RDKit          3D

 41 42  0  0  0  0  0  0  0  0999 V2000
   -6.5418    1.5405   -0.4217 C   0  0  0  0  0  0  0  0  0  0  0  0
   -5.6740    1.7369    0.8073 C   0  0  0  0  0  0  0  0  0  0  0  0
   -4.3291    1.3179    0.5359 O   0  0  0  0  0  0  0  0  0  0  0  0
   -4.0650   -0.0029    0.7307 C   0  0  0  0  0  0  0  0  0  0  0  0
   -4.8973   -0.8203    1.1044 O   0  0  0  0  0  0  0  0  0  0  0  0
   -2.7530   -0.3166    0.4468 N   0  0  0  0  0  0  0  0  0  0  0  0
   -1.7707    0.6782    0.0139 C   0  0  0  0  0  0  0  0  0  0  0  0
   -0.3237    0.1873    0.1785 C   0  0  0  0  0  0  0  0  0  0  0  0
   -0.0758   -1.1029   -0.4959 N   0  0  0  0  0  0  0  0  0  0  0  0
    1.0381   -1.3346   -1.2717 C   0  0  0  0  0  0  0  0  0  0  0  0
    1.0829   -2.3612   -2.6069 S   0  0  0  0  0  0  0  0  0  0  0  0
    2.2320   -0.7044   -1.0046 N   0  0  0  0  0  0  0  0  0  0  0  0
    2.8044   -0.2492    0.1834 C   0  0  0  0  0  0  0  0  0  0  0  0
    2.2297    0.0220    1.2282 O   0  0  0  0  0  0  0  0  0  0  0  0
    4.2727   -0.0108    0.1183 C   0  0  0  0  0  0  0  0  0  0  0  0
    5.1361   -0.8931   -0.5522 C   0  0  0  0  0  0  0  0  0  0  0  0
    6.5102   -0.6363   -0.5796 C   0  0  0  0  0  0  0  0  0  0  0  0
    7.0138    0.4883    0.0678 C   0  0  0  0  0  0  0  0  0  0  0  0
    8.3314    0.7278    0.0360 F   0  0  0  0  0  0  0  0  0  0  0  0
    6.1609    1.3506    0.7473 C   0  0  0  0  0  0  0  0  0  0  0  0
    6.6525    2.4278    1.3741 F   0  0  0  0  0  0  0  0  0  0  0  0
    4.7923    1.1071    0.7834 C   0  0  0  0  0  0  0  0  0  0  0  0
   -1.2428   -2.0129   -0.5350 C   0  0  0  0  0  0  0  0  0  0  0  0
   -2.2978   -1.7014    0.5332 C   0  0  0  0  0  0  0  0  0  0  0  0
   -6.1161    2.0690   -1.2810 H   0  0  0  0  0  0  0  0  0  0  0  0
   -7.5547    1.9129   -0.2447 H   0  0  0  0  0  0  0  0  0  0  0  0
   -6.6015    0.4827   -0.6963 H   0  0  0  0  0  0  0  0  0  0  0  0
   -6.0874    1.2171    1.6793 H   0  0  0  0  0  0  0  0  0  0  0  0
   -5.6315    2.8014    1.0600 H   0  0  0  0  0  0  0  0  0  0  0  0
   -1.9150    1.6066    0.5768 H   0  0  0  0  0  0  0  0  0  0  0  0
   -1.9779    0.8891   -1.0421 H   0  0  0  0  0  0  0  0  0  0  0  0
    0.3553    0.9551   -0.2039 H   0  0  0  0  0  0  0  0  0  0  0  0
   -0.1361    0.0291    1.2459 H   0  0  0  0  0  0  0  0  0  0  0  0
    2.8875   -0.8970   -1.7499 H   0  0  0  0  0  0  0  0  0  0  0  0
    4.7643   -1.7980   -1.0277 H   0  0  0  0  0  0  0  0  0  0  0  0
    7.1930   -1.3099   -1.0899 H   0  0  0  0  0  0  0  0  0  0  0  0
    4.1429    1.7874    1.3282 H   0  0  0  0  0  0  0  0  0  0  0  0
   -0.8892   -3.0437   -0.4210 H   0  0  0  0  0  0  0  0  0  0  0  0
   -1.7013   -1.9151   -1.5270 H   0  0  0  0  0  0  0  0  0  0  0  0
   -3.1446   -2.3889    0.4362 H   0  0  0  0  0  0  0  0  0  0  0  0
   -1.8735   -1.8356    1.5353 H   0  0  0  0  0  0  0  0  0  0  0  0
  1  2  1  0
  2  3  1  0
  3  4  1  0
  4  5  2  0
  4  6  1  0
  6  7  1  0
  7  8  1  0
  8  9  1  0
  9 10  1  0
 10 11  2  0
 10 12  1  0
 12 13  1  0
 13 14  2  0
 13 15  1  0
 15 16  2  0
 16 17  1  0
 17 18  2  0
 18 19  1  0
 18 20  1  0
 20 21  1  0
 20 22  2  0
  9 23  1  0
 23 24  1  0
 24  6  1  0
 22 15  1  0
  1 25  1  0
  1 26  1  0
  1 27  1  0
  2 28  1  0
  2 29  1  0
  7 30  1  0
  7 31  1  0
  8 32  1  0
  8 33  1  0
 12 34  1  0
 16 35  1  0
 17 36  1  0
 22 37  1  0
 23 38  1  0
 23 39  1  0
 24 40  1  0
 24 41  1  0
M  END
$$$$
