
     RDKit          3D

 44 45  0  0  0  0  0  0  0  0999 V2000
    6.4108   -1.0140   -0.3646 C   0  0  0  0  0  0  0  0  0  0  0  0
    5.8737    0.3308   -0.7749 C   0  0  0  0  0  0  0  0  0  0  0  0
    6.6072    1.2410   -1.1457 O   0  0  0  0  0  0  0  0  0  0  0  0
    4.5037    0.4348   -0.7018 N   0  0  0  0  0  0  0  0  0  0  0  0
    3.8200    1.6115   -1.2137 C   0  0  0  0  0  0  0  0  0  0  0  0
    2.4045    1.7323   -0.6541 C   0  0  0  0  0  0  0  0  0  0  0  0
    1.6556    0.5931   -1.0874 O   0  0  0  0  0  0  0  0  0  0  0  0
    0.3574    0.5830   -0.6200 C   0  0  0  0  0  0  0  0  0  0  0  0
   -0.0965    1.6148    0.0758 N   0  0  0  0  0  0  0  0  0  0  0  0
   -1.3555    1.5141    0.4781 C   0  0  0  0  0  0  0  0  0  0  0  0
   -1.9024    2.5502    1.2419 N   0  0  0  0  0  0  0  0  0  0  0  0
   -1.2215    3.8293    1.1120 C   0  0  0  0  0  0  0  0  0  0  0  0
   -3.3571    2.5845    1.2616 C   0  0  0  0  0  0  0  0  0  0  0  0
   -2.1087    0.4501    0.2078 N   0  0  0  0  0  0  0  0  0  0  0  0
   -1.5683   -0.5423   -0.4960 C   0  0  0  0  0  0  0  0  0  0  0  0
   -2.3566   -1.6365   -0.8039 N   0  0  0  0  0  0  0  0  0  0  0  0
   -3.6245   -1.7725   -0.0803 C   0  0  0  0  0  0  0  0  0  0  0  0
   -4.3397   -3.0550   -0.5310 C   0  0  0  0  0  0  0  0  0  0  0  0
   -3.5811   -4.2512   -0.2934 O   0  0  0  0  0  0  0  0  0  0  0  0
   -2.1603   -4.0421   -0.3167 C   0  0  0  0  0  0  0  0  0  0  0  0
   -1.7145   -2.8860   -1.2275 C   0  0  0  0  0  0  0  0  0  0  0  0
   -0.3213   -0.5067   -0.9370 N   0  0  0  0  0  0  0  0  0  0  0  0
    7.2631   -0.8695    0.3051 H   0  0  0  0  0  0  0  0  0  0  0  0
    6.7297   -1.5593   -1.2566 H   0  0  0  0  0  0  0  0  0  0  0  0
    5.6572   -1.6041    0.1644 H   0  0  0  0  0  0  0  0  0  0  0  0
    3.9654   -0.4237   -0.6778 H   0  0  0  0  0  0  0  0  0  0  0  0
    4.4032    2.5042   -0.9642 H   0  0  0  0  0  0  0  0  0  0  0  0
    3.7939    1.5085   -2.3043 H   0  0  0  0  0  0  0  0  0  0  0  0
    2.4465    1.7650    0.4421 H   0  0  0  0  0  0  0  0  0  0  0  0
    1.9507    2.6529   -1.0411 H   0  0  0  0  0  0  0  0  0  0  0  0
   -1.2728    4.2069    0.0841 H   0  0  0  0  0  0  0  0  0  0  0  0
   -0.1716    3.7617    1.4195 H   0  0  0  0  0  0  0  0  0  0  0  0
   -1.6863    4.5762    1.7656 H   0  0  0  0  0  0  0  0  0  0  0  0
   -3.7670    2.7511    0.2586 H   0  0  0  0  0  0  0  0  0  0  0  0
   -3.7097    3.3983    1.9054 H   0  0  0  0  0  0  0  0  0  0  0  0
   -3.7781    1.6608    1.6752 H   0  0  0  0  0  0  0  0  0  0  0  0
   -3.4335   -1.8292    0.9990 H   0  0  0  0  0  0  0  0  0  0  0  0
   -4.2778   -0.9149   -0.2796 H   0  0  0  0  0  0  0  0  0  0  0  0
   -4.5618   -3.0119   -1.6039 H   0  0  0  0  0  0  0  0  0  0  0  0
   -5.2932   -3.1611   -0.0040 H   0  0  0  0  0  0  0  0  0  0  0  0
   -1.8355   -3.8605    0.7147 H   0  0  0  0  0  0  0  0  0  0  0  0
   -1.6978   -4.9788   -0.6439 H   0  0  0  0  0  0  0  0  0  0  0  0
   -0.6201   -2.8432   -1.2218 H   0  0  0  0  0  0  0  0  0  0  0  0
   -2.0296   -3.0928   -2.2571 H   0  0  0  0  0  0  0  0  0  0  0  0
  1  2  1  0
  2  3  2  0
  2  4  1  0
  4  5  1  0
  5  6  1  0
  6  7  1  0
  7  8  1  0
  8  9  2  0
  9 10  1  0
 10 11  1  0
 11 12  1  0
 11 13  1  0
 10 14  2  0
 14 15  1  0
 15 16  1  0
 16 17  1  0
 17 18  1  0
 18 19  1  0
 19 20  1  0
 20 21  1  0
 15 22  2  0
 22  8  1  0
 21 16  1  0
  1 23  1  0
  1 24  1  0
  1 25  1  0
  4 26  1  0
  5 27  1  0
  5 28  1  0
  6 29  1  0
  6 30  1  0
 12 31  1  0
 12 32  1  0
 12 33  1  0
 13 34  1  0
 13 35  1  0
 13 36  1  0
 17 37  1  0
 17 38  1  0
 18 39  1  0
 18 40  1  0
 20 41  1  0
 20 42  1  0
 21 43  1  0
 21 44  1  0
M  END
$$$$
