
     RDKit          3D

 59 62  0  0  0  0  0  0  0  0999 V2000
   -7.5932   -2.7119   -0.9504 C   0  0  0  0  0  0  0  0  0  0  0  0
   -7.9611   -1.5016   -0.2996 O   0  0  0  0  0  0  0  0  0  0  0  0
   -6.9447   -0.7141    0.1661 C   0  0  0  0  0  0  0  0  0  0  0  0
   -7.3593    0.4585    0.7944 C   0  0  0  0  0  0  0  0  0  0  0  0
   -6.4204    1.3472    1.3131 C   0  0  0  0  0  0  0  0  0  0  0  0
   -5.0512    1.0621    1.2039 C   0  0  0  0  0  0  0  0  0  0  0  0
   -4.0763    1.9268    1.7076 C   0  0  0  0  0  0  0  0  0  0  0  0
   -2.7239    1.6015    1.5760 C   0  0  0  0  0  0  0  0  0  0  0  0
   -1.7369    2.5146    2.0676 C   0  0  0  0  0  0  0  0  0  0  0  0
   -0.9714    3.2761    2.4959 N   0  0  0  0  0  0  0  0  0  0  0  0
   -2.3701    0.4054    0.9415 C   0  0  0  0  0  0  0  0  0  0  0  0
   -1.0203    0.0417    0.8088 N   0  0  0  0  0  0  0  0  0  0  0  0
   -0.4830   -0.5906    2.0261 C   0  0  0  0  0  0  0  0  0  0  0  0
    1.0651   -0.6818    1.9396 C   0  0  0  0  0  0  0  0  0  0  0  0
    1.6174   -0.8033    0.5664 N   0  0  0  0  0  0  0  0  0  0  0  0
    2.9232   -1.4736    0.5457 C   0  0  0  0  0  0  0  0  0  0  0  0
    3.9757   -0.7472    1.3066 C   0  0  0  0  0  0  0  0  0  0  0  0
    4.6782   -1.2230    2.3176 N   0  0  0  0  0  0  0  0  0  0  0  0
    5.5323   -0.2218    2.7007 N   0  0  0  0  0  0  0  0  0  0  0  0
    5.3684    0.8549    1.9480 N   0  0  0  0  0  0  0  0  0  0  0  0
    4.3988    0.5339    1.0712 N   0  0  0  0  0  0  0  0  0  0  0  0
    3.9488    1.5135    0.1100 C   0  0  0  0  0  0  0  0  0  0  0  0
    4.9904    1.8420   -0.9654 C   0  0  0  0  0  0  0  0  0  0  0  0
    5.2783    0.6958   -1.9549 C   0  0  0  0  0  0  0  0  0  0  0  0
    4.0816    0.4057   -2.8633 C   0  0  0  0  0  0  0  0  0  0  0  0
    6.4962    1.0470   -2.8143 C   0  0  0  0  0  0  0  0  0  0  0  0
    0.6466   -1.4767   -0.3115 C   0  0  0  0  0  0  0  0  0  0  0  0
   -0.7078   -0.7222   -0.4197 C   0  0  0  0  0  0  0  0  0  0  0  0
   -3.3172   -0.4291    0.4468 N   0  0  0  0  0  0  0  0  0  0  0  0
   -4.6204   -0.1182    0.5715 C   0  0  0  0  0  0  0  0  0  0  0  0
   -5.5787   -0.9874    0.0626 C   0  0  0  0  0  0  0  0  0  0  0  0
   -7.0044   -2.5120   -1.8517 H   0  0  0  0  0  0  0  0  0  0  0  0
   -8.5128   -3.2183   -1.2589 H   0  0  0  0  0  0  0  0  0  0  0  0
   -7.0580   -3.3800   -0.2675 H   0  0  0  0  0  0  0  0  0  0  0  0
   -8.4208    0.6801    0.8795 H   0  0  0  0  0  0  0  0  0  0  0  0
   -6.7651    2.2571    1.7989 H   0  0  0  0  0  0  0  0  0  0  0  0
   -4.3654    2.8556    2.1959 H   0  0  0  0  0  0  0  0  0  0  0  0
   -0.9026   -1.6008    2.1292 H   0  0  0  0  0  0  0  0  0  0  0  0
   -0.7475   -0.0340    2.9331 H   0  0  0  0  0  0  0  0  0  0  0  0
    1.3776   -1.5219    2.5735 H   0  0  0  0  0  0  0  0  0  0  0  0
    1.4846    0.2288    2.3847 H   0  0  0  0  0  0  0  0  0  0  0  0
    2.8349   -2.4958    0.9366 H   0  0  0  0  0  0  0  0  0  0  0  0
    3.2723   -1.5689   -0.4897 H   0  0  0  0  0  0  0  0  0  0  0  0
    3.0115    1.1832   -0.3391 H   0  0  0  0  0  0  0  0  0  0  0  0
    3.7190    2.4209    0.6820 H   0  0  0  0  0  0  0  0  0  0  0  0
    5.9267    2.1396   -0.4758 H   0  0  0  0  0  0  0  0  0  0  0  0
    4.6440    2.7204   -1.5252 H   0  0  0  0  0  0  0  0  0  0  0  0
    5.5199   -0.2160   -1.3960 H   0  0  0  0  0  0  0  0  0  0  0  0
    3.7958    1.2934   -3.4378 H   0  0  0  0  0  0  0  0  0  0  0  0
    3.2091    0.0794   -2.2915 H   0  0  0  0  0  0  0  0  0  0  0  0
    4.3211   -0.3921   -3.5746 H   0  0  0  0  0  0  0  0  0  0  0  0
    7.3794    1.2127   -2.1882 H   0  0  0  0  0  0  0  0  0  0  0  0
    6.7300    0.2336   -3.5094 H   0  0  0  0  0  0  0  0  0  0  0  0
    6.3209    1.9551   -3.4012 H   0  0  0  0  0  0  0  0  0  0  0  0
    0.4574   -2.4938    0.0586 H   0  0  0  0  0  0  0  0  0  0  0  0
    1.0531   -1.5833   -1.3248 H   0  0  0  0  0  0  0  0  0  0  0  0
   -0.6523   -0.0092   -1.2515 H   0  0  0  0  0  0  0  0  0  0  0  0
   -1.4738   -1.4671   -0.6666 H   0  0  0  0  0  0  0  0  0  0  0  0
   -5.2194   -1.8904   -0.4199 H   0  0  0  0  0  0  0  0  0  0  0  0
  1  2  1  0
  2  3  1  0
  3  4  2  0
  4  5  1  0
  5  6  2  0
  6  7  1  0
  7  8  2  0
  8  9  1  0
  9 10  3  0
  8 11  1  0
 11 12  1  0
 12 13  1  0
 13 14  1  0
 14 15  1  0
 15 16  1  0
 16 17  1  0
 17 18  2  0
 18 19  1  0
 19 20  2  0
 20 21  1  0
 21 22  1  0
 22 23  1  0
 23 24  1  0
 24 25  1  0
 24 26  1  0
 15 27  1  0
 27 28  1  0
 11 29  2  0
 29 30  1  0
 30 31  2  0
 31  3  1  0
 30  6  1  0
 28 12  1  0
 21 17  1  0
  1 32  1  0
  1 33  1  0
  1 34  1  0
  4 35  1  0
  5 36  1  0
  7 37  1  0
 13 38  1  0
 13 39  1  0
 14 40  1  0
 14 41  1  0
 16 42  1  0
 16 43  1  0
 22 44  1  0
 22 45  1  0
 23 46  1  0
 23 47  1  0
 24 48  1  0
 25 49  1  0
 25 50  1  0
 25 51  1  0
 26 52  1  0
 26 53  1  0
 26 54  1  0
 27 55  1  0
 27 56  1  0
 28 57  1  0
 28 58  1  0
 31 59  1  0
M  END
$$$$
