
     RDKit          3D

 36 38  0  0  0  0  0  0  0  0999 V2000
    0.1468   -1.1781   -0.8055 O   0  0  0  0  0  0  0  0  0  0  0  0
   -0.2109   -0.2343   -0.1102 C   0  0  0  0  0  0  0  0  0  0  0  0
   -1.6497    0.1116    0.0793 C   0  0  0  0  0  0  0  0  0  0  0  0
   -2.6197   -0.5579   -0.5598 C   0  0  0  0  0  0  0  0  0  0  0  0
   -4.0620   -0.3221   -0.4367 C   0  0  0  0  0  0  0  0  0  0  0  0
   -4.6449    0.8782   -0.8643 C   0  0  0  0  0  0  0  0  0  0  0  0
   -6.0242    1.0740   -0.7523 C   0  0  0  0  0  0  0  0  0  0  0  0
   -6.8172    0.0628   -0.2202 C   0  0  0  0  0  0  0  0  0  0  0  0
   -8.1662    0.2103   -0.0925 O   0  0  0  0  0  0  0  0  0  0  0  0
   -6.2554   -1.1377    0.1971 C   0  0  0  0  0  0  0  0  0  0  0  0
   -4.8774   -1.3328    0.0862 C   0  0  0  0  0  0  0  0  0  0  0  0
   -1.8245    1.3923    1.2106 S   0  0  0  0  0  0  0  0  0  0  0  0
   -0.0889    1.5364    1.4618 C   0  0  0  0  0  0  0  0  0  0  0  0
    0.5649    2.6395    2.5357 S   0  0  0  0  0  0  0  0  0  0  0  0
    0.5781    0.6400    0.6375 N   0  0  0  0  0  0  0  0  0  0  0  0
    1.9580    0.5565    0.7342 N   0  0  0  0  0  0  0  0  0  0  0  0
    2.6404    0.0314   -0.2311 C   0  0  0  0  0  0  0  0  0  0  0  0
    4.1097   -0.1100   -0.1390 C   0  0  0  0  0  0  0  0  0  0  0  0
    4.8076    0.3437    0.9865 C   0  0  0  0  0  0  0  0  0  0  0  0
    6.1957    0.2018    1.0493 C   0  0  0  0  0  0  0  0  0  0  0  0
    6.8706   -0.3927   -0.0133 C   0  0  0  0  0  0  0  0  0  0  0  0
    8.2243   -0.5512    0.0058 O   0  0  0  0  0  0  0  0  0  0  0  0
    6.1832   -0.8468   -1.1346 C   0  0  0  0  0  0  0  0  0  0  0  0
    4.7960   -0.7064   -1.2013 C   0  0  0  0  0  0  0  0  0  0  0  0
   -2.3577   -1.3795   -1.2260 H   0  0  0  0  0  0  0  0  0  0  0  0
   -4.0322    1.6698   -1.2893 H   0  0  0  0  0  0  0  0  0  0  0  0
   -6.4557    2.0127   -1.0848 H   0  0  0  0  0  0  0  0  0  0  0  0
   -8.4130    1.0964   -0.4040 H   0  0  0  0  0  0  0  0  0  0  0  0
   -6.8878   -1.9196    0.6081 H   0  0  0  0  0  0  0  0  0  0  0  0
   -4.4491   -2.2764    0.4165 H   0  0  0  0  0  0  0  0  0  0  0  0
    2.1938   -0.3067   -1.1801 H   0  0  0  0  0  0  0  0  0  0  0  0
    4.2786    0.8093    1.8154 H   0  0  0  0  0  0  0  0  0  0  0  0
    6.7259    0.5583    1.9269 H   0  0  0  0  0  0  0  0  0  0  0  0
    8.5685   -0.1958    0.8419 H   0  0  0  0  0  0  0  0  0  0  0  0
    6.7277   -1.3097   -1.9533 H   0  0  0  0  0  0  0  0  0  0  0  0
    4.2669   -1.0670   -2.0794 H   0  0  0  0  0  0  0  0  0  0  0  0
  1  2  2  0
  2  3  1  0
  3  4  2  3
  4  5  1  0
  5  6  2  0
  6  7  1  0
  7  8  2  0
  8  9  1  0
  8 10  1  0
 10 11  2  0
  3 12  1  0
 12 13  1  0
 13 14  2  0
 13 15  1  0
 15 16  1  0
 16 17  2  3
 17 18  1  0
 18 19  2  0
 19 20  1  0
 20 21  2  0
 21 22  1  0
 21 23  1  0
 23 24  2  0
 15  2  1  0
 24 18  1  0
 11  5  1  0
  4 25  1  0
  6 26  1  0
  7 27  1  0
  9 28  1  0
 10 29  1  0
 11 30  1  0
 17 31  1  0
 19 32  1  0
 20 33  1  0
 22 34  1  0
 23 35  1  0
 24 36  1  0
M  END
$$$$
