
     RDKit          3D

 45 48  0  0  0  0  0  0  0  0999 V2000
   -4.9862    1.2513   -2.4405 C   0  0  0  0  0  0  0  0  0  0  0  0
   -4.0174    0.8042   -1.3444 C   0  0  0  0  0  0  0  0  0  0  0  0
   -2.9863    1.9040   -1.0822 C   0  0  0  0  0  0  0  0  0  0  0  0
   -3.3517   -0.5244   -1.7457 C   0  0  0  0  0  0  0  0  0  0  0  0
   -2.5491   -1.1061   -0.6712 N   0  0  0  0  0  0  0  0  0  0  0  0
   -1.1986   -0.8680   -0.7283 N   0  0  0  0  0  0  0  0  0  0  0  0
   -0.4313   -1.3556    0.2031 C   0  0  0  0  0  0  0  0  0  0  0  0
    1.0542   -1.0327    0.0522 C   0  0  0  0  0  0  0  0  0  0  0  0
    1.8819   -1.8987    0.2776 O   0  0  0  0  0  0  0  0  0  0  0  0
    1.2401    0.2620   -0.3589 N   0  0  0  0  0  0  0  0  0  0  0  0
    2.4331    0.8910   -0.5917 C   0  0  0  0  0  0  0  0  0  0  0  0
    2.5018    2.1198   -1.0559 N   0  0  0  0  0  0  0  0  0  0  0  0
    3.8081    2.5479   -1.2020 N   0  0  0  0  0  0  0  0  0  0  0  0
    4.6609    1.6206   -0.8281 C   0  0  0  0  0  0  0  0  0  0  0  0
    6.2043    1.8313   -0.8977 C   0  0  0  0  0  0  0  0  0  0  0  0
    6.7821    3.1692   -0.5111 C   0  0  0  0  0  0  0  0  0  0  0  0
    6.9881    1.9806    0.3817 C   0  0  0  0  0  0  0  0  0  0  0  0
    3.9462    0.1678   -0.2839 S   0  0  0  0  0  0  0  0  0  0  0  0
   -0.9301   -2.1311    1.3512 C   0  0  0  0  0  0  0  0  0  0  0  0
   -0.1117   -2.6071    2.3833 C   0  0  0  0  0  0  0  0  0  0  0  0
   -0.6681   -3.3292    3.4434 C   0  0  0  0  0  0  0  0  0  0  0  0
   -2.0390   -3.5737    3.4830 C   0  0  0  0  0  0  0  0  0  0  0  0
   -2.8581   -3.0922    2.4633 C   0  0  0  0  0  0  0  0  0  0  0  0
   -2.3011   -2.3681    1.3997 C   0  0  0  0  0  0  0  0  0  0  0  0
   -3.1747   -1.8374    0.3359 C   0  0  0  0  0  0  0  0  0  0  0  0
   -4.3842   -2.0455    0.3857 O   0  0  0  0  0  0  0  0  0  0  0  0
   -5.4908    2.1815   -2.1586 H   0  0  0  0  0  0  0  0  0  0  0  0
   -4.4634    1.4227   -3.3877 H   0  0  0  0  0  0  0  0  0  0  0  0
   -5.7576    0.4928   -2.6109 H   0  0  0  0  0  0  0  0  0  0  0  0
   -4.5945    0.6558   -0.4232 H   0  0  0  0  0  0  0  0  0  0  0  0
   -3.4818    2.8529   -0.8500 H   0  0  0  0  0  0  0  0  0  0  0  0
   -2.3438    2.0633   -1.9549 H   0  0  0  0  0  0  0  0  0  0  0  0
   -2.3476    1.6536   -0.2295 H   0  0  0  0  0  0  0  0  0  0  0  0
   -2.7121   -0.3896   -2.6270 H   0  0  0  0  0  0  0  0  0  0  0  0
   -4.1235   -1.2545   -2.0189 H   0  0  0  0  0  0  0  0  0  0  0  0
    0.4173    0.7990   -0.6104 H   0  0  0  0  0  0  0  0  0  0  0  0
    6.6818    1.3114   -1.7214 H   0  0  0  0  0  0  0  0  0  0  0  0
    6.1048    3.9480   -0.1772 H   0  0  0  0  0  0  0  0  0  0  0  0
    7.6289    3.5359   -1.0794 H   0  0  0  0  0  0  0  0  0  0  0  0
    6.4576    1.9642    1.3272 H   0  0  0  0  0  0  0  0  0  0  0  0
    7.9778    1.5405    0.4223 H   0  0  0  0  0  0  0  0  0  0  0  0
    0.9620   -2.4386    2.3917 H   0  0  0  0  0  0  0  0  0  0  0  0
   -0.0274   -3.7035    4.2395 H   0  0  0  0  0  0  0  0  0  0  0  0
   -2.4706   -4.1365    4.3078 H   0  0  0  0  0  0  0  0  0  0  0  0
   -3.9301   -3.2786    2.4996 H   0  0  0  0  0  0  0  0  0  0  0  0
  1  2  1  0
  2  3  1  0
  2  4  1  0
  4  5  1  0
  5  6  1  0
  6  7  2  0
  7  8  1  0
  8  9  2  0
  8 10  1  0
 10 11  1  0
 11 12  2  0
 12 13  1  0
 13 14  2  0
 14 15  1  0
 15 16  1  0
 16 17  1  0
 14 18  1  0
  7 19  1  0
 19 20  2  0
 20 21  1  0
 21 22  2  0
 22 23  1  0
 23 24  2  0
 24 25  1  0
 25 26  2  0
 25  5  1  0
 18 11  1  0
 24 19  1  0
 17 15  1  0
  1 27  1  0
  1 28  1  0
  1 29  1  0
  2 30  1  0
  3 31  1  0
  3 32  1  0
  3 33  1  0
  4 34  1  0
  4 35  1  0
 10 36  1  0
 15 37  1  0
 16 38  1  0
 16 39  1  0
 17 40  1  0
 17 41  1  0
 20 42  1  0
 21 43  1  0
 22 44  1  0
 23 45  1  0
M  END
$$$$
