
     RDKit          3D

 36 38  0  0  0  0  0  0  0  0999 V2000
    0.0604    1.3560   -1.4765 O   0  0  0  0  0  0  0  0  0  0  0  0
   -0.2722    0.6692   -0.5180 C   0  0  0  0  0  0  0  0  0  0  0  0
   -1.6921    0.3426   -0.2068 C   0  0  0  0  0  0  0  0  0  0  0  0
   -2.6956    0.7759   -0.9828 C   0  0  0  0  0  0  0  0  0  0  0  0
   -4.1246    0.5329   -0.7631 C   0  0  0  0  0  0  0  0  0  0  0  0
   -4.9681    1.6152   -0.4862 C   0  0  0  0  0  0  0  0  0  0  0  0
   -6.3346    1.4087   -0.2881 C   0  0  0  0  0  0  0  0  0  0  0  0
   -6.8567    0.1238   -0.3732 C   0  0  0  0  0  0  0  0  0  0  0  0
   -8.1959   -0.0315   -0.1721 O   0  0  0  0  0  0  0  0  0  0  0  0
   -6.0353   -0.9622   -0.6575 C   0  0  0  0  0  0  0  0  0  0  0  0
   -4.6676   -0.7553   -0.8564 C   0  0  0  0  0  0  0  0  0  0  0  0
   -1.7990   -0.5868    1.2363 S   0  0  0  0  0  0  0  0  0  0  0  0
   -0.0580   -0.5431    1.5114 C   0  0  0  0  0  0  0  0  0  0  0  0
    0.6294   -1.1707    2.9005 S   0  0  0  0  0  0  0  0  0  0  0  0
    0.5560    0.0751    0.4300 N   0  0  0  0  0  0  0  0  0  0  0  0
    1.9027    0.3768    0.3812 N   0  0  0  0  0  0  0  0  0  0  0  0
    2.7058   -0.6392    0.3261 C   0  0  0  0  0  0  0  0  0  0  0  0
    4.1715   -0.4703    0.2907 C   0  0  0  0  0  0  0  0  0  0  0  0
    4.9801   -1.6107    0.2726 C   0  0  0  0  0  0  0  0  0  0  0  0
    6.3685   -1.4708    0.2381 C   0  0  0  0  0  0  0  0  0  0  0  0
    6.9349   -0.1998    0.2216 C   0  0  0  0  0  0  0  0  0  0  0  0
    8.2948   -0.1142    0.1873 O   0  0  0  0  0  0  0  0  0  0  0  0
    6.1371    0.9408    0.2395 C   0  0  0  0  0  0  0  0  0  0  0  0
    4.7475    0.8050    0.2745 C   0  0  0  0  0  0  0  0  0  0  0  0
   -2.4740    1.3899   -1.8554 H   0  0  0  0  0  0  0  0  0  0  0  0
   -4.5704    2.6252   -0.4173 H   0  0  0  0  0  0  0  0  0  0  0  0
   -6.9887    2.2477   -0.0681 H   0  0  0  0  0  0  0  0  0  0  0  0
   -8.4148   -0.9745   -0.2494 H   0  0  0  0  0  0  0  0  0  0  0  0
   -6.4362   -1.9681   -0.7303 H   0  0  0  0  0  0  0  0  0  0  0  0
   -4.0321   -1.6071   -1.0869 H   0  0  0  0  0  0  0  0  0  0  0  0
    2.3286   -1.6777    0.2860 H   0  0  0  0  0  0  0  0  0  0  0  0
    4.5477   -2.6073    0.2880 H   0  0  0  0  0  0  0  0  0  0  0  0
    7.0086   -2.3489    0.2251 H   0  0  0  0  0  0  0  0  0  0  0  0
    8.5484    0.8237    0.1822 H   0  0  0  0  0  0  0  0  0  0  0  0
    6.5725    1.9352    0.2260 H   0  0  0  0  0  0  0  0  0  0  0  0
    4.1214    1.6946    0.2859 H   0  0  0  0  0  0  0  0  0  0  0  0
  1  2  2  0
  2  3  1  0
  3  4  2  3
  4  5  1  0
  5  6  2  0
  6  7  1  0
  7  8  2  0
  8  9  1  0
  8 10  1  0
 10 11  2  0
  3 12  1  0
 12 13  1  0
 13 14  2  0
 13 15  1  0
 15 16  1  0
 16 17  2  3
 17 18  1  0
 18 19  2  0
 19 20  1  0
 20 21  2  0
 21 22  1  0
 21 23  1  0
 23 24  2  0
 15  2  1  0
 24 18  1  0
 11  5  1  0
  4 25  1  0
  6 26  1  0
  7 27  1  0
  9 28  1  0
 10 29  1  0
 11 30  1  0
 17 31  1  0
 19 32  1  0
 20 33  1  0
 22 34  1  0
 23 35  1  0
 24 36  1  0
M  END
$$$$
