
     RDKit          3D

 52 55  0  0  0  0  0  0  0  0999 V2000
   -3.8695    0.5206    2.1218 C   0  0  0  0  0  0  0  0  0  0  0  0
   -5.1344    0.4547    1.3103 C   0  0  0  0  0  0  0  0  0  0  0  0
   -6.2882   -0.0616    1.9301 C   0  0  0  0  0  0  0  0  0  0  0  0
   -7.5095   -0.1082    1.2582 C   0  0  0  0  0  0  0  0  0  0  0  0
   -7.6001    0.3681   -0.0431 C   0  0  0  0  0  0  0  0  0  0  0  0
   -6.4627    0.8682   -0.6753 C   0  0  0  0  0  0  0  0  0  0  0  0
   -5.2122    0.8777   -0.0316 C   0  0  0  0  0  0  0  0  0  0  0  0
   -4.1360    1.4529   -0.7583 N   0  0  0  0  0  0  0  0  0  0  0  0
   -2.7917    1.0182   -0.7575 C   0  0  0  0  0  0  0  0  0  0  0  0
   -1.8828    1.9677   -0.4438 N   0  0  0  0  0  0  0  0  0  0  0  0
   -0.5570    1.6655   -0.3685 N   0  0  0  0  0  0  0  0  0  0  0  0
   -0.1312    0.4078   -0.6251 C   0  0  0  0  0  0  0  0  0  0  0  0
    1.3210    0.2368   -0.4649 C   0  0  0  0  0  0  0  0  0  0  0  0
    1.8523   -0.5871    0.5417 C   0  0  0  0  0  0  0  0  0  0  0  0
    3.2345   -0.7381    0.6901 C   0  0  0  0  0  0  0  0  0  0  0  0
    4.1126   -0.0500   -0.1540 C   0  0  0  0  0  0  0  0  0  0  0  0
    5.5750   -0.2392    0.0405 C   0  0  0  0  0  0  0  0  0  0  0  0
    6.0085   -1.2781    0.5271 O   0  0  0  0  0  0  0  0  0  0  0  0
    6.3859    0.8204   -0.3012 N   0  0  0  0  0  0  0  0  0  0  0  0
    7.8341    0.7719   -0.1483 C   0  0  0  0  0  0  0  0  0  0  0  0
    8.2880    0.7737    1.3160 C   0  0  0  0  0  0  0  0  0  0  0  0
    8.2166   -0.5233    1.8999 O   0  0  0  0  0  0  0  0  0  0  0  0
    3.5996    0.7729   -1.1622 C   0  0  0  0  0  0  0  0  0  0  0  0
    2.2156    0.9178   -1.3085 C   0  0  0  0  0  0  0  0  0  0  0  0
   -1.0191   -0.6143   -1.0141 C   0  0  0  0  0  0  0  0  0  0  0  0
   -0.6023   -1.9277   -1.3535 C   0  0  0  0  0  0  0  0  0  0  0  0
   -1.5118   -2.9082   -1.7477 C   0  0  0  0  0  0  0  0  0  0  0  0
   -2.8598   -2.5999   -1.8249 C   0  0  0  0  0  0  0  0  0  0  0  0
   -3.2938   -1.3130   -1.5058 C   0  0  0  0  0  0  0  0  0  0  0  0
   -2.3964   -0.2977   -1.0870 C   0  0  0  0  0  0  0  0  0  0  0  0
   -3.1825   -0.2776    1.8273 H   0  0  0  0  0  0  0  0  0  0  0  0
   -4.0774    0.4002    3.1910 H   0  0  0  0  0  0  0  0  0  0  0  0
   -3.3850    1.4953    2.0102 H   0  0  0  0  0  0  0  0  0  0  0  0
   -6.2437   -0.4197    2.9570 H   0  0  0  0  0  0  0  0  0  0  0  0
   -8.3903   -0.5030    1.7578 H   0  0  0  0  0  0  0  0  0  0  0  0
   -8.5517    0.3517   -0.5671 H   0  0  0  0  0  0  0  0  0  0  0  0
   -6.5440    1.2384   -1.6953 H   0  0  0  0  0  0  0  0  0  0  0  0
   -4.0764    2.4370   -0.4903 H   0  0  0  0  0  0  0  0  0  0  0  0
    1.1885   -1.1160    1.2241 H   0  0  0  0  0  0  0  0  0  0  0  0
    3.6236   -1.3868    1.4730 H   0  0  0  0  0  0  0  0  0  0  0  0
    5.9644    1.7182   -0.4995 H   0  0  0  0  0  0  0  0  0  0  0  0
    8.1957   -0.1263   -0.6606 H   0  0  0  0  0  0  0  0  0  0  0  0
    8.2238    1.6578   -0.6594 H   0  0  0  0  0  0  0  0  0  0  0  0
    7.6866    1.4604    1.9200 H   0  0  0  0  0  0  0  0  0  0  0  0
    9.3341    1.0892    1.3757 H   0  0  0  0  0  0  0  0  0  0  0  0
    7.4116   -0.9616    1.5438 H   0  0  0  0  0  0  0  0  0  0  0  0
    4.2555    1.2895   -1.8569 H   0  0  0  0  0  0  0  0  0  0  0  0
    1.8289    1.5671   -2.0936 H   0  0  0  0  0  0  0  0  0  0  0  0
    0.4512   -2.2010   -1.3269 H   0  0  0  0  0  0  0  0  0  0  0  0
   -1.1631   -3.9059   -2.0023 H   0  0  0  0  0  0  0  0  0  0  0  0
   -3.5781   -3.3526   -2.1399 H   0  0  0  0  0  0  0  0  0  0  0  0
   -4.3567   -1.1027   -1.5997 H   0  0  0  0  0  0  0  0  0  0  0  0
  1  2  1  0
  2  3  2  0
  3  4  1  0
  4  5  2  0
  5  6  1  0
  6  7  2  0
  7  8  1  0
  8  9  1  0
  9 10  2  0
 10 11  1  0
 11 12  2  0
 12 13  1  0
 13 14  2  0
 14 15  1  0
 15 16  2  0
 16 17  1  0
 17 18  2  0
 17 19  1  0
 19 20  1  0
 20 21  1  0
 21 22  1  0
 16 23  1  0
 23 24  2  0
 12 25  1  0
 25 26  2  0
 26 27  1  0
 27 28  2  0
 28 29  1  0
 29 30  2  0
  7  2  1  0
 30  9  1  0
 24 13  1  0
 30 25  1  0
  1 31  1  0
  1 32  1  0
  1 33  1  0
  3 34  1  0
  4 35  1  0
  5 36  1  0
  6 37  1  0
  8 38  1  0
 14 39  1  0
 15 40  1  0
 19 41  1  0
 20 42  1  0
 20 43  1  0
 21 44  1  0
 21 45  1  0
 22 46  1  0
 23 47  1  0
 24 48  1  0
 26 49  1  0
 27 50  1  0
 28 51  1  0
 29 52  1  0
M  END
$$$$
