
     RDKit          3D

 53 56  0  0  0  0  0  0  0  0999 V2000
    7.8717    1.2972   -2.3869 C   0  0  0  0  0  0  0  0  0  0  0  0
    7.1243    2.0521   -1.4443 O   0  0  0  0  0  0  0  0  0  0  0  0
    6.1097    1.4046   -0.7996 C   0  0  0  0  0  0  0  0  0  0  0  0
    5.4164    2.1844    0.1281 C   0  0  0  0  0  0  0  0  0  0  0  0
    4.3562    1.6472    0.8612 C   0  0  0  0  0  0  0  0  0  0  0  0
    3.9764    0.3120    0.6802 C   0  0  0  0  0  0  0  0  0  0  0  0
    2.8235   -0.2773    1.4512 C   0  0  0  0  0  0  0  0  0  0  0  0
    1.5634    0.0347    0.8191 N   0  0  0  0  0  0  0  0  0  0  0  0
    0.9268   -0.8349   -0.0415 C   0  0  0  0  0  0  0  0  0  0  0  0
    1.4034   -1.9355   -0.3278 O   0  0  0  0  0  0  0  0  0  0  0  0
   -0.4040   -0.3768   -0.6262 C   0  0  0  0  0  0  0  0  0  0  0  0
   -0.2550    0.9193   -1.3029 C   0  0  0  0  0  0  0  0  0  0  0  0
   -0.1531    1.9445   -1.8411 N   0  0  0  0  0  0  0  0  0  0  0  0
   -1.5176   -0.3347    0.4001 C   0  0  0  0  0  0  0  0  0  0  0  0
   -1.2035   -0.0410    1.6959 N   0  0  0  0  0  0  0  0  0  0  0  0
   -2.2163    0.0070    2.5785 C   0  0  0  0  0  0  0  0  0  0  0  0
   -1.9506    0.2699    3.9173 C   0  0  0  0  0  0  0  0  0  0  0  0
   -2.9758    0.3290    4.8620 C   0  0  0  0  0  0  0  0  0  0  0  0
   -4.2907    0.1262    4.4603 C   0  0  0  0  0  0  0  0  0  0  0  0
   -4.5654   -0.1400    3.1178 C   0  0  0  0  0  0  0  0  0  0  0  0
   -3.5508   -0.2052    2.1699 C   0  0  0  0  0  0  0  0  0  0  0  0
   -3.8581   -0.4631    0.8856 N   0  0  0  0  0  0  0  0  0  0  0  0
   -2.8453   -0.5268   -0.0077 C   0  0  0  0  0  0  0  0  0  0  0  0
   -3.1382   -0.7530   -1.3690 N   0  0  0  0  0  0  0  0  0  0  0  0
   -4.0607    0.2821   -1.8928 C   0  0  0  0  0  0  0  0  0  0  0  0
   -5.3585   -0.4479   -2.2175 C   0  0  0  0  0  0  0  0  0  0  0  0
   -4.8722   -1.8325   -2.5913 C   0  0  0  0  0  0  0  0  0  0  0  0
   -3.7766   -2.0743   -1.5594 C   0  0  0  0  0  0  0  0  0  0  0  0
    4.6640   -0.4615   -0.2636 C   0  0  0  0  0  0  0  0  0  0  0  0
    5.7265    0.0782   -0.9953 C   0  0  0  0  0  0  0  0  0  0  0  0
    8.3695    0.4495   -1.9050 H   0  0  0  0  0  0  0  0  0  0  0  0
    8.6486    1.9491   -2.7982 H   0  0  0  0  0  0  0  0  0  0  0  0
    7.2412    0.9680   -3.2201 H   0  0  0  0  0  0  0  0  0  0  0  0
    5.7022    3.2226    0.2776 H   0  0  0  0  0  0  0  0  0  0  0  0
    3.8289    2.2792    1.5704 H   0  0  0  0  0  0  0  0  0  0  0  0
    2.7974    0.1360    2.4683 H   0  0  0  0  0  0  0  0  0  0  0  0
    2.9388   -1.3632    1.5522 H   0  0  0  0  0  0  0  0  0  0  0  0
    1.0707    0.8631    1.1357 H   0  0  0  0  0  0  0  0  0  0  0  0
   -0.6450   -1.1328   -1.3857 H   0  0  0  0  0  0  0  0  0  0  0  0
   -0.9207    0.4280    4.2322 H   0  0  0  0  0  0  0  0  0  0  0  0
   -2.7462    0.5359    5.9048 H   0  0  0  0  0  0  0  0  0  0  0  0
   -5.1020    0.1750    5.1846 H   0  0  0  0  0  0  0  0  0  0  0  0
   -5.5944   -0.2983    2.8016 H   0  0  0  0  0  0  0  0  0  0  0  0
   -4.2330    1.1296   -1.2162 H   0  0  0  0  0  0  0  0  0  0  0  0
   -3.6201    0.6884   -2.8113 H   0  0  0  0  0  0  0  0  0  0  0  0
   -5.9212    0.0394   -3.0192 H   0  0  0  0  0  0  0  0  0  0  0  0
   -5.9925   -0.4991   -1.3235 H   0  0  0  0  0  0  0  0  0  0  0  0
   -5.6631   -2.5883   -2.5460 H   0  0  0  0  0  0  0  0  0  0  0  0
   -4.4543   -1.8290   -3.6051 H   0  0  0  0  0  0  0  0  0  0  0  0
   -4.2240   -2.4763   -0.6397 H   0  0  0  0  0  0  0  0  0  0  0  0
   -3.0420   -2.8024   -1.9219 H   0  0  0  0  0  0  0  0  0  0  0  0
    4.3662   -1.4943   -0.4380 H   0  0  0  0  0  0  0  0  0  0  0  0
    6.2253   -0.5637   -1.7115 H   0  0  0  0  0  0  0  0  0  0  0  0
  1  2  1  0
  2  3  1  0
  3  4  2  0
  4  5  1  0
  5  6  2  0
  6  7  1  0
  7  8  1  0
  8  9  1  0
  9 10  2  0
  9 11  1  0
 11 12  1  0
 12 13  3  0
 11 14  1  0
 14 15  2  0
 15 16  1  0
 16 17  2  0
 17 18  1  0
 18 19  2  0
 19 20  1  0
 20 21  2  0
 21 22  1  0
 22 23  2  0
 23 24  1  0
 24 25  1  0
 25 26  1  0
 26 27  1  0
 27 28  1  0
  6 29  1  0
 29 30  2  0
 30  3  1  0
 23 14  1  0
 28 24  1  0
 21 16  1  0
  1 31  1  0
  1 32  1  0
  1 33  1  0
  4 34  1  0
  5 35  1  0
  7 36  1  0
  7 37  1  0
  8 38  1  0
 11 39  1  0
 17 40  1  0
 18 41  1  0
 19 42  1  0
 20 43  1  0
 25 44  1  0
 25 45  1  0
 26 46  1  0
 26 47  1  0
 27 48  1  0
 27 49  1  0
 28 50  1  0
 28 51  1  0
 29 52  1  0
 30 53  1  0
M  END
$$$$
