
     RDKit          3D

 67 72  0  0  0  0  0  0  0  0999 V2000
    6.5754    1.6458    0.9738 C   0  0  0  0  0  0  0  0  0  0  0  0
    5.9893    0.2914    1.3877 C   0  0  0  0  0  0  0  0  0  0  0  0
    5.6894    0.2298    2.8894 C   0  0  0  0  0  0  0  0  0  0  0  0
    7.0078   -0.8075    1.0469 C   0  0  0  0  0  0  0  0  0  0  0  0
    4.8173   -0.0397    0.6000 O   0  0  0  0  0  0  0  0  0  0  0  0
    3.6980    0.7254    0.6541 C   0  0  0  0  0  0  0  0  0  0  0  0
    3.5778    1.7353    1.3360 O   0  0  0  0  0  0  0  0  0  0  0  0
    2.6959    0.2442   -0.1647 N   0  0  0  0  0  0  0  0  0  0  0  0
    2.8680   -0.9027   -1.0726 C   0  0  0  0  0  0  0  0  0  0  0  0
    1.5749   -1.7325   -1.3163 C   0  0  0  0  0  0  0  0  0  0  0  0
    0.3626   -0.9662   -1.1082 N   0  0  0  0  0  0  0  0  0  0  0  0
    0.5181    0.4911   -1.3543 C   0  0  2  0  0  0  0  0  0  0  0  0
    1.4660    1.0439   -0.2918 C   0  0  0  0  0  0  0  0  0  0  0  0
   -0.8957    0.9235   -1.3120 C   0  0  0  0  0  0  0  0  0  0  0  0
   -1.7493   -0.1892   -1.4806 C   0  0  0  0  0  0  0  0  0  0  0  0
   -3.0456    0.2558   -1.4590 C   0  0  0  0  0  0  0  0  0  0  0  0
   -4.2077   -0.3764   -1.5679 O   0  0  0  0  0  0  0  0  0  0  0  0
   -2.9845    1.6291   -1.2664 N   0  0  0  0  0  0  0  0  0  0  0  0
   -4.1440    2.5089   -1.1851 C   0  0  0  0  0  0  0  0  0  0  0  0
   -4.6324    2.6628    0.2352 C   0  0  0  0  0  0  0  0  0  0  0  0
   -5.5992    1.7905    0.7563 C   0  0  0  0  0  0  0  0  0  0  0  0
   -6.0436    1.9281    2.0724 C   0  0  0  0  0  0  0  0  0  0  0  0
   -5.5236    2.9356    2.8827 C   0  0  0  0  0  0  0  0  0  0  0  0
   -4.5563    3.8034    2.3796 C   0  0  0  0  0  0  0  0  0  0  0  0
   -4.1111    3.6669    1.0640 C   0  0  0  0  0  0  0  0  0  0  0  0
   -1.6631    2.0509   -1.2033 C   0  0  0  0  0  0  0  0  0  0  0  0
   -1.3540    3.3334   -1.0634 O   0  0  0  0  0  0  0  0  0  0  0  0
   -0.9416   -1.4292   -1.6180 C   0  0  1  0  0  0  0  0  0  0  0  0
   -0.9154   -1.9755   -3.0729 C   0  0  0  0  0  0  0  0  0  0  0  0
   -0.4330   -1.4655   -4.0734 O   0  0  0  0  0  0  0  0  0  0  0  0
   -1.5431   -3.2252   -3.0380 N   0  0  0  0  0  0  0  0  0  0  0  0
   -1.9359   -3.5582   -1.7473 C   0  0  0  0  0  0  0  0  0  0  0  0
   -2.5668   -4.7165   -1.3458 C   0  0  0  0  0  0  0  0  0  0  0  0
   -2.8677   -4.8451    0.0124 C   0  0  0  0  0  0  0  0  0  0  0  0
   -2.5315   -3.8282    0.9251 C   0  0  0  0  0  0  0  0  0  0  0  0
   -1.8903   -2.6629    0.4956 C   0  0  0  0  0  0  0  0  0  0  0  0
   -1.6008   -2.5359   -0.8535 C   0  0  0  0  0  0  0  0  0  0  0  0
    7.5494    1.8185    1.4442 H   0  0  0  0  0  0  0  0  0  0  0  0
    5.9242    2.4779    1.2572 H   0  0  0  0  0  0  0  0  0  0  0  0
    6.6989    1.7001   -0.1136 H   0  0  0  0  0  0  0  0  0  0  0  0
    5.1895   -0.7104    3.1478 H   0  0  0  0  0  0  0  0  0  0  0  0
    5.0225    1.0369    3.2075 H   0  0  0  0  0  0  0  0  0  0  0  0
    6.6067    0.3112    3.4824 H   0  0  0  0  0  0  0  0  0  0  0  0
    6.6089   -1.7983    1.2941 H   0  0  0  0  0  0  0  0  0  0  0  0
    7.2220   -0.8205   -0.0282 H   0  0  0  0  0  0  0  0  0  0  0  0
    7.9511   -0.6704    1.5858 H   0  0  0  0  0  0  0  0  0  0  0  0
    3.6610   -1.5678   -0.7169 H   0  0  0  0  0  0  0  0  0  0  0  0
    3.2067   -0.4773   -2.0256 H   0  0  0  0  0  0  0  0  0  0  0  0
    1.5693   -2.5770   -0.6173 H   0  0  0  0  0  0  0  0  0  0  0  0
    1.6370   -2.1558   -2.3248 H   0  0  0  0  0  0  0  0  0  0  0  0
    0.9189    0.6646   -2.3623 H   0  0  0  0  0  0  0  0  0  0  0  0
    1.7448    2.0770   -0.5332 H   0  0  0  0  0  0  0  0  0  0  0  0
    0.9914    1.0665    0.6981 H   0  0  0  0  0  0  0  0  0  0  0  0
   -4.0211   -1.3324   -1.5710 H   0  0  0  0  0  0  0  0  0  0  0  0
   -3.8713    3.4807   -1.6130 H   0  0  0  0  0  0  0  0  0  0  0  0
   -4.9316    2.1005   -1.8294 H   0  0  0  0  0  0  0  0  0  0  0  0
   -6.0043    0.9924    0.1371 H   0  0  0  0  0  0  0  0  0  0  0  0
   -6.7918    1.2455    2.4660 H   0  0  0  0  0  0  0  0  0  0  0  0
   -5.8673    3.0408    3.9080 H   0  0  0  0  0  0  0  0  0  0  0  0
   -4.1433    4.5842    3.0126 H   0  0  0  0  0  0  0  0  0  0  0  0
   -3.3465    4.3436    0.6873 H   0  0  0  0  0  0  0  0  0  0  0  0
   -0.3848    3.4040   -1.0191 H   0  0  0  0  0  0  0  0  0  0  0  0
   -1.6538   -3.8020   -3.8584 H   0  0  0  0  0  0  0  0  0  0  0  0
   -2.8216   -5.5028   -2.0471 H   0  0  0  0  0  0  0  0  0  0  0  0
   -3.3652   -5.7430    0.3730 H   0  0  0  0  0  0  0  0  0  0  0  0
   -2.7729   -3.9506    1.9793 H   0  0  0  0  0  0  0  0  0  0  0  0
   -1.6307   -1.8755    1.1980 H   0  0  0  0  0  0  0  0  0  0  0  0
  1  2  1  0
  2  3  1  0
  2  4  1  0
  2  5  1  0
  5  6  1  0
  6  7  2  0
  6  8  1  0
  8  9  1  0
  9 10  1  0
 10 11  1  0
 11 12  1  0
 12 13  1  0
 12 14  1  0
 14 15  1  0
 15 16  2  0
 16 17  1  0
 16 18  1  0
 18 19  1  0
 19 20  1  0
 20 21  2  0
 21 22  1  0
 22 23  2  0
 23 24  1  0
 24 25  2  0
 18 26  1  0
 26 27  1  0
 15 28  1  0
 28 29  1  0
 29 30  2  0
 29 31  1  0
 31 32  1  0
 32 33  2  0
 33 34  1  0
 34 35  2  0
 35 36  1  0
 36 37  2  0
 13  8  1  0
 26 14  2  0
 37 28  1  0
 28 11  1  1
 37 32  1  0
 25 20  1  0
  1 38  1  0
  1 39  1  0
  1 40  1  0
  3 41  1  0
  3 42  1  0
  3 43  1  0
  4 44  1  0
  4 45  1  0
  4 46  1  0
  9 47  1  0
  9 48  1  0
 10 49  1  0
 10 50  1  0
 12 51  1  6
 13 52  1  0
 13 53  1  0
 17 54  1  0
 19 55  1  0
 19 56  1  0
 21 57  1  0
 22 58  1  0
 23 59  1  0
 24 60  1  0
 25 61  1  0
 27 62  1  0
 31 63  1  0
 33 64  1  0
 34 65  1  0
 35 66  1  0
 36 67  1  0
M  END
$$$$
