
     RDKit          3D

 38 40  0  0  0  0  0  0  0  0999 V2000
   -5.4262    0.3331   -0.0147 C   0  0  0  0  0  0  0  0  0  0  0  0
   -3.9511    0.0722   -0.0859 C   0  0  0  0  0  0  0  0  0  0  0  0
   -3.4676   -1.1763   -0.4666 C   0  0  0  0  0  0  0  0  0  0  0  0
   -2.0862   -1.4301   -0.5033 C   0  0  0  0  0  0  0  0  0  0  0  0
   -1.6057   -2.7920   -0.9324 C   0  0  0  0  0  0  0  0  0  0  0  0
   -1.1601   -0.4408   -0.1482 C   0  0  0  0  0  0  0  0  0  0  0  0
    0.1565   -0.7249   -0.1955 N   0  0  0  0  0  0  0  0  0  0  0  0
    1.0594    0.2364    0.1466 C   0  0  0  0  0  0  0  0  0  0  0  0
    2.4602   -0.0756    0.0964 N   0  0  0  0  0  0  0  0  0  0  0  0
    3.4086    0.8309    0.4880 N   0  0  0  0  0  0  0  0  0  0  0  0
    4.5733    0.1892    0.3515 C   0  0  0  0  0  0  0  0  0  0  0  0
    5.8423    0.8758    0.6925 C   0  0  0  0  0  0  0  0  0  0  0  0
    4.4045   -1.1247   -0.1298 C   0  0  0  0  0  0  0  0  0  0  0  0
    3.0514   -1.2793   -0.3028 C   0  0  0  0  0  0  0  0  0  0  0  0
    2.3601   -2.3493   -0.7655 N   0  0  0  0  0  0  0  0  0  0  0  0
    0.6726    1.5054    0.5554 C   0  0  0  0  0  0  0  0  0  0  0  0
   -0.6897    1.8158    0.6138 C   0  0  0  0  0  0  0  0  0  0  0  0
   -1.0942    3.1965    1.0573 C   0  0  0  0  0  0  0  0  0  0  0  0
   -1.6398    0.8286    0.2545 C   0  0  0  0  0  0  0  0  0  0  0  0
   -3.0346    1.0597    0.2836 C   0  0  0  0  0  0  0  0  0  0  0  0
   -5.9666   -0.2713   -0.7508 H   0  0  0  0  0  0  0  0  0  0  0  0
   -5.8010    0.0916    0.9846 H   0  0  0  0  0  0  0  0  0  0  0  0
   -5.6478    1.3832   -0.2324 H   0  0  0  0  0  0  0  0  0  0  0  0
   -4.1683   -1.9632   -0.7404 H   0  0  0  0  0  0  0  0  0  0  0  0
   -2.4413   -3.4554   -1.1794 H   0  0  0  0  0  0  0  0  0  0  0  0
   -0.9761   -2.7088   -1.8243 H   0  0  0  0  0  0  0  0  0  0  0  0
   -1.0363   -3.2651   -0.1256 H   0  0  0  0  0  0  0  0  0  0  0  0
    6.7027    0.2176    0.5345 H   0  0  0  0  0  0  0  0  0  0  0  0
    5.8414    1.1853    1.7426 H   0  0  0  0  0  0  0  0  0  0  0  0
    5.9773    1.7652    0.0685 H   0  0  0  0  0  0  0  0  0  0  0  0
    5.1702   -1.8570   -0.3394 H   0  0  0  0  0  0  0  0  0  0  0  0
    1.3394   -2.3305   -0.6619 H   0  0  0  0  0  0  0  0  0  0  0  0
    2.7584   -3.2821   -0.7314 H   0  0  0  0  0  0  0  0  0  0  0  0
    1.4161    2.2507    0.8259 H   0  0  0  0  0  0  0  0  0  0  0  0
   -1.7085    3.1412    1.9617 H   0  0  0  0  0  0  0  0  0  0  0  0
   -1.6509    3.7038    0.2629 H   0  0  0  0  0  0  0  0  0  0  0  0
   -0.2225    3.8168    1.2924 H   0  0  0  0  0  0  0  0  0  0  0  0
   -3.4200    2.0274    0.5980 H   0  0  0  0  0  0  0  0  0  0  0  0
  1  2  1  0
  2  3  2  0
  3  4  1  0
  4  5  1  0
  4  6  2  0
  6  7  1  0
  7  8  2  0
  8  9  1  0
  9 10  1  0
 10 11  2  0
 11 12  1  0
 11 13  1  0
 13 14  2  0
 14 15  1  0
  8 16  1  0
 16 17  2  0
 17 18  1  0
 17 19  1  0
 19 20  2  0
 20  2  1  0
 19  6  1  0
 14  9  1  0
  1 21  1  0
  1 22  1  0
  1 23  1  0
  3 24  1  0
  5 25  1  0
  5 26  1  0
  5 27  1  0
 12 28  1  0
 12 29  1  0
 12 30  1  0
 13 31  1  0
 15 32  1  0
 15 33  1  0
 16 34  1  0
 18 35  1  0
 18 36  1  0
 18 37  1  0
 20 38  1  0
M  END
$$$$
