
     RDKit          3D

 57 60  0  0  0  0  0  0  0  0999 V2000
   -6.2129   -2.6473   -2.1031 C   0  0  0  0  0  0  0  0  0  0  0  0
   -6.0935   -1.4092   -1.2975 C   0  0  0  0  0  0  0  0  0  0  0  0
   -7.1407   -0.9739   -0.5892 N   0  0  0  0  0  0  0  0  0  0  0  0
   -6.7154    0.1783    0.0411 O   0  0  0  0  0  0  0  0  0  0  0  0
   -5.4221    0.4289   -0.2912 C   0  0  0  0  0  0  0  0  0  0  0  0
   -4.8209    1.6340    0.3131 C   0  0  0  0  0  0  0  0  0  0  0  0
   -4.9637   -0.5590   -1.1387 C   0  0  0  0  0  0  0  0  0  0  0  0
   -3.6203   -0.7035   -1.7613 C   0  0  0  0  0  0  0  0  0  0  0  0
   -2.5347   -0.2627   -0.9380 O   0  0  0  0  0  0  0  0  0  0  0  0
   -2.1810   -1.0040    0.1562 C   0  0  0  0  0  0  0  0  0  0  0  0
   -2.5806   -2.3203    0.3995 C   0  0  0  0  0  0  0  0  0  0  0  0
   -2.1497   -2.9909    1.5514 C   0  0  0  0  0  0  0  0  0  0  0  0
   -1.3169   -2.3568    2.4726 C   0  0  0  0  0  0  0  0  0  0  0  0
   -0.9070   -1.0469    2.2436 C   0  0  0  0  0  0  0  0  0  0  0  0
   -1.3305   -0.3845    1.0852 C   0  0  0  0  0  0  0  0  0  0  0  0
   -0.8917    1.0117    0.8941 C   0  0  0  0  0  0  0  0  0  0  0  0
   -1.5724    1.9037    1.3929 O   0  0  0  0  0  0  0  0  0  0  0  0
    0.2906    1.2304    0.2002 N   0  0  0  0  0  0  0  0  0  0  0  0
    1.1069    0.1681   -0.4061 C   0  0  0  0  0  0  0  0  0  0  0  0
    2.1877    0.7203   -1.3498 C   0  0  0  0  0  0  0  0  0  0  0  0
    3.0387    1.7152   -0.6701 N   0  0  0  0  0  0  0  0  0  0  0  0
    4.3302    1.3963   -0.2443 C   0  0  0  0  0  0  0  0  0  0  0  0
    5.2416    2.4218    0.0604 C   0  0  0  0  0  0  0  0  0  0  0  0
    6.5470    2.1538    0.4831 C   0  0  0  0  0  0  0  0  0  0  0  0
    6.9784    0.8392    0.6142 C   0  0  0  0  0  0  0  0  0  0  0  0
    6.1038   -0.2133    0.3255 C   0  0  0  0  0  0  0  0  0  0  0  0
    6.5537   -1.6470    0.4426 C   0  0  0  0  0  0  0  0  0  0  0  0
    7.6185   -1.8150    1.2760 F   0  0  0  0  0  0  0  0  0  0  0  0
    6.9304   -2.1722   -0.7560 F   0  0  0  0  0  0  0  0  0  0  0  0
    5.5779   -2.4714    0.9196 F   0  0  0  0  0  0  0  0  0  0  0  0
    4.7948    0.0801   -0.1092 C   0  0  0  0  0  0  0  0  0  0  0  0
    2.3167    2.6883    0.1940 C   0  0  0  0  0  0  0  0  0  0  0  0
    0.7861    2.6007    0.0403 C   0  0  0  0  0  0  0  0  0  0  0  0
   -5.7576   -2.5130   -3.0896 H   0  0  0  0  0  0  0  0  0  0  0  0
   -7.2599   -2.9297   -2.2548 H   0  0  0  0  0  0  0  0  0  0  0  0
   -5.7057   -3.4759   -1.5984 H   0  0  0  0  0  0  0  0  0  0  0  0
   -4.3915    1.3930    1.2897 H   0  0  0  0  0  0  0  0  0  0  0  0
   -5.5729    2.4168    0.4537 H   0  0  0  0  0  0  0  0  0  0  0  0
   -4.0313    2.0423   -0.3248 H   0  0  0  0  0  0  0  0  0  0  0  0
   -3.5992   -0.0652   -2.6532 H   0  0  0  0  0  0  0  0  0  0  0  0
   -3.4333   -1.7192   -2.1280 H   0  0  0  0  0  0  0  0  0  0  0  0
   -3.2302   -2.8611   -0.2796 H   0  0  0  0  0  0  0  0  0  0  0  0
   -2.4755   -4.0129    1.7340 H   0  0  0  0  0  0  0  0  0  0  0  0
   -0.9976   -2.8797    3.3709 H   0  0  0  0  0  0  0  0  0  0  0  0
   -0.2713   -0.5379    2.9638 H   0  0  0  0  0  0  0  0  0  0  0  0
    0.4554   -0.5172   -0.9565 H   0  0  0  0  0  0  0  0  0  0  0  0
    1.5705   -0.3903    0.4152 H   0  0  0  0  0  0  0  0  0  0  0  0
    2.7614   -0.0931   -1.8060 H   0  0  0  0  0  0  0  0  0  0  0  0
    1.6970    1.2277   -2.1909 H   0  0  0  0  0  0  0  0  0  0  0  0
    4.9475    3.4620   -0.0583 H   0  0  0  0  0  0  0  0  0  0  0  0
    7.2243    2.9761    0.7008 H   0  0  0  0  0  0  0  0  0  0  0  0
    7.9975    0.6386    0.9402 H   0  0  0  0  0  0  0  0  0  0  0  0
    4.1356   -0.7601   -0.3115 H   0  0  0  0  0  0  0  0  0  0  0  0
    2.5583    2.4948    1.2480 H   0  0  0  0  0  0  0  0  0  0  0  0
    2.6370    3.7077   -0.0490 H   0  0  0  0  0  0  0  0  0  0  0  0
    0.3053    3.2724    0.7591 H   0  0  0  0  0  0  0  0  0  0  0  0
    0.4873    2.9308   -0.9621 H   0  0  0  0  0  0  0  0  0  0  0  0
  1  2  1  0
  2  3  2  0
  3  4  1  0
  4  5  1  0
  5  6  1  0
  5  7  2  0
  7  8  1  0
  8  9  1  0
  9 10  1  0
 10 11  2  0
 11 12  1  0
 12 13  2  0
 13 14  1  0
 14 15  2  0
 15 16  1  0
 16 17  2  0
 16 18  1  0
 18 19  1  0
 19 20  1  0
 20 21  1  0
 21 22  1  0
 22 23  2  0
 23 24  1  0
 24 25  2  0
 25 26  1  0
 26 27  1  0
 27 28  1  0
 27 29  1  0
 27 30  1  0
 26 31  2  0
 21 32  1  0
 32 33  1  0
  7  2  1  0
 15 10  1  0
 33 18  1  0
 31 22  1  0
  1 34  1  0
  1 35  1  0
  1 36  1  0
  6 37  1  0
  6 38  1  0
  6 39  1  0
  8 40  1  0
  8 41  1  0
 11 42  1  0
 12 43  1  0
 13 44  1  0
 14 45  1  0
 19 46  1  0
 19 47  1  0
 20 48  1  0
 20 49  1  0
 23 50  1  0
 24 51  1  0
 25 52  1  0
 31 53  1  0
 32 54  1  0
 32 55  1  0
 33 56  1  0
 33 57  1  0
M  END
$$$$
