
     RDKit          3D

 44 46  0  0  0  0  0  0  0  0999 V2000
    7.5273   -0.6415    0.9627 C   0  0  0  0  0  0  0  0  0  0  0  0
    6.7132    0.6311    1.0867 C   0  0  0  0  0  0  0  0  0  0  0  0
    5.4891    0.5019    0.3495 O   0  0  0  0  0  0  0  0  0  0  0  0
    4.4461   -0.0339    1.0306 C   0  0  0  0  0  0  0  0  0  0  0  0
    4.4619   -0.4016    2.1932 O   0  0  0  0  0  0  0  0  0  0  0  0
    3.2437   -0.1178    0.1581 C   0  0  0  0  0  0  0  0  0  0  0  0
    2.0565   -0.6054    0.7121 C   0  0  0  0  0  0  0  0  0  0  0  0
    0.8993   -0.7005   -0.0683 C   0  0  0  0  0  0  0  0  0  0  0  0
    0.8913   -0.2914   -1.4076 C   0  0  0  0  0  0  0  0  0  0  0  0
   -0.2439   -0.4173   -2.2392 N   0  0  0  0  0  0  0  0  0  0  0  0
   -1.6101   -0.3716   -1.8680 C   0  0  0  0  0  0  0  0  0  0  0  0
   -2.5436   -0.7525   -2.8146 C   0  0  0  0  0  0  0  0  0  0  0  0
   -3.8713   -0.7271   -2.4416 C   0  0  0  0  0  0  0  0  0  0  0  0
   -4.9413   -1.1155   -3.4151 C   0  0  0  0  0  0  0  0  0  0  0  0
   -4.2625   -0.3446   -1.2141 N   0  0  0  0  0  0  0  0  0  0  0  0
   -3.2952    0.0129   -0.3478 C   0  0  0  0  0  0  0  0  0  0  0  0
   -3.6983    0.4249    1.0130 C   0  0  0  0  0  0  0  0  0  0  0  0
   -2.7621    0.9324    1.9360 C   0  0  0  0  0  0  0  0  0  0  0  0
   -3.1403    1.3161    3.2269 C   0  0  0  0  0  0  0  0  0  0  0  0
   -4.4683    1.2009    3.6275 C   0  0  0  0  0  0  0  0  0  0  0  0
   -5.4171    0.7054    2.7382 C   0  0  0  0  0  0  0  0  0  0  0  0
   -5.0348    0.3237    1.4479 C   0  0  0  0  0  0  0  0  0  0  0  0
   -1.9816    0.0091   -0.6371 N   0  0  0  0  0  0  0  0  0  0  0  0
    2.0979    0.1601   -1.9636 C   0  0  0  0  0  0  0  0  0  0  0  0
    3.2607    0.2578   -1.1904 C   0  0  0  0  0  0  0  0  0  0  0  0
    8.4892   -0.5383    1.4732 H   0  0  0  0  0  0  0  0  0  0  0  0
    6.9916   -1.4946    1.3925 H   0  0  0  0  0  0  0  0  0  0  0  0
    7.7099   -0.8779   -0.0897 H   0  0  0  0  0  0  0  0  0  0  0  0
    6.5253    0.8869    2.1354 H   0  0  0  0  0  0  0  0  0  0  0  0
    7.2658    1.4663    0.6455 H   0  0  0  0  0  0  0  0  0  0  0  0
    2.0216   -0.9232    1.7518 H   0  0  0  0  0  0  0  0  0  0  0  0
    0.0012   -1.1090    0.3886 H   0  0  0  0  0  0  0  0  0  0  0  0
   -0.1180    0.0567   -3.1269 H   0  0  0  0  0  0  0  0  0  0  0  0
   -2.2451   -1.0755   -3.8024 H   0  0  0  0  0  0  0  0  0  0  0  0
   -5.9211   -1.1395   -2.9278 H   0  0  0  0  0  0  0  0  0  0  0  0
   -4.7458   -2.1122   -3.8260 H   0  0  0  0  0  0  0  0  0  0  0  0
   -4.9834   -0.3902   -4.2348 H   0  0  0  0  0  0  0  0  0  0  0  0
   -1.7163    1.0344    1.6481 H   0  0  0  0  0  0  0  0  0  0  0  0
   -2.3932    1.7006    3.9157 H   0  0  0  0  0  0  0  0  0  0  0  0
   -4.7638    1.4965    4.6303 H   0  0  0  0  0  0  0  0  0  0  0  0
   -6.4555    0.6100    3.0452 H   0  0  0  0  0  0  0  0  0  0  0  0
   -5.7968   -0.0644    0.7736 H   0  0  0  0  0  0  0  0  0  0  0  0
    2.1467    0.4515   -3.0101 H   0  0  0  0  0  0  0  0  0  0  0  0
    4.1709    0.6255   -1.6570 H   0  0  0  0  0  0  0  0  0  0  0  0
  1  2  1  0
  2  3  1  0
  3  4  1  0
  4  5  2  0
  4  6  1  0
  6  7  2  0
  7  8  1  0
  8  9  2  0
  9 10  1  0
 10 11  1  0
 11 12  2  0
 12 13  1  0
 13 14  1  0
 13 15  2  0
 15 16  1  0
 16 17  1  0
 17 18  2  0
 18 19  1  0
 19 20  2  0
 20 21  1  0
 21 22  2  0
 16 23  2  0
  9 24  1  0
 24 25  2  0
 25  6  1  0
 23 11  1  0
 22 17  1  0
  1 26  1  0
  1 27  1  0
  1 28  1  0
  2 29  1  0
  2 30  1  0
  7 31  1  0
  8 32  1  0
 10 33  1  0
 12 34  1  0
 14 35  1  0
 14 36  1  0
 14 37  1  0
 18 38  1  0
 19 39  1  0
 20 40  1  0
 21 41  1  0
 22 42  1  0
 24 43  1  0
 25 44  1  0
M  END
$$$$
