
     RDKit          3D

 42 44  0  0  0  0  0  0  0  0999 V2000
    1.6476    4.3295    1.0457 C   0  0  0  0  0  0  0  0  0  0  0  0
   -0.0216    3.7229    1.4033 S   0  0  0  0  0  0  0  0  0  0  0  0
    0.0851    2.0579    0.7471 C   0  0  0  0  0  0  0  0  0  0  0  0
    1.3254    1.5342    0.6765 N   0  0  0  0  0  0  0  0  0  0  0  0
    1.4327    0.2603    0.2673 C   0  0  0  0  0  0  0  0  0  0  0  0
    2.7840   -0.3298    0.1848 C   0  0  0  0  0  0  0  0  0  0  0  0
    3.9274    0.3884    0.5870 C   0  0  0  0  0  0  0  0  0  0  0  0
    5.2080   -0.1692    0.5093 C   0  0  0  0  0  0  0  0  0  0  0  0
    5.3763   -1.4627    0.0253 C   0  0  0  0  0  0  0  0  0  0  0  0
    4.2669   -2.1977   -0.3802 C   0  0  0  0  0  0  0  0  0  0  0  0
    2.9879   -1.6367   -0.3006 C   0  0  0  0  0  0  0  0  0  0  0  0
    0.3853   -0.5158   -0.0655 N   0  0  0  0  0  0  0  0  0  0  0  0
   -0.8509    0.0157   -0.0078 C   0  0  0  0  0  0  0  0  0  0  0  0
   -1.9526   -0.7965   -0.3640 N   0  0  0  0  0  0  0  0  0  0  0  0
   -1.6757   -2.2478   -0.2310 C   0  0  0  0  0  0  0  0  0  0  0  0
   -2.9447   -3.0383   -0.5879 C   0  0  0  0  0  0  0  0  0  0  0  0
   -3.3814   -2.7440   -1.9256 O   0  0  0  0  0  0  0  0  0  0  0  0
   -3.6568   -1.3398   -2.0651 C   0  0  0  0  0  0  0  0  0  0  0  0
   -2.4178   -0.4869   -1.7428 C   0  0  0  0  0  0  0  0  0  0  0  0
   -1.0395    1.3267    0.4121 C   0  0  0  0  0  0  0  0  0  0  0  0
   -2.3909    1.8820    0.5420 C   0  0  0  0  0  0  0  0  0  0  0  0
   -3.2309    1.3958    1.6913 C   0  0  0  0  0  0  0  0  0  0  0  0
   -2.7967    2.6916   -0.2868 O   0  0  0  0  0  0  0  0  0  0  0  0
    1.7045    5.3884    1.3123 H   0  0  0  0  0  0  0  0  0  0  0  0
    2.3930    3.7890    1.6355 H   0  0  0  0  0  0  0  0  0  0  0  0
    1.8763    4.2301   -0.0191 H   0  0  0  0  0  0  0  0  0  0  0  0
    3.8272    1.4024    0.9712 H   0  0  0  0  0  0  0  0  0  0  0  0
    6.0712    0.4097    0.8276 H   0  0  0  0  0  0  0  0  0  0  0  0
    6.3706   -1.8971   -0.0362 H   0  0  0  0  0  0  0  0  0  0  0  0
    4.3924   -3.2084   -0.7603 H   0  0  0  0  0  0  0  0  0  0  0  0
    2.1388   -2.2352   -0.6275 H   0  0  0  0  0  0  0  0  0  0  0  0
   -0.8712   -2.5514   -0.9139 H   0  0  0  0  0  0  0  0  0  0  0  0
   -1.3809   -2.4873    0.7975 H   0  0  0  0  0  0  0  0  0  0  0  0
   -3.7602   -2.8144    0.1101 H   0  0  0  0  0  0  0  0  0  0  0  0
   -2.7417   -4.1125   -0.5347 H   0  0  0  0  0  0  0  0  0  0  0  0
   -3.9696   -1.1653   -3.0993 H   0  0  0  0  0  0  0  0  0  0  0  0
   -4.4963   -1.0765   -1.4106 H   0  0  0  0  0  0  0  0  0  0  0  0
   -1.6205   -0.7209   -2.4609 H   0  0  0  0  0  0  0  0  0  0  0  0
   -2.6811    0.5690   -1.8564 H   0  0  0  0  0  0  0  0  0  0  0  0
   -3.6053    2.2583    2.2493 H   0  0  0  0  0  0  0  0  0  0  0  0
   -4.0674    0.8082    1.3045 H   0  0  0  0  0  0  0  0  0  0  0  0
   -2.6471    0.7742    2.3762 H   0  0  0  0  0  0  0  0  0  0  0  0
  1  2  1  0
  2  3  1  0
  3  4  2  0
  4  5  1  0
  5  6  1  0
  6  7  2  0
  7  8  1  0
  8  9  2  0
  9 10  1  0
 10 11  2  0
  5 12  2  0
 12 13  1  0
 13 14  1  0
 14 15  1  0
 15 16  1  0
 16 17  1  0
 17 18  1  0
 18 19  1  0
 13 20  2  0
 20 21  1  0
 21 22  1  0
 21 23  2  0
 20  3  1  0
 11  6  1  0
 19 14  1  0
  1 24  1  0
  1 25  1  0
  1 26  1  0
  7 27  1  0
  8 28  1  0
  9 29  1  0
 10 30  1  0
 11 31  1  0
 15 32  1  0
 15 33  1  0
 16 34  1  0
 16 35  1  0
 18 36  1  0
 18 37  1  0
 19 38  1  0
 19 39  1  0
 22 40  1  0
 22 41  1  0
 22 42  1  0
M  END
$$$$
