
     RDKit          3D

 47 50  0  0  0  0  0  0  0  0999 V2000
   -1.0540    5.3220   -4.5398 C   0  0  0  0  0  0  0  0  0  0  0  0
   -0.4719    4.8909   -3.2245 C   0  0  0  0  0  0  0  0  0  0  0  0
   -0.6125    5.7027   -2.0940 C   0  0  0  0  0  0  0  0  0  0  0  0
   -0.1074    5.3163   -0.8479 C   0  0  0  0  0  0  0  0  0  0  0  0
    0.5374    4.0785   -0.7645 C   0  0  0  0  0  0  0  0  0  0  0  0
    1.1210    3.4544    0.3189 N   0  0  0  0  0  0  0  0  0  0  0  0
    1.6251    2.2464   -0.0677 C   0  0  0  0  0  0  0  0  0  0  0  0
    2.3090    1.2753    0.7327 C   0  0  0  0  0  0  0  0  0  0  0  0
    2.5146    1.4301    1.9313 O   0  0  0  0  0  0  0  0  0  0  0  0
    2.7020    0.1419   -0.0053 N   0  0  0  0  0  0  0  0  0  0  0  0
    3.4054   -0.9367    0.6854 C   0  0  0  0  0  0  0  0  0  0  0  0
    2.4411   -1.9760    1.2574 C   0  0  0  0  0  0  0  0  0  0  0  0
    2.7686   -2.7487    2.1558 O   0  0  0  0  0  0  0  0  0  0  0  0
    1.2283   -2.0628    0.6079 N   0  0  0  0  0  0  0  0  0  0  0  0
    0.2131   -3.0278    0.9722 C   0  0  0  0  0  0  0  0  0  0  0  0
   -0.5536   -2.6106    2.2291 C   0  0  0  0  0  0  0  0  0  0  0  0
   -1.6328   -3.6049    2.5809 C   0  0  0  0  0  0  0  0  0  0  0  0
   -1.3212   -4.7452    3.3353 C   0  0  0  0  0  0  0  0  0  0  0  0
   -2.3117   -5.6783    3.6484 C   0  0  0  0  0  0  0  0  0  0  0  0
   -3.6167   -5.4763    3.2055 C   0  0  0  0  0  0  0  0  0  0  0  0
   -4.8381   -6.6261    3.5895 Cl  0  0  0  0  0  0  0  0  0  0  0  0
   -3.9397   -4.3500    2.4514 C   0  0  0  0  0  0  0  0  0  0  0  0
   -2.9492   -3.4165    2.1378 C   0  0  0  0  0  0  0  0  0  0  0  0
    2.4235   -0.0585   -1.3737 N   0  0  0  0  0  0  0  0  0  0  0  0
    1.8061    0.8719   -2.0468 C   0  0  0  0  0  0  0  0  0  0  0  0
    1.3731    2.0807   -1.4062 C   0  0  0  0  0  0  0  0  0  0  0  0
    0.6858    3.2313   -1.8687 C   0  0  0  0  0  0  0  0  0  0  0  0
    0.1670    3.6440   -3.1129 C   0  0  0  0  0  0  0  0  0  0  0  0
   -0.4758    4.9138   -5.3755 H   0  0  0  0  0  0  0  0  0  0  0  0
   -2.0887    4.9752   -4.6221 H   0  0  0  0  0  0  0  0  0  0  0  0
   -1.0367    6.4128   -4.6360 H   0  0  0  0  0  0  0  0  0  0  0  0
   -1.1236    6.6608   -2.1745 H   0  0  0  0  0  0  0  0  0  0  0  0
   -0.2191    5.9597    0.0193 H   0  0  0  0  0  0  0  0  0  0  0  0
    1.1707    3.8284    1.2584 H   0  0  0  0  0  0  0  0  0  0  0  0
    3.9932   -0.5217    1.5105 H   0  0  0  0  0  0  0  0  0  0  0  0
    4.0795   -1.4321   -0.0208 H   0  0  0  0  0  0  0  0  0  0  0  0
    1.0945   -1.4558   -0.1970 H   0  0  0  0  0  0  0  0  0  0  0  0
    0.6962   -4.0010    1.1187 H   0  0  0  0  0  0  0  0  0  0  0  0
   -0.4654   -3.1178    0.1165 H   0  0  0  0  0  0  0  0  0  0  0  0
   -0.9982   -1.6175    2.0833 H   0  0  0  0  0  0  0  0  0  0  0  0
    0.1298   -2.5015    3.0807 H   0  0  0  0  0  0  0  0  0  0  0  0
   -0.3029   -4.9107    3.6840 H   0  0  0  0  0  0  0  0  0  0  0  0
   -2.0579   -6.5564    4.2358 H   0  0  0  0  0  0  0  0  0  0  0  0
   -4.9578   -4.1929    2.1060 H   0  0  0  0  0  0  0  0  0  0  0  0
   -3.2125   -2.5409    1.5484 H   0  0  0  0  0  0  0  0  0  0  0  0
    1.5994    0.7281   -3.1190 H   0  0  0  0  0  0  0  0  0  0  0  0
    0.2633    3.0015   -3.9839 H   0  0  0  0  0  0  0  0  0  0  0  0
  1  2  1  0
  2  3  2  0
  3  4  1  0
  4  5  2  0
  5  6  1  0
  6  7  1  0
  7  8  1  0
  8  9  2  0
  8 10  1  0
 10 11  1  0
 11 12  1  0
 12 13  2  0
 12 14  1  0
 14 15  1  0
 15 16  1  0
 16 17  1  0
 17 18  2  0
 18 19  1  0
 19 20  2  0
 20 21  1  0
 20 22  1  0
 22 23  2  0
 10 24  1  0
 24 25  2  0
 25 26  1  0
 26 27  1  0
 27 28  2  0
 28  2  1  0
 27  5  1  0
 26  7  2  0
 23 17  1  0
  1 29  1  0
  1 30  1  0
  1 31  1  0
  3 32  1  0
  4 33  1  0
  6 34  1  0
 11 35  1  0
 11 36  1  0
 14 37  1  0
 15 38  1  0
 15 39  1  0
 16 40  1  0
 16 41  1  0
 18 42  1  0
 19 43  1  0
 22 44  1  0
 23 45  1  0
 25 46  1  0
 28 47  1  0
M  END
$$$$
