
     RDKit          3D

 43 45  0  0  0  0  0  0  0  0999 V2000
   -7.2786   -1.6390   -0.5104 C   0  0  0  0  0  0  0  0  0  0  0  0
   -6.8850   -0.7941    0.4519 C   0  0  0  0  0  0  0  0  0  0  0  0
   -6.2600    0.5504    0.1993 C   0  0  0  0  0  0  0  0  0  0  0  0
   -4.8388    0.4725    0.4954 N   0  0  0  0  0  0  0  0  0  0  0  0
   -4.4369    0.6834    1.8057 C   0  0  0  0  0  0  0  0  0  0  0  0
   -5.2038    0.9467    2.7298 O   0  0  0  0  0  0  0  0  0  0  0  0
   -3.1024    0.5872    2.0544 N   0  0  0  0  0  0  0  0  0  0  0  0
   -2.1574    0.2904    1.0902 C   0  0  0  0  0  0  0  0  0  0  0  0
   -0.8705    0.2196    1.4860 N   0  0  0  0  0  0  0  0  0  0  0  0
    0.0382   -0.0713    0.5290 C   0  0  0  0  0  0  0  0  0  0  0  0
    1.3808   -0.1609    0.8637 C   0  0  0  0  0  0  0  0  0  0  0  0
    2.3599   -0.4472   -0.0930 C   0  0  0  0  0  0  0  0  0  0  0  0
    3.7013   -0.5425    0.3041 N   0  0  0  0  0  0  0  0  0  0  0  0
    4.3696    0.5642    0.3251 C   0  0  0  0  0  0  0  0  0  0  0  0
    5.6910    0.7066    0.6829 N   0  0  0  0  0  0  0  0  0  0  0  0
    6.5107   -0.4842    0.8639 C   0  0  0  0  0  0  0  0  0  0  0  0
    6.4055    1.9315    0.3626 C   0  0  0  0  0  0  0  0  0  0  0  0
    1.9782   -0.6816   -1.4200 C   0  0  0  0  0  0  0  0  0  0  0  0
    2.9987   -1.0206   -2.4690 C   0  0  0  0  0  0  0  0  0  0  0  0
    0.6218   -0.5852   -1.7636 C   0  0  0  0  0  0  0  0  0  0  0  0
   -0.3497   -0.2850   -0.8190 C   0  0  0  0  0  0  0  0  0  0  0  0
   -1.6371   -0.2048   -1.2004 N   0  0  0  0  0  0  0  0  0  0  0  0
   -2.5314    0.0833   -0.2215 C   0  0  0  0  0  0  0  0  0  0  0  0
   -3.9668    0.1915   -0.5630 C   0  0  0  0  0  0  0  0  0  0  0  0
   -4.3336    0.0477   -1.7277 O   0  0  0  0  0  0  0  0  0  0  0  0
   -7.1425   -1.4042   -1.5630 H   0  0  0  0  0  0  0  0  0  0  0  0
   -7.7328   -2.5936   -0.2638 H   0  0  0  0  0  0  0  0  0  0  0  0
   -7.0371   -1.0694    1.4938 H   0  0  0  0  0  0  0  0  0  0  0  0
   -6.7415    1.2978    0.8400 H   0  0  0  0  0  0  0  0  0  0  0  0
   -6.4167    0.8693   -0.8375 H   0  0  0  0  0  0  0  0  0  0  0  0
   -2.7820    0.7292    3.0021 H   0  0  0  0  0  0  0  0  0  0  0  0
    1.6813   -0.0083    1.8973 H   0  0  0  0  0  0  0  0  0  0  0  0
    3.9022    1.5269    0.0406 H   0  0  0  0  0  0  0  0  0  0  0  0
    7.4555   -0.2414    1.3618 H   0  0  0  0  0  0  0  0  0  0  0  0
    5.9988   -1.2229    1.4900 H   0  0  0  0  0  0  0  0  0  0  0  0
    6.7389   -0.9407   -0.1048 H   0  0  0  0  0  0  0  0  0  0  0  0
    5.7817    2.8108    0.5558 H   0  0  0  0  0  0  0  0  0  0  0  0
    6.6975    1.9368   -0.6925 H   0  0  0  0  0  0  0  0  0  0  0  0
    7.3079    2.0334    0.9746 H   0  0  0  0  0  0  0  0  0  0  0  0
    3.6574   -0.1646   -2.6467 H   0  0  0  0  0  0  0  0  0  0  0  0
    3.5977   -1.8823   -2.1568 H   0  0  0  0  0  0  0  0  0  0  0  0
    2.5232   -1.2812   -3.4205 H   0  0  0  0  0  0  0  0  0  0  0  0
    0.3069   -0.7543   -2.7919 H   0  0  0  0  0  0  0  0  0  0  0  0
  1  2  2  0
  2  3  1  0
  3  4  1  0
  4  5  1  0
  5  6  2  0
  5  7  1  0
  7  8  1  0
  8  9  2  0
  9 10  1  0
 10 11  2  0
 11 12  1  0
 12 13  1  0
 13 14  2  3
 14 15  1  0
 15 16  1  0
 15 17  1  0
 12 18  2  0
 18 19  1  0
 18 20  1  0
 20 21  2  0
 21 22  1  0
 22 23  2  0
 23 24  1  0
 24 25  2  0
 24  4  1  0
 23  8  1  0
 21 10  1  0
  1 26  1  0
  1 27  1  0
  2 28  1  0
  3 29  1  0
  3 30  1  0
  7 31  1  0
 11 32  1  0
 14 33  1  0
 16 34  1  0
 16 35  1  0
 16 36  1  0
 17 37  1  0
 17 38  1  0
 17 39  1  0
 19 40  1  0
 19 41  1  0
 19 42  1  0
 20 43  1  0
M  END
$$$$
