
     RDKit          3D

 46 49  0  0  0  0  0  0  0  0999 V2000
   -1.7828    0.4637   -2.0601 O   0  0  0  0  0  0  0  0  0  0  0  0
   -1.3962   -0.2405   -1.1308 C   0  0  0  0  0  0  0  0  0  0  0  0
   -0.0070   -0.2004   -0.7083 C   0  0  0  0  0  0  0  0  0  0  0  0
    0.8190   -1.2957   -0.5338 C   0  0  0  0  0  0  0  0  0  0  0  0
    2.0636   -0.8221   -0.2040 N   0  0  0  0  0  0  0  0  0  0  0  0
    3.2396   -1.5734    0.0798 C   0  0  0  0  0  0  0  0  0  0  0  0
    3.2379   -2.9749    0.0364 C   0  0  0  0  0  0  0  0  0  0  0  0
    4.4081   -3.6854    0.3215 C   0  0  0  0  0  0  0  0  0  0  0  0
    5.5806   -3.0070    0.6502 C   0  0  0  0  0  0  0  0  0  0  0  0
    5.5896   -1.6148    0.6951 C   0  0  0  0  0  0  0  0  0  0  0  0
    4.4251   -0.8981    0.4113 C   0  0  0  0  0  0  0  0  0  0  0  0
    2.0794    0.5295   -0.1649 N   0  0  0  0  0  0  0  0  0  0  0  0
    0.8373    0.9247   -0.4889 C   0  0  0  0  0  0  0  0  0  0  0  0
    0.5215    2.3568   -0.5521 C   0  0  0  0  0  0  0  0  0  0  0  0
    1.4998    3.2676   -0.9893 C   0  0  0  0  0  0  0  0  0  0  0  0
    1.2268    4.6364   -1.0492 C   0  0  0  0  0  0  0  0  0  0  0  0
   -0.0248    5.0998   -0.6672 C   0  0  0  0  0  0  0  0  0  0  0  0
   -0.2890    6.4118   -0.7220 F   0  0  0  0  0  0  0  0  0  0  0  0
   -1.0058    4.2218   -0.2236 C   0  0  0  0  0  0  0  0  0  0  0  0
   -0.7327    2.8518   -0.1623 C   0  0  0  0  0  0  0  0  0  0  0  0
   -2.2535   -1.1232   -0.4603 N   0  0  0  0  0  0  0  0  0  0  0  0
   -2.0813   -1.5031    0.9440 C   0  0  0  0  0  0  0  0  0  0  0  0
   -2.9508   -0.6169    1.8389 C   0  0  0  0  0  0  0  0  0  0  0  0
   -4.4131   -0.6333    1.3873 C   0  0  0  0  0  0  0  0  0  0  0  0
   -4.5410   -0.3116   -0.1035 C   0  0  0  0  0  0  0  0  0  0  0  0
   -3.6318   -1.2166   -0.9329 C   0  0  0  0  0  0  0  0  0  0  0  0
    0.6076   -2.3482   -0.6407 H   0  0  0  0  0  0  0  0  0  0  0  0
    2.3509   -3.5464   -0.2168 H   0  0  0  0  0  0  0  0  0  0  0  0
    4.4056   -4.7722    0.2856 H   0  0  0  0  0  0  0  0  0  0  0  0
    6.4883   -3.5632    0.8703 H   0  0  0  0  0  0  0  0  0  0  0  0
    6.5030   -1.0835    0.9504 H   0  0  0  0  0  0  0  0  0  0  0  0
    4.4576    0.1894    0.4532 H   0  0  0  0  0  0  0  0  0  0  0  0
    2.4832    2.9093   -1.2886 H   0  0  0  0  0  0  0  0  0  0  0  0
    1.9817    5.3370   -1.3900 H   0  0  0  0  0  0  0  0  0  0  0  0
   -1.9768    4.6062    0.0713 H   0  0  0  0  0  0  0  0  0  0  0  0
   -1.5121    2.1866    0.1968 H   0  0  0  0  0  0  0  0  0  0  0  0
   -2.3779   -2.5539    1.0417 H   0  0  0  0  0  0  0  0  0  0  0  0
   -1.0444   -1.4213    1.2725 H   0  0  0  0  0  0  0  0  0  0  0  0
   -2.8792   -0.9533    2.8790 H   0  0  0  0  0  0  0  0  0  0  0  0
   -2.5778    0.4142    1.8048 H   0  0  0  0  0  0  0  0  0  0  0  0
   -4.8410   -1.6245    1.5822 H   0  0  0  0  0  0  0  0  0  0  0  0
   -4.9922    0.0877    1.9747 H   0  0  0  0  0  0  0  0  0  0  0  0
   -5.5818   -0.4326   -0.4228 H   0  0  0  0  0  0  0  0  0  0  0  0
   -4.2682    0.7379   -0.2696 H   0  0  0  0  0  0  0  0  0  0  0  0
   -3.9450   -2.2631   -0.8374 H   0  0  0  0  0  0  0  0  0  0  0  0
   -3.7002   -0.9532   -1.9936 H   0  0  0  0  0  0  0  0  0  0  0  0
  1  2  2  0
  2  3  1  0
  3  4  2  0
  4  5  1  0
  5  6  1  0
  6  7  2  0
  7  8  1  0
  8  9  2  0
  9 10  1  0
 10 11  2  0
  5 12  1  0
 12 13  2  0
 13 14  1  0
 14 15  2  0
 15 16  1  0
 16 17  2  0
 17 18  1  0
 17 19  1  0
 19 20  2  0
  2 21  1  0
 21 22  1  0
 22 23  1  0
 23 24  1  0
 24 25  1  0
 25 26  1  0
 13  3  1  0
 20 14  1  0
 26 21  1  0
 11  6  1  0
  4 27  1  0
  7 28  1  0
  8 29  1  0
  9 30  1  0
 10 31  1  0
 11 32  1  0
 15 33  1  0
 16 34  1  0
 19 35  1  0
 20 36  1  0
 22 37  1  0
 22 38  1  0
 23 39  1  0
 23 40  1  0
 24 41  1  0
 24 42  1  0
 25 43  1  0
 25 44  1  0
 26 45  1  0
 26 46  1  0
M  END
$$$$
