
     RDKit          3D

 53 56  0  0  0  0  0  0  0  0999 V2000
    5.9348    1.6174   -1.0314 C   0  0  0  0  0  0  0  0  0  0  0  0
    4.5579    1.8693   -0.7805 O   0  0  0  0  0  0  0  0  0  0  0  0
    3.7280    1.3750   -1.8340 C   0  0  0  0  0  0  0  0  0  0  0  0
    2.2545    1.5651   -1.4763 C   0  0  0  0  0  0  0  0  0  0  0  0
    1.7240    0.4723   -0.6614 N   0  0  0  0  0  0  0  0  0  0  0  0
    1.2255   -0.7087   -1.1760 C   0  0  0  0  0  0  0  0  0  0  0  0
    1.1700   -1.0343   -2.6270 C   0  0  0  0  0  0  0  0  0  0  0  0
    0.8093   -1.4760   -0.1111 C   0  0  0  0  0  0  0  0  0  0  0  0
    0.9850   -0.7264    1.0837 C   0  0  0  0  0  0  0  0  0  0  0  0
    0.5820   -1.1938    2.4168 C   0  0  0  0  0  0  0  0  0  0  0  0
    0.7264   -2.3818    2.7159 O   0  0  0  0  0  0  0  0  0  0  0  0
   -0.0195   -0.2334    3.4298 C   0  0  0  0  0  0  0  0  0  0  0  0
   -1.4191    0.7337    2.7704 S   0  0  0  0  0  0  0  0  0  0  0  0
   -2.3918   -0.5892    2.1171 C   0  0  0  0  0  0  0  0  0  0  0  0
   -2.6534   -1.6445    2.9109 N   0  0  0  0  0  0  0  0  0  0  0  0
   -3.3303   -2.6864    2.3950 C   0  0  0  0  0  0  0  0  0  0  0  0
   -3.6024   -3.8358    3.3163 C   0  0  0  0  0  0  0  0  0  0  0  0
   -3.8084   -2.7791    1.1476 N   0  0  0  0  0  0  0  0  0  0  0  0
   -3.5285   -1.7057    0.3909 C   0  0  0  0  0  0  0  0  0  0  0  0
   -4.0251   -1.6546   -1.2565 S   0  0  0  0  0  0  0  0  0  0  0  0
   -3.3309   -0.1470   -1.4368 C   0  0  0  0  0  0  0  0  0  0  0  0
   -2.7432    0.3400   -0.3012 C   0  0  0  0  0  0  0  0  0  0  0  0
   -2.8348   -0.5650    0.7930 C   0  0  0  0  0  0  0  0  0  0  0  0
   -2.1535    1.6812   -0.5469 C   0  0  0  0  0  0  0  0  0  0  0  0
   -2.7682    2.0736   -1.9270 C   0  0  0  0  0  0  0  0  0  0  0  0
   -3.2316    0.7515   -2.6088 C   0  0  0  0  0  0  0  0  0  0  0  0
    1.5939    0.4719    0.7191 C   0  0  0  0  0  0  0  0  0  0  0  0
    2.0733    1.5971    1.5747 C   0  0  0  0  0  0  0  0  0  0  0  0
    6.1214    0.5410   -1.0978 H   0  0  0  0  0  0  0  0  0  0  0  0
    6.5154    2.0205   -0.1971 H   0  0  0  0  0  0  0  0  0  0  0  0
    6.2530    2.1141   -1.9533 H   0  0  0  0  0  0  0  0  0  0  0  0
    3.9505    1.9561   -2.7363 H   0  0  0  0  0  0  0  0  0  0  0  0
    3.9610    0.3220   -2.0285 H   0  0  0  0  0  0  0  0  0  0  0  0
    2.0816    2.5050   -0.9431 H   0  0  0  0  0  0  0  0  0  0  0  0
    1.6480    1.5983   -2.3876 H   0  0  0  0  0  0  0  0  0  0  0  0
    0.8159   -2.0590   -2.7820 H   0  0  0  0  0  0  0  0  0  0  0  0
    0.4791   -0.3617   -3.1458 H   0  0  0  0  0  0  0  0  0  0  0  0
    2.1576   -0.9513   -3.0896 H   0  0  0  0  0  0  0  0  0  0  0  0
    0.3728   -2.4659   -0.1784 H   0  0  0  0  0  0  0  0  0  0  0  0
   -0.3741   -0.8109    4.2907 H   0  0  0  0  0  0  0  0  0  0  0  0
    0.7525    0.4440    3.8010 H   0  0  0  0  0  0  0  0  0  0  0  0
   -2.7521   -3.9982    3.9859 H   0  0  0  0  0  0  0  0  0  0  0  0
   -4.4910   -3.6232    3.9176 H   0  0  0  0  0  0  0  0  0  0  0  0
   -3.7720   -4.7562    2.7497 H   0  0  0  0  0  0  0  0  0  0  0  0
   -2.4232    2.4139    0.2183 H   0  0  0  0  0  0  0  0  0  0  0  0
   -1.0647    1.6179   -0.6227 H   0  0  0  0  0  0  0  0  0  0  0  0
   -3.6436    2.7143   -1.7575 H   0  0  0  0  0  0  0  0  0  0  0  0
   -2.0652    2.6375   -2.5484 H   0  0  0  0  0  0  0  0  0  0  0  0
   -2.4699    0.3938   -3.3097 H   0  0  0  0  0  0  0  0  0  0  0  0
   -4.1805    0.8872   -3.1343 H   0  0  0  0  0  0  0  0  0  0  0  0
    1.2637    2.3123    1.7488 H   0  0  0  0  0  0  0  0  0  0  0  0
    2.4266    1.2250    2.5409 H   0  0  0  0  0  0  0  0  0  0  0  0
    2.9131    2.1364    1.1325 H   0  0  0  0  0  0  0  0  0  0  0  0
  1  2  1  0
  2  3  1  0
  3  4  1  0
  4  5  1  0
  5  6  1  0
  6  7  1  0
  6  8  2  0
  8  9  1  0
  9 10  1  0
 10 11  2  0
 10 12  1  0
 12 13  1  0
 13 14  1  0
 14 15  2  0
 15 16  1  0
 16 17  1  0
 16 18  2  0
 18 19  1  0
 19 20  1  0
 20 21  1  0
 21 22  2  0
 22 23  1  0
 22 24  1  0
 24 25  1  0
 25 26  1  0
  9 27  2  0
 27 28  1  0
 27  5  1  0
 23 14  1  0
 23 19  2  0
 26 21  1  0
  1 29  1  0
  1 30  1  0
  1 31  1  0
  3 32  1  0
  3 33  1  0
  4 34  1  0
  4 35  1  0
  7 36  1  0
  7 37  1  0
  7 38  1  0
  8 39  1  0
 12 40  1  0
 12 41  1  0
 17 42  1  0
 17 43  1  0
 17 44  1  0
 24 45  1  0
 24 46  1  0
 25 47  1  0
 25 48  1  0
 26 49  1  0
 26 50  1  0
 28 51  1  0
 28 52  1  0
 28 53  1  0
M  END
$$$$
