
     RDKit          3D

 57 60  0  0  0  0  0  0  0  0999 V2000
   -3.5368   -2.8437   -0.0116 C   0  0  0  0  0  0  0  0  0  0  0  0
   -4.5325   -1.9215    0.5876 C   0  0  0  0  0  0  0  0  0  0  0  0
   -5.8139   -2.2977    0.6808 N   0  0  0  0  0  0  0  0  0  0  0  0
   -6.4786   -1.2387    1.2619 O   0  0  0  0  0  0  0  0  0  0  0  0
   -5.6002   -0.2360    1.5180 C   0  0  0  0  0  0  0  0  0  0  0  0
   -6.1632    0.9732    2.1468 C   0  0  0  0  0  0  0  0  0  0  0  0
   -4.3386   -0.6079    1.1019 C   0  0  0  0  0  0  0  0  0  0  0  0
   -3.0816    0.1825    1.1929 C   0  0  0  0  0  0  0  0  0  0  0  0
   -2.1908    0.0053    0.0871 O   0  0  0  0  0  0  0  0  0  0  0  0
   -2.5132    0.5418   -1.1295 C   0  0  0  0  0  0  0  0  0  0  0  0
   -3.5202    1.4853   -1.3497 C   0  0  0  0  0  0  0  0  0  0  0  0
   -3.7832    1.9535   -2.6435 C   0  0  0  0  0  0  0  0  0  0  0  0
   -3.0488    1.4834   -3.7311 C   0  0  0  0  0  0  0  0  0  0  0  0
   -2.0389    0.5475   -3.5281 C   0  0  0  0  0  0  0  0  0  0  0  0
   -1.7636    0.0966   -2.2309 C   0  0  0  0  0  0  0  0  0  0  0  0
   -0.6922   -0.9086   -2.0736 C   0  0  0  0  0  0  0  0  0  0  0  0
   -0.8999   -2.0407   -2.5037 O   0  0  0  0  0  0  0  0  0  0  0  0
    0.5017   -0.5181   -1.4816 N   0  0  0  0  0  0  0  0  0  0  0  0
    1.5418   -1.5229   -1.2657 C   0  0  0  0  0  0  0  0  0  0  0  0
    2.4530   -1.1977   -0.0685 C   0  0  0  0  0  0  0  0  0  0  0  0
    3.0419    0.1528   -0.1696 N   0  0  0  0  0  0  0  0  0  0  0  0
    4.2594    0.4489    0.4222 C   0  0  0  0  0  0  0  0  0  0  0  0
    5.0692    1.5046   -0.0253 C   0  0  0  0  0  0  0  0  0  0  0  0
    6.2986    1.8053    0.5724 C   0  0  0  0  0  0  0  0  0  0  0  0
    6.7540    1.0528    1.6487 C   0  0  0  0  0  0  0  0  0  0  0  0
    5.9763    0.0002    2.1386 C   0  0  0  0  0  0  0  0  0  0  0  0
    6.4538   -0.8388    3.2958 C   0  0  0  0  0  0  0  0  0  0  0  0
    7.1264   -1.9505    2.8874 F   0  0  0  0  0  0  0  0  0  0  0  0
    5.4383   -1.2868    4.0870 F   0  0  0  0  0  0  0  0  0  0  0  0
    7.3035   -0.1733    4.1281 F   0  0  0  0  0  0  0  0  0  0  0  0
    4.7472   -0.2905    1.5136 C   0  0  0  0  0  0  0  0  0  0  0  0
    2.3465    1.1232   -1.0317 C   0  0  0  0  0  0  0  0  0  0  0  0
    0.8300    0.8542   -1.0802 C   0  0  0  0  0  0  0  0  0  0  0  0
   -3.4219   -2.6345   -1.0797 H   0  0  0  0  0  0  0  0  0  0  0  0
   -2.5606   -2.7371    0.4716 H   0  0  0  0  0  0  0  0  0  0  0  0
   -3.8471   -3.8880    0.0982 H   0  0  0  0  0  0  0  0  0  0  0  0
   -5.4586    1.4005    2.8674 H   0  0  0  0  0  0  0  0  0  0  0  0
   -6.3791    1.7303    1.3868 H   0  0  0  0  0  0  0  0  0  0  0  0
   -7.0920    0.7471    2.6799 H   0  0  0  0  0  0  0  0  0  0  0  0
   -2.5352   -0.1670    2.0777 H   0  0  0  0  0  0  0  0  0  0  0  0
   -3.2659    1.2489    1.3683 H   0  0  0  0  0  0  0  0  0  0  0  0
   -4.1317    1.8759   -0.5435 H   0  0  0  0  0  0  0  0  0  0  0  0
   -4.5778    2.6794   -2.8035 H   0  0  0  0  0  0  0  0  0  0  0  0
   -3.2704    1.8380   -4.7349 H   0  0  0  0  0  0  0  0  0  0  0  0
   -1.4724    0.1613   -4.3720 H   0  0  0  0  0  0  0  0  0  0  0  0
    1.0863   -2.5098   -1.1266 H   0  0  0  0  0  0  0  0  0  0  0  0
    2.1363   -1.5616   -2.1870 H   0  0  0  0  0  0  0  0  0  0  0  0
    1.8713   -1.2574    0.8595 H   0  0  0  0  0  0  0  0  0  0  0  0
    3.2350   -1.9655   -0.0336 H   0  0  0  0  0  0  0  0  0  0  0  0
    4.7698    2.1088   -0.8777 H   0  0  0  0  0  0  0  0  0  0  0  0
    6.8994    2.6257    0.1874 H   0  0  0  0  0  0  0  0  0  0  0  0
    7.7123    1.2920    2.1054 H   0  0  0  0  0  0  0  0  0  0  0  0
    4.1529   -1.1060    1.9222 H   0  0  0  0  0  0  0  0  0  0  0  0
    2.4845    2.1461   -0.6611 H   0  0  0  0  0  0  0  0  0  0  0  0
    2.7634    1.0654   -2.0447 H   0  0  0  0  0  0  0  0  0  0  0  0
    0.3542    1.5670   -1.7607 H   0  0  0  0  0  0  0  0  0  0  0  0
    0.4016    1.0025   -0.0820 H   0  0  0  0  0  0  0  0  0  0  0  0
  1  2  1  0
  2  3  2  0
  3  4  1  0
  4  5  1  0
  5  6  1  0
  5  7  2  0
  7  8  1  0
  8  9  1  0
  9 10  1  0
 10 11  2  0
 11 12  1  0
 12 13  2  0
 13 14  1  0
 14 15  2  0
 15 16  1  0
 16 17  2  0
 16 18  1  0
 18 19  1  0
 19 20  1  0
 20 21  1  0
 21 22  1  0
 22 23  2  0
 23 24  1  0
 24 25  2  0
 25 26  1  0
 26 27  1  0
 27 28  1  0
 27 29  1  0
 27 30  1  0
 26 31  2  0
 21 32  1  0
 32 33  1  0
  7  2  1  0
 15 10  1  0
 33 18  1  0
 31 22  1  0
  1 34  1  0
  1 35  1  0
  1 36  1  0
  6 37  1  0
  6 38  1  0
  6 39  1  0
  8 40  1  0
  8 41  1  0
 11 42  1  0
 12 43  1  0
 13 44  1  0
 14 45  1  0
 19 46  1  0
 19 47  1  0
 20 48  1  0
 20 49  1  0
 23 50  1  0
 24 51  1  0
 25 52  1  0
 31 53  1  0
 32 54  1  0
 32 55  1  0
 33 56  1  0
 33 57  1  0
M  END
$$$$
