
     RDKit          3D

 55 58  0  0  0  0  0  0  0  0999 V2000
   -2.5307   -3.8639   -1.1759 C   0  0  0  0  0  0  0  0  0  0  0  0
   -2.3097   -3.4662    0.2147 N   0  0  0  0  0  0  0  0  0  0  0  0
   -1.5926   -4.4676    1.0143 C   0  0  0  0  0  0  0  0  0  0  0  0
   -1.9265   -2.1401    0.4757 C   0  0  0  0  0  0  0  0  0  0  0  0
   -1.5631   -1.2327   -0.5291 C   0  0  0  0  0  0  0  0  0  0  0  0
   -1.1775    0.0805   -0.2297 C   0  0  0  0  0  0  0  0  0  0  0  0
   -1.1632    0.5415    1.0899 C   0  0  0  0  0  0  0  0  0  0  0  0
   -0.7915    1.8760    1.3517 N   0  0  0  0  0  0  0  0  0  0  0  0
    0.3074    2.2003    2.1496 C   0  0  0  0  0  0  0  0  0  0  0  0
    1.4133    1.6454    2.4837 N   0  0  0  0  0  0  0  0  0  0  0  0
    1.6994    0.3923    2.0205 C   0  0  0  0  0  0  0  0  0  0  0  0
    1.5063   -0.6193    2.6862 O   0  0  0  0  0  0  0  0  0  0  0  0
    2.3883    0.3681    0.6699 C   0  0  0  0  0  0  0  0  0  0  0  0
    2.5412   -1.0563    0.1459 C   0  0  0  0  0  0  0  0  0  0  0  0
    3.1498   -1.0706   -1.2345 C   0  0  0  0  0  0  0  0  0  0  0  0
    4.5396   -0.9973   -1.3975 C   0  0  0  0  0  0  0  0  0  0  0  0
    5.1019   -0.9848   -2.6747 C   0  0  0  0  0  0  0  0  0  0  0  0
    4.2807   -1.0407   -3.7993 C   0  0  0  0  0  0  0  0  0  0  0  0
    2.8968   -1.1113   -3.6481 C   0  0  0  0  0  0  0  0  0  0  0  0
    2.3327   -1.1249   -2.3716 C   0  0  0  0  0  0  0  0  0  0  0  0
    0.1043    3.8480    2.8210 S   0  0  0  0  0  0  0  0  0  0  0  0
   -1.3674    4.1628    1.8150 C   0  0  0  0  0  0  0  0  0  0  0  0
   -0.9902    4.7388    0.4566 C   0  0  0  0  0  0  0  0  0  0  0  0
   -2.2639    4.1541   -0.6372 S   0  0  0  0  0  6  0  0  0  0  0  0
   -1.6438    3.5131   -1.7771 O   0  0  0  0  0  0  0  0  0  0  0  0
   -3.2556    5.1990   -0.7806 O   0  0  0  0  0  0  0  0  0  0  0  0
   -2.9347    2.9022    0.4270 C   0  0  0  0  0  0  0  0  0  0  0  0
   -1.9564    2.7659    1.5845 C   0  0  0  0  0  0  0  0  0  0  0  0
   -1.5502   -0.3371    2.1007 C   0  0  0  0  0  0  0  0  0  0  0  0
   -1.9242   -1.6512    1.7933 C   0  0  0  0  0  0  0  0  0  0  0  0
   -1.5882   -3.9045   -1.7340 H   0  0  0  0  0  0  0  0  0  0  0  0
   -2.9882   -4.8590   -1.2150 H   0  0  0  0  0  0  0  0  0  0  0  0
   -3.2271   -3.1833   -1.6786 H   0  0  0  0  0  0  0  0  0  0  0  0
   -1.7627   -4.3444    2.0881 H   0  0  0  0  0  0  0  0  0  0  0  0
   -0.5158   -4.4273    0.8153 H   0  0  0  0  0  0  0  0  0  0  0  0
   -1.9428   -5.4760    0.7640 H   0  0  0  0  0  0  0  0  0  0  0  0
   -1.5459   -1.5289   -1.5739 H   0  0  0  0  0  0  0  0  0  0  0  0
   -0.8857    0.7409   -1.0450 H   0  0  0  0  0  0  0  0  0  0  0  0
    3.3711    0.8417    0.7838 H   0  0  0  0  0  0  0  0  0  0  0  0
    1.8077    0.9731   -0.0353 H   0  0  0  0  0  0  0  0  0  0  0  0
    3.1688   -1.6492    0.8237 H   0  0  0  0  0  0  0  0  0  0  0  0
    1.5701   -1.5660    0.1258 H   0  0  0  0  0  0  0  0  0  0  0  0
    5.1925   -0.9506   -0.5290 H   0  0  0  0  0  0  0  0  0  0  0  0
    6.1810   -0.9288   -2.7915 H   0  0  0  0  0  0  0  0  0  0  0  0
    4.7194   -1.0271   -4.7928 H   0  0  0  0  0  0  0  0  0  0  0  0
    2.2567   -1.1537   -4.5250 H   0  0  0  0  0  0  0  0  0  0  0  0
    1.2516   -1.1782   -2.2695 H   0  0  0  0  0  0  0  0  0  0  0  0
   -2.0777    4.8137    2.3363 H   0  0  0  0  0  0  0  0  0  0  0  0
   -0.9831    5.8316    0.4560 H   0  0  0  0  0  0  0  0  0  0  0  0
   -0.0361    4.3676    0.0680 H   0  0  0  0  0  0  0  0  0  0  0  0
   -3.8934    3.2845    0.7934 H   0  0  0  0  0  0  0  0  0  0  0  0
   -3.1191    1.9941   -0.1464 H   0  0  0  0  0  0  0  0  0  0  0  0
   -2.4952    2.4245    2.4795 H   0  0  0  0  0  0  0  0  0  0  0  0
   -1.5457   -0.0257    3.1426 H   0  0  0  0  0  0  0  0  0  0  0  0
   -2.2328   -2.2931    2.6144 H   0  0  0  0  0  0  0  0  0  0  0  0
  1  2  1  0
  2  3  1  0
  2  4  1  0
  4  5  2  0
  5  6  1  0
  6  7  2  0
  7  8  1  0
  8  9  1  0
  9 10  2  3
 10 11  1  0
 11 12  2  0
 11 13  1  0
 13 14  1  0
 14 15  1  0
 15 16  2  0
 16 17  1  0
 17 18  2  0
 18 19  1  0
 19 20  2  0
  9 21  1  0
 21 22  1  0
 22 23  1  0
 23 24  1  0
 24 25  2  0
 24 26  2  0
 24 27  1  0
 27 28  1  0
  7 29  1  0
 29 30  2  0
 30  4  1  0
 28  8  1  0
 20 15  1  0
 28 22  1  0
  1 31  1  0
  1 32  1  0
  1 33  1  0
  3 34  1  0
  3 35  1  0
  3 36  1  0
  5 37  1  0
  6 38  1  0
 13 39  1  0
 13 40  1  0
 14 41  1  0
 14 42  1  0
 16 43  1  0
 17 44  1  0
 18 45  1  0
 19 46  1  0
 20 47  1  0
 22 48  1  0
 23 49  1  0
 23 50  1  0
 27 51  1  0
 27 52  1  0
 28 53  1  0
 29 54  1  0
 30 55  1  0
M  END
$$$$
