
     RDKit          3D

 33 34  0  0  0  0  0  0  0  0999 V2000
    6.2177    1.6301    0.2142 C   0  0  0  0  0  0  0  0  0  0  0  0
    5.7167    0.3344    0.8377 C   0  0  0  0  0  0  0  0  0  0  0  0
    5.5999   -0.8259   -0.1529 C   0  0  0  0  0  0  0  0  0  0  0  0
    4.3713   -0.5599   -1.4685 S   0  0  0  0  0  0  0  0  0  0  0  0
    2.8697   -0.7905   -0.6034 C   0  0  0  0  0  0  0  0  0  0  0  0
    2.8068   -1.3014    0.6076 N   0  0  0  0  0  0  0  0  0  0  0  0
    1.5062   -1.3822    1.0651 N   0  0  0  0  0  0  0  0  0  0  0  0
    0.6447   -0.9210    0.1842 C   0  0  0  0  0  0  0  0  0  0  0  0
   -0.7074   -0.9273    0.4239 N   0  0  0  0  0  0  0  0  0  0  0  0
   -1.6830   -0.3123   -0.3347 C   0  0  0  0  0  0  0  0  0  0  0  0
   -1.4733    0.3951   -1.3101 O   0  0  0  0  0  0  0  0  0  0  0  0
   -2.9415   -0.6124    0.1716 N   0  0  0  0  0  0  0  0  0  0  0  0
   -4.1878   -0.1115   -0.2620 C   0  0  0  0  0  0  0  0  0  0  0  0
   -4.3374    0.9037   -1.2084 C   0  0  0  0  0  0  0  0  0  0  0  0
   -5.6118    1.3487   -1.5759 C   0  0  0  0  0  0  0  0  0  0  0  0
   -6.7468    0.7857   -0.9981 C   0  0  0  0  0  0  0  0  0  0  0  0
   -6.6094   -0.2229   -0.0490 C   0  0  0  0  0  0  0  0  0  0  0  0
   -5.3364   -0.6676    0.3182 C   0  0  0  0  0  0  0  0  0  0  0  0
    1.3461   -0.3874   -1.2729 S   0  0  0  0  0  0  0  0  0  0  0  0
    6.3757    2.3832    0.9931 H   0  0  0  0  0  0  0  0  0  0  0  0
    7.1702    1.4747   -0.3023 H   0  0  0  0  0  0  0  0  0  0  0  0
    5.4987    2.0409   -0.5005 H   0  0  0  0  0  0  0  0  0  0  0  0
    4.7604    0.5175    1.3403 H   0  0  0  0  0  0  0  0  0  0  0  0
    6.4243    0.0394    1.6225 H   0  0  0  0  0  0  0  0  0  0  0  0
    5.3709   -1.7549    0.3803 H   0  0  0  0  0  0  0  0  0  0  0  0
    6.5683   -0.9809   -0.6415 H   0  0  0  0  0  0  0  0  0  0  0  0
   -0.9465   -1.2680    1.3409 H   0  0  0  0  0  0  0  0  0  0  0  0
   -2.9844   -1.3583    0.8491 H   0  0  0  0  0  0  0  0  0  0  0  0
   -3.4823    1.3781   -1.6796 H   0  0  0  0  0  0  0  0  0  0  0  0
   -5.7123    2.1388   -2.3161 H   0  0  0  0  0  0  0  0  0  0  0  0
   -7.7348    1.1343   -1.2871 H   0  0  0  0  0  0  0  0  0  0  0  0
   -7.4925   -0.6642    0.4058 H   0  0  0  0  0  0  0  0  0  0  0  0
   -5.2603   -1.4561    1.0620 H   0  0  0  0  0  0  0  0  0  0  0  0
  1  2  1  0
  2  3  1  0
  3  4  1  0
  4  5  1  0
  5  6  2  0
  6  7  1  0
  7  8  2  0
  8  9  1  0
  9 10  1  0
 10 11  2  0
 10 12  1  0
 12 13  1  0
 13 14  2  0
 14 15  1  0
 15 16  2  0
 16 17  1  0
 17 18  2  0
  8 19  1  0
 19  5  1  0
 18 13  1  0
  1 20  1  0
  1 21  1  0
  1 22  1  0
  2 23  1  0
  2 24  1  0
  3 25  1  0
  3 26  1  0
  9 27  1  0
 12 28  1  0
 14 29  1  0
 15 30  1  0
 16 31  1  0
 17 32  1  0
 18 33  1  0
M  END
$$$$
