
     RDKit          3D

 61 65  0  0  0  0  0  0  0  0999 V2000
   -4.1688   -4.4165    0.6434 C   0  0  0  0  0  0  0  0  0  0  0  0
   -4.3187   -3.1817    1.4183 N   0  0  0  0  0  0  0  0  0  0  0  0
   -4.1998   -3.4799    2.8482 C   0  0  0  0  0  0  0  0  0  0  0  0
   -3.3194   -2.1658    1.0310 C   0  0  0  0  0  0  0  0  0  0  0  0
   -3.5326   -1.5769   -0.3774 C   0  0  0  0  0  0  0  0  0  0  0  0
   -2.5584   -0.5154   -0.6708 N   0  0  0  0  0  0  0  0  0  0  0  0
   -1.3026   -0.9289   -1.1294 C   0  0  0  0  0  0  0  0  0  0  0  0
   -1.1094   -2.0213   -1.6659 O   0  0  0  0  0  0  0  0  0  0  0  0
   -0.0851   -0.1323   -0.8369 C   0  0  0  0  0  0  0  0  0  0  0  0
    0.1643    0.3456    0.4577 C   0  0  0  0  0  0  0  0  0  0  0  0
    1.3275    1.0738    0.7156 C   0  0  0  0  0  0  0  0  0  0  0  0
    2.2516    1.2919   -0.3140 C   0  0  0  0  0  0  0  0  0  0  0  0
    3.7138    2.2714    0.0019 S   0  0  0  0  0  6  0  0  0  0  0  0
    3.9903    3.0172   -1.2079 O   0  0  0  0  0  0  0  0  0  0  0  0
    3.4896    2.9672    1.2541 O   0  0  0  0  0  0  0  0  0  0  0  0
    4.9221    1.1160    0.2693 N   0  0  0  0  0  0  0  0  0  0  0  0
    4.8441    0.3148    1.5276 C   0  0  0  0  0  0  0  0  0  0  0  0
    5.1873   -1.1387    1.1544 C   0  0  0  0  0  0  0  0  0  0  0  0
    5.5133   -1.0481   -0.2986 C   0  0  0  0  0  0  0  0  0  0  0  0
    5.9438   -2.0698   -1.1310 C   0  0  0  0  0  0  0  0  0  0  0  0
    6.2159   -1.7672   -2.4656 C   0  0  0  0  0  0  0  0  0  0  0  0
    6.0693   -0.4566   -2.9422 C   0  0  0  0  0  0  0  0  0  0  0  0
    5.6336    0.5636   -2.0931 C   0  0  0  0  0  0  0  0  0  0  0  0
    5.3271    0.2430   -0.7825 C   0  0  0  0  0  0  0  0  0  0  0  0
    2.0073    0.8116   -1.6055 C   0  0  0  0  0  0  0  0  0  0  0  0
    0.8460    0.0804   -1.8616 C   0  0  0  0  0  0  0  0  0  0  0  0
   -2.9272    0.8109   -0.4539 C   0  0  0  0  0  0  0  0  0  0  0  0
   -3.9176    1.1617    0.3341 N   0  0  0  0  0  0  0  0  0  0  0  0
   -4.1039    2.5308    0.2952 C   0  0  0  0  0  0  0  0  0  0  0  0
   -5.0571    3.2571    1.0401 C   0  0  0  0  0  0  0  0  0  0  0  0
   -5.1330    4.6462    0.8976 C   0  0  0  0  0  0  0  0  0  0  0  0
   -4.2751    5.3012    0.0255 C   0  0  0  0  0  0  0  0  0  0  0  0
   -4.3655    6.6316   -0.1003 F   0  0  0  0  0  0  0  0  0  0  0  0
   -3.3248    4.6139   -0.7279 C   0  0  0  0  0  0  0  0  0  0  0  0
   -3.2583    3.2205   -0.5756 C   0  0  0  0  0  0  0  0  0  0  0  0
   -2.2282    2.0877   -1.3566 S   0  0  0  0  0  0  0  0  0  0  0  0
   -3.1680   -4.8500    0.7469 H   0  0  0  0  0  0  0  0  0  0  0  0
   -4.9009   -5.1650    0.9689 H   0  0  0  0  0  0  0  0  0  0  0  0
   -4.3669   -4.2446   -0.4186 H   0  0  0  0  0  0  0  0  0  0  0  0
   -3.2161   -3.8884    3.1065 H   0  0  0  0  0  0  0  0  0  0  0  0
   -4.3668   -2.5762    3.4452 H   0  0  0  0  0  0  0  0  0  0  0  0
   -4.9653   -4.2009    3.1569 H   0  0  0  0  0  0  0  0  0  0  0  0
   -3.3734   -1.3304    1.7423 H   0  0  0  0  0  0  0  0  0  0  0  0
   -2.3030   -2.5733    1.1159 H   0  0  0  0  0  0  0  0  0  0  0  0
   -4.5490   -1.1775   -0.4797 H   0  0  0  0  0  0  0  0  0  0  0  0
   -3.4293   -2.3591   -1.1374 H   0  0  0  0  0  0  0  0  0  0  0  0
   -0.5409    0.1609    1.2649 H   0  0  0  0  0  0  0  0  0  0  0  0
    1.5019    1.4698    1.7143 H   0  0  0  0  0  0  0  0  0  0  0  0
    3.8587    0.3570    2.0013 H   0  0  0  0  0  0  0  0  0  0  0  0
    5.5740    0.7117    2.2428 H   0  0  0  0  0  0  0  0  0  0  0  0
    6.0412   -1.5008    1.7362 H   0  0  0  0  0  0  0  0  0  0  0  0
    4.3284   -1.7981    1.3189 H   0  0  0  0  0  0  0  0  0  0  0  0
    6.0750   -3.0803   -0.7573 H   0  0  0  0  0  0  0  0  0  0  0  0
    6.5591   -2.5492   -3.1386 H   0  0  0  0  0  0  0  0  0  0  0  0
    6.3092   -0.2298   -3.9778 H   0  0  0  0  0  0  0  0  0  0  0  0
    5.5586    1.5796   -2.4646 H   0  0  0  0  0  0  0  0  0  0  0  0
    2.7101    1.0014   -2.4140 H   0  0  0  0  0  0  0  0  0  0  0  0
    0.6611   -0.3116   -2.8601 H   0  0  0  0  0  0  0  0  0  0  0  0
   -5.7261    2.7308    1.7152 H   0  0  0  0  0  0  0  0  0  0  0  0
   -5.8629    5.2189    1.4626 H   0  0  0  0  0  0  0  0  0  0  0  0
   -2.6700    5.1461   -1.4083 H   0  0  0  0  0  0  0  0  0  0  0  0
  1  2  1  0
  2  3  1  0
  2  4  1  0
  4  5  1  0
  5  6  1  0
  6  7  1  0
  7  8  2  0
  7  9  1  0
  9 10  2  0
 10 11  1  0
 11 12  2  0
 12 13  1  0
 13 14  2  0
 13 15  2  0
 13 16  1  0
 16 17  1  0
 17 18  1  0
 18 19  1  0
 19 20  2  0
 20 21  1  0
 21 22  2  0
 22 23  1  0
 23 24  2  0
 12 25  1  0
 25 26  2  0
  6 27  1  0
 27 28  2  0
 28 29  1  0
 29 30  2  0
 30 31  1  0
 31 32  2  0
 32 33  1  0
 32 34  1  0
 34 35  2  0
 35 36  1  0
 26  9  1  0
 36 27  1  0
 24 16  1  0
 35 29  1  0
 24 19  1  0
  1 37  1  0
  1 38  1  0
  1 39  1  0
  3 40  1  0
  3 41  1  0
  3 42  1  0
  4 43  1  0
  4 44  1  0
  5 45  1  0
  5 46  1  0
 10 47  1  0
 11 48  1  0
 17 49  1  0
 17 50  1  0
 18 51  1  0
 18 52  1  0
 20 53  1  0
 21 54  1  0
 22 55  1  0
 23 56  1  0
 25 57  1  0
 26 58  1  0
 30 59  1  0
 31 60  1  0
 34 61  1  0
M  END
$$$$
