
     RDKit          3D

 42 44  0  0  0  0  0  0  0  0999 V2000
    3.9855   -0.2338   -0.8432 C   0  0  0  0  0  0  0  0  0  0  0  0
    4.1421   -0.1837    0.6738 C   0  0  0  0  0  0  0  0  0  0  0  0
    4.1709    1.2422    1.2145 C   0  0  0  0  0  0  0  0  0  0  0  0
    2.9447   -1.2641    1.5611 S   0  0  0  0  0  0  0  0  0  0  0  0
    1.3563   -0.7562    0.9222 C   0  0  0  0  0  0  0  0  0  0  0  0
    0.3665   -1.7091    0.7951 C   0  0  0  0  0  0  0  0  0  0  0  0
   -0.8623   -1.2995    0.3215 C   0  0  0  0  0  0  0  0  0  0  0  0
   -1.9019   -2.1714    0.1440 N   0  0  0  0  0  0  0  0  0  0  0  0
   -1.8551   -3.6162    0.3052 C   0  0  0  0  0  0  0  0  0  0  0  0
   -3.1611   -4.0921   -0.3294 C   0  0  0  0  0  0  0  0  0  0  0  0
   -4.1081   -2.9260   -0.0918 C   0  0  0  0  0  0  0  0  0  0  0  0
   -3.2115   -1.7055   -0.2937 C   0  0  0  0  0  0  0  0  0  0  0  0
   -1.0700   -0.0071    0.0186 N   0  0  0  0  0  0  0  0  0  0  0  0
   -0.0622    0.8628    0.2095 C   0  0  0  0  0  0  0  0  0  0  0  0
   -0.3093    2.2593   -0.1614 C   0  0  0  0  0  0  0  0  0  0  0  0
   -0.8715    2.5449   -1.4251 C   0  0  0  0  0  0  0  0  0  0  0  0
   -1.1130    3.8569   -1.8414 C   0  0  0  0  0  0  0  0  0  0  0  0
   -0.8032    4.9180   -0.9988 C   0  0  0  0  0  0  0  0  0  0  0  0
   -0.2613    4.6648    0.2601 C   0  0  0  0  0  0  0  0  0  0  0  0
   -0.0192    3.3484    0.6800 C   0  0  0  0  0  0  0  0  0  0  0  0
    0.5912    3.1502    2.2893 Cl  0  0  0  0  0  0  0  0  0  0  0  0
    1.1632    0.5338    0.6335 N   0  0  0  0  0  0  0  0  0  0  0  0
    4.8236    0.2837   -1.3240 H   0  0  0  0  0  0  0  0  0  0  0  0
    3.0694    0.2543   -1.1885 H   0  0  0  0  0  0  0  0  0  0  0  0
    3.9880   -1.2661   -1.2099 H   0  0  0  0  0  0  0  0  0  0  0  0
    5.1187   -0.6262    0.9064 H   0  0  0  0  0  0  0  0  0  0  0  0
    4.2728    1.2561    2.3051 H   0  0  0  0  0  0  0  0  0  0  0  0
    5.0325    1.7799    0.8016 H   0  0  0  0  0  0  0  0  0  0  0  0
    3.2827    1.8165    0.9422 H   0  0  0  0  0  0  0  0  0  0  0  0
    0.5580   -2.7388    1.0626 H   0  0  0  0  0  0  0  0  0  0  0  0
   -1.8261   -3.8764    1.3699 H   0  0  0  0  0  0  0  0  0  0  0  0
   -0.9986   -4.0727   -0.2028 H   0  0  0  0  0  0  0  0  0  0  0  0
   -3.5209   -5.0295    0.1045 H   0  0  0  0  0  0  0  0  0  0  0  0
   -3.0204   -4.2437   -1.4072 H   0  0  0  0  0  0  0  0  0  0  0  0
   -4.9682   -2.9306   -0.7671 H   0  0  0  0  0  0  0  0  0  0  0  0
   -4.4794   -2.9518    0.9399 H   0  0  0  0  0  0  0  0  0  0  0  0
   -3.1778   -1.4227   -1.3528 H   0  0  0  0  0  0  0  0  0  0  0  0
   -3.5816   -0.8589    0.2956 H   0  0  0  0  0  0  0  0  0  0  0  0
   -1.1206    1.7249   -2.0987 H   0  0  0  0  0  0  0  0  0  0  0  0
   -1.5402    4.0448   -2.8232 H   0  0  0  0  0  0  0  0  0  0  0  0
   -0.9891    5.9409   -1.3165 H   0  0  0  0  0  0  0  0  0  0  0  0
   -0.0336    5.4995    0.9195 H   0  0  0  0  0  0  0  0  0  0  0  0
  1  2  1  0
  2  3  1  0
  2  4  1  0
  4  5  1  0
  5  6  2  0
  6  7  1  0
  7  8  1  0
  8  9  1  0
  9 10  1  0
 10 11  1  0
 11 12  1  0
  7 13  2  0
 13 14  1  0
 14 15  1  0
 15 16  2  0
 16 17  1  0
 17 18  2  0
 18 19  1  0
 19 20  2  0
 20 21  1  0
 14 22  2  0
 22  5  1  0
 12  8  1  0
 20 15  1  0
  1 23  1  0
  1 24  1  0
  1 25  1  0
  2 26  1  0
  3 27  1  0
  3 28  1  0
  3 29  1  0
  6 30  1  0
  9 31  1  0
  9 32  1  0
 10 33  1  0
 10 34  1  0
 11 35  1  0
 11 36  1  0
 12 37  1  0
 12 38  1  0
 16 39  1  0
 17 40  1  0
 18 41  1  0
 19 42  1  0
M  END
$$$$
