
     RDKit          3D

 61 65  0  0  0  0  0  0  0  0999 V2000
    3.8144   -0.9538    1.6679 C   0  0  0  0  0  0  0  0  0  0  0  0
    3.4839   -1.8509    0.5308 C   0  0  0  0  0  0  0  0  0  0  0  0
    2.2384   -2.1266   -0.0090 C   0  0  0  0  0  0  0  0  0  0  0  0
    0.8772   -1.6122    0.3718 C   0  0  0  0  0  0  0  0  0  0  0  0
    0.3328   -0.6014   -0.6431 C   0  0  0  0  0  0  0  0  0  0  0  0
   -0.8641    0.0299   -0.1623 O   0  0  0  0  0  0  0  0  0  0  0  0
   -2.0011   -0.7125   -0.2614 C   0  0  0  0  0  0  0  0  0  0  0  0
   -2.0211   -1.8665   -0.6729 O   0  0  0  0  0  0  0  0  0  0  0  0
   -3.2341    0.0899    0.1475 C   0  0  0  0  0  0  0  0  0  0  0  0
   -4.3888   -0.8752    0.5087 C   0  0  0  0  0  0  0  0  0  0  0  0
   -5.6563   -0.0888    0.8785 C   0  0  0  0  0  0  0  0  0  0  0  0
   -5.3606    0.8168    2.0832 C   0  0  0  0  0  0  0  0  0  0  0  0
   -4.2285    1.7942    1.7372 C   0  0  0  0  0  0  0  0  0  0  0  0
   -4.6504    2.6594    0.5377 C   0  0  0  0  0  0  0  0  0  0  0  0
   -4.9503    1.7710   -0.6908 C   0  0  0  0  0  0  0  0  0  0  0  0
   -5.3721    2.6399   -1.8803 C   0  0  0  0  0  0  0  0  0  0  0  0
   -6.0781    0.7792   -0.3192 C   0  0  0  0  0  0  0  0  0  0  0  0
   -3.6781    0.9655   -1.0441 C   0  0  0  0  0  0  0  0  0  0  0  0
   -2.9639    0.9983    1.3703 C   0  0  0  0  0  0  0  0  0  0  0  0
    2.3938   -3.2565   -1.2975 S   0  0  0  0  0  0  0  0  0  0  0  0
    4.0886   -3.3001   -1.1394 C   0  0  0  0  0  0  0  0  0  0  0  0
    4.5021   -2.5162   -0.1545 N   0  0  0  0  0  4  0  0  0  0  0  0
    5.9382   -2.4081    0.1464 C   0  0  0  0  0  0  0  0  0  0  0  0
    6.4649   -1.0374   -0.2054 C   0  0  0  0  0  0  0  0  0  0  0  0
    6.1930   -0.4435   -1.4492 C   0  0  0  0  0  0  0  0  0  0  0  0
    6.6816    0.8284   -1.7483 C   0  0  0  0  0  0  0  0  0  0  0  0
    7.4589    1.5153   -0.8189 C   0  0  0  0  0  0  0  0  0  0  0  0
    7.7596    0.9297    0.4045 C   0  0  0  0  0  0  0  0  0  0  0  0
    7.2716   -0.3416    0.7100 C   0  0  0  0  0  0  0  0  0  0  0  0
    2.9282   -0.7316    2.2714 H   0  0  0  0  0  0  0  0  0  0  0  0
    4.2075   -0.0001    1.3020 H   0  0  0  0  0  0  0  0  0  0  0  0
    4.5450   -1.4091    2.3422 H   0  0  0  0  0  0  0  0  0  0  0  0
    0.1838   -2.4531    0.4880 H   0  0  0  0  0  0  0  0  0  0  0  0
    0.9108   -1.1386    1.3598 H   0  0  0  0  0  0  0  0  0  0  0  0
    1.0652    0.2006   -0.8015 H   0  0  0  0  0  0  0  0  0  0  0  0
    0.1535   -1.0543   -1.6280 H   0  0  0  0  0  0  0  0  0  0  0  0
   -4.6085   -1.5433   -0.3357 H   0  0  0  0  0  0  0  0  0  0  0  0
   -4.0949   -1.5242    1.3452 H   0  0  0  0  0  0  0  0  0  0  0  0
   -6.4588   -0.7892    1.1323 H   0  0  0  0  0  0  0  0  0  0  0  0
   -5.0777    0.2070    2.9498 H   0  0  0  0  0  0  0  0  0  0  0  0
   -6.2625    1.3738    2.3663 H   0  0  0  0  0  0  0  0  0  0  0  0
   -4.0215    2.4383    2.5987 H   0  0  0  0  0  0  0  0  0  0  0  0
   -5.5379    3.2487    0.8022 H   0  0  0  0  0  0  0  0  0  0  0  0
   -3.8549    3.3776    0.3017 H   0  0  0  0  0  0  0  0  0  0  0  0
   -5.5913    2.0262   -2.7616 H   0  0  0  0  0  0  0  0  0  0  0  0
   -6.2701    3.2211   -1.6452 H   0  0  0  0  0  0  0  0  0  0  0  0
   -4.5804    3.3468   -2.1549 H   0  0  0  0  0  0  0  0  0  0  0  0
   -6.9982    1.3252   -0.0734 H   0  0  0  0  0  0  0  0  0  0  0  0
   -6.3143    0.1345   -1.1755 H   0  0  0  0  0  0  0  0  0  0  0  0
   -3.8674    0.3338   -1.9227 H   0  0  0  0  0  0  0  0  0  0  0  0
   -2.8668    1.6486   -1.3295 H   0  0  0  0  0  0  0  0  0  0  0  0
   -2.1471    1.7030    1.1627 H   0  0  0  0  0  0  0  0  0  0  0  0
   -2.6378    0.3928    2.2278 H   0  0  0  0  0  0  0  0  0  0  0  0
    4.7309   -3.8956   -1.7787 H   0  0  0  0  0  0  0  0  0  0  0  0
    6.0833   -2.6414    1.2064 H   0  0  0  0  0  0  0  0  0  0  0  0
    6.5033   -3.1581   -0.4212 H   0  0  0  0  0  0  0  0  0  0  0  0
    5.6035   -0.9506   -2.2090 H   0  0  0  0  0  0  0  0  0  0  0  0
    6.4653    1.2873   -2.7143 H   0  0  0  0  0  0  0  0  0  0  0  0
    7.8417    2.5060   -1.0593 H   0  0  0  0  0  0  0  0  0  0  0  0
    8.3817    1.4640    1.1213 H   0  0  0  0  0  0  0  0  0  0  0  0
    7.5347   -0.7728    1.6756 H   0  0  0  0  0  0  0  0  0  0  0  0
  1  2  1  0
  2  3  2  0
  3  4  1  0
  4  5  1  0
  5  6  1  0
  6  7  1  0
  7  8  2  0
  7  9  1  0
  9 10  1  0
 10 11  1  0
 11 12  1  0
 12 13  1  0
 13 14  1  0
 14 15  1  0
 15 16  1  0
 15 17  1  0
 15 18  1  0
 13 19  1  0
  3 20  1  0
 20 21  1  0
 21 22  2  0
 22 23  1  0
 23 24  1  0
 24 25  2  0
 25 26  1  0
 26 27  2  0
 27 28  1  0
 28 29  2  0
 22  2  1  0
 29 24  1  0
 18  9  1  0
 19  9  1  0
 17 11  1  0
  1 30  1  0
  1 31  1  0
  1 32  1  0
  4 33  1  0
  4 34  1  0
  5 35  1  0
  5 36  1  0
 10 37  1  0
 10 38  1  0
 11 39  1  0
 12 40  1  0
 12 41  1  0
 13 42  1  0
 14 43  1  0
 14 44  1  0
 16 45  1  0
 16 46  1  0
 16 47  1  0
 17 48  1  0
 17 49  1  0
 18 50  1  0
 18 51  1  0
 19 52  1  0
 19 53  1  0
 21 54  1  0
 23 55  1  0
 23 56  1  0
 25 57  1  0
 26 58  1  0
 27 59  1  0
 28 60  1  0
 29 61  1  0
M  CHG  1  22   1
M  END
$$$$
