
     RDKit          3D

 69 71  0  0  0  0  0  0  0  0999 V2000
    9.8016    1.9045   -0.7963 C   0  0  0  0  0  0  0  0  0  0  0  0
    8.6285    1.0118   -1.1711 C   0  0  0  0  0  0  0  0  0  0  0  0
    7.5597    1.7891   -1.9400 C   0  0  0  0  0  0  0  0  0  0  0  0
    6.4067    0.9105   -2.4350 C   0  0  0  0  0  0  0  0  0  0  0  0
    5.6033    0.1931   -1.3451 C   0  0  0  0  0  0  0  0  0  0  0  0
    4.9759    1.0997   -0.2815 C   0  0  0  0  0  0  0  0  0  0  0  0
    4.0193    2.1730   -0.8112 C   0  0  0  0  0  0  0  0  0  0  0  0
    2.8234    1.6529   -1.6159 C   0  0  0  0  0  0  0  0  0  0  0  0
    1.9249    0.6496   -0.8909 C   0  0  0  0  0  0  0  0  0  0  0  0
    1.2861    1.2075    0.3776 C   0  0  0  0  0  0  0  0  0  0  0  0
    0.4318    0.2116    0.9739 O   0  0  0  0  0  0  0  0  0  0  0  0
   -0.8473    0.1638    0.5170 C   0  0  0  0  0  0  0  0  0  0  0  0
   -1.3333    0.8984   -0.3343 O   0  0  0  0  0  0  0  0  0  0  0  0
   -1.6323   -0.9090    1.2604 C   0  0  0  0  0  0  0  0  0  0  0  0
   -2.8724   -1.2889    0.5384 N   0  0  0  0  0  0  0  0  0  0  0  0
   -3.9153   -0.4542    0.2854 C   0  0  0  0  0  0  0  0  0  0  0  0
   -4.1159    0.9603    0.8148 C   0  0  0  0  0  0  0  0  0  0  0  0
   -5.4644    1.2391    1.1845 O   0  0  0  0  0  0  0  0  0  0  0  0
   -5.9555    0.7097    2.3431 C   0  0  0  0  0  0  0  0  0  0  0  0
   -7.2932    1.0317    2.5982 C   0  0  0  0  0  0  0  0  0  0  0  0
   -7.9395    0.5506    3.7393 C   0  0  0  0  0  0  0  0  0  0  0  0
   -7.2443   -0.2566    4.6327 C   0  0  0  0  0  0  0  0  0  0  0  0
   -8.0293   -0.8581    6.0380 Cl  0  0  0  0  0  0  0  0  0  0  0  0
   -5.9106   -0.5802    4.3919 C   0  0  0  0  0  0  0  0  0  0  0  0
   -5.2643   -0.0967    3.2475 C   0  0  0  0  0  0  0  0  0  0  0  0
   -4.7623   -1.1208   -0.5350 N   0  0  0  0  0  4  0  0  0  0  0  0
   -5.9783   -0.5472   -1.1130 C   0  0  0  0  0  0  0  0  0  0  0  0
   -4.3278   -2.4254   -0.7212 C   0  0  0  0  0  0  0  0  0  0  0  0
   -4.8880   -3.4921   -1.4210 C   0  0  0  0  0  0  0  0  0  0  0  0
   -4.1591   -4.6876   -1.4140 C   0  0  0  0  0  0  0  0  0  0  0  0
   -2.9306   -4.7979   -0.7383 C   0  0  0  0  0  0  0  0  0  0  0  0
   -2.3756   -3.7193   -0.0360 C   0  0  0  0  0  0  0  0  0  0  0  0
   -3.1108   -2.5340   -0.0434 C   0  0  0  0  0  0  0  0  0  0  0  0
    9.4753    2.7338   -0.1609 H   0  0  0  0  0  0  0  0  0  0  0  0
   10.2788    2.3216   -1.6885 H   0  0  0  0  0  0  0  0  0  0  0  0
   10.5538    1.3306   -0.2461 H   0  0  0  0  0  0  0  0  0  0  0  0
    8.2059    0.5871   -0.2544 H   0  0  0  0  0  0  0  0  0  0  0  0
    8.9926    0.1770   -1.7809 H   0  0  0  0  0  0  0  0  0  0  0  0
    8.0229    2.2632   -2.8143 H   0  0  0  0  0  0  0  0  0  0  0  0
    7.1736    2.6046   -1.3184 H   0  0  0  0  0  0  0  0  0  0  0  0
    6.8093    0.1529   -3.1194 H   0  0  0  0  0  0  0  0  0  0  0  0
    5.7310    1.5290   -3.0376 H   0  0  0  0  0  0  0  0  0  0  0  0
    6.2482   -0.5369   -0.8412 H   0  0  0  0  0  0  0  0  0  0  0  0
    4.8167   -0.3985   -1.8286 H   0  0  0  0  0  0  0  0  0  0  0  0
    4.4481    0.4688    0.4437 H   0  0  0  0  0  0  0  0  0  0  0  0
    5.7711    1.5950    0.2886 H   0  0  0  0  0  0  0  0  0  0  0  0
    4.5765    2.8800   -1.4374 H   0  0  0  0  0  0  0  0  0  0  0  0
    3.6548    2.7620    0.0391 H   0  0  0  0  0  0  0  0  0  0  0  0
    3.1817    1.1937   -2.5448 H   0  0  0  0  0  0  0  0  0  0  0  0
    2.2152    2.5137   -1.9221 H   0  0  0  0  0  0  0  0  0  0  0  0
    1.1343    0.3288   -1.5808 H   0  0  0  0  0  0  0  0  0  0  0  0
    2.4788   -0.2653   -0.6502 H   0  0  0  0  0  0  0  0  0  0  0  0
    2.0506    1.4412    1.1247 H   0  0  0  0  0  0  0  0  0  0  0  0
    0.7303    2.1318    0.1820 H   0  0  0  0  0  0  0  0  0  0  0  0
   -0.9985   -1.7909    1.3815 H   0  0  0  0  0  0  0  0  0  0  0  0
   -1.9082   -0.5346    2.2499 H   0  0  0  0  0  0  0  0  0  0  0  0
   -3.4166    1.1493    1.6322 H   0  0  0  0  0  0  0  0  0  0  0  0
   -3.8575    1.6073   -0.0283 H   0  0  0  0  0  0  0  0  0  0  0  0
   -7.8425    1.6690    1.9076 H   0  0  0  0  0  0  0  0  0  0  0  0
   -8.9785    0.8121    3.9250 H   0  0  0  0  0  0  0  0  0  0  0  0
   -5.3692   -1.2062    5.0977 H   0  0  0  0  0  0  0  0  0  0  0  0
   -4.2264   -0.3718    3.1144 H   0  0  0  0  0  0  0  0  0  0  0  0
   -6.8005   -0.6696   -0.4039 H   0  0  0  0  0  0  0  0  0  0  0  0
   -5.8222    0.5111   -1.3359 H   0  0  0  0  0  0  0  0  0  0  0  0
   -6.2265   -1.0520   -2.0501 H   0  0  0  0  0  0  0  0  0  0  0  0
   -5.8338   -3.4055   -1.9408 H   0  0  0  0  0  0  0  0  0  0  0  0
   -4.5519   -5.5551   -1.9460 H   0  0  0  0  0  0  0  0  0  0  0  0
   -2.3983   -5.7498   -0.7624 H   0  0  0  0  0  0  0  0  0  0  0  0
   -1.4303   -3.8164    0.4825 H   0  0  0  0  0  0  0  0  0  0  0  0
  1  2  1  0
  2  3  1  0
  3  4  1  0
  4  5  1  0
  5  6  1  0
  6  7  1  0
  7  8  1  0
  8  9  1  0
  9 10  1  0
 10 11  1  0
 11 12  1  0
 12 13  2  0
 12 14  1  0
 14 15  1  0
 15 16  1  0
 16 17  1  0
 17 18  1  0
 18 19  1  0
 19 20  2  0
 20 21  1  0
 21 22  2  0
 22 23  1  0
 22 24  1  0
 24 25  2  0
 16 26  2  0
 26 27  1  0
 26 28  1  0
 28 29  2  0
 29 30  1  0
 30 31  2  0
 31 32  1  0
 32 33  2  0
 33 15  1  0
 25 19  1  0
 33 28  1  0
  1 34  1  0
  1 35  1  0
  1 36  1  0
  2 37  1  0
  2 38  1  0
  3 39  1  0
  3 40  1  0
  4 41  1  0
  4 42  1  0
  5 43  1  0
  5 44  1  0
  6 45  1  0
  6 46  1  0
  7 47  1  0
  7 48  1  0
  8 49  1  0
  8 50  1  0
  9 51  1  0
  9 52  1  0
 10 53  1  0
 10 54  1  0
 14 55  1  0
 14 56  1  0
 17 57  1  0
 17 58  1  0
 20 59  1  0
 21 60  1  0
 24 61  1  0
 25 62  1  0
 27 63  1  0
 27 64  1  0
 27 65  1  0
 29 66  1  0
 30 67  1  0
 31 68  1  0
 32 69  1  0
M  CHG  1  26   1
M  END
$$$$
