
     RDKit          3D

 53 56  0  0  0  0  0  0  0  0999 V2000
    4.3146    1.7992    2.3213 C   0  0  0  0  0  0  0  0  0  0  0  0
    4.3018    0.4945    1.6522 N   0  0  0  0  0  0  0  0  0  0  0  0
    5.5298   -0.0806    1.2499 C   0  0  0  0  0  0  0  0  0  0  0  0
    5.5544   -1.2030    0.3991 C   0  0  0  0  0  0  0  0  0  0  0  0
    6.7543   -1.8064    0.0022 C   0  0  0  0  0  0  0  0  0  0  0  0
    7.9663   -1.3060    0.4579 C   0  0  0  0  0  0  0  0  0  0  0  0
    7.9781   -0.2033    1.3037 C   0  0  0  0  0  0  0  0  0  0  0  0
    6.7750    0.4000    1.6930 C   0  0  0  0  0  0  0  0  0  0  0  0
    3.0361    0.1665    1.1197 C   0  0  0  0  0  0  0  0  0  0  0  0
    2.6078    0.7532   -0.0828 C   0  0  0  0  0  0  0  0  0  0  0  0
    1.3749    0.4131   -0.6540 C   0  0  0  0  0  0  0  0  0  0  0  0
    0.5411   -0.5263   -0.0343 C   0  0  0  0  0  0  0  0  0  0  0  0
   -0.7394   -0.8858   -0.6515 C   0  0  0  0  0  0  0  0  0  0  0  0
   -1.9490   -0.4275   -0.2622 C   0  0  0  0  0  0  0  0  0  0  0  0
   -2.0815    0.4567    0.8496 C   0  0  0  0  0  0  0  0  0  0  0  0
   -2.2141    1.1950    1.7363 N   0  0  0  0  0  0  0  0  0  0  0  0
   -3.0895   -0.9389   -0.9528 C   0  0  0  0  0  0  0  0  0  0  0  0
   -3.2425   -2.1358   -1.4875 N   0  0  0  0  0  0  0  0  0  0  0  0
   -4.5141   -2.2433   -1.9703 N   0  0  0  0  0  0  0  0  0  0  0  0
   -5.1384   -1.1069   -1.7520 C   0  0  0  0  0  0  0  0  0  0  0  0
   -4.2486   -0.2129   -1.1935 N   0  0  0  0  0  0  0  0  0  0  0  0
   -4.4738    1.2018   -0.9556 C   0  0  0  0  0  0  0  0  0  0  0  0
   -5.4846    1.8756   -1.8806 C   0  0  0  0  0  0  0  0  0  0  0  0
   -6.9399    1.5977   -1.5055 C   0  0  0  0  0  0  0  0  0  0  0  0
   -7.2552    0.1418   -1.1639 C   0  0  0  0  0  0  0  0  0  0  0  0
   -6.5695   -0.8548   -2.0906 C   0  0  0  0  0  0  0  0  0  0  0  0
    0.9425   -1.1207    1.1646 C   0  0  0  0  0  0  0  0  0  0  0  0
    2.1760   -0.7605    1.7271 C   0  0  0  0  0  0  0  0  0  0  0  0
    2.5579   -1.3932    2.9742 N   0  0  0  0  0  4  0  0  0  0  0  0
    2.6774   -0.6635    3.9703 O   0  0  0  0  0  0  0  0  0  0  0  0
    2.6729   -2.6295    2.9622 O   0  0  0  0  0  1  0  0  0  0  0  0
    4.8600    1.7454    3.2693 H   0  0  0  0  0  0  0  0  0  0  0  0
    3.3040    2.1500    2.5743 H   0  0  0  0  0  0  0  0  0  0  0  0
    4.7729    2.5574    1.6750 H   0  0  0  0  0  0  0  0  0  0  0  0
    4.6304   -1.6401    0.0326 H   0  0  0  0  0  0  0  0  0  0  0  0
    6.7334   -2.6734   -0.6532 H   0  0  0  0  0  0  0  0  0  0  0  0
    8.8994   -1.7799    0.1627 H   0  0  0  0  0  0  0  0  0  0  0  0
    8.9218    0.1915    1.6690 H   0  0  0  0  0  0  0  0  0  0  0  0
    6.8455    1.2473    2.3659 H   0  0  0  0  0  0  0  0  0  0  0  0
    3.2505    1.4698   -0.5909 H   0  0  0  0  0  0  0  0  0  0  0  0
    1.0833    0.8809   -1.5938 H   0  0  0  0  0  0  0  0  0  0  0  0
   -0.6528   -1.5842   -1.4849 H   0  0  0  0  0  0  0  0  0  0  0  0
   -4.7607    1.3178    0.0952 H   0  0  0  0  0  0  0  0  0  0  0  0
   -3.5128    1.7052   -1.1151 H   0  0  0  0  0  0  0  0  0  0  0  0
   -5.3020    1.5759   -2.9212 H   0  0  0  0  0  0  0  0  0  0  0  0
   -5.3311    2.9625   -1.8458 H   0  0  0  0  0  0  0  0  0  0  0  0
   -7.5763    1.9185   -2.3400 H   0  0  0  0  0  0  0  0  0  0  0  0
   -7.2212    2.2240   -0.6505 H   0  0  0  0  0  0  0  0  0  0  0  0
   -6.9833   -0.0615   -0.1209 H   0  0  0  0  0  0  0  0  0  0  0  0
   -8.3409    0.0080   -1.2261 H   0  0  0  0  0  0  0  0  0  0  0  0
   -7.1005   -1.8117   -2.0105 H   0  0  0  0  0  0  0  0  0  0  0  0
   -6.6540   -0.5396   -3.1379 H   0  0  0  0  0  0  0  0  0  0  0  0
    0.3136   -1.8602    1.6563 H   0  0  0  0  0  0  0  0  0  0  0  0
  1  2  1  0
  2  3  1  0
  3  4  2  0
  4  5  1  0
  5  6  2  0
  6  7  1  0
  7  8  2  0
  2  9  1  0
  9 10  2  0
 10 11  1  0
 11 12  2  0
 12 13  1  0
 13 14  2  3
 14 15  1  0
 15 16  3  0
 14 17  1  0
 17 18  2  0
 18 19  1  0
 19 20  2  0
 20 21  1  0
 21 22  1  0
 22 23  1  0
 23 24  1  0
 24 25  1  0
 25 26  1  0
 12 27  1  0
 27 28  2  0
 28 29  1  0
 29 30  2  0
 29 31  1  0
  8  3  1  0
 28  9  1  0
 21 17  1  0
 26 20  1  0
  1 32  1  0
  1 33  1  0
  1 34  1  0
  4 35  1  0
  5 36  1  0
  6 37  1  0
  7 38  1  0
  8 39  1  0
 10 40  1  0
 11 41  1  0
 13 42  1  0
 22 43  1  0
 22 44  1  0
 23 45  1  0
 23 46  1  0
 24 47  1  0
 24 48  1  0
 25 49  1  0
 25 50  1  0
 26 51  1  0
 26 52  1  0
 27 53  1  0
M  CHG  2  29   1  31  -1
M  END
$$$$
