
     RDKit          3D

 43 45  0  0  0  0  0  0  0  0999 V2000
   -7.6082   -1.0821    1.1889 C   0  0  0  0  0  0  0  0  0  0  0  0
   -6.7894   -0.9204    0.1409 C   0  0  0  0  0  0  0  0  0  0  0  0
   -6.2065    0.3973   -0.2897 C   0  0  0  0  0  0  0  0  0  0  0  0
   -4.7928    0.4203    0.0488 N   0  0  0  0  0  0  0  0  0  0  0  0
   -4.4251    0.9871    1.2606 C   0  0  0  0  0  0  0  0  0  0  0  0
   -5.2106    1.4963    2.0574 O   0  0  0  0  0  0  0  0  0  0  0  0
   -3.0961    0.9743    1.5566 N   0  0  0  0  0  0  0  0  0  0  0  0
   -2.1255    0.4405    0.7300 C   0  0  0  0  0  0  0  0  0  0  0  0
   -0.8478    0.4986    1.1568 N   0  0  0  0  0  0  0  0  0  0  0  0
    0.0857   -0.0285    0.3340 C   0  0  0  0  0  0  0  0  0  0  0  0
    1.4204   -0.0042    0.7087 C   0  0  0  0  0  0  0  0  0  0  0  0
    2.4247   -0.5254   -0.1130 C   0  0  0  0  0  0  0  0  0  0  0  0
    3.7567   -0.4890    0.3237 N   0  0  0  0  0  0  0  0  0  0  0  0
    4.4215    0.5823    0.0370 C   0  0  0  0  0  0  0  0  0  0  0  0
    5.7363    0.8311    0.3593 N   0  0  0  0  0  0  0  0  0  0  0  0
    6.4243   -0.0641    1.2802 C   0  0  0  0  0  0  0  0  0  0  0  0
    6.2683    2.1806    0.2628 C   0  0  0  0  0  0  0  0  0  0  0  0
    2.0771   -1.1176   -1.3337 C   0  0  0  0  0  0  0  0  0  0  0  0
    3.1256   -1.7130   -2.2301 C   0  0  0  0  0  0  0  0  0  0  0  0
    0.7287   -1.1378   -1.7194 C   0  0  0  0  0  0  0  0  0  0  0  0
   -0.2680   -0.6063   -0.9128 C   0  0  0  0  0  0  0  0  0  0  0  0
   -1.5467   -0.6515   -1.3281 N   0  0  0  0  0  0  0  0  0  0  0  0
   -2.4659   -0.1204   -0.4835 C   0  0  0  0  0  0  0  0  0  0  0  0
   -3.8937   -0.1339   -0.8690 C   0  0  0  0  0  0  0  0  0  0  0  0
   -4.2380   -0.6143   -1.9472 O   0  0  0  0  0  0  0  0  0  0  0  0
   -7.8916   -0.2470    1.8239 H   0  0  0  0  0  0  0  0  0  0  0  0
   -8.0037   -2.0613    1.4407 H   0  0  0  0  0  0  0  0  0  0  0  0
   -6.5312   -1.7844   -0.4690 H   0  0  0  0  0  0  0  0  0  0  0  0
   -6.7267    1.2341    0.1905 H   0  0  0  0  0  0  0  0  0  0  0  0
   -6.3401    0.5151   -1.3710 H   0  0  0  0  0  0  0  0  0  0  0  0
   -2.8009    1.3757    2.4356 H   0  0  0  0  0  0  0  0  0  0  0  0
    1.6940    0.4278    1.6680 H   0  0  0  0  0  0  0  0  0  0  0  0
    3.9572    1.4184   -0.5210 H   0  0  0  0  0  0  0  0  0  0  0  0
    6.2656   -1.1118    1.0030 H   0  0  0  0  0  0  0  0  0  0  0  0
    7.5054    0.1107    1.2672 H   0  0  0  0  0  0  0  0  0  0  0  0
    6.0627    0.0889    2.3023 H   0  0  0  0  0  0  0  0  0  0  0  0
    5.9191    2.6749   -0.6500 H   0  0  0  0  0  0  0  0  0  0  0  0
    7.3627    2.1717    0.2283 H   0  0  0  0  0  0  0  0  0  0  0  0
    5.9516    2.7770    1.1246 H   0  0  0  0  0  0  0  0  0  0  0  0
    2.6748   -2.2405   -3.0774 H   0  0  0  0  0  0  0  0  0  0  0  0
    3.7723   -0.9257   -2.6303 H   0  0  0  0  0  0  0  0  0  0  0  0
    3.7332   -2.4392   -1.6804 H   0  0  0  0  0  0  0  0  0  0  0  0
    0.4406   -1.5843   -2.6695 H   0  0  0  0  0  0  0  0  0  0  0  0
  1  2  2  0
  2  3  1  0
  3  4  1  0
  4  5  1  0
  5  6  2  0
  5  7  1  0
  7  8  1  0
  8  9  2  0
  9 10  1  0
 10 11  2  0
 11 12  1  0
 12 13  1  0
 13 14  2  3
 14 15  1  0
 15 16  1  0
 15 17  1  0
 12 18  2  0
 18 19  1  0
 18 20  1  0
 20 21  2  0
 21 22  1  0
 22 23  2  0
 23 24  1  0
 24 25  2  0
 24  4  1  0
 23  8  1  0
 21 10  1  0
  1 26  1  0
  1 27  1  0
  2 28  1  0
  3 29  1  0
  3 30  1  0
  7 31  1  0
 11 32  1  0
 14 33  1  0
 16 34  1  0
 16 35  1  0
 16 36  1  0
 17 37  1  0
 17 38  1  0
 17 39  1  0
 19 40  1  0
 19 41  1  0
 19 42  1  0
 20 43  1  0
M  END
$$$$
