
     RDKit          3D

 48 48  0  0  0  0  0  0  0  0999 V2000
    3.4561    0.7537   -1.9976 C   0  0  0  0  0  0  0  0  0  0  0  0
    3.7311    1.0423   -0.5176 C   0  0  0  0  0  0  0  0  0  0  0  0
    2.7727    2.1190    0.0281 C   0  0  0  0  0  0  0  0  0  0  0  0
    1.3673    1.7740   -0.0688 N   0  0  0  0  0  0  0  0  0  0  0  0
    0.6768    1.2084    0.9832 C   0  0  0  0  0  0  0  0  0  0  0  0
    1.1844    0.9656    2.0723 O   0  0  0  0  0  0  0  0  0  0  0  0
   -0.7442    0.8495    0.7232 C   0  0  0  0  0  0  0  0  0  0  0  0
   -1.3044   -0.2105    1.4372 C   0  0  0  0  0  0  0  0  0  0  0  0
   -2.6355   -0.5809    1.2198 C   0  0  0  0  0  0  0  0  0  0  0  0
   -3.4479    0.1009    0.2924 C   0  0  0  0  0  0  0  0  0  0  0  0
   -4.9093   -0.3353    0.0816 C   0  0  0  0  0  0  0  0  0  0  0  0
   -5.6655    0.5024   -0.9742 C   0  0  0  0  0  0  0  0  0  0  0  0
   -5.6860   -0.2056    1.4096 C   0  0  0  0  0  0  0  0  0  0  0  0
   -4.9500   -1.8053   -0.3893 C   0  0  0  0  0  0  0  0  0  0  0  0
   -2.8692    1.1772   -0.4018 C   0  0  0  0  0  0  0  0  0  0  0  0
   -1.5354    1.5515   -0.1890 C   0  0  0  0  0  0  0  0  0  0  0  0
    3.6887   -0.2444    0.3378 C   0  0  0  0  0  0  0  0  0  0  0  0
    4.6550   -1.2824   -0.0817 N   0  0  0  0  0  0  0  0  0  0  0  0
    4.3466   -2.5447    0.5987 C   0  0  0  0  0  0  0  0  0  0  0  0
    6.0356   -0.8941    0.2153 C   0  0  0  0  0  0  0  0  0  0  0  0
    3.4367    1.6829   -2.5771 H   0  0  0  0  0  0  0  0  0  0  0  0
    4.2372    0.1178   -2.4267 H   0  0  0  0  0  0  0  0  0  0  0  0
    2.4960    0.2459   -2.1373 H   0  0  0  0  0  0  0  0  0  0  0  0
    4.7355    1.4780   -0.4492 H   0  0  0  0  0  0  0  0  0  0  0  0
    3.0205    2.3455    1.0715 H   0  0  0  0  0  0  0  0  0  0  0  0
    2.9003    3.0458   -0.5430 H   0  0  0  0  0  0  0  0  0  0  0  0
    0.9430    1.7905   -0.9860 H   0  0  0  0  0  0  0  0  0  0  0  0
   -0.7066   -0.7559    2.1649 H   0  0  0  0  0  0  0  0  0  0  0  0
   -3.0311   -1.4157    1.7950 H   0  0  0  0  0  0  0  0  0  0  0  0
   -5.1880    0.4365   -1.9589 H   0  0  0  0  0  0  0  0  0  0  0  0
   -5.7171    1.5598   -0.6894 H   0  0  0  0  0  0  0  0  0  0  0  0
   -6.6975    0.1509   -1.0924 H   0  0  0  0  0  0  0  0  0  0  0  0
   -5.2813   -0.8571    2.1919 H   0  0  0  0  0  0  0  0  0  0  0  0
   -6.7399   -0.4779    1.2794 H   0  0  0  0  0  0  0  0  0  0  0  0
   -5.6515    0.8231    1.7879 H   0  0  0  0  0  0  0  0  0  0  0  0
   -4.5321   -2.4914    0.3556 H   0  0  0  0  0  0  0  0  0  0  0  0
   -5.9792   -2.1305   -0.5817 H   0  0  0  0  0  0  0  0  0  0  0  0
   -4.3793   -1.9384   -1.3161 H   0  0  0  0  0  0  0  0  0  0  0  0
   -3.4414    1.7595   -1.1194 H   0  0  0  0  0  0  0  0  0  0  0  0
   -1.1449    2.4117   -0.7248 H   0  0  0  0  0  0  0  0  0  0  0  0
    3.8399    0.0071    1.3960 H   0  0  0  0  0  0  0  0  0  0  0  0
    2.6795   -0.6669    0.2533 H   0  0  0  0  0  0  0  0  0  0  0  0
    3.3369   -2.8848    0.3423 H   0  0  0  0  0  0  0  0  0  0  0  0
    4.4155   -2.4549    1.6890 H   0  0  0  0  0  0  0  0  0  0  0  0
    5.0316   -3.3355    0.2727 H   0  0  0  0  0  0  0  0  0  0  0  0
    6.1852   -0.6755    1.2788 H   0  0  0  0  0  0  0  0  0  0  0  0
    6.3362   -0.0174   -0.3661 H   0  0  0  0  0  0  0  0  0  0  0  0
    6.7287   -1.6943   -0.0695 H   0  0  0  0  0  0  0  0  0  0  0  0
  1  2  1  0
  2  3  1  0
  3  4  1  0
  4  5  1  0
  5  6  2  0
  5  7  1  0
  7  8  2  0
  8  9  1  0
  9 10  2  0
 10 11  1  0
 11 12  1  0
 11 13  1  0
 11 14  1  0
 10 15  1  0
 15 16  2  0
  2 17  1  0
 17 18  1  0
 18 19  1  0
 18 20  1  0
 16  7  1  0
  1 21  1  0
  1 22  1  0
  1 23  1  0
  2 24  1  0
  3 25  1  0
  3 26  1  0
  4 27  1  0
  8 28  1  0
  9 29  1  0
 12 30  1  0
 12 31  1  0
 12 32  1  0
 13 33  1  0
 13 34  1  0
 13 35  1  0
 14 36  1  0
 14 37  1  0
 14 38  1  0
 15 39  1  0
 16 40  1  0
 17 41  1  0
 17 42  1  0
 19 43  1  0
 19 44  1  0
 19 45  1  0
 20 46  1  0
 20 47  1  0
 20 48  1  0
M  END
$$$$
