
     RDKit          3D

 48 50  0  0  0  0  0  0  0  0999 V2000
    5.5776   -1.6413    3.2724 C   0  0  0  0  0  0  0  0  0  0  0  0
    4.8497   -0.6737    2.3758 C   0  0  0  0  0  0  0  0  0  0  0  0
    5.5035    0.4966    1.9728 C   0  0  0  0  0  0  0  0  0  0  0  0
    4.8846    1.4272    1.1372 C   0  0  0  0  0  0  0  0  0  0  0  0
    3.5786    1.1602    0.7073 C   0  0  0  0  0  0  0  0  0  0  0  0
    2.5728    2.0989   -0.3241 S   0  0  0  0  0  0  0  0  0  0  0  0
    1.3082    0.9618   -0.1485 C   0  0  0  0  0  0  0  0  0  0  0  0
    0.1029    1.0941   -0.8473 N   0  0  0  0  0  0  0  0  0  0  0  0
   -0.8299   -0.0500   -0.8315 C   0  0  0  0  0  0  0  0  0  0  0  0
   -1.7162   -0.0425    0.4197 C   0  0  0  0  0  0  0  0  0  0  0  0
   -2.6349   -1.2673    0.4887 C   0  0  0  0  0  0  0  0  0  0  0  0
   -3.5279   -1.4079   -0.6732 N   0  0  0  0  0  0  0  0  0  0  0  0
   -4.5641   -0.3717   -0.6982 C   0  0  0  0  0  0  0  0  0  0  0  0
   -4.1590   -2.7317   -0.6616 C   0  0  0  0  0  0  0  0  0  0  0  0
   -0.3538    2.3730   -1.2150 C   0  0  0  0  0  0  0  0  0  0  0  0
   -0.0210    3.4050   -0.6309 O   0  0  0  0  0  0  0  0  0  0  0  0
   -1.3286    2.4458   -2.2968 C   0  0  0  0  0  0  0  0  0  0  0  0
   -2.5305    3.1320   -2.3032 C   0  0  0  0  0  0  0  0  0  0  0  0
   -3.2171    3.0115   -3.5488 C   0  0  0  0  0  0  0  0  0  0  0  0
   -2.4853    2.2759   -4.4460 C   0  0  0  0  0  0  0  0  0  0  0  0
   -3.0752    1.8876   -6.2214 Br  0  0  0  0  0  0  0  0  0  0  0  0
   -0.9909    1.7615   -3.8352 S   0  0  0  0  0  0  0  0  0  0  0  0
    1.6071   -0.0960    0.5729 N   0  0  0  0  0  0  0  0  0  0  0  0
    2.8923    0.0087    1.0885 C   0  0  0  0  0  0  0  0  0  0  0  0
    3.5258   -0.9401    1.9356 C   0  0  0  0  0  0  0  0  0  0  0  0
    2.8102   -2.1908    2.3775 C   0  0  0  0  0  0  0  0  0  0  0  0
    6.5634   -1.2603    3.5612 H   0  0  0  0  0  0  0  0  0  0  0  0
    5.7306   -2.5936    2.7556 H   0  0  0  0  0  0  0  0  0  0  0  0
    5.0105   -1.8089    4.1931 H   0  0  0  0  0  0  0  0  0  0  0  0
    6.5197    0.6986    2.3096 H   0  0  0  0  0  0  0  0  0  0  0  0
    5.4014    2.3313    0.8312 H   0  0  0  0  0  0  0  0  0  0  0  0
   -0.2509   -0.9801   -0.8933 H   0  0  0  0  0  0  0  0  0  0  0  0
   -1.4621   -0.0311   -1.7206 H   0  0  0  0  0  0  0  0  0  0  0  0
   -2.2999    0.8839    0.4632 H   0  0  0  0  0  0  0  0  0  0  0  0
   -1.0863   -0.0385    1.3178 H   0  0  0  0  0  0  0  0  0  0  0  0
   -3.2137   -1.2349    1.4210 H   0  0  0  0  0  0  0  0  0  0  0  0
   -1.9871   -2.1517    0.5549 H   0  0  0  0  0  0  0  0  0  0  0  0
   -5.2235   -0.5108   -1.5628 H   0  0  0  0  0  0  0  0  0  0  0  0
   -4.1270    0.6256   -0.8112 H   0  0  0  0  0  0  0  0  0  0  0  0
   -5.1803   -0.3814    0.2087 H   0  0  0  0  0  0  0  0  0  0  0  0
   -4.7688   -2.8916    0.2353 H   0  0  0  0  0  0  0  0  0  0  0  0
   -4.7974   -2.8619   -1.5420 H   0  0  0  0  0  0  0  0  0  0  0  0
   -3.4006   -3.5205   -0.7094 H   0  0  0  0  0  0  0  0  0  0  0  0
   -2.8993    3.6842   -1.4467 H   0  0  0  0  0  0  0  0  0  0  0  0
   -4.1838    3.4510   -3.7637 H   0  0  0  0  0  0  0  0  0  0  0  0
    2.6527   -2.1707    3.4605 H   0  0  0  0  0  0  0  0  0  0  0  0
    3.3925   -3.0789    2.1110 H   0  0  0  0  0  0  0  0  0  0  0  0
    1.8312   -2.2868    1.8997 H   0  0  0  0  0  0  0  0  0  0  0  0
  1  2  1  0
  2  3  2  0
  3  4  1  0
  4  5  2  0
  5  6  1  0
  6  7  1  0
  7  8  1  0
  8  9  1  0
  9 10  1  0
 10 11  1  0
 11 12  1  0
 12 13  1  0
 12 14  1  0
  8 15  1  0
 15 16  2  0
 15 17  1  0
 17 18  2  0
 18 19  1  0
 19 20  2  0
 20 21  1  0
 20 22  1  0
  7 23  2  0
 23 24  1  0
 24 25  2  0
 25 26  1  0
 25  2  1  0
 24  5  1  0
 22 17  1  0
  1 27  1  0
  1 28  1  0
  1 29  1  0
  3 30  1  0
  4 31  1  0
  9 32  1  0
  9 33  1  0
 10 34  1  0
 10 35  1  0
 11 36  1  0
 11 37  1  0
 13 38  1  0
 13 39  1  0
 13 40  1  0
 14 41  1  0
 14 42  1  0
 14 43  1  0
 18 44  1  0
 19 45  1  0
 26 46  1  0
 26 47  1  0
 26 48  1  0
M  END
$$$$
