
     RDKit          3D

 50 52  0  0  0  0  0  0  0  0999 V2000
   10.1122   -1.1376    0.8926 C   0  0  0  0  0  0  0  0  0  0  0  0
    8.8992   -0.8622    1.7692 C   0  0  0  0  0  0  0  0  0  0  0  0
    7.8616   -0.0613    1.0535 C   0  0  0  0  0  0  0  0  0  0  0  0
    8.0924    1.0314    0.3529 N   0  0  0  0  0  0  0  0  0  0  0  0
    6.9341    1.5694   -0.1720 N   0  0  0  0  0  0  0  0  0  0  0  0
    5.8854    0.8416    0.1220 C   0  0  0  0  0  0  0  0  0  0  0  0
    4.5588    1.2950   -0.2615 N   0  0  0  0  0  0  0  0  0  0  0  0
    4.0123    0.4664   -1.6300 S   0  0  0  0  0  6  0  0  0  0  0  0
    4.4212   -0.9194   -1.6016 O   0  0  0  0  0  0  0  0  0  0  0  0
    4.2824    1.3151   -2.7714 O   0  0  0  0  0  0  0  0  0  0  0  0
    2.2585    0.5005   -1.3406 C   0  0  0  0  0  0  0  0  0  0  0  0
    1.4709    1.4735   -1.9511 C   0  0  0  0  0  0  0  0  0  0  0  0
    0.0930    1.4777   -1.7209 C   0  0  0  0  0  0  0  0  0  0  0  0
   -0.5144    0.5166   -0.8924 C   0  0  0  0  0  0  0  0  0  0  0  0
   -1.9109    0.6461   -0.7357 N   0  0  0  0  0  0  0  0  0  0  0  0
   -2.8725   -0.0560   -0.0478 C   0  0  0  0  0  0  0  0  0  0  0  0
   -2.7331   -1.4280    0.8925 S   0  0  0  0  0  0  0  0  0  0  0  0
   -4.1566    0.4672   -0.1586 N   0  0  0  0  0  0  0  0  0  0  0  0
   -4.5829    1.5793   -0.8467 C   0  0  0  0  0  0  0  0  0  0  0  0
   -3.8260    2.3117   -1.4860 O   0  0  0  0  0  0  0  0  0  0  0  0
   -6.0262    1.9373   -0.7880 C   0  0  0  0  0  0  0  0  0  0  0  0
   -7.1040    1.3102   -0.2932 C   0  0  0  0  0  0  0  0  0  0  0  0
   -7.1640    0.0104    0.3649 C   0  0  0  0  0  0  0  0  0  0  0  0
   -7.2481   -1.1621   -0.3946 C   0  0  0  0  0  0  0  0  0  0  0  0
   -7.2661   -2.4046    0.2390 C   0  0  0  0  0  0  0  0  0  0  0  0
   -7.2052   -2.4790    1.6299 C   0  0  0  0  0  0  0  0  0  0  0  0
   -7.1344   -1.3116    2.3909 C   0  0  0  0  0  0  0  0  0  0  0  0
   -7.1151   -0.0676    1.7602 C   0  0  0  0  0  0  0  0  0  0  0  0
    0.2921   -0.4579   -0.3043 C   0  0  0  0  0  0  0  0  0  0  0  0
    1.6751   -0.4728   -0.5294 C   0  0  0  0  0  0  0  0  0  0  0  0
    6.1963   -0.5031    1.1268 S   0  0  0  0  0  0  0  0  0  0  0  0
   10.8364   -1.7568    1.4319 H   0  0  0  0  0  0  0  0  0  0  0  0
    9.8291   -1.6646   -0.0259 H   0  0  0  0  0  0  0  0  0  0  0  0
   10.6142   -0.2053    0.6064 H   0  0  0  0  0  0  0  0  0  0  0  0
    9.2143   -0.3080    2.6623 H   0  0  0  0  0  0  0  0  0  0  0  0
    8.4876   -1.8194    2.1139 H   0  0  0  0  0  0  0  0  0  0  0  0
    4.6620    2.2738   -0.5351 H   0  0  0  0  0  0  0  0  0  0  0  0
    1.9067    2.2231   -2.6079 H   0  0  0  0  0  0  0  0  0  0  0  0
   -0.5089    2.2456   -2.2077 H   0  0  0  0  0  0  0  0  0  0  0  0
   -2.3055    1.4426   -1.2403 H   0  0  0  0  0  0  0  0  0  0  0  0
   -4.8337   -0.0688    0.3626 H   0  0  0  0  0  0  0  0  0  0  0  0
   -6.1975    2.9042   -1.2617 H   0  0  0  0  0  0  0  0  0  0  0  0
   -8.0725    1.8010   -0.3805 H   0  0  0  0  0  0  0  0  0  0  0  0
   -7.3001   -1.1171   -1.4816 H   0  0  0  0  0  0  0  0  0  0  0  0
   -7.3296   -3.3157   -0.3517 H   0  0  0  0  0  0  0  0  0  0  0  0
   -7.2190   -3.4487    2.1228 H   0  0  0  0  0  0  0  0  0  0  0  0
   -7.0917   -1.3731    3.4749 H   0  0  0  0  0  0  0  0  0  0  0  0
   -7.0565    0.8348    2.3656 H   0  0  0  0  0  0  0  0  0  0  0  0
   -0.1058   -1.2276    0.3456 H   0  0  0  0  0  0  0  0  0  0  0  0
    2.2842   -1.2463   -0.0624 H   0  0  0  0  0  0  0  0  0  0  0  0
  1  2  1  0
  2  3  1  0
  3  4  2  0
  4  5  1  0
  5  6  2  0
  6  7  1  0
  7  8  1  0
  8  9  2  0
  8 10  2  0
  8 11  1  0
 11 12  2  0
 12 13  1  0
 13 14  2  0
 14 15  1  0
 15 16  1  0
 16 17  2  0
 16 18  1  0
 18 19  1  0
 19 20  2  0
 19 21  1  0
 21 22  2  3
 22 23  1  0
 23 24  2  0
 24 25  1  0
 25 26  2  0
 26 27  1  0
 27 28  2  0
 14 29  1  0
 29 30  2  0
  6 31  1  0
 31  3  1  0
 30 11  1  0
 28 23  1  0
  1 32  1  0
  1 33  1  0
  1 34  1  0
  2 35  1  0
  2 36  1  0
  7 37  1  0
 12 38  1  0
 13 39  1  0
 15 40  1  0
 18 41  1  0
 21 42  1  0
 22 43  1  0
 24 44  1  0
 25 45  1  0
 26 46  1  0
 27 47  1  0
 28 48  1  0
 29 49  1  0
 30 50  1  0
M  END
$$$$
