
     RDKit          3D

 29 31  0  0  0  0  0  0  0  0999 V2000
   -4.5242    1.7555   -1.3287 O   0  0  0  0  0  0  0  0  0  0  0  0
   -4.4062    0.7035   -1.9359 C   0  0  0  0  0  0  0  0  0  0  0  0
   -5.2506    0.2809   -2.9231 N   0  0  0  0  0  0  0  0  0  0  0  0
   -4.9921   -0.9145   -3.5175 C   0  0  0  0  0  0  0  0  0  0  0  0
   -5.9192   -1.5608   -4.7263 S   0  0  0  0  0  0  0  0  0  0  0  0
   -3.5621   -1.6263   -2.8085 S   0  0  0  0  0  0  0  0  0  0  0  0
   -3.3332   -0.3088   -1.7196 C   0  0  0  0  0  0  0  0  0  0  0  0
   -2.3789   -0.0887   -0.8075 C   0  0  0  0  0  0  0  0  0  0  0  0
   -1.2812   -0.9354   -0.4859 C   0  0  0  0  0  0  0  0  0  0  0  0
   -1.0629   -2.3005   -0.6296 C   0  0  0  0  0  0  0  0  0  0  0  0
    0.2214   -2.5986   -0.1122 C   0  0  0  0  0  0  0  0  0  0  0  0
    0.7428   -1.4126    0.3464 C   0  0  0  0  0  0  0  0  0  0  0  0
    2.2920   -1.1458    1.0955 S   0  0  0  0  0  0  0  0  0  0  0  0
    2.1711    0.6238    1.4905 C   0  0  0  0  0  0  0  0  0  0  0  0
    3.4145    1.1022    2.1463 C   0  0  0  0  0  0  0  0  0  0  0  0
    4.6788    1.4051    1.6810 C   0  0  0  0  0  0  0  0  0  0  0  0
    5.4290    1.8256    2.8054 C   0  0  0  0  0  0  0  0  0  0  0  0
    4.5769    1.7570    3.8820 C   0  0  0  0  0  0  0  0  0  0  0  0
    3.3511    1.3236    3.4920 O   0  0  0  0  0  0  0  0  0  0  0  0
   -0.1601   -0.4178    0.1305 O   0  0  0  0  0  0  0  0  0  0  0  0
   -6.0369    0.8513   -3.1958 H   0  0  0  0  0  0  0  0  0  0  0  0
   -2.4022    0.8503   -0.2552 H   0  0  0  0  0  0  0  0  0  0  0  0
   -1.7510   -3.0208   -1.0483 H   0  0  0  0  0  0  0  0  0  0  0  0
    0.7038   -3.5652   -0.0702 H   0  0  0  0  0  0  0  0  0  0  0  0
    2.0081    1.1917    0.5680 H   0  0  0  0  0  0  0  0  0  0  0  0
    1.3100    0.7912    2.1467 H   0  0  0  0  0  0  0  0  0  0  0  0
    5.0155    1.3251    0.6566 H   0  0  0  0  0  0  0  0  0  0  0  0
    6.4632    2.1383    2.8300 H   0  0  0  0  0  0  0  0  0  0  0  0
    4.6825    1.9708    4.9365 H   0  0  0  0  0  0  0  0  0  0  0  0
  1  2  2  0
  2  3  1  0
  3  4  1  0
  4  5  2  0
  4  6  1  0
  6  7  1  0
  7  8  2  3
  8  9  1  0
  9 10  2  0
 10 11  1  0
 11 12  2  0
 12 13  1  0
 13 14  1  0
 14 15  1  0
 15 16  2  0
 16 17  1  0
 17 18  2  0
 18 19  1  0
 12 20  1  0
  7  2  1  0
 20  9  1  0
 19 15  1  0
  3 21  1  0
  8 22  1  0
 10 23  1  0
 11 24  1  0
 14 25  1  0
 14 26  1  0
 16 27  1  0
 17 28  1  0
 18 29  1  0
M  END
$$$$
