
     RDKit          3D

 50 53  0  0  0  0  0  0  0  0999 V2000
    2.1597    3.7276    0.4836 C   0  0  0  0  0  0  0  0  0  0  0  0
    0.7467    3.2259    0.7573 C   0  0  0  0  0  0  0  0  0  0  0  0
    0.4999    1.7373    0.6151 C   0  0  0  0  0  0  0  0  0  0  0  0
    1.5016    0.8326    0.2298 C   0  0  0  0  0  0  0  0  0  0  0  0
    1.2408   -0.5404    0.1131 C   0  0  0  0  0  0  0  0  0  0  0  0
    2.2857   -1.5005   -0.2818 C   0  0  0  0  0  0  0  0  0  0  0  0
    3.6831   -1.1659   -0.6178 C   0  0  0  0  0  0  0  0  0  0  0  0
    4.0316   -0.8343   -1.9333 C   0  0  0  0  0  0  0  0  0  0  0  0
    5.3533   -0.5159   -2.2498 C   0  0  0  0  0  0  0  0  0  0  0  0
    6.3313   -0.5274   -1.2558 C   0  0  0  0  0  0  0  0  0  0  0  0
    5.9908   -0.8565    0.0558 C   0  0  0  0  0  0  0  0  0  0  0  0
    4.6701   -1.1755    0.3759 C   0  0  0  0  0  0  0  0  0  0  0  0
    1.9607   -2.8005   -0.3519 C   0  0  0  0  0  0  0  0  0  0  0  0
    0.6180   -3.3105   -0.0537 C   0  0  0  0  0  0  0  0  0  0  0  0
    0.3683   -4.5079   -0.1261 O   0  0  0  0  0  0  0  0  0  0  0  0
   -0.3389   -2.3791    0.3075 O   0  0  0  0  0  0  0  0  0  0  0  0
   -0.0490   -0.9992    0.3898 C   0  0  0  0  0  0  0  0  0  0  0  0
   -1.0926   -0.1372    0.7616 C   0  0  0  0  0  0  0  0  0  0  0  0
   -2.4597   -0.6877    1.1209 C   0  0  0  0  0  0  0  0  0  0  0  0
   -3.5785    0.1673    0.6567 N   0  0  0  0  0  0  0  0  0  0  0  0
   -3.6889    0.1182   -0.8285 C   0  0  0  0  0  0  0  0  0  0  0  0
   -5.1132    0.4305   -1.3109 C   0  0  0  0  0  0  0  0  0  0  0  0
   -6.0698   -0.5422   -0.8691 O   0  0  0  0  0  0  0  0  0  0  0  0
   -5.7116   -1.1641    0.3715 C   0  0  0  0  0  0  0  0  0  0  0  0
   -4.8615   -0.2553    1.2723 C   0  0  0  0  0  0  0  0  0  0  0  0
   -0.7861    1.2303    0.8734 C   0  0  0  0  0  0  0  0  0  0  0  0
   -1.7574    2.1305    1.2365 O   0  0  0  0  0  0  0  0  0  0  0  0
    2.8843    3.2716    1.1663 H   0  0  0  0  0  0  0  0  0  0  0  0
    2.4678    3.5121   -0.5449 H   0  0  0  0  0  0  0  0  0  0  0  0
    2.2056    4.8125    0.6247 H   0  0  0  0  0  0  0  0  0  0  0  0
    0.0669    3.7517    0.0749 H   0  0  0  0  0  0  0  0  0  0  0  0
    0.4814    3.5200    1.7808 H   0  0  0  0  0  0  0  0  0  0  0  0
    2.5038    1.1982    0.0208 H   0  0  0  0  0  0  0  0  0  0  0  0
    3.2773   -0.8193   -2.7167 H   0  0  0  0  0  0  0  0  0  0  0  0
    5.6203   -0.2589   -3.2717 H   0  0  0  0  0  0  0  0  0  0  0  0
    7.3605   -0.2794   -1.5037 H   0  0  0  0  0  0  0  0  0  0  0  0
    6.7544   -0.8645    0.8296 H   0  0  0  0  0  0  0  0  0  0  0  0
    4.4163   -1.4273    1.4033 H   0  0  0  0  0  0  0  0  0  0  0  0
    2.6785   -3.5632   -0.6361 H   0  0  0  0  0  0  0  0  0  0  0  0
   -2.4751   -0.7436    2.2177 H   0  0  0  0  0  0  0  0  0  0  0  0
   -2.5995   -1.7104    0.7516 H   0  0  0  0  0  0  0  0  0  0  0  0
   -3.4186   -0.8782   -1.2025 H   0  0  0  0  0  0  0  0  0  0  0  0
   -2.9928    0.8419   -1.2659 H   0  0  0  0  0  0  0  0  0  0  0  0
   -5.4380    1.4174   -0.9611 H   0  0  0  0  0  0  0  0  0  0  0  0
   -5.1452    0.4465   -2.4051 H   0  0  0  0  0  0  0  0  0  0  0  0
   -5.1816   -2.0971    0.1475 H   0  0  0  0  0  0  0  0  0  0  0  0
   -6.6421   -1.4336    0.8815 H   0  0  0  0  0  0  0  0  0  0  0  0
   -4.7058   -0.7290    2.2485 H   0  0  0  0  0  0  0  0  0  0  0  0
   -5.4312    0.6621    1.4679 H   0  0  0  0  0  0  0  0  0  0  0  0
   -2.6215    1.6707    1.1505 H   0  0  0  0  0  0  0  0  0  0  0  0
  1  2  1  0
  2  3  1  0
  3  4  2  0
  4  5  1  0
  5  6  1  0
  6  7  1  0
  7  8  2  0
  8  9  1  0
  9 10  2  0
 10 11  1  0
 11 12  2  0
  6 13  2  0
 13 14  1  0
 14 15  2  0
 14 16  1  0
 16 17  1  0
 17 18  1  0
 18 19  1  0
 19 20  1  0
 20 21  1  0
 21 22  1  0
 22 23  1  0
 23 24  1  0
 24 25  1  0
 18 26  2  0
 26 27  1  0
 26  3  1  0
 17  5  2  0
 25 20  1  0
 12  7  1  0
  1 28  1  0
  1 29  1  0
  1 30  1  0
  2 31  1  0
  2 32  1  0
  4 33  1  0
  8 34  1  0
  9 35  1  0
 10 36  1  0
 11 37  1  0
 12 38  1  0
 13 39  1  0
 19 40  1  0
 19 41  1  0
 21 42  1  0
 21 43  1  0
 22 44  1  0
 22 45  1  0
 24 46  1  0
 24 47  1  0
 25 48  1  0
 25 49  1  0
 27 50  1  0
M  END
$$$$
