
     RDKit          3D

 48 50  0  0  0  0  0  0  0  0999 V2000
    5.8960   -2.1750    0.2659 C   0  0  0  0  0  0  0  0  0  0  0  0
    5.5929   -1.2242   -0.8844 C   0  0  0  0  0  0  0  0  0  0  0  0
    4.7416   -0.1085   -0.4453 N   0  0  0  0  0  0  0  0  0  0  0  0
    5.0360    1.1984   -1.0639 C   0  0  0  0  0  0  0  0  0  0  0  0
    4.5419    1.2755   -2.5031 C   0  0  0  0  0  0  0  0  0  0  0  0
    3.4004   -0.3307   -0.1069 C   0  0  0  0  0  0  0  0  0  0  0  0
    2.7239    0.5814    0.7213 C   0  0  0  0  0  0  0  0  0  0  0  0
    1.3829    0.4032    1.0837 C   0  0  0  0  0  0  0  0  0  0  0  0
    0.6766   -0.7058    0.6238 C   0  0  0  0  0  0  0  0  0  0  0  0
   -0.7194   -0.9033    1.0168 C   0  0  0  0  0  0  0  0  0  0  0  0
   -1.8193   -0.6015    0.2973 C   0  0  0  0  0  0  0  0  0  0  0  0
   -1.7848    0.0169   -1.0457 C   0  0  0  0  0  0  0  0  0  0  0  0
   -0.7804    0.4323   -1.6090 O   0  0  0  0  0  0  0  0  0  0  0  0
   -3.0007    0.1234   -1.6531 N   0  0  0  0  0  0  0  0  0  0  0  0
   -4.2226    0.0061   -1.0641 C   0  0  0  0  0  0  0  0  0  0  0  0
   -5.2222    0.3592   -1.6885 O   0  0  0  0  0  0  0  0  0  0  0  0
   -4.2518   -0.5047    0.2154 N   0  0  0  0  0  0  0  0  0  0  0  0
   -5.5525   -0.6339    0.8581 C   0  0  0  0  0  0  0  0  0  0  0  0
   -5.9176    0.6682    1.4837 C   0  0  0  0  0  0  0  0  0  0  0  0
   -6.6824    1.7382    1.0654 C   0  0  0  0  0  0  0  0  0  0  0  0
   -6.6430    2.6905    2.1118 C   0  0  0  0  0  0  0  0  0  0  0  0
   -5.8576    2.1432    3.0986 C   0  0  0  0  0  0  0  0  0  0  0  0
   -5.4107    0.9171    2.7253 O   0  0  0  0  0  0  0  0  0  0  0  0
   -3.1348   -0.9190    0.9223 C   0  0  0  0  0  0  0  0  0  0  0  0
   -3.2002   -1.5282    1.9891 O   0  0  0  0  0  0  0  0  0  0  0  0
    1.3273   -1.6351   -0.1863 C   0  0  0  0  0  0  0  0  0  0  0  0
    2.6707   -1.4472   -0.5410 C   0  0  0  0  0  0  0  0  0  0  0  0
    4.9948   -2.6717    0.6369 H   0  0  0  0  0  0  0  0  0  0  0  0
    6.3517   -1.6386    1.1050 H   0  0  0  0  0  0  0  0  0  0  0  0
    6.5946   -2.9515   -0.0616 H   0  0  0  0  0  0  0  0  0  0  0  0
    5.1607   -1.7567   -1.7386 H   0  0  0  0  0  0  0  0  0  0  0  0
    6.5557   -0.8324   -1.2365 H   0  0  0  0  0  0  0  0  0  0  0  0
    6.1205    1.3641   -1.0507 H   0  0  0  0  0  0  0  0  0  0  0  0
    4.6143    2.0280   -0.4861 H   0  0  0  0  0  0  0  0  0  0  0  0
    4.8106    2.2418   -2.9415 H   0  0  0  0  0  0  0  0  0  0  0  0
    3.4536    1.1716   -2.5594 H   0  0  0  0  0  0  0  0  0  0  0  0
    4.9876    0.4890   -3.1204 H   0  0  0  0  0  0  0  0  0  0  0  0
    3.2510    1.4417    1.1250 H   0  0  0  0  0  0  0  0  0  0  0  0
    0.9074    1.1370    1.7290 H   0  0  0  0  0  0  0  0  0  0  0  0
   -0.8162   -1.3459    2.0085 H   0  0  0  0  0  0  0  0  0  0  0  0
   -2.9954    0.5723   -2.5582 H   0  0  0  0  0  0  0  0  0  0  0  0
   -5.5402   -1.4229    1.6177 H   0  0  0  0  0  0  0  0  0  0  0  0
   -6.3077   -0.9149    0.1147 H   0  0  0  0  0  0  0  0  0  0  0  0
   -7.1966    1.8190    0.1167 H   0  0  0  0  0  0  0  0  0  0  0  0
   -7.1251    3.6574    2.1433 H   0  0  0  0  0  0  0  0  0  0  0  0
   -5.5356    2.4802    4.0743 H   0  0  0  0  0  0  0  0  0  0  0  0
    0.8022   -2.5118   -0.5557 H   0  0  0  0  0  0  0  0  0  0  0  0
    3.1219   -2.1921   -1.1878 H   0  0  0  0  0  0  0  0  0  0  0  0
  1  2  1  0
  2  3  1  0
  3  4  1  0
  4  5  1  0
  3  6  1  0
  6  7  2  0
  7  8  1  0
  8  9  2  0
  9 10  1  0
 10 11  2  3
 11 12  1  0
 12 13  2  0
 12 14  1  0
 14 15  1  0
 15 16  2  0
 15 17  1  0
 17 18  1  0
 18 19  1  0
 19 20  2  0
 20 21  1  0
 21 22  2  0
 22 23  1  0
 17 24  1  0
 24 25  2  0
  9 26  1  0
 26 27  2  0
 27  6  1  0
 24 11  1  0
 23 19  1  0
  1 28  1  0
  1 29  1  0
  1 30  1  0
  2 31  1  0
  2 32  1  0
  4 33  1  0
  4 34  1  0
  5 35  1  0
  5 36  1  0
  5 37  1  0
  7 38  1  0
  8 39  1  0
 10 40  1  0
 14 41  1  0
 18 42  1  0
 18 43  1  0
 20 44  1  0
 21 45  1  0
 22 46  1  0
 26 47  1  0
 27 48  1  0
M  END
$$$$
