
     RDKit          3D

 37 39  0  0  0  0  0  0  0  0999 V2000
   -0.9668    0.8225    2.0727 O   0  0  0  0  0  0  0  0  0  0  0  0
   -0.5702   -0.0953    1.3666 C   0  0  0  0  0  0  0  0  0  0  0  0
    0.7220   -0.0640    0.6331 C   0  0  0  0  0  0  0  0  0  0  0  0
    1.5141    1.0161    0.6457 C   0  0  0  0  0  0  0  0  0  0  0  0
    2.7900    1.1578   -0.0693 C   0  0  0  0  0  0  0  0  0  0  0  0
    3.9005    0.3896    0.3048 C   0  0  0  0  0  0  0  0  0  0  0  0
    5.1129    0.5400   -0.3832 C   0  0  0  0  0  0  0  0  0  0  0  0
    6.2741   -0.2697    0.0070 N   0  0  0  0  0  4  0  0  0  0  0  0
    6.1422   -1.0431    0.9659 O   0  0  0  0  0  0  0  0  0  0  0  0
    7.3187   -0.1287   -0.6445 O   0  0  0  0  0  1  0  0  0  0  0  0
    5.2300    1.4574   -1.4367 C   0  0  0  0  0  0  0  0  0  0  0  0
    4.1274    2.2322   -1.8021 C   0  0  0  0  0  0  0  0  0  0  0  0
    2.9200    2.0817   -1.1182 C   0  0  0  0  0  0  0  0  0  0  0  0
    1.8376    2.8407   -1.4705 O   0  0  0  0  0  0  0  0  0  0  0  0
    0.9683   -1.5463   -0.1943 S   0  0  0  0  0  0  0  0  0  0  0  0
   -0.5611   -2.2189    0.3613 C   0  0  0  0  0  0  0  0  0  0  0  0
   -1.0328   -3.7664   -0.0468 S   0  0  0  0  0  0  0  0  0  0  0  0
   -1.2209   -1.2968    1.1463 N   0  0  0  0  0  0  0  0  0  0  0  0
   -2.5309   -1.5064    1.7591 C   0  0  0  0  0  0  0  0  0  0  0  0
   -3.6664   -1.0831    0.8491 C   0  0  0  0  0  0  0  0  0  0  0  0
   -3.9709    0.2766    0.6747 C   0  0  0  0  0  0  0  0  0  0  0  0
   -5.0075    0.6716   -0.1746 C   0  0  0  0  0  0  0  0  0  0  0  0
   -5.7490   -0.2899   -0.8555 C   0  0  0  0  0  0  0  0  0  0  0  0
   -7.0245    0.1958   -1.9026 Cl  0  0  0  0  0  0  0  0  0  0  0  0
   -5.4643   -1.6430   -0.6917 C   0  0  0  0  0  0  0  0  0  0  0  0
   -4.4279   -2.0383    0.1584 C   0  0  0  0  0  0  0  0  0  0  0  0
    1.2000    1.9103    1.1827 H   0  0  0  0  0  0  0  0  0  0  0  0
    3.8147   -0.3188    1.1269 H   0  0  0  0  0  0  0  0  0  0  0  0
    6.1673    1.5811   -1.9761 H   0  0  0  0  0  0  0  0  0  0  0  0
    4.2273    2.9440   -2.6169 H   0  0  0  0  0  0  0  0  0  0  0  0
    2.0723    3.4102   -2.2219 H   0  0  0  0  0  0  0  0  0  0  0  0
   -2.6461   -2.5583    2.0424 H   0  0  0  0  0  0  0  0  0  0  0  0
   -2.5978   -0.9350    2.6935 H   0  0  0  0  0  0  0  0  0  0  0  0
   -3.4054    1.0426    1.2036 H   0  0  0  0  0  0  0  0  0  0  0  0
   -5.2295    1.7284   -0.2979 H   0  0  0  0  0  0  0  0  0  0  0  0
   -6.0430   -2.3952   -1.2215 H   0  0  0  0  0  0  0  0  0  0  0  0
   -4.2243   -3.1013    0.2742 H   0  0  0  0  0  0  0  0  0  0  0  0
  1  2  2  0
  2  3  1  0
  3  4  2  3
  4  5  1  0
  5  6  2  0
  6  7  1  0
  7  8  1  0
  8  9  2  0
  8 10  1  0
  7 11  2  0
 11 12  1  0
 12 13  2  0
 13 14  1  0
  3 15  1  0
 15 16  1  0
 16 17  2  0
 16 18  1  0
 18 19  1  0
 19 20  1  0
 20 21  2  0
 21 22  1  0
 22 23  2  0
 23 24  1  0
 23 25  1  0
 25 26  2  0
 18  2  1  0
 26 20  1  0
 13  5  1  0
  4 27  1  0
  6 28  1  0
 11 29  1  0
 12 30  1  0
 14 31  1  0
 19 32  1  0
 19 33  1  0
 21 34  1  0
 22 35  1  0
 25 36  1  0
 26 37  1  0
M  CHG  2   8   1  10  -1
M  END
$$$$
