
     RDKit          3D

 53 56  0  0  0  0  0  0  0  0999 V2000
   -6.4460    0.0534    3.1228 C   0  0  0  0  0  0  0  0  0  0  0  0
   -6.1046   -0.8819    2.1039 O   0  0  0  0  0  0  0  0  0  0  0  0
   -6.6229   -0.5020    0.8328 C   0  0  0  0  0  0  0  0  0  0  0  0
   -5.7727   -1.1600   -0.2437 C   0  0  0  0  0  0  0  0  0  0  0  0
   -6.2737   -0.8920   -1.6613 C   0  0  0  0  0  0  0  0  0  0  0  0
   -5.0308   -1.1189   -2.5073 C   0  0  0  0  0  0  0  0  0  0  0  0
   -3.9389   -0.6647   -1.6678 N   0  0  0  0  0  0  0  0  0  0  0  0
   -2.7136   -0.3164   -2.2267 C   0  0  0  0  0  0  0  0  0  0  0  0
   -2.5339   -0.4305   -3.4428 O   0  0  0  0  0  0  0  0  0  0  0  0
   -1.6326    0.2224   -1.3808 C   0  0  0  0  0  0  0  0  0  0  0  0
   -0.3959    0.7478   -1.8594 C   0  0  0  0  0  0  0  0  0  0  0  0
    0.2827    1.1520   -0.7376 C   0  0  0  0  0  0  0  0  0  0  0  0
    1.5956    1.7871   -0.4782 C   0  0  0  0  0  0  0  0  0  0  0  0
    2.5497    1.1897   -1.3689 O   0  0  0  0  0  0  0  0  0  0  0  0
    3.5374    0.5426   -0.6659 C   0  0  0  0  0  0  0  0  0  0  0  0
    3.2867   -0.7592   -0.2360 C   0  0  0  0  0  0  0  0  0  0  0  0
    4.2631   -1.4545    0.4711 C   0  0  0  0  0  0  0  0  0  0  0  0
    5.4978   -0.8542    0.7479 C   0  0  0  0  0  0  0  0  0  0  0  0
    6.5073   -1.4718    1.4522 O   0  0  0  0  0  0  0  0  0  0  0  0
    6.2431   -2.7578    1.9951 C   0  0  0  0  0  0  0  0  0  0  0  0
    5.7732    0.4622    0.2869 C   0  0  0  0  0  0  0  0  0  0  0  0
    7.0115    1.1024    0.5176 C   0  0  0  0  0  0  0  0  0  0  0  0
    7.2726    2.3933    0.0530 C   0  0  0  0  0  0  0  0  0  0  0  0
    6.2980    3.0786   -0.6569 C   0  0  0  0  0  0  0  0  0  0  0  0
    5.0644    2.4707   -0.9042 C   0  0  0  0  0  0  0  0  0  0  0  0
    4.7794    1.1686   -0.4380 C   0  0  0  0  0  0  0  0  0  0  0  0
   -0.4713    0.8600    0.3545 O   0  0  0  0  0  0  0  0  0  0  0  0
   -1.6643    0.2926   -0.0394 N   0  0  0  0  0  0  0  0  0  0  0  0
   -4.3437   -0.6040   -0.2681 C   0  0  0  0  0  0  0  0  0  0  0  0
   -7.5185    0.2710    3.1148 H   0  0  0  0  0  0  0  0  0  0  0  0
   -5.8603    0.9693    2.9882 H   0  0  0  0  0  0  0  0  0  0  0  0
   -6.1877   -0.3877    4.0959 H   0  0  0  0  0  0  0  0  0  0  0  0
   -6.6098    0.5908    0.7154 H   0  0  0  0  0  0  0  0  0  0  0  0
   -7.6603   -0.8408    0.7719 H   0  0  0  0  0  0  0  0  0  0  0  0
   -5.7204   -2.2435   -0.0695 H   0  0  0  0  0  0  0  0  0  0  0  0
   -6.6098    0.1470   -1.7616 H   0  0  0  0  0  0  0  0  0  0  0  0
   -7.0994   -1.5477   -1.9482 H   0  0  0  0  0  0  0  0  0  0  0  0
   -5.0651   -0.5764   -3.4570 H   0  0  0  0  0  0  0  0  0  0  0  0
   -4.8769   -2.1853   -2.7086 H   0  0  0  0  0  0  0  0  0  0  0  0
   -0.0649    0.8175   -2.8871 H   0  0  0  0  0  0  0  0  0  0  0  0
    1.5396    2.8563   -0.7162 H   0  0  0  0  0  0  0  0  0  0  0  0
    1.8768    1.6967    0.5815 H   0  0  0  0  0  0  0  0  0  0  0  0
    2.3346   -1.2332   -0.4538 H   0  0  0  0  0  0  0  0  0  0  0  0
    4.0313   -2.4658    0.7881 H   0  0  0  0  0  0  0  0  0  0  0  0
    5.3912   -2.7322    2.6826 H   0  0  0  0  0  0  0  0  0  0  0  0
    7.1220   -3.0650    2.5717 H   0  0  0  0  0  0  0  0  0  0  0  0
    6.0913   -3.4934    1.1974 H   0  0  0  0  0  0  0  0  0  0  0  0
    7.7951    0.5832    1.0621 H   0  0  0  0  0  0  0  0  0  0  0  0
    8.2381    2.8530    0.2398 H   0  0  0  0  0  0  0  0  0  0  0  0
    6.4953    4.0810   -1.0284 H   0  0  0  0  0  0  0  0  0  0  0  0
    4.3176    3.0199   -1.4797 H   0  0  0  0  0  0  0  0  0  0  0  0
   -3.6763   -1.2120    0.3522 H   0  0  0  0  0  0  0  0  0  0  0  0
   -4.3011    0.4416    0.0542 H   0  0  0  0  0  0  0  0  0  0  0  0
  1  2  1  0
  2  3  1  0
  3  4  1  0
  4  5  1  0
  5  6  1  0
  6  7  1  0
  7  8  1  0
  8  9  2  0
  8 10  1  0
 10 11  1  0
 11 12  2  0
 12 13  1  0
 13 14  1  0
 14 15  1  0
 15 16  2  0
 16 17  1  0
 17 18  2  0
 18 19  1  0
 19 20  1  0
 18 21  1  0
 21 22  2  0
 22 23  1  0
 23 24  2  0
 24 25  1  0
 25 26  2  0
 12 27  1  0
 27 28  1  0
  7 29  1  0
 29  4  1  0
 28 10  2  0
 26 15  1  0
 26 21  1  0
  1 30  1  0
  1 31  1  0
  1 32  1  0
  3 33  1  0
  3 34  1  0
  4 35  1  0
  5 36  1  0
  5 37  1  0
  6 38  1  0
  6 39  1  0
 11 40  1  0
 13 41  1  0
 13 42  1  0
 16 43  1  0
 17 44  1  0
 20 45  1  0
 20 46  1  0
 20 47  1  0
 22 48  1  0
 23 49  1  0
 24 50  1  0
 25 51  1  0
 29 52  1  0
 29 53  1  0
M  END
$$$$
