
     RDKit          3D

 52 54  0  0  0  0  0  0  0  0999 V2000
    3.6921   -0.7763    1.3561 O   0  0  0  0  0  0  0  0  0  0  0  0
    2.5394   -1.0486    1.0460 C   0  0  0  0  0  0  0  0  0  0  0  0
    2.0374   -2.2794    0.6753 N   0  0  0  0  0  0  0  0  0  0  0  0
    2.7276   -3.4999    0.5603 C   0  0  0  0  0  0  0  0  0  0  0  0
    4.0941   -3.6480    0.8017 C   0  0  0  0  0  0  0  0  0  0  0  0
    4.7062   -4.8981    0.6630 C   0  0  0  0  0  0  0  0  0  0  0  0
    3.9569   -6.0089    0.2826 C   0  0  0  0  0  0  0  0  0  0  0  0
    2.5932   -5.8716    0.0400 C   0  0  0  0  0  0  0  0  0  0  0  0
    1.9819   -4.6226    0.1780 C   0  0  0  0  0  0  0  0  0  0  0  0
    1.4584    0.0066    1.0279 C   0  0  0  0  0  0  0  0  0  0  0  0
    1.7520    1.2444    1.4608 C   0  0  0  0  0  0  0  0  0  0  0  0
    0.7296    2.3410    1.5471 C   0  0  0  0  0  0  0  0  0  0  0  0
    1.0047    3.5158    0.6151 C   0  0  0  0  0  0  0  0  0  0  0  0
    1.6413    3.3687   -0.6288 C   0  0  0  0  0  0  0  0  0  0  0  0
    1.8513    4.4729   -1.4603 C   0  0  0  0  0  0  0  0  0  0  0  0
    1.4220    5.7347   -1.0588 C   0  0  0  0  0  0  0  0  0  0  0  0
    1.7047    7.2261   -2.1849 Br  0  0  0  0  0  0  0  0  0  0  0  0
    0.7837    5.9036    0.1661 C   0  0  0  0  0  0  0  0  0  0  0  0
    0.5753    4.7996    0.9965 C   0  0  0  0  0  0  0  0  0  0  0  0
   -0.6780    1.7752    1.3349 C   0  0  0  0  0  0  0  0  0  0  0  0
   -0.6630    0.7191    0.2346 C   0  0  0  0  0  0  0  0  0  0  0  0
   -2.0069    0.2455    0.0904 O   0  0  0  0  0  0  0  0  0  0  0  0
   -2.1704   -0.5666   -1.0707 C   0  0  0  0  0  0  0  0  0  0  0  0
   -3.6221   -1.0261   -1.1610 C   0  0  0  0  0  0  0  0  0  0  0  0
   -4.5881    0.1503   -1.3439 C   0  0  0  0  0  0  0  0  0  0  0  0
   -6.0358   -0.3106   -1.4504 C   0  0  0  0  0  0  0  0  0  0  0  0
   -6.2019   -1.1119   -2.6120 O   0  0  0  0  0  0  0  0  0  0  0  0
    0.2072   -0.3689    0.5699 O   0  0  0  0  0  0  0  0  0  0  0  0
    1.0432   -2.2937    0.4742 H   0  0  0  0  0  0  0  0  0  0  0  0
    4.7143   -2.8088    1.1008 H   0  0  0  0  0  0  0  0  0  0  0  0
    5.7716   -4.9990    0.8542 H   0  0  0  0  0  0  0  0  0  0  0  0
    4.4363   -6.9785    0.1769 H   0  0  0  0  0  0  0  0  0  0  0  0
    2.0040   -6.7355   -0.2555 H   0  0  0  0  0  0  0  0  0  0  0  0
    0.9156   -4.5419   -0.0159 H   0  0  0  0  0  0  0  0  0  0  0  0
    2.7576    1.4796    1.8062 H   0  0  0  0  0  0  0  0  0  0  0  0
    0.7797    2.7289    2.5745 H   0  0  0  0  0  0  0  0  0  0  0  0
    1.9897    2.3961   -0.9697 H   0  0  0  0  0  0  0  0  0  0  0  0
    2.3519    4.3360   -2.4154 H   0  0  0  0  0  0  0  0  0  0  0  0
    0.4454    6.8861    0.4845 H   0  0  0  0  0  0  0  0  0  0  0  0
    0.0717    4.9495    1.9502 H   0  0  0  0  0  0  0  0  0  0  0  0
   -1.4139    2.5577    1.1129 H   0  0  0  0  0  0  0  0  0  0  0  0
   -1.0142    1.3005    2.2679 H   0  0  0  0  0  0  0  0  0  0  0  0
   -0.3412    1.1594   -0.7179 H   0  0  0  0  0  0  0  0  0  0  0  0
   -1.8978    0.0038   -1.9662 H   0  0  0  0  0  0  0  0  0  0  0  0
   -1.5194   -1.4451   -1.0000 H   0  0  0  0  0  0  0  0  0  0  0  0
   -3.8890   -1.5638   -0.2430 H   0  0  0  0  0  0  0  0  0  0  0  0
   -3.7194   -1.7270   -1.9977 H   0  0  0  0  0  0  0  0  0  0  0  0
   -4.4982    0.8457   -0.5019 H   0  0  0  0  0  0  0  0  0  0  0  0
   -4.3139    0.6942   -2.2560 H   0  0  0  0  0  0  0  0  0  0  0  0
   -6.7000    0.5557   -1.5319 H   0  0  0  0  0  0  0  0  0  0  0  0
   -6.3273   -0.8962   -0.5726 H   0  0  0  0  0  0  0  0  0  0  0  0
   -7.1392   -1.3698   -2.6469 H   0  0  0  0  0  0  0  0  0  0  0  0
  1  2  2  0
  2  3  1  0
  3  4  1  0
  4  5  2  0
  5  6  1  0
  6  7  2  0
  7  8  1  0
  8  9  2  0
  2 10  1  0
 10 11  2  0
 11 12  1  0
 12 13  1  0
 13 14  2  0
 14 15  1  0
 15 16  2  0
 16 17  1  0
 16 18  1  0
 18 19  2  0
 12 20  1  0
 20 21  1  0
 21 22  1  0
 22 23  1  0
 23 24  1  0
 24 25  1  0
 25 26  1  0
 26 27  1  0
 21 28  1  0
  9  4  1  0
 28 10  1  0
 19 13  1  0
  3 29  1  0
  5 30  1  0
  6 31  1  0
  7 32  1  0
  8 33  1  0
  9 34  1  0
 11 35  1  0
 12 36  1  0
 14 37  1  0
 15 38  1  0
 18 39  1  0
 19 40  1  0
 20 41  1  0
 20 42  1  0
 21 43  1  0
 23 44  1  0
 23 45  1  0
 24 46  1  0
 24 47  1  0
 25 48  1  0
 25 49  1  0
 26 50  1  0
 26 51  1  0
 27 52  1  0
M  END
$$$$
