
     RDKit          3D

 64 67  0  0  0  0  0  0  0  0999 V2000
   -2.7626    1.4361    2.8587 C   0  0  0  0  0  0  0  0  0  0  0  0
   -2.0631    0.8262    1.7831 O   0  0  0  0  0  0  0  0  0  0  0  0
   -1.8692    1.5494    0.6330 C   0  0  0  0  0  0  0  0  0  0  0  0
   -2.4378    2.8146    0.4099 C   0  0  0  0  0  0  0  0  0  0  0  0
   -2.2082    3.5143   -0.7809 C   0  0  0  0  0  0  0  0  0  0  0  0
   -2.7276    4.7533   -1.0650 O   0  0  0  0  0  0  0  0  0  0  0  0
   -3.5425    5.3760   -0.0807 C   0  0  0  0  0  0  0  0  0  0  0  0
   -1.3988    2.9371   -1.7702 C   0  0  0  0  0  0  0  0  0  0  0  0
   -1.1066    3.6116   -3.0349 C   0  0  0  0  0  0  0  0  0  0  0  0
   -0.3246    3.0355   -3.9511 C   0  0  0  0  0  0  0  0  0  0  0  0
    0.2690    1.7096   -3.7427 C   0  0  0  0  0  0  0  0  0  0  0  0
    0.9785    1.1915   -4.5964 O   0  0  0  0  0  0  0  0  0  0  0  0
   -0.0295    1.0856   -2.5431 O   0  0  0  0  0  0  0  0  0  0  0  0
   -0.8439    1.6714   -1.5430 C   0  0  0  0  0  0  0  0  0  0  0  0
   -1.0585    0.9472   -0.3539 C   0  0  0  0  0  0  0  0  0  0  0  0
   -0.4198   -0.4315   -0.1077 C   0  0  0  0  0  0  0  0  0  0  0  0
   -0.8753   -1.4760   -1.1612 C   0  0  0  0  0  0  0  0  0  0  0  0
   -0.5758   -2.9338   -0.7682 C   0  0  0  0  0  0  0  0  0  0  0  0
   -1.2421   -3.3672    0.4625 N   0  0  0  0  0  0  0  0  0  0  0  0
   -2.6994   -3.4373    0.3560 C   0  0  0  0  0  0  0  0  0  0  0  0
   -3.0966   -4.2678    1.5682 C   0  0  0  0  0  0  0  0  0  0  0  0
   -1.8591   -5.0875    1.9165 C   0  0  0  0  0  0  0  0  0  0  0  0
   -0.8258   -4.7109    0.8673 C   0  0  0  0  0  0  0  0  0  0  0  0
    1.0870   -0.3210    0.1279 C   0  0  0  0  0  0  0  0  0  0  0  0
    2.0433   -0.5177   -0.8691 C   0  0  0  0  0  0  0  0  0  0  0  0
    3.4145   -0.3809   -0.5951 C   0  0  0  0  0  0  0  0  0  0  0  0
    3.9012   -0.0312    0.6753 C   0  0  0  0  0  0  0  0  0  0  0  0
    5.2712    0.0899    0.9461 N   0  0  0  0  0  0  0  0  0  0  0  0
    5.6842    0.8054    2.1518 C   0  0  0  0  0  0  0  0  0  0  0  0
    6.2085    0.1478   -0.1736 C   0  0  0  0  0  0  0  0  0  0  0  0
    2.9244    0.1469    1.6679 C   0  0  0  0  0  0  0  0  0  0  0  0
    1.5522    0.0159    1.4038 C   0  0  0  0  0  0  0  0  0  0  0  0
   -3.8081    1.6210    2.5924 H   0  0  0  0  0  0  0  0  0  0  0  0
   -2.2663    2.3559    3.1846 H   0  0  0  0  0  0  0  0  0  0  0  0
   -2.7537    0.7380    3.7011 H   0  0  0  0  0  0  0  0  0  0  0  0
   -3.0661    3.2558    1.1722 H   0  0  0  0  0  0  0  0  0  0  0  0
   -4.4472    4.7897    0.1093 H   0  0  0  0  0  0  0  0  0  0  0  0
   -3.8535    6.3494   -0.4720 H   0  0  0  0  0  0  0  0  0  0  0  0
   -2.9815    5.5530    0.8424 H   0  0  0  0  0  0  0  0  0  0  0  0
   -1.5332    4.5929   -3.2141 H   0  0  0  0  0  0  0  0  0  0  0  0
   -0.0928    3.5189   -4.8916 H   0  0  0  0  0  0  0  0  0  0  0  0
   -0.8219   -0.8173    0.8367 H   0  0  0  0  0  0  0  0  0  0  0  0
   -0.4081   -1.2950   -2.1349 H   0  0  0  0  0  0  0  0  0  0  0  0
   -1.9542   -1.3682   -1.3357 H   0  0  0  0  0  0  0  0  0  0  0  0
   -0.8607   -3.5852   -1.6050 H   0  0  0  0  0  0  0  0  0  0  0  0
    0.5081   -3.0472   -0.6470 H   0  0  0  0  0  0  0  0  0  0  0  0
   -3.0141   -3.9484   -0.5626 H   0  0  0  0  0  0  0  0  0  0  0  0
   -3.1703   -2.4498    0.3863 H   0  0  0  0  0  0  0  0  0  0  0  0
   -3.3637   -3.6220    2.4134 H   0  0  0  0  0  0  0  0  0  0  0  0
   -3.9577   -4.9076    1.3496 H   0  0  0  0  0  0  0  0  0  0  0  0
   -1.5089   -4.8200    2.9203 H   0  0  0  0  0  0  0  0  0  0  0  0
   -2.0675   -6.1621    1.9094 H   0  0  0  0  0  0  0  0  0  0  0  0
   -0.8714   -5.4189    0.0298 H   0  0  0  0  0  0  0  0  0  0  0  0
    0.1882   -4.7221    1.2804 H   0  0  0  0  0  0  0  0  0  0  0  0
    1.7531   -0.7760   -1.8838 H   0  0  0  0  0  0  0  0  0  0  0  0
    4.0915   -0.5565   -1.4252 H   0  0  0  0  0  0  0  0  0  0  0  0
    5.3494    0.2859    3.0559 H   0  0  0  0  0  0  0  0  0  0  0  0
    6.7760    0.8615    2.2263 H   0  0  0  0  0  0  0  0  0  0  0  0
    5.3009    1.8318    2.1529 H   0  0  0  0  0  0  0  0  0  0  0  0
    6.0067    1.0142   -0.8132 H   0  0  0  0  0  0  0  0  0  0  0  0
    7.2425    0.2313    0.1800 H   0  0  0  0  0  0  0  0  0  0  0  0
    6.1713   -0.7694   -0.7713 H   0  0  0  0  0  0  0  0  0  0  0  0
    3.2013    0.3902    2.6883 H   0  0  0  0  0  0  0  0  0  0  0  0
    0.8449    0.1738    2.2159 H   0  0  0  0  0  0  0  0  0  0  0  0
  1  2  1  0
  2  3  1  0
  3  4  2  0
  4  5  1  0
  5  6  1  0
  6  7  1  0
  5  8  2  0
  8  9  1  0
  9 10  2  0
 10 11  1  0
 11 12  2  0
 11 13  1  0
 13 14  1  0
 14 15  2  0
 15 16  1  0
 16 17  1  0
 17 18  1  0
 18 19  1  0
 19 20  1  0
 20 21  1  0
 21 22  1  0
 22 23  1  0
 16 24  1  0
 24 25  2  0
 25 26  1  0
 26 27  2  0
 27 28  1  0
 28 29  1  0
 28 30  1  0
 27 31  1  0
 31 32  2  0
 15  3  1  0
 23 19  1  0
 32 24  1  0
 14  8  1  0
  1 33  1  0
  1 34  1  0
  1 35  1  0
  4 36  1  0
  7 37  1  0
  7 38  1  0
  7 39  1  0
  9 40  1  0
 10 41  1  0
 16 42  1  0
 17 43  1  0
 17 44  1  0
 18 45  1  0
 18 46  1  0
 20 47  1  0
 20 48  1  0
 21 49  1  0
 21 50  1  0
 22 51  1  0
 22 52  1  0
 23 53  1  0
 23 54  1  0
 25 55  1  0
 26 56  1  0
 29 57  1  0
 29 58  1  0
 29 59  1  0
 30 60  1  0
 30 61  1  0
 30 62  1  0
 31 63  1  0
 32 64  1  0
M  END
$$$$
