
     RDKit          3D

 68 70  0  0  0  0  0  0  0  0999 V2000
    4.4461    1.3824   -2.1531 C   0  0  0  0  0  0  0  0  0  0  0  0
    4.9562    1.0540   -0.7592 C   0  0  0  0  0  0  0  0  0  0  0  0
    4.2032    1.8384    0.2543 N   0  0  0  0  0  0  0  0  0  0  0  0
    4.6382    3.2583    0.3544 C   0  0  0  0  0  0  0  0  0  0  0  0
    3.4498    4.1623    0.0751 C   0  0  0  0  0  0  0  0  0  0  0  0
    3.9816    1.0698    1.7647 S   0  0  0  0  0  6  0  0  0  0  0  0
    5.2701    0.5398    2.1636 O   0  0  0  0  0  0  0  0  0  0  0  0
    3.2293    1.9477    2.6341 O   0  0  0  0  0  0  0  0  0  0  0  0
    2.9183   -0.2948    1.3648 C   0  0  0  0  0  0  0  0  0  0  0  0
    3.2738   -1.5898    1.7468 C   0  0  0  0  0  0  0  0  0  0  0  0
    2.4329   -2.6558    1.4242 C   0  0  0  0  0  0  0  0  0  0  0  0
    1.2391   -2.4351    0.7201 C   0  0  0  0  0  0  0  0  0  0  0  0
    0.3655   -3.4897    0.3494 N   0  0  0  0  0  0  0  0  0  0  0  0
    0.8769   -4.2251   -0.8352 C   0  0  0  0  0  0  0  0  0  0  0  0
    0.0726   -5.5203   -1.0203 C   0  0  0  0  0  0  0  0  0  0  0  0
    0.1976   -6.4332    0.0817 O   0  0  0  0  0  0  0  0  0  0  0  0
    0.5311   -5.7918    1.3220 C   0  0  0  0  0  0  0  0  0  0  0  0
   -0.0570   -4.3789    1.4618 C   0  0  0  0  0  0  0  0  0  0  0  0
    0.9010   -1.1111    0.3345 C   0  0  0  0  0  0  0  0  0  0  0  0
   -0.3211   -0.9701   -0.3540 N   0  0  0  0  0  0  0  0  0  0  0  0
   -0.8686    0.1672   -0.9085 C   0  0  0  0  0  0  0  0  0  0  0  0
   -0.3323    1.2671   -0.9756 O   0  0  0  0  0  0  0  0  0  0  0  0
   -2.2418   -0.1077   -1.5032 C   0  0  0  0  0  0  0  0  0  0  0  0
   -3.0496    1.1597   -1.7938 C   0  0  0  0  0  0  0  0  0  0  0  0
   -3.4962    1.9416   -0.5373 C   0  0  0  0  0  0  0  0  0  0  0  0
   -4.2328    3.2391   -0.9365 C   0  0  0  0  0  0  0  0  0  0  0  0
   -5.7477    3.0732   -0.9210 C   0  0  0  0  0  0  0  0  0  0  0  0
   -6.2634    2.6971    0.4688 C   0  0  0  0  0  0  0  0  0  0  0  0
   -5.2525    1.9033    1.2969 C   0  0  0  0  0  0  0  0  0  0  0  0
   -4.3375    1.0655    0.4127 C   0  0  0  0  0  0  0  0  0  0  0  0
    1.7370   -0.0453    0.6604 C   0  0  0  0  0  0  0  0  0  0  0  0
    4.6352    2.4279   -2.4137 H   0  0  0  0  0  0  0  0  0  0  0  0
    3.3678    1.2088   -2.2272 H   0  0  0  0  0  0  0  0  0  0  0  0
    4.9462    0.7553   -2.8975 H   0  0  0  0  0  0  0  0  0  0  0  0
    4.8201   -0.0197   -0.5990 H   0  0  0  0  0  0  0  0  0  0  0  0
    6.0294    1.2598   -0.6823 H   0  0  0  0  0  0  0  0  0  0  0  0
    5.0545    3.4759    1.3444 H   0  0  0  0  0  0  0  0  0  0  0  0
    5.4367    3.4766   -0.3633 H   0  0  0  0  0  0  0  0  0  0  0  0
    3.0415    3.9771   -0.9241 H   0  0  0  0  0  0  0  0  0  0  0  0
    2.6450    3.9968    0.7987 H   0  0  0  0  0  0  0  0  0  0  0  0
    3.7492    5.2134    0.1323 H   0  0  0  0  0  0  0  0  0  0  0  0
    4.1954   -1.7748    2.2944 H   0  0  0  0  0  0  0  0  0  0  0  0
    2.7261   -3.6581    1.7205 H   0  0  0  0  0  0  0  0  0  0  0  0
    0.7729   -3.5982   -1.7281 H   0  0  0  0  0  0  0  0  0  0  0  0
    1.9376   -4.4789   -0.7117 H   0  0  0  0  0  0  0  0  0  0  0  0
    0.4049   -6.0463   -1.9207 H   0  0  0  0  0  0  0  0  0  0  0  0
   -0.9931   -5.2953   -1.1438 H   0  0  0  0  0  0  0  0  0  0  0  0
    1.6235   -5.7701    1.4015 H   0  0  0  0  0  0  0  0  0  0  0  0
    0.1615   -6.4320    2.1295 H   0  0  0  0  0  0  0  0  0  0  0  0
    0.1846   -3.9593    2.4460 H   0  0  0  0  0  0  0  0  0  0  0  0
   -1.1504   -4.4493    1.4080 H   0  0  0  0  0  0  0  0  0  0  0  0
   -0.8220   -1.8517   -0.4330 H   0  0  0  0  0  0  0  0  0  0  0  0
   -2.8018   -0.7803   -0.8451 H   0  0  0  0  0  0  0  0  0  0  0  0
   -2.0766   -0.6417   -2.4473 H   0  0  0  0  0  0  0  0  0  0  0  0
   -3.9376    0.8768   -2.3734 H   0  0  0  0  0  0  0  0  0  0  0  0
   -2.4576    1.8219   -2.4385 H   0  0  0  0  0  0  0  0  0  0  0  0
   -2.5925    2.2524    0.0031 H   0  0  0  0  0  0  0  0  0  0  0  0
   -3.9041    3.5901   -1.9214 H   0  0  0  0  0  0  0  0  0  0  0  0
   -3.9626    4.0323   -0.2267 H   0  0  0  0  0  0  0  0  0  0  0  0
   -6.0339    2.2952   -1.6397 H   0  0  0  0  0  0  0  0  0  0  0  0
   -6.2339    3.9973   -1.2538 H   0  0  0  0  0  0  0  0  0  0  0  0
   -7.1880    2.1183    0.3556 H   0  0  0  0  0  0  0  0  0  0  0  0
   -6.5367    3.6034    1.0226 H   0  0  0  0  0  0  0  0  0  0  0  0
   -5.7839    1.2626    2.0097 H   0  0  0  0  0  0  0  0  0  0  0  0
   -4.6440    2.5950    1.8930 H   0  0  0  0  0  0  0  0  0  0  0  0
   -4.9508    0.3578   -0.1596 H   0  0  0  0  0  0  0  0  0  0  0  0
   -3.6708    0.4657    1.0437 H   0  0  0  0  0  0  0  0  0  0  0  0
    1.4890    0.9773    0.3922 H   0  0  0  0  0  0  0  0  0  0  0  0
  1  2  1  0
  2  3  1  0
  3  4  1  0
  4  5  1  0
  3  6  1  0
  6  7  2  0
  6  8  2  0
  6  9  1  0
  9 10  2  0
 10 11  1  0
 11 12  2  0
 12 13  1  0
 13 14  1  0
 14 15  1  0
 15 16  1  0
 16 17  1  0
 17 18  1  0
 12 19  1  0
 19 20  1  0
 20 21  1  0
 21 22  2  0
 21 23  1  0
 23 24  1  0
 24 25  1  0
 25 26  1  0
 26 27  1  0
 27 28  1  0
 28 29  1  0
 29 30  1  0
 19 31  2  0
 31  9  1  0
 18 13  1  0
 30 25  1  0
  1 32  1  0
  1 33  1  0
  1 34  1  0
  2 35  1  0
  2 36  1  0
  4 37  1  0
  4 38  1  0
  5 39  1  0
  5 40  1  0
  5 41  1  0
 10 42  1  0
 11 43  1  0
 14 44  1  0
 14 45  1  0
 15 46  1  0
 15 47  1  0
 17 48  1  0
 17 49  1  0
 18 50  1  0
 18 51  1  0
 20 52  1  0
 23 53  1  0
 23 54  1  0
 24 55  1  0
 24 56  1  0
 25 57  1  0
 26 58  1  0
 26 59  1  0
 27 60  1  0
 27 61  1  0
 28 62  1  0
 28 63  1  0
 29 64  1  0
 29 65  1  0
 30 66  1  0
 30 67  1  0
 31 68  1  0
M  END
$$$$
