
     RDKit          3D

 40 41  0  0  0  0  0  0  0  0999 V2000
    0.0083   -3.5086    0.7536 C   0  0  0  0  0  0  0  0  0  0  0  0
    0.3691   -2.1485    0.9953 O   0  0  0  0  0  0  0  0  0  0  0  0
    1.2787   -1.6640    0.1157 C   0  0  0  0  0  0  0  0  0  0  0  0
    1.8381   -2.2823   -0.7744 O   0  0  0  0  0  0  0  0  0  0  0  0
    1.5204   -0.2373    0.4165 C   0  0  0  0  0  0  0  0  0  0  0  0
    2.7747    0.1962    0.6513 C   0  0  0  0  0  0  0  0  0  0  0  0
    4.0293   -0.6287    0.6153 C   0  0  0  0  0  0  0  0  0  0  0  0
    3.0197    1.5221    1.1025 O   0  0  0  0  0  0  0  0  0  0  0  0
    2.0087    2.4179    1.1633 C   0  0  0  0  0  0  0  0  0  0  0  0
    2.1559    3.4682    1.8988 N   0  0  0  0  0  0  0  0  0  0  0  0
    0.7801    2.1705    0.3432 C   0  0  0  0  0  0  0  0  0  0  0  0
    1.0849    2.5525   -1.0419 C   0  0  0  0  0  0  0  0  0  0  0  0
    1.3412    2.8562   -2.1327 N   0  0  0  0  0  0  0  0  0  0  0  0
    0.3494    0.7072    0.5240 C   0  0  0  0  0  0  0  0  0  0  0  0
   -0.8758    0.3617   -0.3002 C   0  0  0  0  0  0  0  0  0  0  0  0
   -0.9904   -0.0549   -1.6651 C   0  0  0  0  0  0  0  0  0  0  0  0
    0.0509   -0.2739   -2.7055 C   0  0  0  0  0  0  0  0  0  0  0  0
   -2.2637   -0.2782   -2.0040 N   0  0  0  0  0  0  0  0  0  0  0  0
   -2.9673   -0.0075   -0.9004 N   0  0  0  0  0  0  0  0  0  0  0  0
   -4.4040   -0.1580   -0.9329 C   0  0  0  0  0  0  0  0  0  0  0  0
   -2.1921    0.4037    0.1511 C   0  0  0  0  0  0  0  0  0  0  0  0
   -2.7683    0.7761    1.4708 C   0  0  0  0  0  0  0  0  0  0  0  0
    0.8759   -4.1630    0.8836 H   0  0  0  0  0  0  0  0  0  0  0  0
   -0.7529   -3.7921    1.4856 H   0  0  0  0  0  0  0  0  0  0  0  0
   -0.4169   -3.6214   -0.2488 H   0  0  0  0  0  0  0  0  0  0  0  0
    4.5923   -0.4099   -0.2973 H   0  0  0  0  0  0  0  0  0  0  0  0
    4.6642   -0.3835    1.4738 H   0  0  0  0  0  0  0  0  0  0  0  0
    3.8440   -1.7046    0.6610 H   0  0  0  0  0  0  0  0  0  0  0  0
    3.0874    3.4163    2.3320 H   0  0  0  0  0  0  0  0  0  0  0  0
   -0.0190    2.8256    0.7155 H   0  0  0  0  0  0  0  0  0  0  0  0
    0.0411    0.6081    1.5778 H   0  0  0  0  0  0  0  0  0  0  0  0
    0.0551   -1.3227   -3.0207 H   0  0  0  0  0  0  0  0  0  0  0  0
    1.0543   -0.0282   -2.3541 H   0  0  0  0  0  0  0  0  0  0  0  0
   -0.1544    0.3462   -3.5845 H   0  0  0  0  0  0  0  0  0  0  0  0
   -4.7251   -0.6763   -0.0262 H   0  0  0  0  0  0  0  0  0  0  0  0
   -4.8491    0.8382   -0.9887 H   0  0  0  0  0  0  0  0  0  0  0  0
   -4.6889   -0.7472   -1.8087 H   0  0  0  0  0  0  0  0  0  0  0  0
   -3.7049    1.3308    1.3551 H   0  0  0  0  0  0  0  0  0  0  0  0
   -2.0844    1.4155    2.0369 H   0  0  0  0  0  0  0  0  0  0  0  0
   -2.9666   -0.1222    2.0637 H   0  0  0  0  0  0  0  0  0  0  0  0
  1  2  1  0
  2  3  1  0
  3  4  2  0
  3  5  1  0
  5  6  2  0
  6  7  1  0
  6  8  1  0
  8  9  1  0
  9 10  2  3
  9 11  1  0
 11 12  1  0
 12 13  3  0
 11 14  1  0
 14 15  1  0
 15 16  1  0
 16 17  1  0
 16 18  2  0
 18 19  1  0
 19 20  1  0
 19 21  1  0
 21 22  1  0
 14  5  1  0
 21 15  2  0
  1 23  1  0
  1 24  1  0
  1 25  1  0
  7 26  1  0
  7 27  1  0
  7 28  1  0
 10 29  1  0
 11 30  1  0
 14 31  1  0
 17 32  1  0
 17 33  1  0
 17 34  1  0
 20 35  1  0
 20 36  1  0
 20 37  1  0
 22 38  1  0
 22 39  1  0
 22 40  1  0
M  END
$$$$
