
     RDKit          3D

 68 70  0  0  0  0  0  0  0  0999 V2000
    4.6926    3.9130    0.9245 C   0  0  0  0  0  0  0  0  0  0  0  0
    3.9591    2.5886    0.7941 C   0  0  0  0  0  0  0  0  0  0  0  0
    4.8877    1.5601    0.2858 N   0  0  0  0  0  0  0  0  0  0  0  0
    5.6499    0.7934    1.2890 C   0  0  0  0  0  0  0  0  0  0  0  0
    4.8173   -0.2580    1.9991 C   0  0  0  0  0  0  0  0  0  0  0  0
    4.7187    0.9833   -1.2918 S   0  0  0  0  0  6  0  0  0  0  0  0
    4.1879    2.0427   -2.1228 O   0  0  0  0  0  0  0  0  0  0  0  0
    5.9500    0.3077   -1.6482 O   0  0  0  0  0  0  0  0  0  0  0  0
    3.4550   -0.2648   -1.1697 C   0  0  0  0  0  0  0  0  0  0  0  0
    3.7818   -1.6064   -1.3748 C   0  0  0  0  0  0  0  0  0  0  0  0
    2.7875   -2.5863   -1.2948 C   0  0  0  0  0  0  0  0  0  0  0  0
    1.4594   -2.2469   -1.0063 C   0  0  0  0  0  0  0  0  0  0  0  0
    0.4350   -3.2016   -0.8560 N   0  0  0  0  0  0  0  0  0  0  0  0
    0.0953   -3.5036    0.5587 C   0  0  0  0  0  0  0  0  0  0  0  0
    0.8767   -4.7154    1.0806 C   0  0  0  0  0  0  0  0  0  0  0  0
    0.6412   -5.8669    0.2575 O   0  0  0  0  0  0  0  0  0  0  0  0
    1.1074   -5.6250   -1.0771 C   0  0  0  0  0  0  0  0  0  0  0  0
    0.4286   -4.4033   -1.7211 C   0  0  0  0  0  0  0  0  0  0  0  0
    1.1433   -0.8687   -0.8405 C   0  0  0  0  0  0  0  0  0  0  0  0
   -0.2211   -0.5611   -0.6466 N   0  0  0  0  0  0  0  0  0  0  0  0
   -0.7825    0.6494   -0.2941 C   0  0  0  0  0  0  0  0  0  0  0  0
   -0.1691    1.6695   -0.0009 O   0  0  0  0  0  0  0  0  0  0  0  0
   -2.3022    0.5734   -0.2816 C   0  0  0  0  0  0  0  0  0  0  0  0
   -2.9481    1.8988    0.1255 C   0  0  0  0  0  0  0  0  0  0  0  0
   -4.4803    1.8135    0.2474 C   0  0  0  0  0  0  0  0  0  0  0  0
   -5.1507    1.4225   -1.0843 C   0  0  0  0  0  0  0  0  0  0  0  0
   -6.6043    1.8898   -1.2058 C   0  0  0  0  0  0  0  0  0  0  0  0
   -7.2770    2.0265    0.1524 C   0  0  0  0  0  0  0  0  0  0  0  0
   -6.5581    3.0444    1.0378 C   0  0  0  0  0  0  0  0  0  0  0  0
   -5.0540    3.1369    0.7692 C   0  0  0  0  0  0  0  0  0  0  0  0
    2.1338    0.1108   -0.9309 C   0  0  0  0  0  0  0  0  0  0  0  0
    5.5248    3.8401    1.6316 H   0  0  0  0  0  0  0  0  0  0  0  0
    5.0997    4.2330   -0.0409 H   0  0  0  0  0  0  0  0  0  0  0  0
    4.0108    4.6908    1.2827 H   0  0  0  0  0  0  0  0  0  0  0  0
    3.1067    2.7267    0.1235 H   0  0  0  0  0  0  0  0  0  0  0  0
    3.5451    2.2934    1.7638 H   0  0  0  0  0  0  0  0  0  0  0  0
    6.0552    1.4918    2.0303 H   0  0  0  0  0  0  0  0  0  0  0  0
    6.5230    0.3234    0.8243 H   0  0  0  0  0  0  0  0  0  0  0  0
    3.9169    0.1671    2.4529 H   0  0  0  0  0  0  0  0  0  0  0  0
    5.4068   -0.7211    2.7978 H   0  0  0  0  0  0  0  0  0  0  0  0
    4.5094   -1.0563    1.3208 H   0  0  0  0  0  0  0  0  0  0  0  0
    4.8059   -1.9018   -1.5947 H   0  0  0  0  0  0  0  0  0  0  0  0
    3.0872   -3.6162   -1.4453 H   0  0  0  0  0  0  0  0  0  0  0  0
    0.2565   -2.6423    1.2177 H   0  0  0  0  0  0  0  0  0  0  0  0
   -0.9766   -3.7347    0.5884 H   0  0  0  0  0  0  0  0  0  0  0  0
    1.9533   -4.5142    1.1244 H   0  0  0  0  0  0  0  0  0  0  0  0
    0.5422   -4.9617    2.0931 H   0  0  0  0  0  0  0  0  0  0  0  0
    2.1963   -5.5262   -1.0509 H   0  0  0  0  0  0  0  0  0  0  0  0
    0.8841   -6.5184   -1.6698 H   0  0  0  0  0  0  0  0  0  0  0  0
    0.8578   -4.1932   -2.7078 H   0  0  0  0  0  0  0  0  0  0  0  0
   -0.6259   -4.6559   -1.8892 H   0  0  0  0  0  0  0  0  0  0  0  0
   -0.8248   -1.3717   -0.7565 H   0  0  0  0  0  0  0  0  0  0  0  0
   -2.6300    0.2843   -1.2861 H   0  0  0  0  0  0  0  0  0  0  0  0
   -2.5992   -0.2150    0.4199 H   0  0  0  0  0  0  0  0  0  0  0  0
   -2.5321    2.2165    1.0904 H   0  0  0  0  0  0  0  0  0  0  0  0
   -2.6743    2.6776   -0.5975 H   0  0  0  0  0  0  0  0  0  0  0  0
   -4.7125    1.0350    0.9879 H   0  0  0  0  0  0  0  0  0  0  0  0
   -5.1170    0.3302   -1.1837 H   0  0  0  0  0  0  0  0  0  0  0  0
   -4.5886    1.8241   -1.9369 H   0  0  0  0  0  0  0  0  0  0  0  0
   -7.1634    1.1907   -1.8389 H   0  0  0  0  0  0  0  0  0  0  0  0
   -6.6300    2.8604   -1.7176 H   0  0  0  0  0  0  0  0  0  0  0  0
   -8.3258    2.3208    0.0315 H   0  0  0  0  0  0  0  0  0  0  0  0
   -7.2826    1.0488    0.6514 H   0  0  0  0  0  0  0  0  0  0  0  0
   -7.0003    4.0378    0.8962 H   0  0  0  0  0  0  0  0  0  0  0  0
   -6.7318    2.7809    2.0880 H   0  0  0  0  0  0  0  0  0  0  0  0
   -4.8683    3.9284    0.0312 H   0  0  0  0  0  0  0  0  0  0  0  0
   -4.5451    3.4472    1.6896 H   0  0  0  0  0  0  0  0  0  0  0  0
    1.8861    1.1632   -0.8583 H   0  0  0  0  0  0  0  0  0  0  0  0
  1  2  1  0
  2  3  1  0
  3  4  1  0
  4  5  1  0
  3  6  1  0
  6  7  2  0
  6  8  2  0
  6  9  1  0
  9 10  2  0
 10 11  1  0
 11 12  2  0
 12 13  1  0
 13 14  1  0
 14 15  1  0
 15 16  1  0
 16 17  1  0
 17 18  1  0
 12 19  1  0
 19 20  1  0
 20 21  1  0
 21 22  2  0
 21 23  1  0
 23 24  1  0
 24 25  1  0
 25 26  1  0
 26 27  1  0
 27 28  1  0
 28 29  1  0
 29 30  1  0
 19 31  2  0
 31  9  1  0
 18 13  1  0
 30 25  1  0
  1 32  1  0
  1 33  1  0
  1 34  1  0
  2 35  1  0
  2 36  1  0
  4 37  1  0
  4 38  1  0
  5 39  1  0
  5 40  1  0
  5 41  1  0
 10 42  1  0
 11 43  1  0
 14 44  1  0
 14 45  1  0
 15 46  1  0
 15 47  1  0
 17 48  1  0
 17 49  1  0
 18 50  1  0
 18 51  1  0
 20 52  1  0
 23 53  1  0
 23 54  1  0
 24 55  1  0
 24 56  1  0
 25 57  1  0
 26 58  1  0
 26 59  1  0
 27 60  1  0
 27 61  1  0
 28 62  1  0
 28 63  1  0
 29 64  1  0
 29 65  1  0
 30 66  1  0
 30 67  1  0
 31 68  1  0
M  END
$$$$
