
     RDKit          3D

 55 57  0  0  0  0  0  0  0  0999 V2000
    1.7862   -0.9700   -3.4443 C   0  0  0  0  0  0  0  0  0  0  0  0
    0.3238   -0.6263   -3.6630 C   0  0  0  0  0  0  0  0  0  0  0  0
   -0.4841   -0.8670   -2.5134 O   0  0  0  0  0  0  0  0  0  0  0  0
   -0.3003    0.0763   -1.4508 C   0  0  0  0  0  0  0  0  0  0  0  0
    0.8366   -0.3180   -0.6774 O   0  0  0  0  0  0  0  0  0  0  0  0
    1.0460    0.4689    0.4369 C   0  0  0  0  0  0  0  0  0  0  0  0
    2.4436    0.5197    1.0052 C   0  0  0  0  0  0  0  0  0  0  0  0
    2.7349    1.2827    1.9171 O   0  0  0  0  0  0  0  0  0  0  0  0
    3.2733   -0.3721    0.3564 N   0  0  0  0  0  0  0  0  0  0  0  0
    4.6413   -0.6083    0.5824 C   0  0  0  0  0  0  0  0  0  0  0  0
    5.4011    0.0677    1.5381 C   0  0  0  0  0  0  0  0  0  0  0  0
    6.7593   -0.2253    1.6989 C   0  0  0  0  0  0  0  0  0  0  0  0
    7.3675   -1.1956    0.9059 C   0  0  0  0  0  0  0  0  0  0  0  0
    6.6180   -1.8754   -0.0502 C   0  0  0  0  0  0  0  0  0  0  0  0
    5.2612   -1.5826   -0.2109 C   0  0  0  0  0  0  0  0  0  0  0  0
    0.0684    1.1726    1.0252 C   0  0  0  0  0  0  0  0  0  0  0  0
   -1.3702    1.1124    0.5781 C   0  0  0  0  0  0  0  0  0  0  0  0
   -2.2589    0.8738    1.7949 C   0  0  0  0  0  0  0  0  0  0  0  0
   -2.3223   -0.3776    2.4303 C   0  0  0  0  0  0  0  0  0  0  0  0
   -3.1293   -0.5677    3.5550 C   0  0  0  0  0  0  0  0  0  0  0  0
   -3.8694    0.4960    4.0634 C   0  0  0  0  0  0  0  0  0  0  0  0
   -4.9610    0.2389    5.5849 Br  0  0  0  0  0  0  0  0  0  0  0  0
   -3.8045    1.7503    3.4630 C   0  0  0  0  0  0  0  0  0  0  0  0
   -2.9977    1.9395    2.3384 C   0  0  0  0  0  0  0  0  0  0  0  0
   -1.5811    0.0951   -0.5819 C   0  0  0  0  0  0  0  0  0  0  0  0
   -2.8179    0.4076   -1.4673 C   0  0  0  0  0  0  0  0  0  0  0  0
   -4.1711    0.2830   -0.7588 C   0  0  0  0  0  0  0  0  0  0  0  0
   -5.3512    0.3714   -1.7244 C   0  0  0  0  0  0  0  0  0  0  0  0
   -5.4599   -0.8042   -2.5136 O   0  0  0  0  0  0  0  0  0  0  0  0
    1.8911   -1.9553   -2.9796 H   0  0  0  0  0  0  0  0  0  0  0  0
    2.3270   -0.9657   -4.3954 H   0  0  0  0  0  0  0  0  0  0  0  0
    2.2690   -0.2420   -2.7860 H   0  0  0  0  0  0  0  0  0  0  0  0
   -0.0698   -1.2698   -4.4570 H   0  0  0  0  0  0  0  0  0  0  0  0
    0.2053    0.4086   -4.0031 H   0  0  0  0  0  0  0  0  0  0  0  0
   -0.1257    1.0744   -1.8787 H   0  0  0  0  0  0  0  0  0  0  0  0
    2.8252   -0.9273   -0.3648 H   0  0  0  0  0  0  0  0  0  0  0  0
    4.9665    0.8300    2.1770 H   0  0  0  0  0  0  0  0  0  0  0  0
    7.3392    0.3081    2.4480 H   0  0  0  0  0  0  0  0  0  0  0  0
    8.4228   -1.4209    1.0349 H   0  0  0  0  0  0  0  0  0  0  0  0
    7.0879   -2.6342   -0.6703 H   0  0  0  0  0  0  0  0  0  0  0  0
    4.6973   -2.1280   -0.9630 H   0  0  0  0  0  0  0  0  0  0  0  0
    0.2958    1.7912    1.8929 H   0  0  0  0  0  0  0  0  0  0  0  0
   -1.6010    2.1107    0.1793 H   0  0  0  0  0  0  0  0  0  0  0  0
   -1.7355   -1.2175    2.0643 H   0  0  0  0  0  0  0  0  0  0  0  0
   -3.1664   -1.5455    4.0282 H   0  0  0  0  0  0  0  0  0  0  0  0
   -4.3721    2.5861    3.8633 H   0  0  0  0  0  0  0  0  0  0  0  0
   -2.9524    2.9290    1.8879 H   0  0  0  0  0  0  0  0  0  0  0  0
   -1.7129   -0.9194   -0.1832 H   0  0  0  0  0  0  0  0  0  0  0  0
   -2.7223    1.4174   -1.8866 H   0  0  0  0  0  0  0  0  0  0  0  0
   -2.8165   -0.2782   -2.3211 H   0  0  0  0  0  0  0  0  0  0  0  0
   -4.2787    1.0937   -0.0343 H   0  0  0  0  0  0  0  0  0  0  0  0
   -4.2145   -0.6720   -0.2229 H   0  0  0  0  0  0  0  0  0  0  0  0
   -5.2690    1.2398   -2.3860 H   0  0  0  0  0  0  0  0  0  0  0  0
   -6.2821    0.4676   -1.1568 H   0  0  0  0  0  0  0  0  0  0  0  0
   -4.6905   -0.8466   -3.1050 H   0  0  0  0  0  0  0  0  0  0  0  0
  1  2  1  0
  2  3  1  0
  3  4  1  0
  4  5  1  0
  5  6  1  0
  6  7  1  0
  7  8  2  0
  7  9  1  0
  9 10  1  0
 10 11  2  0
 11 12  1  0
 12 13  2  0
 13 14  1  0
 14 15  2  0
  6 16  2  0
 16 17  1  0
 17 18  1  0
 18 19  2  0
 19 20  1  0
 20 21  2  0
 21 22  1  0
 21 23  1  0
 23 24  2  0
 17 25  1  0
 25 26  1  0
 26 27  1  0
 27 28  1  0
 28 29  1  0
 25  4  1  0
 15 10  1  0
 24 18  1  0
  1 30  1  0
  1 31  1  0
  1 32  1  0
  2 33  1  0
  2 34  1  0
  4 35  1  0
  9 36  1  0
 11 37  1  0
 12 38  1  0
 13 39  1  0
 14 40  1  0
 15 41  1  0
 16 42  1  0
 17 43  1  0
 19 44  1  0
 20 45  1  0
 23 46  1  0
 24 47  1  0
 25 48  1  0
 26 49  1  0
 26 50  1  0
 27 51  1  0
 27 52  1  0
 28 53  1  0
 28 54  1  0
 29 55  1  0
M  END
$$$$
