
     RDKit          3D

 47 50  0  0  0  0  0  0  0  0999 V2000
   -5.8874   -2.0348   -0.8124 C   0  0  0  0  0  0  0  0  0  0  0  0
   -5.8201   -1.1544    0.4274 C   0  0  0  0  0  0  0  0  0  0  0  0
   -5.0770    0.0838    0.1570 N   0  0  0  0  0  0  0  0  0  0  0  0
   -5.8846    1.2260   -0.2914 C   0  0  0  0  0  0  0  0  0  0  0  0
   -6.3156    2.0861    0.8881 C   0  0  0  0  0  0  0  0  0  0  0  0
   -3.6953    0.1636    0.2961 C   0  0  0  0  0  0  0  0  0  0  0  0
   -2.9938    1.3743    0.1571 C   0  0  0  0  0  0  0  0  0  0  0  0
   -1.5993    1.4627    0.2947 C   0  0  0  0  0  0  0  0  0  0  0  0
   -0.8454    0.3269    0.5730 C   0  0  0  0  0  0  0  0  0  0  0  0
    0.6068    0.4377    0.7270 C   0  0  0  0  0  0  0  0  0  0  0  0
    1.5265   -0.1108   -0.0791 C   0  0  0  0  0  0  0  0  0  0  0  0
    1.2477   -1.0722   -1.5130 S   0  0  0  0  0  0  0  0  0  0  0  0
    2.9423   -1.2102   -1.7366 C   0  0  0  0  0  0  0  0  0  0  0  0
    3.7077   -1.7486   -2.6417 N   0  0  0  0  0  0  0  0  0  0  0  0
    5.0110   -1.4757   -2.2467 N   0  0  0  0  0  0  0  0  0  0  0  0
    4.9810   -0.8022   -1.1013 C   0  0  0  0  0  0  0  0  0  0  0  0
    6.1358   -0.3420   -0.3413 C   0  0  0  0  0  0  0  0  0  0  0  0
    7.0163    0.5661   -0.9511 C   0  0  0  0  0  0  0  0  0  0  0  0
    8.1370    1.0423   -0.2671 C   0  0  0  0  0  0  0  0  0  0  0  0
    8.3973    0.6091    1.0307 C   0  0  0  0  0  0  0  0  0  0  0  0
    7.5438   -0.3094    1.6422 C   0  0  0  0  0  0  0  0  0  0  0  0
    6.4212   -0.7896    0.9593 C   0  0  0  0  0  0  0  0  0  0  0  0
    5.4432   -1.9729    1.7610 Cl  0  0  0  0  0  0  0  0  0  0  0  0
    3.6661   -0.5854   -0.7821 N   0  0  0  0  0  0  0  0  0  0  0  0
    2.9797    0.0968    0.1910 C   0  0  0  0  0  0  0  0  0  0  0  0
    3.5259    0.7496    1.0596 O   0  0  0  0  0  0  0  0  0  0  0  0
   -1.5070   -0.8874    0.7294 C   0  0  0  0  0  0  0  0  0  0  0  0
   -2.9021   -0.9598    0.5895 C   0  0  0  0  0  0  0  0  0  0  0  0
   -6.4618   -2.9420   -0.6003 H   0  0  0  0  0  0  0  0  0  0  0  0
   -4.8917   -2.3358   -1.1517 H   0  0  0  0  0  0  0  0  0  0  0  0
   -6.3752   -1.5108   -1.6410 H   0  0  0  0  0  0  0  0  0  0  0  0
   -6.8455   -0.9090    0.7328 H   0  0  0  0  0  0  0  0  0  0  0  0
   -5.4011   -1.7042    1.2774 H   0  0  0  0  0  0  0  0  0  0  0  0
   -5.3614    1.8258   -1.0445 H   0  0  0  0  0  0  0  0  0  0  0  0
   -6.7862    0.8632   -0.8015 H   0  0  0  0  0  0  0  0  0  0  0  0
   -6.9042    1.5038    1.6047 H   0  0  0  0  0  0  0  0  0  0  0  0
   -6.9331    2.9205    0.5412 H   0  0  0  0  0  0  0  0  0  0  0  0
   -5.4565    2.5000    1.4244 H   0  0  0  0  0  0  0  0  0  0  0  0
   -3.5169    2.3016   -0.0540 H   0  0  0  0  0  0  0  0  0  0  0  0
   -1.1211    2.4322    0.1772 H   0  0  0  0  0  0  0  0  0  0  0  0
    0.9226    1.0438    1.5758 H   0  0  0  0  0  0  0  0  0  0  0  0
    6.8328    0.9068   -1.9692 H   0  0  0  0  0  0  0  0  0  0  0  0
    8.8082    1.7486   -0.7503 H   0  0  0  0  0  0  0  0  0  0  0  0
    9.2704    0.9784    1.5635 H   0  0  0  0  0  0  0  0  0  0  0  0
    7.7632   -0.6540    2.6499 H   0  0  0  0  0  0  0  0  0  0  0  0
   -0.9569   -1.7961    0.9619 H   0  0  0  0  0  0  0  0  0  0  0  0
   -3.3474   -1.9423    0.7104 H   0  0  0  0  0  0  0  0  0  0  0  0
  1  2  1  0
  2  3  1  0
  3  4  1  0
  4  5  1  0
  3  6  1  0
  6  7  2  0
  7  8  1  0
  8  9  2  0
  9 10  1  0
 10 11  2  3
 11 12  1  0
 12 13  1  0
 13 14  2  0
 14 15  1  0
 15 16  2  0
 16 17  1  0
 17 18  2  0
 18 19  1  0
 19 20  2  0
 20 21  1  0
 21 22  2  0
 22 23  1  0
 16 24  1  0
 24 25  1  0
 25 26  2  0
  9 27  1  0
 27 28  2  0
 28  6  1  0
 25 11  1  0
 24 13  1  0
 22 17  1  0
  1 29  1  0
  1 30  1  0
  1 31  1  0
  2 32  1  0
  2 33  1  0
  4 34  1  0
  4 35  1  0
  5 36  1  0
  5 37  1  0
  5 38  1  0
  7 39  1  0
  8 40  1  0
 10 41  1  0
 18 42  1  0
 19 43  1  0
 20 44  1  0
 21 45  1  0
 27 46  1  0
 28 47  1  0
M  END
$$$$
