
     RDKit          3D

 59 62  0  0  0  0  0  0  0  0999 V2000
   -1.2867    1.5313   -5.0742 C   0  0  0  0  0  0  0  0  0  0  0  0
   -1.2829    0.0902   -4.6036 C   0  0  0  0  0  0  0  0  0  0  0  0
   -1.3646    0.0895   -3.1724 O   0  0  0  0  0  0  0  0  0  0  0  0
   -1.3417   -1.1491   -2.6062 C   0  0  0  0  0  0  0  0  0  0  0  0
   -1.2805   -2.1941   -3.2411 O   0  0  0  0  0  0  0  0  0  0  0  0
   -1.4661   -1.0723   -1.0781 C   0  0  0  0  0  0  0  0  0  0  0  0
   -2.9960   -1.0007   -0.8220 C   0  0  0  0  0  0  0  0  0  0  0  0
   -3.4538   -0.9205    0.6154 C   0  0  0  0  0  0  0  0  0  0  0  0
   -3.6377    0.3205    1.2390 C   0  0  0  0  0  0  0  0  0  0  0  0
   -4.0627    0.3982    2.5704 C   0  0  0  0  0  0  0  0  0  0  0  0
   -4.3151   -0.7654    3.2953 C   0  0  0  0  0  0  0  0  0  0  0  0
   -4.7328   -0.8305    4.5958 O   0  0  0  0  0  0  0  0  0  0  0  0
   -4.9176    0.4052    5.2740 C   0  0  0  0  0  0  0  0  0  0  0  0
   -4.1419   -2.0037    2.6747 C   0  0  0  0  0  0  0  0  0  0  0  0
   -3.7182   -2.0840    1.3461 C   0  0  0  0  0  0  0  0  0  0  0  0
   -0.8307   -2.3371   -0.4580 C   0  0  0  0  0  0  0  0  0  0  0  0
    0.6764   -2.4067   -0.7035 C   0  0  0  0  0  0  0  0  0  0  0  0
    1.3666   -1.1858   -0.2916 N   0  0  0  0  0  0  0  0  0  0  0  0
    2.6132   -1.3244    0.3296 C   0  0  0  0  0  0  0  0  0  0  0  0
    2.9422   -2.3875    0.8569 O   0  0  0  0  0  0  0  0  0  0  0  0
    3.5268   -0.1989    0.3766 C   0  0  0  0  0  0  0  0  0  0  0  0
    3.8128    0.8240   -0.5127 C   0  0  0  0  0  0  0  0  0  0  0  0
    4.8348    1.6403    0.0467 C   0  0  0  0  0  0  0  0  0  0  0  0
    5.5006    2.8063   -0.3769 C   0  0  0  0  0  0  0  0  0  0  0  0
    6.4930    3.3617    0.4395 C   0  0  0  0  0  0  0  0  0  0  0  0
    6.8271    2.7688    1.6555 C   0  0  0  0  0  0  0  0  0  0  0  0
    6.1841    1.6064    2.0919 C   0  0  0  0  0  0  0  0  0  0  0  0
    5.1920    1.0683    1.2646 C   0  0  0  0  0  0  0  0  0  0  0  0
    4.4173   -0.0552    1.4206 N   0  0  0  0  0  0  0  0  0  0  0  0
    0.7951    0.0764   -0.7535 C   0  0  0  0  0  0  0  0  0  0  0  0
   -0.7139    0.1495   -0.5094 C   0  0  0  0  0  0  0  0  0  0  0  0
   -0.4405    2.0786   -4.6458 H   0  0  0  0  0  0  0  0  0  0  0  0
   -1.2273    1.5860   -6.1647 H   0  0  0  0  0  0  0  0  0  0  0  0
   -2.1968    2.0425   -4.7431 H   0  0  0  0  0  0  0  0  0  0  0  0
   -0.3564   -0.4006   -4.9220 H   0  0  0  0  0  0  0  0  0  0  0  0
   -2.1461   -0.4392   -5.0219 H   0  0  0  0  0  0  0  0  0  0  0  0
   -3.4168   -0.1372   -1.3579 H   0  0  0  0  0  0  0  0  0  0  0  0
   -3.4852   -1.8692   -1.2872 H   0  0  0  0  0  0  0  0  0  0  0  0
   -3.4522    1.2426    0.6923 H   0  0  0  0  0  0  0  0  0  0  0  0
   -4.1879    1.3827    3.0082 H   0  0  0  0  0  0  0  0  0  0  0  0
   -3.9781    0.9638    5.3406 H   0  0  0  0  0  0  0  0  0  0  0  0
   -5.2444    0.1812    6.2941 H   0  0  0  0  0  0  0  0  0  0  0  0
   -5.7012    1.0036    4.7975 H   0  0  0  0  0  0  0  0  0  0  0  0
   -4.3402   -2.9163    3.2317 H   0  0  0  0  0  0  0  0  0  0  0  0
   -3.5973   -3.0643    0.8903 H   0  0  0  0  0  0  0  0  0  0  0  0
   -0.9904   -2.3399    0.6271 H   0  0  0  0  0  0  0  0  0  0  0  0
   -1.3021   -3.2466   -0.8502 H   0  0  0  0  0  0  0  0  0  0  0  0
    1.0792   -3.2826   -0.1844 H   0  0  0  0  0  0  0  0  0  0  0  0
    0.8967   -2.5509   -1.7673 H   0  0  0  0  0  0  0  0  0  0  0  0
    3.3485    0.9743   -1.4776 H   0  0  0  0  0  0  0  0  0  0  0  0
    5.2499    3.2719   -1.3251 H   0  0  0  0  0  0  0  0  0  0  0  0
    7.0097    4.2627    0.1183 H   0  0  0  0  0  0  0  0  0  0  0  0
    7.6035    3.2135    2.2740 H   0  0  0  0  0  0  0  0  0  0  0  0
    6.4514    1.1421    3.0355 H   0  0  0  0  0  0  0  0  0  0  0  0
    4.4775   -0.7038    2.1945 H   0  0  0  0  0  0  0  0  0  0  0  0
    1.0293    0.1765   -1.8187 H   0  0  0  0  0  0  0  0  0  0  0  0
    1.2484    0.9181   -0.2244 H   0  0  0  0  0  0  0  0  0  0  0  0
   -0.8676    0.2012    0.5759 H   0  0  0  0  0  0  0  0  0  0  0  0
   -1.1025    1.0883   -0.9216 H   0  0  0  0  0  0  0  0  0  0  0  0
  1  2  1  0
  2  3  1  0
  3  4  1  0
  4  5  2  0
  4  6  1  0
  6  7  1  0
  7  8  1  0
  8  9  2  0
  9 10  1  0
 10 11  2  0
 11 12  1  0
 12 13  1  0
 11 14  1  0
 14 15  2  0
  6 16  1  0
 16 17  1  0
 17 18  1  0
 18 19  1  0
 19 20  2  0
 19 21  1  0
 21 22  2  0
 22 23  1  0
 23 24  2  0
 24 25  1  0
 25 26  2  0
 26 27  1  0
 27 28  2  0
 28 29  1  0
 18 30  1  0
 30 31  1  0
 31  6  1  0
 15  8  1  0
 29 21  1  0
 28 23  1  0
  1 32  1  0
  1 33  1  0
  1 34  1  0
  2 35  1  0
  2 36  1  0
  7 37  1  0
  7 38  1  0
  9 39  1  0
 10 40  1  0
 13 41  1  0
 13 42  1  0
 13 43  1  0
 14 44  1  0
 15 45  1  0
 16 46  1  0
 16 47  1  0
 17 48  1  0
 17 49  1  0
 22 50  1  0
 24 51  1  0
 25 52  1  0
 26 53  1  0
 27 54  1  0
 29 55  1  0
 30 56  1  0
 30 57  1  0
 31 58  1  0
 31 59  1  0
M  END
$$$$
