
     RDKit          3D

 48 50  0  0  0  0  0  0  0  0999 V2000
   -0.3919   -0.4886    2.2668 C   0  0  0  0  0  0  0  0  0  0  0  0
   -0.0842   -0.1108    1.0178 C   0  0  0  0  0  0  0  0  0  0  0  0
    1.2826    0.0999    0.4846 C   0  0  0  0  0  0  0  0  0  0  0  0
    2.4313    0.0082    1.1783 C   0  0  0  0  0  0  0  0  0  0  0  0
    3.7164    0.2562    0.6189 C   0  0  0  0  0  0  0  0  0  0  0  0
    4.9407   -0.9545    0.7357 S   0  0  0  0  0  0  0  0  0  0  0  0
    6.0250    0.0530   -0.0973 C   0  0  0  0  0  0  0  0  0  0  0  0
    7.3098   -0.3125   -0.4057 N   0  0  0  0  0  0  0  0  0  0  0  0
    7.9313   -1.5030   -0.1115 C   0  0  0  0  0  0  0  0  0  0  0  0
    9.3470   -1.5412   -0.6317 C   0  0  0  0  0  0  0  0  0  0  0  0
    7.4586   -2.4691    0.4751 O   0  0  0  0  0  0  0  0  0  0  0  0
    5.5694    1.2326   -0.4380 N   0  0  0  0  0  0  0  0  0  0  0  0
    4.2682    1.3611   -0.0171 C   0  0  0  0  0  0  0  0  0  0  0  0
    3.5919    2.5093   -0.2125 O   0  0  0  0  0  0  0  0  0  0  0  0
    1.1459    0.4161   -0.9353 C   0  0  0  0  0  0  0  0  0  0  0  0
   -0.1716    0.4226   -1.2204 C   0  0  0  0  0  0  0  0  0  0  0  0
   -0.7497    0.7637   -2.5528 C   0  0  0  0  0  0  0  0  0  0  0  0
   -0.9378    0.1227   -0.0743 N   0  0  0  0  0  0  0  0  0  0  0  0
   -2.3536    0.1290   -0.0235 C   0  0  0  0  0  0  0  0  0  0  0  0
   -3.1122   -0.6941   -0.8643 C   0  0  0  0  0  0  0  0  0  0  0  0
   -4.5131   -0.6847   -0.8211 C   0  0  0  0  0  0  0  0  0  0  0  0
   -5.1878    0.1516    0.0666 C   0  0  0  0  0  0  0  0  0  0  0  0
   -6.5917    0.2254    0.1714 N   0  0  0  0  0  0  0  0  0  0  0  0
   -7.5292   -0.4886   -0.5535 C   0  0  0  0  0  0  0  0  0  0  0  0
   -8.9395   -0.1338   -0.1533 C   0  0  0  0  0  0  0  0  0  0  0  0
   -7.3133   -1.3317   -1.4160 O   0  0  0  0  0  0  0  0  0  0  0  0
   -4.4388    0.9762    0.9130 C   0  0  0  0  0  0  0  0  0  0  0  0
   -3.0397    0.9633    0.8688 C   0  0  0  0  0  0  0  0  0  0  0  0
    0.3562   -0.6649    3.0292 H   0  0  0  0  0  0  0  0  0  0  0  0
   -1.4213   -0.6633    2.5602 H   0  0  0  0  0  0  0  0  0  0  0  0
    2.4159   -0.2925    2.2219 H   0  0  0  0  0  0  0  0  0  0  0  0
    7.8114    0.4084   -0.9056 H   0  0  0  0  0  0  0  0  0  0  0  0
    9.8407   -0.5757   -0.4869 H   0  0  0  0  0  0  0  0  0  0  0  0
    9.3365   -1.7946   -1.6951 H   0  0  0  0  0  0  0  0  0  0  0  0
    9.9161   -2.2980   -0.0843 H   0  0  0  0  0  0  0  0  0  0  0  0
    2.7053    2.4510    0.1798 H   0  0  0  0  0  0  0  0  0  0  0  0
    1.9468    0.6112   -1.6307 H   0  0  0  0  0  0  0  0  0  0  0  0
   -1.4991    1.5564   -2.4626 H   0  0  0  0  0  0  0  0  0  0  0  0
   -1.2124   -0.1131   -3.0149 H   0  0  0  0  0  0  0  0  0  0  0  0
    0.0237    1.1243   -3.2401 H   0  0  0  0  0  0  0  0  0  0  0  0
   -2.6152   -1.3746   -1.5513 H   0  0  0  0  0  0  0  0  0  0  0  0
   -5.0426   -1.3503   -1.4956 H   0  0  0  0  0  0  0  0  0  0  0  0
   -6.9506    0.8750    0.8593 H   0  0  0  0  0  0  0  0  0  0  0  0
   -9.0674    0.9524   -0.1304 H   0  0  0  0  0  0  0  0  0  0  0  0
   -9.6422   -0.5471   -0.8828 H   0  0  0  0  0  0  0  0  0  0  0  0
   -9.1572   -0.5544    0.8323 H   0  0  0  0  0  0  0  0  0  0  0  0
   -4.9266    1.6449    1.6169 H   0  0  0  0  0  0  0  0  0  0  0  0
   -2.4820    1.6266    1.5255 H   0  0  0  0  0  0  0  0  0  0  0  0
  1  2  2  0
  2  3  1  0
  3  4  2  3
  4  5  1  0
  5  6  1  0
  6  7  1  0
  7  8  1  0
  8  9  1  0
  9 10  1  0
  9 11  2  0
  7 12  2  0
 12 13  1  0
 13 14  1  0
  3 15  1  0
 15 16  2  0
 16 17  1  0
 16 18  1  0
 18 19  1  0
 19 20  2  0
 20 21  1  0
 21 22  2  0
 22 23  1  0
 23 24  1  0
 24 25  1  0
 24 26  2  0
 22 27  1  0
 27 28  2  0
 18  2  1  0
 28 19  1  0
 13  5  2  0
  1 29  1  0
  1 30  1  0
  4 31  1  0
  8 32  1  0
 10 33  1  0
 10 34  1  0
 10 35  1  0
 14 36  1  0
 15 37  1  0
 17 38  1  0
 17 39  1  0
 17 40  1  0
 20 41  1  0
 21 42  1  0
 23 43  1  0
 25 44  1  0
 25 45  1  0
 25 46  1  0
 27 47  1  0
 28 48  1  0
M  END
$$$$
