
     RDKit          3D

 45 47  0  0  0  0  0  0  0  0999 V2000
   -0.0600    2.9993   -0.8253 C   0  0  0  0  0  0  0  0  0  0  0  0
    0.6234    1.7205   -0.4579 C   0  0  0  0  0  0  0  0  0  0  0  0
    0.0302    0.5184   -0.3324 C   0  0  0  0  0  0  0  0  0  0  0  0
   -1.2876    0.1505   -0.4953 N   0  0  0  0  0  0  0  0  0  0  0  0
   -1.9149   -1.0766   -0.0180 C   0  0  0  0  0  0  0  0  0  0  0  0
   -2.0734   -1.0528    1.5037 C   0  0  0  0  0  0  0  0  0  0  0  0
   -3.2671   -1.2599   -0.6993 C   0  0  0  0  0  0  0  0  0  0  0  0
   -3.5573   -2.4957   -1.3069 C   0  0  0  0  0  0  0  0  0  0  0  0
   -4.7904   -2.7254   -1.9211 C   0  0  0  0  0  0  0  0  0  0  0  0
   -5.7574   -1.7242   -1.9381 C   0  0  0  0  0  0  0  0  0  0  0  0
   -5.4930   -0.4916   -1.3434 C   0  0  0  0  0  0  0  0  0  0  0  0
   -4.2580   -0.2661   -0.7307 C   0  0  0  0  0  0  0  0  0  0  0  0
   -4.0045    0.9540   -0.1617 O   0  0  0  0  0  0  0  0  0  0  0  0
    1.1590   -0.4208    0.0458 C   0  0  0  0  0  0  0  0  0  0  0  0
    1.0114   -1.6108    0.2875 O   0  0  0  0  0  0  0  0  0  0  0  0
    2.3205    0.3629    0.1243 N   0  0  0  0  0  0  0  0  0  0  0  0
    3.4761    0.0514    0.8893 C   0  0  0  0  0  0  0  0  0  0  0  0
    4.2783    1.0635    1.4401 C   0  0  0  0  0  0  0  0  0  0  0  0
    5.4178    0.7566    2.1909 C   0  0  0  0  0  0  0  0  0  0  0  0
    5.7738   -0.5711    2.4052 C   0  0  0  0  0  0  0  0  0  0  0  0
    4.9882   -1.5892    1.8734 C   0  0  0  0  0  0  0  0  0  0  0  0
    3.8479   -1.2793    1.1241 C   0  0  0  0  0  0  0  0  0  0  0  0
    2.0083    1.7031   -0.2355 N   0  0  0  0  0  0  0  0  0  0  0  0
    2.8755    2.2400   -1.2993 C   0  0  0  0  0  0  0  0  0  0  0  0
    0.2421    3.3251   -1.8256 H   0  0  0  0  0  0  0  0  0  0  0  0
    0.2026    3.7866   -0.1108 H   0  0  0  0  0  0  0  0  0  0  0  0
   -1.1500    2.9081   -0.8222 H   0  0  0  0  0  0  0  0  0  0  0  0
   -1.9447    0.9287   -0.4983 H   0  0  0  0  0  0  0  0  0  0  0  0
   -1.2876   -1.9305   -0.2950 H   0  0  0  0  0  0  0  0  0  0  0  0
   -2.5764   -1.9591    1.8590 H   0  0  0  0  0  0  0  0  0  0  0  0
   -2.6594   -0.1917    1.8435 H   0  0  0  0  0  0  0  0  0  0  0  0
   -1.1002   -0.9950    2.0023 H   0  0  0  0  0  0  0  0  0  0  0  0
   -2.8158   -3.2930   -1.3049 H   0  0  0  0  0  0  0  0  0  0  0  0
   -4.9928   -3.6869   -2.3863 H   0  0  0  0  0  0  0  0  0  0  0  0
   -6.7159   -1.9037   -2.4181 H   0  0  0  0  0  0  0  0  0  0  0  0
   -6.2564    0.2796   -1.3722 H   0  0  0  0  0  0  0  0  0  0  0  0
   -4.8168    1.4861   -0.2036 H   0  0  0  0  0  0  0  0  0  0  0  0
    4.0081    2.1092    1.3218 H   0  0  0  0  0  0  0  0  0  0  0  0
    6.0187    1.5567    2.6151 H   0  0  0  0  0  0  0  0  0  0  0  0
    6.6569   -0.8129    2.9905 H   0  0  0  0  0  0  0  0  0  0  0  0
    5.2575   -2.6293    2.0387 H   0  0  0  0  0  0  0  0  0  0  0  0
    3.2695   -2.1031    0.7138 H   0  0  0  0  0  0  0  0  0  0  0  0
    2.6991    3.3137   -1.4239 H   0  0  0  0  0  0  0  0  0  0  0  0
    3.9371    2.1155   -1.0674 H   0  0  0  0  0  0  0  0  0  0  0  0
    2.6774    1.7394   -2.2543 H   0  0  0  0  0  0  0  0  0  0  0  0
  1  2  1  0
  2  3  2  0
  3  4  1  0
  4  5  1  0
  5  6  1  0
  5  7  1  0
  7  8  2  0
  8  9  1  0
  9 10  2  0
 10 11  1  0
 11 12  2  0
 12 13  1  0
  3 14  1  0
 14 15  2  0
 14 16  1  0
 16 17  1  0
 17 18  2  0
 18 19  1  0
 19 20  2  0
 20 21  1  0
 21 22  2  0
 16 23  1  0
 23 24  1  0
 23  2  1  0
 12  7  1  0
 22 17  1  0
  1 25  1  0
  1 26  1  0
  1 27  1  0
  4 28  1  0
  5 29  1  0
  6 30  1  0
  6 31  1  0
  6 32  1  0
  8 33  1  0
  9 34  1  0
 10 35  1  0
 11 36  1  0
 13 37  1  0
 18 38  1  0
 19 39  1  0
 20 40  1  0
 21 41  1  0
 22 42  1  0
 24 43  1  0
 24 44  1  0
 24 45  1  0
M  END
$$$$
