
     RDKit          3D

 52 53  0  0  0  0  0  0  0  0999 V2000
   -6.7949    0.1622   -1.3201 C   0  0  0  0  0  0  0  0  0  0  0  0
   -6.3115   -1.2536   -1.0303 C   0  0  0  0  0  0  0  0  0  0  0  0
   -5.3290   -1.3267    0.1564 C   0  0  0  0  0  0  0  0  0  0  0  0
   -5.0320   -2.7882    0.5130 C   0  0  0  0  0  0  0  0  0  0  0  0
   -4.0367   -0.5659   -0.0914 C   0  0  0  0  0  0  0  0  0  0  0  0
   -3.1834   -0.8883   -1.1542 C   0  0  0  0  0  0  0  0  0  0  0  0
   -2.0021   -0.1714   -1.3638 C   0  0  0  0  0  0  0  0  0  0  0  0
   -1.6437    0.8945   -0.5240 C   0  0  0  0  0  0  0  0  0  0  0  0
   -0.3322    1.6229   -0.7770 C   0  0  0  0  0  0  0  0  0  0  0  0
   -0.3882    3.1205   -0.4558 C   0  0  0  0  0  0  0  0  0  0  0  0
    0.7231    0.9605   -0.0043 N   0  0  0  0  0  0  0  0  0  0  0  0
    2.0722    0.8908   -0.2993 C   0  0  0  0  0  0  0  0  0  0  0  0
    2.7701    1.5384   -1.6689 S   0  0  0  0  0  0  0  0  0  0  0  0
    2.7286    0.2041    0.7048 N   0  0  0  0  0  0  0  0  0  0  0  0
    4.1463   -0.1471    0.8648 C   0  0  0  0  0  0  0  0  0  0  0  0
    5.0740    1.0639    1.0233 C   0  0  0  0  0  0  0  0  0  0  0  0
    6.5111    0.6253    1.3024 C   0  0  0  0  0  0  0  0  0  0  0  0
    7.0175   -0.3517    0.2443 C   0  0  0  0  0  0  0  0  0  0  0  0
    6.0967   -1.5616    0.1052 C   0  0  0  0  0  0  0  0  0  0  0  0
    4.6553   -1.1441   -0.1832 C   0  0  0  0  0  0  0  0  0  0  0  0
   -2.4892    1.2025    0.5506 C   0  0  0  0  0  0  0  0  0  0  0  0
   -3.6719    0.4853    0.7601 C   0  0  0  0  0  0  0  0  0  0  0  0
   -5.9753    0.8087   -1.6477 H   0  0  0  0  0  0  0  0  0  0  0  0
   -7.5448    0.1464   -2.1176 H   0  0  0  0  0  0  0  0  0  0  0  0
   -7.2548    0.6090   -0.4329 H   0  0  0  0  0  0  0  0  0  0  0  0
   -7.1898   -1.8719   -0.8050 H   0  0  0  0  0  0  0  0  0  0  0  0
   -5.8620   -1.6716   -1.9389 H   0  0  0  0  0  0  0  0  0  0  0  0
   -5.8329   -0.8859    1.0277 H   0  0  0  0  0  0  0  0  0  0  0  0
   -5.9538   -3.3131    0.7867 H   0  0  0  0  0  0  0  0  0  0  0  0
   -4.3461   -2.8525    1.3650 H   0  0  0  0  0  0  0  0  0  0  0  0
   -4.5773   -3.3293   -0.3240 H   0  0  0  0  0  0  0  0  0  0  0  0
   -3.4267   -1.7041   -1.8309 H   0  0  0  0  0  0  0  0  0  0  0  0
   -1.3550   -0.4546   -2.1924 H   0  0  0  0  0  0  0  0  0  0  0  0
   -0.0995    1.5321   -1.8447 H   0  0  0  0  0  0  0  0  0  0  0  0
    0.5301    3.6260   -0.7716 H   0  0  0  0  0  0  0  0  0  0  0  0
   -0.4931    3.3054    0.6189 H   0  0  0  0  0  0  0  0  0  0  0  0
   -1.2269    3.6023   -0.9702 H   0  0  0  0  0  0  0  0  0  0  0  0
    0.4454    0.6879    0.9257 H   0  0  0  0  0  0  0  0  0  0  0  0
    2.1176   -0.3018    1.3293 H   0  0  0  0  0  0  0  0  0  0  0  0
    4.1650   -0.6746    1.8296 H   0  0  0  0  0  0  0  0  0  0  0  0
    5.0721    1.6861    0.1237 H   0  0  0  0  0  0  0  0  0  0  0  0
    4.7204    1.7013    1.8426 H   0  0  0  0  0  0  0  0  0  0  0  0
    7.1644    1.5045    1.3354 H   0  0  0  0  0  0  0  0  0  0  0  0
    6.5631    0.1521    2.2907 H   0  0  0  0  0  0  0  0  0  0  0  0
    8.0272   -0.6868    0.5067 H   0  0  0  0  0  0  0  0  0  0  0  0
    7.0920    0.1630   -0.7215 H   0  0  0  0  0  0  0  0  0  0  0  0
    6.4596   -2.2109   -0.6995 H   0  0  0  0  0  0  0  0  0  0  0  0
    6.1278   -2.1516    1.0293 H   0  0  0  0  0  0  0  0  0  0  0  0
    4.6126   -0.7158   -1.1891 H   0  0  0  0  0  0  0  0  0  0  0  0
    4.0130   -2.0330   -0.1969 H   0  0  0  0  0  0  0  0  0  0  0  0
   -2.2440    2.0030    1.2436 H   0  0  0  0  0  0  0  0  0  0  0  0
   -4.3084    0.7576    1.5994 H   0  0  0  0  0  0  0  0  0  0  0  0
  1  2  1  0
  2  3  1  0
  3  4  1  0
  3  5  1  0
  5  6  2  0
  6  7  1  0
  7  8  2  0
  8  9  1  0
  9 10  1  0
  9 11  1  0
 11 12  1  0
 12 13  2  0
 12 14  1  0
 14 15  1  0
 15 16  1  0
 16 17  1  0
 17 18  1  0
 18 19  1  0
 19 20  1  0
  8 21  1  0
 21 22  2  0
 22  5  1  0
 20 15  1  0
  1 23  1  0
  1 24  1  0
  1 25  1  0
  2 26  1  0
  2 27  1  0
  3 28  1  0
  4 29  1  0
  4 30  1  0
  4 31  1  0
  6 32  1  0
  7 33  1  0
  9 34  1  0
 10 35  1  0
 10 36  1  0
 10 37  1  0
 11 38  1  0
 14 39  1  0
 15 40  1  0
 16 41  1  0
 16 42  1  0
 17 43  1  0
 17 44  1  0
 18 45  1  0
 18 46  1  0
 19 47  1  0
 19 48  1  0
 20 49  1  0
 20 50  1  0
 21 51  1  0
 22 52  1  0
M  END
$$$$
