
     RDKit          3D

 57 59  0  0  0  0  0  0  0  0999 V2000
    7.1662   -1.9234    2.1162 C   0  0  0  0  0  0  0  0  0  0  0  0
    6.7299   -0.7828    1.3036 N   0  0  0  0  0  0  0  0  0  0  0  0
    7.9052   -0.0855    0.7701 C   0  0  0  0  0  0  0  0  0  0  0  0
    5.8368   -1.2537    0.2173 C   0  0  0  0  0  0  0  0  0  0  0  0
    5.1078   -0.1072   -0.5159 C   0  0  0  0  0  0  0  0  0  0  0  0
    4.5123    0.7919    0.4855 N   0  0  0  0  0  0  0  0  0  0  0  0
    3.7087    2.1605   -0.0289 S   0  0  0  0  0  6  0  0  0  0  0  0
    4.2498    2.5640   -1.3069 O   0  0  0  0  0  0  0  0  0  0  0  0
    3.6442    3.0662    1.0956 O   0  0  0  0  0  0  0  0  0  0  0  0
    2.0697    1.5309   -0.2919 C   0  0  0  0  0  0  0  0  0  0  0  0
    1.2302    1.3182    0.8039 C   0  0  0  0  0  0  0  0  0  0  0  0
   -0.0688    0.8285    0.6072 C   0  0  0  0  0  0  0  0  0  0  0  0
   -0.5631    0.5455   -0.6776 C   0  0  0  0  0  0  0  0  0  0  0  0
   -1.8543    0.0532   -0.8732 N   0  0  0  0  0  0  0  0  0  0  0  0
   -2.3401   -1.0292    0.0106 C   0  0  0  0  0  0  0  0  0  0  0  0
   -3.8156   -1.3797   -0.2906 C   0  0  0  0  0  0  0  0  0  0  0  0
   -4.6905   -0.2063   -0.0875 N   0  0  0  0  0  0  0  0  0  0  0  0
   -5.9910   -0.3486    0.3671 C   0  0  0  0  0  0  0  0  0  0  0  0
   -6.6589    0.6872    1.0456 C   0  0  0  0  0  0  0  0  0  0  0  0
   -7.9725    0.5416    1.5089 C   0  0  0  0  0  0  0  0  0  0  0  0
   -8.6460   -0.6498    1.2914 C   0  0  0  0  0  0  0  0  0  0  0  0
   -9.9032   -0.7918    1.7296 F   0  0  0  0  0  0  0  0  0  0  0  0
   -8.0308   -1.6922    0.6185 C   0  0  0  0  0  0  0  0  0  0  0  0
   -6.7160   -1.5382    0.1633 C   0  0  0  0  0  0  0  0  0  0  0  0
   -4.0615    1.1182   -0.2492 C   0  0  0  0  0  0  0  0  0  0  0  0
   -2.8709    1.0764   -1.2366 C   0  0  0  0  0  0  0  0  0  0  0  0
    0.3126    0.8031   -1.7530 C   0  0  0  0  0  0  0  0  0  0  0  0
   -0.1030    0.5137   -3.1095 N   0  0  0  0  0  4  0  0  0  0  0  0
    0.3752   -0.5007   -3.6360 O   0  0  0  0  0  0  0  0  0  0  0  0
   -0.8410    1.3391   -3.6656 O   0  0  0  0  0  1  0  0  0  0  0  0
    1.6178    1.2855   -1.5849 C   0  0  0  0  0  0  0  0  0  0  0  0
    7.7277   -2.6586    1.5276 H   0  0  0  0  0  0  0  0  0  0  0  0
    7.8010   -1.5864    2.9443 H   0  0  0  0  0  0  0  0  0  0  0  0
    6.3045   -2.4271    2.5677 H   0  0  0  0  0  0  0  0  0  0  0  0
    8.5618    0.2343    1.5868 H   0  0  0  0  0  0  0  0  0  0  0  0
    8.4871   -0.7184    0.0899 H   0  0  0  0  0  0  0  0  0  0  0  0
    7.6171    0.8263    0.2381 H   0  0  0  0  0  0  0  0  0  0  0  0
    6.3801   -1.8716   -0.5095 H   0  0  0  0  0  0  0  0  0  0  0  0
    5.0597   -1.8910    0.6614 H   0  0  0  0  0  0  0  0  0  0  0  0
    5.8225    0.4440   -1.1351 H   0  0  0  0  0  0  0  0  0  0  0  0
    4.3274   -0.5197   -1.1631 H   0  0  0  0  0  0  0  0  0  0  0  0
    5.0836    0.9263    1.3262 H   0  0  0  0  0  0  0  0  0  0  0  0
    1.5779    1.5325    1.8135 H   0  0  0  0  0  0  0  0  0  0  0  0
   -0.6967    0.6934    1.4849 H   0  0  0  0  0  0  0  0  0  0  0  0
   -1.7206   -1.9221   -0.1402 H   0  0  0  0  0  0  0  0  0  0  0  0
   -2.2689   -0.7424    1.0675 H   0  0  0  0  0  0  0  0  0  0  0  0
   -3.9163   -1.7260   -1.3272 H   0  0  0  0  0  0  0  0  0  0  0  0
   -4.0961   -2.2042    0.3771 H   0  0  0  0  0  0  0  0  0  0  0  0
   -6.1580    1.6300    1.2495 H   0  0  0  0  0  0  0  0  0  0  0  0
   -8.4656    1.3510    2.0361 H   0  0  0  0  0  0  0  0  0  0  0  0
   -8.5733   -2.6150    0.4409 H   0  0  0  0  0  0  0  0  0  0  0  0
   -6.2748   -2.3648   -0.3869 H   0  0  0  0  0  0  0  0  0  0  0  0
   -3.7118    1.4716    0.7286 H   0  0  0  0  0  0  0  0  0  0  0  0
   -4.7858    1.8438   -0.6383 H   0  0  0  0  0  0  0  0  0  0  0  0
   -3.2504    0.8239   -2.2348 H   0  0  0  0  0  0  0  0  0  0  0  0
   -2.4314    2.0799   -1.3019 H   0  0  0  0  0  0  0  0  0  0  0  0
    2.2602    1.4556   -2.4459 H   0  0  0  0  0  0  0  0  0  0  0  0
  1  2  1  0
  2  3  1  0
  2  4  1  0
  4  5  1  0
  5  6  1  0
  6  7  1  0
  7  8  2  0
  7  9  2  0
  7 10  1  0
 10 11  2  0
 11 12  1  0
 12 13  2  0
 13 14  1  0
 14 15  1  0
 15 16  1  0
 16 17  1  0
 17 18  1  0
 18 19  2  0
 19 20  1  0
 20 21  2  0
 21 22  1  0
 21 23  1  0
 23 24  2  0
 17 25  1  0
 25 26  1  0
 13 27  1  0
 27 28  1  0
 28 29  2  0
 28 30  1  0
 27 31  2  0
 31 10  1  0
 26 14  1  0
 24 18  1  0
  1 32  1  0
  1 33  1  0
  1 34  1  0
  3 35  1  0
  3 36  1  0
  3 37  1  0
  4 38  1  0
  4 39  1  0
  5 40  1  0
  5 41  1  0
  6 42  1  0
 11 43  1  0
 12 44  1  0
 15 45  1  0
 15 46  1  0
 16 47  1  0
 16 48  1  0
 19 49  1  0
 20 50  1  0
 23 51  1  0
 24 52  1  0
 25 53  1  0
 25 54  1  0
 26 55  1  0
 26 56  1  0
 31 57  1  0
M  CHG  2  28   1  30  -1
M  END
$$$$
