
     RDKit          3D

 47 50  0  0  0  0  0  0  0  0999 V2000
    3.3282   -0.5254   -0.5817 C   0  0  0  0  0  0  0  0  0  0  0  0
    2.7422   -0.0011    0.6304 N   0  0  0  0  0  0  0  0  0  0  0  0
    3.4043    0.6595    1.6464 C   0  0  0  0  0  0  0  0  0  0  0  0
    4.8245    0.9665    1.6766 C   0  0  0  0  0  0  0  0  0  0  0  0
    5.3156    2.1015    1.0221 C   0  0  0  0  0  0  0  0  0  0  0  0
    6.6811    2.3920    1.0499 C   0  0  0  0  0  0  0  0  0  0  0  0
    7.5599    1.5513    1.7322 C   0  0  0  0  0  0  0  0  0  0  0  0
    7.0751    0.4216    2.3903 C   0  0  0  0  0  0  0  0  0  0  0  0
    5.7099    0.1303    2.3653 C   0  0  0  0  0  0  0  0  0  0  0  0
    2.4178    0.9325    2.5758 C   0  0  0  0  0  0  0  0  0  0  0  0
    1.1963    0.4720    2.1610 N   0  0  0  0  0  0  0  0  0  0  0  0
    1.4212   -0.0848    0.9946 C   0  0  0  0  0  0  0  0  0  0  0  0
    0.2123   -0.8237    0.0001 S   0  0  0  0  0  0  0  0  0  0  0  0
   -1.1254   -1.0180    1.2170 C   0  0  0  0  0  0  0  0  0  0  0  0
   -2.3805   -1.5548    0.5351 C   0  0  0  0  0  0  0  0  0  0  0  0
   -2.7027   -2.7223    0.7820 O   0  0  0  0  0  0  0  0  0  0  0  0
   -3.1020   -0.6915   -0.3150 N   0  0  0  0  0  0  0  0  0  0  0  0
   -2.8578    0.7594   -0.3169 C   0  0  0  0  0  0  0  0  0  0  0  0
   -4.1318    1.5645   -0.4942 C   0  0  0  0  0  0  0  0  0  0  0  0
   -4.7425    1.2289   -1.8365 C   0  0  0  0  0  0  0  0  0  0  0  0
   -4.8587   -0.2606   -2.0193 C   0  0  0  0  0  0  0  0  0  0  0  0
   -5.7696   -0.7204   -2.9911 C   0  0  0  0  0  0  0  0  0  0  0  0
   -5.9228   -2.0791   -3.2366 C   0  0  0  0  0  0  0  0  0  0  0  0
   -5.1575   -2.9881   -2.5224 C   0  0  0  0  0  0  0  0  0  0  0  0
   -4.2388   -2.5395   -1.5652 C   0  0  0  0  0  0  0  0  0  0  0  0
   -4.0679   -1.1745   -1.2838 C   0  0  0  0  0  0  0  0  0  0  0  0
    4.4094   -0.3770   -0.5821 H   0  0  0  0  0  0  0  0  0  0  0  0
    3.1187   -1.5967   -0.6378 H   0  0  0  0  0  0  0  0  0  0  0  0
    2.8911    0.0018   -1.4337 H   0  0  0  0  0  0  0  0  0  0  0  0
    4.6380    2.7671    0.4924 H   0  0  0  0  0  0  0  0  0  0  0  0
    7.0590    3.2758    0.5419 H   0  0  0  0  0  0  0  0  0  0  0  0
    8.6228    1.7789    1.7543 H   0  0  0  0  0  0  0  0  0  0  0  0
    7.7600   -0.2318    2.9244 H   0  0  0  0  0  0  0  0  0  0  0  0
    5.3422   -0.7522    2.8841 H   0  0  0  0  0  0  0  0  0  0  0  0
    2.5325    1.4442    3.5238 H   0  0  0  0  0  0  0  0  0  0  0  0
   -1.3378   -0.1045    1.7751 H   0  0  0  0  0  0  0  0  0  0  0  0
   -0.8032   -1.7603    1.9572 H   0  0  0  0  0  0  0  0  0  0  0  0
   -2.4080    1.0814    0.6227 H   0  0  0  0  0  0  0  0  0  0  0  0
   -2.1411    0.9773   -1.1185 H   0  0  0  0  0  0  0  0  0  0  0  0
   -3.9172    2.6376   -0.4386 H   0  0  0  0  0  0  0  0  0  0  0  0
   -4.8367    1.3285    0.3139 H   0  0  0  0  0  0  0  0  0  0  0  0
   -4.1217    1.6322   -2.6460 H   0  0  0  0  0  0  0  0  0  0  0  0
   -5.7298    1.7010   -1.9056 H   0  0  0  0  0  0  0  0  0  0  0  0
   -6.3658   -0.0109   -3.5614 H   0  0  0  0  0  0  0  0  0  0  0  0
   -6.6306   -2.4264   -3.9837 H   0  0  0  0  0  0  0  0  0  0  0  0
   -5.2600   -4.0542   -2.7087 H   0  0  0  0  0  0  0  0  0  0  0  0
   -3.6524   -3.3078   -1.0726 H   0  0  0  0  0  0  0  0  0  0  0  0
  1  2  1  0
  2  3  1  0
  3  4  1  0
  4  5  2  0
  5  6  1  0
  6  7  2  0
  7  8  1  0
  8  9  2  0
  3 10  2  0
 10 11  1  0
 11 12  2  0
 12 13  1  0
 13 14  1  0
 14 15  1  0
 15 16  2  0
 15 17  1  0
 17 18  1  0
 18 19  1  0
 19 20  1  0
 20 21  1  0
 21 22  2  0
 22 23  1  0
 23 24  2  0
 24 25  1  0
 25 26  2  0
 12  2  1  0
 26 17  1  0
  9  4  1  0
 26 21  1  0
  1 27  1  0
  1 28  1  0
  1 29  1  0
  5 30  1  0
  6 31  1  0
  7 32  1  0
  8 33  1  0
  9 34  1  0
 10 35  1  0
 14 36  1  0
 14 37  1  0
 18 38  1  0
 18 39  1  0
 19 40  1  0
 19 41  1  0
 20 42  1  0
 20 43  1  0
 22 44  1  0
 23 45  1  0
 24 46  1  0
 25 47  1  0
M  END
$$$$
