
     RDKit          3D

 50 50  0  0  0  0  0  0  0  0999 V2000
    9.7537    0.2226    0.7261 C   0  0  0  0  0  0  0  0  0  0  0  0
    8.5448    0.1837    0.1387 C   0  0  0  0  0  0  0  0  0  0  0  0
    8.1428    1.2143   -0.8811 C   0  0  0  0  0  0  0  0  0  0  0  0
    7.5584   -0.9262    0.4171 C   0  0  0  0  0  0  0  0  0  0  0  0
    6.3007   -0.4029    1.6117 S   0  0  0  0  0  0  0  0  0  0  0  0
    5.0403    0.1751    0.5692 C   0  0  0  0  0  0  0  0  0  0  0  0
    4.9889    0.0145   -0.7380 N   0  0  0  0  0  0  0  0  0  0  0  0
    3.8273    0.6176   -1.1720 N   0  0  0  0  0  0  0  0  0  0  0  0
    3.2453    1.1016   -0.0975 C   0  0  0  0  0  0  0  0  0  0  0  0
    1.9676    1.8380    0.0344 C   0  0  0  0  0  0  0  0  0  0  0  0
    0.8037    0.8798    0.2947 C   0  0  0  0  0  0  0  0  0  0  0  0
   -0.5200    1.6366    0.4205 C   0  0  0  0  0  0  0  0  0  0  0  0
   -1.7003    0.7386    0.7986 C   0  0  0  0  0  0  0  0  0  0  0  0
   -2.0493   -0.2918   -0.2737 C   0  0  0  0  0  0  0  0  0  0  0  0
   -3.2296   -1.0434    0.0826 N   0  0  0  0  0  0  0  0  0  0  0  0
   -4.4929   -0.5962   -0.1595 C   0  0  0  0  0  0  0  0  0  0  0  0
   -4.7700    0.4351   -0.7497 O   0  0  0  0  0  0  0  0  0  0  0  0
   -5.3706   -1.4780    0.3701 O   0  0  0  0  0  0  0  0  0  0  0  0
   -6.8000   -1.2537    0.2625 C   0  0  0  0  0  0  0  0  0  0  0  0
   -7.2559   -1.2571   -1.2012 C   0  0  0  0  0  0  0  0  0  0  0  0
   -7.2203    0.0282    0.9912 C   0  0  0  0  0  0  0  0  0  0  0  0
   -7.4377   -2.4552    0.9779 C   0  0  0  0  0  0  0  0  0  0  0  0
    3.9514    0.8597    1.0469 O   0  0  0  0  0  0  0  0  0  0  0  0
   10.0604   -0.5273    1.4498 H   0  0  0  0  0  0  0  0  0  0  0  0
   10.4679    1.0110    0.5069 H   0  0  0  0  0  0  0  0  0  0  0  0
    7.3099    1.8209   -0.5140 H   0  0  0  0  0  0  0  0  0  0  0  0
    8.9660    1.8968   -1.1178 H   0  0  0  0  0  0  0  0  0  0  0  0
    7.8403    0.7294   -1.8148 H   0  0  0  0  0  0  0  0  0  0  0  0
    8.0798   -1.7784    0.8698 H   0  0  0  0  0  0  0  0  0  0  0  0
    7.1233   -1.3097   -0.5119 H   0  0  0  0  0  0  0  0  0  0  0  0
    2.0456    2.5666    0.8498 H   0  0  0  0  0  0  0  0  0  0  0  0
    1.7846    2.4057   -0.8855 H   0  0  0  0  0  0  0  0  0  0  0  0
    0.7440    0.1520   -0.5235 H   0  0  0  0  0  0  0  0  0  0  0  0
    0.9909    0.3097    1.2137 H   0  0  0  0  0  0  0  0  0  0  0  0
   -0.4187    2.4097    1.1923 H   0  0  0  0  0  0  0  0  0  0  0  0
   -0.7404    2.1564   -0.5199 H   0  0  0  0  0  0  0  0  0  0  0  0
   -1.4898    0.2273    1.7463 H   0  0  0  0  0  0  0  0  0  0  0  0
   -2.5721    1.3786    0.9848 H   0  0  0  0  0  0  0  0  0  0  0  0
   -2.2211    0.2024   -1.2359 H   0  0  0  0  0  0  0  0  0  0  0  0
   -1.2409   -1.0178   -0.3985 H   0  0  0  0  0  0  0  0  0  0  0  0
   -3.1580   -1.8768    0.6487 H   0  0  0  0  0  0  0  0  0  0  0  0
   -6.8842   -0.3853   -1.7478 H   0  0  0  0  0  0  0  0  0  0  0  0
   -6.8754   -2.1416   -1.7249 H   0  0  0  0  0  0  0  0  0  0  0  0
   -8.3485   -1.2502   -1.2780 H   0  0  0  0  0  0  0  0  0  0  0  0
   -8.3106    0.1102    1.0560 H   0  0  0  0  0  0  0  0  0  0  0  0
   -6.8080    0.0516    2.0063 H   0  0  0  0  0  0  0  0  0  0  0  0
   -6.8554    0.9260    0.4834 H   0  0  0  0  0  0  0  0  0  0  0  0
   -7.1075   -2.5066    2.0222 H   0  0  0  0  0  0  0  0  0  0  0  0
   -7.1287   -3.3972    0.5096 H   0  0  0  0  0  0  0  0  0  0  0  0
   -8.5315   -2.4043    0.9632 H   0  0  0  0  0  0  0  0  0  0  0  0
  1  2  2  0
  2  3  1  0
  2  4  1  0
  4  5  1  0
  5  6  1  0
  6  7  2  0
  7  8  1  0
  8  9  2  0
  9 10  1  0
 10 11  1  0
 11 12  1  0
 12 13  1  0
 13 14  1  0
 14 15  1  0
 15 16  1  0
 16 17  2  0
 16 18  1  0
 18 19  1  0
 19 20  1  0
 19 21  1  0
 19 22  1  0
  9 23  1  0
 23  6  1  0
  1 24  1  0
  1 25  1  0
  3 26  1  0
  3 27  1  0
  3 28  1  0
  4 29  1  0
  4 30  1  0
 10 31  1  0
 10 32  1  0
 11 33  1  0
 11 34  1  0
 12 35  1  0
 12 36  1  0
 13 37  1  0
 13 38  1  0
 14 39  1  0
 14 40  1  0
 15 41  1  0
 20 42  1  0
 20 43  1  0
 20 44  1  0
 21 45  1  0
 21 46  1  0
 21 47  1  0
 22 48  1  0
 22 49  1  0
 22 50  1  0
M  END
$$$$
