
     RDKit          3D

 45 47  0  0  0  0  0  0  0  0999 V2000
    4.0572    0.2195    4.4266 N   0  0  0  0  0  0  0  0  0  0  0  0
    4.3781   -0.0610    3.3469 C   0  0  0  0  0  0  0  0  0  0  0  0
    4.7580   -0.4073    2.0163 C   0  0  0  0  0  0  0  0  0  0  0  0
    6.1240   -0.7704    1.8256 C   0  0  0  0  0  0  0  0  0  0  0  0
    7.2327   -1.0697    1.6568 N   0  0  0  0  0  0  0  0  0  0  0  0
    3.8748   -0.4046    0.9849 C   0  0  0  0  0  0  0  0  0  0  0  0
    2.4560   -0.0659    1.1484 C   0  0  0  0  0  0  0  0  0  0  0  0
    1.5942    0.0716    0.1225 C   0  0  0  0  0  0  0  0  0  0  0  0
    0.1935    0.3918    0.3604 C   0  0  0  0  0  0  0  0  0  0  0  0
   -0.7086    0.6795   -0.6032 C   0  0  0  0  0  0  0  0  0  0  0  0
   -2.0741    0.9501   -0.3576 N   0  0  0  0  0  0  0  0  0  0  0  0
   -2.6079    1.2241    0.9850 C   0  0  0  0  0  0  0  0  0  0  0  0
   -3.1675   -0.0406    1.6365 C   0  0  0  0  0  0  0  0  0  0  0  0
   -4.5061   -0.4667    1.0359 C   0  0  0  0  0  0  0  0  0  0  0  0
   -4.4245   -1.2807   -0.2553 C   0  0  0  0  0  0  0  0  0  0  0  0
   -3.4672   -0.8157   -1.3563 C   0  0  0  0  0  0  0  0  0  0  0  0
   -3.1235    0.6721   -1.3585 C   0  0  0  0  0  0  0  0  0  0  0  0
   -0.2382    0.7479   -2.0526 C   0  0  0  0  0  0  0  0  0  0  0  0
    1.2754    0.9029   -2.2117 C   0  0  0  0  0  0  0  0  0  0  0  0
    2.0185   -0.0909   -1.3198 C   0  0  0  0  0  0  0  0  0  0  0  0
    3.5344    0.0721   -1.4786 C   0  0  0  0  0  0  0  0  0  0  0  0
    4.2752   -0.7686   -0.4400 C   0  0  0  0  0  0  0  0  0  0  0  0
    2.0800    0.0863    2.1597 H   0  0  0  0  0  0  0  0  0  0  0  0
   -0.1224    0.3585    1.3984 H   0  0  0  0  0  0  0  0  0  0  0  0
   -1.8370    1.6638    1.6282 H   0  0  0  0  0  0  0  0  0  0  0  0
   -3.3867    1.9949    0.9203 H   0  0  0  0  0  0  0  0  0  0  0  0
   -2.4477   -0.8661    1.5960 H   0  0  0  0  0  0  0  0  0  0  0  0
   -3.3346    0.1833    2.6976 H   0  0  0  0  0  0  0  0  0  0  0  0
   -5.1393    0.4145    0.8739 H   0  0  0  0  0  0  0  0  0  0  0  0
   -5.0374   -1.0791    1.7759 H   0  0  0  0  0  0  0  0  0  0  0  0
   -4.1692   -2.3183   -0.0033 H   0  0  0  0  0  0  0  0  0  0  0  0
   -5.4375   -1.3283   -0.6763 H   0  0  0  0  0  0  0  0  0  0  0  0
   -3.9222   -1.0718   -2.3217 H   0  0  0  0  0  0  0  0  0  0  0  0
   -2.5484   -1.4128   -1.2971 H   0  0  0  0  0  0  0  0  0  0  0  0
   -2.7877    0.9629   -2.3590 H   0  0  0  0  0  0  0  0  0  0  0  0
   -4.0174    1.2797   -1.1718 H   0  0  0  0  0  0  0  0  0  0  0  0
   -0.7019    1.6050   -2.5556 H   0  0  0  0  0  0  0  0  0  0  0  0
   -0.5666   -0.1600   -2.5736 H   0  0  0  0  0  0  0  0  0  0  0  0
    1.5479    0.7519   -3.2632 H   0  0  0  0  0  0  0  0  0  0  0  0
    1.5630    1.9318   -1.9555 H   0  0  0  0  0  0  0  0  0  0  0  0
    1.7466   -1.1092   -1.6337 H   0  0  0  0  0  0  0  0  0  0  0  0
    3.8375   -0.2366   -2.4863 H   0  0  0  0  0  0  0  0  0  0  0  0
    3.8230    1.1264   -1.3692 H   0  0  0  0  0  0  0  0  0  0  0  0
    4.0548   -1.8314   -0.6058 H   0  0  0  0  0  0  0  0  0  0  0  0
    5.3488   -0.6352   -0.6109 H   0  0  0  0  0  0  0  0  0  0  0  0
  1  2  3  0
  2  3  1  0
  3  4  1  0
  4  5  3  0
  3  6  2  3
  6  7  1  0
  7  8  2  0
  8  9  1  0
  9 10  2  0
 10 11  1  0
 11 12  1  0
 12 13  1  0
 13 14  1  0
 14 15  1  0
 15 16  1  0
 16 17  1  0
 10 18  1  0
 18 19  1  0
 19 20  1  0
 20 21  1  0
 21 22  1  0
 22  6  1  0
 20  8  1  0
 17 11  1  0
  7 23  1  0
  9 24  1  0
 12 25  1  0
 12 26  1  0
 13 27  1  0
 13 28  1  0
 14 29  1  0
 14 30  1  0
 15 31  1  0
 15 32  1  0
 16 33  1  0
 16 34  1  0
 17 35  1  0
 17 36  1  0
 18 37  1  0
 18 38  1  0
 19 39  1  0
 19 40  1  0
 20 41  1  0
 21 42  1  0
 21 43  1  0
 22 44  1  0
 22 45  1  0
M  END
$$$$
