
     RDKit          3D

 55 57  0  0  0  0  0  0  0  0999 V2000
    6.8999    0.4379   -3.0354 C   0  0  0  0  0  0  0  0  0  0  0  0
    5.6278   -0.1717   -3.2114 O   0  0  0  0  0  0  0  0  0  0  0  0
    4.6453    0.1847   -2.3294 C   0  0  0  0  0  0  0  0  0  0  0  0
    4.7709    1.0983   -1.2849 C   0  0  0  0  0  0  0  0  0  0  0  0
    3.6790    1.3719   -0.4522 C   0  0  0  0  0  0  0  0  0  0  0  0
    2.4400    0.7416   -0.6508 C   0  0  0  0  0  0  0  0  0  0  0  0
    1.2796    1.0475    0.2899 C   0  0  0  0  0  0  0  0  0  0  0  0
   -0.1501    1.7164   -0.6589 S   0  0  0  0  0  0  0  0  0  0  0  0
   -1.3738    1.7344    0.6391 C   0  0  0  0  0  0  0  0  0  0  0  0
   -1.8821    2.9869    1.0146 C   0  0  0  0  0  0  0  0  0  0  0  0
   -2.9109    3.0862    1.9498 C   0  0  0  0  0  0  0  0  0  0  0  0
   -3.4513    1.9330    2.5064 C   0  0  0  0  0  0  0  0  0  0  0  0
   -2.9623    0.6805    2.1293 C   0  0  0  0  0  0  0  0  0  0  0  0
   -1.9160    0.5602    1.1994 C   0  0  0  0  0  0  0  0  0  0  0  0
   -1.4495   -0.7474    0.8517 N   0  0  0  0  0  0  0  0  0  0  0  0
   -2.4555   -1.7285    0.4045 C   0  0  0  0  0  0  0  0  0  0  0  0
   -2.7498   -1.6029   -1.1069 C   0  0  0  0  0  0  0  0  0  0  0  0
   -3.7744   -2.5521   -1.5907 N   0  0  0  0  0  0  0  0  0  0  0  0
   -5.1192   -2.1654   -1.1588 C   0  0  0  0  0  0  0  0  0  0  0  0
   -3.7313   -2.6244   -3.0545 C   0  0  0  0  0  0  0  0  0  0  0  0
   -0.1022   -1.0797    0.6734 C   0  0  0  0  0  0  0  0  0  0  0  0
    0.2373   -2.1291    0.1155 O   0  0  0  0  0  0  0  0  0  0  0  0
    0.9766   -0.1383    1.2302 C   0  0  0  0  0  0  0  0  0  0  0  0
    0.5877    0.2854    2.5600 O   0  0  0  0  0  0  0  0  0  0  0  0
    1.5748    0.7878    3.3440 C   0  0  0  0  0  0  0  0  0  0  0  0
    1.0286    1.1460    4.6913 C   0  0  0  0  0  0  0  0  0  0  0  0
    2.7364    0.9464    3.0005 O   0  0  0  0  0  0  0  0  0  0  0  0
    2.3282   -0.1829   -1.6994 C   0  0  0  0  0  0  0  0  0  0  0  0
    3.4204   -0.4528   -2.5291 C   0  0  0  0  0  0  0  0  0  0  0  0
    6.8391    1.5233   -3.1666 H   0  0  0  0  0  0  0  0  0  0  0  0
    7.3305    0.1801   -2.0621 H   0  0  0  0  0  0  0  0  0  0  0  0
    7.5680    0.0465   -3.8086 H   0  0  0  0  0  0  0  0  0  0  0  0
    5.7040    1.6136   -1.0843 H   0  0  0  0  0  0  0  0  0  0  0  0
    3.8117    2.0792    0.3653 H   0  0  0  0  0  0  0  0  0  0  0  0
    1.5794    1.9055    0.9032 H   0  0  0  0  0  0  0  0  0  0  0  0
   -1.4882    3.8980    0.5678 H   0  0  0  0  0  0  0  0  0  0  0  0
   -3.2957    4.0627    2.2337 H   0  0  0  0  0  0  0  0  0  0  0  0
   -4.2535    2.0054    3.2371 H   0  0  0  0  0  0  0  0  0  0  0  0
   -3.3845   -0.1991    2.6089 H   0  0  0  0  0  0  0  0  0  0  0  0
   -3.3697   -1.6202    0.9923 H   0  0  0  0  0  0  0  0  0  0  0  0
   -2.0773   -2.7369    0.6153 H   0  0  0  0  0  0  0  0  0  0  0  0
   -3.0365   -0.5717   -1.3527 H   0  0  0  0  0  0  0  0  0  0  0  0
   -1.8074   -1.7905   -1.6381 H   0  0  0  0  0  0  0  0  0  0  0  0
   -5.2108   -2.1930   -0.0689 H   0  0  0  0  0  0  0  0  0  0  0  0
   -5.8631   -2.8732   -1.5425 H   0  0  0  0  0  0  0  0  0  0  0  0
   -5.3926   -1.1618   -1.5044 H   0  0  0  0  0  0  0  0  0  0  0  0
   -4.4638   -3.3497   -3.4263 H   0  0  0  0  0  0  0  0  0  0  0  0
   -3.9363   -1.6545   -3.5225 H   0  0  0  0  0  0  0  0  0  0  0  0
   -2.7498   -2.9729   -3.3951 H   0  0  0  0  0  0  0  0  0  0  0  0
    1.8719   -0.7636    1.3609 H   0  0  0  0  0  0  0  0  0  0  0  0
    0.2813    1.9370    4.5887 H   0  0  0  0  0  0  0  0  0  0  0  0
    1.8410    1.5104    5.3265 H   0  0  0  0  0  0  0  0  0  0  0  0
    0.5912    0.2616    5.1614 H   0  0  0  0  0  0  0  0  0  0  0  0
    1.3938   -0.7078   -1.8888 H   0  0  0  0  0  0  0  0  0  0  0  0
    3.3134   -1.1720   -3.3376 H   0  0  0  0  0  0  0  0  0  0  0  0
  1  2  1  0
  2  3  1  0
  3  4  2  0
  4  5  1  0
  5  6  2  0
  6  7  1  0
  7  8  1  0
  8  9  1  0
  9 10  2  0
 10 11  1  0
 11 12  2  0
 12 13  1  0
 13 14  2  0
 14 15  1  0
 15 16  1  0
 16 17  1  0
 17 18  1  0
 18 19  1  0
 18 20  1  0
 15 21  1  0
 21 22  2  0
 21 23  1  0
 23 24  1  0
 24 25  1  0
 25 26  1  0
 25 27  2  0
  6 28  1  0
 28 29  2  0
 29  3  1  0
 23  7  1  0
 14  9  1  0
  1 30  1  0
  1 31  1  0
  1 32  1  0
  4 33  1  0
  5 34  1  0
  7 35  1  0
 10 36  1  0
 11 37  1  0
 12 38  1  0
 13 39  1  0
 16 40  1  0
 16 41  1  0
 17 42  1  0
 17 43  1  0
 19 44  1  0
 19 45  1  0
 19 46  1  0
 20 47  1  0
 20 48  1  0
 20 49  1  0
 23 50  1  0
 26 51  1  0
 26 52  1  0
 26 53  1  0
 28 54  1  0
 29 55  1  0
M  END
$$$$
