
     RDKit          3D

 56 59  0  0  0  0  0  0  0  0999 V2000
    2.0335   -0.0166   -2.8172 C   0  0  0  0  0  0  0  0  0  0  0  0
    0.8374    0.6833   -2.4952 O   0  0  0  0  0  0  0  0  0  0  0  0
   -0.3508    0.0215   -2.6645 C   0  0  0  0  0  0  0  0  0  0  0  0
   -0.4722   -1.2707   -3.1851 C   0  0  0  0  0  0  0  0  0  0  0  0
   -1.7280   -1.8787   -3.3016 C   0  0  0  0  0  0  0  0  0  0  0  0
   -2.8796   -1.1972   -2.9017 C   0  0  0  0  0  0  0  0  0  0  0  0
   -4.2382   -1.8034   -3.0079 C   0  0  0  0  0  0  0  0  0  0  0  0
   -4.3565   -3.2885   -3.2300 C   0  0  0  0  0  0  0  0  0  0  0  0
   -5.2350   -1.0887   -2.9268 O   0  0  0  0  0  0  0  0  0  0  0  0
   -2.7642    0.1003   -2.3912 C   0  0  0  0  0  0  0  0  0  0  0  0
   -1.5067    0.7195   -2.2635 C   0  0  0  0  0  0  0  0  0  0  0  0
   -1.4272    2.1002   -1.6559 C   0  0  0  0  0  0  0  0  0  0  0  0
   -1.5875    2.1355    0.1556 S   0  0  0  0  0  0  0  0  0  0  0  0
   -0.3242    1.0010    0.5792 C   0  0  0  0  0  0  0  0  0  0  0  0
   -0.7078   -0.2260    0.7212 N   0  0  0  0  0  0  0  0  0  0  0  0
    0.2468   -1.2016    0.9973 C   0  0  0  0  0  0  0  0  0  0  0  0
   -0.1668   -2.5286    1.1354 C   0  0  0  0  0  0  0  0  0  0  0  0
    0.7664   -3.5427    1.3873 C   0  0  0  0  0  0  0  0  0  0  0  0
    0.2720   -4.9347    1.5107 C   0  0  0  0  0  0  0  0  0  0  0  0
   -0.8764   -5.3018    1.3499 O   0  0  0  0  0  0  0  0  0  0  0  0
    1.2464   -5.8046    1.8286 O   0  0  0  0  0  0  0  0  0  0  0  0
    2.1255   -3.2233    1.5034 C   0  0  0  0  0  0  0  0  0  0  0  0
    2.5435   -1.8987    1.3612 C   0  0  0  0  0  0  0  0  0  0  0  0
    1.5982   -0.8981    1.1060 C   0  0  0  0  0  0  0  0  0  0  0  0
    1.9990    0.5082    0.9316 C   0  0  0  0  0  0  0  0  0  0  0  0
    3.1986    0.7789    0.9538 O   0  0  0  0  0  0  0  0  0  0  0  0
    0.9817    1.4373    0.7255 N   0  0  0  0  0  0  0  0  0  0  0  0
    1.3926    2.8432    0.6633 C   0  0  0  0  0  0  0  0  0  0  0  0
    1.3368    3.5253    2.0163 C   0  0  0  0  0  0  0  0  0  0  0  0
    2.3333    3.2880    2.9758 C   0  0  0  0  0  0  0  0  0  0  0  0
    2.2809    3.9056    4.2267 C   0  0  0  0  0  0  0  0  0  0  0  0
    1.2331    4.7694    4.5348 C   0  0  0  0  0  0  0  0  0  0  0  0
    0.2393    5.0184    3.5914 C   0  0  0  0  0  0  0  0  0  0  0  0
    0.2909    4.4020    2.3393 C   0  0  0  0  0  0  0  0  0  0  0  0
    2.8764    0.6411   -2.5850 H   0  0  0  0  0  0  0  0  0  0  0  0
    2.1399   -0.9205   -2.2087 H   0  0  0  0  0  0  0  0  0  0  0  0
    2.0764   -0.2500   -3.8859 H   0  0  0  0  0  0  0  0  0  0  0  0
    0.3938   -1.8396   -3.5086 H   0  0  0  0  0  0  0  0  0  0  0  0
   -1.7785   -2.8824   -3.7139 H   0  0  0  0  0  0  0  0  0  0  0  0
   -5.3867   -3.5994   -3.0294 H   0  0  0  0  0  0  0  0  0  0  0  0
   -3.7076   -3.8343   -2.5399 H   0  0  0  0  0  0  0  0  0  0  0  0
   -4.1122   -3.5320   -4.2669 H   0  0  0  0  0  0  0  0  0  0  0  0
   -3.6608    0.6302   -2.0688 H   0  0  0  0  0  0  0  0  0  0  0  0
   -2.2348    2.7147   -2.0716 H   0  0  0  0  0  0  0  0  0  0  0  0
   -0.5027    2.6109   -1.9432 H   0  0  0  0  0  0  0  0  0  0  0  0
   -1.2253   -2.7648    1.0407 H   0  0  0  0  0  0  0  0  0  0  0  0
    0.7817   -6.6660    1.8907 H   0  0  0  0  0  0  0  0  0  0  0  0
    2.8650   -3.9964    1.7006 H   0  0  0  0  0  0  0  0  0  0  0  0
    3.5991   -1.6500    1.4484 H   0  0  0  0  0  0  0  0  0  0  0  0
    2.4180    2.9190    0.2797 H   0  0  0  0  0  0  0  0  0  0  0  0
    0.7844    3.3957   -0.0586 H   0  0  0  0  0  0  0  0  0  0  0  0
    3.1645    2.6209    2.7544 H   0  0  0  0  0  0  0  0  0  0  0  0
    3.0593    3.7111    4.9601 H   0  0  0  0  0  0  0  0  0  0  0  0
    1.1912    5.2487    5.5093 H   0  0  0  0  0  0  0  0  0  0  0  0
   -0.5794    5.6926    3.8304 H   0  0  0  0  0  0  0  0  0  0  0  0
   -0.4965    4.6169    1.6207 H   0  0  0  0  0  0  0  0  0  0  0  0
  1  2  1  0
  2  3  1  0
  3  4  2  0
  4  5  1  0
  5  6  2  0
  6  7  1  0
  7  8  1  0
  7  9  2  0
  6 10  1  0
 10 11  2  0
 11 12  1  0
 12 13  1  0
 13 14  1  0
 14 15  2  0
 15 16  1  0
 16 17  2  0
 17 18  1  0
 18 19  1  0
 19 20  2  0
 19 21  1  0
 18 22  2  0
 22 23  1  0
 23 24  2  0
 24 25  1  0
 25 26  2  0
 25 27  1  0
 27 28  1  0
 28 29  1  0
 29 30  2  0
 30 31  1  0
 31 32  2  0
 32 33  1  0
 33 34  2  0
 11  3  1  0
 27 14  1  0
 34 29  1  0
 24 16  1  0
  1 35  1  0
  1 36  1  0
  1 37  1  0
  4 38  1  0
  5 39  1  0
  8 40  1  0
  8 41  1  0
  8 42  1  0
 10 43  1  0
 12 44  1  0
 12 45  1  0
 17 46  1  0
 21 47  1  0
 22 48  1  0
 23 49  1  0
 28 50  1  0
 28 51  1  0
 30 52  1  0
 31 53  1  0
 32 54  1  0
 33 55  1  0
 34 56  1  0
M  END
$$$$
