
     RDKit          3D

 48 51  0  0  0  0  0  0  0  0999 V2000
    2.4583    2.3195    0.3053 O   0  0  0  0  0  0  0  0  0  0  0  0
    2.3574    0.9357    0.7236 S   0  0  0  0  0  6  0  0  0  0  0  0
    2.4060    0.5674    2.1243 O   0  0  0  0  0  0  0  0  0  0  0  0
    3.5735   -0.0409   -0.1821 C   0  0  0  0  0  0  0  0  0  0  0  0
    4.9602    0.3643    0.2471 C   0  0  0  0  0  0  0  0  0  0  0  0
    5.6390    1.3962   -0.4171 C   0  0  0  0  0  0  0  0  0  0  0  0
    6.9230    1.7704   -0.0184 C   0  0  0  0  0  0  0  0  0  0  0  0
    7.5405    1.1204    1.0480 C   0  0  0  0  0  0  0  0  0  0  0  0
    6.8732    0.0988    1.7203 C   0  0  0  0  0  0  0  0  0  0  0  0
    5.5891   -0.2776    1.3239 C   0  0  0  0  0  0  0  0  0  0  0  0
    0.8855    0.3501    0.1168 N   0  0  0  0  0  0  0  0  0  0  0  0
    0.5038   -1.0428    0.4814 C   0  0  0  0  0  0  0  0  0  0  0  0
   -0.9811   -1.2985    0.1486 C   0  0  0  0  0  0  0  0  0  0  0  0
   -1.2755   -1.0220   -1.2696 N   0  0  0  0  0  0  0  0  0  0  0  0
   -2.6357   -1.4020   -1.6745 C   0  0  0  0  0  0  0  0  0  0  0  0
   -3.7866   -0.6801   -1.0047 C   0  0  0  0  0  0  0  0  0  0  0  0
   -4.3125    0.5075   -1.5677 C   0  0  0  0  0  0  0  0  0  0  0  0
   -5.3742    1.1873   -0.9617 C   0  0  0  0  0  0  0  0  0  0  0  0
   -5.8928    0.6596    0.1995 C   0  0  0  0  0  0  0  0  0  0  0  0
   -5.3963   -0.4958    0.7531 C   0  0  0  0  0  0  0  0  0  0  0  0
   -4.3517   -1.1882    0.1779 C   0  0  0  0  0  0  0  0  0  0  0  0
   -6.0482   -0.8472    1.8938 O   0  0  0  0  0  0  0  0  0  0  0  0
   -7.0049    0.2278    2.0002 C   0  0  0  0  0  0  0  0  0  0  0  0
   -6.9196    1.1821    0.9215 O   0  0  0  0  0  0  0  0  0  0  0  0
   -0.9324    0.3767   -1.5847 C   0  0  0  0  0  0  0  0  0  0  0  0
    0.5540    0.6753   -1.2982 C   0  0  0  0  0  0  0  0  0  0  0  0
    3.3992   -1.0990    0.0319 H   0  0  0  0  0  0  0  0  0  0  0  0
    3.4354    0.1369   -1.2521 H   0  0  0  0  0  0  0  0  0  0  0  0
    5.1683    1.9278   -1.2421 H   0  0  0  0  0  0  0  0  0  0  0  0
    7.4383    2.5764   -0.5346 H   0  0  0  0  0  0  0  0  0  0  0  0
    8.5377    1.4173    1.3620 H   0  0  0  0  0  0  0  0  0  0  0  0
    7.3496   -0.3995    2.5607 H   0  0  0  0  0  0  0  0  0  0  0  0
    5.0791   -1.0670    1.8729 H   0  0  0  0  0  0  0  0  0  0  0  0
    0.6484   -1.2069    1.5539 H   0  0  0  0  0  0  0  0  0  0  0  0
    1.1321   -1.7535   -0.0671 H   0  0  0  0  0  0  0  0  0  0  0  0
   -1.5976   -0.6726    0.8057 H   0  0  0  0  0  0  0  0  0  0  0  0
   -1.2051   -2.3469    0.3781 H   0  0  0  0  0  0  0  0  0  0  0  0
   -2.7616   -2.4823   -1.5205 H   0  0  0  0  0  0  0  0  0  0  0  0
   -2.7288   -1.2783   -2.7620 H   0  0  0  0  0  0  0  0  0  0  0  0
   -3.8889    0.9069   -2.4872 H   0  0  0  0  0  0  0  0  0  0  0  0
   -5.7764    2.0989   -1.3889 H   0  0  0  0  0  0  0  0  0  0  0  0
   -3.9831   -2.0991    0.6373 H   0  0  0  0  0  0  0  0  0  0  0  0
   -8.0136   -0.2010    2.0094 H   0  0  0  0  0  0  0  0  0  0  0  0
   -6.8379    0.7534    2.9476 H   0  0  0  0  0  0  0  0  0  0  0  0
   -1.1206    0.5763   -2.6463 H   0  0  0  0  0  0  0  0  0  0  0  0
   -1.5468    1.0720   -0.9993 H   0  0  0  0  0  0  0  0  0  0  0  0
    0.7349    1.7367   -1.4956 H   0  0  0  0  0  0  0  0  0  0  0  0
    1.1854    0.0840   -1.9710 H   0  0  0  0  0  0  0  0  0  0  0  0
  1  2  2  0
  2  3  2  0
  2  4  1  0
  4  5  1  0
  5  6  2  0
  6  7  1  0
  7  8  2  0
  8  9  1  0
  9 10  2  0
  2 11  1  0
 11 12  1  0
 12 13  1  0
 13 14  1  0
 14 15  1  0
 15 16  1  0
 16 17  2  0
 17 18  1  0
 18 19  2  0
 19 20  1  0
 20 21  2  0
 20 22  1  0
 22 23  1  0
 23 24  1  0
 14 25  1  0
 25 26  1  0
 10  5  1  0
 26 11  1  0
 21 16  1  0
 24 19  1  0
  4 27  1  0
  4 28  1  0
  6 29  1  0
  7 30  1  0
  8 31  1  0
  9 32  1  0
 10 33  1  0
 12 34  1  0
 12 35  1  0
 13 36  1  0
 13 37  1  0
 15 38  1  0
 15 39  1  0
 17 40  1  0
 18 41  1  0
 21 42  1  0
 23 43  1  0
 23 44  1  0
 25 45  1  0
 25 46  1  0
 26 47  1  0
 26 48  1  0
M  END
$$$$
