
     RDKit          3D

 57 59  0  0  0  0  0  0  0  0999 V2000
   -1.7333   -0.9229    4.6337 C   0  0  0  0  0  0  0  0  0  0  0  0
   -1.3874    0.1474    3.6139 C   0  0  0  0  0  0  0  0  0  0  0  0
   -0.9005   -0.4558    2.3011 C   0  0  0  0  0  0  0  0  0  0  0  0
   -0.5481    0.6109    1.4100 O   0  0  0  0  0  0  0  0  0  0  0  0
   -1.2051    0.5382    0.2055 C   0  0  0  0  0  0  0  0  0  0  0  0
   -2.6050    0.6269    0.1423 C   0  0  0  0  0  0  0  0  0  0  0  0
   -3.3098    0.5635   -1.0732 C   0  0  0  0  0  0  0  0  0  0  0  0
   -4.6986    0.6264   -1.1326 N   0  0  0  0  0  0  0  0  0  0  0  0
   -5.5212    0.9310    0.0455 C   0  0  0  0  0  0  0  0  0  0  0  0
   -5.8593   -0.3329    0.8244 C   0  0  0  0  0  0  0  0  0  0  0  0
   -5.4372    0.3391   -2.3694 C   0  0  0  0  0  0  0  0  0  0  0  0
   -5.6468    1.6053   -3.1865 C   0  0  0  0  0  0  0  0  0  0  0  0
   -2.5158    0.4376   -2.2272 C   0  0  0  0  0  0  0  0  0  0  0  0
   -1.1140    0.3870   -2.1830 C   0  0  0  0  0  0  0  0  0  0  0  0
   -0.4476    0.4441   -0.9626 C   0  0  0  0  0  0  0  0  0  0  0  0
    1.0190    0.4106   -0.9106 C   0  0  0  0  0  0  0  0  0  0  0  0
    1.7753   -0.6929   -1.0833 C   0  0  0  0  0  0  0  0  0  0  0  0
    1.2036   -1.9676   -1.3924 C   0  0  0  0  0  0  0  0  0  0  0  0
    0.7132   -2.9970   -1.6164 N   0  0  0  0  0  0  0  0  0  0  0  0
    3.1886   -0.5879   -0.9673 C   0  0  0  0  0  0  0  0  0  0  0  0
    4.1444   -1.0395   -1.7547 N   0  0  0  0  0  0  0  0  0  0  0  0
    5.3293   -0.6900   -1.1541 C   0  0  0  0  0  0  0  0  0  0  0  0
    6.6491   -0.9146   -1.5728 C   0  0  0  0  0  0  0  0  0  0  0  0
    7.7081   -0.4630   -0.7660 C   0  0  0  0  0  0  0  0  0  0  0  0
    9.1310   -0.6697   -1.1997 C   0  0  0  0  0  0  0  0  0  0  0  0
    7.4340    0.2147    0.4318 C   0  0  0  0  0  0  0  0  0  0  0  0
    6.1219    0.4481    0.8648 C   0  0  0  0  0  0  0  0  0  0  0  0
    5.0995   -0.0211    0.0400 C   0  0  0  0  0  0  0  0  0  0  0  0
    3.7331    0.0251    0.1421 N   0  0  0  0  0  0  0  0  0  0  0  0
   -2.0831   -0.4622    5.5638 H   0  0  0  0  0  0  0  0  0  0  0  0
   -0.8595   -1.5386    4.8680 H   0  0  0  0  0  0  0  0  0  0  0  0
   -2.5258   -1.5803    4.2605 H   0  0  0  0  0  0  0  0  0  0  0  0
   -2.2638    0.7789    3.4296 H   0  0  0  0  0  0  0  0  0  0  0  0
   -0.6179    0.8135    4.0219 H   0  0  0  0  0  0  0  0  0  0  0  0
   -1.6472   -1.1434    1.8842 H   0  0  0  0  0  0  0  0  0  0  0  0
    0.0105   -1.0392    2.4777 H   0  0  0  0  0  0  0  0  0  0  0  0
   -3.1365    0.7424    1.0797 H   0  0  0  0  0  0  0  0  0  0  0  0
   -6.4595    1.4020   -0.2742 H   0  0  0  0  0  0  0  0  0  0  0  0
   -5.0427    1.6737    0.6941 H   0  0  0  0  0  0  0  0  0  0  0  0
   -6.3969   -1.0516    0.1975 H   0  0  0  0  0  0  0  0  0  0  0  0
   -6.4957   -0.0888    1.6810 H   0  0  0  0  0  0  0  0  0  0  0  0
   -4.9615   -0.8303    1.2024 H   0  0  0  0  0  0  0  0  0  0  0  0
   -6.4213   -0.0802   -2.1230 H   0  0  0  0  0  0  0  0  0  0  0  0
   -4.9449   -0.4364   -2.9669 H   0  0  0  0  0  0  0  0  0  0  0  0
   -6.2271    2.3438   -2.6236 H   0  0  0  0  0  0  0  0  0  0  0  0
   -6.1937    1.3740   -4.1047 H   0  0  0  0  0  0  0  0  0  0  0  0
   -4.6967    2.0734   -3.4645 H   0  0  0  0  0  0  0  0  0  0  0  0
   -2.9677    0.3963   -3.2132 H   0  0  0  0  0  0  0  0  0  0  0  0
   -0.5617    0.3065   -3.1164 H   0  0  0  0  0  0  0  0  0  0  0  0
    1.4630    1.3808   -0.6955 H   0  0  0  0  0  0  0  0  0  0  0  0
    6.8282   -1.4333   -2.5085 H   0  0  0  0  0  0  0  0  0  0  0  0
    9.5567    0.2762   -1.5471 H   0  0  0  0  0  0  0  0  0  0  0  0
    9.1976   -1.3967   -2.0152 H   0  0  0  0  0  0  0  0  0  0  0  0
    9.7325   -1.0519   -0.3684 H   0  0  0  0  0  0  0  0  0  0  0  0
    8.2583    0.5717    1.0477 H   0  0  0  0  0  0  0  0  0  0  0  0
    5.9219    0.9692    1.7941 H   0  0  0  0  0  0  0  0  0  0  0  0
    3.2141    0.4291    0.9081 H   0  0  0  0  0  0  0  0  0  0  0  0
  1  2  1  0
  2  3  1  0
  3  4  1  0
  4  5  1  0
  5  6  2  0
  6  7  1  0
  7  8  1  0
  8  9  1  0
  9 10  1  0
  8 11  1  0
 11 12  1  0
  7 13  2  0
 13 14  1  0
 14 15  2  0
 15 16  1  0
 16 17  2  3
 17 18  1  0
 18 19  3  0
 17 20  1  0
 20 21  2  0
 21 22  1  0
 22 23  2  0
 23 24  1  0
 24 25  1  0
 24 26  2  0
 26 27  1  0
 27 28  2  0
 28 29  1  0
 15  5  1  0
 29 20  1  0
 28 22  1  0
  1 30  1  0
  1 31  1  0
  1 32  1  0
  2 33  1  0
  2 34  1  0
  3 35  1  0
  3 36  1  0
  6 37  1  0
  9 38  1  0
  9 39  1  0
 10 40  1  0
 10 41  1  0
 10 42  1  0
 11 43  1  0
 11 44  1  0
 12 45  1  0
 12 46  1  0
 12 47  1  0
 13 48  1  0
 14 49  1  0
 16 50  1  0
 23 51  1  0
 25 52  1  0
 25 53  1  0
 25 54  1  0
 26 55  1  0
 27 56  1  0
 29 57  1  0
M  END
$$$$
