
     RDKit          3D

 69 73  0  0  0  0  0  0  0  0999 V2000
   -2.3110   -7.2175    1.7272 C   0  0  0  0  0  0  0  0  0  0  0  0
   -2.2994   -6.9645    0.3294 O   0  0  0  0  0  0  0  0  0  0  0  0
   -2.4201   -5.6599   -0.0638 C   0  0  0  0  0  0  0  0  0  0  0  0
   -2.4662   -5.4682   -1.4473 C   0  0  0  0  0  0  0  0  0  0  0  0
   -2.5840   -4.1874   -1.9851 C   0  0  0  0  0  0  0  0  0  0  0  0
   -2.6600   -3.0844   -1.1365 C   0  0  0  0  0  0  0  0  0  0  0  0
   -2.6174   -3.2573    0.2532 C   0  0  0  0  0  0  0  0  0  0  0  0
   -2.6918   -2.0952    1.1456 C   0  0  0  0  0  0  0  0  0  0  0  0
   -4.0912   -1.8997    2.1103 S   0  0  0  0  0  0  0  0  0  0  0  0
   -3.5052   -0.4530    2.8293 C   0  0  0  0  0  0  0  0  0  0  0  0
   -4.1632    0.3282    3.8014 C   0  0  0  0  0  0  0  0  0  0  0  0
   -3.5370    1.4803    4.2914 C   0  0  0  0  0  0  0  0  0  0  0  0
   -4.0868    2.3045    5.2451 O   0  0  0  0  0  0  0  0  0  0  0  0
   -5.4308    2.0583    5.6321 C   0  0  0  0  0  0  0  0  0  0  0  0
   -2.2656    1.8446    3.8224 C   0  0  0  0  0  0  0  0  0  0  0  0
   -1.7272    2.9876    4.3620 O   0  0  0  0  0  0  0  0  0  0  0  0
   -0.3920    3.3187    4.0091 C   0  0  0  0  0  0  0  0  0  0  0  0
   -1.6300    1.0606    2.8501 C   0  0  0  0  0  0  0  0  0  0  0  0
   -2.2486   -0.1100    2.3351 C   0  0  0  0  0  0  0  0  0  0  0  0
   -1.7913   -1.0623    1.3476 C   0  0  0  0  0  0  0  0  0  0  0  0
   -0.5205   -1.0010    0.6380 C   0  0  0  0  0  0  0  0  0  0  0  0
   -0.3817   -0.1714   -0.4786 C   0  0  0  0  0  0  0  0  0  0  0  0
    0.8427   -0.0922   -1.1521 C   0  0  0  0  0  0  0  0  0  0  0  0
    1.9379   -0.8334   -0.7076 C   0  0  0  0  0  0  0  0  0  0  0  0
    3.1907   -0.8382   -1.2551 O   0  0  0  0  0  0  0  0  0  0  0  0
    3.4369   -0.0444   -2.4210 C   0  0  0  0  0  0  0  0  0  0  0  0
    3.7610    1.4102   -2.0372 C   0  0  0  0  0  0  0  0  0  0  0  0
    4.1356    2.2637   -3.1778 N   0  0  0  0  0  0  0  0  0  0  0  0
    3.0078    2.5775   -4.0564 C   0  0  0  0  0  0  0  0  0  0  0  0
    3.5070    3.2464   -5.3443 C   0  0  0  0  0  0  0  0  0  0  0  0
    4.6771    4.2049   -5.1168 C   0  0  0  0  0  0  0  0  0  0  0  0
    4.7178    4.6751   -3.6718 C   0  0  0  0  0  0  0  0  0  0  0  0
    4.8023    3.4901   -2.6995 C   0  0  0  0  0  0  0  0  0  0  0  0
    1.7936   -1.6599    0.4103 C   0  0  0  0  0  0  0  0  0  0  0  0
    0.5726   -1.7465    1.0833 C   0  0  0  0  0  0  0  0  0  0  0  0
   -2.4943   -4.5524    0.7832 C   0  0  0  0  0  0  0  0  0  0  0  0
   -1.4552   -6.7434    2.2212 H   0  0  0  0  0  0  0  0  0  0  0  0
   -2.2189   -8.2983    1.8718 H   0  0  0  0  0  0  0  0  0  0  0  0
   -3.2565   -6.8984    2.1786 H   0  0  0  0  0  0  0  0  0  0  0  0
   -2.4076   -6.3278   -2.1108 H   0  0  0  0  0  0  0  0  0  0  0  0
   -2.6181   -4.0504   -3.0629 H   0  0  0  0  0  0  0  0  0  0  0  0
   -2.7557   -2.0904   -1.5654 H   0  0  0  0  0  0  0  0  0  0  0  0
   -5.1379    0.0105    4.1540 H   0  0  0  0  0  0  0  0  0  0  0  0
   -6.1059    2.1053    4.7725 H   0  0  0  0  0  0  0  0  0  0  0  0
   -5.7273    2.8468    6.3298 H   0  0  0  0  0  0  0  0  0  0  0  0
   -5.5189    1.1008    6.1551 H   0  0  0  0  0  0  0  0  0  0  0  0
    0.3017    2.5167    4.2836 H   0  0  0  0  0  0  0  0  0  0  0  0
   -0.3162    3.5646    2.9453 H   0  0  0  0  0  0  0  0  0  0  0  0
   -0.1079    4.2115    4.5746 H   0  0  0  0  0  0  0  0  0  0  0  0
   -0.6507    1.3244    2.4658 H   0  0  0  0  0  0  0  0  0  0  0  0
   -1.2248    0.4167   -0.8337 H   0  0  0  0  0  0  0  0  0  0  0  0
    0.9021    0.5624   -2.0141 H   0  0  0  0  0  0  0  0  0  0  0  0
    4.3198   -0.4803   -2.9021 H   0  0  0  0  0  0  0  0  0  0  0  0
    2.6236   -0.1432   -3.1467 H   0  0  0  0  0  0  0  0  0  0  0  0
    2.9307    1.8587   -1.4783 H   0  0  0  0  0  0  0  0  0  0  0  0
    4.5969    1.3650   -1.3241 H   0  0  0  0  0  0  0  0  0  0  0  0
    2.4598    1.6752   -4.3502 H   0  0  0  0  0  0  0  0  0  0  0  0
    2.2864    3.2278   -3.5439 H   0  0  0  0  0  0  0  0  0  0  0  0
    2.6717    3.7886   -5.8029 H   0  0  0  0  0  0  0  0  0  0  0  0
    3.8143    2.4832   -6.0698 H   0  0  0  0  0  0  0  0  0  0  0  0
    4.6023    5.0585   -5.7994 H   0  0  0  0  0  0  0  0  0  0  0  0
    5.6179    3.6941   -5.3560 H   0  0  0  0  0  0  0  0  0  0  0  0
    3.8125    5.2582   -3.4592 H   0  0  0  0  0  0  0  0  0  0  0  0
    5.5705    5.3455   -3.5152 H   0  0  0  0  0  0  0  0  0  0  0  0
    5.8584    3.2480   -2.5264 H   0  0  0  0  0  0  0  0  0  0  0  0
    4.3909    3.8215   -1.7363 H   0  0  0  0  0  0  0  0  0  0  0  0
    2.6424   -2.2430    0.7602 H   0  0  0  0  0  0  0  0  0  0  0  0
    0.4852   -2.3930    1.9519 H   0  0  0  0  0  0  0  0  0  0  0  0
   -2.4532   -4.6679    1.8614 H   0  0  0  0  0  0  0  0  0  0  0  0
  1  2  1  0
  2  3  1  0
  3  4  2  0
  4  5  1  0
  5  6  2  0
  6  7  1  0
  7  8  1  0
  8  9  1  0
  9 10  1  0
 10 11  2  0
 11 12  1  0
 12 13  1  0
 13 14  1  0
 12 15  2  0
 15 16  1  0
 16 17  1  0
 15 18  1  0
 18 19  2  0
 19 20  1  0
 20 21  1  0
 21 22  2  0
 22 23  1  0
 23 24  2  0
 24 25  1  0
 25 26  1  0
 26 27  1  0
 27 28  1  0
 28 29  1  0
 29 30  1  0
 30 31  1  0
 31 32  1  0
 32 33  1  0
 24 34  1  0
 34 35  2  0
  7 36  2  0
 36  3  1  0
 20  8  2  0
 35 21  1  0
 19 10  1  0
 33 28  1  0
  1 37  1  0
  1 38  1  0
  1 39  1  0
  4 40  1  0
  5 41  1  0
  6 42  1  0
 11 43  1  0
 14 44  1  0
 14 45  1  0
 14 46  1  0
 17 47  1  0
 17 48  1  0
 17 49  1  0
 18 50  1  0
 22 51  1  0
 23 52  1  0
 26 53  1  0
 26 54  1  0
 27 55  1  0
 27 56  1  0
 29 57  1  0
 29 58  1  0
 30 59  1  0
 30 60  1  0
 31 61  1  0
 31 62  1  0
 32 63  1  0
 32 64  1  0
 33 65  1  0
 33 66  1  0
 34 67  1  0
 35 68  1  0
 36 69  1  0
M  END
$$$$
