
     RDKit          3D

 50 54  0  0  0  0  0  0  0  0999 V2000
    7.9389    0.6284    1.1378 F   0  0  0  0  0  0  0  0  0  0  0  0
    6.7300    0.3738    0.6196 C   0  0  0  0  0  0  0  0  0  0  0  0
    6.1337    1.3084   -0.2175 C   0  0  0  0  0  0  0  0  0  0  0  0
    4.8745    1.0427   -0.7564 C   0  0  0  0  0  0  0  0  0  0  0  0
    4.2100   -0.1588   -0.4567 C   0  0  0  0  0  0  0  0  0  0  0  0
    2.8444   -0.4455   -1.0489 C   0  0  0  0  0  0  0  0  0  0  0  0
    1.8227    0.5349   -0.6509 N   0  0  0  0  0  0  0  0  0  0  0  0
    1.5690    0.4826    0.8138 C   0  0  0  0  0  0  0  0  0  0  0  0
    0.1630    0.9806    1.2114 C   0  0  0  0  0  0  0  0  0  0  0  0
   -0.9089    0.1641    0.5968 N   0  0  0  0  0  0  0  0  0  0  0  0
   -1.4727   -0.7872    1.4633 C   0  0  0  0  0  0  0  0  0  0  0  0
   -0.6854   -1.3652    2.4056 N   0  0  0  0  0  0  0  0  0  0  0  0
   -1.2074   -2.2962    3.2147 C   0  0  0  0  0  0  0  0  0  0  0  0
   -2.4551   -2.7596    3.2172 N   0  0  0  0  0  0  0  0  0  0  0  0
   -3.2213   -2.1650    2.2885 C   0  0  0  0  0  0  0  0  0  0  0  0
   -4.8570   -2.6129    2.1377 S   0  0  0  0  0  0  0  0  0  0  0  0
   -5.1076   -1.4884    0.8819 C   0  0  0  0  0  0  0  0  0  0  0  0
   -3.9607   -0.7828    0.5641 C   0  0  0  0  0  0  0  0  0  0  0  0
   -4.0163    0.2447   -0.4711 C   0  0  0  0  0  0  0  0  0  0  0  0
   -4.4110   -0.0831   -1.7759 C   0  0  0  0  0  0  0  0  0  0  0  0
   -4.4661    0.9021   -2.7642 C   0  0  0  0  0  0  0  0  0  0  0  0
   -4.1295    2.2192   -2.4558 C   0  0  0  0  0  0  0  0  0  0  0  0
   -3.7389    2.5536   -1.1601 C   0  0  0  0  0  0  0  0  0  0  0  0
   -3.6851    1.5706   -0.1697 C   0  0  0  0  0  0  0  0  0  0  0  0
   -2.8326   -1.1827    1.3870 C   0  0  0  0  0  0  0  0  0  0  0  0
   -0.5127   -0.4851   -0.6748 C   0  0  0  0  0  0  0  0  0  0  0  0
    0.5638    0.3439   -1.4095 C   0  0  0  0  0  0  0  0  0  0  0  0
    4.8314   -1.0894    0.3913 C   0  0  0  0  0  0  0  0  0  0  0  0
    6.0914   -0.8213    0.9290 C   0  0  0  0  0  0  0  0  0  0  0  0
    6.6485    2.2364   -0.4429 H   0  0  0  0  0  0  0  0  0  0  0  0
    4.4007    1.7769   -1.4053 H   0  0  0  0  0  0  0  0  0  0  0  0
    2.9733   -0.4255   -2.1395 H   0  0  0  0  0  0  0  0  0  0  0  0
    2.5241   -1.4656   -0.7988 H   0  0  0  0  0  0  0  0  0  0  0  0
    2.3156    1.1045    1.3210 H   0  0  0  0  0  0  0  0  0  0  0  0
    1.6872   -0.5420    1.1901 H   0  0  0  0  0  0  0  0  0  0  0  0
    0.0707    1.0362    2.3036 H   0  0  0  0  0  0  0  0  0  0  0  0
    0.0378    2.0120    0.8567 H   0  0  0  0  0  0  0  0  0  0  0  0
   -0.5333   -2.7239    3.9501 H   0  0  0  0  0  0  0  0  0  0  0  0
   -6.0922   -1.3894    0.4437 H   0  0  0  0  0  0  0  0  0  0  0  0
   -4.6694   -1.1071   -2.0346 H   0  0  0  0  0  0  0  0  0  0  0  0
   -4.7709    0.6418   -3.7745 H   0  0  0  0  0  0  0  0  0  0  0  0
   -4.1712    2.9862   -3.2250 H   0  0  0  0  0  0  0  0  0  0  0  0
   -3.4729    3.5793   -0.9184 H   0  0  0  0  0  0  0  0  0  0  0  0
   -3.3718    1.8453    0.8350 H   0  0  0  0  0  0  0  0  0  0  0  0
   -1.3859   -0.5824   -1.3277 H   0  0  0  0  0  0  0  0  0  0  0  0
   -0.1178   -1.4965   -0.5031 H   0  0  0  0  0  0  0  0  0  0  0  0
    0.1525    1.3422   -1.6096 H   0  0  0  0  0  0  0  0  0  0  0  0
    0.7567   -0.0952   -2.3960 H   0  0  0  0  0  0  0  0  0  0  0  0
    4.3360   -2.0250    0.6404 H   0  0  0  0  0  0  0  0  0  0  0  0
    6.5775   -1.5345    1.5867 H   0  0  0  0  0  0  0  0  0  0  0  0
  1  2  1  0
  2  3  2  0
  3  4  1  0
  4  5  2  0
  5  6  1  0
  6  7  1  0
  7  8  1  0
  8  9  1  0
  9 10  1  0
 10 11  1  0
 11 12  2  0
 12 13  1  0
 13 14  2  0
 14 15  1  0
 15 16  1  0
 16 17  1  0
 17 18  2  0
 18 19  1  0
 19 20  2  0
 20 21  1  0
 21 22  2  0
 22 23  1  0
 23 24  2  0
 18 25  1  0
 10 26  1  0
 26 27  1  0
  5 28  1  0
 28 29  2  0
 29  2  1  0
 27  7  1  0
 25 11  1  0
 25 15  2  0
 24 19  1  0
  3 30  1  0
  4 31  1  0
  6 32  1  0
  6 33  1  0
  8 34  1  0
  8 35  1  0
  9 36  1  0
  9 37  1  0
 13 38  1  0
 17 39  1  0
 20 40  1  0
 21 41  1  0
 22 42  1  0
 23 43  1  0
 24 44  1  0
 26 45  1  0
 26 46  1  0
 27 47  1  0
 27 48  1  0
 28 49  1  0
 29 50  1  0
M  END
$$$$
