
     RDKit          3D

 50 53  0  0  0  0  0  0  0  0999 V2000
   -6.0911    2.5561   -0.8461 C   0  0  0  0  0  0  0  0  0  0  0  0
   -4.9268    3.3418   -1.0639 O   0  0  0  0  0  0  0  0  0  0  0  0
   -3.7618    2.6016   -1.0614 C   0  0  0  0  0  0  0  0  0  0  0  0
   -2.6606    3.3279   -1.1771 N   0  0  0  0  0  0  0  0  0  0  0  0
   -1.5447    2.6192   -1.1927 C   0  0  0  0  0  0  0  0  0  0  0  0
   -0.3307    3.3488   -1.3075 N   0  0  0  0  0  0  0  0  0  0  0  0
    0.7955    2.7504   -0.7875 N   0  0  0  0  0  0  0  0  0  0  0  0
    1.3976    1.9765   -1.6384 C   0  0  0  0  0  0  0  0  0  0  0  0
    2.5246    1.1672   -1.2705 C   0  0  0  0  0  0  0  0  0  0  0  0
    3.4533    0.4957   -2.0417 C   0  0  0  0  0  0  0  0  0  0  0  0
    4.3123   -0.1851   -1.1428 C   0  0  0  0  0  0  0  0  0  0  0  0
    3.8317    0.0763    0.1223 C   0  0  0  0  0  0  0  0  0  0  0  0
    4.2137   -0.3324    1.4624 C   0  0  0  0  0  0  0  0  0  0  0  0
    5.5475   -0.1660    1.8684 C   0  0  0  0  0  0  0  0  0  0  0  0
    5.9528   -0.5048    3.1646 C   0  0  0  0  0  0  0  0  0  0  0  0
    5.0335   -1.0168    4.0796 C   0  0  0  0  0  0  0  0  0  0  0  0
    3.7061   -1.2027    3.6989 C   0  0  0  0  0  0  0  0  0  0  0  0
    3.3095   -0.8666    2.3944 C   0  0  0  0  0  0  0  0  0  0  0  0
    1.9315   -1.1563    2.0237 N   0  0  0  0  0  4  0  0  0  0  0  0
    1.7426   -1.8781    1.0327 O   0  0  0  0  0  0  0  0  0  0  0  0
    1.0440   -0.7279    2.7749 O   0  0  0  0  0  1  0  0  0  0  0  0
    2.7685    0.9233    0.0516 O   0  0  0  0  0  0  0  0  0  0  0  0
   -1.5063    1.2905   -1.1115 N   0  0  0  0  0  0  0  0  0  0  0  0
   -2.6566    0.6497   -0.9568 C   0  0  0  0  0  0  0  0  0  0  0  0
   -2.6348   -0.7261   -0.7358 N   0  0  0  0  0  0  0  0  0  0  0  0
   -3.7788   -1.4583   -1.2919 C   0  0  0  0  0  0  0  0  0  0  0  0
   -3.7195   -2.9322   -0.8605 C   0  0  0  0  0  0  0  0  0  0  0  0
   -2.4632   -3.5366   -1.2065 O   0  0  0  0  0  0  0  0  0  0  0  0
   -1.3906   -2.8464   -0.5404 C   0  0  0  0  0  0  0  0  0  0  0  0
   -1.3297   -1.3715   -0.9617 C   0  0  0  0  0  0  0  0  0  0  0  0
   -3.8245    1.2785   -0.9549 N   0  0  0  0  0  0  0  0  0  0  0  0
   -6.2427    1.8369   -1.6584 H   0  0  0  0  0  0  0  0  0  0  0  0
   -6.9522    3.2317   -0.8373 H   0  0  0  0  0  0  0  0  0  0  0  0
   -6.0569    2.0508    0.1253 H   0  0  0  0  0  0  0  0  0  0  0  0
   -0.5636    4.2574   -0.9050 H   0  0  0  0  0  0  0  0  0  0  0  0
    1.0587    1.9070   -2.6882 H   0  0  0  0  0  0  0  0  0  0  0  0
    3.5026    0.4951   -3.1220 H   0  0  0  0  0  0  0  0  0  0  0  0
    5.1521   -0.8200   -1.3892 H   0  0  0  0  0  0  0  0  0  0  0  0
    6.2819    0.2527    1.1823 H   0  0  0  0  0  0  0  0  0  0  0  0
    6.9893   -0.3586    3.4624 H   0  0  0  0  0  0  0  0  0  0  0  0
    5.3530   -1.2727    5.0874 H   0  0  0  0  0  0  0  0  0  0  0  0
    2.9926   -1.6125    4.4113 H   0  0  0  0  0  0  0  0  0  0  0  0
   -4.7333   -1.0426   -0.9475 H   0  0  0  0  0  0  0  0  0  0  0  0
   -3.7481   -1.4020   -2.3879 H   0  0  0  0  0  0  0  0  0  0  0  0
   -3.8769   -3.0326    0.2204 H   0  0  0  0  0  0  0  0  0  0  0  0
   -4.5091   -3.4976   -1.3651 H   0  0  0  0  0  0  0  0  0  0  0  0
   -1.5243   -2.9416    0.5438 H   0  0  0  0  0  0  0  0  0  0  0  0
   -0.4559   -3.3492   -0.8073 H   0  0  0  0  0  0  0  0  0  0  0  0
   -0.5371   -0.8839   -0.3822 H   0  0  0  0  0  0  0  0  0  0  0  0
   -1.0750   -1.3138   -2.0280 H   0  0  0  0  0  0  0  0  0  0  0  0
  1  2  1  0
  2  3  1  0
  3  4  2  0
  4  5  1  0
  5  6  1  0
  6  7  1  0
  7  8  2  3
  8  9  1  0
  9 10  2  0
 10 11  1  0
 11 12  2  0
 12 13  1  0
 13 14  2  0
 14 15  1  0
 15 16  2  0
 16 17  1  0
 17 18  2  0
 18 19  1  0
 19 20  2  0
 19 21  1  0
 12 22  1  0
  5 23  2  0
 23 24  1  0
 24 25  1  0
 25 26  1  0
 26 27  1  0
 27 28  1  0
 28 29  1  0
 29 30  1  0
 24 31  2  0
 31  3  1  0
 22  9  1  0
 30 25  1  0
 18 13  1  0
  1 32  1  0
  1 33  1  0
  1 34  1  0
  6 35  1  0
  8 36  1  0
 10 37  1  0
 11 38  1  0
 14 39  1  0
 15 40  1  0
 16 41  1  0
 17 42  1  0
 26 43  1  0
 26 44  1  0
 27 45  1  0
 27 46  1  0
 29 47  1  0
 29 48  1  0
 30 49  1  0
 30 50  1  0
M  CHG  2  19   1  21  -1
M  END
$$$$
