
     RDKit          3D

 45 48  0  0  0  0  0  0  0  0999 V2000
    3.9350   -0.7401   -0.9775 O   0  0  0  0  0  0  0  0  0  0  0  0
    2.8548   -0.4924   -0.4568 C   0  0  0  0  0  0  0  0  0  0  0  0
    1.6805   -1.2080   -0.5953 N   0  0  0  0  0  0  0  0  0  0  0  0
    1.4210   -2.3347   -1.4192 C   0  0  0  0  0  0  0  0  0  0  0  0
    2.3927   -2.8374   -2.2973 C   0  0  0  0  0  0  0  0  0  0  0  0
    2.1278   -3.9321   -3.1245 C   0  0  0  0  0  0  0  0  0  0  0  0
    0.8823   -4.5424   -3.0950 C   0  0  0  0  0  0  0  0  0  0  0  0
   -0.0997   -4.0565   -2.2344 C   0  0  0  0  0  0  0  0  0  0  0  0
    0.1462   -2.9577   -1.3836 C   0  0  0  0  0  0  0  0  0  0  0  0
   -0.9616   -2.5264   -0.5300 C   0  0  0  0  0  0  0  0  0  0  0  0
   -2.2475   -2.8092   -0.6081 N   0  0  0  0  0  0  0  0  0  0  0  0
   -2.8612   -2.1475    0.4349 N   0  0  0  0  0  0  0  0  0  0  0  0
   -1.9113   -1.5117    1.0871 C   0  0  0  0  0  0  0  0  0  0  0  0
   -2.1665   -0.4937    2.4660 S   0  0  0  0  0  0  0  0  0  0  0  0
   -3.5756    0.4844    1.8679 C   0  0  0  0  0  0  0  0  0  0  0  0
   -3.1605    1.5079    0.8368 C   0  0  0  0  0  0  0  0  0  0  0  0
   -2.6129    2.7376    1.2351 C   0  0  0  0  0  0  0  0  0  0  0  0
   -2.2058    3.6742    0.2821 C   0  0  0  0  0  0  0  0  0  0  0  0
   -2.3363    3.3844   -1.0739 C   0  0  0  0  0  0  0  0  0  0  0  0
   -1.8236    4.5341   -2.2457 Cl  0  0  0  0  0  0  0  0  0  0  0  0
   -2.8757    2.1684   -1.4860 C   0  0  0  0  0  0  0  0  0  0  0  0
   -3.2884    1.2333   -0.5339 C   0  0  0  0  0  0  0  0  0  0  0  0
   -0.6755   -1.7094    0.5337 O   0  0  0  0  0  0  0  0  0  0  0  0
    2.7645    0.6764    0.4665 C   0  0  0  0  0  0  0  0  0  0  0  0
    1.6048    1.4589    0.5606 C   0  0  0  0  0  0  0  0  0  0  0  0
    1.5658    2.5422    1.4411 C   0  0  0  0  0  0  0  0  0  0  0  0
    2.6806    2.8524    2.2200 C   0  0  0  0  0  0  0  0  0  0  0  0
    3.8418    2.0876    2.1158 C   0  0  0  0  0  0  0  0  0  0  0  0
    3.8869    1.0044    1.2370 C   0  0  0  0  0  0  0  0  0  0  0  0
    0.9241   -0.9413    0.0242 H   0  0  0  0  0  0  0  0  0  0  0  0
    3.3804   -2.3922   -2.3702 H   0  0  0  0  0  0  0  0  0  0  0  0
    2.9016   -4.3000   -3.7943 H   0  0  0  0  0  0  0  0  0  0  0  0
    0.6733   -5.3917   -3.7406 H   0  0  0  0  0  0  0  0  0  0  0  0
   -1.0732   -4.5469   -2.2283 H   0  0  0  0  0  0  0  0  0  0  0  0
   -4.3635   -0.1686    1.4756 H   0  0  0  0  0  0  0  0  0  0  0  0
   -4.0170    1.0026    2.7273 H   0  0  0  0  0  0  0  0  0  0  0  0
   -2.4995    2.9729    2.2920 H   0  0  0  0  0  0  0  0  0  0  0  0
   -1.7874    4.6246    0.6030 H   0  0  0  0  0  0  0  0  0  0  0  0
   -2.9799    1.9419   -2.5442 H   0  0  0  0  0  0  0  0  0  0  0  0
   -3.7095    0.2869   -0.8721 H   0  0  0  0  0  0  0  0  0  0  0  0
    0.7364    1.2606   -0.0618 H   0  0  0  0  0  0  0  0  0  0  0  0
    0.6701    3.1532    1.5119 H   0  0  0  0  0  0  0  0  0  0  0  0
    2.6493    3.6993    2.9015 H   0  0  0  0  0  0  0  0  0  0  0  0
    4.7145    2.3372    2.7142 H   0  0  0  0  0  0  0  0  0  0  0  0
    4.7976    0.4145    1.1543 H   0  0  0  0  0  0  0  0  0  0  0  0
  1  2  2  0
  2  3  1  0
  3  4  1  0
  4  5  2  0
  5  6  1  0
  6  7  2  0
  7  8  1  0
  8  9  2  0
  9 10  1  0
 10 11  2  0
 11 12  1  0
 12 13  2  0
 13 14  1  0
 14 15  1  0
 15 16  1  0
 16 17  2  0
 17 18  1  0
 18 19  2  0
 19 20  1  0
 19 21  1  0
 21 22  2  0
 13 23  1  0
  2 24  1  0
 24 25  2  0
 25 26  1  0
 26 27  2  0
 27 28  1  0
 28 29  2  0
  9  4  1  0
 23 10  1  0
 29 24  1  0
 22 16  1  0
  3 30  1  0
  5 31  1  0
  6 32  1  0
  7 33  1  0
  8 34  1  0
 15 35  1  0
 15 36  1  0
 17 37  1  0
 18 38  1  0
 21 39  1  0
 22 40  1  0
 25 41  1  0
 26 42  1  0
 27 43  1  0
 28 44  1  0
 29 45  1  0
M  END
$$$$
