
     RDKit          3D

 46 47  0  0  0  0  0  0  0  0999 V2000
   -0.3952    4.9326    2.1785 C   0  0  0  0  0  0  0  0  0  0  0  0
   -1.9781    4.1111    1.8687 S   0  0  0  0  0  0  0  0  0  0  0  0
   -1.3854    2.4109    1.5674 C   0  0  0  0  0  0  0  0  0  0  0  0
   -0.7748    2.2658    0.1719 C   0  0  0  0  0  0  0  0  0  0  0  0
   -0.3128    0.8383   -0.1551 C   0  0  0  0  0  0  0  0  0  0  0  0
   -1.4239   -0.1139   -0.1134 N   0  0  0  0  0  0  0  0  0  0  0  0
   -1.6098   -1.0148   -1.1422 C   0  0  0  0  0  0  0  0  0  0  0  0
   -1.0783   -0.9226   -2.2401 O   0  0  0  0  0  0  0  0  0  0  0  0
   -2.5251   -2.1341   -0.8322 C   0  0  0  0  0  0  0  0  0  0  0  0
   -3.8117   -1.8308   -0.3595 C   0  0  0  0  0  0  0  0  0  0  0  0
   -4.7102   -2.8585   -0.0711 C   0  0  0  0  0  0  0  0  0  0  0  0
   -4.3291   -4.1870   -0.2533 C   0  0  0  0  0  0  0  0  0  0  0  0
   -3.0487   -4.4908   -0.7224 C   0  0  0  0  0  0  0  0  0  0  0  0
   -2.1411   -3.4669   -1.0147 C   0  0  0  0  0  0  0  0  0  0  0  0
   -0.5585   -3.9254   -1.5336 Cl  0  0  0  0  0  0  0  0  0  0  0  0
    0.7571    0.3522    0.8511 C   0  0  0  0  0  0  0  0  0  0  0  0
    0.4019   -0.3519    1.8058 O   0  0  0  0  0  0  0  0  0  0  0  0
    2.0656    0.8027    0.7223 N   0  0  0  0  0  0  0  0  0  0  0  0
    3.0260    0.3557    1.7230 C   0  0  0  0  0  0  0  0  0  0  0  0
    2.6296    1.3568   -0.5123 C   0  0  0  0  0  0  0  0  0  0  0  0
    3.2520    0.2723   -1.3421 C   0  0  0  0  0  0  0  0  0  0  0  0
    2.6400   -0.7695   -2.0140 C   0  0  0  0  0  0  0  0  0  0  0  0
    3.5734   -1.6003   -2.6991 C   0  0  0  0  0  0  0  0  0  0  0  0
    4.8680   -1.1638   -2.5375 C   0  0  0  0  0  0  0  0  0  0  0  0
    4.9543    0.2398   -1.5673 S   0  0  0  0  0  0  0  0  0  0  0  0
    0.2230    4.9375    1.2779 H   0  0  0  0  0  0  0  0  0  0  0  0
   -0.5835    5.9695    2.4697 H   0  0  0  0  0  0  0  0  0  0  0  0
    0.1404    4.4375    2.9927 H   0  0  0  0  0  0  0  0  0  0  0  0
   -0.6748    2.1431    2.3549 H   0  0  0  0  0  0  0  0  0  0  0  0
   -2.2535    1.7522    1.6709 H   0  0  0  0  0  0  0  0  0  0  0  0
   -1.5142    2.5696   -0.5809 H   0  0  0  0  0  0  0  0  0  0  0  0
    0.0802    2.9440    0.0726 H   0  0  0  0  0  0  0  0  0  0  0  0
    0.1006    0.8235   -1.1650 H   0  0  0  0  0  0  0  0  0  0  0  0
   -1.6638   -0.4446    0.8179 H   0  0  0  0  0  0  0  0  0  0  0  0
   -4.1227   -0.7959   -0.2334 H   0  0  0  0  0  0  0  0  0  0  0  0
   -5.7093   -2.6235    0.2893 H   0  0  0  0  0  0  0  0  0  0  0  0
   -5.0289   -4.9893   -0.0299 H   0  0  0  0  0  0  0  0  0  0  0  0
   -2.7615   -5.5317   -0.8535 H   0  0  0  0  0  0  0  0  0  0  0  0
    2.5473    0.2373    2.6996 H   0  0  0  0  0  0  0  0  0  0  0  0
    3.8268    1.0944    1.8199 H   0  0  0  0  0  0  0  0  0  0  0  0
    3.4410   -0.6094    1.4181 H   0  0  0  0  0  0  0  0  0  0  0  0
    1.8667    1.8709   -1.1006 H   0  0  0  0  0  0  0  0  0  0  0  0
    3.3594    2.1242   -0.2274 H   0  0  0  0  0  0  0  0  0  0  0  0
    1.5698   -0.9427   -2.0194 H   0  0  0  0  0  0  0  0  0  0  0  0
    3.3027   -2.4730   -3.2812 H   0  0  0  0  0  0  0  0  0  0  0  0
    5.7689   -1.6013   -2.9452 H   0  0  0  0  0  0  0  0  0  0  0  0
  1  2  1  0
  2  3  1  0
  3  4  1  0
  4  5  1  0
  5  6  1  0
  6  7  1  0
  7  8  2  0
  7  9  1  0
  9 10  2  0
 10 11  1  0
 11 12  2  0
 12 13  1  0
 13 14  2  0
 14 15  1  0
  5 16  1  0
 16 17  2  0
 16 18  1  0
 18 19  1  0
 18 20  1  0
 20 21  1  0
 21 22  2  0
 22 23  1  0
 23 24  2  0
 24 25  1  0
 14  9  1  0
 25 21  1  0
  1 26  1  0
  1 27  1  0
  1 28  1  0
  3 29  1  0
  3 30  1  0
  4 31  1  0
  4 32  1  0
  5 33  1  0
  6 34  1  0
 10 35  1  0
 11 36  1  0
 12 37  1  0
 13 38  1  0
 19 39  1  0
 19 40  1  0
 19 41  1  0
 20 42  1  0
 20 43  1  0
 22 44  1  0
 23 45  1  0
 24 46  1  0
M  END
$$$$
