
     RDKit          3D

 57 60  0  0  0  0  0  0  0  0999 V2000
    5.0119    0.3941   -1.7227 O   0  0  0  0  0  0  0  0  0  0  0  0
    4.4627   -0.5909   -0.8189 S   0  0  0  0  0  6  0  0  0  0  0  0
    5.2326   -1.7254   -0.3594 O   0  0  0  0  0  0  0  0  0  0  0  0
    3.9119    0.1945    0.5553 N   0  0  0  0  0  0  0  0  0  0  0  0
    3.3413    1.5412    0.4488 C   0  0  0  0  0  0  0  0  0  0  0  0
    2.3291    1.7579    1.5693 C   0  0  0  0  0  0  0  0  0  0  0  0
    3.1494    2.1875    2.7850 C   0  0  0  0  0  0  0  0  0  0  0  0
    4.5043    2.6524    2.2515 C   0  0  0  0  0  0  0  0  0  0  0  0
    4.3971    2.6024    0.7307 C   0  0  0  0  0  0  0  0  0  0  0  0
    2.9442   -1.2121   -1.5013 C   0  0  0  0  0  0  0  0  0  0  0  0
    2.3686   -2.3632   -0.9519 C   0  0  0  0  0  0  0  0  0  0  0  0
    1.1680   -2.8467   -1.4725 C   0  0  0  0  0  0  0  0  0  0  0  0
    0.5478   -2.1661   -2.5274 C   0  0  0  0  0  0  0  0  0  0  0  0
   -1.0009   -2.7698   -3.1767 S   0  0  0  0  0  6  0  0  0  0  0  0
   -1.1169   -2.2887   -4.5369 O   0  0  0  0  0  0  0  0  0  0  0  0
   -1.0748   -4.1822   -2.8686 O   0  0  0  0  0  0  0  0  0  0  0  0
   -2.1579   -1.9660   -2.2382 N   0  0  0  0  0  0  0  0  0  0  0  0
   -2.3618   -0.5112   -2.5132 C   0  0  0  0  0  0  0  0  0  0  0  0
   -3.2928    0.1371   -1.4714 C   0  0  0  0  0  0  0  0  0  0  0  0
   -2.7332    0.0175   -0.0994 N   0  0  0  0  0  0  0  0  0  0  0  0
   -3.6645    0.3934    0.8811 C   0  0  0  0  0  0  0  0  0  0  0  0
   -4.0269    1.7459    0.9884 C   0  0  0  0  0  0  0  0  0  0  0  0
   -4.9480    2.1840    1.9441 C   0  0  0  0  0  0  0  0  0  0  0  0
   -5.5364    1.2695    2.8105 C   0  0  0  0  0  0  0  0  0  0  0  0
   -5.2037   -0.0779    2.7165 C   0  0  0  0  0  0  0  0  0  0  0  0
   -4.2766   -0.5100    1.7604 C   0  0  0  0  0  0  0  0  0  0  0  0
   -1.8974   -1.1792    0.1323 C   0  0  0  0  0  0  0  0  0  0  0  0
   -2.2818   -2.3427   -0.7972 C   0  0  0  0  0  0  0  0  0  0  0  0
    1.1534   -1.0467   -3.1108 C   0  0  0  0  0  0  0  0  0  0  0  0
    2.3553   -0.5643   -2.5924 C   0  0  0  0  0  0  0  0  0  0  0  0
    4.3883   -0.0882    1.4114 H   0  0  0  0  0  0  0  0  0  0  0  0
    2.8670    1.6818   -0.5270 H   0  0  0  0  0  0  0  0  0  0  0  0
    1.6467    2.5720    1.2939 H   0  0  0  0  0  0  0  0  0  0  0  0
    1.7193    0.8726    1.7807 H   0  0  0  0  0  0  0  0  0  0  0  0
    3.2852    1.3485    3.4796 H   0  0  0  0  0  0  0  0  0  0  0  0
    2.6401    2.9861    3.3362 H   0  0  0  0  0  0  0  0  0  0  0  0
    4.7593    3.6582    2.6041 H   0  0  0  0  0  0  0  0  0  0  0  0
    5.2940    1.9733    2.5985 H   0  0  0  0  0  0  0  0  0  0  0  0
    5.3648    2.3934    0.2647 H   0  0  0  0  0  0  0  0  0  0  0  0
    4.0494    3.5753    0.3616 H   0  0  0  0  0  0  0  0  0  0  0  0
    2.8518   -2.8831   -0.1268 H   0  0  0  0  0  0  0  0  0  0  0  0
    0.7267   -3.7497   -1.0561 H   0  0  0  0  0  0  0  0  0  0  0  0
   -2.8074   -0.3984   -3.5075 H   0  0  0  0  0  0  0  0  0  0  0  0
   -1.4006    0.0132   -2.4987 H   0  0  0  0  0  0  0  0  0  0  0  0
   -3.4245    1.1938   -1.7311 H   0  0  0  0  0  0  0  0  0  0  0  0
   -4.2758   -0.3500   -1.5201 H   0  0  0  0  0  0  0  0  0  0  0  0
   -3.5655    2.4804    0.3327 H   0  0  0  0  0  0  0  0  0  0  0  0
   -5.2010    3.2387    2.0091 H   0  0  0  0  0  0  0  0  0  0  0  0
   -6.2535    1.6053    3.5551 H   0  0  0  0  0  0  0  0  0  0  0  0
   -5.6674   -0.7987    3.3854 H   0  0  0  0  0  0  0  0  0  0  0  0
   -4.0661   -1.5731    1.7078 H   0  0  0  0  0  0  0  0  0  0  0  0
   -1.9058   -1.5058    1.1784 H   0  0  0  0  0  0  0  0  0  0  0  0
   -0.8593   -0.8874   -0.0713 H   0  0  0  0  0  0  0  0  0  0  0  0
   -3.3229   -2.6400   -0.6231 H   0  0  0  0  0  0  0  0  0  0  0  0
   -1.6677   -3.2149   -0.5589 H   0  0  0  0  0  0  0  0  0  0  0  0
    0.6970   -0.5475   -3.9634 H   0  0  0  0  0  0  0  0  0  0  0  0
    2.8240    0.3098   -3.0405 H   0  0  0  0  0  0  0  0  0  0  0  0
  1  2  2  0
  2  3  2  0
  2  4  1  0
  4  5  1  0
  5  6  1  0
  6  7  1  0
  7  8  1  0
  8  9  1  0
  2 10  1  0
 10 11  2  0
 11 12  1  0
 12 13  2  0
 13 14  1  0
 14 15  2  0
 14 16  2  0
 14 17  1  0
 17 18  1  0
 18 19  1  0
 19 20  1  0
 20 21  1  0
 21 22  2  0
 22 23  1  0
 23 24  2  0
 24 25  1  0
 25 26  2  0
 20 27  1  0
 27 28  1  0
 13 29  1  0
 29 30  2  0
  9  5  1  0
 30 10  1  0
 28 17  1  0
 26 21  1  0
  4 31  1  0
  5 32  1  0
  6 33  1  0
  6 34  1  0
  7 35  1  0
  7 36  1  0
  8 37  1  0
  8 38  1  0
  9 39  1  0
  9 40  1  0
 11 41  1  0
 12 42  1  0
 18 43  1  0
 18 44  1  0
 19 45  1  0
 19 46  1  0
 22 47  1  0
 23 48  1  0
 24 49  1  0
 25 50  1  0
 26 51  1  0
 27 52  1  0
 27 53  1  0
 28 54  1  0
 28 55  1  0
 29 56  1  0
 30 57  1  0
M  END
$$$$
