
     RDKit          3D

 48 50  0  0  0  0  0  0  0  0999 V2000
    4.1530   -0.3978   -3.1056 C   0  0  0  0  0  0  0  0  0  0  0  0
    4.0918   -0.3169   -1.6227 C   0  0  0  0  0  0  0  0  0  0  0  0
    5.0287    0.2663   -0.7717 C   0  0  0  0  0  0  0  0  0  0  0  0
    6.2829    0.9438   -0.9880 C   0  0  0  0  0  0  0  0  0  0  0  0
    7.0371    1.4274   -0.1557 O   0  0  0  0  0  0  0  0  0  0  0  0
    6.6055    1.0211   -2.2999 O   0  0  0  0  0  0  0  0  0  0  0  0
    4.6122    0.1335    0.5269 O   0  0  0  0  0  0  0  0  0  0  0  0
    3.4276   -0.5254    0.5196 C   0  0  0  0  0  0  0  0  0  0  0  0
    2.6878   -0.8574    1.6537 C   0  0  0  0  0  0  0  0  0  0  0  0
    1.4854   -1.5383    1.4408 C   0  0  0  0  0  0  0  0  0  0  0  0
    1.0678   -1.8491    0.1417 C   0  0  0  0  0  0  0  0  0  0  0  0
   -0.4657   -2.7126   -0.1074 S   0  0  0  0  0  6  0  0  0  0  0  0
   -0.9684   -3.1545    1.1737 O   0  0  0  0  0  0  0  0  0  0  0  0
   -0.2783   -3.6261   -1.2124 O   0  0  0  0  0  0  0  0  0  0  0  0
   -1.4553   -1.4881   -0.6684 N   0  0  0  0  0  0  0  0  0  0  0  0
   -2.0150   -0.4873    0.2574 C   0  0  0  0  0  0  0  0  0  0  0  0
   -1.8423    0.8805   -0.4202 C   0  0  0  0  0  0  0  0  0  0  0  0
   -1.6055    2.0606    0.5258 C   0  0  0  0  0  0  0  0  0  0  0  0
   -2.5938    2.2536    1.6742 C   0  0  0  0  0  0  0  0  0  0  0  0
   -4.0583    2.1219    1.2649 C   0  0  0  0  0  0  0  0  0  0  0  0
   -4.7735    0.9185    1.8756 C   0  0  0  0  0  0  0  0  0  0  0  0
   -4.0349   -0.4203    1.8696 C   0  0  0  0  0  0  0  0  0  0  0  0
   -3.4849   -0.8752    0.5180 C   0  0  0  0  0  0  0  0  0  0  0  0
    1.8397   -1.5134   -0.9845 C   0  0  0  0  0  0  0  0  0  0  0  0
    3.0523   -0.8277   -0.7819 C   0  0  0  0  0  0  0  0  0  0  0  0
    4.1841    0.6046   -3.5444 H   0  0  0  0  0  0  0  0  0  0  0  0
    5.0430   -0.9499   -3.4241 H   0  0  0  0  0  0  0  0  0  0  0  0
    3.2795   -0.9123   -3.5176 H   0  0  0  0  0  0  0  0  0  0  0  0
    7.4633    1.4938   -2.2793 H   0  0  0  0  0  0  0  0  0  0  0  0
    3.0366   -0.6008    2.6473 H   0  0  0  0  0  0  0  0  0  0  0  0
    0.8791   -1.8222    2.2995 H   0  0  0  0  0  0  0  0  0  0  0  0
   -1.9024   -1.6626   -1.5665 H   0  0  0  0  0  0  0  0  0  0  0  0
   -1.4403   -0.5041    1.1899 H   0  0  0  0  0  0  0  0  0  0  0  0
   -2.6897    1.0875   -1.0844 H   0  0  0  0  0  0  0  0  0  0  0  0
   -0.9684    0.8501   -1.0870 H   0  0  0  0  0  0  0  0  0  0  0  0
   -0.5980    1.9760    0.9531 H   0  0  0  0  0  0  0  0  0  0  0  0
   -1.5955    2.9754   -0.0811 H   0  0  0  0  0  0  0  0  0  0  0  0
   -2.4340    3.2636    2.0746 H   0  0  0  0  0  0  0  0  0  0  0  0
   -2.3403    1.5807    2.4995 H   0  0  0  0  0  0  0  0  0  0  0  0
   -4.1756    2.1092    0.1766 H   0  0  0  0  0  0  0  0  0  0  0  0
   -4.5944    3.0214    1.5956 H   0  0  0  0  0  0  0  0  0  0  0  0
   -5.0229    1.1548    2.9184 H   0  0  0  0  0  0  0  0  0  0  0  0
   -5.7353    0.7967    1.3610 H   0  0  0  0  0  0  0  0  0  0  0  0
   -4.7588   -1.1749    2.2066 H   0  0  0  0  0  0  0  0  0  0  0  0
   -3.2442   -0.4294    2.6282 H   0  0  0  0  0  0  0  0  0  0  0  0
   -4.1358   -0.5456   -0.3010 H   0  0  0  0  0  0  0  0  0  0  0  0
   -3.5525   -1.9724    0.5165 H   0  0  0  0  0  0  0  0  0  0  0  0
    1.5066   -1.7765   -1.9846 H   0  0  0  0  0  0  0  0  0  0  0  0
  1  2  1  0
  2  3  2  0
  3  4  1  0
  4  5  2  0
  4  6  1  0
  3  7  1  0
  7  8  1  0
  8  9  2  0
  9 10  1  0
 10 11  2  0
 11 12  1  0
 12 13  2  0
 12 14  2  0
 12 15  1  0
 15 16  1  0
 16 17  1  0
 17 18  1  0
 18 19  1  0
 19 20  1  0
 20 21  1  0
 21 22  1  0
 22 23  1  0
 11 24  1  0
 24 25  2  0
 25  2  1  0
 25  8  1  0
 23 16  1  0
  1 26  1  0
  1 27  1  0
  1 28  1  0
  6 29  1  0
  9 30  1  0
 10 31  1  0
 15 32  1  0
 16 33  1  0
 17 34  1  0
 17 35  1  0
 18 36  1  0
 18 37  1  0
 19 38  1  0
 19 39  1  0
 20 40  1  0
 20 41  1  0
 21 42  1  0
 21 43  1  0
 22 44  1  0
 22 45  1  0
 23 46  1  0
 23 47  1  0
 24 48  1  0
M  END
$$$$
