
     RDKit          3D

 49 51  0  0  0  0  0  0  0  0999 V2000
   -8.2916   -0.6853   -0.7051 C   0  0  0  0  0  0  0  0  0  0  0  0
   -7.4932    0.5459   -0.3591 C   0  0  0  0  0  0  0  0  0  0  0  0
   -8.0420    1.6473   -0.3199 O   0  0  0  0  0  0  0  0  0  0  0  0
   -6.1372    0.3736   -0.1156 N   0  0  0  0  0  0  0  0  0  0  0  0
   -5.3897    1.5279    0.3976 C   0  0  0  0  0  0  0  0  0  0  0  0
   -3.8909    1.4690    0.0575 C   0  0  0  0  0  0  0  0  0  0  0  0
   -3.3139    0.1719    0.4740 N   0  0  0  0  0  0  0  0  0  0  0  0
   -1.9162    0.0410    0.4538 C   0  0  0  0  0  0  0  0  0  0  0  0
   -1.3107   -1.0086    1.1603 C   0  0  0  0  0  0  0  0  0  0  0  0
    0.0819   -1.1919    1.1844 C   0  0  0  0  0  0  0  0  0  0  0  0
    0.9212   -0.3201    0.5034 C   0  0  0  0  0  0  0  0  0  0  0  0
    2.3294   -0.3935    0.4436 N   0  0  0  0  0  0  0  0  0  0  0  0
    3.2660   -1.2433    0.9811 C   0  0  0  0  0  0  0  0  0  0  0  0
    3.0780   -2.5759    1.9691 S   0  0  0  0  0  0  0  0  0  0  0  0
    4.5793   -0.9423    0.6390 N   0  0  0  0  0  0  0  0  0  0  0  0
    5.0667    0.0908   -0.1517 C   0  0  0  0  0  0  0  0  0  0  0  0
    4.3575    0.9752   -0.6244 O   0  0  0  0  0  0  0  0  0  0  0  0
    6.5370    0.1087   -0.3756 C   0  0  0  0  0  0  0  0  0  0  0  0
    7.2932   -1.0691   -0.4434 C   0  0  0  0  0  0  0  0  0  0  0  0
    8.6722   -0.9995   -0.6562 C   0  0  0  0  0  0  0  0  0  0  0  0
    9.2958    0.2388   -0.8096 C   0  0  0  0  0  0  0  0  0  0  0  0
    8.5437    1.4118   -0.7606 C   0  0  0  0  0  0  0  0  0  0  0  0
    7.1657    1.3482   -0.5493 C   0  0  0  0  0  0  0  0  0  0  0  0
    0.3309    0.7404   -0.1948 C   0  0  0  0  0  0  0  0  0  0  0  0
   -1.0605    0.9204   -0.2147 C   0  0  0  0  0  0  0  0  0  0  0  0
   -4.0185   -0.9773   -0.1428 C   0  0  0  0  0  0  0  0  0  0  0  0
   -5.5257   -0.9302    0.1761 C   0  0  0  0  0  0  0  0  0  0  0  0
   -7.8753   -1.1688   -1.5927 H   0  0  0  0  0  0  0  0  0  0  0  0
   -8.3070   -1.3768    0.1412 H   0  0  0  0  0  0  0  0  0  0  0  0
   -9.3232   -0.3963   -0.9287 H   0  0  0  0  0  0  0  0  0  0  0  0
   -5.5279    1.5364    1.4861 H   0  0  0  0  0  0  0  0  0  0  0  0
   -5.8120    2.4595    0.0057 H   0  0  0  0  0  0  0  0  0  0  0  0
   -3.7657    1.6050   -1.0245 H   0  0  0  0  0  0  0  0  0  0  0  0
   -3.3912    2.2973    0.5742 H   0  0  0  0  0  0  0  0  0  0  0  0
   -1.9263   -1.6962    1.7360 H   0  0  0  0  0  0  0  0  0  0  0  0
    0.4504   -2.0290    1.7602 H   0  0  0  0  0  0  0  0  0  0  0  0
    2.7552    0.3550   -0.1071 H   0  0  0  0  0  0  0  0  0  0  0  0
    5.2453   -1.5657    1.0740 H   0  0  0  0  0  0  0  0  0  0  0  0
    6.8297   -2.0485   -0.3648 H   0  0  0  0  0  0  0  0  0  0  0  0
    9.2616   -1.9120   -0.7133 H   0  0  0  0  0  0  0  0  0  0  0  0
   10.3692    0.2896   -0.9782 H   0  0  0  0  0  0  0  0  0  0  0  0
    9.0293    2.3760   -0.8908 H   0  0  0  0  0  0  0  0  0  0  0  0
    6.5846    2.2681   -0.5177 H   0  0  0  0  0  0  0  0  0  0  0  0
    0.9470    1.4523   -0.7408 H   0  0  0  0  0  0  0  0  0  0  0  0
   -1.4472    1.7597   -0.7838 H   0  0  0  0  0  0  0  0  0  0  0  0
   -3.8763   -0.9463   -1.2313 H   0  0  0  0  0  0  0  0  0  0  0  0
   -3.6317   -1.9384    0.2141 H   0  0  0  0  0  0  0  0  0  0  0  0
   -5.6882   -1.1213    1.2441 H   0  0  0  0  0  0  0  0  0  0  0  0
   -6.0289   -1.7260   -0.3792 H   0  0  0  0  0  0  0  0  0  0  0  0
  1  2  1  0
  2  3  2  0
  2  4  1  0
  4  5  1  0
  5  6  1  0
  6  7  1  0
  7  8  1  0
  8  9  2  0
  9 10  1  0
 10 11  2  0
 11 12  1  0
 12 13  1  0
 13 14  2  0
 13 15  1  0
 15 16  1  0
 16 17  2  0
 16 18  1  0
 18 19  2  0
 19 20  1  0
 20 21  2  0
 21 22  1  0
 22 23  2  0
 11 24  1  0
 24 25  2  0
  7 26  1  0
 26 27  1  0
 27  4  1  0
 25  8  1  0
 23 18  1  0
  1 28  1  0
  1 29  1  0
  1 30  1  0
  5 31  1  0
  5 32  1  0
  6 33  1  0
  6 34  1  0
  9 35  1  0
 10 36  1  0
 12 37  1  0
 15 38  1  0
 19 39  1  0
 20 40  1  0
 21 41  1  0
 22 42  1  0
 23 43  1  0
 24 44  1  0
 25 45  1  0
 26 46  1  0
 26 47  1  0
 27 48  1  0
 27 49  1  0
M  END
$$$$
