
     RDKit          3D

 52 54  0  0  0  0  0  0  0  0999 V2000
   -5.3062   -0.4513   -2.2834 C   0  0  0  0  0  0  0  0  0  0  0  0
   -5.0033   -1.6411   -1.3859 C   0  0  0  0  0  0  0  0  0  0  0  0
   -3.9579   -1.3436   -0.3067 C   0  0  0  0  0  0  0  0  0  0  0  0
   -2.5684   -1.0433   -0.8822 C   0  0  0  0  0  0  0  0  0  0  0  0
   -1.4440   -0.8811    0.1726 C   0  0  0  0  0  0  0  0  0  0  0  0
   -1.2256   -2.2015    0.9428 C   0  0  0  0  0  0  0  0  0  0  0  0
    0.2063   -2.3999    1.4190 C   0  0  0  0  0  0  0  0  0  0  0  0
   -1.7560    0.3191    1.1015 C   0  0  0  0  0  0  0  0  0  0  0  0
   -0.5939    0.8320    1.8306 N   0  0  0  0  0  0  0  0  0  0  0  0
    0.3537    1.5570    1.1200 C   0  0  0  0  0  0  0  0  0  0  0  0
    0.2721    1.8432   -0.0657 O   0  0  0  0  0  0  0  0  0  0  0  0
    1.4503    2.0040    2.0242 C   0  0  0  0  0  0  0  0  0  0  0  0
    2.5732    2.6593    1.6948 C   0  0  0  0  0  0  0  0  0  0  0  0
    3.0098    3.0160    0.3885 C   0  0  0  0  0  0  0  0  0  0  0  0
    3.2133    4.3093   -0.0286 C   0  0  0  0  0  0  0  0  0  0  0  0
    3.6014    4.2166   -1.3308 N   0  0  0  0  0  0  0  0  0  0  0  0
    3.7125    2.9572   -1.7752 N   0  0  0  0  0  0  0  0  0  0  0  0
    3.3555    2.1940   -0.7266 C   0  0  0  0  0  0  0  0  0  0  0  0
    3.3776    0.7348   -0.8233 C   0  0  0  0  0  0  0  0  0  0  0  0
    3.9668   -0.0459    0.1805 C   0  0  0  0  0  0  0  0  0  0  0  0
    3.9880   -1.4387    0.0718 C   0  0  0  0  0  0  0  0  0  0  0  0
    3.4232   -2.0608   -1.0409 C   0  0  0  0  0  0  0  0  0  0  0  0
    2.8360   -1.2935   -2.0453 C   0  0  0  0  0  0  0  0  0  0  0  0
    2.8165    0.0986   -1.9384 C   0  0  0  0  0  0  0  0  0  0  0  0
    1.0679    1.5808    3.6522 S   0  0  0  0  0  0  0  0  0  0  0  0
   -0.4291    0.7761    3.1986 C   0  0  0  0  0  0  0  0  0  0  0  0
   -1.4273    0.0821    4.3420 S   0  0  0  0  0  0  0  0  0  0  0  0
   -5.6033    0.4212   -1.6930 H   0  0  0  0  0  0  0  0  0  0  0  0
   -4.4408   -0.1784   -2.8942 H   0  0  0  0  0  0  0  0  0  0  0  0
   -6.1279   -0.6949   -2.9647 H   0  0  0  0  0  0  0  0  0  0  0  0
   -5.9326   -1.9495   -0.8921 H   0  0  0  0  0  0  0  0  0  0  0  0
   -4.6755   -2.4878   -2.0001 H   0  0  0  0  0  0  0  0  0  0  0  0
   -4.3042   -0.5017    0.3033 H   0  0  0  0  0  0  0  0  0  0  0  0
   -3.9035   -2.2148    0.3556 H   0  0  0  0  0  0  0  0  0  0  0  0
   -2.6115   -0.1246   -1.4798 H   0  0  0  0  0  0  0  0  0  0  0  0
   -2.2850   -1.8451   -1.5764 H   0  0  0  0  0  0  0  0  0  0  0  0
   -0.5302   -0.6653   -0.3964 H   0  0  0  0  0  0  0  0  0  0  0  0
   -1.4630   -3.0509    0.2898 H   0  0  0  0  0  0  0  0  0  0  0  0
   -1.9079   -2.2673    1.7978 H   0  0  0  0  0  0  0  0  0  0  0  0
    0.3010   -3.3657    1.9260 H   0  0  0  0  0  0  0  0  0  0  0  0
    0.5250   -1.6271    2.1189 H   0  0  0  0  0  0  0  0  0  0  0  0
    0.8966   -2.3999    0.5713 H   0  0  0  0  0  0  0  0  0  0  0  0
   -2.5618    0.0610    1.7936 H   0  0  0  0  0  0  0  0  0  0  0  0
   -2.1309    1.1522    0.4923 H   0  0  0  0  0  0  0  0  0  0  0  0
    3.2437    2.9629    2.4973 H   0  0  0  0  0  0  0  0  0  0  0  0
    3.0951    5.2663    0.4584 H   0  0  0  0  0  0  0  0  0  0  0  0
    3.8161    4.9698   -1.9754 H   0  0  0  0  0  0  0  0  0  0  0  0
    4.4352    0.4224    1.0419 H   0  0  0  0  0  0  0  0  0  0  0  0
    4.4540   -2.0372    0.8501 H   0  0  0  0  0  0  0  0  0  0  0  0
    3.4434   -3.1441   -1.1275 H   0  0  0  0  0  0  0  0  0  0  0  0
    2.3970   -1.7744   -2.9152 H   0  0  0  0  0  0  0  0  0  0  0  0
    2.3590    0.6933   -2.7267 H   0  0  0  0  0  0  0  0  0  0  0  0
  1  2  1  0
  2  3  1  0
  3  4  1  0
  4  5  1  0
  5  6  1  0
  6  7  1  0
  5  8  1  0
  8  9  1  0
  9 10  1  0
 10 11  2  0
 10 12  1  0
 12 13  2  3
 13 14  1  0
 14 15  2  0
 15 16  1  0
 16 17  1  0
 17 18  2  0
 18 19  1  0
 19 20  2  0
 20 21  1  0
 21 22  2  0
 22 23  1  0
 23 24  2  0
 12 25  1  0
 25 26  1  0
 26 27  2  0
 26  9  1  0
 18 14  1  0
 24 19  1  0
  1 28  1  0
  1 29  1  0
  1 30  1  0
  2 31  1  0
  2 32  1  0
  3 33  1  0
  3 34  1  0
  4 35  1  0
  4 36  1  0
  5 37  1  0
  6 38  1  0
  6 39  1  0
  7 40  1  0
  7 41  1  0
  7 42  1  0
  8 43  1  0
  8 44  1  0
 13 45  1  0
 15 46  1  0
 16 47  1  0
 20 48  1  0
 21 49  1  0
 22 50  1  0
 23 51  1  0
 24 52  1  0
M  END
$$$$
