
     RDKit          3D

 49 51  0  0  0  0  0  0  0  0999 V2000
    0.9253    1.4616   -3.6926 N   0  0  0  0  0  0  0  0  0  0  0  0
    1.6885    1.3131   -2.5951 C   0  0  0  0  0  0  0  0  0  0  0  0
    2.9868    1.3109   -2.6381 N   0  0  0  0  0  0  0  0  0  0  0  0
    3.4021    1.1774   -1.2096 C   0  0  0  0  0  0  0  0  0  0  0  0
    2.1168    0.9671   -0.3714 C   0  0  0  0  0  0  0  0  0  0  0  0
    2.0542   -0.4300    0.2646 C   0  0  0  0  0  0  0  0  0  0  0  0
    3.0469   -0.6198    1.3886 C   0  0  0  0  0  0  0  0  0  0  0  0
    2.8562    0.0219    2.6212 C   0  0  0  0  0  0  0  0  0  0  0  0
    3.7773   -0.1481    3.6556 C   0  0  0  0  0  0  0  0  0  0  0  0
    4.8884   -0.9593    3.4629 C   0  0  0  0  0  0  0  0  0  0  0  0
    5.7623   -1.0958    4.5002 O   0  0  0  0  0  0  0  0  0  0  0  0
    5.0947   -1.6079    2.2503 C   0  0  0  0  0  0  0  0  0  0  0  0
    4.1722   -1.4388    1.2151 C   0  0  0  0  0  0  0  0  0  0  0  0
    1.0915    1.1546   -1.3922 N   0  0  0  0  0  0  0  0  0  0  0  0
   -0.3210    1.1183   -1.0766 C   0  0  0  0  0  0  0  0  0  0  0  0
   -0.9753   -0.1852   -1.5523 C   0  0  0  0  0  0  0  0  0  0  0  0
   -2.4360   -0.2483   -1.1701 C   0  0  0  0  0  0  0  0  0  0  0  0
   -3.4174    0.2468   -2.0395 C   0  0  0  0  0  0  0  0  0  0  0  0
   -4.7757    0.2188   -1.6871 C   0  0  0  0  0  0  0  0  0  0  0  0
   -5.8223    0.7377   -2.6454 C   0  0  0  0  0  0  0  0  0  0  0  0
   -5.3941    1.8128   -3.3642 F   0  0  0  0  0  0  0  0  0  0  0  0
   -6.1992   -0.1990   -3.5574 F   0  0  0  0  0  0  0  0  0  0  0  0
   -6.9653    1.1387   -2.0225 F   0  0  0  0  0  0  0  0  0  0  0  0
   -5.1438   -0.3286   -0.4475 C   0  0  0  0  0  0  0  0  0  0  0  0
   -4.1764   -0.8322    0.4381 C   0  0  0  0  0  0  0  0  0  0  0  0
   -4.5963   -1.3977    1.7752 C   0  0  0  0  0  0  0  0  0  0  0  0
   -5.6237   -2.2845    1.6688 F   0  0  0  0  0  0  0  0  0  0  0  0
   -5.0230   -0.4288    2.6313 F   0  0  0  0  0  0  0  0  0  0  0  0
   -3.5974   -2.0577    2.4244 F   0  0  0  0  0  0  0  0  0  0  0  0
   -2.8238   -0.7790    0.0679 C   0  0  0  0  0  0  0  0  0  0  0  0
    1.5178    1.6853   -4.4869 H   0  0  0  0  0  0  0  0  0  0  0  0
    0.2123    2.1691   -3.5827 H   0  0  0  0  0  0  0  0  0  0  0  0
    4.1157    0.3533   -1.1211 H   0  0  0  0  0  0  0  0  0  0  0  0
    3.9097    2.0998   -0.9054 H   0  0  0  0  0  0  0  0  0  0  0  0
    2.0369    1.7517    0.3906 H   0  0  0  0  0  0  0  0  0  0  0  0
    1.0551   -0.6128    0.6800 H   0  0  0  0  0  0  0  0  0  0  0  0
    2.1956   -1.2038   -0.5016 H   0  0  0  0  0  0  0  0  0  0  0  0
    1.9881    0.6552    2.7889 H   0  0  0  0  0  0  0  0  0  0  0  0
    3.6282    0.3495    4.6097 H   0  0  0  0  0  0  0  0  0  0  0  0
    6.4781   -1.6919    4.2254 H   0  0  0  0  0  0  0  0  0  0  0  0
    5.9599   -2.2438    2.0911 H   0  0  0  0  0  0  0  0  0  0  0  0
    4.3407   -1.9492    0.2684 H   0  0  0  0  0  0  0  0  0  0  0  0
   -0.4623    1.2340    0.0057 H   0  0  0  0  0  0  0  0  0  0  0  0
   -0.8226    1.9814   -1.5317 H   0  0  0  0  0  0  0  0  0  0  0  0
   -0.4553   -1.0550   -1.1327 H   0  0  0  0  0  0  0  0  0  0  0  0
   -0.8836   -0.2928   -2.6400 H   0  0  0  0  0  0  0  0  0  0  0  0
   -3.1239    0.6588   -3.0059 H   0  0  0  0  0  0  0  0  0  0  0  0
   -6.1980   -0.3647   -0.1659 H   0  0  0  0  0  0  0  0  0  0  0  0
   -2.0650   -1.1633    0.7504 H   0  0  0  0  0  0  0  0  0  0  0  0
  1  2  1  0
  2  3  2  0
  3  4  1  0
  4  5  1  0
  5  6  1  0
  6  7  1  0
  7  8  2  0
  8  9  1  0
  9 10  2  0
 10 11  1  0
 10 12  1  0
 12 13  2  0
  5 14  1  0
 14 15  1  0
 15 16  1  0
 16 17  1  0
 17 18  2  0
 18 19  1  0
 19 20  1  0
 20 21  1  0
 20 22  1  0
 20 23  1  0
 19 24  2  0
 24 25  1  0
 25 26  1  0
 26 27  1  0
 26 28  1  0
 26 29  1  0
 25 30  2  0
 14  2  1  0
 30 17  1  0
 13  7  1  0
  1 31  1  0
  1 32  1  0
  4 33  1  0
  4 34  1  0
  5 35  1  0
  6 36  1  0
  6 37  1  0
  8 38  1  0
  9 39  1  0
 11 40  1  0
 12 41  1  0
 13 42  1  0
 15 43  1  0
 15 44  1  0
 16 45  1  0
 16 46  1  0
 18 47  1  0
 24 48  1  0
 30 49  1  0
M  END
$$$$
