
     RDKit          3D

 37 39  0  0  0  0  0  0  0  0999 V2000
    5.7565    0.5393    1.2922 N   0  0  0  0  0  0  0  0  0  0  0  0
    5.1206    0.4713    0.0864 C   0  0  0  0  0  0  0  0  0  0  0  0
    5.6057    1.0054   -0.9034 O   0  0  0  0  0  0  0  0  0  0  0  0
    3.8131   -0.3052    0.0943 C   0  0  0  0  0  0  0  0  0  0  0  0
    2.7812    0.3617    1.0201 C   0  0  0  0  0  0  0  0  0  0  0  0
    1.4341    0.6115    0.3420 C   0  0  0  0  0  0  0  0  0  0  0  0
    1.0045   -0.5998   -0.3485 N   0  0  0  0  0  0  0  0  0  0  0  0
   -0.3330   -0.8860   -0.3854 C   0  0  0  0  0  0  0  0  0  0  0  0
   -1.2486   -0.1544    0.2152 N   0  0  0  0  0  0  0  0  0  0  0  0
   -2.5256   -0.6733    0.0459 C   0  0  0  0  0  0  0  0  0  0  0  0
   -3.6841    0.0025    0.6248 C   0  0  0  0  0  0  0  0  0  0  0  0
   -3.5613    1.3455    1.0210 C   0  0  0  0  0  0  0  0  0  0  0  0
   -4.6424    2.0359    1.5792 C   0  0  0  0  0  0  0  0  0  0  0  0
   -5.8653    1.3932    1.7548 C   0  0  0  0  0  0  0  0  0  0  0  0
   -6.0038    0.0605    1.3748 C   0  0  0  0  0  0  0  0  0  0  0  0
   -4.9217   -0.6238    0.8179 C   0  0  0  0  0  0  0  0  0  0  0  0
   -5.1103   -1.9106    0.4874 F   0  0  0  0  0  0  0  0  0  0  0  0
   -2.5701   -1.8211   -0.7150 C   0  0  0  0  0  0  0  0  0  0  0  0
   -0.9932   -2.2694   -1.1990 S   0  0  0  0  0  0  0  0  0  0  0  0
    1.9220   -1.1864   -1.3244 C   0  0  0  0  0  0  0  0  0  0  0  0
    3.2752   -0.4802   -1.3280 C   0  0  0  0  0  0  0  0  0  0  0  0
    5.4986   -0.0465    2.0741 H   0  0  0  0  0  0  0  0  0  0  0  0
    6.6662    0.9830    1.3058 H   0  0  0  0  0  0  0  0  0  0  0  0
    4.0458   -1.3033    0.4917 H   0  0  0  0  0  0  0  0  0  0  0  0
    3.1480    1.3119    1.4263 H   0  0  0  0  0  0  0  0  0  0  0  0
    2.6229   -0.2969    1.8847 H   0  0  0  0  0  0  0  0  0  0  0  0
    0.7267    0.9224    1.1207 H   0  0  0  0  0  0  0  0  0  0  0  0
    1.5065    1.4428   -0.3703 H   0  0  0  0  0  0  0  0  0  0  0  0
   -2.6132    1.8663    0.8932 H   0  0  0  0  0  0  0  0  0  0  0  0
   -4.5240    3.0752    1.8766 H   0  0  0  0  0  0  0  0  0  0  0  0
   -6.7059    1.9277    2.1898 H   0  0  0  0  0  0  0  0  0  0  0  0
   -6.9484   -0.4572    1.5112 H   0  0  0  0  0  0  0  0  0  0  0  0
   -3.4210   -2.4151   -1.0135 H   0  0  0  0  0  0  0  0  0  0  0  0
    1.5067   -1.1270   -2.3381 H   0  0  0  0  0  0  0  0  0  0  0  0
    2.0756   -2.2456   -1.0837 H   0  0  0  0  0  0  0  0  0  0  0  0
    3.1758    0.4980   -1.8177 H   0  0  0  0  0  0  0  0  0  0  0  0
    3.9862   -1.0521   -1.9370 H   0  0  0  0  0  0  0  0  0  0  0  0
  1  2  1  0
  2  3  2  0
  2  4  1  0
  4  5  1  0
  5  6  1  0
  6  7  1  0
  7  8  1  0
  8  9  2  0
  9 10  1  0
 10 11  1  0
 11 12  2  0
 12 13  1  0
 13 14  2  0
 14 15  1  0
 15 16  2  0
 16 17  1  0
 10 18  2  0
 18 19  1  0
  7 20  1  0
 20 21  1  0
 21  4  1  0
 19  8  1  0
 16 11  1  0
  1 22  1  0
  1 23  1  0
  4 24  1  0
  5 25  1  0
  5 26  1  0
  6 27  1  0
  6 28  1  0
 12 29  1  0
 13 30  1  0
 14 31  1  0
 15 32  1  0
 18 33  1  0
 20 34  1  0
 20 35  1  0
 21 36  1  0
 21 37  1  0
M  END
$$$$
