
     RDKit          3D

 44 47  0  0  0  0  0  0  0  0999 V2000
   -6.1874    1.5883   -1.5161 C   0  0  0  0  0  0  0  0  0  0  0  0
   -6.2401    0.1295   -1.0887 C   0  0  0  0  0  0  0  0  0  0  0  0
   -4.9327   -0.3285   -0.4962 C   0  0  0  0  0  0  0  0  0  0  0  0
   -4.6880   -0.1968    0.8752 C   0  0  0  0  0  0  0  0  0  0  0  0
   -3.4684   -0.6061    1.4275 C   0  0  0  0  0  0  0  0  0  0  0  0
   -2.4727   -1.1499    0.6173 C   0  0  0  0  0  0  0  0  0  0  0  0
   -1.2186   -1.5848    1.0879 N   0  0  0  0  0  0  0  0  0  0  0  0
   -0.7390   -1.5620    2.3887 C   0  0  0  0  0  0  0  0  0  0  0  0
   -1.3607   -1.1940    3.3828 O   0  0  0  0  0  0  0  0  0  0  0  0
    0.6801   -2.1222    2.5178 C   0  0  0  0  0  0  0  0  0  0  0  0
    1.6648   -1.2706    1.8547 N   0  0  0  0  0  0  0  0  0  0  0  0
    2.3858   -0.4041    2.6760 N   0  0  0  0  0  0  0  0  0  0  0  0
    3.2898    0.3601    2.1378 C   0  0  0  0  0  0  0  0  0  0  0  0
    3.5541    0.3207    0.7757 N   0  0  0  0  0  0  0  0  0  0  0  0
    2.8709   -0.5208   -0.0586 C   0  0  0  0  0  0  0  0  0  0  0  0
    3.3474   -0.3391   -1.3381 C   0  0  0  0  0  0  0  0  0  0  0  0
    4.3636    0.6533   -1.2779 C   0  0  0  0  0  0  0  0  0  0  0  0
    5.1981    1.2476   -2.2442 C   0  0  0  0  0  0  0  0  0  0  0  0
    6.1200    2.2230   -1.8509 C   0  0  0  0  0  0  0  0  0  0  0  0
    6.2183    2.6092   -0.5174 C   0  0  0  0  0  0  0  0  0  0  0  0
    5.4017    2.0350    0.4617 C   0  0  0  0  0  0  0  0  0  0  0  0
    4.4786    1.0559    0.0579 C   0  0  0  0  0  0  0  0  0  0  0  0
    1.8514   -1.3817    0.4684 C   0  0  0  0  0  0  0  0  0  0  0  0
    1.1727   -2.1353   -0.2288 O   0  0  0  0  0  0  0  0  0  0  0  0
   -2.7136   -1.2749   -0.7563 C   0  0  0  0  0  0  0  0  0  0  0  0
   -3.9309   -0.8665   -1.3097 C   0  0  0  0  0  0  0  0  0  0  0  0
   -5.9700    2.2439   -0.6660 H   0  0  0  0  0  0  0  0  0  0  0  0
   -5.4133    1.7527   -2.2734 H   0  0  0  0  0  0  0  0  0  0  0  0
   -7.1486    1.8928   -1.9421 H   0  0  0  0  0  0  0  0  0  0  0  0
   -7.0464   -0.0140   -0.3590 H   0  0  0  0  0  0  0  0  0  0  0  0
   -6.4955   -0.5000   -1.9499 H   0  0  0  0  0  0  0  0  0  0  0  0
   -5.4454    0.2278    1.5307 H   0  0  0  0  0  0  0  0  0  0  0  0
   -3.3305   -0.4826    2.4968 H   0  0  0  0  0  0  0  0  0  0  0  0
   -0.5845   -1.9537    0.3784 H   0  0  0  0  0  0  0  0  0  0  0  0
    0.7054   -3.1267    2.0802 H   0  0  0  0  0  0  0  0  0  0  0  0
    0.9363   -2.2109    3.5793 H   0  0  0  0  0  0  0  0  0  0  0  0
    3.8654    1.0541    2.7694 H   0  0  0  0  0  0  0  0  0  0  0  0
    3.0010   -0.8632   -2.2203 H   0  0  0  0  0  0  0  0  0  0  0  0
    5.1286    0.9536   -3.2879 H   0  0  0  0  0  0  0  0  0  0  0  0
    6.7648    2.6831   -2.5962 H   0  0  0  0  0  0  0  0  0  0  0  0
    6.9417    3.3705   -0.2323 H   0  0  0  0  0  0  0  0  0  0  0  0
    5.4909    2.3488    1.4972 H   0  0  0  0  0  0  0  0  0  0  0  0
   -1.9556   -1.6903   -1.4163 H   0  0  0  0  0  0  0  0  0  0  0  0
   -4.0896   -0.9713   -2.3805 H   0  0  0  0  0  0  0  0  0  0  0  0
  1  2  1  0
  2  3  1  0
  3  4  2  0
  4  5  1  0
  5  6  2  0
  6  7  1  0
  7  8  1  0
  8  9  2  0
  8 10  1  0
 10 11  1  0
 11 12  1  0
 12 13  2  0
 13 14  1  0
 14 15  1  0
 15 16  2  0
 16 17  1  0
 17 18  2  0
 18 19  1  0
 19 20  2  0
 20 21  1  0
 21 22  2  0
 15 23  1  0
 23 24  2  0
  6 25  1  0
 25 26  2  0
 26  3  1  0
 23 11  1  0
 22 14  1  0
 22 17  1  0
  1 27  1  0
  1 28  1  0
  1 29  1  0
  2 30  1  0
  2 31  1  0
  4 32  1  0
  5 33  1  0
  7 34  1  0
 10 35  1  0
 10 36  1  0
 13 37  1  0
 16 38  1  0
 18 39  1  0
 19 40  1  0
 20 41  1  0
 21 42  1  0
 25 43  1  0
 26 44  1  0
M  END
$$$$
