
     RDKit          3D

 35 36  0  0  0  0  0  0  0  0999 V2000
    2.7750    0.4042   -2.1546 O   0  0  0  0  0  0  0  0  0  0  0  0
    2.5555    0.0053   -1.0171 C   0  0  0  0  0  0  0  0  0  0  0  0
    1.3449   -0.5268   -0.6121 N   0  0  0  0  0  0  0  0  0  0  0  0
    0.2833   -0.7487   -1.5786 C   0  0  0  0  0  0  0  0  0  0  0  0
   -1.0875   -0.8001   -0.9146 C   0  0  0  0  0  0  0  0  0  0  0  0
   -1.5287    0.5779   -0.4204 C   0  0  0  0  0  0  0  0  0  0  0  0
   -2.8452    0.5467    0.1944 N   0  0  0  0  0  0  0  0  0  0  0  0
   -3.0603    0.0833    1.5411 C   0  0  0  0  0  0  0  0  0  0  0  0
   -4.5243    0.3949    1.7784 C   0  0  0  0  0  0  0  0  0  0  0  0
   -5.1571    0.2194    0.4028 C   0  0  0  0  0  0  0  0  0  0  0  0
   -4.0240    0.5394   -0.5425 C   0  0  0  0  0  0  0  0  0  0  0  0
   -4.1327    0.7024   -1.7462 O   0  0  0  0  0  0  0  0  0  0  0  0
    3.6349    0.0446   -0.0034 C   0  0  0  0  0  0  0  0  0  0  0  0
    4.9703    0.0214   -0.4101 C   0  0  0  0  0  0  0  0  0  0  0  0
    5.9802    0.0611    0.5487 C   0  0  0  0  0  0  0  0  0  0  0  0
    5.6165    0.1290    1.8847 C   0  0  0  0  0  0  0  0  0  0  0  0
    4.3348    0.1675    2.3132 N   0  0  0  0  0  0  0  0  0  0  0  0
    3.3734    0.1375    1.3571 C   0  0  0  0  0  0  0  0  0  0  0  0
    1.3499   -1.1287    0.2015 H   0  0  0  0  0  0  0  0  0  0  0  0
    0.3133    0.0262   -2.3525 H   0  0  0  0  0  0  0  0  0  0  0  0
    0.4970   -1.7080   -2.0631 H   0  0  0  0  0  0  0  0  0  0  0  0
   -1.0768   -1.5136   -0.0817 H   0  0  0  0  0  0  0  0  0  0  0  0
   -1.8187   -1.1751   -1.6411 H   0  0  0  0  0  0  0  0  0  0  0  0
   -0.8251    0.9867    0.3127 H   0  0  0  0  0  0  0  0  0  0  0  0
   -1.5716    1.2714   -1.2684 H   0  0  0  0  0  0  0  0  0  0  0  0
   -2.8682   -0.9939    1.5807 H   0  0  0  0  0  0  0  0  0  0  0  0
   -2.4031    0.6080    2.2398 H   0  0  0  0  0  0  0  0  0  0  0  0
   -4.9778   -0.2434    2.5417 H   0  0  0  0  0  0  0  0  0  0  0  0
   -4.6358    1.4379    2.1006 H   0  0  0  0  0  0  0  0  0  0  0  0
   -5.4726   -0.8152    0.2374 H   0  0  0  0  0  0  0  0  0  0  0  0
   -5.9972    0.9018    0.2535 H   0  0  0  0  0  0  0  0  0  0  0  0
    5.2222   -0.0273   -1.4672 H   0  0  0  0  0  0  0  0  0  0  0  0
    7.0253    0.0420    0.2592 H   0  0  0  0  0  0  0  0  0  0  0  0
    6.3687    0.1608    2.6683 H   0  0  0  0  0  0  0  0  0  0  0  0
    2.3617    0.2115    1.7436 H   0  0  0  0  0  0  0  0  0  0  0  0
  1  2  2  0
  2  3  1  0
  3  4  1  0
  4  5  1  0
  5  6  1  0
  6  7  1  0
  7  8  1  0
  8  9  1  0
  9 10  1  0
 10 11  1  0
 11 12  2  0
  2 13  1  0
 13 14  2  0
 14 15  1  0
 15 16  2  0
 16 17  1  0
 17 18  2  0
 11  7  1  0
 18 13  1  0
  3 19  1  0
  4 20  1  0
  4 21  1  0
  5 22  1  0
  5 23  1  0
  6 24  1  0
  6 25  1  0
  8 26  1  0
  8 27  1  0
  9 28  1  0
  9 29  1  0
 10 30  1  0
 10 31  1  0
 14 32  1  0
 15 33  1  0
 16 34  1  0
 18 35  1  0
M  END
$$$$
