
     RDKit          3D

 50 52  0  0  0  0  0  0  0  0999 V2000
    4.2135   -1.2541    2.4436 O   0  0  0  0  0  0  0  0  0  0  0  0
    4.0354   -0.0716    2.2229 C   0  0  0  0  0  0  0  0  0  0  0  0
    4.0816    0.8444    3.2034 O   0  0  0  0  0  0  0  0  0  0  0  0
    3.7433    0.5192    0.8959 C   0  0  0  0  0  0  0  0  0  0  0  0
    3.6093   -0.3505   -0.1945 C   0  0  0  0  0  0  0  0  0  0  0  0
    3.3249    0.1515   -1.4652 C   0  0  0  0  0  0  0  0  0  0  0  0
    3.2049   -0.7760   -2.5371 N   0  0  0  0  0  0  0  0  0  0  0  0
    1.8907   -0.7485   -3.5898 S   0  0  0  0  0  6  0  0  0  0  0  0
    1.8697    0.5073   -4.3047 O   0  0  0  0  0  0  0  0  0  0  0  0
    1.9062   -2.0151   -4.2883 O   0  0  0  0  0  0  0  0  0  0  0  0
    0.4988   -0.7779   -2.4826 C   0  0  0  0  0  0  0  0  0  0  0  0
   -0.2253    0.3935   -2.2390 C   0  0  0  0  0  0  0  0  0  0  0  0
   -1.3213    0.3698   -1.3668 C   0  0  0  0  0  0  0  0  0  0  0  0
   -1.7235   -0.8175   -0.7330 C   0  0  0  0  0  0  0  0  0  0  0  0
   -2.8114   -0.8555    0.1558 N   0  0  0  0  0  0  0  0  0  0  0  0
   -2.4493   -0.3921    1.5086 C   0  0  0  0  0  0  0  0  0  0  0  0
   -3.5683   -0.7614    2.4824 C   0  0  0  0  0  0  0  0  0  0  0  0
   -4.9160   -0.2145    2.0149 C   0  0  0  0  0  0  0  0  0  0  0  0
   -5.2096   -0.6413    0.5773 C   0  0  0  0  0  0  0  0  0  0  0  0
   -4.0592   -0.2625   -0.3556 C   0  0  0  0  0  0  0  0  0  0  0  0
   -0.9721   -1.9738   -1.0172 C   0  0  0  0  0  0  0  0  0  0  0  0
   -1.3313   -3.2297   -0.3960 N   0  0  0  0  0  4  0  0  0  0  0  0
   -0.8522   -3.4569    0.7244 O   0  0  0  0  0  0  0  0  0  0  0  0
   -2.0174   -4.0136   -1.0654 O   0  0  0  0  0  1  0  0  0  0  0  0
    0.1252   -1.9808   -1.8866 C   0  0  0  0  0  0  0  0  0  0  0  0
    3.2061    1.5279   -1.6551 C   0  0  0  0  0  0  0  0  0  0  0  0
    3.3359    2.4033   -0.5675 C   0  0  0  0  0  0  0  0  0  0  0  0
    3.1783    3.8562   -0.8165 C   0  0  0  0  0  0  0  0  0  0  0  0
    2.8523    4.3662   -1.8713 O   0  0  0  0  0  0  0  0  0  0  0  0
    3.4361    4.6000    0.2722 O   0  0  0  0  0  0  0  0  0  0  0  0
    3.6016    1.8983    0.7107 C   0  0  0  0  0  0  0  0  0  0  0  0
    4.2771    0.3238    4.0115 H   0  0  0  0  0  0  0  0  0  0  0  0
    3.7214   -1.4222   -0.0381 H   0  0  0  0  0  0  0  0  0  0  0  0
    3.5960   -1.7116   -2.4269 H   0  0  0  0  0  0  0  0  0  0  0  0
    0.0540    1.3310   -2.7185 H   0  0  0  0  0  0  0  0  0  0  0  0
   -1.8536    1.3003   -1.1824 H   0  0  0  0  0  0  0  0  0  0  0  0
   -2.2907    0.6942    1.5133 H   0  0  0  0  0  0  0  0  0  0  0  0
   -1.5198   -0.8653    1.8483 H   0  0  0  0  0  0  0  0  0  0  0  0
   -3.6329   -1.8536    2.5658 H   0  0  0  0  0  0  0  0  0  0  0  0
   -3.3361   -0.3739    3.4805 H   0  0  0  0  0  0  0  0  0  0  0  0
   -4.9076    0.8806    2.0770 H   0  0  0  0  0  0  0  0  0  0  0  0
   -5.7124   -0.5690    2.6787 H   0  0  0  0  0  0  0  0  0  0  0  0
   -5.3635   -1.7275    0.5475 H   0  0  0  0  0  0  0  0  0  0  0  0
   -6.1379   -0.1727    0.2325 H   0  0  0  0  0  0  0  0  0  0  0  0
   -4.2791   -0.6448   -1.3602 H   0  0  0  0  0  0  0  0  0  0  0  0
   -3.9832    0.8304   -0.4164 H   0  0  0  0  0  0  0  0  0  0  0  0
    0.6666   -2.9017   -2.0906 H   0  0  0  0  0  0  0  0  0  0  0  0
    3.0303    1.9383   -2.6480 H   0  0  0  0  0  0  0  0  0  0  0  0
    3.3106    5.5234   -0.0344 H   0  0  0  0  0  0  0  0  0  0  0  0
    3.7037    2.5757    1.5558 H   0  0  0  0  0  0  0  0  0  0  0  0
  1  2  2  0
  2  3  1  0
  2  4  1  0
  4  5  2  0
  5  6  1  0
  6  7  1  0
  7  8  1  0
  8  9  2  0
  8 10  2  0
  8 11  1  0
 11 12  2  0
 12 13  1  0
 13 14  2  0
 14 15  1  0
 15 16  1  0
 16 17  1  0
 17 18  1  0
 18 19  1  0
 19 20  1  0
 14 21  1  0
 21 22  1  0
 22 23  2  0
 22 24  1  0
 21 25  2  0
  6 26  2  0
 26 27  1  0
 27 28  1  0
 28 29  2  0
 28 30  1  0
 27 31  2  0
 31  4  1  0
 25 11  1  0
 20 15  1  0
  3 32  1  0
  5 33  1  0
  7 34  1  0
 12 35  1  0
 13 36  1  0
 16 37  1  0
 16 38  1  0
 17 39  1  0
 17 40  1  0
 18 41  1  0
 18 42  1  0
 19 43  1  0
 19 44  1  0
 20 45  1  0
 20 46  1  0
 25 47  1  0
 26 48  1  0
 30 49  1  0
 31 50  1  0
M  CHG  2  22   1  24  -1
M  END
$$$$
