
     RDKit          3D

 30 31  0  0  0  0  0  0  0  0999 V2000
    1.6096   -1.4700    0.2350 O   0  0  0  0  0  0  0  0  0  0  0  0
    1.6136   -0.3830   -0.3431 C   0  0  0  0  0  0  0  0  0  0  0  0
    2.9125    0.3248   -0.7179 C   0  0  0  0  0  0  0  0  0  0  0  0
    3.9078    0.2379    0.3971 C   0  0  0  0  0  0  0  0  0  0  0  0
    4.4267    1.2658    1.0854 C   0  0  0  0  0  0  0  0  0  0  0  0
    5.3018    0.6425    2.0986 C   0  0  0  0  0  0  0  0  0  0  0  0
    6.0580    1.2467    2.8356 O   0  0  0  0  0  0  0  0  0  0  0  0
    5.1073   -0.7248    2.0083 N   0  0  0  0  0  0  0  0  0  0  0  0
    4.3745   -0.9934    0.8486 N   0  0  0  0  0  0  0  0  0  0  0  0
    0.4812    0.3113   -0.7522 N   0  0  0  0  0  0  0  0  0  0  0  0
   -0.7539   -0.1842   -0.4600 N   0  0  0  0  0  0  0  0  0  0  0  0
   -1.7575    0.5030   -0.8965 C   0  0  0  0  0  0  0  0  0  0  0  0
   -3.1596    0.0909   -0.6772 C   0  0  0  0  0  0  0  0  0  0  0  0
   -4.0383    0.3699   -1.7374 C   0  0  0  0  0  0  0  0  0  0  0  0
   -5.3797    0.0039   -1.6546 C   0  0  0  0  0  0  0  0  0  0  0  0
   -5.8504   -0.6352   -0.5109 C   0  0  0  0  0  0  0  0  0  0  0  0
   -4.9853   -0.9001    0.5581 C   0  0  0  0  0  0  0  0  0  0  0  0
   -5.6766   -1.6733    1.9453 Cl  0  0  0  0  0  0  0  0  0  0  0  0
   -3.6298   -0.5344    0.4901 C   0  0  0  0  0  0  0  0  0  0  0  0
   -2.6034   -0.7801    1.8659 Cl  0  0  0  0  0  0  0  0  0  0  0  0
    2.7140    1.3738   -0.9659 H   0  0  0  0  0  0  0  0  0  0  0  0
    3.3099   -0.1551   -1.6193 H   0  0  0  0  0  0  0  0  0  0  0  0
    4.2786    2.3234    0.9841 H   0  0  0  0  0  0  0  0  0  0  0  0
    5.8349   -1.3608    2.3133 H   0  0  0  0  0  0  0  0  0  0  0  0
    3.5914   -1.6555    0.9805 H   0  0  0  0  0  0  0  0  0  0  0  0
    0.5584    1.2046   -1.2236 H   0  0  0  0  0  0  0  0  0  0  0  0
   -1.6096    1.4109   -1.5098 H   0  0  0  0  0  0  0  0  0  0  0  0
   -3.6806    0.8535   -2.6445 H   0  0  0  0  0  0  0  0  0  0  0  0
   -6.0566    0.2090   -2.4814 H   0  0  0  0  0  0  0  0  0  0  0  0
   -6.8986   -0.9221   -0.4515 H   0  0  0  0  0  0  0  0  0  0  0  0
  1  2  2  0
  2  3  1  0
  3  4  1  0
  4  5  2  0
  5  6  1  0
  6  7  2  0
  6  8  1  0
  8  9  1  0
  2 10  1  0
 10 11  1  0
 11 12  2  3
 12 13  1  0
 13 14  2  0
 14 15  1  0
 15 16  2  0
 16 17  1  0
 17 18  1  0
 17 19  2  0
 19 20  1  0
  9  4  1  0
 19 13  1  0
  3 21  1  0
  3 22  1  0
  5 23  1  0
  8 24  1  0
  9 25  1  0
 10 26  1  0
 12 27  1  0
 14 28  1  0
 15 29  1  0
 16 30  1  0
M  END
$$$$
