
     RDKit          3D

 59 62  0  0  0  0  0  0  0  0999 V2000
   10.5214    3.4313    0.5978 C   0  0  0  0  0  0  0  0  0  0  0  0
    9.1654    3.0996   -0.0023 C   0  0  0  0  0  0  0  0  0  0  0  0
    8.3304    2.5991    1.0444 O   0  0  0  0  0  0  0  0  0  0  0  0
    7.1054    2.1105    0.6790 C   0  0  0  0  0  0  0  0  0  0  0  0
    6.3712    1.5444    1.7242 C   0  0  0  0  0  0  0  0  0  0  0  0
    5.1110    0.9912    1.4905 C   0  0  0  0  0  0  0  0  0  0  0  0
    4.5653    0.9961    0.2007 C   0  0  0  0  0  0  0  0  0  0  0  0
    3.2325    0.3413   -0.0627 C   0  0  0  0  0  0  0  0  0  0  0  0
    3.4023   -1.1426   -0.4010 C   0  0  0  0  0  0  0  0  0  0  0  0
    2.1363   -1.7883   -0.6963 N   0  0  0  0  0  0  0  0  0  0  0  0
    1.2849   -2.2036    0.3110 C   0  0  0  0  0  0  0  0  0  0  0  0
    1.5480   -2.0860    1.5072 O   0  0  0  0  0  0  0  0  0  0  0  0
   -0.0175   -2.8116   -0.1816 C   0  0  0  0  0  0  0  0  0  0  0  0
   -1.2024   -1.9084    0.0669 C   0  0  0  0  0  0  0  0  0  0  0  0
   -1.7991   -1.8617    1.3344 C   0  0  0  0  0  0  0  0  0  0  0  0
   -2.8798   -1.0105    1.5805 C   0  0  0  0  0  0  0  0  0  0  0  0
   -3.3865   -0.1990    0.5654 C   0  0  0  0  0  0  0  0  0  0  0  0
   -4.4818    0.6424    0.8002 N   0  0  0  0  0  0  0  0  0  0  0  0
   -5.6617    0.1466    0.6726 C   0  0  0  0  0  0  0  0  0  0  0  0
   -6.0759   -1.1103    0.3194 N   0  0  0  0  0  0  0  0  0  0  0  0
   -7.4498   -1.2098   -0.1408 C   0  0  0  0  0  0  0  0  0  0  0  0
   -7.5654   -0.8538   -1.6117 C   0  0  0  0  0  0  0  0  0  0  0  0
   -9.2286   -0.2668   -1.7861 S   0  0  0  0  0  6  0  0  0  0  0  0
  -10.0660   -1.4109   -2.0890 O   0  0  0  0  0  0  0  0  0  0  0  0
   -9.2245    0.9200   -2.6117 O   0  0  0  0  0  0  0  0  0  0  0  0
   -9.5045    0.1972   -0.0898 C   0  0  0  0  0  0  0  0  0  0  0  0
   -8.2432   -0.1732    0.6659 C   0  0  0  0  0  0  0  0  0  0  0  0
   -7.0585    1.2001    0.9148 S   0  0  0  0  0  0  0  0  0  0  0  0
   -2.7769   -0.2239   -0.6916 C   0  0  0  0  0  0  0  0  0  0  0  0
   -1.6949   -1.0739   -0.9438 C   0  0  0  0  0  0  0  0  0  0  0  0
    5.2986    1.5719   -0.8454 C   0  0  0  0  0  0  0  0  0  0  0  0
    6.5590    2.1314   -0.6065 C   0  0  0  0  0  0  0  0  0  0  0  0
   10.4137    4.1350    1.4339 H   0  0  0  0  0  0  0  0  0  0  0  0
   11.1876    3.8679   -0.1581 H   0  0  0  0  0  0  0  0  0  0  0  0
   10.9915    2.5235    1.0010 H   0  0  0  0  0  0  0  0  0  0  0  0
    8.7279    4.0119   -0.4289 H   0  0  0  0  0  0  0  0  0  0  0  0
    9.3083    2.3409   -0.7824 H   0  0  0  0  0  0  0  0  0  0  0  0
    6.7893    1.5223    2.7296 H   0  0  0  0  0  0  0  0  0  0  0  0
    4.5635    0.5490    2.3202 H   0  0  0  0  0  0  0  0  0  0  0  0
    2.5779    0.4685    0.8063 H   0  0  0  0  0  0  0  0  0  0  0  0
    2.7308    0.8534   -0.8883 H   0  0  0  0  0  0  0  0  0  0  0  0
    3.8808   -1.6782    0.4354 H   0  0  0  0  0  0  0  0  0  0  0  0
    4.0417   -1.2709   -1.2878 H   0  0  0  0  0  0  0  0  0  0  0  0
    1.8351   -1.8318   -1.6687 H   0  0  0  0  0  0  0  0  0  0  0  0
    0.0528   -3.0535   -1.2520 H   0  0  0  0  0  0  0  0  0  0  0  0
   -0.1590   -3.7726    0.3319 H   0  0  0  0  0  0  0  0  0  0  0  0
   -1.4114   -2.4779    2.1454 H   0  0  0  0  0  0  0  0  0  0  0  0
   -3.3275   -0.9769    2.5712 H   0  0  0  0  0  0  0  0  0  0  0  0
   -5.3716   -1.7282   -0.0794 H   0  0  0  0  0  0  0  0  0  0  0  0
   -7.8465   -2.2127    0.0418 H   0  0  0  0  0  0  0  0  0  0  0  0
   -7.4097   -1.7155   -2.2568 H   0  0  0  0  0  0  0  0  0  0  0  0
   -6.8868   -0.0550   -1.9158 H   0  0  0  0  0  0  0  0  0  0  0  0
  -10.3537   -0.3987    0.2622 H   0  0  0  0  0  0  0  0  0  0  0  0
   -9.7635    1.2556   -0.0307 H   0  0  0  0  0  0  0  0  0  0  0  0
   -8.4881   -0.5495    1.6630 H   0  0  0  0  0  0  0  0  0  0  0  0
   -3.1444    0.4327   -1.4768 H   0  0  0  0  0  0  0  0  0  0  0  0
   -1.2392   -1.0717   -1.9306 H   0  0  0  0  0  0  0  0  0  0  0  0
    4.8960    1.5860   -1.8559 H   0  0  0  0  0  0  0  0  0  0  0  0
    7.0899    2.5680   -1.4440 H   0  0  0  0  0  0  0  0  0  0  0  0
  1  2  1  0
  2  3  1  0
  3  4  1  0
  4  5  2  0
  5  6  1  0
  6  7  2  0
  7  8  1  0
  8  9  1  0
  9 10  1  0
 10 11  1  0
 11 12  2  0
 11 13  1  0
 13 14  1  0
 14 15  2  0
 15 16  1  0
 16 17  2  0
 17 18  1  0
 18 19  2  3
 19 20  1  0
 20 21  1  0
 21 22  1  0
 22 23  1  0
 23 24  2  0
 23 25  2  0
 23 26  1  0
 26 27  1  0
 27 28  1  0
 17 29  1  0
 29 30  2  0
  7 31  1  0
 31 32  2  0
 32  4  1  0
 30 14  1  0
 28 19  1  0
 27 21  1  0
  1 33  1  0
  1 34  1  0
  1 35  1  0
  2 36  1  0
  2 37  1  0
  5 38  1  0
  6 39  1  0
  8 40  1  0
  8 41  1  0
  9 42  1  0
  9 43  1  0
 10 44  1  0
 13 45  1  0
 13 46  1  0
 15 47  1  0
 16 48  1  0
 20 49  1  0
 21 50  1  0
 22 51  1  0
 22 52  1  0
 26 53  1  0
 26 54  1  0
 27 55  1  0
 29 56  1  0
 30 57  1  0
 31 58  1  0
 32 59  1  0
M  END
$$$$
