
     RDKit          3D

 43 44  0  0  0  0  0  0  0  0999 V2000
    5.8776   -2.9493   -4.2338 C   0  0  0  0  0  0  0  0  0  0  0  0
    4.8649   -2.9663   -3.2355 O   0  0  0  0  0  0  0  0  0  0  0  0
    4.6612   -1.8046   -2.5392 C   0  0  0  0  0  0  0  0  0  0  0  0
    5.3408   -0.6041   -2.7323 C   0  0  0  0  0  0  0  0  0  0  0  0
    5.0366    0.5027   -1.9363 C   0  0  0  0  0  0  0  0  0  0  0  0
    4.0524    0.4169   -0.9481 C   0  0  0  0  0  0  0  0  0  0  0  0
    3.3604   -0.7758   -0.7463 C   0  0  0  0  0  0  0  0  0  0  0  0
    2.3642   -0.9575    0.2377 N   0  0  0  0  0  0  0  0  0  0  0  0
    1.8864   -0.0208    1.1385 C   0  0  0  0  0  0  0  0  0  0  0  0
    2.2232    1.1596    1.2142 O   0  0  0  0  0  0  0  0  0  0  0  0
    0.8715   -0.5874    2.1068 C   0  0  0  0  0  0  0  0  0  0  0  0
   -0.4156    0.2054    2.1085 C   0  0  0  0  0  0  0  0  0  0  0  0
   -0.4195    1.5536    2.7920 C   0  0  0  0  0  0  0  0  0  0  0  0
   -1.4349   -0.3276    1.5008 N   0  0  0  0  0  0  0  0  0  0  0  0
   -2.6016    0.3724    1.4299 N   0  0  0  0  0  0  0  0  0  0  0  0
   -3.7191   -0.2163    0.8581 C   0  0  0  0  0  0  0  0  0  0  0  0
   -3.7608   -1.3736    0.4422 O   0  0  0  0  0  0  0  0  0  0  0  0
   -4.9297    0.6452    0.7052 C   0  0  0  0  0  0  0  0  0  0  0  0
   -5.7565    0.3508   -0.3965 C   0  0  0  0  0  0  0  0  0  0  0  0
   -6.9101    1.0955   -0.6520 C   0  0  0  0  0  0  0  0  0  0  0  0
   -7.2582    2.1433    0.1942 C   0  0  0  0  0  0  0  0  0  0  0  0
   -6.4574    2.4392    1.2983 C   0  0  0  0  0  0  0  0  0  0  0  0
   -5.2976    1.6944    1.5617 C   0  0  0  0  0  0  0  0  0  0  0  0
   -4.4166    2.1297    2.9881 Cl  0  0  0  0  0  0  0  0  0  0  0  0
    3.6729   -1.8811   -1.5509 C   0  0  0  0  0  0  0  0  0  0  0  0
    5.6297   -2.2431   -5.0330 H   0  0  0  0  0  0  0  0  0  0  0  0
    5.9278   -3.9504   -4.6772 H   0  0  0  0  0  0  0  0  0  0  0  0
    6.8595   -2.7309   -3.7990 H   0  0  0  0  0  0  0  0  0  0  0  0
    6.1128   -0.4944   -3.4863 H   0  0  0  0  0  0  0  0  0  0  0  0
    5.5711    1.4387   -2.0796 H   0  0  0  0  0  0  0  0  0  0  0  0
    3.8494    1.3030   -0.3565 H   0  0  0  0  0  0  0  0  0  0  0  0
    1.9475   -1.8824    0.2703 H   0  0  0  0  0  0  0  0  0  0  0  0
    1.3106   -0.5665    3.1119 H   0  0  0  0  0  0  0  0  0  0  0  0
    0.6466   -1.6358    1.8768 H   0  0  0  0  0  0  0  0  0  0  0  0
    0.5139    1.7087    3.3420 H   0  0  0  0  0  0  0  0  0  0  0  0
   -0.5270    2.3426    2.0415 H   0  0  0  0  0  0  0  0  0  0  0  0
   -1.2455    1.6079    3.5067 H   0  0  0  0  0  0  0  0  0  0  0  0
   -2.6462    1.3225    1.7852 H   0  0  0  0  0  0  0  0  0  0  0  0
   -5.4975   -0.4687   -1.0682 H   0  0  0  0  0  0  0  0  0  0  0  0
   -7.5337    0.8538   -1.5101 H   0  0  0  0  0  0  0  0  0  0  0  0
   -8.1572    2.7248   -0.0006 H   0  0  0  0  0  0  0  0  0  0  0  0
   -6.7491    3.2537    1.9592 H   0  0  0  0  0  0  0  0  0  0  0  0
    3.1531   -2.8277   -1.4185 H   0  0  0  0  0  0  0  0  0  0  0  0
  1  2  1  0
  2  3  1  0
  3  4  2  0
  4  5  1  0
  5  6  2  0
  6  7  1  0
  7  8  1  0
  8  9  1  0
  9 10  2  0
  9 11  1  0
 11 12  1  0
 12 13  1  0
 12 14  2  3
 14 15  1  0
 15 16  1  0
 16 17  2  0
 16 18  1  0
 18 19  2  0
 19 20  1  0
 20 21  2  0
 21 22  1  0
 22 23  2  0
 23 24  1  0
  7 25  2  0
 25  3  1  0
 23 18  1  0
  1 26  1  0
  1 27  1  0
  1 28  1  0
  4 29  1  0
  5 30  1  0
  6 31  1  0
  8 32  1  0
 11 33  1  0
 11 34  1  0
 13 35  1  0
 13 36  1  0
 13 37  1  0
 15 38  1  0
 19 39  1  0
 20 40  1  0
 21 41  1  0
 22 42  1  0
 25 43  1  0
M  END
$$$$
