
     RDKit          3D

 57 60  0  0  0  0  0  0  0  0999 V2000
   -3.2551   -1.4652    2.6532 O   0  0  0  0  0  0  0  0  0  0  0  0
   -3.1761   -0.2457    2.7574 C   0  0  0  0  0  0  0  0  0  0  0  0
   -1.8641    0.4797    2.9880 C   0  0  0  0  0  0  0  0  0  0  0  0
   -0.7130   -0.2319    2.2781 C   0  0  0  0  0  0  0  0  0  0  0  0
    0.5794    0.5797    2.3664 C   0  0  0  0  0  0  0  0  0  0  0  0
    1.7625   -0.0812    1.6544 C   0  0  0  0  0  0  0  0  0  0  0  0
    1.5717   -0.1816    0.1368 C   0  0  0  0  0  0  0  0  0  0  0  0
    2.8014   -0.5948   -0.5327 N   0  0  0  0  0  0  0  0  0  0  0  0
    3.0481   -1.9526   -0.6588 C   0  0  0  0  0  0  0  0  0  0  0  0
    2.2909   -2.8358   -0.2595 O   0  0  0  0  0  0  0  0  0  0  0  0
    4.2161   -2.3114   -1.2695 N   0  0  0  0  0  0  0  0  0  0  0  0
    5.1566   -1.4026   -1.7434 C   0  0  0  0  0  0  0  0  0  0  0  0
    6.3226   -1.8602   -2.3574 C   0  0  0  0  0  0  0  0  0  0  0  0
    7.2627   -0.9397   -2.8266 C   0  0  0  0  0  0  0  0  0  0  0  0
    7.0378    0.4306   -2.6813 C   0  0  0  0  0  0  0  0  0  0  0  0
    5.8707    0.8845   -2.0655 C   0  0  0  0  0  0  0  0  0  0  0  0
    4.9304   -0.0393   -1.5976 C   0  0  0  0  0  0  0  0  0  0  0  0
    3.6863    0.4034   -0.9393 C   0  0  0  0  0  0  0  0  0  0  0  0
    3.4906    1.6063   -0.7793 O   0  0  0  0  0  0  0  0  0  0  0  0
   -4.2678    0.6010    2.7182 N   0  0  0  0  0  0  0  0  0  0  0  0
   -5.5453    0.1437    2.1961 C   0  0  0  0  0  0  0  0  0  0  0  0
   -5.7645    0.5512    0.7305 C   0  0  0  0  0  0  0  0  0  0  0  0
   -4.7133    0.0329   -0.2029 C   0  0  0  0  0  0  0  0  0  0  0  0
   -4.6339   -1.2496   -0.7096 C   0  0  0  0  0  0  0  0  0  0  0  0
   -3.4965   -1.3457   -1.4641 N   0  0  0  0  0  0  0  0  0  0  0  0
   -2.8370   -0.1394   -1.4885 C   0  0  0  0  0  0  0  0  0  0  0  0
   -1.6438    0.2220   -2.1256 C   0  0  0  0  0  0  0  0  0  0  0  0
   -1.1948    1.5355   -1.9641 C   0  0  0  0  0  0  0  0  0  0  0  0
   -1.9115    2.4481   -1.1951 C   0  0  0  0  0  0  0  0  0  0  0  0
   -3.1031    2.0697   -0.5656 C   0  0  0  0  0  0  0  0  0  0  0  0
   -3.5799    0.7498   -0.7116 C   0  0  0  0  0  0  0  0  0  0  0  0
   -1.6845    0.5229    4.0678 H   0  0  0  0  0  0  0  0  0  0  0  0
   -1.9427    1.5081    2.6168 H   0  0  0  0  0  0  0  0  0  0  0  0
   -0.5584   -1.2244    2.7187 H   0  0  0  0  0  0  0  0  0  0  0  0
   -0.9882   -0.3920    1.2298 H   0  0  0  0  0  0  0  0  0  0  0  0
    0.4189    1.5807    1.9473 H   0  0  0  0  0  0  0  0  0  0  0  0
    0.8425    0.7185    3.4223 H   0  0  0  0  0  0  0  0  0  0  0  0
    1.9427   -1.0780    2.0747 H   0  0  0  0  0  0  0  0  0  0  0  0
    2.6619    0.5098    1.8690 H   0  0  0  0  0  0  0  0  0  0  0  0
    0.7806   -0.9012   -0.0998 H   0  0  0  0  0  0  0  0  0  0  0  0
    1.2572    0.7893   -0.2612 H   0  0  0  0  0  0  0  0  0  0  0  0
    4.3708   -3.3076   -1.3536 H   0  0  0  0  0  0  0  0  0  0  0  0
    6.5127   -2.9233   -2.4767 H   0  0  0  0  0  0  0  0  0  0  0  0
    8.1738   -1.2905   -3.3063 H   0  0  0  0  0  0  0  0  0  0  0  0
    7.7719    1.1453   -3.0467 H   0  0  0  0  0  0  0  0  0  0  0  0
    5.6967    1.9523   -1.9511 H   0  0  0  0  0  0  0  0  0  0  0  0
   -4.0977    1.5969    2.7242 H   0  0  0  0  0  0  0  0  0  0  0  0
   -6.3218    0.6011    2.8184 H   0  0  0  0  0  0  0  0  0  0  0  0
   -5.6246   -0.9436    2.3055 H   0  0  0  0  0  0  0  0  0  0  0  0
   -5.8029    1.6455    0.6634 H   0  0  0  0  0  0  0  0  0  0  0  0
   -6.7469    0.1880    0.4041 H   0  0  0  0  0  0  0  0  0  0  0  0
   -5.2700   -2.1126   -0.5647 H   0  0  0  0  0  0  0  0  0  0  0  0
   -3.1725   -2.1857   -1.9226 H   0  0  0  0  0  0  0  0  0  0  0  0
   -1.0812   -0.4896   -2.7208 H   0  0  0  0  0  0  0  0  0  0  0  0
   -0.2698    1.8476   -2.4442 H   0  0  0  0  0  0  0  0  0  0  0  0
   -1.5434    3.4651   -1.0836 H   0  0  0  0  0  0  0  0  0  0  0  0
   -3.6533    2.7922    0.0281 H   0  0  0  0  0  0  0  0  0  0  0  0
  1  2  2  0
  2  3  1  0
  3  4  1  0
  4  5  1  0
  5  6  1  0
  6  7  1  0
  7  8  1  0
  8  9  1  0
  9 10  2  0
  9 11  1  0
 11 12  1  0
 12 13  2  0
 13 14  1  0
 14 15  2  0
 15 16  1  0
 16 17  2  0
 17 18  1  0
 18 19  2  0
  2 20  1  0
 20 21  1  0
 21 22  1  0
 22 23  1  0
 23 24  2  0
 24 25  1  0
 25 26  1  0
 26 27  2  0
 27 28  1  0
 28 29  2  0
 29 30  1  0
 30 31  2  0
 18  8  1  0
 31 23  1  0
 17 12  1  0
 31 26  1  0
  3 32  1  0
  3 33  1  0
  4 34  1  0
  4 35  1  0
  5 36  1  0
  5 37  1  0
  6 38  1  0
  6 39  1  0
  7 40  1  0
  7 41  1  0
 11 42  1  0
 13 43  1  0
 14 44  1  0
 15 45  1  0
 16 46  1  0
 20 47  1  0
 21 48  1  0
 21 49  1  0
 22 50  1  0
 22 51  1  0
 24 52  1  0
 25 53  1  0
 27 54  1  0
 28 55  1  0
 29 56  1  0
 30 57  1  0
M  END
$$$$
