
     RDKit          3D

 40 43  0  0  0  0  0  0  0  0999 V2000
   -1.8903    4.7081   -0.6617 C   0  0  0  0  0  0  0  0  0  0  0  0
   -1.0990    3.6370   -0.5122 C   0  0  0  0  0  0  0  0  0  0  0  0
   -1.0980    2.4487   -1.4362 C   0  0  0  0  0  0  0  0  0  0  0  0
   -1.7505    1.3204   -0.7723 N   0  0  0  0  0  0  0  0  0  0  0  0
   -1.0919    0.4171    0.0482 C   0  0  0  0  0  0  0  0  0  0  0  0
    0.6281    0.6301    0.3216 S   0  0  0  0  0  0  0  0  0  0  0  0
    1.1164   -1.1015    0.5791 C   0  0  0  0  0  0  0  0  0  0  0  0
    2.6264   -1.2041    0.6095 C   0  0  0  0  0  0  0  0  0  0  0  0
    3.2819   -1.3136    1.7778 C   0  0  0  0  0  0  0  0  0  0  0  0
    4.7564   -1.4170    1.7807 C   0  0  0  0  0  0  0  0  0  0  0  0
    5.3616   -1.5164    2.8441 O   0  0  0  0  0  0  0  0  0  0  0  0
    5.3271   -1.3953    0.5337 N   0  0  0  0  0  0  0  0  0  0  0  0
    6.6798   -1.4772    0.2836 C   0  0  0  0  0  0  0  0  0  0  0  0
    6.9930   -1.4461   -1.0169 C   0  0  0  0  0  0  0  0  0  0  0  0
    5.5698   -1.3113   -2.0146 S   0  0  0  0  0  0  0  0  0  0  0  0
    4.5411   -1.2967   -0.5908 C   0  0  0  0  0  0  0  0  0  0  0  0
    3.2556   -1.2109   -0.6201 N   0  0  0  0  0  0  0  0  0  0  0  0
   -1.6637   -0.5763    0.6472 N   0  0  0  0  0  0  0  0  0  0  0  0
   -3.0350   -0.7683    0.4665 C   0  0  0  0  0  0  0  0  0  0  0  0
   -3.6593   -1.8352    1.1177 C   0  0  0  0  0  0  0  0  0  0  0  0
   -5.0296   -2.0615    0.9614 C   0  0  0  0  0  0  0  0  0  0  0  0
   -5.7880   -1.2192    0.1495 C   0  0  0  0  0  0  0  0  0  0  0  0
   -5.1748   -0.1515   -0.5048 C   0  0  0  0  0  0  0  0  0  0  0  0
   -3.8011    0.0654   -0.3400 C   0  0  0  0  0  0  0  0  0  0  0  0
   -3.1175    1.1807   -1.0154 C   0  0  0  0  0  0  0  0  0  0  0  0
   -3.7735    1.9121   -1.7549 O   0  0  0  0  0  0  0  0  0  0  0  0
   -2.6158    4.7697   -1.4687 H   0  0  0  0  0  0  0  0  0  0  0  0
   -1.8406    5.5406    0.0331 H   0  0  0  0  0  0  0  0  0  0  0  0
   -0.3917    3.6209    0.3136 H   0  0  0  0  0  0  0  0  0  0  0  0
   -1.6202    2.6879   -2.3704 H   0  0  0  0  0  0  0  0  0  0  0  0
   -0.0724    2.2026   -1.7257 H   0  0  0  0  0  0  0  0  0  0  0  0
    0.6862   -1.4626    1.5200 H   0  0  0  0  0  0  0  0  0  0  0  0
    0.7240   -1.7291   -0.2293 H   0  0  0  0  0  0  0  0  0  0  0  0
    2.7902   -1.3170    2.7420 H   0  0  0  0  0  0  0  0  0  0  0  0
    7.3755   -1.5583    1.1095 H   0  0  0  0  0  0  0  0  0  0  0  0
    7.9928   -1.4975   -1.4259 H   0  0  0  0  0  0  0  0  0  0  0  0
   -3.0720   -2.4939    1.7525 H   0  0  0  0  0  0  0  0  0  0  0  0
   -5.5033   -2.8952    1.4743 H   0  0  0  0  0  0  0  0  0  0  0  0
   -6.8543   -1.3932    0.0266 H   0  0  0  0  0  0  0  0  0  0  0  0
   -5.7635    0.5079   -1.1387 H   0  0  0  0  0  0  0  0  0  0  0  0
  1  2  2  0
  2  3  1  0
  3  4  1  0
  4  5  1  0
  5  6  1  0
  6  7  1  0
  7  8  1  0
  8  9  2  0
  9 10  1  0
 10 11  2  0
 10 12  1  0
 12 13  1  0
 13 14  2  0
 14 15  1  0
 15 16  1  0
 16 17  2  0
  5 18  2  0
 18 19  1  0
 19 20  2  0
 20 21  1  0
 21 22  2  0
 22 23  1  0
 23 24  2  0
 24 25  1  0
 25 26  2  0
 25  4  1  0
 17  8  1  0
 24 19  1  0
 16 12  1  0
  1 27  1  0
  1 28  1  0
  2 29  1  0
  3 30  1  0
  3 31  1  0
  7 32  1  0
  7 33  1  0
  9 34  1  0
 13 35  1  0
 14 36  1  0
 20 37  1  0
 21 38  1  0
 22 39  1  0
 23 40  1  0
M  END
$$$$
