
     RDKit          3D

 30 33  0  0  0  0  0  0  0  0999 V2000
    0.9569   -1.0749    2.8727 O   0  0  0  0  0  0  0  0  0  0  0  0
    0.9843   -0.6219    1.7431 C   0  0  0  0  0  0  0  0  0  0  0  0
    2.1591   -0.2589    0.8863 C   0  0  0  0  0  0  0  0  0  0  0  0
    3.3911   -0.4102    1.3903 C   0  0  0  0  0  0  0  0  0  0  0  0
    4.6201   -0.1058    0.7420 C   0  0  0  0  0  0  0  0  0  0  0  0
    5.0141   -0.1331   -0.5925 C   0  0  0  0  0  0  0  0  0  0  0  0
    6.3757    0.2508   -0.6605 C   0  0  0  0  0  0  0  0  0  0  0  0
    6.7628    0.4793    0.6328 C   0  0  0  0  0  0  0  0  0  0  0  0
    5.7294    0.2587    1.4781 O   0  0  0  0  0  0  0  0  0  0  0  0
    1.6714    0.3725   -0.6743 S   0  0  0  0  0  0  0  0  0  0  0  0
    0.0265    0.1638   -0.2445 C   0  0  0  0  0  0  0  0  0  0  0  0
   -1.1188    0.3809   -0.8221 N   0  0  0  0  0  0  0  0  0  0  0  0
   -2.0150   -0.0578    0.1500 C   0  0  0  0  0  0  0  0  0  0  0  0
   -3.4547    0.0277   -0.0581 C   0  0  0  0  0  0  0  0  0  0  0  0
   -3.9635    1.2124   -0.6230 C   0  0  0  0  0  0  0  0  0  0  0  0
   -5.3334    1.3780   -0.8377 C   0  0  0  0  0  0  0  0  0  0  0  0
   -6.2161    0.3585   -0.4968 C   0  0  0  0  0  0  0  0  0  0  0  0
   -5.7284   -0.8290    0.0489 C   0  0  0  0  0  0  0  0  0  0  0  0
   -4.3535   -1.0011    0.2652 C   0  0  0  0  0  0  0  0  0  0  0  0
   -3.8103   -2.6977    0.9351 Br  0  0  0  0  0  0  0  0  0  0  0  0
   -1.4364   -0.4774    1.2959 N   0  0  0  0  0  0  0  0  0  0  0  0
   -0.1362   -0.3404    0.9925 N   0  0  0  0  0  0  0  0  0  0  0  0
    3.4963   -0.7636    2.4160 H   0  0  0  0  0  0  0  0  0  0  0  0
    4.3983   -0.4137   -1.4353 H   0  0  0  0  0  0  0  0  0  0  0  0
    6.9959    0.3377   -1.5414 H   0  0  0  0  0  0  0  0  0  0  0  0
    7.6914    0.7817    1.0967 H   0  0  0  0  0  0  0  0  0  0  0  0
   -3.2861    2.0207   -0.8955 H   0  0  0  0  0  0  0  0  0  0  0  0
   -5.7078    2.3026   -1.2704 H   0  0  0  0  0  0  0  0  0  0  0  0
   -7.2835    0.4830   -0.6623 H   0  0  0  0  0  0  0  0  0  0  0  0
   -6.4296   -1.6230    0.2963 H   0  0  0  0  0  0  0  0  0  0  0  0
  1  2  2  0
  2  3  1  0
  3  4  2  3
  4  5  1  0
  5  6  2  0
  6  7  1  0
  7  8  2  0
  8  9  1  0
  3 10  1  0
 10 11  1  0
 11 12  2  0
 12 13  1  0
 13 14  1  0
 14 15  2  0
 15 16  1  0
 16 17  2  0
 17 18  1  0
 18 19  2  0
 19 20  1  0
 13 21  2  0
 21 22  1  0
 22  2  1  0
  9  5  1  0
 22 11  1  0
 19 14  1  0
  4 23  1  0
  6 24  1  0
  7 25  1  0
  8 26  1  0
 15 27  1  0
 16 28  1  0
 17 29  1  0
 18 30  1  0
M  END
$$$$
