
     RDKit          3D

 43 46  0  0  0  0  0  0  0  0999 V2000
    3.0133   -0.1050    4.4699 C   0  0  0  0  0  0  0  0  0  0  0  0
    3.7602   -0.4999    3.3271 O   0  0  0  0  0  0  0  0  0  0  0  0
    2.9824   -0.6781    2.2016 C   0  0  0  0  0  0  0  0  0  0  0  0
    1.6831   -0.3965    2.2458 N   0  0  0  0  0  0  0  0  0  0  0  0
    1.0222   -0.5995    1.1146 C   0  0  0  0  0  0  0  0  0  0  0  0
   -0.3283   -0.3202    1.1766 N   0  0  0  0  0  0  0  0  0  0  0  0
   -1.1000    0.1159    0.0122 C   0  0  0  0  0  0  0  0  0  0  0  0
   -1.3204   -1.0276   -1.0066 C   0  0  0  0  0  0  0  0  0  0  0  0
   -2.2101   -0.5485   -2.1688 C   0  0  0  0  0  0  0  0  0  0  0  0
   -1.5403    0.6543   -2.8566 C   0  0  0  0  0  0  0  0  0  0  0  0
   -1.3623    1.8090   -1.8552 C   0  0  0  0  0  0  0  0  0  0  0  0
   -2.7375    2.2199   -1.3063 C   0  0  0  0  0  0  0  0  0  0  0  0
   -3.4027    1.0229   -0.6095 C   0  0  0  0  0  0  0  0  0  0  0  0
   -3.5793   -0.1209   -1.6192 C   0  0  0  0  0  0  0  0  0  0  0  0
   -2.5014    0.5446    0.5396 C   0  0  0  0  0  0  0  0  0  0  0  0
   -0.4688    1.3400   -0.6923 C   0  0  0  0  0  0  0  0  0  0  0  0
    1.5849   -1.0390    0.0025 N   0  0  0  0  0  0  0  0  0  0  0  0
    2.8870   -1.2818    0.0761 C   0  0  0  0  0  0  0  0  0  0  0  0
    3.4471   -1.7311   -1.1021 O   0  0  0  0  0  0  0  0  0  0  0  0
    4.8345   -2.0194   -0.9897 C   0  0  0  0  0  0  0  0  0  0  0  0
    3.6483   -1.1182    1.1471 N   0  0  0  0  0  0  0  0  0  0  0  0
    2.5481    0.8758    4.3212 H   0  0  0  0  0  0  0  0  0  0  0  0
    2.2646   -0.8589    4.7375 H   0  0  0  0  0  0  0  0  0  0  0  0
    3.7096   -0.0171    5.3096 H   0  0  0  0  0  0  0  0  0  0  0  0
   -0.4704    0.2269    2.0188 H   0  0  0  0  0  0  0  0  0  0  0  0
   -1.7822   -1.8928   -0.5132 H   0  0  0  0  0  0  0  0  0  0  0  0
   -0.3728   -1.3832   -1.4240 H   0  0  0  0  0  0  0  0  0  0  0  0
   -2.3409   -1.3616   -2.8916 H   0  0  0  0  0  0  0  0  0  0  0  0
   -0.5659    0.3581   -3.2641 H   0  0  0  0  0  0  0  0  0  0  0  0
   -2.1519    0.9869   -3.7044 H   0  0  0  0  0  0  0  0  0  0  0  0
   -0.8950    2.6641   -2.3565 H   0  0  0  0  0  0  0  0  0  0  0  0
   -3.3750    2.5800   -2.1231 H   0  0  0  0  0  0  0  0  0  0  0  0
   -2.6259    3.0511   -0.5993 H   0  0  0  0  0  0  0  0  0  0  0  0
   -4.3801    1.3214   -0.2143 H   0  0  0  0  0  0  0  0  0  0  0  0
   -4.0732   -0.9739   -1.1378 H   0  0  0  0  0  0  0  0  0  0  0  0
   -4.2299    0.2013   -2.4415 H   0  0  0  0  0  0  0  0  0  0  0  0
   -2.3974    1.3477    1.2819 H   0  0  0  0  0  0  0  0  0  0  0  0
   -2.9812   -0.2939    1.0623 H   0  0  0  0  0  0  0  0  0  0  0  0
   -0.3260    2.1599    0.0239 H   0  0  0  0  0  0  0  0  0  0  0  0
    0.5252    1.1004   -1.0877 H   0  0  0  0  0  0  0  0  0  0  0  0
    5.4096   -1.1192   -0.7461 H   0  0  0  0  0  0  0  0  0  0  0  0
    5.0188   -2.8142   -0.2584 H   0  0  0  0  0  0  0  0  0  0  0  0
    5.1802   -2.3793   -1.9637 H   0  0  0  0  0  0  0  0  0  0  0  0
  1  2  1  0
  2  3  1  0
  3  4  2  0
  4  5  1  0
  5  6  1  0
  6  7  1  0
  7  8  1  0
  8  9  1  0
  9 10  1  0
 10 11  1  0
 11 12  1  0
 12 13  1  0
 13 14  1  0
 13 15  1  0
 11 16  1  0
  5 17  2  0
 17 18  1  0
 18 19  1  0
 19 20  1  0
 18 21  2  0
 21  3  1  0
 15  7  1  0
 16  7  1  0
 14  9  1  0
  1 22  1  0
  1 23  1  0
  1 24  1  0
  6 25  1  0
  8 26  1  0
  8 27  1  0
  9 28  1  0
 10 29  1  0
 10 30  1  0
 11 31  1  0
 12 32  1  0
 12 33  1  0
 13 34  1  0
 14 35  1  0
 14 36  1  0
 15 37  1  0
 15 38  1  0
 16 39  1  0
 16 40  1  0
 20 41  1  0
 20 42  1  0
 20 43  1  0
M  END
$$$$
