
     RDKit          3D

 43 45  0  0  0  0  0  0  0  0999 V2000
    3.8244   -0.6760    0.7752 C   0  0  0  0  0  0  0  0  0  0  0  0
    3.6092   -0.1206    2.1801 C   0  0  0  0  0  0  0  0  0  0  0  0
    3.7411    1.3979    2.2268 C   0  0  0  0  0  0  0  0  0  0  0  0
    2.0517   -0.7152    2.9584 S   0  0  0  0  0  0  0  0  0  0  0  0
    0.8336   -0.3963    1.6952 C   0  0  0  0  0  0  0  0  0  0  0  0
   -0.0148   -1.4154    1.3199 C   0  0  0  0  0  0  0  0  0  0  0  0
   -0.9565   -1.1363    0.3512 C   0  0  0  0  0  0  0  0  0  0  0  0
   -1.8550   -2.1062   -0.0785 N   0  0  0  0  0  0  0  0  0  0  0  0
   -2.9129   -1.6607   -1.0010 C   0  0  0  0  0  0  0  0  0  0  0  0
   -3.8605   -2.8345   -1.2928 C   0  0  0  0  0  0  0  0  0  0  0  0
   -3.2178   -3.9656   -1.9030 O   0  0  0  0  0  0  0  0  0  0  0  0
   -1.8058   -4.0165   -1.6595 C   0  0  0  0  0  0  0  0  0  0  0  0
   -1.3968   -3.4936   -0.2714 C   0  0  0  0  0  0  0  0  0  0  0  0
   -1.0509    0.1015   -0.1611 N   0  0  0  0  0  0  0  0  0  0  0  0
   -0.1983    1.0482    0.2753 C   0  0  0  0  0  0  0  0  0  0  0  0
   -0.3241    2.4033   -0.3004 C   0  0  0  0  0  0  0  0  0  0  0  0
    0.4084    3.4926    0.2105 C   0  0  0  0  0  0  0  0  0  0  0  0
    0.2911    4.7755   -0.3348 C   0  0  0  0  0  0  0  0  0  0  0  0
   -0.5656    5.0007   -1.4076 C   0  0  0  0  0  0  0  0  0  0  0  0
   -1.3049    3.9459   -1.9336 C   0  0  0  0  0  0  0  0  0  0  0  0
   -1.1847    2.6647   -1.3850 C   0  0  0  0  0  0  0  0  0  0  0  0
    0.7585    0.8408    1.1917 N   0  0  0  0  0  0  0  0  0  0  0  0
    3.1171   -0.2615    0.0500 H   0  0  0  0  0  0  0  0  0  0  0  0
    3.7387   -1.7679    0.7598 H   0  0  0  0  0  0  0  0  0  0  0  0
    4.8305   -0.4236    0.4212 H   0  0  0  0  0  0  0  0  0  0  0  0
    4.4040   -0.5295    2.8155 H   0  0  0  0  0  0  0  0  0  0  0  0
    3.5714    1.7850    3.2372 H   0  0  0  0  0  0  0  0  0  0  0  0
    4.7541    1.6947    1.9315 H   0  0  0  0  0  0  0  0  0  0  0  0
    3.0531    1.8994    1.5423 H   0  0  0  0  0  0  0  0  0  0  0  0
    0.0468   -2.3888    1.7872 H   0  0  0  0  0  0  0  0  0  0  0  0
   -2.4693   -1.3086   -1.9411 H   0  0  0  0  0  0  0  0  0  0  0  0
   -3.4918   -0.8431   -0.5551 H   0  0  0  0  0  0  0  0  0  0  0  0
   -4.6652   -2.5139   -1.9621 H   0  0  0  0  0  0  0  0  0  0  0  0
   -4.3262   -3.1856   -0.3645 H   0  0  0  0  0  0  0  0  0  0  0  0
   -1.3079   -3.4390   -2.4475 H   0  0  0  0  0  0  0  0  0  0  0  0
   -1.4910   -5.0587   -1.7741 H   0  0  0  0  0  0  0  0  0  0  0  0
   -0.3095   -3.5938   -0.1785 H   0  0  0  0  0  0  0  0  0  0  0  0
   -1.8637   -4.1120    0.5038 H   0  0  0  0  0  0  0  0  0  0  0  0
    1.0811    3.3472    1.0542 H   0  0  0  0  0  0  0  0  0  0  0  0
    0.8689    5.5957    0.0832 H   0  0  0  0  0  0  0  0  0  0  0  0
   -0.6585    5.9969   -1.8317 H   0  0  0  0  0  0  0  0  0  0  0  0
   -1.9772    4.1155   -2.7706 H   0  0  0  0  0  0  0  0  0  0  0  0
   -1.7748    1.8574   -1.8162 H   0  0  0  0  0  0  0  0  0  0  0  0
  1  2  1  0
  2  3  1  0
  2  4  1  0
  4  5  1  0
  5  6  2  0
  6  7  1  0
  7  8  1  0
  8  9  1  0
  9 10  1  0
 10 11  1  0
 11 12  1  0
 12 13  1  0
  7 14  2  0
 14 15  1  0
 15 16  1  0
 16 17  2  0
 17 18  1  0
 18 19  2  0
 19 20  1  0
 20 21  2  0
 15 22  2  0
 22  5  1  0
 13  8  1  0
 21 16  1  0
  1 23  1  0
  1 24  1  0
  1 25  1  0
  2 26  1  0
  3 27  1  0
  3 28  1  0
  3 29  1  0
  6 30  1  0
  9 31  1  0
  9 32  1  0
 10 33  1  0
 10 34  1  0
 12 35  1  0
 12 36  1  0
 13 37  1  0
 13 38  1  0
 17 39  1  0
 18 40  1  0
 19 41  1  0
 20 42  1  0
 21 43  1  0
M  END
$$$$
