
     RDKit          3D

 42 44  0  0  0  0  0  0  0  0999 V2000
   -2.8054   -1.7224   -1.4979 C   0  0  0  0  0  0  0  0  0  0  0  0
   -3.1697   -1.6517   -0.0237 C   0  0  0  0  0  0  0  0  0  0  0  0
   -2.2017   -0.9292    0.7747 N   0  0  0  0  0  0  0  0  0  0  0  0
   -1.0276   -1.4074    1.2881 C   0  0  0  0  0  0  0  0  0  0  0  0
   -0.3901   -2.9833    0.9741 S   0  0  0  0  0  0  0  0  0  0  0  0
    1.3683   -2.5552    0.7797 C   0  0  0  0  0  0  0  0  0  0  0  0
    1.6018   -1.6448   -0.4174 C   0  0  0  0  0  0  0  0  0  0  0  0
    0.8278   -1.5685   -1.3727 O   0  0  0  0  0  0  0  0  0  0  0  0
    2.8543   -0.8320   -0.4485 C   0  0  0  0  0  0  0  0  0  0  0  0
    3.9527   -1.1180    0.3696 C   0  0  0  0  0  0  0  0  0  0  0  0
    5.1053   -0.3277    0.3003 C   0  0  0  0  0  0  0  0  0  0  0  0
    5.1814    0.7458   -0.5943 C   0  0  0  0  0  0  0  0  0  0  0  0
    6.4030    1.6155   -0.6444 C   0  0  0  0  0  0  0  0  0  0  0  0
    4.0796    1.0328   -1.4073 C   0  0  0  0  0  0  0  0  0  0  0  0
    2.9274    0.2454   -1.3407 C   0  0  0  0  0  0  0  0  0  0  0  0
   -0.4548   -0.4932    2.0325 N   0  0  0  0  0  0  0  0  0  0  0  0
   -1.2729    0.6076    2.0347 N   0  0  0  0  0  0  0  0  0  0  0  0
   -2.3175    0.3579    1.2643 C   0  0  0  0  0  0  0  0  0  0  0  0
   -3.4268    1.2786    1.0404 C   0  0  0  0  0  0  0  0  0  0  0  0
   -3.7807    1.7047   -0.2401 C   0  0  0  0  0  0  0  0  0  0  0  0
   -4.8498    2.5756   -0.3714 C   0  0  0  0  0  0  0  0  0  0  0  0
   -5.5700    3.0428    0.6700 N   0  0  0  0  0  0  0  0  0  0  0  0
   -5.1882    2.6436    1.9017 C   0  0  0  0  0  0  0  0  0  0  0  0
   -4.1351    1.7765    2.1353 C   0  0  0  0  0  0  0  0  0  0  0  0
   -2.6226   -0.7294   -1.9176 H   0  0  0  0  0  0  0  0  0  0  0  0
   -3.6168   -2.1894   -2.0650 H   0  0  0  0  0  0  0  0  0  0  0  0
   -1.9022   -2.3182   -1.6584 H   0  0  0  0  0  0  0  0  0  0  0  0
   -3.2725   -2.6588    0.3955 H   0  0  0  0  0  0  0  0  0  0  0  0
   -4.1458   -1.1716    0.0963 H   0  0  0  0  0  0  0  0  0  0  0  0
    1.9306   -3.4805    0.6231 H   0  0  0  0  0  0  0  0  0  0  0  0
    1.7108   -2.0804    1.7034 H   0  0  0  0  0  0  0  0  0  0  0  0
    3.9473   -1.9504    1.0667 H   0  0  0  0  0  0  0  0  0  0  0  0
    5.9466   -0.5579    0.9517 H   0  0  0  0  0  0  0  0  0  0  0  0
    7.2851    1.0774   -0.2791 H   0  0  0  0  0  0  0  0  0  0  0  0
    6.2538    2.5054   -0.0249 H   0  0  0  0  0  0  0  0  0  0  0  0
    6.6143    1.9269   -1.6729 H   0  0  0  0  0  0  0  0  0  0  0  0
    4.1097    1.8728   -2.0986 H   0  0  0  0  0  0  0  0  0  0  0  0
    2.0817    0.4842   -1.9832 H   0  0  0  0  0  0  0  0  0  0  0  0
   -3.2303    1.3904   -1.1193 H   0  0  0  0  0  0  0  0  0  0  0  0
   -5.1620    2.9362   -1.3476 H   0  0  0  0  0  0  0  0  0  0  0  0
   -5.7689    3.0531    2.7233 H   0  0  0  0  0  0  0  0  0  0  0  0
   -3.8701    1.4968    3.1503 H   0  0  0  0  0  0  0  0  0  0  0  0
  1  2  1  0
  2  3  1  0
  3  4  1  0
  4  5  1  0
  5  6  1  0
  6  7  1  0
  7  8  2  0
  7  9  1  0
  9 10  2  0
 10 11  1  0
 11 12  2  0
 12 13  1  0
 12 14  1  0
 14 15  2  0
  4 16  2  0
 16 17  1  0
 17 18  2  0
 18 19  1  0
 19 20  2  0
 20 21  1  0
 21 22  2  0
 22 23  1  0
 23 24  2  0
 18  3  1  0
 24 19  1  0
 15  9  1  0
  1 25  1  0
  1 26  1  0
  1 27  1  0
  2 28  1  0
  2 29  1  0
  6 30  1  0
  6 31  1  0
 10 32  1  0
 11 33  1  0
 13 34  1  0
 13 35  1  0
 13 36  1  0
 14 37  1  0
 15 38  1  0
 20 39  1  0
 21 40  1  0
 23 41  1  0
 24 42  1  0
M  END
$$$$
