
     RDKit          3D

 35 36  0  0  0  0  0  0  0  0999 V2000
    2.7390   -1.1454   -1.9402 O   0  0  0  0  0  0  0  0  0  0  0  0
    2.5451   -0.4432   -0.9550 C   0  0  0  0  0  0  0  0  0  0  0  0
    1.3625    0.2334   -0.7173 N   0  0  0  0  0  0  0  0  0  0  0  0
    0.3061    0.2329   -1.7144 C   0  0  0  0  0  0  0  0  0  0  0  0
   -1.0567    0.5249   -1.0979 C   0  0  0  0  0  0  0  0  0  0  0  0
   -1.5571   -0.6456   -0.2511 C   0  0  0  0  0  0  0  0  0  0  0  0
   -2.8669   -0.3888    0.3238 N   0  0  0  0  0  0  0  0  0  0  0  0
   -3.0522    0.4320    1.4928 C   0  0  0  0  0  0  0  0  0  0  0  0
   -4.5273    0.2635    1.7966 C   0  0  0  0  0  0  0  0  0  0  0  0
   -5.1602    0.0878    0.4210 C   0  0  0  0  0  0  0  0  0  0  0  0
   -4.0488   -0.5280   -0.3948 C   0  0  0  0  0  0  0  0  0  0  0  0
   -4.1724   -1.0064   -1.5098 O   0  0  0  0  0  0  0  0  0  0  0  0
    3.6279   -0.2551    0.0381 C   0  0  0  0  0  0  0  0  0  0  0  0
    4.9604   -0.4040   -0.3513 C   0  0  0  0  0  0  0  0  0  0  0  0
    5.9735   -0.2280    0.5887 C   0  0  0  0  0  0  0  0  0  0  0  0
    5.6154    0.0858    1.8906 C   0  0  0  0  0  0  0  0  0  0  0  0
    4.3361    0.2235    2.3054 N   0  0  0  0  0  0  0  0  0  0  0  0
    3.3711    0.0367    1.3710 C   0  0  0  0  0  0  0  0  0  0  0  0
    1.4001    1.0326   -0.0975 H   0  0  0  0  0  0  0  0  0  0  0  0
    0.2959   -0.7235   -2.2488 H   0  0  0  0  0  0  0  0  0  0  0  0
    0.5602    1.0139   -2.4397 H   0  0  0  0  0  0  0  0  0  0  0  0
   -1.0082    1.4364   -0.4898 H   0  0  0  0  0  0  0  0  0  0  0  0
   -1.7746    0.7217   -1.9035 H   0  0  0  0  0  0  0  0  0  0  0  0
   -1.6370   -1.5406   -0.8793 H   0  0  0  0  0  0  0  0  0  0  0  0
   -0.8683   -0.8718    0.5698 H   0  0  0  0  0  0  0  0  0  0  0  0
   -2.4152    0.0872    2.3119 H   0  0  0  0  0  0  0  0  0  0  0  0
   -2.8110    1.4696    1.2399 H   0  0  0  0  0  0  0  0  0  0  0  0
   -4.9464    1.1050    2.3551 H   0  0  0  0  0  0  0  0  0  0  0  0
   -4.6843   -0.6466    2.3890 H   0  0  0  0  0  0  0  0  0  0  0  0
   -5.4292    1.0520   -0.0209 H   0  0  0  0  0  0  0  0  0  0  0  0
   -6.0314   -0.5704    0.4572 H   0  0  0  0  0  0  0  0  0  0  0  0
    5.2076   -0.6555   -1.3802 H   0  0  0  0  0  0  0  0  0  0  0  0
    7.0165   -0.3359    0.3114 H   0  0  0  0  0  0  0  0  0  0  0  0
    6.3704    0.2336    2.6582 H   0  0  0  0  0  0  0  0  0  0  0  0
    2.3595    0.1165    1.7567 H   0  0  0  0  0  0  0  0  0  0  0  0
  1  2  2  0
  2  3  1  0
  3  4  1  0
  4  5  1  0
  5  6  1  0
  6  7  1  0
  7  8  1  0
  8  9  1  0
  9 10  1  0
 10 11  1  0
 11 12  2  0
  2 13  1  0
 13 14  2  0
 14 15  1  0
 15 16  2  0
 16 17  1  0
 17 18  2  0
 11  7  1  0
 18 13  1  0
  3 19  1  0
  4 20  1  0
  4 21  1  0
  5 22  1  0
  5 23  1  0
  6 24  1  0
  6 25  1  0
  8 26  1  0
  8 27  1  0
  9 28  1  0
  9 29  1  0
 10 30  1  0
 10 31  1  0
 14 32  1  0
 15 33  1  0
 16 34  1  0
 18 35  1  0
M  END
$$$$
