
     RDKit          3D

 42 44  0  0  0  0  0  0  0  0999 V2000
    8.1778   -1.1716   -1.7860 C   0  0  0  0  0  0  0  0  0  0  0  0
    7.0712   -1.9877   -1.4215 O   0  0  0  0  0  0  0  0  0  0  0  0
    5.9247   -1.3441   -1.0470 C   0  0  0  0  0  0  0  0  0  0  0  0
    5.7357    0.0373   -1.0016 C   0  0  0  0  0  0  0  0  0  0  0  0
    4.5036    0.5642   -0.5974 C   0  0  0  0  0  0  0  0  0  0  0  0
    3.4484   -0.2863   -0.2458 C   0  0  0  0  0  0  0  0  0  0  0  0
    2.1537    0.3237    0.1764 C   0  0  0  0  0  0  0  0  0  0  0  0
    2.1960    1.3909    0.7746 O   0  0  0  0  0  0  0  0  0  0  0  0
    1.0307   -0.3908   -0.2056 N   0  0  0  0  0  0  0  0  0  0  0  0
   -0.2936   -0.0760    0.0800 C   0  0  0  0  0  0  0  0  0  0  0  0
   -0.7044    1.2407    1.0793 S   0  0  0  0  0  0  0  0  0  0  0  0
   -2.3705    0.9454    0.9230 C   0  0  0  0  0  0  0  0  0  0  0  0
   -2.6315   -0.1602    0.1381 C   0  0  0  0  0  0  0  0  0  0  0  0
   -1.4233   -0.7485   -0.3552 C   0  0  0  0  0  0  0  0  0  0  0  0
   -1.3687   -1.9020   -1.2024 C   0  0  0  0  0  0  0  0  0  0  0  0
   -1.2942   -2.8398   -1.8815 N   0  0  0  0  0  0  0  0  0  0  0  0
   -4.0426   -0.5891   -0.1199 C   0  0  0  0  0  0  0  0  0  0  0  0
   -4.9873   -0.0194    0.9517 C   0  0  0  0  0  0  0  0  0  0  0  0
   -4.7484    1.4134    1.2014 N   0  0  0  0  0  0  0  0  0  0  0  0
   -5.7581    2.3193    1.5035 C   0  0  0  0  0  0  0  0  0  0  0  0
   -7.1748    1.9091    1.1938 C   0  0  0  0  0  0  0  0  0  0  0  0
   -5.5290    3.4244    1.9953 O   0  0  0  0  0  0  0  0  0  0  0  0
   -3.3888    1.8084    1.6046 C   0  0  0  0  0  0  0  0  0  0  0  0
    3.6425   -1.6717   -0.2728 C   0  0  0  0  0  0  0  0  0  0  0  0
    4.8755   -2.1914   -0.6779 C   0  0  0  0  0  0  0  0  0  0  0  0
    9.0080   -1.8334   -2.0509 H   0  0  0  0  0  0  0  0  0  0  0  0
    7.9450   -0.5611   -2.6647 H   0  0  0  0  0  0  0  0  0  0  0  0
    8.5029   -0.5491   -0.9459 H   0  0  0  0  0  0  0  0  0  0  0  0
    6.5236    0.7339   -1.2688 H   0  0  0  0  0  0  0  0  0  0  0  0
    4.3689    1.6440   -0.5581 H   0  0  0  0  0  0  0  0  0  0  0  0
    1.1774   -1.1864   -0.8154 H   0  0  0  0  0  0  0  0  0  0  0  0
   -4.3431   -0.2155   -1.1066 H   0  0  0  0  0  0  0  0  0  0  0  0
   -4.1249   -1.6813   -0.1352 H   0  0  0  0  0  0  0  0  0  0  0  0
   -4.8356   -0.5341    1.9092 H   0  0  0  0  0  0  0  0  0  0  0  0
   -6.0194   -0.2086    0.6485 H   0  0  0  0  0  0  0  0  0  0  0  0
   -7.2635    1.6069    0.1469 H   0  0  0  0  0  0  0  0  0  0  0  0
   -7.4866    1.1004    1.8597 H   0  0  0  0  0  0  0  0  0  0  0  0
   -7.8410    2.7625    1.3541 H   0  0  0  0  0  0  0  0  0  0  0  0
   -3.2278    2.8641    1.3577 H   0  0  0  0  0  0  0  0  0  0  0  0
   -3.3206    1.6898    2.6926 H   0  0  0  0  0  0  0  0  0  0  0  0
    2.8654   -2.3614    0.0436 H   0  0  0  0  0  0  0  0  0  0  0  0
    5.0268   -3.2688   -0.6965 H   0  0  0  0  0  0  0  0  0  0  0  0
  1  2  1  0
  2  3  1  0
  3  4  2  0
  4  5  1  0
  5  6  2  0
  6  7  1  0
  7  8  2  0
  7  9  1  0
  9 10  1  0
 10 11  1  0
 11 12  1  0
 12 13  2  0
 13 14  1  0
 14 15  1  0
 15 16  3  0
 13 17  1  0
 17 18  1  0
 18 19  1  0
 19 20  1  0
 20 21  1  0
 20 22  2  0
 19 23  1  0
  6 24  1  0
 24 25  2  0
 25  3  1  0
 14 10  2  0
 23 12  1  0
  1 26  1  0
  1 27  1  0
  1 28  1  0
  4 29  1  0
  5 30  1  0
  9 31  1  0
 17 32  1  0
 17 33  1  0
 18 34  1  0
 18 35  1  0
 21 36  1  0
 21 37  1  0
 21 38  1  0
 23 39  1  0
 23 40  1  0
 24 41  1  0
 25 42  1  0
M  END
$$$$
