
     RDKit          3D

 40 42  0  0  0  0  0  0  0  0999 V2000
   -0.8865   -2.4724    0.1672 C   0  0  0  0  0  0  0  0  0  0  0  0
   -2.0098   -1.5412   -0.2928 C   0  0  0  0  0  0  0  0  0  0  0  0
   -3.2178   -2.3665   -0.7401 C   0  0  0  0  0  0  0  0  0  0  0  0
   -1.5657   -0.6099   -1.4369 C   0  0  0  0  0  0  0  0  0  0  0  0
   -0.5706    0.3714   -1.0518 N   0  0  0  0  0  0  0  0  0  0  0  0
    0.7718    0.3590   -1.3238 C   0  0  0  0  0  0  0  0  0  0  0  0
    1.5863   -0.8640   -2.2314 S   0  0  0  0  0  0  0  0  0  0  0  0
    3.2292   -0.8126   -1.4493 C   0  0  0  0  0  0  0  0  0  0  0  0
    3.1754   -1.4020   -0.0458 C   0  0  0  0  0  0  0  0  0  0  0  0
    2.8088   -2.5733    0.0972 O   0  0  0  0  0  0  0  0  0  0  0  0
    3.5897   -0.5623    1.0779 C   0  0  0  0  0  0  0  0  0  0  0  0
    3.8841    0.7908    1.1426 C   0  0  0  0  0  0  0  0  0  0  0  0
    4.2460    1.2151    2.4585 C   0  0  0  0  0  0  0  0  0  0  0  0
    4.2168    0.1685    3.3396 C   0  0  0  0  0  0  0  0  0  0  0  0
    4.5851    0.2306    5.0153 Cl  0  0  0  0  0  0  0  0  0  0  0  0
    3.7604   -1.2935    2.6310 S   0  0  0  0  0  0  0  0  0  0  0  0
    1.3495    1.4099   -0.7941 N   0  0  0  0  0  0  0  0  0  0  0  0
    0.3776    2.1448   -0.1672 N   0  0  0  0  0  0  0  0  0  0  0  0
   -0.7800    1.5327   -0.3392 C   0  0  0  0  0  0  0  0  0  0  0  0
   -2.0244    2.0391    0.1558 C   0  0  0  0  0  0  0  0  0  0  0  0
   -2.2292    3.1680    0.9348 C   0  0  0  0  0  0  0  0  0  0  0  0
   -3.6199    3.2731    1.1751 C   0  0  0  0  0  0  0  0  0  0  0  0
   -4.1939    2.2068    0.5298 C   0  0  0  0  0  0  0  0  0  0  0  0
   -3.2448    1.4585   -0.0853 O   0  0  0  0  0  0  0  0  0  0  0  0
   -1.2432   -3.1527    0.9482 H   0  0  0  0  0  0  0  0  0  0  0  0
   -0.0513   -1.9051    0.5890 H   0  0  0  0  0  0  0  0  0  0  0  0
   -0.5079   -3.0809   -0.6608 H   0  0  0  0  0  0  0  0  0  0  0  0
   -2.3169   -0.9430    0.5732 H   0  0  0  0  0  0  0  0  0  0  0  0
   -2.9718   -2.9997   -1.5991 H   0  0  0  0  0  0  0  0  0  0  0  0
   -3.5683   -3.0158    0.0694 H   0  0  0  0  0  0  0  0  0  0  0  0
   -4.0497   -1.7139   -1.0262 H   0  0  0  0  0  0  0  0  0  0  0  0
   -1.1801   -1.1972   -2.2769 H   0  0  0  0  0  0  0  0  0  0  0  0
   -2.4183   -0.0536   -1.8438 H   0  0  0  0  0  0  0  0  0  0  0  0
    3.9085   -1.4395   -2.0374 H   0  0  0  0  0  0  0  0  0  0  0  0
    3.6362    0.1994   -1.4801 H   0  0  0  0  0  0  0  0  0  0  0  0
    3.8217    1.4742    0.3033 H   0  0  0  0  0  0  0  0  0  0  0  0
    4.5016    2.2313    2.7315 H   0  0  0  0  0  0  0  0  0  0  0  0
   -1.4510    3.8346    1.2829 H   0  0  0  0  0  0  0  0  0  0  0  0
   -4.1360    4.0328    1.7445 H   0  0  0  0  0  0  0  0  0  0  0  0
   -5.2114    1.8585    0.4177 H   0  0  0  0  0  0  0  0  0  0  0  0
  1  2  1  0
  2  3  1  0
  2  4  1  0
  4  5  1  0
  5  6  1  0
  6  7  1  0
  7  8  1  0
  8  9  1  0
  9 10  2  0
  9 11  1  0
 11 12  2  0
 12 13  1  0
 13 14  2  0
 14 15  1  0
 14 16  1  0
  6 17  2  0
 17 18  1  0
 18 19  2  0
 19 20  1  0
 20 21  2  0
 21 22  1  0
 22 23  2  0
 23 24  1  0
 19  5  1  0
 24 20  1  0
 16 11  1  0
  1 25  1  0
  1 26  1  0
  1 27  1  0
  2 28  1  0
  3 29  1  0
  3 30  1  0
  3 31  1  0
  4 32  1  0
  4 33  1  0
  8 34  1  0
  8 35  1  0
 12 36  1  0
 13 37  1  0
 21 38  1  0
 22 39  1  0
 23 40  1  0
M  END
$$$$
