
     RDKit          3D

 52 55  0  0  0  0  0  0  0  0999 V2000
    5.4056   -0.1957    3.0190 C   0  0  0  0  0  0  0  0  0  0  0  0
    4.7038   -0.3264    1.7891 O   0  0  0  0  0  0  0  0  0  0  0  0
    5.0837    0.4928    0.7523 C   0  0  0  0  0  0  0  0  0  0  0  0
    6.3365    1.1301    0.7201 C   0  0  0  0  0  0  0  0  0  0  0  0
    6.7187    1.9100   -0.3716 C   0  0  0  0  0  0  0  0  0  0  0  0
    5.8577    2.0570   -1.4486 C   0  0  0  0  0  0  0  0  0  0  0  0
    4.6155    1.4225   -1.4299 C   0  0  0  0  0  0  0  0  0  0  0  0
    4.1923    0.6287   -0.3413 C   0  0  0  0  0  0  0  0  0  0  0  0
    2.9089    0.0610   -0.4283 N   0  0  0  0  0  0  0  0  0  0  0  0
    2.1659   -0.2693    0.7919 C   0  0  0  0  0  0  0  0  0  0  0  0
    0.6497   -0.3970    0.4747 C   0  0  0  0  0  0  0  0  0  0  0  0
    0.2776   -0.9869   -0.8488 N   0  0  0  0  0  0  0  0  0  0  0  0
   -0.0734    0.1070   -1.8049 C   0  0  0  0  0  0  0  0  0  0  0  0
   -1.4958    0.6376   -1.5474 C   0  0  0  0  0  0  0  0  0  0  0  0
   -1.8364    1.7528   -1.9293 O   0  0  0  0  0  0  0  0  0  0  0  0
   -2.2960   -0.2963   -0.9144 N   0  0  0  0  0  0  0  0  0  0  0  0
   -3.6472   -0.1922   -0.5524 C   0  0  0  0  0  0  0  0  0  0  0  0
   -4.2093   -1.2753    0.1327 C   0  0  0  0  0  0  0  0  0  0  0  0
   -5.5512   -1.2569    0.5347 C   0  0  0  0  0  0  0  0  0  0  0  0
   -6.3491   -0.1420    0.2505 C   0  0  0  0  0  0  0  0  0  0  0  0
   -7.7054   -0.0926    0.6508 N   0  0  0  0  0  0  0  0  0  0  0  0
   -8.4515   -1.0274    1.3252 C   0  0  0  0  0  0  0  0  0  0  0  0
   -9.6708   -0.5714    1.4981 N   0  0  0  0  0  0  0  0  0  0  0  0
   -9.6850    0.6739    0.9263 N   0  0  0  0  0  0  0  0  0  0  0  0
   -8.5018    0.9749    0.4091 N   0  0  0  0  0  0  0  0  0  0  0  0
   -5.7904    0.9425   -0.4387 C   0  0  0  0  0  0  0  0  0  0  0  0
   -4.4476    0.9134   -0.8365 C   0  0  0  0  0  0  0  0  0  0  0  0
    1.4452   -1.7408   -1.3716 C   0  0  0  0  0  0  0  0  0  0  0  0
    2.7609   -0.9286   -1.5165 C   0  0  0  0  0  0  0  0  0  0  0  0
    5.4307    0.8456    3.3597 H   0  0  0  0  0  0  0  0  0  0  0  0
    4.8645   -0.7768    3.7741 H   0  0  0  0  0  0  0  0  0  0  0  0
    6.4128   -0.6149    2.9409 H   0  0  0  0  0  0  0  0  0  0  0  0
    7.0496    1.0246    1.5308 H   0  0  0  0  0  0  0  0  0  0  0  0
    7.6894    2.3989   -0.3786 H   0  0  0  0  0  0  0  0  0  0  0  0
    6.1427    2.6668   -2.3021 H   0  0  0  0  0  0  0  0  0  0  0  0
    3.9452    1.5776   -2.2723 H   0  0  0  0  0  0  0  0  0  0  0  0
    2.5177   -1.2237    1.2055 H   0  0  0  0  0  0  0  0  0  0  0  0
    2.2842    0.5096    1.5550 H   0  0  0  0  0  0  0  0  0  0  0  0
    0.2036   -1.0314    1.2504 H   0  0  0  0  0  0  0  0  0  0  0  0
    0.1778    0.5840    0.6073 H   0  0  0  0  0  0  0  0  0  0  0  0
   -0.0852   -0.2806   -2.8297 H   0  0  0  0  0  0  0  0  0  0  0  0
    0.6310    0.9445   -1.7562 H   0  0  0  0  0  0  0  0  0  0  0  0
   -1.7901   -1.1429   -0.6610 H   0  0  0  0  0  0  0  0  0  0  0  0
   -3.6062   -2.1497    0.3662 H   0  0  0  0  0  0  0  0  0  0  0  0
   -5.9294   -2.1254    1.0672 H   0  0  0  0  0  0  0  0  0  0  0  0
   -8.0817   -1.9835    1.6566 H   0  0  0  0  0  0  0  0  0  0  0  0
   -6.3786    1.8266   -0.6806 H   0  0  0  0  0  0  0  0  0  0  0  0
   -4.0581    1.7750   -1.3713 H   0  0  0  0  0  0  0  0  0  0  0  0
    1.6269   -2.5847   -0.6913 H   0  0  0  0  0  0  0  0  0  0  0  0
    1.1946   -2.2032   -2.3342 H   0  0  0  0  0  0  0  0  0  0  0  0
    2.7427   -0.4110   -2.4833 H   0  0  0  0  0  0  0  0  0  0  0  0
    3.6050   -1.6307   -1.5233 H   0  0  0  0  0  0  0  0  0  0  0  0
  1  2  1  0
  2  3  1  0
  3  4  2  0
  4  5  1  0
  5  6  2  0
  6  7  1  0
  7  8  2  0
  8  9  1  0
  9 10  1  0
 10 11  1  0
 11 12  1  0
 12 13  1  0
 13 14  1  0
 14 15  2  0
 14 16  1  0
 16 17  1  0
 17 18  2  0
 18 19  1  0
 19 20  2  0
 20 21  1  0
 21 22  1  0
 22 23  2  0
 23 24  1  0
 24 25  2  0
 20 26  1  0
 26 27  2  0
 12 28  1  0
 28 29  1  0
  8  3  1  0
 29  9  1  0
 27 17  1  0
 25 21  1  0
  1 30  1  0
  1 31  1  0
  1 32  1  0
  4 33  1  0
  5 34  1  0
  6 35  1  0
  7 36  1  0
 10 37  1  0
 10 38  1  0
 11 39  1  0
 11 40  1  0
 13 41  1  0
 13 42  1  0
 16 43  1  0
 18 44  1  0
 19 45  1  0
 22 46  1  0
 26 47  1  0
 27 48  1  0
 28 49  1  0
 28 50  1  0
 29 51  1  0
 29 52  1  0
M  END
$$$$
