
     RDKit          3D

 47 50  0  0  0  0  0  0  0  0999 V2000
   -1.2504    0.8527    0.8368 O   0  0  0  0  0  0  0  0  0  0  0  0
   -1.8655   -0.0460    0.2967 C   0  0  0  0  0  0  0  0  0  0  0  0
   -3.1795    0.1099   -0.3232 C   0  0  0  0  0  0  0  0  0  0  0  0
   -3.9592    1.2353   -0.5016 C   0  0  0  0  0  0  0  0  0  0  0  0
   -5.1972    1.0597   -1.1282 C   0  0  0  0  0  0  0  0  0  0  0  0
   -5.6206   -0.2183   -1.5505 C   0  0  0  0  0  0  0  0  0  0  0  0
   -4.8137   -1.3435   -1.3535 C   0  0  0  0  0  0  0  0  0  0  0  0
   -3.5948   -1.1431   -0.7368 C   0  0  0  0  0  0  0  0  0  0  0  0
   -2.5437   -2.0933   -0.3795 C   0  0  0  0  0  0  0  0  0  0  0  0
   -2.6215   -3.2964   -0.5376 O   0  0  0  0  0  0  0  0  0  0  0  0
   -1.5293   -1.3636    0.1719 N   0  0  0  0  0  0  0  0  0  0  0  0
   -0.3219   -1.9418    0.7143 C   0  0  0  0  0  0  0  0  0  0  0  0
    0.9123   -1.4307    0.0982 N   0  0  0  0  0  0  0  0  0  0  0  0
    1.9288   -0.8195    0.8630 C   0  0  0  0  0  0  0  0  0  0  0  0
    3.0723   -0.6331    0.4358 O   0  0  0  0  0  0  0  0  0  0  0  0
    1.5884   -0.4146    2.3133 C   0  0  0  0  0  0  0  0  0  0  0  0
    2.5882    0.3291    2.9965 O   0  0  0  0  0  0  0  0  0  0  0  0
    2.6825    1.6694    2.7424 C   0  0  0  0  0  0  0  0  0  0  0  0
    1.9114    2.3982    1.8363 C   0  0  0  0  0  0  0  0  0  0  0  0
    2.1185    3.7733    1.6837 C   0  0  0  0  0  0  0  0  0  0  0  0
    3.0963    4.4256    2.4323 C   0  0  0  0  0  0  0  0  0  0  0  0
    3.8716    3.7032    3.3351 C   0  0  0  0  0  0  0  0  0  0  0  0
    3.6637    2.3311    3.4868 C   0  0  0  0  0  0  0  0  0  0  0  0
    1.0927   -1.6403   -1.3221 C   0  0  0  0  0  0  0  0  0  0  0  0
    1.8854   -0.7664   -2.0881 C   0  0  0  0  0  0  0  0  0  0  0  0
    2.0380   -0.9376   -3.4687 C   0  0  0  0  0  0  0  0  0  0  0  0
    1.3935   -1.9861   -4.1036 C   0  0  0  0  0  0  0  0  0  0  0  0
    1.5339   -2.1511   -5.4249 F   0  0  0  0  0  0  0  0  0  0  0  0
    0.6007   -2.8647   -3.3826 C   0  0  0  0  0  0  0  0  0  0  0  0
    0.4504   -2.6916   -2.0012 C   0  0  0  0  0  0  0  0  0  0  0  0
   -3.6236    2.2123   -0.1691 H   0  0  0  0  0  0  0  0  0  0  0  0
   -5.8453    1.9193   -1.2923 H   0  0  0  0  0  0  0  0  0  0  0  0
   -6.5898   -0.3277   -2.0349 H   0  0  0  0  0  0  0  0  0  0  0  0
   -5.1295   -2.3322   -1.6706 H   0  0  0  0  0  0  0  0  0  0  0  0
   -0.3450   -1.7451    1.7871 H   0  0  0  0  0  0  0  0  0  0  0  0
   -0.3353   -3.0337    0.6234 H   0  0  0  0  0  0  0  0  0  0  0  0
    0.6248    0.0975    2.3765 H   0  0  0  0  0  0  0  0  0  0  0  0
    1.4938   -1.3502    2.8770 H   0  0  0  0  0  0  0  0  0  0  0  0
    1.1429    1.9359    1.2264 H   0  0  0  0  0  0  0  0  0  0  0  0
    1.5143    4.3333    0.9746 H   0  0  0  0  0  0  0  0  0  0  0  0
    3.2560    5.4932    2.3086 H   0  0  0  0  0  0  0  0  0  0  0  0
    4.6397    4.2030    3.9186 H   0  0  0  0  0  0  0  0  0  0  0  0
    4.2747    1.7696    4.1891 H   0  0  0  0  0  0  0  0  0  0  0  0
    2.3839    0.0882   -1.6356 H   0  0  0  0  0  0  0  0  0  0  0  0
    2.6543   -0.2534   -4.0432 H   0  0  0  0  0  0  0  0  0  0  0  0
    0.1080   -3.6866   -3.8929 H   0  0  0  0  0  0  0  0  0  0  0  0
   -0.1550   -3.4293   -1.4833 H   0  0  0  0  0  0  0  0  0  0  0  0
  1  2  2  0
  2  3  1  0
  3  4  2  0
  4  5  1  0
  5  6  2  0
  6  7  1  0
  7  8  2  0
  8  9  1  0
  9 10  2  0
  9 11  1  0
 11 12  1  0
 12 13  1  0
 13 14  1  0
 14 15  2  0
 14 16  1  0
 16 17  1  0
 17 18  1  0
 18 19  2  0
 19 20  1  0
 20 21  2  0
 21 22  1  0
 22 23  2  0
 13 24  1  0
 24 25  2  0
 25 26  1  0
 26 27  2  0
 27 28  1  0
 27 29  1  0
 29 30  2  0
 11  2  1  0
 23 18  1  0
 30 24  1  0
  8  3  1  0
  4 31  1  0
  5 32  1  0
  6 33  1  0
  7 34  1  0
 12 35  1  0
 12 36  1  0
 16 37  1  0
 16 38  1  0
 19 39  1  0
 20 40  1  0
 21 41  1  0
 22 42  1  0
 23 43  1  0
 25 44  1  0
 26 45  1  0
 29 46  1  0
 30 47  1  0
M  END
$$$$
