
     RDKit          3D

 50 53  0  0  0  0  0  0  0  0999 V2000
   -7.2869   -0.8354    1.2379 C   0  0  0  0  0  0  0  0  0  0  0  0
   -6.5655   -0.0203    0.2458 C   0  0  0  0  0  0  0  0  0  0  0  0
   -5.6261   -0.2901   -0.7186 C   0  0  0  0  0  0  0  0  0  0  0  0
   -5.3683    0.9592   -1.3156 C   0  0  0  0  0  0  0  0  0  0  0  0
   -4.5066    1.2794   -2.3462 N   0  0  0  0  0  0  0  0  0  0  0  0
   -3.3361    0.2929   -2.9872 S   0  0  0  0  0  6  0  0  0  0  0  0
   -3.8961   -1.0181   -3.2359 O   0  0  0  0  0  0  0  0  0  0  0  0
   -2.6870    1.0445   -4.0411 O   0  0  0  0  0  0  0  0  0  0  0  0
   -2.1687    0.1604   -1.6533 C   0  0  0  0  0  0  0  0  0  0  0  0
   -1.3697    1.2604   -1.3357 C   0  0  0  0  0  0  0  0  0  0  0  0
   -0.4416    1.1578   -0.2964 C   0  0  0  0  0  0  0  0  0  0  0  0
   -0.3011   -0.0369    0.4242 C   0  0  0  0  0  0  0  0  0  0  0  0
    0.6627   -0.0519    1.4499 N   0  0  0  0  0  0  0  0  0  0  0  0
    1.0080   -1.1036    2.2763 C   0  0  0  0  0  0  0  0  0  0  0  0
    0.5103   -2.2244    2.2850 O   0  0  0  0  0  0  0  0  0  0  0  0
    2.1436   -0.7621    3.2175 C   0  0  0  0  0  0  0  0  0  0  0  0
    3.4801   -1.2507    2.6733 C   0  0  0  0  0  0  0  0  0  0  0  0
    3.9473   -0.6663    1.4219 N   0  0  0  0  0  0  0  0  0  0  0  0
    4.8684   -1.3083    0.6306 C   0  0  0  0  0  0  0  0  0  0  0  0
    5.3741   -2.4047    0.7765 O   0  0  0  0  0  0  0  0  0  0  0  0
    5.1973   -0.3980   -0.4626 C   0  0  0  0  0  0  0  0  0  0  0  0
    6.0370   -0.5638   -1.5464 C   0  0  0  0  0  0  0  0  0  0  0  0
    6.1571    0.5123   -2.4308 C   0  0  0  0  0  0  0  0  0  0  0  0
    5.4502    1.7131   -2.2096 C   0  0  0  0  0  0  0  0  0  0  0  0
    4.6084    1.8562   -1.1018 C   0  0  0  0  0  0  0  0  0  0  0  0
    4.5037    0.7768   -0.2463 C   0  0  0  0  0  0  0  0  0  0  0  0
    3.7264    0.6093    0.9790 C   0  0  0  0  0  0  0  0  0  0  0  0
    3.0131    1.4771    1.4508 O   0  0  0  0  0  0  0  0  0  0  0  0
   -1.0980   -1.1330    0.0845 C   0  0  0  0  0  0  0  0  0  0  0  0
   -2.0269   -1.0411   -0.9580 C   0  0  0  0  0  0  0  0  0  0  0  0
   -6.1071    1.9239   -0.7610 N   0  0  0  0  0  0  0  0  0  0  0  0
   -6.8555    1.3073    0.2256 O   0  0  0  0  0  0  0  0  0  0  0  0
   -7.0555   -0.4985    2.2528 H   0  0  0  0  0  0  0  0  0  0  0  0
   -8.3675   -0.7585    1.0855 H   0  0  0  0  0  0  0  0  0  0  0  0
   -7.0064   -1.8900    1.1569 H   0  0  0  0  0  0  0  0  0  0  0  0
   -5.2098   -1.2578   -0.9543 H   0  0  0  0  0  0  0  0  0  0  0  0
   -4.5097    2.2419   -2.6714 H   0  0  0  0  0  0  0  0  0  0  0  0
   -1.4576    2.1917   -1.8905 H   0  0  0  0  0  0  0  0  0  0  0  0
    0.1747    2.0223   -0.0586 H   0  0  0  0  0  0  0  0  0  0  0  0
    1.2047    0.8063    1.5642 H   0  0  0  0  0  0  0  0  0  0  0  0
    1.9348   -1.2583    4.1734 H   0  0  0  0  0  0  0  0  0  0  0  0
    2.1591    0.3096    3.4392 H   0  0  0  0  0  0  0  0  0  0  0  0
    3.4523   -2.3400    2.5451 H   0  0  0  0  0  0  0  0  0  0  0  0
    4.2600   -1.0445    3.4168 H   0  0  0  0  0  0  0  0  0  0  0  0
    6.5766   -1.4925   -1.7024 H   0  0  0  0  0  0  0  0  0  0  0  0
    6.8066    0.4258   -3.3004 H   0  0  0  0  0  0  0  0  0  0  0  0
    5.5655    2.5383   -2.9109 H   0  0  0  0  0  0  0  0  0  0  0  0
    4.0637    2.7769   -0.9193 H   0  0  0  0  0  0  0  0  0  0  0  0
   -1.0149   -2.0812    0.6074 H   0  0  0  0  0  0  0  0  0  0  0  0
   -2.6234   -1.9135   -1.2156 H   0  0  0  0  0  0  0  0  0  0  0  0
  1  2  1  0
  2  3  2  0
  3  4  1  0
  4  5  1  0
  5  6  1  0
  6  7  2  0
  6  8  2  0
  6  9  1  0
  9 10  2  0
 10 11  1  0
 11 12  2  0
 12 13  1  0
 13 14  1  0
 14 15  2  0
 14 16  1  0
 16 17  1  0
 17 18  1  0
 18 19  1  0
 19 20  2  0
 19 21  1  0
 21 22  2  0
 22 23  1  0
 23 24  2  0
 24 25  1  0
 25 26  2  0
 26 27  1  0
 27 28  2  0
 12 29  1  0
 29 30  2  0
  4 31  2  0
 31 32  1  0
 32  2  1  0
 30  9  1  0
 27 18  1  0
 26 21  1  0
  1 33  1  0
  1 34  1  0
  1 35  1  0
  3 36  1  0
  5 37  1  0
 10 38  1  0
 11 39  1  0
 13 40  1  0
 16 41  1  0
 16 42  1  0
 17 43  1  0
 17 44  1  0
 22 45  1  0
 23 46  1  0
 24 47  1  0
 25 48  1  0
 29 49  1  0
 30 50  1  0
M  END
$$$$
