
     RDKit          3D

 30 31  0  0  0  0  0  0  0  0999 V2000
    0.2100    1.1402   -2.7207 C   0  0  0  0  0  0  0  0  0  0  0  0
    0.4798    0.5651   -1.4453 O   0  0  0  0  0  0  0  0  0  0  0  0
   -0.5733    0.0572   -0.7256 C   0  0  0  0  0  0  0  0  0  0  0  0
   -1.9024    0.0957   -1.1812 C   0  0  0  0  0  0  0  0  0  0  0  0
   -2.9518   -0.4252   -0.4130 C   0  0  0  0  0  0  0  0  0  0  0  0
   -4.6111   -0.3536   -1.0670 S   0  0  0  0  0  0  0  0  0  0  0  0
   -5.4884    0.3827    0.3395 C   0  0  0  0  0  0  0  0  0  0  0  0
   -2.6685   -1.0158    0.8152 C   0  0  0  0  0  0  0  0  0  0  0  0
   -1.3534   -1.0603    1.2821 C   0  0  0  0  0  0  0  0  0  0  0  0
   -0.2907   -0.5259    0.5284 C   0  0  0  0  0  0  0  0  0  0  0  0
    1.0826   -0.6343    1.1469 C   0  0  0  0  0  0  0  0  0  0  0  0
    1.1705   -1.1296    2.2666 O   0  0  0  0  0  0  0  0  0  0  0  0
    2.1282   -0.1636    0.3927 N   0  0  0  0  0  0  0  0  0  0  0  0
    3.4598   -0.1447    0.7123 C   0  0  0  0  0  0  0  0  0  0  0  0
    4.3473    0.3491   -0.1222 N   0  0  0  0  0  0  0  0  0  0  0  0
    5.6083    0.2498    0.4328 C   0  0  0  0  0  0  0  0  0  0  0  0
    5.6608   -0.3202    1.6855 C   0  0  0  0  0  0  0  0  0  0  0  0
    4.0779   -0.7451    2.1827 S   0  0  0  0  0  0  0  0  0  0  0  0
   -0.4412    2.0154   -2.6280 H   0  0  0  0  0  0  0  0  0  0  0  0
    1.1625    1.4778   -3.1403 H   0  0  0  0  0  0  0  0  0  0  0  0
   -0.2111    0.3981   -3.4066 H   0  0  0  0  0  0  0  0  0  0  0  0
   -2.1527    0.5347   -2.1426 H   0  0  0  0  0  0  0  0  0  0  0  0
   -6.5115    0.6194    0.0350 H   0  0  0  0  0  0  0  0  0  0  0  0
   -4.9988    1.3075    0.6570 H   0  0  0  0  0  0  0  0  0  0  0  0
   -5.5347   -0.3145    1.1798 H   0  0  0  0  0  0  0  0  0  0  0  0
   -3.4544   -1.4609    1.4198 H   0  0  0  0  0  0  0  0  0  0  0  0
   -1.1604   -1.5269    2.2479 H   0  0  0  0  0  0  0  0  0  0  0  0
    1.9316    0.2319   -0.5186 H   0  0  0  0  0  0  0  0  0  0  0  0
    6.4634    0.6120   -0.1247 H   0  0  0  0  0  0  0  0  0  0  0  0
    6.5218   -0.5020    2.3117 H   0  0  0  0  0  0  0  0  0  0  0  0
  1  2  1  0
  2  3  1  0
  3  4  2  0
  4  5  1  0
  5  6  1  0
  6  7  1  0
  5  8  2  0
  8  9  1  0
  9 10  2  0
 10 11  1  0
 11 12  2  0
 11 13  1  0
 13 14  1  0
 14 15  2  0
 15 16  1  0
 16 17  2  0
 17 18  1  0
 10  3  1  0
 18 14  1  0
  1 19  1  0
  1 20  1  0
  1 21  1  0
  4 22  1  0
  7 23  1  0
  7 24  1  0
  7 25  1  0
  8 26  1  0
  9 27  1  0
 13 28  1  0
 16 29  1  0
 17 30  1  0
M  END
$$$$
