
     RDKit          3D

 47 49  0  0  0  0  0  0  0  0999 V2000
    6.5775   -1.2544   -1.7072 C   0  0  0  0  0  0  0  0  0  0  0  0
    5.5967   -0.1411   -2.0415 C   0  0  0  0  0  0  0  0  0  0  0  0
    4.6649    0.2195   -0.8830 C   0  0  0  0  0  0  0  0  0  0  0  0
    3.6959   -0.9074   -0.5143 C   0  0  0  0  0  0  0  0  0  0  0  0
    2.7669   -0.5228    0.5462 N   0  0  0  0  0  0  0  0  0  0  0  0
    1.6170    0.2850    0.1760 C   0  0  0  0  0  0  0  0  0  0  0  0
    0.6123    0.4199    1.2700 C   0  0  0  0  0  0  0  0  0  0  0  0
   -0.7018    0.8409    1.0426 C   0  0  0  0  0  0  0  0  0  0  0  0
   -1.5573    1.0139    2.1320 C   0  0  0  0  0  0  0  0  0  0  0  0
   -2.9539    1.4686    1.9900 C   0  0  0  0  0  0  0  0  0  0  0  0
   -3.4046    2.2638    2.8138 O   0  0  0  0  0  0  0  0  0  0  0  0
   -3.8286    1.0296    0.8739 C   0  0  0  0  0  0  0  0  0  0  0  0
   -3.6557   -0.2154    0.2557 C   0  0  0  0  0  0  0  0  0  0  0  0
   -4.4810   -0.6052   -0.8054 C   0  0  0  0  0  0  0  0  0  0  0  0
   -4.1902   -1.8367   -1.3244 O   0  0  0  0  0  0  0  0  0  0  0  0
   -5.0405   -2.3163   -2.3599 C   0  0  0  0  0  0  0  0  0  0  0  0
   -5.4928    0.2505   -1.2425 C   0  0  0  0  0  0  0  0  0  0  0  0
   -5.6903    1.4814   -0.6116 C   0  0  0  0  0  0  0  0  0  0  0  0
   -4.8716    1.8611    0.4477 C   0  0  0  0  0  0  0  0  0  0  0  0
   -5.1471    3.0694    1.0288 O   0  0  0  0  0  0  0  0  0  0  0  0
   -1.0434    0.8120    3.4059 C   0  0  0  0  0  0  0  0  0  0  0  0
    0.2274    0.4079    3.6498 N   0  0  0  0  0  0  0  0  0  0  0  0
    1.0192    0.2136    2.5770 C   0  0  0  0  0  0  0  0  0  0  0  0
    2.3100   -0.2141    2.8139 N   0  0  0  0  0  0  0  0  0  0  0  0
    3.1925   -0.6100    1.8586 C   0  0  0  0  0  0  0  0  0  0  0  0
    4.2928   -1.0500    2.1859 O   0  0  0  0  0  0  0  0  0  0  0  0
    7.1569   -1.0120   -0.8108 H   0  0  0  0  0  0  0  0  0  0  0  0
    7.2790   -1.3976   -2.5354 H   0  0  0  0  0  0  0  0  0  0  0  0
    6.0639   -2.2058   -1.5413 H   0  0  0  0  0  0  0  0  0  0  0  0
    5.0070   -0.4252   -2.9207 H   0  0  0  0  0  0  0  0  0  0  0  0
    6.1677    0.7532   -2.3185 H   0  0  0  0  0  0  0  0  0  0  0  0
    5.2591    0.5063   -0.0068 H   0  0  0  0  0  0  0  0  0  0  0  0
    4.0936    1.1104   -1.1704 H   0  0  0  0  0  0  0  0  0  0  0  0
    3.1104   -1.2178   -1.3873 H   0  0  0  0  0  0  0  0  0  0  0  0
    4.2554   -1.7858   -0.1744 H   0  0  0  0  0  0  0  0  0  0  0  0
    1.1464   -0.1836   -0.6958 H   0  0  0  0  0  0  0  0  0  0  0  0
    1.9761    1.2811   -0.1054 H   0  0  0  0  0  0  0  0  0  0  0  0
   -1.0355    1.0511    0.0298 H   0  0  0  0  0  0  0  0  0  0  0  0
   -2.8933   -0.9121    0.5949 H   0  0  0  0  0  0  0  0  0  0  0  0
   -4.9741   -1.6806   -3.2490 H   0  0  0  0  0  0  0  0  0  0  0  0
   -6.0752   -2.4054   -2.0127 H   0  0  0  0  0  0  0  0  0  0  0  0
   -4.6953   -3.3165   -2.6391 H   0  0  0  0  0  0  0  0  0  0  0  0
   -6.1528   -0.0111   -2.0634 H   0  0  0  0  0  0  0  0  0  0  0  0
   -6.4893    2.1416   -0.9400 H   0  0  0  0  0  0  0  0  0  0  0  0
   -4.6444    3.1183    1.8734 H   0  0  0  0  0  0  0  0  0  0  0  0
   -1.6527    0.9693    4.2931 H   0  0  0  0  0  0  0  0  0  0  0  0
    2.5831   -0.3415    3.7768 H   0  0  0  0  0  0  0  0  0  0  0  0
  1  2  1  0
  2  3  1  0
  3  4  1  0
  4  5  1  0
  5  6  1  0
  6  7  1  0
  7  8  2  0
  8  9  1  0
  9 10  1  0
 10 11  2  0
 10 12  1  0
 12 13  2  0
 13 14  1  0
 14 15  1  0
 15 16  1  0
 14 17  2  0
 17 18  1  0
 18 19  2  0
 19 20  1  0
  9 21  2  0
 21 22  1  0
 22 23  2  0
 23 24  1  0
 24 25  1  0
 25 26  2  0
 25  5  1  0
 23  7  1  0
 19 12  1  0
  1 27  1  0
  1 28  1  0
  1 29  1  0
  2 30  1  0
  2 31  1  0
  3 32  1  0
  3 33  1  0
  4 34  1  0
  4 35  1  0
  6 36  1  0
  6 37  1  0
  8 38  1  0
 13 39  1  0
 16 40  1  0
 16 41  1  0
 16 42  1  0
 17 43  1  0
 18 44  1  0
 20 45  1  0
 21 46  1  0
 24 47  1  0
M  END
$$$$
