
     RDKit          3D

 51 54  0  0  0  0  0  0  0  0999 V2000
    0.0255    3.6522    2.9468 C   0  0  0  0  0  0  0  0  0  0  0  0
    1.1397    2.6848    2.5879 C   0  0  0  0  0  0  0  0  0  0  0  0
    0.6656    1.3520    2.8236 O   0  0  0  0  0  0  0  0  0  0  0  0
    1.2295    0.4751    1.9319 C   0  0  0  0  0  0  0  0  0  0  0  0
    0.4008    0.0229    0.8975 C   0  0  0  0  0  0  0  0  0  0  0  0
    0.8918   -0.8746   -0.0646 C   0  0  0  0  0  0  0  0  0  0  0  0
    0.0331   -1.4133   -1.2071 C   0  0  0  0  0  0  0  0  0  0  0  0
   -1.1545   -2.2839   -0.7763 C   0  0  0  0  0  0  0  0  0  0  0  0
   -0.7106   -3.3752    0.1668 C   0  0  0  0  0  0  0  0  0  0  0  0
    0.2633   -4.0812   -0.1013 O   0  0  0  0  0  0  0  0  0  0  0  0
   -1.4794   -3.5753    1.4485 C   0  0  0  0  0  0  0  0  0  0  0  0
   -2.9548   -3.3025    1.2120 C   0  0  0  0  0  0  0  0  0  0  0  0
   -3.1811   -1.8477    0.8327 C   0  0  0  0  0  0  0  0  0  0  0  0
   -2.3009   -1.4024   -0.3155 C   0  0  0  0  0  0  0  0  0  0  0  0
   -2.5835   -0.2638   -0.8776 N   0  0  0  0  0  0  0  0  0  0  0  0
   -1.7606    0.1697   -1.8643 C   0  0  0  0  0  0  0  0  0  0  0  0
   -1.9388    1.0953   -2.7762 N   0  0  0  0  0  0  0  0  0  0  0  0
   -0.7526    1.1153   -3.4975 C   0  0  0  0  0  0  0  0  0  0  0  0
   -0.5062    2.0304   -4.6291 C   0  0  0  0  0  0  0  0  0  0  0  0
    0.5233    2.0406   -5.2986 O   0  0  0  0  0  0  0  0  0  0  0  0
   -1.5571    2.8793   -4.8489 O   0  0  0  0  0  0  0  0  0  0  0  0
   -1.3501    3.8087   -5.9116 C   0  0  0  0  0  0  0  0  0  0  0  0
    0.1492    0.2106   -3.0616 N   0  0  0  0  0  0  0  0  0  0  0  0
   -0.4943   -0.3229   -2.0180 N   0  0  0  0  0  0  0  0  0  0  0  0
    2.2343   -1.3042    0.0533 C   0  0  0  0  0  0  0  0  0  0  0  0
    3.0508   -0.8658    1.1067 C   0  0  0  0  0  0  0  0  0  0  0  0
    2.5495    0.0186    2.0689 C   0  0  0  0  0  0  0  0  0  0  0  0
    3.2545    0.4961    3.1415 O   0  0  0  0  0  0  0  0  0  0  0  0
    4.4698   -0.1717    3.4554 C   0  0  0  0  0  0  0  0  0  0  0  0
   -0.8664    3.4095    2.3707 H   0  0  0  0  0  0  0  0  0  0  0  0
    0.3211    4.6841    2.7423 H   0  0  0  0  0  0  0  0  0  0  0  0
   -0.2512    3.5729    4.0030 H   0  0  0  0  0  0  0  0  0  0  0  0
    1.4116    2.8407    1.5307 H   0  0  0  0  0  0  0  0  0  0  0  0
    2.0143    2.8834    3.2196 H   0  0  0  0  0  0  0  0  0  0  0  0
   -0.6152    0.4192    0.8598 H   0  0  0  0  0  0  0  0  0  0  0  0
    0.6664   -2.0023   -1.8839 H   0  0  0  0  0  0  0  0  0  0  0  0
   -1.5562   -2.8085   -1.6576 H   0  0  0  0  0  0  0  0  0  0  0  0
   -1.3490   -4.6159    1.7732 H   0  0  0  0  0  0  0  0  0  0  0  0
   -1.0635   -2.9173    2.2232 H   0  0  0  0  0  0  0  0  0  0  0  0
   -3.5187   -3.5403    2.1203 H   0  0  0  0  0  0  0  0  0  0  0  0
   -3.3377   -3.9621    0.4194 H   0  0  0  0  0  0  0  0  0  0  0  0
   -4.2318   -1.6884    0.5557 H   0  0  0  0  0  0  0  0  0  0  0  0
   -2.9612   -1.1927    1.6898 H   0  0  0  0  0  0  0  0  0  0  0  0
   -0.4543    4.4138   -5.7294 H   0  0  0  0  0  0  0  0  0  0  0  0
   -1.2764    3.2805   -6.8672 H   0  0  0  0  0  0  0  0  0  0  0  0
   -2.2154    4.4808   -5.9477 H   0  0  0  0  0  0  0  0  0  0  0  0
    2.6689   -1.9991   -0.6754 H   0  0  0  0  0  0  0  0  0  0  0  0
    4.0815   -1.2323    1.1370 H   0  0  0  0  0  0  0  0  0  0  0  0
    4.8317    0.2191    4.4126 H   0  0  0  0  0  0  0  0  0  0  0  0
    5.2333    0.0351    2.7013 H   0  0  0  0  0  0  0  0  0  0  0  0
    4.3121   -1.2474    3.5774 H   0  0  0  0  0  0  0  0  0  0  0  0
  1  2  1  0
  2  3  1  0
  3  4  1  0
  4  5  2  0
  5  6  1  0
  6  7  1  0
  7  8  1  0
  8  9  1  0
  9 10  2  0
  9 11  1  0
 11 12  1  0
 12 13  1  0
 13 14  1  0
 14 15  2  0
 15 16  1  0
 16 17  2  0
 17 18  1  0
 18 19  1  0
 19 20  2  0
 19 21  1  0
 21 22  1  0
 18 23  2  0
 23 24  1  0
  6 25  2  0
 25 26  1  0
 26 27  2  0
 27 28  1  0
 28 29  1  0
 27  4  1  0
 24  7  1  0
 14  8  1  0
 24 16  1  0
  1 30  1  0
  1 31  1  0
  1 32  1  0
  2 33  1  0
  2 34  1  0
  5 35  1  0
  7 36  1  0
  8 37  1  0
 11 38  1  0
 11 39  1  0
 12 40  1  0
 12 41  1  0
 13 42  1  0
 13 43  1  0
 22 44  1  0
 22 45  1  0
 22 46  1  0
 25 47  1  0
 26 48  1  0
 29 49  1  0
 29 50  1  0
 29 51  1  0
M  END
$$$$
