
     RDKit          3D

 47 49  0  0  0  0  0  0  0  0999 V2000
    4.3479    0.9594    3.1254 C   0  0  0  0  0  0  0  0  0  0  0  0
    3.7815    0.6844    1.8497 O   0  0  0  0  0  0  0  0  0  0  0  0
    4.6603    0.4128    0.8240 C   0  0  0  0  0  0  0  0  0  0  0  0
    6.0535    0.4066    0.9448 C   0  0  0  0  0  0  0  0  0  0  0  0
    6.8516    0.1160   -0.1636 C   0  0  0  0  0  0  0  0  0  0  0  0
    6.2636   -0.1721   -1.3923 C   0  0  0  0  0  0  0  0  0  0  0  0
    4.8736   -0.1683   -1.5231 C   0  0  0  0  0  0  0  0  0  0  0  0
    4.0641    0.1300   -0.4250 C   0  0  0  0  0  0  0  0  0  0  0  0
    2.6503    0.1407   -0.4754 N   0  0  0  0  0  0  0  0  0  0  0  0
    1.8401    0.1066   -1.5844 C   0  0  0  0  0  0  0  0  0  0  0  0
    2.2550    0.1884   -2.7389 O   0  0  0  0  0  0  0  0  0  0  0  0
    0.4690   -0.0235   -1.3139 N   0  0  0  0  0  0  0  0  0  0  0  0
   -0.4377    0.2819   -2.4222 C   0  0  0  0  0  0  0  0  0  0  0  0
   -1.7532   -0.4811   -2.3438 C   0  0  0  0  0  0  0  0  0  0  0  0
   -2.4197   -0.2819   -0.9782 C   0  0  0  0  0  0  0  0  0  0  0  0
   -3.7319   -1.0587   -0.8953 C   0  0  0  0  0  0  0  0  0  0  0  0
   -3.9592   -2.0188   -1.6307 O   0  0  0  0  0  0  0  0  0  0  0  0
   -4.7716   -0.6685    0.1127 C   0  0  0  0  0  0  0  0  0  0  0  0
   -4.6350    0.4371    0.9645 C   0  0  0  0  0  0  0  0  0  0  0  0
   -5.6443    0.7464    1.8827 C   0  0  0  0  0  0  0  0  0  0  0  0
   -6.7853   -0.0445    1.9492 C   0  0  0  0  0  0  0  0  0  0  0  0
   -7.7465    0.2577    2.8308 F   0  0  0  0  0  0  0  0  0  0  0  0
   -6.9403   -1.1422    1.1140 C   0  0  0  0  0  0  0  0  0  0  0  0
   -5.9347   -1.4539    0.1961 C   0  0  0  0  0  0  0  0  0  0  0  0
   -1.4529   -0.7563    0.1058 C   0  0  0  0  0  0  0  0  0  0  0  0
   -0.1153   -0.0254    0.0281 C   0  0  0  0  0  0  0  0  0  0  0  0
    3.5246    1.1429    3.8225 H   0  0  0  0  0  0  0  0  0  0  0  0
    4.9146    0.1006    3.4998 H   0  0  0  0  0  0  0  0  0  0  0  0
    4.9659    1.8627    3.0964 H   0  0  0  0  0  0  0  0  0  0  0  0
    6.5514    0.6229    1.8835 H   0  0  0  0  0  0  0  0  0  0  0  0
    7.9346    0.1116   -0.0681 H   0  0  0  0  0  0  0  0  0  0  0  0
    6.8843   -0.4036   -2.2545 H   0  0  0  0  0  0  0  0  0  0  0  0
    4.4490   -0.4112   -2.4923 H   0  0  0  0  0  0  0  0  0  0  0  0
    2.2383    0.4021    0.4067 H   0  0  0  0  0  0  0  0  0  0  0  0
   -0.6250    1.3625   -2.3911 H   0  0  0  0  0  0  0  0  0  0  0  0
    0.0369    0.0672   -3.3855 H   0  0  0  0  0  0  0  0  0  0  0  0
   -2.4228   -0.1464   -3.1453 H   0  0  0  0  0  0  0  0  0  0  0  0
   -1.5602   -1.5477   -2.5194 H   0  0  0  0  0  0  0  0  0  0  0  0
   -2.6307    0.7882   -0.8732 H   0  0  0  0  0  0  0  0  0  0  0  0
   -3.7600    1.0781    0.9415 H   0  0  0  0  0  0  0  0  0  0  0  0
   -5.5485    1.6006    2.5466 H   0  0  0  0  0  0  0  0  0  0  0  0
   -7.8386   -1.7484    1.1790 H   0  0  0  0  0  0  0  0  0  0  0  0
   -6.0638   -2.3164   -0.4567 H   0  0  0  0  0  0  0  0  0  0  0  0
   -1.8814   -0.6189    1.1049 H   0  0  0  0  0  0  0  0  0  0  0  0
   -1.2804   -1.8354   -0.0060 H   0  0  0  0  0  0  0  0  0  0  0  0
   -0.2343    1.0220    0.3297 H   0  0  0  0  0  0  0  0  0  0  0  0
    0.5632   -0.5034    0.7405 H   0  0  0  0  0  0  0  0  0  0  0  0
  1  2  1  0
  2  3  1  0
  3  4  2  0
  4  5  1  0
  5  6  2  0
  6  7  1  0
  7  8  2  0
  8  9  1  0
  9 10  1  0
 10 11  2  0
 10 12  1  0
 12 13  1  0
 13 14  1  0
 14 15  1  0
 15 16  1  0
 16 17  2  0
 16 18  1  0
 18 19  2  0
 19 20  1  0
 20 21  2  0
 21 22  1  0
 21 23  1  0
 23 24  2  0
 15 25  1  0
 25 26  1  0
  8  3  1  0
 26 12  1  0
 24 18  1  0
  1 27  1  0
  1 28  1  0
  1 29  1  0
  4 30  1  0
  5 31  1  0
  6 32  1  0
  7 33  1  0
  9 34  1  0
 13 35  1  0
 13 36  1  0
 14 37  1  0
 14 38  1  0
 15 39  1  0
 19 40  1  0
 20 41  1  0
 23 42  1  0
 24 43  1  0
 25 44  1  0
 25 45  1  0
 26 46  1  0
 26 47  1  0
M  END
$$$$
