
     RDKit          3D

 49 52  0  0  0  0  0  0  0  0999 V2000
   -5.9409    2.8734    0.7121 C   0  0  0  0  0  0  0  0  0  0  0  0
   -4.6004    2.3768    1.2173 C   0  0  0  0  0  0  0  0  0  0  0  0
   -3.8027    2.0136    0.0833 O   0  0  0  0  0  0  0  0  0  0  0  0
   -2.5720    1.5148    0.4039 C   0  0  0  0  0  0  0  0  0  0  0  0
   -2.1422    1.4016    1.5427 O   0  0  0  0  0  0  0  0  0  0  0  0
   -1.8228    1.1759   -0.8676 C   0  0  0  0  0  0  0  0  0  0  0  0
   -0.6716    0.2111   -0.6637 C   0  0  0  0  0  0  0  0  0  0  0  0
    0.5982    0.8249   -0.5847 C   0  0  0  0  0  0  0  0  0  0  0  0
    1.7359    0.0592   -0.4224 C   0  0  0  0  0  0  0  0  0  0  0  0
    3.0970    0.6264   -0.3354 C   0  0  0  0  0  0  0  0  0  0  0  0
    4.0860    0.0007    0.4457 C   0  0  0  0  0  0  0  0  0  0  0  0
    5.3844    0.5190    0.5506 C   0  0  0  0  0  0  0  0  0  0  0  0
    5.7293    1.6815   -0.1326 C   0  0  0  0  0  0  0  0  0  0  0  0
    6.9518    2.2933   -0.1196 O   0  0  0  0  0  0  0  0  0  0  0  0
    7.9665    1.6797    0.6654 C   0  0  0  0  0  0  0  0  0  0  0  0
    4.7671    2.3127   -0.9201 C   0  0  0  0  0  0  0  0  0  0  0  0
    3.4706    1.7933   -1.0230 C   0  0  0  0  0  0  0  0  0  0  0  0
    1.6480   -1.2792   -0.3286 N   0  0  0  0  0  0  0  0  0  0  0  0
    0.4514   -1.8791   -0.3858 C   0  0  0  0  0  0  0  0  0  0  0  0
    0.5190   -3.2503   -0.2807 C   0  0  0  0  0  0  0  0  0  0  0  0
   -0.6116   -4.0511   -0.3176 C   0  0  0  0  0  0  0  0  0  0  0  0
   -1.8704   -3.4830   -0.4527 C   0  0  0  0  0  0  0  0  0  0  0  0
   -2.9776   -4.3498   -0.4726 C   0  0  0  0  0  0  0  0  0  0  0  0
   -4.2708   -3.8623   -0.5920 C   0  0  0  0  0  0  0  0  0  0  0  0
   -4.4630   -2.4985   -0.6883 C   0  0  0  0  0  0  0  0  0  0  0  0
   -3.3608   -1.6319   -0.6708 C   0  0  0  0  0  0  0  0  0  0  0  0
   -2.0116   -2.0707   -0.5610 C   0  0  0  0  0  0  0  0  0  0  0  0
   -0.7993   -1.2218   -0.5427 C   0  0  0  0  0  0  0  0  0  0  0  0
   -5.8081    3.7348    0.0492 H   0  0  0  0  0  0  0  0  0  0  0  0
   -6.4441    2.0962    0.1274 H   0  0  0  0  0  0  0  0  0  0  0  0
   -6.5880    3.1644    1.5442 H   0  0  0  0  0  0  0  0  0  0  0  0
   -4.0992    3.1715    1.7811 H   0  0  0  0  0  0  0  0  0  0  0  0
   -4.7492    1.5027    1.8612 H   0  0  0  0  0  0  0  0  0  0  0  0
   -2.4882    0.7977   -1.6480 H   0  0  0  0  0  0  0  0  0  0  0  0
   -1.4485    2.1288   -1.2657 H   0  0  0  0  0  0  0  0  0  0  0  0
    0.6836    1.9070   -0.6307 H   0  0  0  0  0  0  0  0  0  0  0  0
    3.8420   -0.9113    0.9900 H   0  0  0  0  0  0  0  0  0  0  0  0
    6.0940   -0.0148    1.1733 H   0  0  0  0  0  0  0  0  0  0  0  0
    8.8739    2.2839    0.5700 H   0  0  0  0  0  0  0  0  0  0  0  0
    7.6892    1.6608    1.7246 H   0  0  0  0  0  0  0  0  0  0  0  0
    8.1963    0.6740    0.2979 H   0  0  0  0  0  0  0  0  0  0  0  0
    5.0287    3.2162   -1.4658 H   0  0  0  0  0  0  0  0  0  0  0  0
    2.7638    2.3095   -1.6678 H   0  0  0  0  0  0  0  0  0  0  0  0
    1.4931   -3.7229   -0.1665 H   0  0  0  0  0  0  0  0  0  0  0  0
   -0.4857   -5.1283   -0.2311 H   0  0  0  0  0  0  0  0  0  0  0  0
   -2.8382   -5.4265   -0.3902 H   0  0  0  0  0  0  0  0  0  0  0  0
   -5.1171   -4.5428   -0.6034 H   0  0  0  0  0  0  0  0  0  0  0  0
   -5.4686   -2.0942   -0.7741 H   0  0  0  0  0  0  0  0  0  0  0  0
   -3.6171   -0.5869   -0.7380 H   0  0  0  0  0  0  0  0  0  0  0  0
  1  2  1  0
  2  3  1  0
  3  4  1  0
  4  5  2  0
  4  6  1  0
  6  7  1  0
  7  8  2  0
  8  9  1  0
  9 10  1  0
 10 11  2  0
 11 12  1  0
 12 13  2  0
 13 14  1  0
 14 15  1  0
 13 16  1  0
 16 17  2  0
  9 18  2  0
 18 19  1  0
 19 20  2  0
 20 21  1  0
 21 22  2  0
 22 23  1  0
 23 24  2  0
 24 25  1  0
 25 26  2  0
 26 27  1  0
 27 28  2  0
 28  7  1  0
 17 10  1  0
 28 19  1  0
 27 22  1  0
  1 29  1  0
  1 30  1  0
  1 31  1  0
  2 32  1  0
  2 33  1  0
  6 34  1  0
  6 35  1  0
  8 36  1  0
 11 37  1  0
 12 38  1  0
 15 39  1  0
 15 40  1  0
 15 41  1  0
 16 42  1  0
 17 43  1  0
 20 44  1  0
 21 45  1  0
 23 46  1  0
 24 47  1  0
 25 48  1  0
 26 49  1  0
M  END
$$$$
