
     RDKit          3D

 58 62  0  0  0  0  0  0  0  0999 V2000
   -6.7516    1.5008   -4.0832 C   0  0  0  0  0  0  0  0  0  0  0  0
   -5.8316    0.4289   -3.9142 O   0  0  0  0  0  0  0  0  0  0  0  0
   -4.8028    0.6301   -3.0368 C   0  0  0  0  0  0  0  0  0  0  0  0
   -3.8689   -0.4086   -2.9856 C   0  0  0  0  0  0  0  0  0  0  0  0
   -2.7640   -0.3362   -2.1328 C   0  0  0  0  0  0  0  0  0  0  0  0
   -2.5953    0.7785   -1.3055 C   0  0  0  0  0  0  0  0  0  0  0  0
   -1.4217    0.8994   -0.3921 C   0  0  0  0  0  0  0  0  0  0  0  0
   -0.9064    2.0662   -0.2002 N   0  0  0  0  0  0  0  0  0  0  0  0
    0.2578    2.1811    0.6743 C   0  0  0  0  0  0  0  0  0  0  0  0
    1.4977    1.5845    0.0103 C   0  0  0  0  0  0  0  0  0  0  0  0
    2.4538    2.3131   -0.2820 O   0  0  0  0  0  0  0  0  0  0  0  0
    1.5746    0.1954   -0.1303 N   0  0  0  0  0  0  0  0  0  0  0  0
    2.8548   -0.3541   -0.6023 C   0  0  0  0  0  0  0  0  0  0  0  0
    3.8898   -0.5542    0.5090 C   0  0  0  0  0  0  0  0  0  0  0  0
    4.5338   -1.5973    0.6157 O   0  0  0  0  0  0  0  0  0  0  0  0
    4.1205    0.5528    1.2979 N   0  0  0  0  0  0  0  0  0  0  0  0
    5.1905    0.5760    2.2678 C   0  0  0  0  0  0  0  0  0  0  0  0
    6.4151    1.1031    1.6192 C   0  0  0  0  0  0  0  0  0  0  0  0
    7.4174    0.5186    0.8718 C   0  0  0  0  0  0  0  0  0  0  0  0
    8.3128    1.5573    0.5229 C   0  0  0  0  0  0  0  0  0  0  0  0
    7.8002    2.7071    1.0765 C   0  0  0  0  0  0  0  0  0  0  0  0
    6.6483    2.4422    1.7449 O   0  0  0  0  0  0  0  0  0  0  0  0
    0.4820   -0.5940    0.2463 C   0  0  0  0  0  0  0  0  0  0  0  0
    0.7987   -2.1708    0.8176 S   0  0  0  0  0  0  0  0  0  0  0  0
   -0.8240   -2.4206    1.2338 C   0  0  0  0  0  0  0  0  0  0  0  0
   -1.6322   -1.3575    0.8800 C   0  0  0  0  0  0  0  0  0  0  0  0
   -0.8761   -0.3086    0.2288 C   0  0  0  0  0  0  0  0  0  0  0  0
   -3.1095   -1.3753    1.1698 C   0  0  0  0  0  0  0  0  0  0  0  0
   -3.4657   -2.4154    2.2432 C   0  0  0  0  0  0  0  0  0  0  0  0
   -2.8036   -3.7667    1.9454 C   0  0  0  0  0  0  0  0  0  0  0  0
   -1.2716   -3.6600    1.9474 C   0  0  0  0  0  0  0  0  0  0  0  0
   -3.5209    1.8271   -1.3671 C   0  0  0  0  0  0  0  0  0  0  0  0
   -4.6243    1.7501   -2.2247 C   0  0  0  0  0  0  0  0  0  0  0  0
   -7.3063    1.6915   -3.1585 H   0  0  0  0  0  0  0  0  0  0  0  0
   -6.2453    2.4061   -4.4353 H   0  0  0  0  0  0  0  0  0  0  0  0
   -7.4740    1.2035   -4.8498 H   0  0  0  0  0  0  0  0  0  0  0  0
   -3.9992   -1.2788   -3.6249 H   0  0  0  0  0  0  0  0  0  0  0  0
   -2.0444   -1.1508   -2.1350 H   0  0  0  0  0  0  0  0  0  0  0  0
    0.4511    3.2472    0.8410 H   0  0  0  0  0  0  0  0  0  0  0  0
    0.0948    1.7461    1.6674 H   0  0  0  0  0  0  0  0  0  0  0  0
    3.2947    0.3221   -1.3458 H   0  0  0  0  0  0  0  0  0  0  0  0
    2.6815   -1.3059   -1.1164 H   0  0  0  0  0  0  0  0  0  0  0  0
    3.8359    1.4537    0.9158 H   0  0  0  0  0  0  0  0  0  0  0  0
    4.8748    1.2285    3.0877 H   0  0  0  0  0  0  0  0  0  0  0  0
    5.3633   -0.4266    2.6702 H   0  0  0  0  0  0  0  0  0  0  0  0
    7.4792   -0.5295    0.6094 H   0  0  0  0  0  0  0  0  0  0  0  0
    9.2171    1.4796   -0.0635 H   0  0  0  0  0  0  0  0  0  0  0  0
    8.1168    3.7412    1.0848 H   0  0  0  0  0  0  0  0  0  0  0  0
   -3.6519   -1.6238    0.2507 H   0  0  0  0  0  0  0  0  0  0  0  0
   -3.4449   -0.3857    1.4992 H   0  0  0  0  0  0  0  0  0  0  0  0
   -3.1369   -2.0593    3.2283 H   0  0  0  0  0  0  0  0  0  0  0  0
   -4.5544   -2.5339    2.2904 H   0  0  0  0  0  0  0  0  0  0  0  0
   -3.1444   -4.1240    0.9645 H   0  0  0  0  0  0  0  0  0  0  0  0
   -3.1194   -4.5125    2.6834 H   0  0  0  0  0  0  0  0  0  0  0  0
   -0.9151   -3.6188    2.9843 H   0  0  0  0  0  0  0  0  0  0  0  0
   -0.8433   -4.5568    1.4851 H   0  0  0  0  0  0  0  0  0  0  0  0
   -3.3870    2.7113   -0.7476 H   0  0  0  0  0  0  0  0  0  0  0  0
   -5.3203    2.5824   -2.2348 H   0  0  0  0  0  0  0  0  0  0  0  0
  1  2  1  0
  2  3  1  0
  3  4  2  0
  4  5  1  0
  5  6  2  0
  6  7  1  0
  7  8  2  0
  8  9  1  0
  9 10  1  0
 10 11  2  0
 10 12  1  0
 12 13  1  0
 13 14  1  0
 14 15  2  0
 14 16  1  0
 16 17  1  0
 17 18  1  0
 18 19  2  0
 19 20  1  0
 20 21  2  0
 21 22  1  0
 12 23  1  0
 23 24  1  0
 24 25  1  0
 25 26  2  0
 26 27  1  0
 26 28  1  0
 28 29  1  0
 29 30  1  0
 30 31  1  0
  6 32  1  0
 32 33  2  0
 33  3  1  0
 27  7  1  0
 22 18  1  0
 27 23  2  0
 31 25  1  0
  1 34  1  0
  1 35  1  0
  1 36  1  0
  4 37  1  0
  5 38  1  0
  9 39  1  0
  9 40  1  0
 13 41  1  0
 13 42  1  0
 16 43  1  0
 17 44  1  0
 17 45  1  0
 19 46  1  0
 20 47  1  0
 21 48  1  0
 28 49  1  0
 28 50  1  0
 29 51  1  0
 29 52  1  0
 30 53  1  0
 30 54  1  0
 31 55  1  0
 31 56  1  0
 32 57  1  0
 33 58  1  0
M  END
$$$$
