
     RDKit          3D

 35 37  0  0  0  0  0  0  0  0999 V2000
    0.5333    1.0003   -2.3710 O   0  0  0  0  0  0  0  0  0  0  0  0
    1.4858    0.6930   -1.4983 C   0  0  0  0  0  0  0  0  0  0  0  0
    2.7890    0.6373   -1.8987 N   0  0  0  0  0  0  0  0  0  0  0  0
    3.6003    0.3022   -0.8398 C   0  0  0  0  0  0  0  0  0  0  0  0
    4.9887    0.1318   -0.7866 C   0  0  0  0  0  0  0  0  0  0  0  0
    5.5522   -0.2138    0.4446 C   0  0  0  0  0  0  0  0  0  0  0  0
    4.7573   -0.3815    1.5756 C   0  0  0  0  0  0  0  0  0  0  0  0
    3.3699   -0.2075    1.5059 C   0  0  0  0  0  0  0  0  0  0  0  0
    2.7736    0.1414    0.2753 C   0  0  0  0  0  0  0  0  0  0  0  0
    1.4301    0.3911   -0.1508 C   0  0  0  0  0  0  0  0  0  0  0  0
    0.2219    0.3426    0.6420 C   0  0  0  0  0  0  0  0  0  0  0  0
   -0.9083    0.6138    0.0643 N   0  0  0  0  0  0  0  0  0  0  0  0
   -2.0277    0.5147    0.8664 N   0  0  0  0  0  0  0  0  0  0  0  0
   -3.1704    1.2935    0.3797 C   0  0  0  0  0  0  0  0  0  0  0  0
   -3.9157    0.5515   -0.7276 C   0  0  0  0  0  0  0  0  0  0  0  0
   -4.3160   -0.8538   -0.2737 C   0  0  0  0  0  0  0  0  0  0  0  0
   -3.1138   -1.6255    0.2746 C   0  0  0  0  0  0  0  0  0  0  0  0
   -2.3924   -0.8232    1.3562 C   0  0  0  0  0  0  0  0  0  0  0  0
   -0.3051    0.9857   -1.8555 H   0  0  0  0  0  0  0  0  0  0  0  0
    3.0989    0.8190   -2.8417 H   0  0  0  0  0  0  0  0  0  0  0  0
    5.6107    0.2624   -1.6663 H   0  0  0  0  0  0  0  0  0  0  0  0
    6.6285   -0.3529    0.5190 H   0  0  0  0  0  0  0  0  0  0  0  0
    5.2178   -0.6495    2.5235 H   0  0  0  0  0  0  0  0  0  0  0  0
    2.7657   -0.3410    2.3983 H   0  0  0  0  0  0  0  0  0  0  0  0
    0.3051    0.0864    1.7116 H   0  0  0  0  0  0  0  0  0  0  0  0
   -3.8328    1.4740    1.2343 H   0  0  0  0  0  0  0  0  0  0  0  0
   -2.8119    2.2673    0.0280 H   0  0  0  0  0  0  0  0  0  0  0  0
   -3.2746    0.4725   -1.6143 H   0  0  0  0  0  0  0  0  0  0  0  0
   -4.8067    1.1169   -1.0216 H   0  0  0  0  0  0  0  0  0  0  0  0
   -4.7598   -1.4029   -1.1115 H   0  0  0  0  0  0  0  0  0  0  0  0
   -5.0850   -0.7785    0.5050 H   0  0  0  0  0  0  0  0  0  0  0  0
   -3.4431   -2.5878    0.6814 H   0  0  0  0  0  0  0  0  0  0  0  0
   -2.4202   -1.8408   -0.5476 H   0  0  0  0  0  0  0  0  0  0  0  0
   -3.0448   -0.6833    2.2262 H   0  0  0  0  0  0  0  0  0  0  0  0
   -1.5007   -1.3552    1.7015 H   0  0  0  0  0  0  0  0  0  0  0  0
  1  2  1  0
  2  3  1  0
  3  4  1  0
  4  5  2  0
  5  6  1  0
  6  7  2  0
  7  8  1  0
  8  9  2  0
  9 10  1  0
 10 11  1  0
 11 12  2  3
 12 13  1  0
 13 14  1  0
 14 15  1  0
 15 16  1  0
 16 17  1  0
 17 18  1  0
 10  2  2  0
 18 13  1  0
  9  4  1  0
  1 19  1  0
  3 20  1  0
  5 21  1  0
  6 22  1  0
  7 23  1  0
  8 24  1  0
 11 25  1  0
 14 26  1  0
 14 27  1  0
 15 28  1  0
 15 29  1  0
 16 30  1  0
 16 31  1  0
 17 32  1  0
 17 33  1  0
 18 34  1  0
 18 35  1  0
M  END
$$$$
