
     RDKit          3D

 35 37  0  0  0  0  0  0  0  0999 V2000
   -3.8212    2.4508    0.4249 C   0  0  0  0  0  0  0  0  0  0  0  0
   -3.2063    1.1212    0.0974 C   0  0  0  0  0  0  0  0  0  0  0  0
   -3.3991    0.0238    0.9481 C   0  0  0  0  0  0  0  0  0  0  0  0
   -2.8044   -1.2061    0.6625 C   0  0  0  0  0  0  0  0  0  0  0  0
   -1.9954   -1.3317   -0.4698 C   0  0  0  0  0  0  0  0  0  0  0  0
   -1.2386   -2.8996   -0.8325 S   0  0  0  0  0  6  0  0  0  0  0  0
   -2.0879   -3.9328   -0.2778 O   0  0  0  0  0  0  0  0  0  0  0  0
   -0.8604   -2.9079   -2.2296 O   0  0  0  0  0  0  0  0  0  0  0  0
    0.1559   -2.8755    0.1249 N   0  0  0  0  0  0  0  0  0  0  0  0
    1.0728   -1.7987   -0.0137 C   0  0  0  0  0  0  0  0  0  0  0  0
    1.2275   -0.8964    1.0372 C   0  0  0  0  0  0  0  0  0  0  0  0
    2.0957    0.1911    0.9027 C   0  0  0  0  0  0  0  0  0  0  0  0
    2.8161    0.3783   -0.2878 C   0  0  0  0  0  0  0  0  0  0  0  0
    3.6881    1.4873   -0.4078 N   0  0  0  0  0  0  0  0  0  0  0  0
    4.4830    1.8666   -1.4600 C   0  0  0  0  0  0  0  0  0  0  0  0
    5.1285    2.9659   -1.1444 N   0  0  0  0  0  0  0  0  0  0  0  0
    4.7300    3.2778    0.1280 N   0  0  0  0  0  0  0  0  0  0  0  0
    3.8582    2.3904    0.5854 N   0  0  0  0  0  0  0  0  0  0  0  0
    2.6597   -0.5345   -1.3396 C   0  0  0  0  0  0  0  0  0  0  0  0
    1.7872   -1.6188   -1.1974 C   0  0  0  0  0  0  0  0  0  0  0  0
   -1.7990   -0.2489   -1.3303 C   0  0  0  0  0  0  0  0  0  0  0  0
   -2.3955    0.9781   -1.0372 C   0  0  0  0  0  0  0  0  0  0  0  0
   -3.1373    3.0352    1.0482 H   0  0  0  0  0  0  0  0  0  0  0  0
   -4.7673    2.3223    0.9612 H   0  0  0  0  0  0  0  0  0  0  0  0
   -4.0396    3.0155   -0.4875 H   0  0  0  0  0  0  0  0  0  0  0  0
   -4.0226    0.1214    1.8349 H   0  0  0  0  0  0  0  0  0  0  0  0
   -2.9792   -2.0538    1.3209 H   0  0  0  0  0  0  0  0  0  0  0  0
   -0.0254   -3.2324    1.0617 H   0  0  0  0  0  0  0  0  0  0  0  0
    0.6704   -1.0166    1.9626 H   0  0  0  0  0  0  0  0  0  0  0  0
    2.1929    0.8839    1.7379 H   0  0  0  0  0  0  0  0  0  0  0  0
    4.5571    1.3360   -2.3952 H   0  0  0  0  0  0  0  0  0  0  0  0
    3.1934   -0.4402   -2.2812 H   0  0  0  0  0  0  0  0  0  0  0  0
    1.6759   -2.3257   -2.0178 H   0  0  0  0  0  0  0  0  0  0  0  0
   -1.1830   -0.3490   -2.2210 H   0  0  0  0  0  0  0  0  0  0  0  0
   -2.2301    1.8230   -1.7029 H   0  0  0  0  0  0  0  0  0  0  0  0
  1  2  1  0
  2  3  2  0
  3  4  1  0
  4  5  2  0
  5  6  1  0
  6  7  2  0
  6  8  2  0
  6  9  1  0
  9 10  1  0
 10 11  2  0
 11 12  1  0
 12 13  2  0
 13 14  1  0
 14 15  1  0
 15 16  2  0
 16 17  1  0
 17 18  2  0
 13 19  1  0
 19 20  2  0
  5 21  1  0
 21 22  2  0
 22  2  1  0
 20 10  1  0
 18 14  1  0
  1 23  1  0
  1 24  1  0
  1 25  1  0
  3 26  1  0
  4 27  1  0
  9 28  1  0
 11 29  1  0
 12 30  1  0
 15 31  1  0
 19 32  1  0
 20 33  1  0
 21 34  1  0
 22 35  1  0
M  END
$$$$
