
     RDKit          3D

 72 76  0  0  0  0  0  0  0  0999 V2000
    8.3753    0.5667    0.9106 C   0  0  0  0  0  0  0  0  0  0  0  0
    7.3554   -0.5661    1.0707 C   0  0  0  0  0  0  0  0  0  0  0  0
    7.0319   -0.8427    2.5434 C   0  0  0  0  0  0  0  0  0  0  0  0
    7.9405   -1.8442    0.4500 C   0  0  0  0  0  0  0  0  0  0  0  0
    6.1508   -0.3043    0.3060 O   0  0  0  0  0  0  0  0  0  0  0  0
    5.3703    0.7620    0.5940 C   0  0  0  0  0  0  0  0  0  0  0  0
    5.5689    1.5863    1.4711 O   0  0  0  0  0  0  0  0  0  0  0  0
    4.3063    0.7598   -0.2550 N   0  0  0  0  0  0  0  0  0  0  0  0
    3.2147    1.6987   -0.1515 C   0  0  0  0  0  0  0  0  0  0  0  0
    2.2120    1.3215    0.9400 C   0  0  0  0  0  0  0  0  0  0  0  0
    1.5569   -0.0528    0.7651 C   0  0  0  0  0  0  0  0  0  0  0  0
    0.8013   -0.2808   -0.5492 C   0  0  0  0  0  0  0  0  0  0  0  0
   -0.2137    0.7953   -0.9505 C   0  0  1  0  0  0  0  0  0  0  0  0
   -0.7221    0.4768   -2.3453 N   0  0  0  0  0  0  0  0  0  0  0  0
   -2.1463    0.9400   -2.4190 C   0  0  0  0  0  0  0  0  0  0  0  0
   -2.2680    2.3222   -3.1258 C   0  0  0  0  0  0  0  0  0  0  0  0
   -1.7267    3.3815   -2.8456 O   0  0  0  0  0  0  0  0  0  0  0  0
   -3.1551    2.1460   -4.1933 N   0  0  0  0  0  0  0  0  0  0  0  0
   -3.6131    0.8377   -4.2624 C   0  0  0  0  0  0  0  0  0  0  0  0
   -4.4962    0.3175   -5.1849 C   0  0  0  0  0  0  0  0  0  0  0  0
   -4.8342   -1.0320   -5.0602 C   0  0  0  0  0  0  0  0  0  0  0  0
   -4.2885   -1.8192   -4.0298 C   0  0  0  0  0  0  0  0  0  0  0  0
   -3.3928   -1.2713   -3.1067 C   0  0  0  0  0  0  0  0  0  0  0  0
   -3.0595    0.0693   -3.2335 C   0  0  0  0  0  0  0  0  0  0  0  0
   -2.5848    0.9433   -1.0160 C   0  0  0  0  0  0  0  0  0  0  0  0
   -1.4725    0.8547   -0.1690 C   0  0  0  0  0  0  0  0  0  0  0  0
   -1.9046    0.9352    1.1291 C   0  0  0  0  0  0  0  0  0  0  0  0
   -1.1893    0.9705    2.2465 O   0  0  0  0  0  0  0  0  0  0  0  0
   -3.2954    0.9850    1.0758 N   0  0  0  0  0  0  0  0  0  0  0  0
   -4.2129    1.0294    2.2090 C   0  0  0  0  0  0  0  0  0  0  0  0
   -4.6272   -0.3552    2.6446 C   0  0  0  0  0  0  0  0  0  0  0  0
   -3.8778   -1.0753    3.5873 C   0  0  0  0  0  0  0  0  0  0  0  0
   -4.2666   -2.3611    3.9698 C   0  0  0  0  0  0  0  0  0  0  0  0
   -5.4046   -2.9424    3.4136 C   0  0  0  0  0  0  0  0  0  0  0  0
   -6.1544   -2.2408    2.4717 C   0  0  0  0  0  0  0  0  0  0  0  0
   -5.7672   -0.9561    2.0877 C   0  0  0  0  0  0  0  0  0  0  0  0
   -3.7150    1.0269   -0.2481 C   0  0  0  0  0  0  0  0  0  0  0  0
   -5.0009    1.1258   -0.5635 O   0  0  0  0  0  0  0  0  0  0  0  0
    8.0411    1.4892    1.3948 H   0  0  0  0  0  0  0  0  0  0  0  0
    8.5280    0.8054   -0.1479 H   0  0  0  0  0  0  0  0  0  0  0  0
    9.3422    0.2977    1.3498 H   0  0  0  0  0  0  0  0  0  0  0  0
    6.6816    0.0552    3.0607 H   0  0  0  0  0  0  0  0  0  0  0  0
    7.9120   -1.2083    3.0833 H   0  0  0  0  0  0  0  0  0  0  0  0
    6.2337   -1.5881    2.6324 H   0  0  0  0  0  0  0  0  0  0  0  0
    8.1562   -1.6968   -0.6150 H   0  0  0  0  0  0  0  0  0  0  0  0
    7.2220   -2.6703    0.5088 H   0  0  0  0  0  0  0  0  0  0  0  0
    8.8643   -2.1534    0.9504 H   0  0  0  0  0  0  0  0  0  0  0  0
    4.2405   -0.0324   -0.8774 H   0  0  0  0  0  0  0  0  0  0  0  0
    3.6293    2.6892    0.0684 H   0  0  0  0  0  0  0  0  0  0  0  0
    2.7348    1.7510   -1.1331 H   0  0  0  0  0  0  0  0  0  0  0  0
    1.4383    2.0956    0.9957 H   0  0  0  0  0  0  0  0  0  0  0  0
    2.7196    1.3307    1.9130 H   0  0  0  0  0  0  0  0  0  0  0  0
    0.8822   -0.2295    1.6081 H   0  0  0  0  0  0  0  0  0  0  0  0
    2.3277   -0.8294    0.8523 H   0  0  0  0  0  0  0  0  0  0  0  0
    1.5468   -0.3781   -1.3501 H   0  0  0  0  0  0  0  0  0  0  0  0
    0.3044   -1.2587   -0.4828 H   0  0  0  0  0  0  0  0  0  0  0  0
    0.2496    1.7866   -0.9932 H   0  0  0  0  0  0  0  0  0  0  0  0
   -0.7557   -0.5387   -2.4129 H   0  0  0  0  0  0  0  0  0  0  0  0
   -3.3950    2.8953   -4.8245 H   0  0  0  0  0  0  0  0  0  0  0  0
   -4.9160    0.9239   -5.9794 H   0  0  0  0  0  0  0  0  0  0  0  0
   -5.5275   -1.4825   -5.7676 H   0  0  0  0  0  0  0  0  0  0  0  0
   -4.5680   -2.8681   -3.9507 H   0  0  0  0  0  0  0  0  0  0  0  0
   -2.9815   -1.8809   -2.3069 H   0  0  0  0  0  0  0  0  0  0  0  0
   -1.7577    1.1288    3.0146 H   0  0  0  0  0  0  0  0  0  0  0  0
   -5.0865    1.6282    1.9250 H   0  0  0  0  0  0  0  0  0  0  0  0
   -3.7334    1.5741    3.0291 H   0  0  0  0  0  0  0  0  0  0  0  0
   -2.9814   -0.6492    4.0302 H   0  0  0  0  0  0  0  0  0  0  0  0
   -3.6769   -2.9123    4.6988 H   0  0  0  0  0  0  0  0  0  0  0  0
   -5.7049   -3.9439    3.7101 H   0  0  0  0  0  0  0  0  0  0  0  0
   -7.0387   -2.6950    2.0319 H   0  0  0  0  0  0  0  0  0  0  0  0
   -6.3567   -0.4250    1.3414 H   0  0  0  0  0  0  0  0  0  0  0  0
   -5.0691    1.0819   -1.5345 H   0  0  0  0  0  0  0  0  0  0  0  0
  1  2  1  0
  2  3  1  0
  2  4  1  0
  2  5  1  0
  5  6  1  0
  6  7  2  0
  6  8  1  0
  8  9  1  0
  9 10  1  0
 10 11  1  0
 11 12  1  0
 12 13  1  0
 13 14  1  0
 14 15  1  0
 15 16  1  0
 16 17  2  0
 16 18  1  0
 18 19  1  0
 19 20  2  0
 20 21  1  0
 21 22  2  0
 22 23  1  0
 23 24  2  0
 15 25  1  0
 25 26  1  0
 26 27  2  0
 27 28  1  0
 27 29  1  0
 29 30  1  0
 30 31  1  0
 31 32  2  0
 32 33  1  0
 33 34  2  0
 34 35  1  0
 35 36  2  0
 29 37  1  0
 37 38  1  0
 26 13  1  0
 36 31  1  0
 24 15  1  0
 37 25  2  0
 24 19  1  0
  1 39  1  0
  1 40  1  0
  1 41  1  0
  3 42  1  0
  3 43  1  0
  3 44  1  0
  4 45  1  0
  4 46  1  0
  4 47  1  0
  8 48  1  0
  9 49  1  0
  9 50  1  0
 10 51  1  0
 10 52  1  0
 11 53  1  0
 11 54  1  0
 12 55  1  0
 12 56  1  0
 13 57  1  6
 14 58  1  0
 18 59  1  0
 20 60  1  0
 21 61  1  0
 22 62  1  0
 23 63  1  0
 28 64  1  0
 30 65  1  0
 30 66  1  0
 32 67  1  0
 33 68  1  0
 34 69  1  0
 35 70  1  0
 36 71  1  0
 38 72  1  0
M  END
$$$$
