
     RDKit          3D

 44 47  0  0  0  0  0  0  0  0999 V2000
    3.5353   -0.9768    1.1530 C   0  0  0  0  0  0  0  0  0  0  0  0
    3.4029    0.4267    0.5387 C   0  0  0  0  0  0  0  0  0  0  0  0
    4.5005    1.3191    1.1437 C   0  0  0  0  0  0  0  0  0  0  0  0
    2.0344    1.0731    0.8107 C   0  0  0  0  0  0  0  0  0  0  0  0
    0.9080    0.4067   -0.0019 C   0  0  0  0  0  0  0  0  0  0  0  0
   -0.3279    1.3157    0.0705 C   0  0  0  0  0  0  0  0  0  0  0  0
   -1.5376    0.6815   -0.6245 C   0  0  0  0  0  0  0  0  0  0  0  0
   -2.7972    1.4839   -0.3418 C   0  0  0  0  0  0  0  0  0  0  0  0
   -3.5117    2.2623   -1.2351 C   0  0  0  0  0  0  0  0  0  0  0  0
   -4.6479    2.8791   -0.6371 C   0  0  0  0  0  0  0  0  0  0  0  0
   -4.7669    2.5576    0.6953 C   0  0  0  0  0  0  0  0  0  0  0  0
   -3.5151    1.5211    1.2203 S   0  0  0  0  0  0  0  0  0  0  0  0
   -1.6382   -0.7955   -0.3040 C   0  0  0  0  0  0  0  0  0  0  0  0
   -2.7866   -1.5385   -0.6392 C   0  0  0  0  0  0  0  0  0  0  0  0
   -2.8639   -2.8981   -0.3362 C   0  0  0  0  0  0  0  0  0  0  0  0
   -4.2892   -3.7795   -0.7395 Cl  0  0  0  0  0  0  0  0  0  0  0  0
   -1.7921   -3.5335    0.2879 C   0  0  0  0  0  0  0  0  0  0  0  0
   -1.8205   -4.8626    0.6091 O   0  0  0  0  0  0  0  0  0  0  0  0
   -0.6402   -2.8217    0.5976 C   0  0  0  0  0  0  0  0  0  0  0  0
   -0.5570   -1.4628    0.2845 C   0  0  0  0  0  0  0  0  0  0  0  0
    0.6287   -0.8622    0.6010 O   0  0  0  0  0  0  0  0  0  0  0  0
    1.3392    0.1875   -1.3732 N   0  0  0  0  0  0  0  0  0  0  0  0
    2.6199    0.0484   -1.7798 C   0  0  0  0  0  0  0  0  0  0  0  0
    2.9704   -0.4337   -3.3288 S   0  0  0  0  0  0  0  0  0  0  0  0
    3.6049    0.3482   -0.9032 N   0  0  0  0  0  0  0  0  0  0  0  0
    2.9067   -1.7167    0.6489 H   0  0  0  0  0  0  0  0  0  0  0  0
    4.5645   -1.3451    1.0615 H   0  0  0  0  0  0  0  0  0  0  0  0
    3.2774   -0.9707    2.2175 H   0  0  0  0  0  0  0  0  0  0  0  0
    4.4788    2.3251    0.7086 H   0  0  0  0  0  0  0  0  0  0  0  0
    5.4985    0.9089    0.9497 H   0  0  0  0  0  0  0  0  0  0  0  0
    4.3797    1.4166    2.2283 H   0  0  0  0  0  0  0  0  0  0  0  0
    2.0905    2.1343    0.5283 H   0  0  0  0  0  0  0  0  0  0  0  0
    1.8085    1.0355    1.8844 H   0  0  0  0  0  0  0  0  0  0  0  0
   -0.5594    1.4938    1.1299 H   0  0  0  0  0  0  0  0  0  0  0  0
   -0.1215    2.2969   -0.3776 H   0  0  0  0  0  0  0  0  0  0  0  0
   -1.3619    0.7354   -1.7092 H   0  0  0  0  0  0  0  0  0  0  0  0
   -3.2340    2.3842   -2.2757 H   0  0  0  0  0  0  0  0  0  0  0  0
   -5.3430    3.5264   -1.1580 H   0  0  0  0  0  0  0  0  0  0  0  0
   -5.5299    2.8827    1.3894 H   0  0  0  0  0  0  0  0  0  0  0  0
   -3.6302   -1.0539   -1.1267 H   0  0  0  0  0  0  0  0  0  0  0  0
   -2.6873   -5.2095    0.3262 H   0  0  0  0  0  0  0  0  0  0  0  0
    0.1985   -3.3264    1.0693 H   0  0  0  0  0  0  0  0  0  0  0  0
    0.6719   -0.2135   -2.0188 H   0  0  0  0  0  0  0  0  0  0  0  0
    4.5400    0.1502   -1.2441 H   0  0  0  0  0  0  0  0  0  0  0  0
  1  2  1  0
  2  3  1  0
  2  4  1  0
  4  5  1  0
  5  6  1  0
  6  7  1  0
  7  8  1  0
  8  9  2  0
  9 10  1  0
 10 11  2  0
 11 12  1  0
  7 13  1  0
 13 14  2  0
 14 15  1  0
 15 16  1  0
 15 17  2  0
 17 18  1  0
 17 19  1  0
 19 20  2  0
 20 21  1  0
  5 22  1  0
 22 23  1  0
 23 24  2  0
 23 25  1  0
 25  2  1  0
 21  5  1  0
 12  8  1  0
 20 13  1  0
  1 26  1  0
  1 27  1  0
  1 28  1  0
  3 29  1  0
  3 30  1  0
  3 31  1  0
  4 32  1  0
  4 33  1  0
  6 34  1  0
  6 35  1  0
  7 36  1  0
  9 37  1  0
 10 38  1  0
 11 39  1  0
 14 40  1  0
 18 41  1  0
 19 42  1  0
 22 43  1  0
 25 44  1  0
M  END
$$$$
