
     RDKit          3D

 52 55  0  0  0  0  0  0  0  0999 V2000
   -6.3543   -1.4624   -0.3837 C   0  0  0  0  0  0  0  0  0  0  0  0
   -5.8232   -0.3693    0.5304 C   0  0  0  0  0  0  0  0  0  0  0  0
   -4.3104   -0.4378    0.7498 C   0  0  0  0  0  0  0  0  0  0  0  0
   -3.5038   -0.2027   -0.5296 C   0  0  0  0  0  0  0  0  0  0  0  0
   -2.0448   -0.1104   -0.2497 C   0  0  0  0  0  0  0  0  0  0  0  0
   -1.2317   -1.1527   -0.3077 N   0  0  0  0  0  0  0  0  0  0  0  0
    0.0440   -0.7293   -0.0530 N   0  0  0  0  0  0  0  0  0  0  0  0
   -0.0090    0.5680    0.1335 C   0  0  0  0  0  0  0  0  0  0  0  0
    1.0637    1.4641    0.4385 C   0  0  0  0  0  0  0  0  0  0  0  0
    2.3842    0.9547    0.4424 N   0  0  0  0  0  0  0  0  0  0  0  0
    3.3665    1.4555    1.4246 C   0  0  0  0  0  0  0  0  0  0  0  0
    3.0703    0.5243   -1.0616 S   0  0  0  0  0  6  0  0  0  0  0  0
    2.0303    0.3733   -2.0565 O   0  0  0  0  0  0  0  0  0  0  0  0
    4.1842    1.4200   -1.3101 O   0  0  0  0  0  0  0  0  0  0  0  0
    3.7514   -1.0867   -0.7316 C   0  0  0  0  0  0  0  0  0  0  0  0
    5.1143   -1.2226   -0.4505 C   0  0  0  0  0  0  0  0  0  0  0  0
    5.6488   -2.4915   -0.2182 C   0  0  0  0  0  0  0  0  0  0  0  0
    4.8339   -3.6291   -0.2898 C   0  0  0  0  0  0  0  0  0  0  0  0
    5.4023   -4.9891   -0.0086 C   0  0  0  0  0  0  0  0  0  0  0  0
    3.4716   -3.4793   -0.5814 C   0  0  0  0  0  0  0  0  0  0  0  0
    2.9318   -2.2133   -0.8162 C   0  0  0  0  0  0  0  0  0  0  0  0
    0.8363    2.6931    0.7850 N   0  0  0  0  0  0  0  0  0  0  0  0
   -0.4976    3.1608    0.7570 C   0  0  0  0  0  0  0  0  0  0  0  0
   -0.7130    4.4997    1.0927 C   0  0  0  0  0  0  0  0  0  0  0  0
   -1.9998    5.0356    1.0902 C   0  0  0  0  0  0  0  0  0  0  0  0
   -3.0861    4.2315    0.7531 C   0  0  0  0  0  0  0  0  0  0  0  0
   -2.8961    2.8890    0.4133 C   0  0  0  0  0  0  0  0  0  0  0  0
   -1.6068    2.3536    0.4081 C   0  0  0  0  0  0  0  0  0  0  0  0
   -1.3080    1.0086    0.0950 N   0  0  0  0  0  0  0  0  0  0  0  0
   -5.9789   -1.3486   -1.4049 H   0  0  0  0  0  0  0  0  0  0  0  0
   -6.0693   -2.4538   -0.0177 H   0  0  0  0  0  0  0  0  0  0  0  0
   -7.4474   -1.4182   -0.4261 H   0  0  0  0  0  0  0  0  0  0  0  0
   -6.0962    0.6112    0.1232 H   0  0  0  0  0  0  0  0  0  0  0  0
   -6.3198   -0.4570    1.5041 H   0  0  0  0  0  0  0  0  0  0  0  0
   -4.0410    0.3080    1.5077 H   0  0  0  0  0  0  0  0  0  0  0  0
   -4.0456   -1.4130    1.1787 H   0  0  0  0  0  0  0  0  0  0  0  0
   -3.8561    0.6710   -1.0844 H   0  0  0  0  0  0  0  0  0  0  0  0
   -3.6580   -1.0526   -1.2069 H   0  0  0  0  0  0  0  0  0  0  0  0
    4.2378    0.7997    1.4921 H   0  0  0  0  0  0  0  0  0  0  0  0
    2.9088    1.4759    2.4195 H   0  0  0  0  0  0  0  0  0  0  0  0
    3.6877    2.4702    1.1717 H   0  0  0  0  0  0  0  0  0  0  0  0
    5.7660   -0.3529   -0.4124 H   0  0  0  0  0  0  0  0  0  0  0  0
    6.7080   -2.5894    0.0109 H   0  0  0  0  0  0  0  0  0  0  0  0
    6.4557   -5.0410   -0.3035 H   0  0  0  0  0  0  0  0  0  0  0  0
    5.3221   -5.2142    1.0593 H   0  0  0  0  0  0  0  0  0  0  0  0
    4.8688   -5.7601   -0.5745 H   0  0  0  0  0  0  0  0  0  0  0  0
    2.8201   -4.3493   -0.6353 H   0  0  0  0  0  0  0  0  0  0  0  0
    1.8769   -2.1203   -1.0651 H   0  0  0  0  0  0  0  0  0  0  0  0
    0.1337    5.1295    1.3563 H   0  0  0  0  0  0  0  0  0  0  0  0
   -2.1530    6.0797    1.3522 H   0  0  0  0  0  0  0  0  0  0  0  0
   -4.0893    4.6535    0.7562 H   0  0  0  0  0  0  0  0  0  0  0  0
   -3.7802    2.3164    0.1716 H   0  0  0  0  0  0  0  0  0  0  0  0
  1  2  1  0
  2  3  1  0
  3  4  1  0
  4  5  1  0
  5  6  2  0
  6  7  1  0
  7  8  2  0
  8  9  1  0
  9 10  1  0
 10 11  1  0
 10 12  1  0
 12 13  2  0
 12 14  2  0
 12 15  1  0
 15 16  2  0
 16 17  1  0
 17 18  2  0
 18 19  1  0
 18 20  1  0
 20 21  2  0
  9 22  2  0
 22 23  1  0
 23 24  2  0
 24 25  1  0
 25 26  2  0
 26 27  1  0
 27 28  2  0
 28 29  1  0
 29  5  1  0
 29  8  1  0
 21 15  1  0
 28 23  1  0
  1 30  1  0
  1 31  1  0
  1 32  1  0
  2 33  1  0
  2 34  1  0
  3 35  1  0
  3 36  1  0
  4 37  1  0
  4 38  1  0
 11 39  1  0
 11 40  1  0
 11 41  1  0
 16 42  1  0
 17 43  1  0
 19 44  1  0
 19 45  1  0
 19 46  1  0
 20 47  1  0
 21 48  1  0
 24 49  1  0
 25 50  1  0
 26 51  1  0
 27 52  1  0
M  END
$$$$
