
     RDKit          3D

 38 42  0  0  0  0  0  0  0  0999 V2000
   -0.0157    2.5698    0.2574 O   0  0  0  0  0  0  0  0  0  0  0  0
   -0.3084    1.2780    0.3407 C   0  0  0  0  0  0  0  0  0  0  0  0
   -1.3365    0.5383   -0.1807 C   0  0  0  0  0  0  0  0  0  0  0  0
   -1.1687   -0.8238    0.2531 C   0  0  0  0  0  0  0  0  0  0  0  0
   -0.0420   -0.8846    1.0296 C   0  0  0  0  0  0  0  0  0  0  0  0
    0.5337   -1.8894    1.6780 O   0  0  0  0  0  0  0  0  0  0  0  0
    0.4924    0.3970    1.0558 N   0  0  0  0  0  0  0  0  0  0  0  0
    1.6957    0.7777    1.7855 C   0  0  0  0  0  0  0  0  0  0  0  0
    2.9352    0.6585    0.9319 C   0  0  0  0  0  0  0  0  0  0  0  0
    3.6568   -0.5432    0.8853 C   0  0  0  0  0  0  0  0  0  0  0  0
    4.8003   -0.6541    0.0927 C   0  0  0  0  0  0  0  0  0  0  0  0
    5.2322    0.4326   -0.6652 C   0  0  0  0  0  0  0  0  0  0  0  0
    4.5189    1.6294   -0.6350 C   0  0  0  0  0  0  0  0  0  0  0  0
    3.3752    1.7416    0.1572 C   0  0  0  0  0  0  0  0  0  0  0  0
   -2.2691   -1.7542   -0.2466 C   0  0  0  0  0  0  0  0  0  0  0  0
   -2.2639   -1.5657   -1.7856 C   0  0  0  0  0  0  0  0  0  0  0  0
   -2.4224   -0.2796   -2.1952 C   0  0  0  0  0  0  0  0  0  0  0  0
   -2.5772    0.7464   -1.0431 C   0  0  0  0  0  0  0  0  0  0  0  0
   -3.7777    0.3057   -0.1441 C   0  0  0  0  0  0  0  0  0  0  0  0
   -4.8057   -0.7499   -0.4956 C   0  0  0  0  0  0  0  0  0  0  0  0
   -3.5974   -1.1576    0.3220 C   0  0  0  0  0  0  0  0  0  0  0  0
   -0.6852    2.9744   -0.3210 H   0  0  0  0  0  0  0  0  0  0  0  0
    0.0123   -2.6872    1.4825 H   0  0  0  0  0  0  0  0  0  0  0  0
    1.7725    0.1452    2.6777 H   0  0  0  0  0  0  0  0  0  0  0  0
    1.5681    1.8041    2.1493 H   0  0  0  0  0  0  0  0  0  0  0  0
    3.3228   -1.4027    1.4633 H   0  0  0  0  0  0  0  0  0  0  0  0
    5.3502   -1.5909    0.0633 H   0  0  0  0  0  0  0  0  0  0  0  0
    6.1207    0.3448   -1.2845 H   0  0  0  0  0  0  0  0  0  0  0  0
    4.8492    2.4749   -1.2322 H   0  0  0  0  0  0  0  0  0  0  0  0
    2.8200    2.6776    0.1631 H   0  0  0  0  0  0  0  0  0  0  0  0
   -2.1219   -2.7956    0.0482 H   0  0  0  0  0  0  0  0  0  0  0  0
   -2.1329   -2.4034   -2.4562 H   0  0  0  0  0  0  0  0  0  0  0  0
   -2.4326    0.0294   -3.2311 H   0  0  0  0  0  0  0  0  0  0  0  0
   -2.6846    1.7709   -1.4063 H   0  0  0  0  0  0  0  0  0  0  0  0
   -4.0232    1.0432    0.6105 H   0  0  0  0  0  0  0  0  0  0  0  0
   -4.9034   -1.0882   -1.5197 H   0  0  0  0  0  0  0  0  0  0  0  0
   -5.7617   -0.7043    0.0175 H   0  0  0  0  0  0  0  0  0  0  0  0
   -3.7265   -1.3648    1.3775 H   0  0  0  0  0  0  0  0  0  0  0  0
  1  2  1  0
  2  3  2  0
  3  4  1  0
  4  5  2  0
  5  6  1  0
  5  7  1  0
  7  8  1  0
  8  9  1  0
  9 10  2  0
 10 11  1  0
 11 12  2  0
 12 13  1  0
 13 14  2  0
  4 15  1  0
 15 16  1  0
 16 17  2  0
 17 18  1  0
 18 19  1  0
 19 20  1  0
 20 21  1  0
  7  2  1  0
 14  9  1  0
 21 15  1  0
 18  3  1  0
 21 19  1  0
  1 22  1  0
  6 23  1  0
  8 24  1  0
  8 25  1  0
 10 26  1  0
 11 27  1  0
 12 28  1  0
 13 29  1  0
 14 30  1  0
 15 31  1  0
 16 32  1  0
 17 33  1  0
 18 34  1  0
 19 35  1  0
 20 36  1  0
 20 37  1  0
 21 38  1  0
M  END
$$$$
