
     RDKit          3D

 51 53  0  0  0  0  0  0  0  0999 V2000
    8.1810    1.4966    1.5192 C   0  0  0  0  0  0  0  0  0  0  0  0
    7.5913    1.1938    0.2617 O   0  0  0  0  0  0  0  0  0  0  0  0
    7.5977   -0.2164    0.0068 C   0  0  0  0  0  0  0  0  0  0  0  0
    6.9008   -0.4793   -1.3289 C   0  0  0  0  0  0  0  0  0  0  0  0
    5.4921   -0.1340   -1.2818 N   0  0  0  0  0  0  0  0  0  0  0  0
    4.5548   -0.9677   -0.7049 C   0  0  0  0  0  0  0  0  0  0  0  0
    4.8624   -2.1049   -0.3504 O   0  0  0  0  0  0  0  0  0  0  0  0
    3.2132   -0.4049   -0.5347 C   0  0  0  0  0  0  0  0  0  0  0  0
    2.9256    1.2632   -0.8254 S   0  0  0  0  0  0  0  0  0  0  0  0
    1.2918    1.1466   -0.3836 C   0  0  0  0  0  0  0  0  0  0  0  0
    0.4827    2.2350   -0.4115 N   0  0  0  0  0  0  0  0  0  0  0  0
   -0.7341    2.0006   -0.0404 C   0  0  0  0  0  0  0  0  0  0  0  0
   -1.2236    0.7848    0.3926 N   0  0  0  0  0  0  0  0  0  0  0  0
   -2.6239    0.6587    0.7681 C   0  0  0  0  0  0  0  0  0  0  0  0
   -3.4818    0.3255   -0.4605 C   0  0  0  0  0  0  0  0  0  0  0  0
   -2.9905    0.2929   -1.5907 O   0  0  0  0  0  0  0  0  0  0  0  0
   -4.8430    0.1203   -0.2429 N   0  0  0  0  0  0  0  0  0  0  0  0
   -5.7099   -0.1149   -1.3995 C   0  0  0  0  0  0  0  0  0  0  0  0
   -7.0767    0.5317   -1.2078 C   0  0  0  0  0  0  0  0  0  0  0  0
   -7.7890    0.0236    0.0461 C   0  0  0  0  0  0  0  0  0  0  0  0
   -6.8323   -0.5664    1.0802 C   0  0  0  0  0  0  0  0  0  0  0  0
   -5.4784    0.1344    1.0768 C   0  0  0  0  0  0  0  0  0  0  0  0
   -0.4280   -0.3589    0.4138 C   0  0  0  0  0  0  0  0  0  0  0  0
   -0.8407   -1.4514    0.7957 O   0  0  0  0  0  0  0  0  0  0  0  0
    0.9464   -0.1355   -0.0181 C   0  0  0  0  0  0  0  0  0  0  0  0
    2.0501   -1.0611   -0.1307 C   0  0  0  0  0  0  0  0  0  0  0  0
    1.9645   -2.5283    0.1645 C   0  0  0  0  0  0  0  0  0  0  0  0
    8.1595    2.5809    1.6573 H   0  0  0  0  0  0  0  0  0  0  0  0
    7.6137    1.0300    2.3302 H   0  0  0  0  0  0  0  0  0  0  0  0
    9.2222    1.1611    1.5449 H   0  0  0  0  0  0  0  0  0  0  0  0
    8.6355   -0.5635   -0.0481 H   0  0  0  0  0  0  0  0  0  0  0  0
    7.0866   -0.7401    0.8227 H   0  0  0  0  0  0  0  0  0  0  0  0
    6.9998   -1.5348   -1.6024 H   0  0  0  0  0  0  0  0  0  0  0  0
    7.3448    0.1354   -2.1185 H   0  0  0  0  0  0  0  0  0  0  0  0
    5.2497    0.8459   -1.3675 H   0  0  0  0  0  0  0  0  0  0  0  0
   -1.4749    2.8165   -0.0457 H   0  0  0  0  0  0  0  0  0  0  0  0
   -2.9725    1.6088    1.1868 H   0  0  0  0  0  0  0  0  0  0  0  0
   -2.7254   -0.1317    1.5162 H   0  0  0  0  0  0  0  0  0  0  0  0
   -5.2466    0.2733   -2.3125 H   0  0  0  0  0  0  0  0  0  0  0  0
   -5.8086   -1.2004   -1.5190 H   0  0  0  0  0  0  0  0  0  0  0  0
   -6.9456    1.6183   -1.1227 H   0  0  0  0  0  0  0  0  0  0  0  0
   -7.7067    0.3603   -2.0878 H   0  0  0  0  0  0  0  0  0  0  0  0
   -8.3551    0.8508    0.4912 H   0  0  0  0  0  0  0  0  0  0  0  0
   -8.5279   -0.7390   -0.2278 H   0  0  0  0  0  0  0  0  0  0  0  0
   -6.6821   -1.6307    0.8571 H   0  0  0  0  0  0  0  0  0  0  0  0
   -7.2847   -0.5167    2.0769 H   0  0  0  0  0  0  0  0  0  0  0  0
   -5.5901    1.1846    1.3705 H   0  0  0  0  0  0  0  0  0  0  0  0
   -4.8232   -0.3467    1.8078 H   0  0  0  0  0  0  0  0  0  0  0  0
    2.5740   -3.1090   -0.5346 H   0  0  0  0  0  0  0  0  0  0  0  0
    2.3094   -2.7282    1.1837 H   0  0  0  0  0  0  0  0  0  0  0  0
    0.9456   -2.9090    0.0623 H   0  0  0  0  0  0  0  0  0  0  0  0
  1  2  1  0
  2  3  1  0
  3  4  1  0
  4  5  1  0
  5  6  1  0
  6  7  2  0
  6  8  1  0
  8  9  1  0
  9 10  1  0
 10 11  1  0
 11 12  2  0
 12 13  1  0
 13 14  1  0
 14 15  1  0
 15 16  2  0
 15 17  1  0
 17 18  1  0
 18 19  1  0
 19 20  1  0
 20 21  1  0
 21 22  1  0
 13 23  1  0
 23 24  2  0
 23 25  1  0
 25 26  1  0
 26 27  1  0
 26  8  2  0
 25 10  2  0
 22 17  1  0
  1 28  1  0
  1 29  1  0
  1 30  1  0
  3 31  1  0
  3 32  1  0
  4 33  1  0
  4 34  1  0
  5 35  1  0
 12 36  1  0
 14 37  1  0
 14 38  1  0
 18 39  1  0
 18 40  1  0
 19 41  1  0
 19 42  1  0
 20 43  1  0
 20 44  1  0
 21 45  1  0
 21 46  1  0
 22 47  1  0
 22 48  1  0
 27 49  1  0
 27 50  1  0
 27 51  1  0
M  END
$$$$
