
     RDKit          3D

 41 44  0  0  0  0  0  0  0  0999 V2000
    3.6523   -0.9180    0.7983 C   0  0  0  0  0  0  0  0  0  0  0  0
    3.1932    0.3805    0.1941 C   0  0  0  0  0  0  0  0  0  0  0  0
    4.0313    1.0193   -0.7360 C   0  0  0  0  0  0  0  0  0  0  0  0
    3.6744    2.2421   -1.3085 C   0  0  0  0  0  0  0  0  0  0  0  0
    2.4776    2.8569   -0.9544 C   0  0  0  0  0  0  0  0  0  0  0  0
    1.6338    2.2484   -0.0276 C   0  0  0  0  0  0  0  0  0  0  0  0
    1.9840    1.0142    0.5422 C   0  0  0  0  0  0  0  0  0  0  0  0
    0.8449    0.2845    1.7154 S   0  0  0  0  0  6  0  0  0  0  0  0
    1.6141   -0.1609    2.8548 O   0  0  0  0  0  0  0  0  0  0  0  0
   -0.2660    1.2028    1.8749 O   0  0  0  0  0  0  0  0  0  0  0  0
    0.2738   -1.0285    0.8092 N   0  0  0  0  0  0  0  0  0  0  0  0
   -0.7520   -1.7481    1.4747 C   0  0  0  0  0  0  0  0  0  0  0  0
   -0.3382   -2.5174    2.4905 N   0  0  0  0  0  0  0  0  0  0  0  0
   -1.2677   -3.1761    3.1929 C   0  0  0  0  0  0  0  0  0  0  0  0
   -2.5885   -3.1724    2.9938 N   0  0  0  0  0  0  0  0  0  0  0  0
   -2.9535   -2.3937    1.9614 C   0  0  0  0  0  0  0  0  0  0  0  0
   -4.5960   -2.2409    1.5360 S   0  0  0  0  0  0  0  0  0  0  0  0
   -4.2236   -1.1888    0.2422 C   0  0  0  0  0  0  0  0  0  0  0  0
   -2.8661   -0.9568    0.1341 C   0  0  0  0  0  0  0  0  0  0  0  0
   -2.3549   -0.1109   -0.9289 C   0  0  0  0  0  0  0  0  0  0  0  0
   -2.2804    1.2736   -0.7506 C   0  0  0  0  0  0  0  0  0  0  0  0
   -1.7483    2.0782   -1.7587 C   0  0  0  0  0  0  0  0  0  0  0  0
   -1.2864    1.5020   -2.9417 C   0  0  0  0  0  0  0  0  0  0  0  0
   -1.3612    0.1211   -3.1230 C   0  0  0  0  0  0  0  0  0  0  0  0
   -1.8966   -0.6869   -2.1192 C   0  0  0  0  0  0  0  0  0  0  0  0
   -2.1105   -1.6525    1.1467 C   0  0  0  0  0  0  0  0  0  0  0  0
    3.9622   -0.7654    1.8363 H   0  0  0  0  0  0  0  0  0  0  0  0
    2.8707   -1.6803    0.7503 H   0  0  0  0  0  0  0  0  0  0  0  0
    4.5133   -1.3239    0.2553 H   0  0  0  0  0  0  0  0  0  0  0  0
    4.9808    0.5676   -1.0196 H   0  0  0  0  0  0  0  0  0  0  0  0
    4.3393    2.7189   -2.0248 H   0  0  0  0  0  0  0  0  0  0  0  0
    2.2059    3.8138   -1.3931 H   0  0  0  0  0  0  0  0  0  0  0  0
    0.7075    2.7482    0.2476 H   0  0  0  0  0  0  0  0  0  0  0  0
   -0.0040   -0.7026   -0.1139 H   0  0  0  0  0  0  0  0  0  0  0  0
   -0.9051   -3.7817    4.0181 H   0  0  0  0  0  0  0  0  0  0  0  0
   -5.0194   -0.7975   -0.3787 H   0  0  0  0  0  0  0  0  0  0  0  0
   -2.6205    1.7325    0.1766 H   0  0  0  0  0  0  0  0  0  0  0  0
   -1.6906    3.1549   -1.6184 H   0  0  0  0  0  0  0  0  0  0  0  0
   -0.8708    2.1310   -3.7255 H   0  0  0  0  0  0  0  0  0  0  0  0
   -1.0058   -0.3244   -4.0492 H   0  0  0  0  0  0  0  0  0  0  0  0
   -1.9530   -1.7626   -2.2736 H   0  0  0  0  0  0  0  0  0  0  0  0
  1  2  1  0
  2  3  2  0
  3  4  1  0
  4  5  2  0
  5  6  1  0
  6  7  2  0
  7  8  1  0
  8  9  2  0
  8 10  2  0
  8 11  1  0
 11 12  1  0
 12 13  2  0
 13 14  1  0
 14 15  2  0
 15 16  1  0
 16 17  1  0
 17 18  1  0
 18 19  2  0
 19 20  1  0
 20 21  2  0
 21 22  1  0
 22 23  2  0
 23 24  1  0
 24 25  2  0
 19 26  1  0
  7  2  1  0
 26 12  1  0
 26 16  2  0
 25 20  1  0
  1 27  1  0
  1 28  1  0
  1 29  1  0
  3 30  1  0
  4 31  1  0
  5 32  1  0
  6 33  1  0
 11 34  1  0
 14 35  1  0
 18 36  1  0
 21 37  1  0
 22 38  1  0
 23 39  1  0
 24 40  1  0
 25 41  1  0
M  END
$$$$
