
     RDKit          3D

 28 29  0  0  0  0  0  0  0  0999 V2000
   -0.7743   -1.6567   -1.5863 O   0  0  0  0  0  0  0  0  0  0  0  0
   -1.5513   -0.8311   -1.1056 C   0  0  0  0  0  0  0  0  0  0  0  0
   -3.0372   -0.9548   -1.3560 C   0  0  0  0  0  0  0  0  0  0  0  0
   -3.8194   -0.7046   -0.1690 N   0  0  0  0  0  0  0  0  0  0  0  0
   -4.4034   -1.6092    0.6580 C   0  0  0  0  0  0  0  0  0  0  0  0
   -5.0315   -0.9748    1.6207 N   0  0  0  0  0  0  0  0  0  0  0  0
   -4.7967    0.3397    1.3337 C   0  0  0  0  0  0  0  0  0  0  0  0
   -4.0515    0.5585    0.2450 N   0  0  0  0  0  0  0  0  0  0  0  0
   -1.1877    0.3006   -0.3812 N   0  0  0  0  0  0  0  0  0  0  0  0
    0.0873    0.7614   -0.1860 N   0  0  0  0  0  0  0  0  0  0  0  0
    1.0527   -0.0966   -0.0906 C   0  0  0  0  0  0  0  0  0  0  0  0
    2.4568    0.3373    0.0711 C   0  0  0  0  0  0  0  0  0  0  0  0
    2.7889    1.6951    0.1317 C   0  0  0  0  0  0  0  0  0  0  0  0
    4.1236    2.0782    0.2852 C   0  0  0  0  0  0  0  0  0  0  0  0
    5.1178    1.1044    0.3762 C   0  0  0  0  0  0  0  0  0  0  0  0
    6.7613    1.5768    0.5651 Cl  0  0  0  0  0  0  0  0  0  0  0  0
    4.7903   -0.2505    0.3148 C   0  0  0  0  0  0  0  0  0  0  0  0
    3.4561   -0.6373    0.1616 C   0  0  0  0  0  0  0  0  0  0  0  0
   -3.3422   -0.2430   -2.1297 H   0  0  0  0  0  0  0  0  0  0  0  0
   -3.2656   -1.9691   -1.7000 H   0  0  0  0  0  0  0  0  0  0  0  0
   -4.3455   -2.6807    0.5230 H   0  0  0  0  0  0  0  0  0  0  0  0
   -5.1771    1.1565    1.9344 H   0  0  0  0  0  0  0  0  0  0  0  0
   -1.9118    0.9991   -0.1896 H   0  0  0  0  0  0  0  0  0  0  0  0
    0.8891   -1.1871   -0.0908 H   0  0  0  0  0  0  0  0  0  0  0  0
    2.0156    2.4567    0.0603 H   0  0  0  0  0  0  0  0  0  0  0  0
    4.3788    3.1337    0.3323 H   0  0  0  0  0  0  0  0  0  0  0  0
    5.5673   -1.0075    0.3842 H   0  0  0  0  0  0  0  0  0  0  0  0
    3.2094   -1.6950    0.1110 H   0  0  0  0  0  0  0  0  0  0  0  0
  1  2  2  0
  2  3  1  0
  3  4  1  0
  4  5  1  0
  5  6  2  0
  6  7  1  0
  7  8  2  0
  2  9  1  0
  9 10  1  0
 10 11  2  3
 11 12  1  0
 12 13  2  0
 13 14  1  0
 14 15  2  0
 15 16  1  0
 15 17  1  0
 17 18  2  0
  8  4  1  0
 18 12  1  0
  3 19  1  0
  3 20  1  0
  5 21  1  0
  7 22  1  0
  9 23  1  0
 11 24  1  0
 13 25  1  0
 14 26  1  0
 17 27  1  0
 18 28  1  0
M  END
$$$$
