
     RDKit          3D

 56 61  0  0  0  0  0  0  0  0999 V2000
    4.8040   -3.7308   -2.6076 C   0  0  0  0  0  0  0  0  0  0  0  0
    4.1739   -2.6362   -1.7988 C   0  0  0  0  0  0  0  0  0  0  0  0
    4.9550   -1.6513   -1.2015 C   0  0  0  0  0  0  0  0  0  0  0  0
    4.3565   -0.6599   -0.4211 C   0  0  0  0  0  0  0  0  0  0  0  0
    2.9640   -0.6192   -0.2232 C   0  0  0  0  0  0  0  0  0  0  0  0
    2.1749   -1.6348   -0.7752 C   0  0  0  0  0  0  0  0  0  0  0  0
    2.7946   -2.6323   -1.5611 C   0  0  0  0  0  0  0  0  0  0  0  0
    0.7348   -1.8573   -0.4853 C   0  0  0  0  0  0  0  0  0  0  0  0
    0.3099   -3.0115   -0.5520 O   0  0  0  0  0  0  0  0  0  0  0  0
   -0.0908   -0.8139   -0.1192 N   0  0  0  0  0  0  0  0  0  0  0  0
   -1.4816   -1.0968    0.2423 C   0  0  0  0  0  0  0  0  0  0  0  0
   -1.7094   -1.4433    1.6941 C   0  0  0  0  0  0  0  0  0  0  0  0
   -0.7425   -1.9883    2.5470 C   0  0  0  0  0  0  0  0  0  0  0  0
   -1.0887   -2.3594    3.8484 C   0  0  0  0  0  0  0  0  0  0  0  0
    0.1103   -3.0187    4.8932 Cl  0  0  0  0  0  0  0  0  0  0  0  0
   -2.3981   -2.2147    4.3074 C   0  0  0  0  0  0  0  0  0  0  0  0
   -3.3719   -1.6869    3.4613 C   0  0  0  0  0  0  0  0  0  0  0  0
   -3.0158   -1.2902    2.1758 C   0  0  0  0  0  0  0  0  0  0  0  0
   -3.9940   -0.7853    1.3594 O   0  0  0  0  0  0  0  0  0  0  0  0
   -3.5292    0.3891    0.6856 C   0  0  0  0  0  0  0  0  0  0  0  0
   -2.2434    0.1768   -0.1191 C   0  0  0  0  0  0  0  0  0  0  0  0
   -1.1989    1.2894    0.1367 C   0  0  0  0  0  0  0  0  0  0  0  0
   -1.5579    2.6530   -0.4378 C   0  0  0  0  0  0  0  0  0  0  0  0
   -1.2041    3.8072    0.2807 C   0  0  0  0  0  0  0  0  0  0  0  0
   -1.5118    5.0815   -0.2007 C   0  0  0  0  0  0  0  0  0  0  0  0
   -2.1805    5.2262   -1.4115 C   0  0  0  0  0  0  0  0  0  0  0  0
   -2.5394    4.0964   -2.1400 C   0  0  0  0  0  0  0  0  0  0  0  0
   -2.2311    2.8207   -1.6583 C   0  0  0  0  0  0  0  0  0  0  0  0
    0.1523    0.6280   -0.3245 C   0  0  0  0  0  0  0  0  0  0  0  0
    0.4786    0.9556   -1.7927 C   0  0  0  0  0  0  0  0  0  0  0  0
    1.2940    1.0642    0.6137 C   0  0  0  0  0  0  0  0  0  0  0  0
    1.2057    2.0383    1.3671 O   0  0  0  0  0  0  0  0  0  0  0  0
    2.5154    0.4639    0.5438 N   0  0  0  0  0  0  0  0  0  0  0  0
    5.0517   -4.5787   -1.9618 H   0  0  0  0  0  0  0  0  0  0  0  0
    5.7188   -3.3788   -3.0959 H   0  0  0  0  0  0  0  0  0  0  0  0
    4.1257   -4.0717   -3.3969 H   0  0  0  0  0  0  0  0  0  0  0  0
    6.0346   -1.6450   -1.3379 H   0  0  0  0  0  0  0  0  0  0  0  0
    5.0006    0.1018    0.0150 H   0  0  0  0  0  0  0  0  0  0  0  0
    2.1882   -3.4382   -1.9769 H   0  0  0  0  0  0  0  0  0  0  0  0
   -1.8534   -1.9365   -0.3595 H   0  0  0  0  0  0  0  0  0  0  0  0
    0.2752   -2.1481    2.2038 H   0  0  0  0  0  0  0  0  0  0  0  0
   -2.6655   -2.5171    5.3160 H   0  0  0  0  0  0  0  0  0  0  0  0
   -4.3970   -1.5780    3.8027 H   0  0  0  0  0  0  0  0  0  0  0  0
   -3.4342    1.1956    1.4248 H   0  0  0  0  0  0  0  0  0  0  0  0
   -4.3292    0.7043    0.0055 H   0  0  0  0  0  0  0  0  0  0  0  0
   -2.4907    0.1189   -1.1861 H   0  0  0  0  0  0  0  0  0  0  0  0
   -1.1613    1.4156    1.2306 H   0  0  0  0  0  0  0  0  0  0  0  0
   -0.6812    3.7266    1.2330 H   0  0  0  0  0  0  0  0  0  0  0  0
   -1.2270    5.9595    0.3735 H   0  0  0  0  0  0  0  0  0  0  0  0
   -2.4202    6.2174   -1.7867 H   0  0  0  0  0  0  0  0  0  0  0  0
   -3.0595    4.2069   -3.0883 H   0  0  0  0  0  0  0  0  0  0  0  0
   -2.5216    1.9700   -2.2683 H   0  0  0  0  0  0  0  0  0  0  0  0
    0.6582    2.0277   -1.9290 H   0  0  0  0  0  0  0  0  0  0  0  0
    1.3794    0.4593   -2.1601 H   0  0  0  0  0  0  0  0  0  0  0  0
   -0.3344    0.6470   -2.4587 H   0  0  0  0  0  0  0  0  0  0  0  0
    3.2078    0.9818    1.0740 H   0  0  0  0  0  0  0  0  0  0  0  0
  1  2  1  0
  2  3  2  0
  3  4  1  0
  4  5  2  0
  5  6  1  0
  6  7  2  0
  6  8  1  0
  8  9  2  0
  8 10  1  0
 10 11  1  0
 11 12  1  0
 12 13  2  0
 13 14  1  0
 14 15  1  0
 14 16  2  0
 16 17  1  0
 17 18  2  0
 18 19  1  0
 19 20  1  0
 20 21  1  0
 21 22  1  0
 22 23  1  0
 23 24  2  0
 24 25  1  0
 25 26  2  0
 26 27  1  0
 27 28  2  0
 22 29  1  0
 29 30  1  0
 29 31  1  0
 31 32  2  0
 31 33  1  0
  7  2  1  0
 29 10  1  0
 33  5  1  0
 21 11  1  0
 28 23  1  0
 18 12  1  0
  1 34  1  0
  1 35  1  0
  1 36  1  0
  3 37  1  0
  4 38  1  0
  7 39  1  0
 11 40  1  0
 13 41  1  0
 16 42  1  0
 17 43  1  0
 20 44  1  0
 20 45  1  0
 21 46  1  0
 22 47  1  0
 24 48  1  0
 25 49  1  0
 26 50  1  0
 27 51  1  0
 28 52  1  0
 30 53  1  0
 30 54  1  0
 30 55  1  0
 33 56  1  0
M  END
$$$$
