
     RDKit          3D

 43 45  0  0  0  0  0  0  0  0999 V2000
   -0.0549   -3.3215   -2.4386 C   0  0  0  0  0  0  0  0  0  0  0  0
    0.2321   -3.1985   -0.9651 C   0  0  0  0  0  0  0  0  0  0  0  0
   -0.1268   -4.0569   -0.1596 O   0  0  0  0  0  0  0  0  0  0  0  0
    0.9639   -1.9899   -0.5151 C   0  0  0  0  0  0  0  0  0  0  0  0
    0.2729   -0.8540   -0.2500 C   0  0  0  0  0  0  0  0  0  0  0  0
   -1.1216   -0.7279   -0.3044 N   0  0  0  0  0  0  0  0  0  0  0  0
   -1.7885    0.5034   -0.7836 C   0  0  0  0  0  0  0  0  0  0  0  0
   -3.2668    0.2465   -1.1468 C   0  0  0  0  0  0  0  0  0  0  0  0
   -4.0930   -0.2849   -0.0449 N   0  0  0  0  0  0  0  0  0  0  0  0
   -4.9129    0.7485    0.5798 C   0  0  0  0  0  0  0  0  0  0  0  0
   -3.2680   -0.9811    0.9658 C   0  0  0  0  0  0  0  0  0  0  0  0
   -2.0333   -1.6932    0.3701 C   0  0  0  0  0  0  0  0  0  0  0  0
    1.0166    0.2562    0.0779 N   0  0  0  0  0  0  0  0  0  0  0  0
    2.3773    0.2446    0.2174 C   0  0  0  0  0  0  0  0  0  0  0  0
    3.0892    1.4776    0.6795 C   0  0  0  0  0  0  0  0  0  0  0  0
    4.4275    1.6720    0.3134 C   0  0  0  0  0  0  0  0  0  0  0  0
    5.1098    2.8185    0.7242 C   0  0  0  0  0  0  0  0  0  0  0  0
    4.4618    3.7719    1.5078 C   0  0  0  0  0  0  0  0  0  0  0  0
    3.1341    3.5781    1.8877 C   0  0  0  0  0  0  0  0  0  0  0  0
    2.4465    2.4325    1.4777 C   0  0  0  0  0  0  0  0  0  0  0  0
    3.0880   -0.8087   -0.0471 N   0  0  0  0  0  0  0  0  0  0  0  0
    2.4696   -1.9697   -0.4747 C   0  0  0  0  0  0  0  0  0  0  0  0
    3.4299   -3.2864   -0.9456 S   0  0  0  0  0  0  0  0  0  0  0  0
   -1.1364   -3.3081   -2.5968 H   0  0  0  0  0  0  0  0  0  0  0  0
    0.3901   -2.4939   -2.9984 H   0  0  0  0  0  0  0  0  0  0  0  0
    0.3675   -4.2584   -2.8110 H   0  0  0  0  0  0  0  0  0  0  0  0
   -1.7284    1.2804   -0.0117 H   0  0  0  0  0  0  0  0  0  0  0  0
   -1.2689    0.8755   -1.6747 H   0  0  0  0  0  0  0  0  0  0  0  0
   -3.7055    1.1587   -1.5697 H   0  0  0  0  0  0  0  0  0  0  0  0
   -3.2939   -0.4967   -1.9545 H   0  0  0  0  0  0  0  0  0  0  0  0
   -5.5999    1.1877   -0.1519 H   0  0  0  0  0  0  0  0  0  0  0  0
   -4.3063    1.5535    1.0097 H   0  0  0  0  0  0  0  0  0  0  0  0
   -5.5335    0.3200    1.3747 H   0  0  0  0  0  0  0  0  0  0  0  0
   -3.8929   -1.7187    1.4823 H   0  0  0  0  0  0  0  0  0  0  0  0
   -2.9108   -0.2702    1.7238 H   0  0  0  0  0  0  0  0  0  0  0  0
   -1.5081   -2.2008    1.1876 H   0  0  0  0  0  0  0  0  0  0  0  0
   -2.3624   -2.4485   -0.3526 H   0  0  0  0  0  0  0  0  0  0  0  0
    0.4818    1.0770    0.3112 H   0  0  0  0  0  0  0  0  0  0  0  0
    4.9447    0.9324   -0.2947 H   0  0  0  0  0  0  0  0  0  0  0  0
    6.1481    2.9631    0.4358 H   0  0  0  0  0  0  0  0  0  0  0  0
    4.9966    4.6617    1.8315 H   0  0  0  0  0  0  0  0  0  0  0  0
    2.6386    4.3161    2.5141 H   0  0  0  0  0  0  0  0  0  0  0  0
    1.4263    2.2921    1.8194 H   0  0  0  0  0  0  0  0  0  0  0  0
  1  2  1  0
  2  3  2  0
  2  4  1  0
  4  5  2  0
  5  6  1  0
  6  7  1  0
  7  8  1  0
  8  9  1  0
  9 10  1  0
  9 11  1  0
 11 12  1  0
  5 13  1  0
 13 14  1  0
 14 15  1  0
 15 16  2  0
 16 17  1  0
 17 18  2  0
 18 19  1  0
 19 20  2  0
 14 21  2  0
 21 22  1  0
 22 23  2  0
 22  4  1  0
 12  6  1  0
 20 15  1  0
  1 24  1  0
  1 25  1  0
  1 26  1  0
  7 27  1  0
  7 28  1  0
  8 29  1  0
  8 30  1  0
 10 31  1  0
 10 32  1  0
 10 33  1  0
 11 34  1  0
 11 35  1  0
 12 36  1  0
 12 37  1  0
 13 38  1  0
 16 39  1  0
 17 40  1  0
 18 41  1  0
 19 42  1  0
 20 43  1  0
M  END
$$$$
