
     RDKit          3D

 45 47  0  0  0  0  0  0  0  0999 V2000
    6.0694    0.1339    2.0903 C   0  0  0  0  0  0  0  0  0  0  0  0
    4.6871    0.5286    1.6604 C   0  0  0  0  0  0  0  0  0  0  0  0
    4.0021    1.5520    2.3261 C   0  0  0  0  0  0  0  0  0  0  0  0
    2.7020    1.9013    1.9476 C   0  0  0  0  0  0  0  0  0  0  0  0
    2.0668    1.2173    0.9062 C   0  0  0  0  0  0  0  0  0  0  0  0
    0.6810    1.5641    0.4760 C   0  0  0  0  0  0  0  0  0  0  0  0
    0.3142    1.3216   -0.7482 N   0  0  0  0  0  0  0  0  0  0  0  0
   -0.9683    1.6549   -1.1325 N   0  0  0  0  0  0  0  0  0  0  0  0
   -1.2722    1.5633   -2.5633 C   0  0  0  0  0  0  0  0  0  0  0  0
   -1.6507    0.1294   -2.9362 C   0  0  0  0  0  0  0  0  0  0  0  0
   -2.4320   -0.1369   -3.8469 O   0  0  0  0  0  0  0  0  0  0  0  0
   -0.9402   -0.8363   -2.2560 N   0  0  0  0  0  0  0  0  0  0  0  0
   -1.3583   -2.2188   -2.2401 C   0  0  0  0  0  0  0  0  0  0  0  0
   -2.2928   -2.4768   -1.0795 C   0  0  0  0  0  0  0  0  0  0  0  0
   -3.6640   -2.2758   -1.2263 C   0  0  0  0  0  0  0  0  0  0  0  0
   -4.4929   -2.4648   -0.1249 C   0  0  0  0  0  0  0  0  0  0  0  0
   -3.9353   -2.8418    1.0903 C   0  0  0  0  0  0  0  0  0  0  0  0
   -2.5625   -3.0076    1.1564 C   0  0  0  0  0  0  0  0  0  0  0  0
   -1.7296   -2.8248    0.1081 N   0  0  0  0  0  0  0  0  0  0  0  0
   -2.0119    1.8794   -0.2377 C   0  0  0  0  0  0  0  0  0  0  0  0
   -3.1687    2.1211   -0.5778 O   0  0  0  0  0  0  0  0  0  0  0  0
   -1.6485    1.7172    1.2128 C   0  0  0  0  0  0  0  0  0  0  0  0
   -0.2487    2.2245    1.4640 C   0  0  0  0  0  0  0  0  0  0  0  0
    2.7478    0.1914    0.2405 C   0  0  0  0  0  0  0  0  0  0  0  0
    4.0463   -0.1559    0.6219 C   0  0  0  0  0  0  0  0  0  0  0  0
    6.0142   -0.6391    2.8630 H   0  0  0  0  0  0  0  0  0  0  0  0
    6.6466   -0.2521    1.2435 H   0  0  0  0  0  0  0  0  0  0  0  0
    6.6154    0.9953    2.4892 H   0  0  0  0  0  0  0  0  0  0  0  0
    4.4814    2.0899    3.1418 H   0  0  0  0  0  0  0  0  0  0  0  0
    2.2147    2.7196    2.4695 H   0  0  0  0  0  0  0  0  0  0  0  0
   -0.3929    1.8669   -3.1403 H   0  0  0  0  0  0  0  0  0  0  0  0
   -2.1111    2.2228   -2.8064 H   0  0  0  0  0  0  0  0  0  0  0  0
   -0.4143   -0.5002   -1.4511 H   0  0  0  0  0  0  0  0  0  0  0  0
   -1.8327   -2.4921   -3.1887 H   0  0  0  0  0  0  0  0  0  0  0  0
   -0.4561   -2.8291   -2.1256 H   0  0  0  0  0  0  0  0  0  0  0  0
   -4.0791   -1.9603   -2.1798 H   0  0  0  0  0  0  0  0  0  0  0  0
   -5.5644   -2.3101   -0.2156 H   0  0  0  0  0  0  0  0  0  0  0  0
   -4.5557   -2.9972    1.9655 H   0  0  0  0  0  0  0  0  0  0  0  0
   -2.0800   -3.2988    2.0850 H   0  0  0  0  0  0  0  0  0  0  0  0
   -1.7355    0.6537    1.4639 H   0  0  0  0  0  0  0  0  0  0  0  0
   -2.3624    2.2774    1.8256 H   0  0  0  0  0  0  0  0  0  0  0  0
   -0.1919    3.3083    1.3100 H   0  0  0  0  0  0  0  0  0  0  0  0
    0.0354    2.0006    2.4960 H   0  0  0  0  0  0  0  0  0  0  0  0
    2.2737   -0.3517   -0.5740 H   0  0  0  0  0  0  0  0  0  0  0  0
    4.5544   -0.9640    0.0995 H   0  0  0  0  0  0  0  0  0  0  0  0
  1  2  1  0
  2  3  2  0
  3  4  1  0
  4  5  2  0
  5  6  1  0
  6  7  2  0
  7  8  1  0
  8  9  1  0
  9 10  1  0
 10 11  2  0
 10 12  1  0
 12 13  1  0
 13 14  1  0
 14 15  2  0
 15 16  1  0
 16 17  2  0
 17 18  1  0
 18 19  2  0
  8 20  1  0
 20 21  2  0
 20 22  1  0
 22 23  1  0
  5 24  1  0
 24 25  2  0
 25  2  1  0
 23  6  1  0
 19 14  1  0
  1 26  1  0
  1 27  1  0
  1 28  1  0
  3 29  1  0
  4 30  1  0
  9 31  1  0
  9 32  1  0
 12 33  1  0
 13 34  1  0
 13 35  1  0
 15 36  1  0
 16 37  1  0
 17 38  1  0
 18 39  1  0
 22 40  1  0
 22 41  1  0
 23 42  1  0
 23 43  1  0
 24 44  1  0
 25 45  1  0
M  END
$$$$
