
     RDKit          3D

 50 53  0  0  0  0  0  0  0  0999 V2000
    0.5435   -0.3373   -4.2629 C   0  0  0  0  0  0  0  0  0  0  0  0
    0.3438   -0.6634   -2.8867 O   0  0  0  0  0  0  0  0  0  0  0  0
   -0.5156    0.1702   -2.2480 C   0  0  0  0  0  0  0  0  0  0  0  0
   -1.0800    1.1358   -2.7342 O   0  0  0  0  0  0  0  0  0  0  0  0
   -0.6532   -0.2721   -0.8428 C   0  0  0  0  0  0  0  0  0  0  0  0
   -1.8551   -0.4221   -0.2369 C   0  0  0  0  0  0  0  0  0  0  0  0
   -3.1461   -0.2279   -0.9111 C   0  0  0  0  0  0  0  0  0  0  0  0
   -3.5989   -1.1610   -1.8527 C   0  0  0  0  0  0  0  0  0  0  0  0
   -4.8233   -0.9763   -2.4968 C   0  0  0  0  0  0  0  0  0  0  0  0
   -5.6027    0.1435   -2.2051 C   0  0  0  0  0  0  0  0  0  0  0  0
   -5.1581    1.0817   -1.2675 C   0  0  0  0  0  0  0  0  0  0  0  0
   -5.9574    2.2337   -0.9698 C   0  0  0  0  0  0  0  0  0  0  0  0
   -6.6111    3.1610   -0.7241 N   0  0  0  0  0  0  0  0  0  0  0  0
   -3.9319    0.8934   -0.6198 C   0  0  0  0  0  0  0  0  0  0  0  0
   -1.9197   -0.8105    1.2357 C   0  0  0  0  0  0  0  0  0  0  0  0
   -0.5236   -1.1358    1.8196 C   0  0  0  0  0  0  0  0  0  0  0  0
    0.0407   -2.4535    1.2526 C   0  0  0  0  0  0  0  0  0  0  0  0
    0.8883   -2.0312    0.0353 C   0  0  0  0  0  0  0  0  0  0  0  0
    0.6411   -0.5204   -0.0950 C   0  0  0  0  0  0  0  0  0  0  0  0
    0.4118   -0.1448    1.3002 N   0  0  0  0  0  0  0  0  0  0  0  0
    1.3967    0.3682    2.1208 C   0  0  0  0  0  0  0  0  0  0  0  0
    1.4894    0.0933    3.3118 O   0  0  0  0  0  0  0  0  0  0  0  0
    2.2495    1.2286    1.4770 N   0  0  0  0  0  0  0  0  0  0  0  0
    3.3051    1.8986    2.2030 C   0  0  0  0  0  0  0  0  0  0  0  0
    4.4935    0.9974    2.3130 C   0  0  0  0  0  0  0  0  0  0  0  0
    5.4053    0.7752    1.1323 C   0  0  0  0  0  0  0  0  0  0  0  0
    5.8896    1.5667    2.3161 C   0  0  0  0  0  0  0  0  0  0  0  0
   -0.4014   -0.3964   -4.8123 H   0  0  0  0  0  0  0  0  0  0  0  0
    1.2368   -1.0688   -4.6869 H   0  0  0  0  0  0  0  0  0  0  0  0
    0.9880    0.6581   -4.3600 H   0  0  0  0  0  0  0  0  0  0  0  0
   -3.0017   -2.0385   -2.0913 H   0  0  0  0  0  0  0  0  0  0  0  0
   -5.1676   -1.7033   -3.2286 H   0  0  0  0  0  0  0  0  0  0  0  0
   -6.5541    0.2812   -2.7156 H   0  0  0  0  0  0  0  0  0  0  0  0
   -3.5804    1.6306    0.1004 H   0  0  0  0  0  0  0  0  0  0  0  0
   -2.5908   -1.6656    1.3805 H   0  0  0  0  0  0  0  0  0  0  0  0
   -2.3383    0.0358    1.7962 H   0  0  0  0  0  0  0  0  0  0  0  0
   -0.5671   -1.1562    2.9132 H   0  0  0  0  0  0  0  0  0  0  0  0
   -0.7427   -3.1695    0.9843 H   0  0  0  0  0  0  0  0  0  0  0  0
    0.6911   -2.9372    1.9910 H   0  0  0  0  0  0  0  0  0  0  0  0
    0.6301   -2.6002   -0.8637 H   0  0  0  0  0  0  0  0  0  0  0  0
    1.9466   -2.2198    0.2545 H   0  0  0  0  0  0  0  0  0  0  0  0
    1.4920    0.0005   -0.5421 H   0  0  0  0  0  0  0  0  0  0  0  0
    1.7954    1.7758    0.7617 H   0  0  0  0  0  0  0  0  0  0  0  0
    3.5493    2.8108    1.6478 H   0  0  0  0  0  0  0  0  0  0  0  0
    2.9490    2.1898    3.1969 H   0  0  0  0  0  0  0  0  0  0  0  0
    4.2984    0.1540    2.9679 H   0  0  0  0  0  0  0  0  0  0  0  0
    5.8052   -0.2221    0.9879 H   0  0  0  0  0  0  0  0  0  0  0  0
    5.2009    1.3090    0.2115 H   0  0  0  0  0  0  0  0  0  0  0  0
    6.0187    2.6359    2.1940 H   0  0  0  0  0  0  0  0  0  0  0  0
    6.6207    1.1052    2.9705 H   0  0  0  0  0  0  0  0  0  0  0  0
  1  2  1  0
  2  3  1  0
  3  4  2  0
  3  5  1  0
  5  6  2  0
  6  7  1  0
  7  8  2  0
  8  9  1  0
  9 10  2  0
 10 11  1  0
 11 12  1  0
 12 13  3  0
 11 14  2  0
  6 15  1  0
 15 16  1  0
 16 17  1  0
 17 18  1  0
 18 19  1  0
 19 20  1  0
 20 21  1  0
 21 22  2  0
 21 23  1  0
 23 24  1  0
 24 25  1  0
 25 26  1  0
 26 27  1  0
 19  5  1  0
 27 25  1  0
 14  7  1  0
 20 16  1  0
  1 28  1  0
  1 29  1  0
  1 30  1  0
  8 31  1  0
  9 32  1  0
 10 33  1  0
 14 34  1  0
 15 35  1  0
 15 36  1  0
 16 37  1  0
 17 38  1  0
 17 39  1  0
 18 40  1  0
 18 41  1  0
 19 42  1  0
 23 43  1  0
 24 44  1  0
 24 45  1  0
 25 46  1  0
 26 47  1  0
 26 48  1  0
 27 49  1  0
 27 50  1  0
M  END
$$$$
