
     RDKit          3D

 32 33  0  0  0  0  0  0  0  0999 V2000
    0.0548   -2.1725   -1.9348 O   0  0  0  0  0  0  0  0  0  0  0  0
    0.1158   -1.5724   -0.8721 C   0  0  0  0  0  0  0  0  0  0  0  0
   -0.9522   -0.8705   -0.3453 N   0  0  0  0  0  0  0  0  0  0  0  0
   -2.2149   -0.8958   -1.0537 C   0  0  0  0  0  0  0  0  0  0  0  0
   -3.1764    0.0903   -0.4475 C   0  0  0  0  0  0  0  0  0  0  0  0
   -4.1748   -0.3306    0.4431 C   0  0  0  0  0  0  0  0  0  0  0  0
   -5.0473    0.5969    1.0174 C   0  0  0  0  0  0  0  0  0  0  0  0
   -4.9263    1.9526    0.7128 C   0  0  0  0  0  0  0  0  0  0  0  0
   -3.9318    2.3782   -0.1647 C   0  0  0  0  0  0  0  0  0  0  0  0
   -3.7740    4.0520   -0.5325 Cl  0  0  0  0  0  0  0  0  0  0  0  0
   -3.0590    1.4572   -0.7427 C   0  0  0  0  0  0  0  0  0  0  0  0
    1.2180   -1.4523   -0.0603 N   0  0  0  0  0  0  0  0  0  0  0  0
    2.4403   -1.9672   -0.4377 C   0  0  0  0  0  0  0  0  0  0  0  0
    2.5961   -3.0769   -0.9365 O   0  0  0  0  0  0  0  0  0  0  0  0
    3.6040   -1.1432   -0.0615 C   0  0  0  0  0  0  0  0  0  0  0  0
    4.8999   -1.6087   -0.2472 C   0  0  0  0  0  0  0  0  0  0  0  0
    6.0997   -0.5005    0.2594 S   0  0  0  0  0  0  0  0  0  0  0  0
    4.9246    0.6331    0.7184 C   0  0  0  0  0  0  0  0  0  0  0  0
    5.3018    1.9085    1.2756 N   0  0  0  0  0  4  0  0  0  0  0  0
    4.3680    2.6329    1.6496 O   0  0  0  0  0  0  0  0  0  0  0  0
    6.5031    2.1924    1.3455 O   0  0  0  0  0  1  0  0  0  0  0  0
    3.6367    0.1872    0.5002 C   0  0  0  0  0  0  0  0  0  0  0  0
   -1.0296   -0.9070    0.6595 H   0  0  0  0  0  0  0  0  0  0  0  0
   -2.6129   -1.9165   -1.0120 H   0  0  0  0  0  0  0  0  0  0  0  0
   -2.0460   -0.6594   -2.1100 H   0  0  0  0  0  0  0  0  0  0  0  0
   -4.2835   -1.3854    0.6922 H   0  0  0  0  0  0  0  0  0  0  0  0
   -5.8232    0.2619    1.7016 H   0  0  0  0  0  0  0  0  0  0  0  0
   -5.6074    2.6700    1.1617 H   0  0  0  0  0  0  0  0  0  0  0  0
   -2.2840    1.8015   -1.4241 H   0  0  0  0  0  0  0  0  0  0  0  0
    1.2118   -0.5889    0.4507 H   0  0  0  0  0  0  0  0  0  0  0  0
    5.1979   -2.5672   -0.6599 H   0  0  0  0  0  0  0  0  0  0  0  0
    2.7708    0.8004    0.7305 H   0  0  0  0  0  0  0  0  0  0  0  0
  1  2  2  0
  2  3  1  0
  3  4  1  0
  4  5  1  0
  5  6  2  0
  6  7  1  0
  7  8  2  0
  8  9  1  0
  9 10  1  0
  9 11  2  0
  2 12  1  0
 12 13  1  0
 13 14  2  0
 13 15  1  0
 15 16  2  0
 16 17  1  0
 17 18  1  0
 18 19  1  0
 19 20  2  0
 19 21  1  0
 18 22  2  0
 11  5  1  0
 22 15  1  0
  3 23  1  0
  4 24  1  0
  4 25  1  0
  6 26  1  0
  7 27  1  0
  8 28  1  0
 11 29  1  0
 12 30  1  0
 16 31  1  0
 22 32  1  0
M  CHG  2  19   1  21  -1
M  END
$$$$
