
     RDKit          3D

 57 60  0  0  0  0  0  0  0  0999 V2000
   -7.1763    2.4848   -1.8140 C   0  0  0  0  0  0  0  0  0  0  0  0
   -5.8998    1.7709   -1.4676 C   0  0  0  0  0  0  0  0  0  0  0  0
   -4.7841    1.8749   -2.3057 C   0  0  0  0  0  0  0  0  0  0  0  0
   -3.5902    1.2219   -1.9837 C   0  0  0  0  0  0  0  0  0  0  0  0
   -3.5068    0.4496   -0.8183 C   0  0  0  0  0  0  0  0  0  0  0  0
   -2.3181   -0.2859   -0.5573 N   0  0  0  0  0  0  0  0  0  0  0  0
   -2.2495   -1.6431   -0.2586 C   0  0  0  0  0  0  0  0  0  0  0  0
   -3.4195   -2.5505   -0.0979 C   0  0  0  0  0  0  0  0  0  0  0  0
   -0.9178   -2.0107   -0.3064 C   0  0  0  0  0  0  0  0  0  0  0  0
   -0.1380   -0.8458   -0.5101 C   0  0  0  0  0  0  0  0  0  0  0  0
    1.3117   -0.7738   -0.5167 C   0  0  0  0  0  0  0  0  0  0  0  0
    1.7153   -0.3744   -1.6439 O   0  0  0  0  0  1  0  0  0  0  0  0
    2.0247   -1.1147    0.5964 C   0  0  0  0  0  0  0  0  0  0  0  0
    3.5723   -1.0052    0.6375 C   0  0  0  0  0  0  0  0  0  0  0  0
    4.4803   -1.8388    1.7982 S   0  0  0  0  0  0  0  0  0  0  0  0
    4.0860   -0.1627   -0.3446 N   0  0  0  0  0  0  0  0  0  0  0  0
    5.3483    0.4166   -0.5860 C   0  0  0  0  0  0  0  0  0  0  0  0
    6.3803    0.5190    0.3509 C   0  0  0  0  0  0  0  0  0  0  0  0
    7.5903    1.1368    0.0161 C   0  0  0  0  0  0  0  0  0  0  0  0
    7.7655    1.6712   -1.2533 C   0  0  0  0  0  0  0  0  0  0  0  0
    8.9266    2.2758   -1.5434 F   0  0  0  0  0  0  0  0  0  0  0  0
    6.7399    1.6050   -2.1907 C   0  0  0  0  0  0  0  0  0  0  0  0
    6.9387    2.2952   -3.7572 Cl  0  0  0  0  0  0  0  0  0  0  0  0
    5.5324    0.9870   -1.8572 C   0  0  0  0  0  0  0  0  0  0  0  0
    1.2672   -1.4329    1.8686 N   0  0  0  0  0  4  0  0  0  0  0  0
    1.2802   -2.6808    2.3874 C   0  0  0  0  0  0  0  0  0  0  0  0
    0.6496   -2.9470    3.6016 C   0  0  0  0  0  0  0  0  0  0  0  0
   -0.0217   -1.9226    4.2606 C   0  0  0  0  0  0  0  0  0  0  0  0
   -0.0472   -0.6509    3.6993 C   0  0  0  0  0  0  0  0  0  0  0  0
    0.6128   -0.4306    2.4955 C   0  0  0  0  0  0  0  0  0  0  0  0
   -1.0197    0.2218   -0.6168 C   0  0  0  0  0  0  0  0  0  0  0  0
   -0.7029    1.6809   -0.7338 C   0  0  0  0  0  0  0  0  0  0  0  0
   -4.6067    0.3567    0.0370 C   0  0  0  0  0  0  0  0  0  0  0  0
   -5.7932    1.0275   -0.2830 C   0  0  0  0  0  0  0  0  0  0  0  0
   -8.0412    1.9651   -1.3850 H   0  0  0  0  0  0  0  0  0  0  0  0
   -7.3228    2.5120   -2.8998 H   0  0  0  0  0  0  0  0  0  0  0  0
   -7.1509    3.5102   -1.4294 H   0  0  0  0  0  0  0  0  0  0  0  0
   -4.8484    2.4388   -3.2350 H   0  0  0  0  0  0  0  0  0  0  0  0
   -2.7555    1.2702   -2.6811 H   0  0  0  0  0  0  0  0  0  0  0  0
   -3.0920   -3.5994   -0.1542 H   0  0  0  0  0  0  0  0  0  0  0  0
   -4.1805   -2.4168   -0.8796 H   0  0  0  0  0  0  0  0  0  0  0  0
   -3.8801   -2.4366    0.8867 H   0  0  0  0  0  0  0  0  0  0  0  0
   -0.5474   -3.0245   -0.2126 H   0  0  0  0  0  0  0  0  0  0  0  0
    3.4105   -0.0359   -1.1253 H   0  0  0  0  0  0  0  0  0  0  0  0
    6.2759    0.1505    1.3646 H   0  0  0  0  0  0  0  0  0  0  0  0
    8.3862    1.2261    0.7495 H   0  0  0  0  0  0  0  0  0  0  0  0
    4.7362    0.9347   -2.5998 H   0  0  0  0  0  0  0  0  0  0  0  0
    1.7954   -3.4496    1.8222 H   0  0  0  0  0  0  0  0  0  0  0  0
    0.6808   -3.9432    4.0278 H   0  0  0  0  0  0  0  0  0  0  0  0
   -0.5227   -2.1084    5.2090 H   0  0  0  0  0  0  0  0  0  0  0  0
   -0.5781    0.1645    4.1886 H   0  0  0  0  0  0  0  0  0  0  0  0
    0.6308    0.5457    2.0186 H   0  0  0  0  0  0  0  0  0  0  0  0
   -0.5022    1.9754   -1.7681 H   0  0  0  0  0  0  0  0  0  0  0  0
    0.1781    1.9239   -0.1291 H   0  0  0  0  0  0  0  0  0  0  0  0
   -1.5139    2.3130   -0.3479 H   0  0  0  0  0  0  0  0  0  0  0  0
   -4.5483   -0.1935    0.9739 H   0  0  0  0  0  0  0  0  0  0  0  0
   -6.6408    0.9524    0.3924 H   0  0  0  0  0  0  0  0  0  0  0  0
  1  2  1  0
  2  3  2  0
  3  4  1  0
  4  5  2  0
  5  6  1  0
  6  7  1  0
  7  8  1  0
  7  9  2  0
  9 10  1  0
 10 11  1  0
 11 12  1  0
 11 13  2  3
 13 14  1  0
 14 15  2  0
 14 16  1  0
 16 17  1  0
 17 18  2  0
 18 19  1  0
 19 20  2  0
 20 21  1  0
 20 22  1  0
 22 23  1  0
 22 24  2  0
 13 25  1  0
 25 26  2  0
 26 27  1  0
 27 28  2  0
 28 29  1  0
 29 30  2  0
 10 31  2  0
 31 32  1  0
  5 33  1  0
 33 34  2  0
 34  2  1  0
 31  6  1  0
 24 17  1  0
 30 25  1  0
  1 35  1  0
  1 36  1  0
  1 37  1  0
  3 38  1  0
  4 39  1  0
  8 40  1  0
  8 41  1  0
  8 42  1  0
  9 43  1  0
 16 44  1  0
 18 45  1  0
 19 46  1  0
 24 47  1  0
 26 48  1  0
 27 49  1  0
 28 50  1  0
 29 51  1  0
 30 52  1  0
 32 53  1  0
 32 54  1  0
 32 55  1  0
 33 56  1  0
 34 57  1  0
M  CHG  2  12  -1  25   1
M  END
$$$$
