
     RDKit          3D

 57 58  0  0  0  0  0  0  0  0999 V2000
    8.1111   -1.7847    1.7767 C   0  0  0  0  0  0  0  0  0  0  0  0
    7.9604   -1.9292    0.2709 C   0  0  0  0  0  0  0  0  0  0  0  0
    6.5272   -2.2123   -0.1741 C   0  0  0  0  0  0  0  0  0  0  0  0
    5.5620   -1.0591    0.1008 C   0  0  0  0  0  0  0  0  0  0  0  0
    4.3011   -1.4017   -0.4764 O   0  0  0  0  0  0  0  0  0  0  0  0
    3.3322   -0.4375   -0.4597 C   0  0  0  0  0  0  0  0  0  0  0  0
    3.3779    0.7563    0.2594 C   0  0  0  0  0  0  0  0  0  0  0  0
    2.3139    1.6640    0.1884 C   0  0  0  0  0  0  0  0  0  0  0  0
    1.1923    1.4009   -0.6134 C   0  0  0  0  0  0  0  0  0  0  0  0
    0.0163    2.3601   -0.7040 C   0  0  0  0  0  0  0  0  0  0  0  0
    0.4575    3.8218   -0.8446 C   0  0  0  0  0  0  0  0  0  0  0  0
   -0.8525    2.1588    0.4457 N   0  0  0  0  0  0  0  0  0  0  0  0
   -2.1420    2.6333    0.4549 C   0  0  0  0  0  0  0  0  0  0  0  0
   -2.6107    3.3903   -0.3882 O   0  0  0  0  0  0  0  0  0  0  0  0
   -2.9791    2.1273    1.6044 C   0  0  0  0  0  0  0  0  0  0  0  0
   -3.8802    0.9879    1.1597 C   0  0  0  0  0  0  0  0  0  0  0  0
   -2.9432   -0.4576    0.6737 S   0  0  0  0  0  6  0  0  0  0  0  0
   -2.5183   -0.2965   -0.7037 O   0  0  0  0  0  0  0  0  0  0  0  0
   -1.9425   -0.6743    1.7063 O   0  0  0  0  0  0  0  0  0  0  0  0
   -4.1024   -1.8225    0.7654 C   0  0  0  0  0  0  0  0  0  0  0  0
   -5.3621   -1.5211   -0.0032 C   0  0  0  0  0  0  0  0  0  0  0  0
   -5.3676   -1.5248   -1.4066 C   0  0  0  0  0  0  0  0  0  0  0  0
   -6.5369   -1.2382   -2.1152 C   0  0  0  0  0  0  0  0  0  0  0  0
   -7.7181   -0.9551   -1.4308 C   0  0  0  0  0  0  0  0  0  0  0  0
   -7.7265   -0.9626   -0.0387 C   0  0  0  0  0  0  0  0  0  0  0  0
   -9.1842   -0.6218    0.8106 Cl  0  0  0  0  0  0  0  0  0  0  0  0
   -6.5600   -1.2451    0.6757 C   0  0  0  0  0  0  0  0  0  0  0  0
    1.1436    0.1815   -1.3076 C   0  0  0  0  0  0  0  0  0  0  0  0
    2.2046   -0.7243   -1.2315 C   0  0  0  0  0  0  0  0  0  0  0  0
    7.7440   -2.6777    2.2949 H   0  0  0  0  0  0  0  0  0  0  0  0
    9.1657   -1.6508    2.0345 H   0  0  0  0  0  0  0  0  0  0  0  0
    7.5650   -0.9141    2.1553 H   0  0  0  0  0  0  0  0  0  0  0  0
    8.3292   -1.0226   -0.2207 H   0  0  0  0  0  0  0  0  0  0  0  0
    8.5987   -2.7544   -0.0643 H   0  0  0  0  0  0  0  0  0  0  0  0
    6.1536   -3.1261    0.3059 H   0  0  0  0  0  0  0  0  0  0  0  0
    6.5268   -2.4254   -1.2503 H   0  0  0  0  0  0  0  0  0  0  0  0
    5.4437   -0.9206    1.1804 H   0  0  0  0  0  0  0  0  0  0  0  0
    5.9514   -0.1411   -0.3582 H   0  0  0  0  0  0  0  0  0  0  0  0
    4.2208    1.0096    0.8937 H   0  0  0  0  0  0  0  0  0  0  0  0
    2.3724    2.5794    0.7748 H   0  0  0  0  0  0  0  0  0  0  0  0
   -0.5690    2.1135   -1.6003 H   0  0  0  0  0  0  0  0  0  0  0  0
    1.1921    3.9339   -1.6481 H   0  0  0  0  0  0  0  0  0  0  0  0
    0.9017    4.2069    0.0794 H   0  0  0  0  0  0  0  0  0  0  0  0
   -0.3907    4.4714   -1.0819 H   0  0  0  0  0  0  0  0  0  0  0  0
   -0.6362    1.3557    1.0291 H   0  0  0  0  0  0  0  0  0  0  0  0
   -2.3359    1.8279    2.4384 H   0  0  0  0  0  0  0  0  0  0  0  0
   -3.5863    2.9635    1.9658 H   0  0  0  0  0  0  0  0  0  0  0  0
   -4.5159    0.6900    1.9988 H   0  0  0  0  0  0  0  0  0  0  0  0
   -4.5101    1.2774    0.3129 H   0  0  0  0  0  0  0  0  0  0  0  0
   -3.6033   -2.7110    0.3648 H   0  0  0  0  0  0  0  0  0  0  0  0
   -4.3125   -1.9993    1.8253 H   0  0  0  0  0  0  0  0  0  0  0  0
   -4.4569   -1.7423   -1.9651 H   0  0  0  0  0  0  0  0  0  0  0  0
   -6.5246   -1.2350   -3.2030 H   0  0  0  0  0  0  0  0  0  0  0  0
   -8.6263   -0.7334   -1.9879 H   0  0  0  0  0  0  0  0  0  0  0  0
   -6.5943   -1.2534    1.7634 H   0  0  0  0  0  0  0  0  0  0  0  0
    0.2721   -0.0745   -1.9100 H   0  0  0  0  0  0  0  0  0  0  0  0
    2.1511   -1.6616   -1.7813 H   0  0  0  0  0  0  0  0  0  0  0  0
  1  2  1  0
  2  3  1  0
  3  4  1  0
  4  5  1  0
  5  6  1  0
  6  7  2  0
  7  8  1  0
  8  9  2  0
  9 10  1  0
 10 11  1  0
 10 12  1  0
 12 13  1  0
 13 14  2  0
 13 15  1  0
 15 16  1  0
 16 17  1  0
 17 18  2  0
 17 19  2  0
 17 20  1  0
 20 21  1  0
 21 22  2  0
 22 23  1  0
 23 24  2  0
 24 25  1  0
 25 26  1  0
 25 27  2  0
  9 28  1  0
 28 29  2  0
 29  6  1  0
 27 21  1  0
  1 30  1  0
  1 31  1  0
  1 32  1  0
  2 33  1  0
  2 34  1  0
  3 35  1  0
  3 36  1  0
  4 37  1  0
  4 38  1  0
  7 39  1  0
  8 40  1  0
 10 41  1  0
 11 42  1  0
 11 43  1  0
 11 44  1  0
 12 45  1  0
 15 46  1  0
 15 47  1  0
 16 48  1  0
 16 49  1  0
 20 50  1  0
 20 51  1  0
 22 52  1  0
 23 53  1  0
 24 54  1  0
 27 55  1  0
 28 56  1  0
 29 57  1  0
M  END
$$$$
