
     RDKit          3D

 40 42  0  0  0  0  0  0  0  0999 V2000
    6.1749    1.3703    0.6424 C   0  0  0  0  0  0  0  0  0  0  0  0
    5.2525    1.8078   -0.4798 C   0  0  0  0  0  0  0  0  0  0  0  0
    4.0913    0.9677   -0.5216 O   0  0  0  0  0  0  0  0  0  0  0  0
    3.0573    1.3379    0.2856 C   0  0  0  0  0  0  0  0  0  0  0  0
    3.0562    2.3123    1.0253 O   0  0  0  0  0  0  0  0  0  0  0  0
    1.9110    0.3734    0.1396 C   0  0  0  0  0  0  0  0  0  0  0  0
    0.8286    0.6184    0.8975 N   0  0  0  0  0  0  0  0  0  0  0  0
   -0.2060   -0.2261    0.7594 C   0  0  0  0  0  0  0  0  0  0  0  0
   -1.3178    0.0930    1.5665 N   0  0  0  0  0  0  0  0  0  0  0  0
   -2.6606    0.2561    1.1375 C   0  0  0  0  0  0  0  0  0  0  0  0
   -3.6561   -0.2319    2.0024 C   0  0  0  0  0  0  0  0  0  0  0  0
   -5.0101   -0.0904    1.7021 C   0  0  0  0  0  0  0  0  0  0  0  0
   -5.3912    0.5678    0.5400 C   0  0  0  0  0  0  0  0  0  0  0  0
   -4.4188    1.1020   -0.3051 C   0  0  0  0  0  0  0  0  0  0  0  0
   -3.0485    0.9805   -0.0071 C   0  0  0  0  0  0  0  0  0  0  0  0
   -2.0637    1.6323   -0.9384 C   0  0  0  0  0  0  0  0  0  0  0  0
   -0.1677   -1.3476   -0.0915 C   0  0  0  0  0  0  0  0  0  0  0  0
   -1.1925   -2.3186   -0.2409 C   0  0  0  0  0  0  0  0  0  0  0  0
   -1.0496   -3.3877   -1.1228 C   0  0  0  0  0  0  0  0  0  0  0  0
    0.1178   -3.5084   -1.8613 C   0  0  0  0  0  0  0  0  0  0  0  0
    1.1345   -2.5635   -1.7055 C   0  0  0  0  0  0  0  0  0  0  0  0
    1.0147   -1.4905   -0.8307 C   0  0  0  0  0  0  0  0  0  0  0  0
    2.0410   -0.6445   -0.7312 N   0  0  0  0  0  0  0  0  0  0  0  0
    6.4413    0.3141    0.5313 H   0  0  0  0  0  0  0  0  0  0  0  0
    7.0913    1.9671    0.6462 H   0  0  0  0  0  0  0  0  0  0  0  0
    5.6860    1.4745    1.6162 H   0  0  0  0  0  0  0  0  0  0  0  0
    5.7640    1.6948   -1.4413 H   0  0  0  0  0  0  0  0  0  0  0  0
    4.9775    2.8645   -0.3845 H   0  0  0  0  0  0  0  0  0  0  0  0
   -1.0367    0.9469    2.0525 H   0  0  0  0  0  0  0  0  0  0  0  0
   -3.3673   -0.7487    2.9155 H   0  0  0  0  0  0  0  0  0  0  0  0
   -5.7620   -0.4926    2.3754 H   0  0  0  0  0  0  0  0  0  0  0  0
   -6.4446    0.6804    0.2969 H   0  0  0  0  0  0  0  0  0  0  0  0
   -4.7393    1.6343   -1.1988 H   0  0  0  0  0  0  0  0  0  0  0  0
   -2.5580    2.3582   -1.5938 H   0  0  0  0  0  0  0  0  0  0  0  0
   -1.5851    0.8835   -1.5757 H   0  0  0  0  0  0  0  0  0  0  0  0
   -1.3061    2.1885   -0.3781 H   0  0  0  0  0  0  0  0  0  0  0  0
   -2.1089   -2.2471    0.3393 H   0  0  0  0  0  0  0  0  0  0  0  0
   -1.8461   -4.1200   -1.2273 H   0  0  0  0  0  0  0  0  0  0  0  0
    0.2463   -4.3366   -2.5535 H   0  0  0  0  0  0  0  0  0  0  0  0
    2.0507   -2.6725   -2.2828 H   0  0  0  0  0  0  0  0  0  0  0  0
  1  2  1  0
  2  3  1  0
  3  4  1  0
  4  5  2  0
  4  6  1  0
  6  7  2  0
  7  8  1  0
  8  9  1  0
  9 10  1  0
 10 11  2  0
 11 12  1  0
 12 13  2  0
 13 14  1  0
 14 15  2  0
 15 16  1  0
  8 17  2  0
 17 18  1  0
 18 19  2  0
 19 20  1  0
 20 21  2  0
 21 22  1  0
 22 23  2  0
 23  6  1  0
 15 10  1  0
 22 17  1  0
  1 24  1  0
  1 25  1  0
  1 26  1  0
  2 27  1  0
  2 28  1  0
  9 29  1  0
 11 30  1  0
 12 31  1  0
 13 32  1  0
 14 33  1  0
 16 34  1  0
 16 35  1  0
 16 36  1  0
 18 37  1  0
 19 38  1  0
 20 39  1  0
 21 40  1  0
M  END
$$$$
