
     RDKit          3D

 49 52  0  0  0  0  0  0  0  0999 V2000
    6.7394    1.5743    0.4857 C   0  0  0  0  0  0  0  0  0  0  0  0
    6.3479    0.1635    0.1550 C   0  0  0  0  0  0  0  0  0  0  0  0
    7.0043   -0.5311   -0.8714 C   0  0  0  0  0  0  0  0  0  0  0  0
    6.6382   -1.8428   -1.1812 C   0  0  0  0  0  0  0  0  0  0  0  0
    7.4586   -2.6816   -2.4403 Cl  0  0  0  0  0  0  0  0  0  0  0  0
    5.6194   -2.4814   -0.4767 C   0  0  0  0  0  0  0  0  0  0  0  0
    4.9525   -1.7994    0.5403 C   0  0  0  0  0  0  0  0  0  0  0  0
    5.3023   -0.4777    0.8357 C   0  0  0  0  0  0  0  0  0  0  0  0
    4.6577    0.1770    1.8567 O   0  0  0  0  0  0  0  0  0  0  0  0
    3.4056    0.6297    1.7097 C   0  0  0  0  0  0  0  0  0  0  0  0
    2.7410    1.0312    2.7728 N   0  0  0  0  0  0  0  0  0  0  0  0
    1.4847    1.4694    2.4075 C   0  0  0  0  0  0  0  0  0  0  0  0
    1.1940    1.4089    1.0603 C   0  0  0  0  0  0  0  0  0  0  0  0
   -0.0570    1.8119    0.3427 C   0  0  0  0  0  0  0  0  0  0  0  0
   -0.7636    0.6655   -0.2443 N   0  0  0  0  0  0  0  0  0  0  0  0
   -1.7304    1.1302   -1.2647 C   0  0  0  0  0  0  0  0  0  0  0  0
   -2.9129    0.1662   -1.5121 C   0  0  0  0  0  0  0  0  0  0  0  0
   -3.6890   -0.0102   -0.2755 N   0  0  0  0  0  0  0  0  0  0  0  0
   -5.0125   -0.4204   -0.2935 C   0  0  0  0  0  0  0  0  0  0  0  0
   -5.8426   -0.2790    0.8317 C   0  0  0  0  0  0  0  0  0  0  0  0
   -7.1838   -0.6830    0.8238 C   0  0  0  0  0  0  0  0  0  0  0  0
   -7.7352   -1.2432   -0.3211 C   0  0  0  0  0  0  0  0  0  0  0  0
   -6.9446   -1.3943   -1.4530 C   0  0  0  0  0  0  0  0  0  0  0  0
   -5.6047   -0.9852   -1.4350 C   0  0  0  0  0  0  0  0  0  0  0  0
   -2.9351    0.0659    0.9868 C   0  0  0  0  0  0  0  0  0  0  0  0
   -1.4258   -0.1937    0.7617 C   0  0  0  0  0  0  0  0  0  0  0  0
    2.5606    0.8028    0.2185 S   0  0  0  0  0  0  0  0  0  0  0  0
    7.6759    1.8550   -0.0077 H   0  0  0  0  0  0  0  0  0  0  0  0
    6.8936    1.6877    1.5637 H   0  0  0  0  0  0  0  0  0  0  0  0
    5.9601    2.2684    0.1561 H   0  0  0  0  0  0  0  0  0  0  0  0
    7.8058   -0.0520   -1.4291 H   0  0  0  0  0  0  0  0  0  0  0  0
    5.3427   -3.5052   -0.7126 H   0  0  0  0  0  0  0  0  0  0  0  0
    4.1636   -2.2962    1.0991 H   0  0  0  0  0  0  0  0  0  0  0  0
    0.8105    1.8270    3.1765 H   0  0  0  0  0  0  0  0  0  0  0  0
   -0.7182    2.3702    1.0186 H   0  0  0  0  0  0  0  0  0  0  0  0
    0.2358    2.5139   -0.4505 H   0  0  0  0  0  0  0  0  0  0  0  0
   -1.1930    1.2869   -2.2071 H   0  0  0  0  0  0  0  0  0  0  0  0
   -2.1555    2.0999   -0.9694 H   0  0  0  0  0  0  0  0  0  0  0  0
   -3.5344    0.6082   -2.3001 H   0  0  0  0  0  0  0  0  0  0  0  0
   -2.5455   -0.8039   -1.8680 H   0  0  0  0  0  0  0  0  0  0  0  0
   -5.4626    0.1769    1.7416 H   0  0  0  0  0  0  0  0  0  0  0  0
   -7.7928   -0.5518    1.7140 H   0  0  0  0  0  0  0  0  0  0  0  0
   -8.7746   -1.5585   -0.3319 H   0  0  0  0  0  0  0  0  0  0  0  0
   -7.3624   -1.8340   -2.3545 H   0  0  0  0  0  0  0  0  0  0  0  0
   -5.0240   -1.1428   -2.3389 H   0  0  0  0  0  0  0  0  0  0  0  0
   -3.2899   -0.6869    1.7014 H   0  0  0  0  0  0  0  0  0  0  0  0
   -3.0784    1.0563    1.4354 H   0  0  0  0  0  0  0  0  0  0  0  0
   -0.9106   -0.1649    1.7283 H   0  0  0  0  0  0  0  0  0  0  0  0
   -1.3151   -1.2280    0.4088 H   0  0  0  0  0  0  0  0  0  0  0  0
  1  2  1  0
  2  3  2  0
  3  4  1  0
  4  5  1  0
  4  6  2  0
  6  7  1  0
  7  8  2  0
  8  9  1  0
  9 10  1  0
 10 11  2  0
 11 12  1  0
 12 13  2  0
 13 14  1  0
 14 15  1  0
 15 16  1  0
 16 17  1  0
 17 18  1  0
 18 19  1  0
 19 20  2  0
 20 21  1  0
 21 22  2  0
 22 23  1  0
 23 24  2  0
 18 25  1  0
 25 26  1  0
 13 27  1  0
  8  2  1  0
 27 10  1  0
 26 15  1  0
 24 19  1  0
  1 28  1  0
  1 29  1  0
  1 30  1  0
  3 31  1  0
  6 32  1  0
  7 33  1  0
 12 34  1  0
 14 35  1  0
 14 36  1  0
 16 37  1  0
 16 38  1  0
 17 39  1  0
 17 40  1  0
 20 41  1  0
 21 42  1  0
 22 43  1  0
 23 44  1  0
 24 45  1  0
 25 46  1  0
 25 47  1  0
 26 48  1  0
 26 49  1  0
M  END
$$$$
