
     RDKit          3D

 33 36  0  0  0  0  0  0  0  0999 V2000
    5.0277    0.3156    0.4629 C   0  0  0  0  0  0  0  0  0  0  0  0
    4.6963   -1.0220    0.6330 C   0  0  0  0  0  0  0  0  0  0  0  0
    3.3780   -1.4351    0.4337 C   0  0  0  0  0  0  0  0  0  0  0  0
    2.3837   -0.5362    0.0669 C   0  0  0  0  0  0  0  0  0  0  0  0
    1.1245   -0.9807   -0.1102 N   0  0  0  0  0  0  0  0  0  0  0  0
    0.1831   -0.0776   -0.4712 C   0  0  0  0  0  0  0  0  0  0  0  0
    0.5500    1.2730   -0.6536 C   0  0  0  0  0  0  0  0  0  0  0  0
    1.8039    1.7386   -0.4625 N   0  0  0  0  0  0  0  0  0  0  0  0
    2.7229    0.8273   -0.1079 C   0  0  0  0  0  0  0  0  0  0  0  0
    4.0381    1.2279    0.0942 C   0  0  0  0  0  0  0  0  0  0  0  0
   -0.3591    2.2533   -0.9769 O   0  0  0  0  0  0  0  0  0  0  0  0
   -1.4717    1.7023   -1.6792 C   0  0  0  0  0  0  0  0  0  0  0  0
   -2.1228    0.5340   -0.9288 C   0  0  0  0  0  0  0  0  0  0  0  0
   -2.7976    0.9466    0.3838 C   0  0  0  0  0  0  0  0  0  0  0  0
   -3.5222   -0.2438    1.0283 C   0  0  0  0  0  0  0  0  0  0  0  0
   -3.0282   -1.6007    0.5148 C   0  0  0  0  0  0  0  0  0  0  0  0
   -1.5187   -1.5942    0.2776 C   0  0  0  0  0  0  0  0  0  0  0  0
   -1.1393   -0.5244   -0.6553 N   0  0  0  0  0  0  0  0  0  0  0  0
    6.0500    0.6528    0.6145 H   0  0  0  0  0  0  0  0  0  0  0  0
    5.4563   -1.7447    0.9191 H   0  0  0  0  0  0  0  0  0  0  0  0
    3.1167   -2.4823    0.5660 H   0  0  0  0  0  0  0  0  0  0  0  0
    4.2946    2.2761   -0.0403 H   0  0  0  0  0  0  0  0  0  0  0  0
   -1.1389    1.3886   -2.6781 H   0  0  0  0  0  0  0  0  0  0  0  0
   -2.2007    2.5070   -1.8258 H   0  0  0  0  0  0  0  0  0  0  0  0
   -2.8916    0.1239   -1.5974 H   0  0  0  0  0  0  0  0  0  0  0  0
   -2.0510    1.3303    1.0910 H   0  0  0  0  0  0  0  0  0  0  0  0
   -3.5123    1.7603    0.2140 H   0  0  0  0  0  0  0  0  0  0  0  0
   -4.6001   -0.1675    0.8418 H   0  0  0  0  0  0  0  0  0  0  0  0
   -3.3944   -0.1888    2.1162 H   0  0  0  0  0  0  0  0  0  0  0  0
   -3.5445   -1.8434   -0.4228 H   0  0  0  0  0  0  0  0  0  0  0  0
   -3.2962   -2.3866    1.2299 H   0  0  0  0  0  0  0  0  0  0  0  0
   -1.0296   -1.4668    1.2533 H   0  0  0  0  0  0  0  0  0  0  0  0
   -1.2071   -2.5626   -0.1308 H   0  0  0  0  0  0  0  0  0  0  0  0
  1  2  2  0
  2  3  1  0
  3  4  2  0
  4  5  1  0
  5  6  2  0
  6  7  1  0
  7  8  2  0
  8  9  1  0
  9 10  2  0
  7 11  1  0
 11 12  1  0
 12 13  1  0
 13 14  1  0
 14 15  1  0
 15 16  1  0
 16 17  1  0
 17 18  1  0
 10  1  1  0
 18 13  1  0
  9  4  1  0
 18  6  1  0
  1 19  1  0
  2 20  1  0
  3 21  1  0
 10 22  1  0
 12 23  1  0
 12 24  1  0
 13 25  1  0
 14 26  1  0
 14 27  1  0
 15 28  1  0
 15 29  1  0
 16 30  1  0
 16 31  1  0
 17 32  1  0
 17 33  1  0
M  END
$$$$
