
     RDKit          3D

 46 47  0  0  0  0  0  0  0  0999 V2000
    1.3965   -0.7090    4.5320 C   0  0  0  0  0  0  0  0  0  0  0  0
   -0.0059   -1.5037    3.7078 S   0  0  0  0  0  0  0  0  0  0  0  0
   -0.6520   -0.0708    2.7724 C   0  0  0  0  0  0  0  0  0  0  0  0
    0.1456    0.2111    1.4995 C   0  0  0  0  0  0  0  0  0  0  0  0
   -0.0327   -0.8503    0.3985 C   0  0  0  0  0  0  0  0  0  0  0  0
   -1.4179   -1.0626   -0.0491 N   0  0  0  0  0  0  0  0  0  0  0  0
   -2.3103   -0.0446   -0.3088 C   0  0  0  0  0  0  0  0  0  0  0  0
   -2.2002    1.1213    0.0398 O   0  0  0  0  0  0  0  0  0  0  0  0
   -3.4777   -0.4548   -1.1075 C   0  0  0  0  0  0  0  0  0  0  0  0
   -3.2803   -0.7136   -2.4710 C   0  0  0  0  0  0  0  0  0  0  0  0
   -4.3605   -1.0955   -3.2660 C   0  0  0  0  0  0  0  0  0  0  0  0
   -5.6311   -1.2162   -2.7021 C   0  0  0  0  0  0  0  0  0  0  0  0
   -5.8248   -0.9544   -1.3425 C   0  0  0  0  0  0  0  0  0  0  0  0
   -4.7476   -0.5701   -0.5387 C   0  0  0  0  0  0  0  0  0  0  0  0
   -5.0411   -0.2952    1.1394 Cl  0  0  0  0  0  0  0  0  0  0  0  0
    0.8506   -0.5528   -0.8476 C   0  0  0  0  0  0  0  0  0  0  0  0
    0.3288   -0.2502   -1.9277 O   0  0  0  0  0  0  0  0  0  0  0  0
    2.2351   -0.6451   -0.7289 N   0  0  0  0  0  0  0  0  0  0  0  0
    2.9568   -1.1198    0.4450 C   0  0  0  0  0  0  0  0  0  0  0  0
    3.0530   -0.1122   -1.8196 C   0  0  0  0  0  0  0  0  0  0  0  0
    3.4612    1.2958   -1.4959 C   0  0  0  0  0  0  0  0  0  0  0  0
    2.6673    2.4270   -1.4572 C   0  0  0  0  0  0  0  0  0  0  0  0
    3.4031    3.5958   -1.1101 C   0  0  0  0  0  0  0  0  0  0  0  0
    4.7359    3.3219   -0.9022 C   0  0  0  0  0  0  0  0  0  0  0  0
    5.0938    1.6650   -1.1253 S   0  0  0  0  0  0  0  0  0  0  0  0
    1.0566    0.1364    5.1358 H   0  0  0  0  0  0  0  0  0  0  0  0
    2.1343   -0.3693    3.8014 H   0  0  0  0  0  0  0  0  0  0  0  0
    1.8781   -1.4341    5.1936 H   0  0  0  0  0  0  0  0  0  0  0  0
   -0.6359    0.8071    3.4270 H   0  0  0  0  0  0  0  0  0  0  0  0
   -1.7028   -0.2694    2.5422 H   0  0  0  0  0  0  0  0  0  0  0  0
    1.2023    0.3327    1.7548 H   0  0  0  0  0  0  0  0  0  0  0  0
   -0.1387    1.1971    1.1162 H   0  0  0  0  0  0  0  0  0  0  0  0
    0.2669   -1.8364    0.7671 H   0  0  0  0  0  0  0  0  0  0  0  0
   -1.5780   -1.9296   -0.5462 H   0  0  0  0  0  0  0  0  0  0  0  0
   -2.2913   -0.5992   -2.9125 H   0  0  0  0  0  0  0  0  0  0  0  0
   -4.2133   -1.2898   -4.3260 H   0  0  0  0  0  0  0  0  0  0  0  0
   -6.4747   -1.5103   -3.3227 H   0  0  0  0  0  0  0  0  0  0  0  0
   -6.8203   -1.0522   -0.9157 H   0  0  0  0  0  0  0  0  0  0  0  0
    2.3242   -1.7093    1.1081 H   0  0  0  0  0  0  0  0  0  0  0  0
    3.7862   -1.7562    0.1216 H   0  0  0  0  0  0  0  0  0  0  0  0
    3.3527   -0.2620    0.9953 H   0  0  0  0  0  0  0  0  0  0  0  0
    3.9151   -0.7732   -1.9652 H   0  0  0  0  0  0  0  0  0  0  0  0
    2.4958   -0.1141   -2.7632 H   0  0  0  0  0  0  0  0  0  0  0  0
    1.6027    2.4116   -1.6667 H   0  0  0  0  0  0  0  0  0  0  0  0
    2.9748    4.5867   -1.0208 H   0  0  0  0  0  0  0  0  0  0  0  0
    5.5197    4.0163   -0.6323 H   0  0  0  0  0  0  0  0  0  0  0  0
  1  2  1  0
  2  3  1  0
  3  4  1  0
  4  5  1  0
  5  6  1  0
  6  7  1  0
  7  8  2  0
  7  9  1  0
  9 10  2  0
 10 11  1  0
 11 12  2  0
 12 13  1  0
 13 14  2  0
 14 15  1  0
  5 16  1  0
 16 17  2  0
 16 18  1  0
 18 19  1  0
 18 20  1  0
 20 21  1  0
 21 22  2  0
 22 23  1  0
 23 24  2  0
 24 25  1  0
 14  9  1  0
 25 21  1  0
  1 26  1  0
  1 27  1  0
  1 28  1  0
  3 29  1  0
  3 30  1  0
  4 31  1  0
  4 32  1  0
  5 33  1  0
  6 34  1  0
 10 35  1  0
 11 36  1  0
 12 37  1  0
 13 38  1  0
 19 39  1  0
 19 40  1  0
 19 41  1  0
 20 42  1  0
 20 43  1  0
 22 44  1  0
 23 45  1  0
 24 46  1  0
M  END
$$$$
