
     RDKit          3D

 46 48  0  0  0  0  0  0  0  0999 V2000
   -5.6401    2.8092   -1.3721 C   0  0  0  0  0  0  0  0  0  0  0  0
   -5.4866    2.1342   -0.1325 O   0  0  0  0  0  0  0  0  0  0  0  0
   -4.3412    1.4010    0.0590 C   0  0  0  0  0  0  0  0  0  0  0  0
   -3.3038    1.2970   -0.8742 C   0  0  0  0  0  0  0  0  0  0  0  0
   -2.1652    0.5333   -0.5874 C   0  0  0  0  0  0  0  0  0  0  0  0
   -2.0622   -0.1504    0.6293 C   0  0  0  0  0  0  0  0  0  0  0  0
   -3.1082   -0.0561    1.5599 C   0  0  0  0  0  0  0  0  0  0  0  0
   -4.2411    0.7209    1.2891 C   0  0  0  0  0  0  0  0  0  0  0  0
   -5.3022    0.8706    2.1481 O   0  0  0  0  0  0  0  0  0  0  0  0
   -5.2306    0.2191    3.4078 C   0  0  0  0  0  0  0  0  0  0  0  0
   -0.8793   -1.0495    0.9059 C   0  0  0  0  0  0  0  0  0  0  0  0
    0.3646   -0.7192    0.1807 N   0  0  0  0  0  0  0  0  0  0  0  0
    1.5705   -1.3947    0.4817 C   0  0  0  0  0  0  0  0  0  0  0  0
    1.6352   -2.8084    1.3960 S   0  0  0  0  0  0  0  0  0  0  0  0
    2.6880   -0.7210    0.0012 N   0  0  0  0  0  0  0  0  0  0  0  0
    3.9941   -1.1957   -0.2827 C   0  0  0  0  0  0  0  0  0  0  0  0
    4.1969   -2.5086   -0.7312 C   0  0  0  0  0  0  0  0  0  0  0  0
    5.4667   -2.9608   -1.0849 C   0  0  0  0  0  0  0  0  0  0  0  0
    6.5490   -2.0933   -1.0213 C   0  0  0  0  0  0  0  0  0  0  0  0
    6.3642   -0.7733   -0.6020 C   0  0  0  0  0  0  0  0  0  0  0  0
    7.7672    0.2413   -0.6046 Cl  0  0  0  0  0  0  0  0  0  0  0  0
    5.0920   -0.3025   -0.2141 C   0  0  0  0  0  0  0  0  0  0  0  0
    4.8965    1.1209    0.2453 C   0  0  0  0  0  0  0  0  0  0  0  0
    0.2915    0.3486   -0.8321 C   0  0  0  0  0  0  0  0  0  0  0  0
   -1.0426    0.3958   -1.5749 C   0  0  0  0  0  0  0  0  0  0  0  0
   -4.8610    3.5663   -1.5086 H   0  0  0  0  0  0  0  0  0  0  0  0
   -6.6047    3.3256   -1.3546 H   0  0  0  0  0  0  0  0  0  0  0  0
   -5.6573    2.1023   -2.2081 H   0  0  0  0  0  0  0  0  0  0  0  0
   -3.3573    1.8039   -1.8318 H   0  0  0  0  0  0  0  0  0  0  0  0
   -3.0178   -0.6076    2.4905 H   0  0  0  0  0  0  0  0  0  0  0  0
   -5.1941   -0.8686    3.2879 H   0  0  0  0  0  0  0  0  0  0  0  0
   -6.1427    0.4611    3.9618 H   0  0  0  0  0  0  0  0  0  0  0  0
   -4.3801    0.5827    3.9939 H   0  0  0  0  0  0  0  0  0  0  0  0
   -0.6519   -1.0193    1.9783 H   0  0  0  0  0  0  0  0  0  0  0  0
   -1.1632   -2.0738    0.6357 H   0  0  0  0  0  0  0  0  0  0  0  0
    2.5971    0.2811    0.0853 H   0  0  0  0  0  0  0  0  0  0  0  0
    3.3645   -3.1959   -0.8546 H   0  0  0  0  0  0  0  0  0  0  0  0
    5.6033   -3.9834   -1.4272 H   0  0  0  0  0  0  0  0  0  0  0  0
    7.5352   -2.4471   -1.3118 H   0  0  0  0  0  0  0  0  0  0  0  0
    4.4527    1.7145   -0.5601 H   0  0  0  0  0  0  0  0  0  0  0  0
    5.8250    1.6056    0.5569 H   0  0  0  0  0  0  0  0  0  0  0  0
    4.2446    1.1574    1.1249 H   0  0  0  0  0  0  0  0  0  0  0  0
    0.4691    1.2942   -0.3041 H   0  0  0  0  0  0  0  0  0  0  0  0
    1.0919    0.2238   -1.5690 H   0  0  0  0  0  0  0  0  0  0  0  0
   -1.1920   -0.5222   -2.1557 H   0  0  0  0  0  0  0  0  0  0  0  0
   -1.0345    1.2411   -2.2723 H   0  0  0  0  0  0  0  0  0  0  0  0
  1  2  1  0
  2  3  1  0
  3  4  2  0
  4  5  1  0
  5  6  2  0
  6  7  1  0
  7  8  2  0
  8  9  1  0
  9 10  1  0
  6 11  1  0
 11 12  1  0
 12 13  1  0
 13 14  2  0
 13 15  1  0
 15 16  1  0
 16 17  2  0
 17 18  1  0
 18 19  2  0
 19 20  1  0
 20 21  1  0
 20 22  2  0
 22 23  1  0
 12 24  1  0
 24 25  1  0
  8  3  1  0
 22 16  1  0
 25  5  1  0
  1 26  1  0
  1 27  1  0
  1 28  1  0
  4 29  1  0
  7 30  1  0
 10 31  1  0
 10 32  1  0
 10 33  1  0
 11 34  1  0
 11 35  1  0
 15 36  1  0
 17 37  1  0
 18 38  1  0
 19 39  1  0
 23 40  1  0
 23 41  1  0
 23 42  1  0
 24 43  1  0
 24 44  1  0
 25 45  1  0
 25 46  1  0
M  END
$$$$
