
     RDKit          3D

 41 42  0  0  0  0  0  0  0  0999 V2000
   -3.6696    2.5442    0.9536 C   0  0  0  0  0  0  0  0  0  0  0  0
   -3.6122    1.3317    0.0356 C   0  0  0  0  0  0  0  0  0  0  0  0
   -2.6009    0.3659    0.5088 N   0  0  0  0  0  0  0  0  0  0  0  0
   -3.1342   -0.6134    1.4779 C   0  0  0  0  0  0  0  0  0  0  0  0
   -3.5381   -1.9026    0.7780 C   0  0  0  0  0  0  0  0  0  0  0  0
   -1.2623    0.3546    0.0505 C   0  0  0  0  0  0  0  0  0  0  0  0
   -0.3289   -0.5287    0.4726 C   0  0  0  0  0  0  0  0  0  0  0  0
    1.0414   -0.5527   -0.0133 C   0  0  0  0  0  0  0  0  0  0  0  0
    2.0296   -1.1098    0.7089 C   0  0  0  0  0  0  0  0  0  0  0  0
    3.4411   -0.9963    0.3363 C   0  0  0  0  0  0  0  0  0  0  0  0
    4.4101   -1.8014    0.8381 C   0  0  0  0  0  0  0  0  0  0  0  0
    4.1177   -2.8632    1.7448 C   0  0  0  0  0  0  0  0  0  0  0  0
    3.8698   -3.7212    2.4862 N   0  0  0  0  0  0  0  0  0  0  0  0
    5.7794   -1.6327    0.4790 C   0  0  0  0  0  0  0  0  0  0  0  0
    6.8909   -1.4846    0.1795 N   0  0  0  0  0  0  0  0  0  0  0  0
    3.7078    0.1548   -0.6249 C   0  0  0  0  0  0  0  0  0  0  0  0
    2.7311    0.1309   -1.7969 C   0  0  0  0  0  0  0  0  0  0  0  0
    1.2629    0.1254   -1.3468 C   0  0  0  0  0  0  0  0  0  0  0  0
    0.6554    1.5235   -1.2553 C   0  0  0  0  0  0  0  0  0  0  0  0
   -0.8524    1.4184   -0.9748 C   0  0  0  0  0  0  0  0  0  0  0  0
   -2.7043    3.0567    1.0050 H   0  0  0  0  0  0  0  0  0  0  0  0
   -3.9455    2.2562    1.9732 H   0  0  0  0  0  0  0  0  0  0  0  0
   -4.4155    3.2581    0.5904 H   0  0  0  0  0  0  0  0  0  0  0  0
   -3.4170    1.6476   -0.9943 H   0  0  0  0  0  0  0  0  0  0  0  0
   -4.6009    0.8566    0.0069 H   0  0  0  0  0  0  0  0  0  0  0  0
   -2.4085   -0.8156    2.2732 H   0  0  0  0  0  0  0  0  0  0  0  0
   -4.0126   -0.2022    1.9909 H   0  0  0  0  0  0  0  0  0  0  0  0
   -4.2982   -1.7134    0.0130 H   0  0  0  0  0  0  0  0  0  0  0  0
   -3.9528   -2.6115    1.5015 H   0  0  0  0  0  0  0  0  0  0  0  0
   -2.6844   -2.3802    0.2876 H   0  0  0  0  0  0  0  0  0  0  0  0
   -0.5690   -1.2615    1.2353 H   0  0  0  0  0  0  0  0  0  0  0  0
    1.7824   -1.6155    1.6417 H   0  0  0  0  0  0  0  0  0  0  0  0
    3.6103    1.1033   -0.0803 H   0  0  0  0  0  0  0  0  0  0  0  0
    4.7246    0.1336   -1.0297 H   0  0  0  0  0  0  0  0  0  0  0  0
    2.9293    0.9741   -2.4691 H   0  0  0  0  0  0  0  0  0  0  0  0
    2.9201   -0.7783   -2.3847 H   0  0  0  0  0  0  0  0  0  0  0  0
    0.7062   -0.4303   -2.1162 H   0  0  0  0  0  0  0  0  0  0  0  0
    0.8080    2.0776   -2.1891 H   0  0  0  0  0  0  0  0  0  0  0  0
    1.1405    2.1035   -0.4587 H   0  0  0  0  0  0  0  0  0  0  0  0
   -1.1904    2.4091   -0.6528 H   0  0  0  0  0  0  0  0  0  0  0  0
   -1.3611    1.1891   -1.9203 H   0  0  0  0  0  0  0  0  0  0  0  0
  1  2  1  0
  2  3  1  0
  3  4  1  0
  4  5  1  0
  3  6  1  0
  6  7  2  0
  7  8  1  0
  8  9  2  0
  9 10  1  0
 10 11  2  3
 11 12  1  0
 12 13  3  0
 11 14  1  0
 14 15  3  0
 10 16  1  0
 16 17  1  0
 17 18  1  0
 18 19  1  0
 19 20  1  0
 20  6  1  0
 18  8  1  0
  1 21  1  0
  1 22  1  0
  1 23  1  0
  2 24  1  0
  2 25  1  0
  4 26  1  0
  4 27  1  0
  5 28  1  0
  5 29  1  0
  5 30  1  0
  7 31  1  0
  9 32  1  0
 16 33  1  0
 16 34  1  0
 17 35  1  0
 17 36  1  0
 18 37  1  0
 19 38  1  0
 19 39  1  0
 20 40  1  0
 20 41  1  0
M  END
$$$$
