
     RDKit          3D

 36 37  0  0  0  0  0  0  0  0999 V2000
    1.6198   -1.6393   -0.5223 C   0  0  0  0  0  0  0  0  0  0  0  0
    1.2418   -0.1621   -0.6525 C   0  0  0  0  0  0  0  0  0  0  0  0
    0.2800    0.1812    0.3955 N   0  0  0  0  0  0  0  0  0  0  0  0
   -0.9849   -0.0167    0.2755 C   0  0  0  0  0  0  0  0  0  0  0  0
   -1.8109    0.4769    1.4654 C   0  0  0  0  0  0  0  0  0  0  0  0
   -2.7162   -0.5955    2.0481 C   0  0  0  0  0  0  0  0  0  0  0  0
   -4.0686   -0.6790    1.3434 C   0  0  0  0  0  0  0  0  0  0  0  0
   -4.0143   -0.5609   -0.1794 C   0  0  0  0  0  0  0  0  0  0  0  0
   -2.8580   -1.3283   -0.7998 C   0  0  0  0  0  0  0  0  0  0  0  0
   -1.6180   -0.5712   -0.8161 N   0  0  0  0  0  0  0  0  0  0  0  0
    2.4975    0.6939   -0.5590 C   0  0  0  0  0  0  0  0  0  0  0  0
    3.0370    1.0637    0.6829 C   0  0  0  0  0  0  0  0  0  0  0  0
    4.2035    1.8272    0.7559 C   0  0  0  0  0  0  0  0  0  0  0  0
    4.8495    2.2272   -0.4117 C   0  0  0  0  0  0  0  0  0  0  0  0
    4.3300    1.8640   -1.6525 C   0  0  0  0  0  0  0  0  0  0  0  0
    3.1628    1.1006   -1.7266 C   0  0  0  0  0  0  0  0  0  0  0  0
    2.0650   -1.8545    0.4562 H   0  0  0  0  0  0  0  0  0  0  0  0
    0.7414   -2.2843   -0.6282 H   0  0  0  0  0  0  0  0  0  0  0  0
    2.3443   -1.9317   -1.2905 H   0  0  0  0  0  0  0  0  0  0  0  0
    0.8043    0.0198   -1.6416 H   0  0  0  0  0  0  0  0  0  0  0  0
   -1.1144    0.8026    2.2491 H   0  0  0  0  0  0  0  0  0  0  0  0
   -2.3746    1.3655    1.1596 H   0  0  0  0  0  0  0  0  0  0  0  0
   -2.8998   -0.3805    3.1079 H   0  0  0  0  0  0  0  0  0  0  0  0
   -2.2178   -1.5721    2.0136 H   0  0  0  0  0  0  0  0  0  0  0  0
   -4.5415   -1.6302    1.6180 H   0  0  0  0  0  0  0  0  0  0  0  0
   -4.7289    0.1091    1.7265 H   0  0  0  0  0  0  0  0  0  0  0  0
   -3.9717    0.4952   -0.4731 H   0  0  0  0  0  0  0  0  0  0  0  0
   -4.9596   -0.9508   -0.5771 H   0  0  0  0  0  0  0  0  0  0  0  0
   -3.1151   -1.5455   -1.8433 H   0  0  0  0  0  0  0  0  0  0  0  0
   -2.7049   -2.2964   -0.3098 H   0  0  0  0  0  0  0  0  0  0  0  0
   -0.9846   -0.9200   -1.5241 H   0  0  0  0  0  0  0  0  0  0  0  0
    2.5392    0.7586    1.6012 H   0  0  0  0  0  0  0  0  0  0  0  0
    4.6041    2.1097    1.7255 H   0  0  0  0  0  0  0  0  0  0  0  0
    5.7564    2.8227   -0.3541 H   0  0  0  0  0  0  0  0  0  0  0  0
    4.8332    2.1757   -2.5637 H   0  0  0  0  0  0  0  0  0  0  0  0
    2.7738    0.8251   -2.7038 H   0  0  0  0  0  0  0  0  0  0  0  0
  1  2  1  0
  2  3  1  0
  3  4  2  3
  4  5  1  0
  5  6  1  0
  6  7  1  0
  7  8  1  0
  8  9  1  0
  9 10  1  0
  2 11  1  0
 11 12  2  0
 12 13  1  0
 13 14  2  0
 14 15  1  0
 15 16  2  0
 10  4  1  0
 16 11  1  0
  1 17  1  0
  1 18  1  0
  1 19  1  0
  2 20  1  0
  5 21  1  0
  5 22  1  0
  6 23  1  0
  6 24  1  0
  7 25  1  0
  7 26  1  0
  8 27  1  0
  8 28  1  0
  9 29  1  0
  9 30  1  0
 10 31  1  0
 12 32  1  0
 13 33  1  0
 14 34  1  0
 15 35  1  0
 16 36  1  0
M  END
$$$$
