
     RDKit          3D

 59 62  0  0  0  0  0  0  0  0999 V2000
    6.9714   -3.6269   -2.9706 C   0  0  0  0  0  0  0  0  0  0  0  0
    6.4139   -2.2435   -3.1278 C   0  0  0  0  0  0  0  0  0  0  0  0
    5.9119   -1.5520   -2.0202 C   0  0  0  0  0  0  0  0  0  0  0  0
    5.4213   -0.2520   -2.1602 C   0  0  0  0  0  0  0  0  0  0  0  0
    5.4382    0.3861   -3.4078 C   0  0  0  0  0  0  0  0  0  0  0  0
    4.8805    1.7779   -3.5553 C   0  0  0  0  0  0  0  0  0  0  0  0
    3.4420    1.7378   -3.6942 N   0  0  0  0  0  0  0  0  0  0  0  0
    2.6068    1.9484   -2.6195 C   0  0  0  0  0  0  0  0  0  0  0  0
    2.9971    2.3114   -1.5164 O   0  0  0  0  0  0  0  0  0  0  0  0
    1.1478    1.7065   -2.9562 C   0  0  0  0  0  0  0  0  0  0  0  0
    0.2229    1.7674   -1.7430 C   0  0  0  0  0  0  0  0  0  0  0  0
    0.4264    0.5840   -0.7935 C   0  0  0  0  0  0  0  0  0  0  0  0
   -0.6075    0.5445    0.2360 N   0  0  0  0  0  0  0  0  0  0  0  0
   -0.3177    1.2414    1.4128 N   0  0  0  0  0  0  0  0  0  0  0  0
   -1.1795    1.3052    2.3883 C   0  0  0  0  0  0  0  0  0  0  0  0
   -0.7959    2.0587    3.6298 C   0  0  0  0  0  0  0  0  0  0  0  0
   -2.4623    0.6615    2.2431 C   0  0  0  0  0  0  0  0  0  0  0  0
   -3.5991    0.5837    3.0310 C   0  0  0  0  0  0  0  0  0  0  0  0
   -3.9293    1.2858    4.2980 C   0  0  0  0  0  0  0  0  0  0  0  0
   -4.4648   -0.2803    2.3482 N   0  0  0  0  0  0  0  0  0  0  0  0
   -5.6854   -0.8973    2.7657 C   0  0  0  0  0  0  0  0  0  0  0  0
   -6.0421   -1.0210    4.1139 C   0  0  0  0  0  0  0  0  0  0  0  0
   -7.2444   -1.6409    4.4729 C   0  0  0  0  0  0  0  0  0  0  0  0
   -8.0927   -2.1533    3.4940 C   0  0  0  0  0  0  0  0  0  0  0  0
   -7.7365   -2.0599    2.1520 C   0  0  0  0  0  0  0  0  0  0  0  0
   -6.5370   -1.4431    1.7887 C   0  0  0  0  0  0  0  0  0  0  0  0
   -4.0053   -0.5344    1.0926 N   0  0  0  0  0  0  0  0  0  0  0  0
   -2.7717   -0.0256    1.0645 C   0  0  0  0  0  0  0  0  0  0  0  0
   -1.8279   -0.1057   -0.0430 C   0  0  0  0  0  0  0  0  0  0  0  0
   -2.0694   -0.6723   -1.1075 O   0  0  0  0  0  0  0  0  0  0  0  0
    5.9472   -0.3053   -4.5146 C   0  0  0  0  0  0  0  0  0  0  0  0
    6.4386   -1.6056   -4.3732 C   0  0  0  0  0  0  0  0  0  0  0  0
    6.4592   -4.1658   -2.1666 H   0  0  0  0  0  0  0  0  0  0  0  0
    6.8363   -4.2090   -3.8883 H   0  0  0  0  0  0  0  0  0  0  0  0
    8.0394   -3.5757   -2.7379 H   0  0  0  0  0  0  0  0  0  0  0  0
    5.8954   -2.0214   -1.0390 H   0  0  0  0  0  0  0  0  0  0  0  0
    5.0220    0.2653   -1.2887 H   0  0  0  0  0  0  0  0  0  0  0  0
    5.1739    2.3985   -2.7012 H   0  0  0  0  0  0  0  0  0  0  0  0
    5.2801    2.2560   -4.4564 H   0  0  0  0  0  0  0  0  0  0  0  0
    3.0717    1.2714   -4.5110 H   0  0  0  0  0  0  0  0  0  0  0  0
    0.8464    2.4813   -3.6713 H   0  0  0  0  0  0  0  0  0  0  0  0
    1.0504    0.7345   -3.4538 H   0  0  0  0  0  0  0  0  0  0  0  0
    0.3645    2.7079   -1.1966 H   0  0  0  0  0  0  0  0  0  0  0  0
   -0.8136    1.7717   -2.1028 H   0  0  0  0  0  0  0  0  0  0  0  0
    0.3940   -0.3571   -1.3548 H   0  0  0  0  0  0  0  0  0  0  0  0
    1.4020    0.6322   -0.2979 H   0  0  0  0  0  0  0  0  0  0  0  0
   -1.0216    1.4645    4.5190 H   0  0  0  0  0  0  0  0  0  0  0  0
   -1.3451    3.0032    3.6671 H   0  0  0  0  0  0  0  0  0  0  0  0
    0.2753    2.2811    3.6235 H   0  0  0  0  0  0  0  0  0  0  0  0
   -3.6018    0.7012    5.1628 H   0  0  0  0  0  0  0  0  0  0  0  0
   -3.4349    2.2600    4.3456 H   0  0  0  0  0  0  0  0  0  0  0  0
   -4.9990    1.4988    4.3822 H   0  0  0  0  0  0  0  0  0  0  0  0
   -5.3951   -0.6946    4.9188 H   0  0  0  0  0  0  0  0  0  0  0  0
   -7.5123   -1.7373    5.5225 H   0  0  0  0  0  0  0  0  0  0  0  0
   -9.0238   -2.6372    3.7772 H   0  0  0  0  0  0  0  0  0  0  0  0
   -8.3876   -2.4695    1.3839 H   0  0  0  0  0  0  0  0  0  0  0  0
   -6.2834   -1.3860    0.7306 H   0  0  0  0  0  0  0  0  0  0  0  0
    5.9696    0.1642   -5.4952 H   0  0  0  0  0  0  0  0  0  0  0  0
    6.8400   -2.1199   -5.2437 H   0  0  0  0  0  0  0  0  0  0  0  0
  1  2  1  0
  2  3  2  0
  3  4  1  0
  4  5  2  0
  5  6  1  0
  6  7  1  0
  7  8  1  0
  8  9  2  0
  8 10  1  0
 10 11  1  0
 11 12  1  0
 12 13  1  0
 13 14  1  0
 14 15  2  0
 15 16  1  0
 15 17  1  0
 17 18  2  0
 18 19  1  0
 18 20  1  0
 20 21  1  0
 21 22  2  0
 22 23  1  0
 23 24  2  0
 24 25  1  0
 25 26  2  0
 20 27  1  0
 27 28  2  0
 28 29  1  0
 29 30  2  0
  5 31  1  0
 31 32  2  0
 32  2  1  0
 29 13  1  0
 28 17  1  0
 26 21  1  0
  1 33  1  0
  1 34  1  0
  1 35  1  0
  3 36  1  0
  4 37  1  0
  6 38  1  0
  6 39  1  0
  7 40  1  0
 10 41  1  0
 10 42  1  0
 11 43  1  0
 11 44  1  0
 12 45  1  0
 12 46  1  0
 16 47  1  0
 16 48  1  0
 16 49  1  0
 19 50  1  0
 19 51  1  0
 19 52  1  0
 22 53  1  0
 23 54  1  0
 24 55  1  0
 25 56  1  0
 26 57  1  0
 31 58  1  0
 32 59  1  0
M  END
$$$$
