
     RDKit          3D

 62 63  0  0  0  0  0  0  0  0999 V2000
   -6.6690   -1.7014    0.4886 C   0  0  0  0  0  0  0  0  0  0  0  0
   -5.8708   -1.0810   -0.6804 C   0  0  0  0  0  0  0  0  0  0  0  0
   -6.8903   -0.3951   -1.6197 C   0  0  0  0  0  0  0  0  0  0  0  0
   -5.1948   -2.2101   -1.4905 C   0  0  0  0  0  0  0  0  0  0  0  0
   -4.7921   -0.1321   -0.1217 C   0  0  0  0  0  0  0  0  0  0  0  0
   -3.8003   -0.6247    0.7476 C   0  0  0  0  0  0  0  0  0  0  0  0
   -2.8056    0.2054    1.2778 C   0  0  0  0  0  0  0  0  0  0  0  0
   -2.7719    1.5573    0.9452 C   0  0  0  0  0  0  0  0  0  0  0  0
   -1.8381    2.4610    1.3963 O   0  0  0  0  0  0  0  0  0  0  0  0
   -0.6509    1.9639    2.0155 C   0  0  0  0  0  0  0  0  0  0  0  0
    0.3524    1.4416    0.9870 C   0  0  0  0  0  0  0  0  0  0  0  0
    1.5295    1.0123    1.6765 O   0  0  0  0  0  0  0  0  0  0  0  0
    2.5443    0.4870    0.9076 C   0  0  0  0  0  0  0  0  0  0  0  0
    2.5209    0.3780   -0.4828 C   0  0  0  0  0  0  0  0  0  0  0  0
    3.6096   -0.1744   -1.1698 C   0  0  0  0  0  0  0  0  0  0  0  0
    4.7493   -0.6317   -0.4912 C   0  0  0  0  0  0  0  0  0  0  0  0
    5.9580   -1.2534   -1.2167 C   0  0  0  0  0  0  0  0  0  0  0  0
    5.8277   -1.2526   -2.7576 C   0  0  0  0  0  0  0  0  0  0  0  0
    7.2434   -0.4702   -0.8696 C   0  0  0  0  0  0  0  0  0  0  0  0
    6.1231   -2.7222   -0.7708 C   0  0  0  0  0  0  0  0  0  0  0  0
    4.7545   -0.5151    0.9155 C   0  0  0  0  0  0  0  0  0  0  0  0
    3.6749    0.0375    1.6150 C   0  0  0  0  0  0  0  0  0  0  0  0
    3.6477    0.1673    3.0212 N   0  0  0  0  0  0  0  0  0  0  0  0
    4.6263   -0.1587    3.9244 C   0  0  0  0  0  0  0  0  0  0  0  0
    5.7402   -0.6203    3.7249 O   0  0  0  0  0  0  0  0  0  0  0  0
   -3.7554    2.0802    0.0819 C   0  0  0  0  0  0  0  0  0  0  0  0
   -3.6784    3.4594   -0.2116 N   0  0  0  0  0  0  0  0  0  0  0  0
   -4.4508    4.1906   -1.0779 C   0  0  0  0  0  0  0  0  0  0  0  0
   -5.3623    3.8197   -1.8023 O   0  0  0  0  0  0  0  0  0  0  0  0
   -4.7474    1.2374   -0.4402 C   0  0  0  0  0  0  0  0  0  0  0  0
   -7.4636   -2.3605    0.1177 H   0  0  0  0  0  0  0  0  0  0  0  0
   -7.1410   -0.9246    1.1050 H   0  0  0  0  0  0  0  0  0  0  0  0
   -6.0353   -2.3047    1.1509 H   0  0  0  0  0  0  0  0  0  0  0  0
   -6.3994    0.0438   -2.4974 H   0  0  0  0  0  0  0  0  0  0  0  0
   -7.4450    0.3992   -1.1036 H   0  0  0  0  0  0  0  0  0  0  0  0
   -7.6313   -1.1129   -1.9933 H   0  0  0  0  0  0  0  0  0  0  0  0
   -4.5950   -1.8037   -2.3154 H   0  0  0  0  0  0  0  0  0  0  0  0
   -5.9424   -2.8862   -1.9238 H   0  0  0  0  0  0  0  0  0  0  0  0
   -4.5292   -2.8232   -0.8697 H   0  0  0  0  0  0  0  0  0  0  0  0
   -3.7908   -1.6762    1.0305 H   0  0  0  0  0  0  0  0  0  0  0  0
   -2.0816   -0.2483    1.9468 H   0  0  0  0  0  0  0  0  0  0  0  0
   -0.8598    1.2383    2.8095 H   0  0  0  0  0  0  0  0  0  0  0  0
   -0.1931    2.8129    2.5389 H   0  0  0  0  0  0  0  0  0  0  0  0
   -0.0866    0.6053    0.4296 H   0  0  0  0  0  0  0  0  0  0  0  0
    0.5898    2.2500    0.2822 H   0  0  0  0  0  0  0  0  0  0  0  0
    1.6737    0.7099   -1.0753 H   0  0  0  0  0  0  0  0  0  0  0  0
    3.5336   -0.2382   -2.2529 H   0  0  0  0  0  0  0  0  0  0  0  0
    5.7231   -0.2350   -3.1530 H   0  0  0  0  0  0  0  0  0  0  0  0
    6.7141   -1.6935   -3.2297 H   0  0  0  0  0  0  0  0  0  0  0  0
    4.9618   -1.8381   -3.0907 H   0  0  0  0  0  0  0  0  0  0  0  0
    7.4923   -0.5292    0.1954 H   0  0  0  0  0  0  0  0  0  0  0  0
    8.1062   -0.8645   -1.4202 H   0  0  0  0  0  0  0  0  0  0  0  0
    7.1415    0.5922   -1.1247 H   0  0  0  0  0  0  0  0  0  0  0  0
    6.3227   -2.8077    0.3041 H   0  0  0  0  0  0  0  0  0  0  0  0
    6.9588   -3.2047   -1.2943 H   0  0  0  0  0  0  0  0  0  0  0  0
    5.2167   -3.3031   -0.9829 H   0  0  0  0  0  0  0  0  0  0  0  0
    5.6222   -0.8725    1.4628 H   0  0  0  0  0  0  0  0  0  0  0  0
    2.7932    0.5769    3.3839 H   0  0  0  0  0  0  0  0  0  0  0  0
    4.2841    0.0597    4.9517 H   0  0  0  0  0  0  0  0  0  0  0  0
   -2.9310    3.9461    0.2712 H   0  0  0  0  0  0  0  0  0  0  0  0
   -4.1317    5.2461   -1.0758 H   0  0  0  0  0  0  0  0  0  0  0  0
   -5.5006    1.6585   -1.0998 H   0  0  0  0  0  0  0  0  0  0  0  0
  1  2  1  0
  2  3  1  0
  2  4  1  0
  2  5  1  0
  5  6  2  0
  6  7  1  0
  7  8  2  0
  8  9  1  0
  9 10  1  0
 10 11  1  0
 11 12  1  0
 12 13  1  0
 13 14  2  0
 14 15  1  0
 15 16  2  0
 16 17  1  0
 17 18  1  0
 17 19  1  0
 17 20  1  0
 16 21  1  0
 21 22  2  0
 22 23  1  0
 23 24  1  0
 24 25  2  0
  8 26  1  0
 26 27  1  0
 27 28  1  0
 28 29  2  0
 26 30  2  0
 30  5  1  0
 22 13  1  0
  1 31  1  0
  1 32  1  0
  1 33  1  0
  3 34  1  0
  3 35  1  0
  3 36  1  0
  4 37  1  0
  4 38  1  0
  4 39  1  0
  6 40  1  0
  7 41  1  0
 10 42  1  0
 10 43  1  0
 11 44  1  0
 11 45  1  0
 14 46  1  0
 15 47  1  0
 18 48  1  0
 18 49  1  0
 18 50  1  0
 19 51  1  0
 19 52  1  0
 19 53  1  0
 20 54  1  0
 20 55  1  0
 20 56  1  0
 21 57  1  0
 23 58  1  0
 24 59  1  0
 27 60  1  0
 28 61  1  0
 30 62  1  0
M  END
$$$$
