
     RDKit          3D

 42 45  0  0  0  0  0  0  0  0999 V2000
    9.0657    0.1904    0.9713 O   0  0  0  0  0  0  0  0  0  0  0  0
    8.1075    0.0087    1.7067 C   0  0  0  0  0  0  0  0  0  0  0  0
    7.9762   -1.1311    2.4076 O   0  0  0  0  0  0  0  0  0  0  0  0
    6.9626    0.9553    1.9279 C   0  0  0  0  0  0  0  0  0  0  0  0
    5.8015    0.6847    0.9777 C   0  0  0  0  0  0  0  0  0  0  0  0
    5.0322   -0.5917    1.3368 C   0  0  0  0  0  0  0  0  0  0  0  0
    3.8405   -0.7553    0.5006 N   0  0  0  0  0  0  0  0  0  0  0  0
    2.6736   -0.1138    0.8810 C   0  0  0  0  0  0  0  0  0  0  0  0
    2.5376    0.5958    1.8691 O   0  0  0  0  0  0  0  0  0  0  0  0
    1.5843   -0.3840   -0.0990 C   0  0  0  0  0  0  0  0  0  0  0  0
    0.3593    0.1114    0.1138 C   0  0  0  0  0  0  0  0  0  0  0  0
   -0.7940   -0.0514   -0.7038 C   0  0  0  0  0  0  0  0  0  0  0  0
   -0.9683   -0.3375   -2.0516 C   0  0  0  0  0  0  0  0  0  0  0  0
   -2.3591   -0.3528   -2.3209 C   0  0  0  0  0  0  0  0  0  0  0  0
   -3.0053   -0.0653   -1.1349 C   0  0  0  0  0  0  0  0  0  0  0  0
   -4.4197    0.0355   -0.8970 C   0  0  0  0  0  0  0  0  0  0  0  0
   -5.3060   -0.1453   -1.8518 N   0  0  0  0  0  0  0  0  0  0  0  0
   -6.5844   -0.0004   -1.3392 C   0  0  0  0  0  0  0  0  0  0  0  0
   -7.7857   -0.1307   -2.0650 C   0  0  0  0  0  0  0  0  0  0  0  0
   -9.0136    0.0359   -1.4162 C   0  0  0  0  0  0  0  0  0  0  0  0
   -9.0580    0.3334   -0.0590 C   0  0  0  0  0  0  0  0  0  0  0  0
   -7.8808    0.4718    0.6826 C   0  0  0  0  0  0  0  0  0  0  0  0
   -6.6532    0.2983    0.0216 C   0  0  0  0  0  0  0  0  0  0  0  0
   -5.0554    0.3963    0.6522 S   0  0  0  0  0  0  0  0  0  0  0  0
   -2.0532    0.1235   -0.1684 O   0  0  0  0  0  0  0  0  0  0  0  0
    2.1789   -1.3736   -1.3671 S   0  0  0  0  0  0  0  0  0  0  0  0
    3.7987   -1.4579   -0.6868 C   0  0  0  0  0  0  0  0  0  0  0  0
    5.0360   -2.2827   -1.4445 S   0  0  0  0  0  0  0  0  0  0  0  0
    8.7875   -1.6377    2.1829 H   0  0  0  0  0  0  0  0  0  0  0  0
    6.6504    0.9144    2.9775 H   0  0  0  0  0  0  0  0  0  0  0  0
    7.3473    1.9706    1.7643 H   0  0  0  0  0  0  0  0  0  0  0  0
    5.1171    1.5413    1.0190 H   0  0  0  0  0  0  0  0  0  0  0  0
    6.1622    0.6258   -0.0551 H   0  0  0  0  0  0  0  0  0  0  0  0
    5.6702   -1.4732    1.2389 H   0  0  0  0  0  0  0  0  0  0  0  0
    4.7138   -0.5438    2.3836 H   0  0  0  0  0  0  0  0  0  0  0  0
    0.1872    0.6871    1.0224 H   0  0  0  0  0  0  0  0  0  0  0  0
   -0.1878   -0.5033   -2.7805 H   0  0  0  0  0  0  0  0  0  0  0  0
   -2.8445   -0.5432   -3.2693 H   0  0  0  0  0  0  0  0  0  0  0  0
   -7.7468   -0.3625   -3.1239 H   0  0  0  0  0  0  0  0  0  0  0  0
   -9.9377   -0.0699   -1.9788 H   0  0  0  0  0  0  0  0  0  0  0  0
  -10.0202    0.4598    0.4332 H   0  0  0  0  0  0  0  0  0  0  0  0
   -7.9166    0.7035    1.7417 H   0  0  0  0  0  0  0  0  0  0  0  0
  1  2  2  0
  2  3  1  0
  2  4  1  0
  4  5  1  0
  5  6  1  0
  6  7  1  0
  7  8  1  0
  8  9  2  0
  8 10  1  0
 10 11  2  3
 11 12  1  0
 12 13  2  0
 13 14  1  0
 14 15  2  0
 15 16  1  0
 16 17  2  0
 17 18  1  0
 18 19  2  0
 19 20  1  0
 20 21  2  0
 21 22  1  0
 22 23  2  0
 23 24  1  0
 15 25  1  0
 10 26  1  0
 26 27  1  0
 27 28  2  0
 27  7  1  0
 25 12  1  0
 24 16  1  0
 23 18  1  0
  3 29  1  0
  4 30  1  0
  4 31  1  0
  5 32  1  0
  5 33  1  0
  6 34  1  0
  6 35  1  0
 11 36  1  0
 13 37  1  0
 14 38  1  0
 19 39  1  0
 20 40  1  0
 21 41  1  0
 22 42  1  0
M  END
$$$$
