
     RDKit          3D

 44 46  0  0  0  0  0  0  0  0999 V2000
    4.4960    0.2892   -0.8320 C   0  0  0  0  0  0  0  0  0  0  0  0
    3.0917    0.1949   -1.0808 O   0  0  0  0  0  0  0  0  0  0  0  0
    2.5692   -1.0422   -0.8836 C   0  0  0  0  0  0  0  0  0  0  0  0
    3.2207   -2.0289   -0.5611 O   0  0  0  0  0  0  0  0  0  0  0  0
    1.0717   -1.0733   -1.0450 C   0  0  0  0  0  0  0  0  0  0  0  0
    0.4391   -0.1598   -2.0744 C   0  0  0  0  0  0  0  0  0  0  0  0
    1.2320    0.2705   -3.2857 C   0  0  0  0  0  0  0  0  0  0  0  0
   -0.8048    0.2179   -2.0219 N   0  0  0  0  0  0  0  0  0  0  0  0
   -1.6026   -0.2180   -0.9895 C   0  0  0  0  0  0  0  0  0  0  0  0
   -1.0995   -0.7515    0.1295 C   0  0  0  0  0  0  0  0  0  0  0  0
   -2.0137   -1.2204    1.1863 C   0  0  0  0  0  0  0  0  0  0  0  0
   -1.5696   -1.8631    2.1358 O   0  0  0  0  0  0  0  0  0  0  0  0
   -3.3457   -0.9104    1.0205 N   0  0  0  0  0  0  0  0  0  0  0  0
   -4.2742   -1.3080    2.0616 C   0  0  0  0  0  0  0  0  0  0  0  0
   -3.8809   -0.4017   -0.1553 C   0  0  0  0  0  0  0  0  0  0  0  0
   -5.0978   -0.2764   -0.3084 O   0  0  0  0  0  0  0  0  0  0  0  0
   -2.9650   -0.0602   -1.1437 N   0  0  0  0  0  0  0  0  0  0  0  0
   -3.4721    0.5096   -2.3891 C   0  0  0  0  0  0  0  0  0  0  0  0
    0.3809   -0.9304    0.3241 C   0  0  0  0  0  0  0  0  0  0  0  0
    0.9536    0.1662    1.2251 C   0  0  0  0  0  0  0  0  0  0  0  0
    0.8873    1.5285    0.8856 C   0  0  0  0  0  0  0  0  0  0  0  0
    1.4357    2.5001    1.7273 C   0  0  0  0  0  0  0  0  0  0  0  0
    2.0509    2.1213    2.9171 C   0  0  0  0  0  0  0  0  0  0  0  0
    2.7295    3.3192    3.9482 Cl  0  0  0  0  0  0  0  0  0  0  0  0
    2.1188    0.7787    3.2760 C   0  0  0  0  0  0  0  0  0  0  0  0
    1.5712   -0.1934    2.4355 C   0  0  0  0  0  0  0  0  0  0  0  0
    4.7196    0.0254    0.2065 H   0  0  0  0  0  0  0  0  0  0  0  0
    5.0504   -0.3511   -1.5250 H   0  0  0  0  0  0  0  0  0  0  0  0
    4.7996    1.3263   -0.9987 H   0  0  0  0  0  0  0  0  0  0  0  0
    0.8493   -2.0773   -1.4418 H   0  0  0  0  0  0  0  0  0  0  0  0
    0.5560    0.5023   -4.1144 H   0  0  0  0  0  0  0  0  0  0  0  0
    1.9048   -0.5304   -3.6021 H   0  0  0  0  0  0  0  0  0  0  0  0
    1.8071    1.1688   -3.0484 H   0  0  0  0  0  0  0  0  0  0  0  0
   -3.7770   -1.3831    3.0330 H   0  0  0  0  0  0  0  0  0  0  0  0
   -4.6912   -2.2851    1.7974 H   0  0  0  0  0  0  0  0  0  0  0  0
   -5.0923   -0.5854    2.1410 H   0  0  0  0  0  0  0  0  0  0  0  0
   -3.1517   -0.1136   -3.2307 H   0  0  0  0  0  0  0  0  0  0  0  0
   -3.0831    1.5266   -2.5057 H   0  0  0  0  0  0  0  0  0  0  0  0
   -4.5641    0.5622   -2.4056 H   0  0  0  0  0  0  0  0  0  0  0  0
    0.5459   -1.8927    0.8308 H   0  0  0  0  0  0  0  0  0  0  0  0
    0.4094    1.8582   -0.0344 H   0  0  0  0  0  0  0  0  0  0  0  0
    1.3767    3.5490    1.4488 H   0  0  0  0  0  0  0  0  0  0  0  0
    2.5913    0.4798    4.2080 H   0  0  0  0  0  0  0  0  0  0  0  0
    1.6267   -1.2383    2.7391 H   0  0  0  0  0  0  0  0  0  0  0  0
  1  2  1  0
  2  3  1  0
  3  4  2  0
  3  5  1  0
  5  6  1  0
  6  7  1  0
  6  8  2  0
  8  9  1  0
  9 10  2  0
 10 11  1  0
 11 12  2  0
 11 13  1  0
 13 14  1  0
 13 15  1  0
 15 16  2  0
 15 17  1  0
 17 18  1  0
 10 19  1  0
 19 20  1  0
 20 21  2  0
 21 22  1  0
 22 23  2  0
 23 24  1  0
 23 25  1  0
 25 26  2  0
 19  5  1  0
 26 20  1  0
 17  9  1  0
  1 27  1  0
  1 28  1  0
  1 29  1  0
  5 30  1  0
  7 31  1  0
  7 32  1  0
  7 33  1  0
 14 34  1  0
 14 35  1  0
 14 36  1  0
 18 37  1  0
 18 38  1  0
 18 39  1  0
 19 40  1  0
 21 41  1  0
 22 42  1  0
 25 43  1  0
 26 44  1  0
M  END
$$$$
