
     RDKit          3D

 87 91  0  0  0  0  0  0  0  0999 V2000
    0.1928    0.3311    1.5095 C   0  0  0  0  0  0  0  0  0  0  0  0
    0.0855    1.5043    0.5257 C   0  0  0  0  0  0  0  0  0  0  0  0
    0.7918    2.7199    1.1507 C   0  0  0  0  0  0  0  0  0  0  0  0
    0.8377    3.8557    0.2309 N   0  0  0  0  0  0  0  0  0  0  0  0
   -0.2774    4.8283    0.2887 C   0  0  0  0  0  0  0  0  0  0  0  0
   -1.3079    4.6087   -0.8216 C   0  0  0  0  0  0  0  0  0  0  0  0
    0.2092    6.2960    0.3149 C   0  0  0  0  0  0  0  0  0  0  0  0
   -0.7800    7.1531    0.8894 O   0  0  0  0  0  0  0  0  0  0  0  0
    1.7843    3.9465   -0.7918 C   0  0  0  0  0  0  0  0  0  0  0  0
    1.7176    4.7802   -1.6931 O   0  0  0  0  0  0  0  0  0  0  0  0
    2.9897    3.0802   -0.7539 C   0  0  0  0  0  0  0  0  0  0  0  0
    4.1927    3.8134   -0.7032 C   0  0  0  0  0  0  0  0  0  0  0  0
    5.4251    3.1724   -0.6132 C   0  0  0  0  0  0  0  0  0  0  0  0
    5.4775    1.7858   -0.5642 C   0  0  0  0  0  0  0  0  0  0  0  0
    4.2984    1.0381   -0.6224 C   0  0  0  0  0  0  0  0  0  0  0  0
    4.3103   -0.3783   -0.5848 N   0  0  0  0  0  0  0  0  0  0  0  0
    5.2932   -1.1821   -0.0326 C   0  0  0  0  0  0  0  0  0  0  0  0
    6.2609   -0.7748    0.5970 O   0  0  0  0  0  0  0  0  0  0  0  0
    5.0111   -2.5153   -0.2867 N   0  0  0  0  0  0  0  0  0  0  0  0
    5.6360   -3.6331    0.2998 C   0  0  0  0  0  0  0  0  0  0  0  0
    6.3919   -3.5614    1.4729 C   0  0  0  0  0  0  0  0  0  0  0  0
    6.9575   -4.7193    2.0233 C   0  0  0  0  0  0  0  0  0  0  0  0
    6.7644   -5.9702    1.4200 C   0  0  0  0  0  0  0  0  0  0  0  0
    7.3822   -7.2110    2.0196 C   0  0  0  0  0  0  0  0  0  0  0  0
    8.6872   -7.3715    1.6634 F   0  0  0  0  0  0  0  0  0  0  0  0
    7.3608   -7.2057    3.3829 F   0  0  0  0  0  0  0  0  0  0  0  0
    6.7500   -8.3602    1.6421 F   0  0  0  0  0  0  0  0  0  0  0  0
    6.0093   -6.0376    0.2419 C   0  0  0  0  0  0  0  0  0  0  0  0
    5.4419   -4.8814   -0.3058 C   0  0  0  0  0  0  0  0  0  0  0  0
    3.0341    1.6771   -0.7442 C   0  0  0  0  0  0  0  0  0  0  0  0
    2.0068    0.7703   -0.8047 O   0  0  0  0  0  0  0  0  0  0  0  0
    0.6346    1.1699   -0.8897 C   0  0  0  0  0  0  0  0  0  0  0  0
   -0.1077   -0.0257   -1.5618 C   0  0  0  0  0  0  0  0  0  0  0  0
   -1.5726    0.1029   -1.5971 N   0  0  0  0  0  0  0  0  0  0  0  0
   -2.0116    1.0708   -2.6108 C   0  0  0  0  0  0  0  0  0  0  0  0
   -2.2229   -1.2014   -1.8187 C   0  0  0  0  0  0  0  0  0  0  0  0
   -3.6384   -1.2202   -1.2801 C   0  0  0  0  0  0  0  0  0  0  0  0
   -4.7397   -1.3709   -2.1295 C   0  0  0  0  0  0  0  0  0  0  0  0
   -6.0395   -1.3964   -1.6052 C   0  0  0  0  0  0  0  0  0  0  0  0
   -6.2742   -1.2709   -0.2249 C   0  0  0  0  0  0  0  0  0  0  0  0
   -7.6401   -1.3046    0.3318 C   0  0  0  0  0  0  0  0  0  0  0  0
   -8.5383   -2.3314   -0.0054 C   0  0  0  0  0  0  0  0  0  0  0  0
   -9.8231   -2.3787    0.5434 C   0  0  0  0  0  0  0  0  0  0  0  0
  -10.2340   -1.3940    1.4413 C   0  0  0  0  0  0  0  0  0  0  0  0
   -9.3634   -0.3635    1.7861 C   0  0  0  0  0  0  0  0  0  0  0  0
   -8.0791   -0.3205    1.2365 C   0  0  0  0  0  0  0  0  0  0  0  0
   -5.1605   -1.1186    0.6162 C   0  0  0  0  0  0  0  0  0  0  0  0
   -3.8628   -1.0916    0.0975 C   0  0  0  0  0  0  0  0  0  0  0  0
   -0.3957   -0.5272    1.1713 H   0  0  0  0  0  0  0  0  0  0  0  0
    1.2310    0.0056    1.6354 H   0  0  0  0  0  0  0  0  0  0  0  0
   -0.1872    0.6204    2.4959 H   0  0  0  0  0  0  0  0  0  0  0  0
   -0.9789    1.7549    0.4288 H   0  0  0  0  0  0  0  0  0  0  0  0
    0.2786    3.0281    2.0688 H   0  0  0  0  0  0  0  0  0  0  0  0
    1.8096    2.4680    1.4684 H   0  0  0  0  0  0  0  0  0  0  0  0
   -0.8067    4.6579    1.2358 H   0  0  0  0  0  0  0  0  0  0  0  0
   -2.1331    5.3222   -0.7399 H   0  0  0  0  0  0  0  0  0  0  0  0
   -1.7391    3.6073   -0.7534 H   0  0  0  0  0  0  0  0  0  0  0  0
   -0.8705    4.7155   -1.8194 H   0  0  0  0  0  0  0  0  0  0  0  0
    1.1099    6.3899    0.9283 H   0  0  0  0  0  0  0  0  0  0  0  0
    0.4441    6.6728   -0.6829 H   0  0  0  0  0  0  0  0  0  0  0  0
   -1.4801    7.2747    0.2249 H   0  0  0  0  0  0  0  0  0  0  0  0
    4.1682    4.9026   -0.7303 H   0  0  0  0  0  0  0  0  0  0  0  0
    6.3443    3.7494   -0.5724 H   0  0  0  0  0  0  0  0  0  0  0  0
    6.4515    1.3056   -0.4961 H   0  0  0  0  0  0  0  0  0  0  0  0
    3.3905   -0.7954   -0.6536 H   0  0  0  0  0  0  0  0  0  0  0  0
    4.4595   -2.6831   -1.1142 H   0  0  0  0  0  0  0  0  0  0  0  0
    6.5472   -2.6175    1.9891 H   0  0  0  0  0  0  0  0  0  0  0  0
    7.5444   -4.6374    2.9389 H   0  0  0  0  0  0  0  0  0  0  0  0
    5.8449   -6.9946   -0.2530 H   0  0  0  0  0  0  0  0  0  0  0  0
    4.8522   -4.9727   -1.2170 H   0  0  0  0  0  0  0  0  0  0  0  0
    0.5254    2.0112   -1.5793 H   0  0  0  0  0  0  0  0  0  0  0  0
    0.1817   -0.9297   -1.0095 H   0  0  0  0  0  0  0  0  0  0  0  0
    0.2955   -0.1823   -2.5728 H   0  0  0  0  0  0  0  0  0  0  0  0
   -1.7700    0.7407   -3.6300 H   0  0  0  0  0  0  0  0  0  0  0  0
   -1.5472    2.0489   -2.4578 H   0  0  0  0  0  0  0  0  0  0  0  0
   -3.0925    1.2416   -2.5516 H   0  0  0  0  0  0  0  0  0  0  0  0
   -1.6904   -2.0002   -1.2820 H   0  0  0  0  0  0  0  0  0  0  0  0
   -2.1956   -1.4867   -2.8801 H   0  0  0  0  0  0  0  0  0  0  0  0
   -4.5983   -1.4694   -3.2042 H   0  0  0  0  0  0  0  0  0  0  0  0
   -6.8790   -1.5095   -2.2903 H   0  0  0  0  0  0  0  0  0  0  0  0
   -8.2329   -3.1186   -0.6917 H   0  0  0  0  0  0  0  0  0  0  0  0
  -10.4983   -3.1865    0.2746 H   0  0  0  0  0  0  0  0  0  0  0  0
  -11.2312   -1.4313    1.8713 H   0  0  0  0  0  0  0  0  0  0  0  0
   -9.6815    0.4058    2.4870 H   0  0  0  0  0  0  0  0  0  0  0  0
   -7.4173    0.4976    1.5144 H   0  0  0  0  0  0  0  0  0  0  0  0
   -5.2938   -1.0293    1.6935 H   0  0  0  0  0  0  0  0  0  0  0  0
   -3.0205   -0.9637    0.7749 H   0  0  0  0  0  0  0  0  0  0  0  0
  1  2  1  0
  2  3  1  0
  3  4  1  0
  4  5  1  0
  5  6  1  0
  5  7  1  0
  7  8  1  0
  4  9  1  0
  9 10  2  0
  9 11  1  0
 11 12  2  0
 12 13  1  0
 13 14  2  0
 14 15  1  0
 15 16  1  0
 16 17  1  0
 17 18  2  0
 17 19  1  0
 19 20  1  0
 20 21  2  0
 21 22  1  0
 22 23  2  0
 23 24  1  0
 24 25  1  0
 24 26  1  0
 24 27  1  0
 23 28  1  0
 28 29  2  0
 15 30  2  0
 30 31  1  0
 31 32  1  0
 32 33  1  0
 33 34  1  0
 34 35  1  0
 34 36  1  0
 36 37  1  0
 37 38  2  0
 38 39  1  0
 39 40  2  0
 40 41  1  0
 41 42  2  0
 42 43  1  0
 43 44  2  0
 44 45  1  0
 45 46  2  0
 40 47  1  0
 47 48  2  0
 32  2  1  0
 48 37  1  0
 30 11  1  0
 46 41  1  0
 29 20  1  0
  1 49  1  0
  1 50  1  0
  1 51  1  0
  2 52  1  0
  3 53  1  0
  3 54  1  0
  5 55  1  0
  6 56  1  0
  6 57  1  0
  6 58  1  0
  7 59  1  0
  7 60  1  0
  8 61  1  0
 12 62  1  0
 13 63  1  0
 14 64  1  0
 16 65  1  0
 19 66  1  0
 21 67  1  0
 22 68  1  0
 28 69  1  0
 29 70  1  0
 32 71  1  0
 33 72  1  0
 33 73  1  0
 35 74  1  0
 35 75  1  0
 35 76  1  0
 36 77  1  0
 36 78  1  0
 38 79  1  0
 39 80  1  0
 42 81  1  0
 43 82  1  0
 44 83  1  0
 45 84  1  0
 46 85  1  0
 47 86  1  0
 48 87  1  0
M  END
$$$$
