
     RDKit          3D

 47 50  0  0  0  0  0  0  0  0999 V2000
    3.3042   -2.7398   -0.9110 C   0  0  0  0  0  0  0  0  0  0  0  0
    3.2938   -1.4626   -0.2852 O   0  0  0  0  0  0  0  0  0  0  0  0
    2.1461   -0.7195   -0.3679 C   0  0  0  0  0  0  0  0  0  0  0  0
    1.0249   -1.0766   -1.1292 C   0  0  0  0  0  0  0  0  0  0  0  0
   -0.1049   -0.2424   -1.1986 C   0  0  0  0  0  0  0  0  0  0  0  0
   -1.2349   -0.6566   -2.0458 C   0  0  0  0  0  0  0  0  0  0  0  0
   -2.5347   -0.4394   -1.8051 C   0  0  0  0  0  0  0  0  0  0  0  0
   -3.1085    0.1996   -0.7383 N   0  0  0  0  0  0  0  0  0  0  0  0
   -4.3742    0.1034   -0.9964 C   0  0  0  0  0  0  0  0  0  0  0  0
   -5.4832    0.6203   -0.1794 C   0  0  0  0  0  0  0  0  0  0  0  0
   -6.8176    0.4555   -0.5708 C   0  0  0  0  0  0  0  0  0  0  0  0
   -7.8464    0.9602    0.2274 C   0  0  0  0  0  0  0  0  0  0  0  0
   -7.5470    1.6282    1.4145 C   0  0  0  0  0  0  0  0  0  0  0  0
   -6.2197    1.7939    1.8083 C   0  0  0  0  0  0  0  0  0  0  0  0
   -5.1879    1.2914    1.0135 C   0  0  0  0  0  0  0  0  0  0  0  0
   -4.7379   -0.5351   -2.1340 O   0  0  0  0  0  0  0  0  0  0  0  0
   -3.5846   -0.9310   -2.7379 C   0  0  0  0  0  0  0  0  0  0  0  0
   -3.4673   -1.5383   -3.7829 O   0  0  0  0  0  0  0  0  0  0  0  0
   -0.0833    0.9810   -0.5222 C   0  0  0  0  0  0  0  0  0  0  0  0
    1.0260    1.3480    0.2397 C   0  0  0  0  0  0  0  0  0  0  0  0
    2.1244    0.4933    0.3395 C   0  0  0  0  0  0  0  0  0  0  0  0
    3.1642    0.9674    1.0994 O   0  0  0  0  0  0  0  0  0  0  0  0
    3.6187    0.0547    2.1105 C   0  0  0  0  0  0  0  0  0  0  0  0
    5.0131   -0.3447    1.8922 C   0  0  0  0  0  0  0  0  0  0  0  0
    6.1393    0.3254    1.3789 C   0  0  0  0  0  0  0  0  0  0  0  0
    6.2352    1.7138    0.8706 C   0  0  0  0  0  0  0  0  0  0  0  0
    7.2156   -0.4684    1.3832 N   0  0  0  0  0  0  0  0  0  0  0  0
    6.7945   -1.6923    1.9020 O   0  0  0  0  0  0  0  0  0  0  0  0
    5.3939   -1.5840    2.1899 N   0  0  0  0  0  4  0  0  0  0  0  0
    4.8437   -2.5839    2.7045 O   0  0  0  0  0  1  0  0  0  0  0  0
    4.2687   -3.2092   -0.6940 H   0  0  0  0  0  0  0  0  0  0  0  0
    2.5204   -3.3867   -0.5037 H   0  0  0  0  0  0  0  0  0  0  0  0
    3.2177   -2.6446   -1.9980 H   0  0  0  0  0  0  0  0  0  0  0  0
    1.0092   -2.0082   -1.6869 H   0  0  0  0  0  0  0  0  0  0  0  0
   -0.9585   -1.2110   -2.9417 H   0  0  0  0  0  0  0  0  0  0  0  0
   -7.0742   -0.0625   -1.4916 H   0  0  0  0  0  0  0  0  0  0  0  0
   -8.8827    0.8320   -0.0764 H   0  0  0  0  0  0  0  0  0  0  0  0
   -8.3502    2.0201    2.0344 H   0  0  0  0  0  0  0  0  0  0  0  0
   -5.9881    2.3141    2.7346 H   0  0  0  0  0  0  0  0  0  0  0  0
   -4.1561    1.4259    1.3318 H   0  0  0  0  0  0  0  0  0  0  0  0
   -0.9252    1.6668   -0.5838 H   0  0  0  0  0  0  0  0  0  0  0  0
    1.0303    2.3021    0.7597 H   0  0  0  0  0  0  0  0  0  0  0  0
    2.9421   -0.8009    2.2334 H   0  0  0  0  0  0  0  0  0  0  0  0
    3.5675    0.6045    3.0586 H   0  0  0  0  0  0  0  0  0  0  0  0
    7.2772    2.0221    0.7366 H   0  0  0  0  0  0  0  0  0  0  0  0
    5.7675    2.4134    1.5710 H   0  0  0  0  0  0  0  0  0  0  0  0
    5.7287    1.8007   -0.0958 H   0  0  0  0  0  0  0  0  0  0  0  0
  1  2  1  0
  2  3  1  0
  3  4  2  0
  4  5  1  0
  5  6  1  0
  6  7  2  3
  7  8  1  0
  8  9  2  0
  9 10  1  0
 10 11  2  0
 11 12  1  0
 12 13  2  0
 13 14  1  0
 14 15  2  0
  9 16  1  0
 16 17  1  0
 17 18  2  0
  5 19  2  0
 19 20  1  0
 20 21  2  0
 21 22  1  0
 22 23  1  0
 23 24  1  0
 24 25  1  0
 25 26  1  0
 25 27  2  0
 27 28  1  0
 28 29  1  0
 29 30  1  0
 21  3  1  0
 29 24  2  0
 17  7  1  0
 15 10  1  0
  1 31  1  0
  1 32  1  0
  1 33  1  0
  4 34  1  0
  6 35  1  0
 11 36  1  0
 12 37  1  0
 13 38  1  0
 14 39  1  0
 15 40  1  0
 19 41  1  0
 20 42  1  0
 23 43  1  0
 23 44  1  0
 26 45  1  0
 26 46  1  0
 26 47  1  0
M  CHG  2  29   1  30  -1
M  END
$$$$
