
     RDKit          3D

 62 65  0  0  0  0  0  0  0  0999 V2000
    9.1748   -3.0680   -1.8797 C   0  0  0  0  0  0  0  0  0  0  0  0
    7.7910   -2.5865   -2.2758 C   0  0  0  0  0  0  0  0  0  0  0  0
    6.9443   -2.5030   -1.1196 O   0  0  0  0  0  0  0  0  0  0  0  0
    7.0017   -1.3361   -0.4229 C   0  0  0  0  0  0  0  0  0  0  0  0
    7.7146   -0.3896   -0.7333 O   0  0  0  0  0  0  0  0  0  0  0  0
    6.1515   -1.3336    0.6706 N   0  0  0  0  0  0  0  0  0  0  0  0
    5.8837   -0.0637    1.3377 C   0  0  0  0  0  0  0  0  0  0  0  0
    4.5963    0.5624    0.7803 C   0  0  0  0  0  0  0  0  0  0  0  0
    3.4638   -0.3858    0.7572 N   0  0  0  0  0  0  0  0  0  0  0  0
    2.1806    0.1743    0.7063 C   0  0  0  0  0  0  0  0  0  0  0  0
    2.0025    1.3867    0.8395 O   0  0  0  0  0  0  0  0  0  0  0  0
    1.0087   -0.7981    0.5067 C   0  0  0  0  0  0  0  0  0  0  0  0
   -0.2287   -0.0963    0.4713 O   0  0  0  0  0  0  0  0  0  0  0  0
   -1.3486   -0.8125    0.1407 C   0  0  0  0  0  0  0  0  0  0  0  0
   -1.4404   -2.2081    0.1912 C   0  0  0  0  0  0  0  0  0  0  0  0
   -2.6256   -2.8530   -0.1700 C   0  0  0  0  0  0  0  0  0  0  0  0
   -3.7266   -2.1080   -0.5839 C   0  0  0  0  0  0  0  0  0  0  0  0
   -3.6515   -0.7112   -0.6231 C   0  0  0  0  0  0  0  0  0  0  0  0
   -2.4669   -0.0546   -0.2472 C   0  0  0  0  0  0  0  0  0  0  0  0
   -2.4046    1.4469   -0.3532 C   0  0  0  0  0  0  0  0  0  0  0  0
   -3.7740    2.0549   -0.0812 C   0  0  0  0  0  0  0  0  0  0  0  0
   -4.8203    1.4376   -0.8879 N   0  0  0  0  0  0  0  0  0  0  0  0
   -6.0073    2.2211   -1.2183 C   0  0  0  0  0  0  0  0  0  0  0  0
   -6.7158    2.7853   -0.0127 C   0  0  0  0  0  0  0  0  0  0  0  0
   -6.6188    4.1499    0.3056 C   0  0  0  0  0  0  0  0  0  0  0  0
   -7.2733    4.6666    1.4271 C   0  0  0  0  0  0  0  0  0  0  0  0
   -8.0286    3.8274    2.2462 C   0  0  0  0  0  0  0  0  0  0  0  0
   -8.1324    2.4726    1.9396 C   0  0  0  0  0  0  0  0  0  0  0  0
   -7.4808    1.9632    0.8185 C   0  0  0  0  0  0  0  0  0  0  0  0
   -7.6095    0.6583    0.5436 F   0  0  0  0  0  0  0  0  0  0  0  0
   -4.8366    0.0618   -1.0974 C   0  0  0  0  0  0  0  0  0  0  0  0
   -5.7509   -0.5313   -1.6611 O   0  0  0  0  0  0  0  0  0  0  0  0
    3.7657   -1.7404    0.2530 C   0  0  0  0  0  0  0  0  0  0  0  0
    5.0756   -2.3067    0.8259 C   0  0  0  0  0  0  0  0  0  0  0  0
    9.6534   -2.3674   -1.1884 H   0  0  0  0  0  0  0  0  0  0  0  0
    9.8118   -3.1810   -2.7619 H   0  0  0  0  0  0  0  0  0  0  0  0
    9.1119   -4.0320   -1.3634 H   0  0  0  0  0  0  0  0  0  0  0  0
    7.3305   -3.3112   -2.9561 H   0  0  0  0  0  0  0  0  0  0  0  0
    7.8347   -1.6299   -2.8105 H   0  0  0  0  0  0  0  0  0  0  0  0
    6.7237    0.6286    1.2212 H   0  0  0  0  0  0  0  0  0  0  0  0
    5.7685   -0.2726    2.4084 H   0  0  0  0  0  0  0  0  0  0  0  0
    4.3357    1.4464    1.3730 H   0  0  0  0  0  0  0  0  0  0  0  0
    4.7518    0.8909   -0.2553 H   0  0  0  0  0  0  0  0  0  0  0  0
    1.1605   -1.3222   -0.4452 H   0  0  0  0  0  0  0  0  0  0  0  0
    1.0141   -1.4929    1.3555 H   0  0  0  0  0  0  0  0  0  0  0  0
   -0.6099   -2.8255    0.5160 H   0  0  0  0  0  0  0  0  0  0  0  0
   -2.6919   -3.9379   -0.1302 H   0  0  0  0  0  0  0  0  0  0  0  0
   -4.6447   -2.6151   -0.8752 H   0  0  0  0  0  0  0  0  0  0  0  0
   -1.6913    1.8727    0.3607 H   0  0  0  0  0  0  0  0  0  0  0  0
   -2.0683    1.7062   -1.3646 H   0  0  0  0  0  0  0  0  0  0  0  0
   -4.0492    1.9244    0.9729 H   0  0  0  0  0  0  0  0  0  0  0  0
   -3.7376    3.1278   -0.3006 H   0  0  0  0  0  0  0  0  0  0  0  0
   -5.6723    3.0352   -1.8730 H   0  0  0  0  0  0  0  0  0  0  0  0
   -6.7181    1.6328   -1.8102 H   0  0  0  0  0  0  0  0  0  0  0  0
   -6.0352    4.8209   -0.3222 H   0  0  0  0  0  0  0  0  0  0  0  0
   -7.1962    5.7271    1.6601 H   0  0  0  0  0  0  0  0  0  0  0  0
   -8.5373    4.2297    3.1185 H   0  0  0  0  0  0  0  0  0  0  0  0
   -8.7200    1.8055    2.5632 H   0  0  0  0  0  0  0  0  0  0  0  0
    3.8333   -1.6590   -0.8387 H   0  0  0  0  0  0  0  0  0  0  0  0
    2.9475   -2.4264    0.4856 H   0  0  0  0  0  0  0  0  0  0  0  0
    5.3190   -3.2599    0.3472 H   0  0  0  0  0  0  0  0  0  0  0  0
    4.9618   -2.4976    1.8997 H   0  0  0  0  0  0  0  0  0  0  0  0
  1  2  1  0
  2  3  1  0
  3  4  1  0
  4  5  2  0
  4  6  1  0
  6  7  1  0
  7  8  1  0
  8  9  1  0
  9 10  1  0
 10 11  2  0
 10 12  1  0
 12 13  1  0
 13 14  1  0
 14 15  2  0
 15 16  1  0
 16 17  2  0
 17 18  1  0
 18 19  2  0
 19 20  1  0
 20 21  1  0
 21 22  1  0
 22 23  1  0
 23 24  1  0
 24 25  2  0
 25 26  1  0
 26 27  2  0
 27 28  1  0
 28 29  2  0
 29 30  1  0
 22 31  1  0
 31 32  2  0
  9 33  1  0
 33 34  1  0
 34  6  1  0
 19 14  1  0
 29 24  1  0
 31 18  1  0
  1 35  1  0
  1 36  1  0
  1 37  1  0
  2 38  1  0
  2 39  1  0
  7 40  1  0
  7 41  1  0
  8 42  1  0
  8 43  1  0
 12 44  1  0
 12 45  1  0
 15 46  1  0
 16 47  1  0
 17 48  1  0
 20 49  1  0
 20 50  1  0
 21 51  1  0
 21 52  1  0
 23 53  1  0
 23 54  1  0
 25 55  1  0
 26 56  1  0
 27 57  1  0
 28 58  1  0
 33 59  1  0
 33 60  1  0
 34 61  1  0
 34 62  1  0
M  END
$$$$
