
     RDKit          3D

 24 25  0  0  0  0  0  0  0  0999 V2000
    2.2042    1.3087   -2.8823 C   0  0  0  0  0  0  0  0  0  0  0  0
    1.9507    1.1141   -1.4766 N   0  0  0  0  0  0  0  0  0  0  0  0
    2.8407    1.5573   -0.5616 N   0  0  0  0  0  0  0  0  0  0  0  0
    2.2358    1.1837    0.5795 C   0  0  0  0  0  0  0  0  0  0  0  0
    2.8330    1.4528    1.8806 N   0  0  0  0  0  4  0  0  0  0  0  0
    3.9254    2.0417    1.9101 O   0  0  0  0  0  0  0  0  0  0  0  0
    2.2033    1.0716    2.8796 O   0  0  0  0  0  1  0  0  0  0  0  0
    1.0316    0.5391    0.4344 N   0  0  0  0  0  0  0  0  0  0  0  0
    0.8805    0.5111   -0.8702 C   0  0  0  0  0  0  0  0  0  0  0  0
   -0.4409   -0.1661   -1.7626 S   0  0  0  0  0  0  0  0  0  0  0  0
   -1.4400   -0.7613   -0.4120 C   0  0  0  0  0  0  0  0  0  0  0  0
   -2.4213    0.0604    0.1552 C   0  0  0  0  0  0  0  0  0  0  0  0
   -3.2180   -0.4129    1.2016 C   0  0  0  0  0  0  0  0  0  0  0  0
   -3.0381   -1.7105    1.6765 C   0  0  0  0  0  0  0  0  0  0  0  0
   -4.0215   -2.2946    2.9614 Cl  0  0  0  0  0  0  0  0  0  0  0  0
   -2.0699   -2.5396    1.1135 C   0  0  0  0  0  0  0  0  0  0  0  0
   -1.2732   -2.0661    0.0672 C   0  0  0  0  0  0  0  0  0  0  0  0
    2.2524    0.3306   -3.3672 H   0  0  0  0  0  0  0  0  0  0  0  0
    3.1572    1.8287   -3.0118 H   0  0  0  0  0  0  0  0  0  0  0  0
    1.3972    1.9139   -3.3022 H   0  0  0  0  0  0  0  0  0  0  0  0
   -2.5693    1.0754   -0.2053 H   0  0  0  0  0  0  0  0  0  0  0  0
   -3.9720    0.2347    1.6410 H   0  0  0  0  0  0  0  0  0  0  0  0
   -1.9282   -3.5512    1.4843 H   0  0  0  0  0  0  0  0  0  0  0  0
   -0.5195   -2.7214   -0.3624 H   0  0  0  0  0  0  0  0  0  0  0  0
  1  2  1  0
  2  3  1  0
  3  4  2  0
  4  5  1  0
  5  6  2  0
  5  7  1  0
  4  8  1  0
  8  9  2  0
  9 10  1  0
 10 11  1  0
 11 12  2  0
 12 13  1  0
 13 14  2  0
 14 15  1  0
 14 16  1  0
 16 17  2  0
  9  2  1  0
 17 11  1  0
  1 18  1  0
  1 19  1  0
  1 20  1  0
 12 21  1  0
 13 22  1  0
 16 23  1  0
 17 24  1  0
M  CHG  2   5   1   7  -1
M  END
$$$$
