
     RDKit          3D

 42 43  0  0  0  0  0  0  0  0999 V2000
   -4.3558   -2.5583    3.7332 C   0  0  0  0  0  0  0  0  0  0  0  0
   -4.2895   -1.0311    3.6538 C   0  0  0  0  0  0  0  0  0  0  0  0
   -5.6025   -0.4553    3.1178 C   0  0  0  0  0  0  0  0  0  0  0  0
   -3.1002   -0.5662    2.8327 C   0  0  0  0  0  0  0  0  0  0  0  0
   -2.0982    0.2068    3.4329 C   0  0  0  0  0  0  0  0  0  0  0  0
   -0.9972    0.6435    2.6914 C   0  0  0  0  0  0  0  0  0  0  0  0
   -0.8723    0.3192    1.3402 C   0  0  0  0  0  0  0  0  0  0  0  0
    0.2520    0.8106    0.7383 O   0  0  0  0  0  0  0  0  0  0  0  0
    0.4442    0.4977   -0.6320 C   0  0  0  0  0  0  0  0  0  0  0  0
    1.7417    1.1103   -1.1698 C   0  0  0  0  0  0  0  0  0  0  0  0
    2.4716    1.8564   -0.5247 O   0  0  0  0  0  0  0  0  0  0  0  0
    2.0125    0.7465   -2.4812 N   0  0  0  0  0  0  0  0  0  0  0  0
    3.2473    1.1473   -3.1211 C   0  0  0  0  0  0  0  0  0  0  0  0
    3.1986    0.9909   -4.6360 C   0  0  0  0  0  0  0  0  0  0  0  0
    4.6666    1.0407   -5.0263 C   0  0  0  0  0  0  0  0  0  0  0  0
    5.3922    0.2962   -3.9089 C   0  0  0  0  0  0  0  0  0  0  0  0
    4.4385    0.2787   -2.7127 C   0  0  0  0  0  0  0  0  0  0  0  0
   -1.8641   -0.4486    0.7327 C   0  0  0  0  0  0  0  0  0  0  0  0
   -2.9685   -0.8873    1.4739 C   0  0  0  0  0  0  0  0  0  0  0  0
   -5.1680   -2.8741    4.3970 H   0  0  0  0  0  0  0  0  0  0  0  0
   -4.5330   -3.0127    2.7523 H   0  0  0  0  0  0  0  0  0  0  0  0
   -3.4207   -2.9707    4.1282 H   0  0  0  0  0  0  0  0  0  0  0  0
   -4.1709   -0.6604    4.6808 H   0  0  0  0  0  0  0  0  0  0  0  0
   -6.4384   -0.7317    3.7695 H   0  0  0  0  0  0  0  0  0  0  0  0
   -5.8307   -0.8225    2.1113 H   0  0  0  0  0  0  0  0  0  0  0  0
   -5.5605    0.6387    3.0724 H   0  0  0  0  0  0  0  0  0  0  0  0
   -2.1627    0.4786    4.4840 H   0  0  0  0  0  0  0  0  0  0  0  0
   -0.2283    1.2437    3.1728 H   0  0  0  0  0  0  0  0  0  0  0  0
   -0.3776    0.9057   -1.2329 H   0  0  0  0  0  0  0  0  0  0  0  0
    0.5156   -0.5892   -0.7621 H   0  0  0  0  0  0  0  0  0  0  0  0
    1.5017   -0.0312   -2.8781 H   0  0  0  0  0  0  0  0  0  0  0  0
    3.4553    2.1941   -2.8635 H   0  0  0  0  0  0  0  0  0  0  0  0
    2.7624    0.0254   -4.9214 H   0  0  0  0  0  0  0  0  0  0  0  0
    2.6126    1.7795   -5.1179 H   0  0  0  0  0  0  0  0  0  0  0  0
    5.0091    2.0820   -5.0595 H   0  0  0  0  0  0  0  0  0  0  0  0
    4.8516    0.5965   -6.0087 H   0  0  0  0  0  0  0  0  0  0  0  0
    6.3395    0.7876   -3.6625 H   0  0  0  0  0  0  0  0  0  0  0  0
    5.6258   -0.7297   -4.2157 H   0  0  0  0  0  0  0  0  0  0  0  0
    4.1254   -0.7528   -2.5075 H   0  0  0  0  0  0  0  0  0  0  0  0
    4.9198    0.6552   -1.8037 H   0  0  0  0  0  0  0  0  0  0  0  0
   -1.8161   -0.7254   -0.3144 H   0  0  0  0  0  0  0  0  0  0  0  0
   -3.7286   -1.4847    0.9753 H   0  0  0  0  0  0  0  0  0  0  0  0
  1  2  1  0
  2  3  1  0
  2  4  1  0
  4  5  2  0
  5  6  1  0
  6  7  2  0
  7  8  1  0
  8  9  1  0
  9 10  1  0
 10 11  2  0
 10 12  1  0
 12 13  1  0
 13 14  1  0
 14 15  1  0
 15 16  1  0
 16 17  1  0
  7 18  1  0
 18 19  2  0
 19  4  1  0
 17 13  1  0
  1 20  1  0
  1 21  1  0
  1 22  1  0
  2 23  1  0
  3 24  1  0
  3 25  1  0
  3 26  1  0
  5 27  1  0
  6 28  1  0
  9 29  1  0
  9 30  1  0
 12 31  1  0
 13 32  1  0
 14 33  1  0
 14 34  1  0
 15 35  1  0
 15 36  1  0
 16 37  1  0
 16 38  1  0
 17 39  1  0
 17 40  1  0
 18 41  1  0
 19 42  1  0
M  END
$$$$
