
     RDKit          3D

 39 41  0  0  0  0  0  0  0  0999 V2000
   -4.0088    2.0764    0.6521 O   0  0  0  0  0  0  0  0  0  0  0  0
   -4.7858    1.1673    0.4214 C   0  0  0  0  0  0  0  0  0  0  0  0
   -6.0663    1.2027    0.8399 O   0  0  0  0  0  0  0  0  0  0  0  0
   -4.4870   -0.0492   -0.3640 C   0  0  0  0  0  0  0  0  0  0  0  0
   -5.4140   -0.4240   -1.3011 N   0  0  0  0  0  0  0  0  0  0  0  0
   -5.0616   -1.4681   -2.0844 C   0  0  0  0  0  0  0  0  0  0  0  0
   -3.8359   -2.1043   -1.9687 C   0  0  0  0  0  0  0  0  0  0  0  0
   -2.9091   -1.7373   -1.0537 N   0  0  0  0  0  0  0  0  0  0  0  0
   -3.2658   -0.6935   -0.2402 C   0  0  0  0  0  0  0  0  0  0  0  0
   -2.3408   -0.3739    0.8766 C   0  0  0  0  0  0  0  0  0  0  0  0
   -2.8175   -0.2971    2.0087 O   0  0  0  0  0  0  0  0  0  0  0  0
   -0.9823   -0.2174    0.6147 N   0  0  0  0  0  0  0  0  0  0  0  0
   -0.3867   -0.1783   -0.7261 C   0  0  0  0  0  0  0  0  0  0  0  0
    0.9411    0.6030   -0.7779 C   0  0  0  0  0  0  0  0  0  0  0  0
    1.9080    0.0904    0.2049 N   0  0  0  0  0  0  0  0  0  0  0  0
    3.2732    0.2811    0.0504 C   0  0  0  0  0  0  0  0  0  0  0  0
    3.7988    1.2389   -0.8326 C   0  0  0  0  0  0  0  0  0  0  0  0
    5.1781    1.4277   -0.9903 C   0  0  0  0  0  0  0  0  0  0  0  0
    6.0754    0.6535   -0.2658 C   0  0  0  0  0  0  0  0  0  0  0  0
    5.5904   -0.3065    0.6129 C   0  0  0  0  0  0  0  0  0  0  0  0
    4.2096   -0.4861    0.7644 C   0  0  0  0  0  0  0  0  0  0  0  0
    1.3635   -0.4793    1.4522 C   0  0  0  0  0  0  0  0  0  0  0  0
   -0.0684    0.0103    1.7342 C   0  0  0  0  0  0  0  0  0  0  0  0
   -6.1401    2.0431    1.3367 H   0  0  0  0  0  0  0  0  0  0  0  0
   -5.7954   -1.7799   -2.8202 H   0  0  0  0  0  0  0  0  0  0  0  0
   -3.5685   -2.9378   -2.6099 H   0  0  0  0  0  0  0  0  0  0  0  0
   -1.0956    0.2632   -1.4339 H   0  0  0  0  0  0  0  0  0  0  0  0
   -0.2093   -1.2191   -1.0222 H   0  0  0  0  0  0  0  0  0  0  0  0
    1.3337    0.5128   -1.7978 H   0  0  0  0  0  0  0  0  0  0  0  0
    0.7514    1.6642   -0.5752 H   0  0  0  0  0  0  0  0  0  0  0  0
    3.1396    1.8839   -1.4059 H   0  0  0  0  0  0  0  0  0  0  0  0
    5.5441    2.1851   -1.6781 H   0  0  0  0  0  0  0  0  0  0  0  0
    7.1453    0.7967   -0.3858 H   0  0  0  0  0  0  0  0  0  0  0  0
    6.2807   -0.9242    1.1807 H   0  0  0  0  0  0  0  0  0  0  0  0
    3.8781   -1.2664    1.4439 H   0  0  0  0  0  0  0  0  0  0  0  0
    1.9807   -0.2016    2.3151 H   0  0  0  0  0  0  0  0  0  0  0  0
    1.3647   -1.5727    1.3675 H   0  0  0  0  0  0  0  0  0  0  0  0
   -0.4541   -0.4753    2.6373 H   0  0  0  0  0  0  0  0  0  0  0  0
   -0.0632    1.0916    1.9198 H   0  0  0  0  0  0  0  0  0  0  0  0
  1  2  2  0
  2  3  1  0
  2  4  1  0
  4  5  2  0
  5  6  1  0
  6  7  2  0
  7  8  1  0
  8  9  2  0
  9 10  1  0
 10 11  2  0
 10 12  1  0
 12 13  1  0
 13 14  1  0
 14 15  1  0
 15 16  1  0
 16 17  2  0
 17 18  1  0
 18 19  2  0
 19 20  1  0
 20 21  2  0
 15 22  1  0
 22 23  1  0
  9  4  1  0
 23 12  1  0
 21 16  1  0
  3 24  1  0
  6 25  1  0
  7 26  1  0
 13 27  1  0
 13 28  1  0
 14 29  1  0
 14 30  1  0
 17 31  1  0
 18 32  1  0
 19 33  1  0
 20 34  1  0
 21 35  1  0
 22 36  1  0
 22 37  1  0
 23 38  1  0
 23 39  1  0
M  END
$$$$
