
     RDKit          3D

 57 60  0  0  0  0  0  0  0  0999 V2000
    4.8794    0.7819   -3.0119 C   0  0  0  0  0  0  0  0  0  0  0  0
    4.2214   -0.4474   -2.4192 C   0  0  0  0  0  0  0  0  0  0  0  0
    3.9573   -0.2384   -1.0212 O   0  0  0  0  0  0  0  0  0  0  0  0
    4.9656   -0.5832   -0.1721 C   0  0  0  0  0  0  0  0  0  0  0  0
    6.0466   -1.0517   -0.5068 O   0  0  0  0  0  0  0  0  0  0  0  0
    4.5867   -0.3051    1.2684 C   0  0  0  0  0  0  0  0  0  0  0  0
    4.2995    1.1929    1.4826 C   0  0  0  0  0  0  0  0  0  0  0  0
    2.8162    1.4543    1.7260 C   0  0  0  0  0  0  0  0  0  0  0  0
    2.3879    0.7006    2.9200 N   0  0  0  0  0  0  0  0  0  0  0  0
    0.9490    1.1693    3.6857 S   0  0  0  0  0  6  0  0  0  0  0  0
    0.7704    0.3400    4.8573 O   0  0  0  0  0  0  0  0  0  0  0  0
    0.9395    2.6129    3.7805 O   0  0  0  0  0  0  0  0  0  0  0  0
   -0.2995    0.7105    2.4997 C   0  0  0  0  0  0  0  0  0  0  0  0
   -0.8967   -0.5591    2.5669 C   0  0  0  0  0  0  0  0  0  0  0  0
   -1.8949   -0.9188    1.6525 C   0  0  0  0  0  0  0  0  0  0  0  0
   -2.2899    0.0059    0.7013 C   0  0  0  0  0  0  0  0  0  0  0  0
   -1.7042    1.2734    0.6542 C   0  0  0  0  0  0  0  0  0  0  0  0
   -0.7112    1.6478    1.5494 C   0  0  0  0  0  0  0  0  0  0  0  0
   -2.2724    2.0942   -0.4575 C   0  0  0  0  0  0  0  0  0  0  0  0
   -3.3816    1.1823   -0.9950 C   0  0  0  0  0  0  0  0  0  0  0  0
   -3.2759   -0.1087   -0.2970 N   0  0  0  0  0  0  0  0  0  0  0  0
   -4.0555   -1.2331   -0.5610 C   0  0  0  0  0  0  0  0  0  0  0  0
   -3.9090   -2.3042    0.0386 O   0  0  0  0  0  0  0  0  0  0  0  0
   -5.1386   -1.0625   -1.6700 C   0  0  0  0  0  0  0  0  0  0  0  0
   -4.7118   -1.3338   -3.1426 C   0  0  0  0  0  0  0  0  0  0  0  0
   -6.1219   -1.9096   -3.3738 C   0  0  0  0  0  0  0  0  0  0  0  0
   -6.1616   -2.2214   -1.8671 C   0  0  0  0  0  0  0  0  0  0  0  0
    2.7614   -0.7281    2.9793 C   0  0  0  0  0  0  0  0  0  0  0  0
    3.4216   -1.2088    1.6910 C   0  0  0  0  0  0  0  0  0  0  0  0
    5.8253    1.0066   -2.5044 H   0  0  0  0  0  0  0  0  0  0  0  0
    4.2316    1.6533   -2.8908 H   0  0  0  0  0  0  0  0  0  0  0  0
    5.0795    0.6409   -4.0812 H   0  0  0  0  0  0  0  0  0  0  0  0
    4.8339   -1.3406   -2.5796 H   0  0  0  0  0  0  0  0  0  0  0  0
    3.2577   -0.6182   -2.9096 H   0  0  0  0  0  0  0  0  0  0  0  0
    5.4693   -0.5617    1.8713 H   0  0  0  0  0  0  0  0  0  0  0  0
    4.8705    1.5375    2.3626 H   0  0  0  0  0  0  0  0  0  0  0  0
    4.6458    1.7997    0.6350 H   0  0  0  0  0  0  0  0  0  0  0  0
    2.6777    2.5294    1.8837 H   0  0  0  0  0  0  0  0  0  0  0  0
    2.2219    1.1616    0.8541 H   0  0  0  0  0  0  0  0  0  0  0  0
   -0.5987   -1.2698    3.3321 H   0  0  0  0  0  0  0  0  0  0  0  0
   -2.3492   -1.9024    1.7173 H   0  0  0  0  0  0  0  0  0  0  0  0
   -0.2725    2.6406    1.5114 H   0  0  0  0  0  0  0  0  0  0  0  0
   -2.6799    3.0460   -0.0998 H   0  0  0  0  0  0  0  0  0  0  0  0
   -1.5148    2.2835   -1.2237 H   0  0  0  0  0  0  0  0  0  0  0  0
   -3.2872    1.0291   -2.0751 H   0  0  0  0  0  0  0  0  0  0  0  0
   -4.3716    1.6085   -0.7936 H   0  0  0  0  0  0  0  0  0  0  0  0
   -5.6807   -0.1092   -1.5682 H   0  0  0  0  0  0  0  0  0  0  0  0
   -4.4644   -0.4521   -3.7402 H   0  0  0  0  0  0  0  0  0  0  0  0
   -3.9052   -2.0724   -3.2466 H   0  0  0  0  0  0  0  0  0  0  0  0
   -6.1814   -2.7718   -4.0400 H   0  0  0  0  0  0  0  0  0  0  0  0
   -6.8570   -1.1615   -3.6888 H   0  0  0  0  0  0  0  0  0  0  0  0
   -7.1304   -2.0829   -1.3820 H   0  0  0  0  0  0  0  0  0  0  0  0
   -5.7819   -3.2179   -1.6195 H   0  0  0  0  0  0  0  0  0  0  0  0
    1.8908   -1.3569    3.1750 H   0  0  0  0  0  0  0  0  0  0  0  0
    3.4516   -0.8563    3.8183 H   0  0  0  0  0  0  0  0  0  0  0  0
    2.6583   -1.2621    0.9038 H   0  0  0  0  0  0  0  0  0  0  0  0
    3.7836   -2.2356    1.8206 H   0  0  0  0  0  0  0  0  0  0  0  0
  1  2  1  0
  2  3  1  0
  3  4  1  0
  4  5  2  0
  4  6  1  0
  6  7  1  0
  7  8  1  0
  8  9  1  0
  9 10  1  0
 10 11  2  0
 10 12  2  0
 10 13  1  0
 13 14  2  0
 14 15  1  0
 15 16  2  0
 16 17  1  0
 17 18  2  0
 17 19  1  0
 19 20  1  0
 20 21  1  0
 21 22  1  0
 22 23  2  0
 22 24  1  0
 24 25  1  0
 25 26  1  0
 26 27  1  0
  9 28  1  0
 28 29  1  0
 29  6  1  0
 18 13  1  0
 27 24  1  0
 21 16  1  0
  1 30  1  0
  1 31  1  0
  1 32  1  0
  2 33  1  0
  2 34  1  0
  6 35  1  0
  7 36  1  0
  7 37  1  0
  8 38  1  0
  8 39  1  0
 14 40  1  0
 15 41  1  0
 18 42  1  0
 19 43  1  0
 19 44  1  0
 20 45  1  0
 20 46  1  0
 24 47  1  0
 25 48  1  0
 25 49  1  0
 26 50  1  0
 26 51  1  0
 27 52  1  0
 27 53  1  0
 28 54  1  0
 28 55  1  0
 29 56  1  0
 29 57  1  0
M  END
$$$$
