
     RDKit          3D

 29 31  0  0  0  0  0  0  0  0999 V2000
    0.6770   -2.4737    1.8210 O   0  0  0  0  0  0  0  0  0  0  0  0
    0.3485   -1.5668    1.0633 C   0  0  0  0  0  0  0  0  0  0  0  0
   -0.8989   -0.9661    1.0142 N   0  0  0  0  0  0  0  0  0  0  0  0
   -1.8890   -1.3881    1.8410 N   0  0  0  0  0  0  0  0  0  0  0  0
   -3.0437   -0.7875    1.8598 C   0  0  0  0  0  0  0  0  0  0  0  0
   -3.5647    0.3499    1.1214 C   0  0  0  0  0  0  0  0  0  0  0  0
   -4.8483    0.8579    1.2445 C   0  0  0  0  0  0  0  0  0  0  0  0
   -5.0858    1.9809    0.4001 C   0  0  0  0  0  0  0  0  0  0  0  0
   -3.9758    2.3017   -0.3452 C   0  0  0  0  0  0  0  0  0  0  0  0
   -2.6690    1.2532   -0.0213 S   0  0  0  0  0  0  0  0  0  0  0  0
    1.3564   -1.0072    0.1221 C   0  0  0  0  0  0  0  0  0  0  0  0
    0.9909   -0.5392   -1.1610 C   0  0  0  0  0  0  0  0  0  0  0  0
    1.9576   -0.0170   -2.0273 C   0  0  0  0  0  0  0  0  0  0  0  0
    3.2638    0.0127   -1.5877 C   0  0  0  0  0  0  0  0  0  0  0  0
    3.6238   -0.4572   -0.3459 C   0  0  0  0  0  0  0  0  0  0  0  0
    2.6975   -0.9786    0.5311 C   0  0  0  0  0  0  0  0  0  0  0  0
    4.9590   -0.3414   -0.1161 O   0  0  0  0  0  0  0  0  0  0  0  0
    5.4008    0.2439   -1.3582 C   0  0  0  0  0  0  0  0  0  0  0  0
    4.3273    0.4808   -2.2936 O   0  0  0  0  0  0  0  0  0  0  0  0
   -1.0573   -0.1359    0.4548 H   0  0  0  0  0  0  0  0  0  0  0  0
   -3.7644   -1.2285    2.5722 H   0  0  0  0  0  0  0  0  0  0  0  0
   -5.5922    0.4417    1.9148 H   0  0  0  0  0  0  0  0  0  0  0  0
   -6.0216    2.5244    0.3439 H   0  0  0  0  0  0  0  0  0  0  0  0
   -3.8701    3.1032   -1.0642 H   0  0  0  0  0  0  0  0  0  0  0  0
   -0.0373   -0.6066   -1.5075 H   0  0  0  0  0  0  0  0  0  0  0  0
    1.6947    0.3413   -3.0166 H   0  0  0  0  0  0  0  0  0  0  0  0
    2.9987   -1.3520    1.5049 H   0  0  0  0  0  0  0  0  0  0  0  0
    5.8926    1.1989   -1.1405 H   0  0  0  0  0  0  0  0  0  0  0  0
    6.1298   -0.4292   -1.8240 H   0  0  0  0  0  0  0  0  0  0  0  0
  1  2  2  0
  2  3  1  0
  3  4  1  0
  4  5  2  3
  5  6  1  0
  6  7  2  0
  7  8  1  0
  8  9  2  0
  9 10  1  0
  2 11  1  0
 11 12  2  0
 12 13  1  0
 13 14  2  0
 14 15  1  0
 15 16  2  0
 15 17  1  0
 17 18  1  0
 18 19  1  0
 10  6  1  0
 16 11  1  0
 19 14  1  0
  3 20  1  0
  5 21  1  0
  7 22  1  0
  8 23  1  0
  9 24  1  0
 12 25  1  0
 13 26  1  0
 16 27  1  0
 18 28  1  0
 18 29  1  0
M  END
$$$$
