
     RDKit          3D

 50 53  0  0  0  0  0  0  0  0999 V2000
   -8.1287   -0.1266    2.1089 C   0  0  0  0  0  0  0  0  0  0  0  0
   -6.8008    0.2580    1.5261 C   0  0  0  0  0  0  0  0  0  0  0  0
   -5.8369   -0.7162    1.2516 C   0  0  0  0  0  0  0  0  0  0  0  0
   -4.6080   -0.3666    0.6786 C   0  0  0  0  0  0  0  0  0  0  0  0
   -4.3280    0.9624    0.3606 C   0  0  0  0  0  0  0  0  0  0  0  0
   -3.1157    1.4043   -0.2168 N   0  0  0  0  0  0  0  0  0  0  0  0
   -2.0272    0.6255   -0.5777 C   0  0  0  0  0  0  0  0  0  0  0  0
   -1.9395   -0.5966   -0.4807 O   0  0  0  0  0  0  0  0  0  0  0  0
   -0.8705    1.4412   -1.1744 C   0  0  0  0  0  0  0  0  0  0  0  0
    0.4132    0.7355   -1.0546 N   0  0  0  0  0  4  0  0  0  0  0  0
    1.4735    1.0559   -0.2078 C   0  0  0  0  0  0  0  0  0  0  0  0
    2.4779    0.1065   -0.3589 C   0  0  0  0  0  0  0  0  0  0  0  0
    3.8436    0.0629    0.4165 C   0  0  0  0  0  0  0  0  0  0  0  0
    4.7373   -0.9917    0.2285 C   0  0  0  0  0  0  0  0  0  0  0  0
    5.9505   -1.0191    0.9241 C   0  0  0  0  0  0  0  0  0  0  0  0
    6.2887    0.0099    1.8082 C   0  0  0  0  0  0  0  0  0  0  0  0
    7.5763   -0.0402    2.5782 C   0  0  0  0  0  0  0  0  0  0  0  0
    5.3822    1.0546    2.0090 C   0  0  0  0  0  0  0  0  0  0  0  0
    4.1682    1.0850    1.3160 C   0  0  0  0  0  0  0  0  0  0  0  0
    1.9681   -0.7425   -1.3239 N   0  0  0  0  0  0  0  0  0  0  0  0
    0.7371   -0.3902   -1.6866 C   0  0  0  0  0  0  0  0  0  0  0  0
    0.1443   -1.3027   -2.6937 C   0  0  0  0  0  0  0  0  0  0  0  0
    1.3761   -2.1011   -3.1637 C   0  0  0  0  0  0  0  0  0  0  0  0
    2.4134   -1.9418   -2.0190 C   0  0  0  0  0  0  0  0  0  0  0  0
   -5.3000    1.9363    0.6234 C   0  0  0  0  0  0  0  0  0  0  0  0
   -6.5274    1.5871    1.1954 C   0  0  0  0  0  0  0  0  0  0  0  0
   -8.8352   -0.3616    1.3069 H   0  0  0  0  0  0  0  0  0  0  0  0
   -8.0302   -1.0002    2.7618 H   0  0  0  0  0  0  0  0  0  0  0  0
   -8.5393    0.6873    2.7156 H   0  0  0  0  0  0  0  0  0  0  0  0
   -6.0340   -1.7613    1.4840 H   0  0  0  0  0  0  0  0  0  0  0  0
   -3.8991   -1.1674    0.4980 H   0  0  0  0  0  0  0  0  0  0  0  0
   -3.0689    2.4039   -0.3781 H   0  0  0  0  0  0  0  0  0  0  0  0
   -0.7895    2.4070   -0.6649 H   0  0  0  0  0  0  0  0  0  0  0  0
   -1.0713    1.6144   -2.2365 H   0  0  0  0  0  0  0  0  0  0  0  0
    1.3739    1.9264    0.4179 H   0  0  0  0  0  0  0  0  0  0  0  0
    4.5222   -1.8187   -0.4351 H   0  0  0  0  0  0  0  0  0  0  0  0
    6.6338   -1.8539    0.7744 H   0  0  0  0  0  0  0  0  0  0  0  0
    8.3564   -0.5482    2.0015 H   0  0  0  0  0  0  0  0  0  0  0  0
    7.4274   -0.5752    3.5211 H   0  0  0  0  0  0  0  0  0  0  0  0
    7.9398    0.9694    2.7969 H   0  0  0  0  0  0  0  0  0  0  0  0
    5.6192    1.8539    2.7097 H   0  0  0  0  0  0  0  0  0  0  0  0
    3.5036    1.9226    1.5037 H   0  0  0  0  0  0  0  0  0  0  0  0
   -0.5756   -1.9357   -2.1729 H   0  0  0  0  0  0  0  0  0  0  0  0
   -0.3206   -0.7115   -3.4832 H   0  0  0  0  0  0  0  0  0  0  0  0
    1.7769   -1.6382   -4.0734 H   0  0  0  0  0  0  0  0  0  0  0  0
    1.1486   -3.1464   -3.3891 H   0  0  0  0  0  0  0  0  0  0  0  0
    2.3711   -2.7873   -1.3262 H   0  0  0  0  0  0  0  0  0  0  0  0
    3.4213   -1.8130   -2.4195 H   0  0  0  0  0  0  0  0  0  0  0  0
   -5.1284    2.9833    0.3874 H   0  0  0  0  0  0  0  0  0  0  0  0
   -7.2697    2.3609    1.3824 H   0  0  0  0  0  0  0  0  0  0  0  0
  1  2  1  0
  2  3  2  0
  3  4  1  0
  4  5  2  0
  5  6  1  0
  6  7  1  0
  7  8  2  0
  7  9  1  0
  9 10  1  0
 10 11  1  0
 11 12  2  0
 12 13  1  0
 13 14  2  0
 14 15  1  0
 15 16  2  0
 16 17  1  0
 16 18  1  0
 18 19  2  0
 12 20  1  0
 20 21  1  0
 21 22  1  0
 22 23  1  0
 23 24  1  0
  5 25  1  0
 25 26  2  0
 26  2  1  0
 21 10  2  0
 19 13  1  0
 24 20  1  0
  1 27  1  0
  1 28  1  0
  1 29  1  0
  3 30  1  0
  4 31  1  0
  6 32  1  0
  9 33  1  0
  9 34  1  0
 11 35  1  0
 14 36  1  0
 15 37  1  0
 17 38  1  0
 17 39  1  0
 17 40  1  0
 18 41  1  0
 19 42  1  0
 22 43  1  0
 22 44  1  0
 23 45  1  0
 23 46  1  0
 24 47  1  0
 24 48  1  0
 25 49  1  0
 26 50  1  0
M  CHG  1  10   1
M  END
$$$$
