
     RDKit          3D

 61 64  0  0  0  0  0  0  0  0999 V2000
  -10.4747   -0.4635   -1.1447 C   0  0  0  0  0  0  0  0  0  0  0  0
   -9.1377   -0.0795   -0.8218 O   0  0  0  0  0  0  0  0  0  0  0  0
   -8.3261   -1.1201   -0.5049 C   0  0  0  0  0  0  0  0  0  0  0  0
   -8.6519   -2.2967   -0.4803 O   0  0  0  0  0  0  0  0  0  0  0  0
   -6.9590   -0.6380   -0.1679 C   0  0  0  0  0  0  0  0  0  0  0  0
   -6.0220   -1.5736    0.2900 C   0  0  0  0  0  0  0  0  0  0  0  0
   -4.7259   -1.1717    0.6247 C   0  0  0  0  0  0  0  0  0  0  0  0
   -4.3462    0.1717    0.5032 C   0  0  0  0  0  0  0  0  0  0  0  0
   -2.9461    0.6174    0.8737 C   0  0  0  0  0  0  0  0  0  0  0  0
   -2.1808    1.1483   -0.2674 N   0  0  0  0  0  0  0  0  0  0  0  0
   -1.9392    0.1077   -1.2847 C   0  0  0  0  0  0  0  0  0  0  0  0
   -0.7483    0.4410   -2.1811 C   0  0  0  0  0  0  0  0  0  0  0  0
    0.5508    0.4981   -1.3638 C   0  0  0  0  0  0  0  0  0  0  0  0
    1.1108   -0.8248   -1.3650 O   0  0  0  0  0  0  0  0  0  0  0  0
    2.4493   -0.9885   -1.1464 C   0  0  0  0  0  0  0  0  0  0  0  0
    2.8833   -2.3180   -1.2018 C   0  0  0  0  0  0  0  0  0  0  0  0
    4.2267   -2.6467   -1.0048 C   0  0  0  0  0  0  0  0  0  0  0  0
    5.1510   -1.6417   -0.7352 C   0  0  0  0  0  0  0  0  0  0  0  0
    4.7179   -0.3154   -0.6530 C   0  0  0  0  0  0  0  0  0  0  0  0
    5.6738    0.7799   -0.3775 C   0  0  0  0  0  0  0  0  0  0  0  0
    5.7235    1.7205   -1.1658 O   0  0  0  0  0  0  0  0  0  0  0  0
    6.4455    0.7080    0.7663 N   0  0  0  0  0  0  0  0  0  0  0  0
    6.2807   -0.2047    1.8900 C   0  0  0  0  0  0  0  0  0  0  0  0
    6.9855    0.4906    3.0478 C   0  0  0  0  0  0  0  0  0  0  0  0
    8.0815    1.2868    2.3502 C   0  0  0  0  0  0  0  0  0  0  0  0
    7.3914    1.7641    1.0819 C   0  0  0  0  0  0  0  0  0  0  0  0
    3.3753    0.0167   -0.8797 C   0  0  0  0  0  0  0  0  0  0  0  0
    0.2866    0.9426    0.0818 C   0  0  0  0  0  0  0  0  0  0  0  0
   -0.9525    1.8240    0.1732 C   0  0  0  0  0  0  0  0  0  0  0  0
   -5.2852    1.1042    0.0376 C   0  0  0  0  0  0  0  0  0  0  0  0
   -6.5826    0.7048   -0.2952 C   0  0  0  0  0  0  0  0  0  0  0  0
  -10.4882   -1.0400   -2.0747 H   0  0  0  0  0  0  0  0  0  0  0  0
  -11.0627    0.4471   -1.2914 H   0  0  0  0  0  0  0  0  0  0  0  0
  -10.9244   -1.0362   -0.3269 H   0  0  0  0  0  0  0  0  0  0  0  0
   -6.2984   -2.6217    0.3891 H   0  0  0  0  0  0  0  0  0  0  0  0
   -4.0152   -1.9158    0.9776 H   0  0  0  0  0  0  0  0  0  0  0  0
   -3.0679    1.3970    1.6379 H   0  0  0  0  0  0  0  0  0  0  0  0
   -2.3985   -0.2005    1.3606 H   0  0  0  0  0  0  0  0  0  0  0  0
   -2.8326    0.0067   -1.9117 H   0  0  0  0  0  0  0  0  0  0  0  0
   -1.7568   -0.8700   -0.8186 H   0  0  0  0  0  0  0  0  0  0  0  0
   -0.9250    1.4113   -2.6632 H   0  0  0  0  0  0  0  0  0  0  0  0
   -0.6698   -0.3057   -2.9803 H   0  0  0  0  0  0  0  0  0  0  0  0
    1.2158    1.1965   -1.8864 H   0  0  0  0  0  0  0  0  0  0  0  0
    2.1646   -3.1066   -1.4149 H   0  0  0  0  0  0  0  0  0  0  0  0
    4.5474   -3.6829   -1.0722 H   0  0  0  0  0  0  0  0  0  0  0  0
    6.2013   -1.8893   -0.6083 H   0  0  0  0  0  0  0  0  0  0  0  0
    6.7854   -1.1434    1.6403 H   0  0  0  0  0  0  0  0  0  0  0  0
    5.2250   -0.3996    2.0976 H   0  0  0  0  0  0  0  0  0  0  0  0
    6.2935    1.1767    3.5515 H   0  0  0  0  0  0  0  0  0  0  0  0
    7.3723   -0.2130    3.7899 H   0  0  0  0  0  0  0  0  0  0  0  0
    8.9179    0.6241    2.0984 H   0  0  0  0  0  0  0  0  0  0  0  0
    8.4653    2.1106    2.9576 H   0  0  0  0  0  0  0  0  0  0  0  0
    6.8270    2.6871    1.2576 H   0  0  0  0  0  0  0  0  0  0  0  0
    8.0843    1.9237    0.2504 H   0  0  0  0  0  0  0  0  0  0  0  0
    3.0972    1.0640   -0.8379 H   0  0  0  0  0  0  0  0  0  0  0  0
    0.1773    0.0724    0.7423 H   0  0  0  0  0  0  0  0  0  0  0  0
    1.1528    1.4966    0.4607 H   0  0  0  0  0  0  0  0  0  0  0  0
   -0.8066    2.7051   -0.4653 H   0  0  0  0  0  0  0  0  0  0  0  0
   -1.0516    2.2218    1.1907 H   0  0  0  0  0  0  0  0  0  0  0  0
   -4.9997    2.1488   -0.0740 H   0  0  0  0  0  0  0  0  0  0  0  0
   -7.2849    1.4521   -0.6558 H   0  0  0  0  0  0  0  0  0  0  0  0
  1  2  1  0
  2  3  1  0
  3  4  2  0
  3  5  1  0
  5  6  2  0
  6  7  1  0
  7  8  2  0
  8  9  1  0
  9 10  1  0
 10 11  1  0
 11 12  1  0
 12 13  1  0
 13 14  1  0
 14 15  1  0
 15 16  2  0
 16 17  1  0
 17 18  2  0
 18 19  1  0
 19 20  1  0
 20 21  2  0
 20 22  1  0
 22 23  1  0
 23 24  1  0
 24 25  1  0
 25 26  1  0
 19 27  2  0
 13 28  1  0
 28 29  1  0
  8 30  1  0
 30 31  2  0
 31  5  1  0
 29 10  1  0
 27 15  1  0
 26 22  1  0
  1 32  1  0
  1 33  1  0
  1 34  1  0
  6 35  1  0
  7 36  1  0
  9 37  1  0
  9 38  1  0
 11 39  1  0
 11 40  1  0
 12 41  1  0
 12 42  1  0
 13 43  1  0
 16 44  1  0
 17 45  1  0
 18 46  1  0
 23 47  1  0
 23 48  1  0
 24 49  1  0
 24 50  1  0
 25 51  1  0
 25 52  1  0
 26 53  1  0
 26 54  1  0
 27 55  1  0
 28 56  1  0
 28 57  1  0
 29 58  1  0
 29 59  1  0
 30 60  1  0
 31 61  1  0
M  END
$$$$
