
     RDKit          3D

 61 63  0  0  0  0  0  0  0  0999 V2000
   -5.8221   -4.5967    1.2407 C   0  0  0  0  0  0  0  0  0  0  0  0
   -5.5304   -3.1996    1.7707 C   0  0  0  0  0  0  0  0  0  0  0  0
   -4.1538   -2.6673    1.3448 C   0  0  0  0  0  0  0  0  0  0  0  0
   -3.9808   -2.5667   -0.1050 N   0  0  0  0  0  0  0  0  0  0  0  0
   -4.8682   -1.6230   -0.7953 C   0  0  0  0  0  0  0  0  0  0  0  0
   -5.0530   -0.2317   -0.1744 C   0  0  0  0  0  0  0  0  0  0  0  0
   -5.9520    0.6404   -1.0406 C   0  0  0  0  0  0  0  0  0  0  0  0
   -2.5799   -2.5307   -0.5505 C   0  0  0  0  0  0  0  0  0  0  0  0
   -1.6944   -1.3120   -0.2192 C   0  0  0  0  0  0  0  0  0  0  0  0
   -1.4538   -1.1995    1.2212 N   0  0  0  0  0  0  0  0  0  0  0  0
   -1.0422    0.2698    1.9012 S   0  0  0  0  0  6  0  0  0  0  0  0
   -0.7366    0.0013    3.2893 O   0  0  0  0  0  0  0  0  0  0  0  0
   -2.0309    1.2496    1.5138 O   0  0  0  0  0  0  0  0  0  0  0  0
    0.4829    0.6603    1.0756 C   0  0  0  0  0  0  0  0  0  0  0  0
    0.4671    1.4939   -0.0554 C   0  0  0  0  0  0  0  0  0  0  0  0
    1.6625    1.8152   -0.7076 C   0  0  0  0  0  0  0  0  0  0  0  0
    2.8521    1.3080   -0.2076 C   0  0  0  0  0  0  0  0  0  0  0  0
    2.8595    0.4982    0.9312 C   0  0  0  0  0  0  0  0  0  0  0  0
    1.6850    0.1646    1.5905 C   0  0  0  0  0  0  0  0  0  0  0  0
    4.2495    0.1063    1.3145 C   0  0  0  0  0  0  0  0  0  0  0  0
    5.0814    0.7301    0.1876 C   0  0  0  0  0  0  0  0  0  0  0  0
    4.1654    1.4882   -0.6803 N   0  0  0  0  0  0  0  0  0  0  0  0
    4.5418    2.2361   -1.7932 C   0  0  0  0  0  0  0  0  0  0  0  0
    3.7282    2.8289   -2.5113 O   0  0  0  0  0  0  0  0  0  0  0  0
    6.0760    2.2791   -2.0868 C   0  0  0  0  0  0  0  0  0  0  0  0
    6.5440    2.9906   -3.3885 C   0  0  0  0  0  0  0  0  0  0  0  0
    6.7886    4.2554   -2.5482 C   0  0  0  0  0  0  0  0  0  0  0  0
    6.9114    3.3402   -1.3177 C   0  0  0  0  0  0  0  0  0  0  0  0
   -6.7806   -4.9534    1.6306 H   0  0  0  0  0  0  0  0  0  0  0  0
   -5.0464   -5.3036    1.5515 H   0  0  0  0  0  0  0  0  0  0  0  0
   -5.8813   -4.6074    0.1482 H   0  0  0  0  0  0  0  0  0  0  0  0
   -5.5636   -3.2293    2.8667 H   0  0  0  0  0  0  0  0  0  0  0  0
   -6.3281   -2.5177    1.4569 H   0  0  0  0  0  0  0  0  0  0  0  0
   -3.9783   -1.7045    1.8371 H   0  0  0  0  0  0  0  0  0  0  0  0
   -3.4064   -3.3608    1.7523 H   0  0  0  0  0  0  0  0  0  0  0  0
   -4.5440   -1.5135   -1.8386 H   0  0  0  0  0  0  0  0  0  0  0  0
   -5.8571   -2.0942   -0.8671 H   0  0  0  0  0  0  0  0  0  0  0  0
   -5.5067   -0.3080    0.8195 H   0  0  0  0  0  0  0  0  0  0  0  0
   -4.0935    0.2746   -0.0533 H   0  0  0  0  0  0  0  0  0  0  0  0
   -6.9418    0.1881   -1.1587 H   0  0  0  0  0  0  0  0  0  0  0  0
   -5.5177    0.7852   -2.0351 H   0  0  0  0  0  0  0  0  0  0  0  0
   -6.0813    1.6251   -0.5802 H   0  0  0  0  0  0  0  0  0  0  0  0
   -2.5689   -2.6605   -1.6409 H   0  0  0  0  0  0  0  0  0  0  0  0
   -2.0814   -3.4311   -0.1658 H   0  0  0  0  0  0  0  0  0  0  0  0
   -2.1323   -0.3995   -0.6291 H   0  0  0  0  0  0  0  0  0  0  0  0
   -0.7262   -1.4579   -0.7121 H   0  0  0  0  0  0  0  0  0  0  0  0
   -1.1403   -2.0172    1.7393 H   0  0  0  0  0  0  0  0  0  0  0  0
   -0.4702    1.8996   -0.4318 H   0  0  0  0  0  0  0  0  0  0  0  0
    1.6349    2.4585   -1.5811 H   0  0  0  0  0  0  0  0  0  0  0  0
    1.7029   -0.4530    2.4841 H   0  0  0  0  0  0  0  0  0  0  0  0
    4.5215    0.5335    2.2848 H   0  0  0  0  0  0  0  0  0  0  0  0
    4.3709   -0.9805    1.3431 H   0  0  0  0  0  0  0  0  0  0  0  0
    5.5719   -0.0452   -0.4120 H   0  0  0  0  0  0  0  0  0  0  0  0
    5.8543    1.3981    0.5819 H   0  0  0  0  0  0  0  0  0  0  0  0
    6.5148    1.2743   -2.0310 H   0  0  0  0  0  0  0  0  0  0  0  0
    7.4585    2.5613   -3.8153 H   0  0  0  0  0  0  0  0  0  0  0  0
    5.8040    3.0928   -4.1866 H   0  0  0  0  0  0  0  0  0  0  0  0
    5.9277    4.9329   -2.5099 H   0  0  0  0  0  0  0  0  0  0  0  0
    7.6823    4.8303   -2.8040 H   0  0  0  0  0  0  0  0  0  0  0  0
    7.9371    3.0177   -1.1033 H   0  0  0  0  0  0  0  0  0  0  0  0
    6.4680    3.7363   -0.4000 H   0  0  0  0  0  0  0  0  0  0  0  0
  1  2  1  0
  2  3  1  0
  3  4  1  0
  4  5  1  0
  5  6  1  0
  6  7  1  0
  4  8  1  0
  8  9  1  0
  9 10  1  0
 10 11  1  0
 11 12  2  0
 11 13  2  0
 11 14  1  0
 14 15  2  0
 15 16  1  0
 16 17  2  0
 17 18  1  0
 18 19  2  0
 18 20  1  0
 20 21  1  0
 21 22  1  0
 22 23  1  0
 23 24  2  0
 23 25  1  0
 25 26  1  0
 26 27  1  0
 27 28  1  0
 19 14  1  0
 28 25  1  0
 22 17  1  0
  1 29  1  0
  1 30  1  0
  1 31  1  0
  2 32  1  0
  2 33  1  0
  3 34  1  0
  3 35  1  0
  5 36  1  0
  5 37  1  0
  6 38  1  0
  6 39  1  0
  7 40  1  0
  7 41  1  0
  7 42  1  0
  8 43  1  0
  8 44  1  0
  9 45  1  0
  9 46  1  0
 10 47  1  0
 15 48  1  0
 16 49  1  0
 19 50  1  0
 20 51  1  0
 20 52  1  0
 21 53  1  0
 21 54  1  0
 25 55  1  0
 26 56  1  0
 26 57  1  0
 27 58  1  0
 27 59  1  0
 28 60  1  0
 28 61  1  0
M  END
$$$$
