
     RDKit          3D

 49 52  0  0  0  0  0  0  0  0999 V2000
   -0.5866    0.0831    3.5395 N   0  0  0  0  0  0  0  0  0  0  0  0
   -0.9153    0.9377    2.5548 C   0  0  0  0  0  0  0  0  0  0  0  0
   -1.5899    2.0269    2.7774 N   0  0  0  0  0  0  0  0  0  0  0  0
   -1.7529    2.6454    1.4309 C   0  0  0  0  0  0  0  0  0  0  0  0
   -1.0045    1.7469    0.4224 C   0  0  0  0  0  0  0  0  0  0  0  0
   -1.8500    1.2985   -0.7829 C   0  0  0  0  0  0  0  0  0  0  0  0
   -3.1922    0.6544   -0.5113 C   0  0  0  0  0  0  0  0  0  0  0  0
   -4.3781    1.3055   -0.8884 C   0  0  0  0  0  0  0  0  0  0  0  0
   -5.6231    0.7139   -0.6586 C   0  0  0  0  0  0  0  0  0  0  0  0
   -5.6848   -0.5367   -0.0548 C   0  0  0  0  0  0  0  0  0  0  0  0
   -6.8778   -1.1515    0.1868 O   0  0  0  0  0  0  0  0  0  0  0  0
   -4.5249   -1.2007    0.3199 C   0  0  0  0  0  0  0  0  0  0  0  0
   -3.2817   -0.6078    0.0908 C   0  0  0  0  0  0  0  0  0  0  0  0
   -0.5512    0.6560    1.2789 N   0  0  0  0  0  0  0  0  0  0  0  0
    0.4948   -0.2497    0.8382 C   0  0  0  0  0  0  0  0  0  0  0  0
    1.8890    0.3524    1.0542 C   0  0  0  0  0  0  0  0  0  0  0  0
    2.9839   -0.5734    0.5622 C   0  0  0  0  0  0  0  0  0  0  0  0
    3.5997   -1.4153    1.5057 C   0  0  0  0  0  0  0  0  0  0  0  0
    4.5943   -2.3070    1.1218 C   0  0  0  0  0  0  0  0  0  0  0  0
    4.9863   -2.3751   -0.2115 C   0  0  0  0  0  0  0  0  0  0  0  0
    4.3912   -1.5546   -1.1803 C   0  0  0  0  0  0  0  0  0  0  0  0
    4.8008   -1.6444   -2.5210 C   0  0  0  0  0  0  0  0  0  0  0  0
    4.2246   -0.8422   -3.5036 C   0  0  0  0  0  0  0  0  0  0  0  0
    3.2303    0.0616   -3.1572 C   0  0  0  0  0  0  0  0  0  0  0  0
    2.8124    0.1628   -1.8278 C   0  0  0  0  0  0  0  0  0  0  0  0
    3.3760   -0.6373   -0.8059 C   0  0  0  0  0  0  0  0  0  0  0  0
    0.3584   -0.2647    3.5125 H   0  0  0  0  0  0  0  0  0  0  0  0
   -0.8145    0.4830    4.4435 H   0  0  0  0  0  0  0  0  0  0  0  0
   -1.3133    3.6492    1.4452 H   0  0  0  0  0  0  0  0  0  0  0  0
   -2.8186    2.7545    1.2111 H   0  0  0  0  0  0  0  0  0  0  0  0
   -0.1336    2.2969    0.0441 H   0  0  0  0  0  0  0  0  0  0  0  0
   -2.0110    2.1815   -1.4162 H   0  0  0  0  0  0  0  0  0  0  0  0
   -1.2711    0.6048   -1.4059 H   0  0  0  0  0  0  0  0  0  0  0  0
   -4.3426    2.2833   -1.3632 H   0  0  0  0  0  0  0  0  0  0  0  0
   -6.5240    1.2399   -0.9568 H   0  0  0  0  0  0  0  0  0  0  0  0
   -7.5919   -0.5484   -0.0750 H   0  0  0  0  0  0  0  0  0  0  0  0
   -4.5843   -2.1755    0.7951 H   0  0  0  0  0  0  0  0  0  0  0  0
   -2.3850   -1.1406    0.3963 H   0  0  0  0  0  0  0  0  0  0  0  0
    0.4091   -1.2045    1.3721 H   0  0  0  0  0  0  0  0  0  0  0  0
    0.3479   -0.4966   -0.2192 H   0  0  0  0  0  0  0  0  0  0  0  0
    2.0430    0.5636    2.1204 H   0  0  0  0  0  0  0  0  0  0  0  0
    1.9813    1.3308    0.5690 H   0  0  0  0  0  0  0  0  0  0  0  0
    3.3054   -1.3802    2.5527 H   0  0  0  0  0  0  0  0  0  0  0  0
    5.0645   -2.9515    1.8599 H   0  0  0  0  0  0  0  0  0  0  0  0
    5.7659   -3.0807   -0.4912 H   0  0  0  0  0  0  0  0  0  0  0  0
    5.5791   -2.3469   -2.8121 H   0  0  0  0  0  0  0  0  0  0  0  0
    4.5537   -0.9247   -4.5359 H   0  0  0  0  0  0  0  0  0  0  0  0
    2.7781    0.6914   -3.9189 H   0  0  0  0  0  0  0  0  0  0  0  0
    2.0334    0.8862   -1.6045 H   0  0  0  0  0  0  0  0  0  0  0  0
  1  2  1  0
  2  3  2  0
  3  4  1  0
  4  5  1  0
  5  6  1  0
  6  7  1  0
  7  8  2  0
  8  9  1  0
  9 10  2  0
 10 11  1  0
 10 12  1  0
 12 13  2  0
  5 14  1  0
 14 15  1  0
 15 16  1  0
 16 17  1  0
 17 18  2  0
 18 19  1  0
 19 20  2  0
 20 21  1  0
 21 22  2  0
 22 23  1  0
 23 24  2  0
 24 25  1  0
 25 26  2  0
 14  2  1  0
 26 17  1  0
 13  7  1  0
 26 21  1  0
  1 27  1  0
  1 28  1  0
  4 29  1  0
  4 30  1  0
  5 31  1  0
  6 32  1  0
  6 33  1  0
  8 34  1  0
  9 35  1  0
 11 36  1  0
 12 37  1  0
 13 38  1  0
 15 39  1  0
 15 40  1  0
 16 41  1  0
 16 42  1  0
 18 43  1  0
 19 44  1  0
 20 45  1  0
 22 46  1  0
 23 47  1  0
 24 48  1  0
 25 49  1  0
M  END
$$$$
