
     RDKit          3D

 46 48  0  0  0  0  0  0  0  0999 V2000
    5.8972    2.0202    2.2897 C   0  0  0  0  0  0  0  0  0  0  0  0
    4.5908    1.5031    1.7181 C   0  0  0  0  0  0  0  0  0  0  0  0
    4.8970    0.4794    0.7626 O   0  0  0  0  0  0  0  0  0  0  0  0
    3.8158   -0.0498    0.1383 C   0  0  0  0  0  0  0  0  0  0  0  0
    2.6550    0.2831    0.3347 O   0  0  0  0  0  0  0  0  0  0  0  0
    4.2158   -1.1103   -0.8383 C   0  0  0  0  0  0  0  0  0  0  0  0
    5.5787   -1.4110   -1.0268 C   0  0  0  0  0  0  0  0  0  0  0  0
    5.9702   -2.3932   -1.9353 C   0  0  0  0  0  0  0  0  0  0  0  0
    5.0070   -3.0825   -2.6621 C   0  0  0  0  0  0  0  0  0  0  0  0
    3.6502   -2.7954   -2.4845 C   0  0  0  0  0  0  0  0  0  0  0  0
    3.2311   -1.8136   -1.5768 C   0  0  0  0  0  0  0  0  0  0  0  0
    1.8603   -1.5045   -1.3889 N   0  0  0  0  0  0  0  0  0  0  0  0
    0.7469   -2.1072   -1.9500 C   0  0  0  0  0  0  0  0  0  0  0  0
    0.7488   -3.0575   -2.7277 O   0  0  0  0  0  0  0  0  0  0  0  0
   -0.5554   -1.4426   -1.5312 C   0  0  0  0  0  0  0  0  0  0  0  0
   -0.8812   -1.7822    0.2301 S   0  0  0  0  0  0  0  0  0  0  0  0
   -2.3616   -0.8262    0.4626 C   0  0  0  0  0  0  0  0  0  0  0  0
   -2.9186   -0.7166    1.7242 C   0  0  0  0  0  0  0  0  0  0  0  0
   -4.0753    0.0471    1.8922 C   0  0  0  0  0  0  0  0  0  0  0  0
   -4.6426    0.6825    0.7931 C   0  0  0  0  0  0  0  0  0  0  0  0
   -5.8498    1.5189    0.8545 C   0  0  0  0  0  0  0  0  0  0  0  0
   -6.7078    1.6598   -0.2484 C   0  0  0  0  0  0  0  0  0  0  0  0
   -7.8454    2.4623   -0.1706 C   0  0  0  0  0  0  0  0  0  0  0  0
   -8.1063    3.1152    1.0202 C   0  0  0  0  0  0  0  0  0  0  0  0
   -7.3175    3.0194    2.1095 N   0  0  0  0  0  0  0  0  0  0  0  0
   -6.2155    2.2357    1.9959 C   0  0  0  0  0  0  0  0  0  0  0  0
   -4.0744    0.5410   -0.4267 N   0  0  0  0  0  0  0  0  0  0  0  0
   -2.9314   -0.2141   -0.5919 N   0  0  0  0  0  0  0  0  0  0  0  0
    6.4570    1.2085    2.7671 H   0  0  0  0  0  0  0  0  0  0  0  0
    6.5335    2.4211    1.4928 H   0  0  0  0  0  0  0  0  0  0  0  0
    5.7168    2.8074    3.0278 H   0  0  0  0  0  0  0  0  0  0  0  0
    4.0526    2.3216    1.2263 H   0  0  0  0  0  0  0  0  0  0  0  0
    3.9742    1.0840    2.5213 H   0  0  0  0  0  0  0  0  0  0  0  0
    6.3528   -0.8858   -0.4715 H   0  0  0  0  0  0  0  0  0  0  0  0
    7.0245   -2.6190   -2.0758 H   0  0  0  0  0  0  0  0  0  0  0  0
    5.3049   -3.8493   -3.3744 H   0  0  0  0  0  0  0  0  0  0  0  0
    2.9413   -3.3618   -3.0811 H   0  0  0  0  0  0  0  0  0  0  0  0
    1.6712   -0.7732   -0.6985 H   0  0  0  0  0  0  0  0  0  0  0  0
   -0.4745   -0.3652   -1.7133 H   0  0  0  0  0  0  0  0  0  0  0  0
   -1.3663   -1.8440   -2.1478 H   0  0  0  0  0  0  0  0  0  0  0  0
   -2.4664   -1.2129    2.5782 H   0  0  0  0  0  0  0  0  0  0  0  0
   -4.5195    0.1179    2.8798 H   0  0  0  0  0  0  0  0  0  0  0  0
   -6.4923    1.1412   -1.1816 H   0  0  0  0  0  0  0  0  0  0  0  0
   -8.5070    2.5748   -1.0218 H   0  0  0  0  0  0  0  0  0  0  0  0
   -8.9784    3.7525    1.1318 H   0  0  0  0  0  0  0  0  0  0  0  0
   -5.6065    2.2211    2.8961 H   0  0  0  0  0  0  0  0  0  0  0  0
  1  2  1  0
  2  3  1  0
  3  4  1  0
  4  5  2  0
  4  6  1  0
  6  7  2  0
  7  8  1  0
  8  9  2  0
  9 10  1  0
 10 11  2  0
 11 12  1  0
 12 13  1  0
 13 14  2  0
 13 15  1  0
 15 16  1  0
 16 17  1  0
 17 18  2  0
 18 19  1  0
 19 20  2  0
 20 21  1  0
 21 22  2  0
 22 23  1  0
 23 24  2  0
 24 25  1  0
 25 26  2  0
 20 27  1  0
 27 28  2  0
 11  6  1  0
 28 17  1  0
 26 21  1  0
  1 29  1  0
  1 30  1  0
  1 31  1  0
  2 32  1  0
  2 33  1  0
  7 34  1  0
  8 35  1  0
  9 36  1  0
 10 37  1  0
 12 38  1  0
 15 39  1  0
 15 40  1  0
 18 41  1  0
 19 42  1  0
 22 43  1  0
 23 44  1  0
 24 45  1  0
 26 46  1  0
M  END
$$$$
