
     RDKit          3D

 53 57  0  0  0  0  0  0  0  0999 V2000
    5.1045    0.3129   -0.0479 C   0  0  0  0  0  0  0  0  0  0  0  0
    4.5386    0.0899    1.3261 C   0  0  0  0  0  0  0  0  0  0  0  0
    5.2931    0.5070    2.4362 C   0  0  0  0  0  0  0  0  0  0  0  0
    4.8254    0.3188    3.7381 C   0  0  0  0  0  0  0  0  0  0  0  0
    3.5939   -0.2889    3.9556 C   0  0  0  0  0  0  0  0  0  0  0  0
    2.8229   -0.7020    2.8700 C   0  0  0  0  0  0  0  0  0  0  0  0
    3.2818   -0.5036    1.5580 C   0  0  0  0  0  0  0  0  0  0  0  0
    2.2388   -1.0358    0.2112 S   0  0  0  0  0  6  0  0  0  0  0  0
    2.5029   -2.4490    0.0313 O   0  0  0  0  0  0  0  0  0  0  0  0
    2.3625   -0.1202   -0.9047 O   0  0  0  0  0  0  0  0  0  0  0  0
    0.6695   -0.9393    0.7976 N   0  0  0  0  0  0  0  0  0  0  0  0
    0.0567    0.3342    0.6769 C   0  0  0  0  0  0  0  0  0  0  0  0
    0.6101    1.3248    1.3969 N   0  0  0  0  0  0  0  0  0  0  0  0
   -0.0032    2.5158    1.3064 C   0  0  0  0  0  0  0  0  0  0  0  0
    0.5155    3.5990    2.0032 C   0  0  0  0  0  0  0  0  0  0  0  0
   -0.0867    4.8563    1.9449 C   0  0  0  0  0  0  0  0  0  0  0  0
   -1.2323    5.0329    1.1796 C   0  0  0  0  0  0  0  0  0  0  0  0
   -1.7633    3.9526    0.4738 C   0  0  0  0  0  0  0  0  0  0  0  0
   -1.1714    2.6963    0.5187 C   0  0  0  0  0  0  0  0  0  0  0  0
   -1.7200    1.6829   -0.1836 N   0  0  0  0  0  0  0  0  0  0  0  0
   -1.0990    0.4858   -0.1189 C   0  0  0  0  0  0  0  0  0  0  0  0
   -1.5982   -0.6366   -0.8358 N   0  0  0  0  0  0  0  0  0  0  0  0
   -1.0137   -0.6594   -2.1917 C   0  0  0  0  0  0  0  0  0  0  0  0
   -1.3254   -2.0133   -2.8402 C   0  0  0  0  0  0  0  0  0  0  0  0
   -2.7735   -2.4138   -2.6799 C   0  0  0  0  0  0  0  0  0  0  0  0
   -3.2937   -3.4664   -3.4453 C   0  0  0  0  0  0  0  0  0  0  0  0
   -4.6158   -3.8759   -3.2768 C   0  0  0  0  0  0  0  0  0  0  0  0
   -5.4287   -3.2408   -2.3412 C   0  0  0  0  0  0  0  0  0  0  0  0
   -4.9198   -2.1965   -1.5689 C   0  0  0  0  0  0  0  0  0  0  0  0
   -3.5874   -1.7815   -1.7188 C   0  0  0  0  0  0  0  0  0  0  0  0
   -3.0706   -0.6138   -0.8972 C   0  0  0  0  0  0  0  0  0  0  0  0
    5.0061   -0.5867   -0.6636 H   0  0  0  0  0  0  0  0  0  0  0  0
    4.6045    1.1578   -0.5313 H   0  0  0  0  0  0  0  0  0  0  0  0
    6.1752    0.5424   -0.0039 H   0  0  0  0  0  0  0  0  0  0  0  0
    6.2639    0.9795    2.2934 H   0  0  0  0  0  0  0  0  0  0  0  0
    5.4274    0.6453    4.5826 H   0  0  0  0  0  0  0  0  0  0  0  0
    3.2302   -0.4382    4.9691 H   0  0  0  0  0  0  0  0  0  0  0  0
    1.8614   -1.1732    3.0584 H   0  0  0  0  0  0  0  0  0  0  0  0
    0.0929   -1.6908    0.4143 H   0  0  0  0  0  0  0  0  0  0  0  0
    1.4113    3.4584    2.6031 H   0  0  0  0  0  0  0  0  0  0  0  0
    0.3383    5.6901    2.4981 H   0  0  0  0  0  0  0  0  0  0  0  0
   -1.7123    6.0069    1.1275 H   0  0  0  0  0  0  0  0  0  0  0  0
   -2.6591    4.0928   -0.1271 H   0  0  0  0  0  0  0  0  0  0  0  0
   -1.4266    0.1554   -2.8026 H   0  0  0  0  0  0  0  0  0  0  0  0
    0.0739   -0.5318   -2.1703 H   0  0  0  0  0  0  0  0  0  0  0  0
   -0.7077   -2.7893   -2.3689 H   0  0  0  0  0  0  0  0  0  0  0  0
   -1.0608   -1.9705   -3.9037 H   0  0  0  0  0  0  0  0  0  0  0  0
   -2.6676   -3.9763   -4.1735 H   0  0  0  0  0  0  0  0  0  0  0  0
   -5.0117   -4.6938   -3.8733 H   0  0  0  0  0  0  0  0  0  0  0  0
   -6.4595   -3.5602   -2.2122 H   0  0  0  0  0  0  0  0  0  0  0  0
   -5.5689   -1.7067   -0.8463 H   0  0  0  0  0  0  0  0  0  0  0  0
   -3.4496    0.3051   -1.3633 H   0  0  0  0  0  0  0  0  0  0  0  0
   -3.4747   -0.6886    0.1199 H   0  0  0  0  0  0  0  0  0  0  0  0
  1  2  1  0
  2  3  2  0
  3  4  1  0
  4  5  2  0
  5  6  1  0
  6  7  2  0
  7  8  1  0
  8  9  2  0
  8 10  2  0
  8 11  1  0
 11 12  1  0
 12 13  2  0
 13 14  1  0
 14 15  2  0
 15 16  1  0
 16 17  2  0
 17 18  1  0
 18 19  2  0
 19 20  1  0
 20 21  2  0
 21 22  1  0
 22 23  1  0
 23 24  1  0
 24 25  1  0
 25 26  2  0
 26 27  1  0
 27 28  2  0
 28 29  1  0
 29 30  2  0
 30 31  1  0
  7  2  1  0
 21 12  1  0
 31 22  1  0
 19 14  1  0
 30 25  1  0
  1 32  1  0
  1 33  1  0
  1 34  1  0
  3 35  1  0
  4 36  1  0
  5 37  1  0
  6 38  1  0
 11 39  1  0
 15 40  1  0
 16 41  1  0
 17 42  1  0
 18 43  1  0
 23 44  1  0
 23 45  1  0
 24 46  1  0
 24 47  1  0
 26 48  1  0
 27 49  1  0
 28 50  1  0
 29 51  1  0
 31 52  1  0
 31 53  1  0
M  END
$$$$
