
     RDKit          3D

 54 58  0  0  0  0  0  0  0  0999 V2000
   -4.6406   -4.0245    1.9373 C   0  0  0  0  0  0  0  0  0  0  0  0
   -3.5130   -3.2981    1.2176 C   0  0  0  0  0  0  0  0  0  0  0  0
   -3.9863   -2.0588    0.4319 C   0  0  0  0  0  0  0  0  0  0  0  0
   -4.9282   -2.4133   -0.7239 C   0  0  0  0  0  0  0  0  0  0  0  0
   -2.8360   -1.2710   -0.0460 N   0  0  0  0  0  0  0  0  0  0  0  0
   -1.9472   -1.8139   -0.9706 C   0  0  0  0  0  0  0  0  0  0  0  0
   -0.8951   -1.2323   -1.4627 N   0  0  0  0  0  0  0  0  0  0  0  0
   -0.7033    0.0168   -0.9799 C   0  0  0  0  0  0  0  0  0  0  0  0
   -1.4906    0.6880   -0.0679 C   0  0  0  0  0  0  0  0  0  0  0  0
   -2.6537    0.0261    0.4673 C   0  0  0  0  0  0  0  0  0  0  0  0
   -3.4036    0.5473    1.2866 O   0  0  0  0  0  0  0  0  0  0  0  0
   -0.9251    1.9618    0.1303 C   0  0  0  0  0  0  0  0  0  0  0  0
   -1.3060    3.0055    0.9068 N   0  0  0  0  0  0  0  0  0  0  0  0
   -0.5082    4.0818    0.8289 C   0  0  0  0  0  0  0  0  0  0  0  0
   -0.8279    5.1926    1.5989 C   0  0  0  0  0  0  0  0  0  0  0  0
   -0.0491    6.3503    1.5723 C   0  0  0  0  0  0  0  0  0  0  0  0
    1.0737    6.3998    0.7586 C   0  0  0  0  0  0  0  0  0  0  0  0
    1.4074    5.2912   -0.0211 C   0  0  0  0  0  0  0  0  0  0  0  0
    0.6421    4.1319   -0.0050 C   0  0  0  0  0  0  0  0  0  0  0  0
    1.0263    3.1048   -0.7830 N   0  0  0  0  0  0  0  0  0  0  0  0
    0.2095    2.0364   -0.6747 C   0  0  0  0  0  0  0  0  0  0  0  0
    0.3436    0.8348   -1.3276 N   0  0  0  0  0  0  0  0  0  0  0  0
    1.4042    0.5126   -2.2660 C   0  0  0  0  0  0  0  0  0  0  0  0
    2.5812   -0.1280   -1.5725 C   0  0  0  0  0  0  0  0  0  0  0  0
    3.6032    0.6590   -1.0279 C   0  0  0  0  0  0  0  0  0  0  0  0
    4.6842    0.0609   -0.3762 C   0  0  0  0  0  0  0  0  0  0  0  0
    4.7630   -1.3275   -0.2510 C   0  0  0  0  0  0  0  0  0  0  0  0
    5.8725   -1.7805    0.4081 O   0  0  0  0  0  0  0  0  0  0  0  0
    5.9880   -3.1872    0.5785 C   0  0  0  0  0  0  0  0  0  0  0  0
    3.7442   -2.1171   -0.7833 C   0  0  0  0  0  0  0  0  0  0  0  0
    2.6598   -1.5207   -1.4371 C   0  0  0  0  0  0  0  0  0  0  0  0
   -4.2332   -4.8361    2.5490 H   0  0  0  0  0  0  0  0  0  0  0  0
   -5.1877   -3.3452    2.5984 H   0  0  0  0  0  0  0  0  0  0  0  0
   -5.3484   -4.4669    1.2304 H   0  0  0  0  0  0  0  0  0  0  0  0
   -3.0028   -4.0061    0.5541 H   0  0  0  0  0  0  0  0  0  0  0  0
   -2.7728   -2.9851    1.9651 H   0  0  0  0  0  0  0  0  0  0  0  0
   -4.5664   -1.4383    1.1251 H   0  0  0  0  0  0  0  0  0  0  0  0
   -5.1787   -1.5187   -1.3049 H   0  0  0  0  0  0  0  0  0  0  0  0
   -4.4796   -3.1400   -1.4087 H   0  0  0  0  0  0  0  0  0  0  0  0
   -5.8661   -2.8380   -0.3530 H   0  0  0  0  0  0  0  0  0  0  0  0
   -2.1927   -2.8369   -1.2943 H   0  0  0  0  0  0  0  0  0  0  0  0
   -1.7083    5.1531    2.2370 H   0  0  0  0  0  0  0  0  0  0  0  0
   -0.3228    7.2046    2.1862 H   0  0  0  0  0  0  0  0  0  0  0  0
    1.6908    7.2942    0.7272 H   0  0  0  0  0  0  0  0  0  0  0  0
    2.2880    5.3320   -0.6578 H   0  0  0  0  0  0  0  0  0  0  0  0
    0.9948   -0.1494   -3.0380 H   0  0  0  0  0  0  0  0  0  0  0  0
    1.7067    1.4333   -2.7788 H   0  0  0  0  0  0  0  0  0  0  0  0
    3.5610    1.7444   -1.0994 H   0  0  0  0  0  0  0  0  0  0  0  0
    5.4701    0.6845    0.0429 H   0  0  0  0  0  0  0  0  0  0  0  0
    5.1607   -3.5820    1.1775 H   0  0  0  0  0  0  0  0  0  0  0  0
    6.9163   -3.3827    1.1240 H   0  0  0  0  0  0  0  0  0  0  0  0
    6.0563   -3.6977   -0.3878 H   0  0  0  0  0  0  0  0  0  0  0  0
    3.7580   -3.1987   -0.7051 H   0  0  0  0  0  0  0  0  0  0  0  0
    1.8682   -2.1532   -1.8356 H   0  0  0  0  0  0  0  0  0  0  0  0
  1  2  1  0
  2  3  1  0
  3  4  1  0
  3  5  1  0
  5  6  1  0
  6  7  2  0
  7  8  1  0
  8  9  2  0
  9 10  1  0
 10 11  2  0
  9 12  1  0
 12 13  2  0
 13 14  1  0
 14 15  2  0
 15 16  1  0
 16 17  2  0
 17 18  1  0
 18 19  2  0
 19 20  1  0
 20 21  2  0
 21 22  1  0
 22 23  1  0
 23 24  1  0
 24 25  2  0
 25 26  1  0
 26 27  2  0
 27 28  1  0
 28 29  1  0
 27 30  1  0
 30 31  2  0
 10  5  1  0
 21 12  1  0
 31 24  1  0
 22  8  1  0
 19 14  1  0
  1 32  1  0
  1 33  1  0
  1 34  1  0
  2 35  1  0
  2 36  1  0
  3 37  1  0
  4 38  1  0
  4 39  1  0
  4 40  1  0
  6 41  1  0
 15 42  1  0
 16 43  1  0
 17 44  1  0
 18 45  1  0
 23 46  1  0
 23 47  1  0
 25 48  1  0
 26 49  1  0
 29 50  1  0
 29 51  1  0
 29 52  1  0
 30 53  1  0
 31 54  1  0
M  END
$$$$
