
     RDKit          3D

 47 50  0  0  0  0  0  0  0  0999 V2000
   -2.4467    3.0158    2.0209 C   0  0  0  0  0  0  0  0  0  0  0  0
   -2.3673    1.8442    1.1576 N   0  0  0  0  0  0  0  0  0  0  0  0
   -3.4115    1.8616    0.1184 C   0  0  0  0  0  0  0  0  0  0  0  0
   -3.6569    0.4873   -0.5641 C   0  0  0  0  0  0  0  0  0  0  0  0
   -2.5750   -0.5077   -0.4126 N   0  0  0  0  0  0  0  0  0  0  0  0
   -1.3719   -0.0683   -1.1430 C   0  0  0  0  0  0  0  0  0  0  0  0
   -0.3634   -1.1812   -1.3271 C   0  0  0  0  0  0  0  0  0  0  0  0
   -0.6533   -2.2495   -2.1777 C   0  0  0  0  0  0  0  0  0  0  0  0
    0.2736   -3.2790   -2.3600 C   0  0  0  0  0  0  0  0  0  0  0  0
   -0.1803   -4.5562   -3.4416 Cl  0  0  0  0  0  0  0  0  0  0  0  0
    1.5213   -3.2781   -1.6855 C   0  0  0  0  0  0  0  0  0  0  0  0
    2.4987   -4.2903   -1.8203 C   0  0  0  0  0  0  0  0  0  0  0  0
    3.6945   -4.2241   -1.1157 C   0  0  0  0  0  0  0  0  0  0  0  0
    3.8893   -3.1449   -0.2828 C   0  0  0  0  0  0  0  0  0  0  0  0
    2.9867   -2.1563   -0.1195 N   0  0  0  0  0  0  0  0  0  0  0  0
    1.8254   -2.2118   -0.8128 C   0  0  0  0  0  0  0  0  0  0  0  0
    0.8771   -1.1898   -0.6706 C   0  0  0  0  0  0  0  0  0  0  0  0
    1.1567   -0.1570    0.2447 O   0  0  0  0  0  0  0  0  0  0  0  0
    2.0048    0.8176   -0.2710 C   0  0  0  0  0  0  0  0  0  0  0  0
    2.3506    0.8974   -1.4471 O   0  0  0  0  0  0  0  0  0  0  0  0
    2.3900    1.7721    0.7584 C   0  0  0  0  0  0  0  0  0  0  0  0
    3.2167    2.8702    0.5911 C   0  0  0  0  0  0  0  0  0  0  0  0
    3.3993    3.6124    1.7930 C   0  0  0  0  0  0  0  0  0  0  0  0
    2.7060    3.0603    2.8456 C   0  0  0  0  0  0  0  0  0  0  0  0
    1.8443    1.6600    2.3806 S   0  0  0  0  0  0  0  0  0  0  0  0
   -2.3098   -0.6806    1.0361 C   0  0  0  0  0  0  0  0  0  0  0  0
   -2.4193    0.5922    1.9232 C   0  0  0  0  0  0  0  0  0  0  0  0
   -1.6205    3.0205    2.7402 H   0  0  0  0  0  0  0  0  0  0  0  0
   -3.3890    3.0559    2.5789 H   0  0  0  0  0  0  0  0  0  0  0  0
   -2.3561    3.9343    1.4307 H   0  0  0  0  0  0  0  0  0  0  0  0
   -3.1062    2.5824   -0.6497 H   0  0  0  0  0  0  0  0  0  0  0  0
   -4.3692    2.2084    0.5283 H   0  0  0  0  0  0  0  0  0  0  0  0
   -3.8894    0.6384   -1.6257 H   0  0  0  0  0  0  0  0  0  0  0  0
   -4.5666    0.0484   -0.1314 H   0  0  0  0  0  0  0  0  0  0  0  0
   -0.9016    0.8128   -0.6957 H   0  0  0  0  0  0  0  0  0  0  0  0
   -1.6580    0.2476   -2.1563 H   0  0  0  0  0  0  0  0  0  0  0  0
   -1.6113   -2.2784   -2.6939 H   0  0  0  0  0  0  0  0  0  0  0  0
    2.3350   -5.1409   -2.4776 H   0  0  0  0  0  0  0  0  0  0  0  0
    4.4494   -4.9954   -1.2159 H   0  0  0  0  0  0  0  0  0  0  0  0
    4.8031   -3.0378    0.2946 H   0  0  0  0  0  0  0  0  0  0  0  0
    3.6706    3.1234   -0.3609 H   0  0  0  0  0  0  0  0  0  0  0  0
    4.0084    4.5039    1.8800 H   0  0  0  0  0  0  0  0  0  0  0  0
    2.6635    3.4103    3.8679 H   0  0  0  0  0  0  0  0  0  0  0  0
   -1.3379   -1.1573    1.2033 H   0  0  0  0  0  0  0  0  0  0  0  0
   -3.0428   -1.4063    1.4130 H   0  0  0  0  0  0  0  0  0  0  0  0
   -1.6017    0.5696    2.6538 H   0  0  0  0  0  0  0  0  0  0  0  0
   -3.3593    0.5440    2.4892 H   0  0  0  0  0  0  0  0  0  0  0  0
  1  2  1  0
  2  3  1  0
  3  4  1  0
  4  5  1  0
  5  6  1  0
  6  7  1  0
  7  8  2  0
  8  9  1  0
  9 10  1  0
  9 11  2  0
 11 12  1  0
 12 13  2  0
 13 14  1  0
 14 15  2  0
 15 16  1  0
 16 17  2  0
 17 18  1  0
 18 19  1  0
 19 20  2  0
 19 21  1  0
 21 22  2  0
 22 23  1  0
 23 24  2  0
 24 25  1  0
  5 26  1  0
 26 27  1  0
 27  2  1  0
 17  7  1  0
 25 21  1  0
 16 11  1  0
  1 28  1  0
  1 29  1  0
  1 30  1  0
  3 31  1  0
  3 32  1  0
  4 33  1  0
  4 34  1  0
  6 35  1  0
  6 36  1  0
  8 37  1  0
 12 38  1  0
 13 39  1  0
 14 40  1  0
 22 41  1  0
 23 42  1  0
 24 43  1  0
 26 44  1  0
 26 45  1  0
 27 46  1  0
 27 47  1  0
M  END
$$$$
