
     RDKit          3D

 52 55  0  0  0  0  0  0  0  0999 V2000
   -6.6062    0.4365   -2.1557 C   0  0  0  0  0  0  0  0  0  0  0  0
   -5.4349   -0.1057   -2.7525 O   0  0  0  0  0  0  0  0  0  0  0  0
   -4.5066   -0.6468   -1.9074 C   0  0  0  0  0  0  0  0  0  0  0  0
   -3.4022   -1.2165   -2.5461 C   0  0  0  0  0  0  0  0  0  0  0  0
   -2.3710   -1.7965   -1.8041 C   0  0  0  0  0  0  0  0  0  0  0  0
   -2.4363   -1.8108   -0.4082 C   0  0  0  0  0  0  0  0  0  0  0  0
   -1.3349   -2.3909    0.3633 C   0  0  0  0  0  0  0  0  0  0  0  0
   -0.3402   -1.6873    0.9230 C   0  0  0  0  0  0  0  0  0  0  0  0
   -0.1461    0.0180    0.9125 S   0  0  0  0  0  0  0  0  0  0  0  0
    1.5213   -0.1179    1.4414 C   0  0  0  0  0  0  0  0  0  0  0  0
    2.4074    0.8865    1.2479 C   0  0  0  0  0  0  0  0  0  0  0  0
    3.8127    0.7859    1.4394 C   0  0  0  0  0  0  0  0  0  0  0  0
    4.9664    0.7110    1.5396 N   0  0  0  0  0  0  0  0  0  0  0  0
    1.9838    2.2154    0.7261 C   0  0  0  0  0  0  0  0  0  0  0  0
    2.0595    3.2168    1.4293 O   0  0  0  0  0  0  0  0  0  0  0  0
    1.5521    2.2252   -0.5760 N   0  0  0  0  0  0  0  0  0  0  0  0
    0.9686    3.4203   -1.1431 C   0  0  0  0  0  0  0  0  0  0  0  0
    0.5352    3.1148   -2.5261 C   0  0  0  0  0  0  0  0  0  0  0  0
    0.9486    3.5372   -3.7727 C   0  0  0  0  0  0  0  0  0  0  0  0
    0.1331    2.8617   -4.7135 C   0  0  0  0  0  0  0  0  0  0  0  0
   -0.7260    2.0756   -3.9825 C   0  0  0  0  0  0  0  0  0  0  0  0
   -0.4827    2.2133   -2.6546 O   0  0  0  0  0  0  0  0  0  0  0  0
    1.7716   -1.4046    1.9389 N   0  0  0  0  0  0  0  0  0  0  0  0
    2.8286   -1.7823    2.8278 C   0  0  0  0  0  0  0  0  0  0  0  0
    3.4801   -3.0156    2.6915 C   0  0  0  0  0  0  0  0  0  0  0  0
    4.5008   -3.3859    3.5714 C   0  0  0  0  0  0  0  0  0  0  0  0
    4.8726   -2.5348    4.6085 C   0  0  0  0  0  0  0  0  0  0  0  0
    4.2187   -1.3168    4.7724 C   0  0  0  0  0  0  0  0  0  0  0  0
    3.1986   -0.9447    3.8924 C   0  0  0  0  0  0  0  0  0  0  0  0
    0.7745   -2.3566    1.6434 C   0  0  0  0  0  0  0  0  0  0  0  0
    0.7483   -3.5479    1.9238 O   0  0  0  0  0  0  0  0  0  0  0  0
   -3.5428   -1.2471    0.2338 C   0  0  0  0  0  0  0  0  0  0  0  0
   -4.5747   -0.6661   -0.5131 C   0  0  0  0  0  0  0  0  0  0  0  0
   -7.2494    0.8061   -2.9604 H   0  0  0  0  0  0  0  0  0  0  0  0
   -7.1643   -0.3309   -1.6092 H   0  0  0  0  0  0  0  0  0  0  0  0
   -6.3639    1.2849   -1.5068 H   0  0  0  0  0  0  0  0  0  0  0  0
   -3.3441   -1.2052   -3.6318 H   0  0  0  0  0  0  0  0  0  0  0  0
   -1.5201   -2.2259   -2.3247 H   0  0  0  0  0  0  0  0  0  0  0  0
   -1.3455   -3.4774    0.4330 H   0  0  0  0  0  0  0  0  0  0  0  0
    1.3467    1.3532   -1.0494 H   0  0  0  0  0  0  0  0  0  0  0  0
    1.7148    4.2214   -1.1193 H   0  0  0  0  0  0  0  0  0  0  0  0
    0.1160    3.7236   -0.5259 H   0  0  0  0  0  0  0  0  0  0  0  0
    1.7402    4.2446   -3.9764 H   0  0  0  0  0  0  0  0  0  0  0  0
    0.1622    2.9437   -5.7915 H   0  0  0  0  0  0  0  0  0  0  0  0
   -1.5273    1.3959   -4.2417 H   0  0  0  0  0  0  0  0  0  0  0  0
    3.2206   -3.6998    1.8864 H   0  0  0  0  0  0  0  0  0  0  0  0
    5.0052   -4.3406    3.4438 H   0  0  0  0  0  0  0  0  0  0  0  0
    5.6684   -2.8226    5.2908 H   0  0  0  0  0  0  0  0  0  0  0  0
    4.4990   -0.6567    5.5897 H   0  0  0  0  0  0  0  0  0  0  0  0
    2.6829   -0.0057    4.0777 H   0  0  0  0  0  0  0  0  0  0  0  0
   -3.6092   -1.2475    1.3197 H   0  0  0  0  0  0  0  0  0  0  0  0
   -5.4100   -0.2322    0.0254 H   0  0  0  0  0  0  0  0  0  0  0  0
  1  2  1  0
  2  3  1  0
  3  4  2  0
  4  5  1  0
  5  6  2  0
  6  7  1  0
  7  8  2  3
  8  9  1  0
  9 10  1  0
 10 11  2  3
 11 12  1  0
 12 13  3  0
 11 14  1  0
 14 15  2  0
 14 16  1  0
 16 17  1  0
 17 18  1  0
 18 19  2  0
 19 20  1  0
 20 21  2  0
 21 22  1  0
 10 23  1  0
 23 24  1  0
 24 25  2  0
 25 26  1  0
 26 27  2  0
 27 28  1  0
 28 29  2  0
 23 30  1  0
 30 31  2  0
  6 32  1  0
 32 33  2  0
 33  3  1  0
 30  8  1  0
 22 18  1  0
 29 24  1  0
  1 34  1  0
  1 35  1  0
  1 36  1  0
  4 37  1  0
  5 38  1  0
  7 39  1  0
 16 40  1  0
 17 41  1  0
 17 42  1  0
 19 43  1  0
 20 44  1  0
 21 45  1  0
 25 46  1  0
 26 47  1  0
 27 48  1  0
 28 49  1  0
 29 50  1  0
 32 51  1  0
 33 52  1  0
M  END
$$$$
