
     RDKit          3D

 40 41  0  0  0  0  0  0  0  0999 V2000
    6.1042   -0.0008    1.9259 C   0  0  0  0  0  0  0  0  0  0  0  0
    5.3947    1.0915    1.1446 C   0  0  0  0  0  0  0  0  0  0  0  0
    4.7167    0.5488    0.0129 O   0  0  0  0  0  0  0  0  0  0  0  0
    3.4343    0.1004    0.1587 C   0  0  0  0  0  0  0  0  0  0  0  0
    2.8385   -0.3342   -1.0313 C   0  0  0  0  0  0  0  0  0  0  0  0
    1.5310   -0.8224   -1.0400 C   0  0  0  0  0  0  0  0  0  0  0  0
    0.8139   -0.8712    0.1560 C   0  0  0  0  0  0  0  0  0  0  0  0
   -0.8517   -1.4920    0.1385 S   0  0  0  0  0  6  0  0  0  0  0  0
   -0.8290   -2.7371   -0.5988 O   0  0  0  0  0  0  0  0  0  0  0  0
   -1.3739   -1.4248    1.4876 O   0  0  0  0  0  0  0  0  0  0  0  0
   -1.6593   -0.3163   -0.7872 N   0  0  0  0  0  0  0  0  0  0  0  0
   -1.6994    1.0629   -0.2591 C   0  0  0  0  0  0  0  0  0  0  0  0
   -3.0724    1.7246   -0.2385 C   0  0  0  0  0  0  0  0  0  0  0  0
   -4.1379    0.9258    0.5084 C   0  0  0  0  0  0  0  0  0  0  0  0
   -4.8533   -0.0891   -0.3789 C   0  0  0  0  0  0  0  0  0  0  0  0
   -3.9774   -1.2316   -0.8844 C   0  0  0  0  0  0  0  0  0  0  0  0
   -2.7501   -0.7763   -1.6659 C   0  0  0  0  0  0  0  0  0  0  0  0
    1.3979   -0.4529    1.3533 C   0  0  0  0  0  0  0  0  0  0  0  0
    2.7099    0.0338    1.3510 C   0  0  0  0  0  0  0  0  0  0  0  0
    6.7816   -0.5605    1.2724 H   0  0  0  0  0  0  0  0  0  0  0  0
    5.3946   -0.7235    2.3395 H   0  0  0  0  0  0  0  0  0  0  0  0
    6.6838    0.4273    2.7488 H   0  0  0  0  0  0  0  0  0  0  0  0
    6.1514    1.7793    0.7500 H   0  0  0  0  0  0  0  0  0  0  0  0
    4.7383    1.7002    1.7759 H   0  0  0  0  0  0  0  0  0  0  0  0
    3.4034   -0.2941   -1.9602 H   0  0  0  0  0  0  0  0  0  0  0  0
    1.0820   -1.1620   -1.9702 H   0  0  0  0  0  0  0  0  0  0  0  0
   -1.2930    1.0957    0.7582 H   0  0  0  0  0  0  0  0  0  0  0  0
   -1.0244    1.6697   -0.8747 H   0  0  0  0  0  0  0  0  0  0  0  0
   -2.9571    2.6942    0.2634 H   0  0  0  0  0  0  0  0  0  0  0  0
   -3.4078    1.9570   -1.2561 H   0  0  0  0  0  0  0  0  0  0  0  0
   -3.7131    0.4352    1.3917 H   0  0  0  0  0  0  0  0  0  0  0  0
   -4.8946    1.6300    0.8768 H   0  0  0  0  0  0  0  0  0  0  0  0
   -5.6886   -0.5200    0.1870 H   0  0  0  0  0  0  0  0  0  0  0  0
   -5.3012    0.4296   -1.2360 H   0  0  0  0  0  0  0  0  0  0  0  0
   -4.5947   -1.8510   -1.5473 H   0  0  0  0  0  0  0  0  0  0  0  0
   -3.6958   -1.8740   -0.0429 H   0  0  0  0  0  0  0  0  0  0  0  0
   -3.0064    0.0030   -2.3923 H   0  0  0  0  0  0  0  0  0  0  0  0
   -2.3776   -1.6101   -2.2730 H   0  0  0  0  0  0  0  0  0  0  0  0
    0.8461   -0.5058    2.2895 H   0  0  0  0  0  0  0  0  0  0  0  0
    3.1364    0.3408    2.2999 H   0  0  0  0  0  0  0  0  0  0  0  0
  1  2  1  0
  2  3  1  0
  3  4  1  0
  4  5  2  0
  5  6  1  0
  6  7  2  0
  7  8  1  0
  8  9  2  0
  8 10  2  0
  8 11  1  0
 11 12  1  0
 12 13  1  0
 13 14  1  0
 14 15  1  0
 15 16  1  0
 16 17  1  0
  7 18  1  0
 18 19  2  0
 19  4  1  0
 17 11  1  0
  1 20  1  0
  1 21  1  0
  1 22  1  0
  2 23  1  0
  2 24  1  0
  5 25  1  0
  6 26  1  0
 12 27  1  0
 12 28  1  0
 13 29  1  0
 13 30  1  0
 14 31  1  0
 14 32  1  0
 15 33  1  0
 15 34  1  0
 16 35  1  0
 16 36  1  0
 17 37  1  0
 17 38  1  0
 18 39  1  0
 19 40  1  0
M  END
$$$$
