
     RDKit          3D

 36 38  0  0  0  0  0  0  0  0999 V2000
    2.5941   -2.7476   -2.0278 C   0  0  0  0  0  0  0  0  0  0  0  0
    2.3854   -1.2640   -1.7433 C   0  0  0  0  0  0  0  0  0  0  0  0
    3.3559   -0.8788   -0.7839 O   0  0  0  0  0  0  0  0  0  0  0  0
    3.1006    0.3458   -0.2274 C   0  0  0  0  0  0  0  0  0  0  0  0
    4.2054    0.9745    0.3533 C   0  0  0  0  0  0  0  0  0  0  0  0
    4.0574    2.2059    0.9835 C   0  0  0  0  0  0  0  0  0  0  0  0
    2.8002    2.7980    1.0468 C   0  0  0  0  0  0  0  0  0  0  0  0
    1.6899    2.1606    0.4803 C   0  0  0  0  0  0  0  0  0  0  0  0
    1.8232    0.9260   -0.1710 C   0  0  0  0  0  0  0  0  0  0  0  0
    0.7139    0.2297   -0.7321 N   0  0  0  0  0  0  0  0  0  0  0  0
   -0.6663    0.6444   -0.5005 C   0  0  0  0  0  0  0  0  0  0  0  0
   -1.2081    0.1272    0.8323 C   0  0  0  0  0  0  0  0  0  0  0  0
   -0.4944   -0.0694    1.8153 O   0  0  0  0  0  0  0  0  0  0  0  0
   -2.6779   -0.1046    0.9643 C   0  0  0  0  0  0  0  0  0  0  0  0
   -3.1295   -0.9059    2.0259 C   0  0  0  0  0  0  0  0  0  0  0  0
   -4.4939   -1.1473    2.1985 C   0  0  0  0  0  0  0  0  0  0  0  0
   -5.4045   -0.5834    1.3143 C   0  0  0  0  0  0  0  0  0  0  0  0
   -6.7136   -0.8113    1.4785 F   0  0  0  0  0  0  0  0  0  0  0  0
   -4.9765    0.2197    0.2628 C   0  0  0  0  0  0  0  0  0  0  0  0
   -3.6111    0.4644    0.0856 C   0  0  0  0  0  0  0  0  0  0  0  0
    0.9200   -0.9822   -1.3857 C   0  0  0  0  0  0  0  0  0  0  0  0
   -0.0061   -1.7121   -1.7432 O   0  0  0  0  0  0  0  0  0  0  0  0
    2.3843   -3.3461   -1.1340 H   0  0  0  0  0  0  0  0  0  0  0  0
    1.9451   -3.1006   -2.8355 H   0  0  0  0  0  0  0  0  0  0  0  0
    3.6350   -2.9445   -2.3064 H   0  0  0  0  0  0  0  0  0  0  0  0
    2.5922   -0.7131   -2.6715 H   0  0  0  0  0  0  0  0  0  0  0  0
    5.1812    0.4972    0.3158 H   0  0  0  0  0  0  0  0  0  0  0  0
    4.9166    2.6942    1.4354 H   0  0  0  0  0  0  0  0  0  0  0  0
    2.6761    3.7523    1.5532 H   0  0  0  0  0  0  0  0  0  0  0  0
    0.7315    2.6559    0.5861 H   0  0  0  0  0  0  0  0  0  0  0  0
   -1.2774    0.2407   -1.3152 H   0  0  0  0  0  0  0  0  0  0  0  0
   -0.7633    1.7323   -0.5462 H   0  0  0  0  0  0  0  0  0  0  0  0
   -2.4175   -1.3488    2.7211 H   0  0  0  0  0  0  0  0  0  0  0  0
   -4.8478   -1.7690    3.0150 H   0  0  0  0  0  0  0  0  0  0  0  0
   -5.7106    0.6521   -0.4107 H   0  0  0  0  0  0  0  0  0  0  0  0
   -3.3095    1.1079   -0.7354 H   0  0  0  0  0  0  0  0  0  0  0  0
  1  2  1  0
  2  3  1  0
  3  4  1  0
  4  5  2  0
  5  6  1  0
  6  7  2  0
  7  8  1  0
  8  9  2  0
  9 10  1  0
 10 11  1  0
 11 12  1  0
 12 13  2  0
 12 14  1  0
 14 15  2  0
 15 16  1  0
 16 17  2  0
 17 18  1  0
 17 19  1  0
 19 20  2  0
 10 21  1  0
 21 22  2  0
 21  2  1  0
  9  4  1  0
 20 14  1  0
  1 23  1  0
  1 24  1  0
  1 25  1  0
  2 26  1  0
  5 27  1  0
  6 28  1  0
  7 29  1  0
  8 30  1  0
 11 31  1  0
 11 32  1  0
 15 33  1  0
 16 34  1  0
 19 35  1  0
 20 36  1  0
M  END
$$$$
