
     RDKit          3D

 36 37  0  0  0  0  0  0  0  0999 V2000
    1.5045   -1.2072    2.2071 O   0  0  0  0  0  0  0  0  0  0  0  0
    0.6827   -1.0300    1.3113 C   0  0  0  0  0  0  0  0  0  0  0  0
   -0.4301   -2.0420    1.0224 C   0  0  0  0  0  0  0  0  0  0  0  0
   -1.4778   -1.5825    0.1655 O   0  0  0  0  0  0  0  0  0  0  0  0
   -2.4336   -0.8581    0.7951 C   0  0  0  0  0  0  0  0  0  0  0  0
   -2.4478   -0.4922    1.9547 O   0  0  0  0  0  0  0  0  0  0  0  0
   -3.5049   -0.5860   -0.1656 C   0  0  0  0  0  0  0  0  0  0  0  0
   -4.6662   -1.3650   -0.1470 C   0  0  0  0  0  0  0  0  0  0  0  0
   -4.8749   -2.6879    0.9437 Cl  0  0  0  0  0  0  0  0  0  0  0  0
   -5.7003   -1.0946   -1.0485 C   0  0  0  0  0  0  0  0  0  0  0  0
   -5.5771   -0.0493   -1.9643 C   0  0  0  0  0  0  0  0  0  0  0  0
   -4.4182    0.7274   -1.9823 C   0  0  0  0  0  0  0  0  0  0  0  0
   -3.3806    0.4620   -1.0833 C   0  0  0  0  0  0  0  0  0  0  0  0
   -1.9742    1.4617   -1.1607 Cl  0  0  0  0  0  0  0  0  0  0  0  0
    0.7286    0.0399    0.4462 N   0  0  0  0  0  0  0  0  0  0  0  0
    1.6868    1.1200    0.5867 C   0  0  0  0  0  0  0  0  0  0  0  0
    2.8465    1.0320   -0.4182 C   0  0  0  0  0  0  0  0  0  0  0  0
    3.8542   -0.0691   -0.1216 C   0  0  0  0  0  0  0  0  0  0  0  0
    4.8373    0.6220    0.7887 C   0  0  0  0  0  0  0  0  0  0  0  0
    4.8778    2.0159    0.2034 C   0  0  0  0  0  0  0  0  0  0  0  0
    3.5870    2.2703   -0.3707 O   0  0  0  0  0  0  0  0  0  0  0  0
   -0.8397   -2.4033    1.9735 H   0  0  0  0  0  0  0  0  0  0  0  0
    0.0372   -2.8970    0.5221 H   0  0  0  0  0  0  0  0  0  0  0  0
   -6.6071   -1.6966   -1.0423 H   0  0  0  0  0  0  0  0  0  0  0  0
   -6.3843    0.1601   -2.6634 H   0  0  0  0  0  0  0  0  0  0  0  0
   -4.3317    1.5416   -2.6993 H   0  0  0  0  0  0  0  0  0  0  0  0
   -0.0092    0.1389   -0.2413 H   0  0  0  0  0  0  0  0  0  0  0  0
    1.1345    2.0526    0.4221 H   0  0  0  0  0  0  0  0  0  0  0  0
    2.0607    1.1642    1.6157 H   0  0  0  0  0  0  0  0  0  0  0  0
    2.4404    0.9179   -1.4299 H   0  0  0  0  0  0  0  0  0  0  0  0
    4.3661   -0.3519   -1.0502 H   0  0  0  0  0  0  0  0  0  0  0  0
    3.4252   -0.9771    0.3068 H   0  0  0  0  0  0  0  0  0  0  0  0
    5.8203    0.1444    0.8163 H   0  0  0  0  0  0  0  0  0  0  0  0
    4.4453    0.6533    1.8117 H   0  0  0  0  0  0  0  0  0  0  0  0
    5.1043    2.7797    0.9525 H   0  0  0  0  0  0  0  0  0  0  0  0
    5.6182    2.0859   -0.6006 H   0  0  0  0  0  0  0  0  0  0  0  0
  1  2  2  0
  2  3  1  0
  3  4  1  0
  4  5  1  0
  5  6  2  0
  5  7  1  0
  7  8  2  0
  8  9  1  0
  8 10  1  0
 10 11  2  0
 11 12  1  0
 12 13  2  0
 13 14  1  0
  2 15  1  0
 15 16  1  0
 16 17  1  0
 17 18  1  0
 18 19  1  0
 19 20  1  0
 20 21  1  0
 13  7  1  0
 21 17  1  0
  3 22  1  0
  3 23  1  0
 10 24  1  0
 11 25  1  0
 12 26  1  0
 15 27  1  0
 16 28  1  0
 16 29  1  0
 17 30  1  0
 18 31  1  0
 18 32  1  0
 19 33  1  0
 19 34  1  0
 20 35  1  0
 20 36  1  0
M  END
$$$$
