
     RDKit          3D

 58 61  0  0  0  0  0  0  0  0999 V2000
    1.7913   -0.7199   -2.3386 O   0  0  0  0  0  0  0  0  0  0  0  0
    1.9520    0.0840   -1.4236 C   0  0  0  0  0  0  0  0  0  0  0  0
    3.1989    0.1749   -0.5645 C   0  0  0  0  0  0  0  0  0  0  0  0
    4.2396   -0.8766   -0.9544 C   0  0  0  0  0  0  0  0  0  0  0  0
    5.5490   -0.8537   -0.1426 C   0  0  0  0  0  0  0  0  0  0  0  0
    5.3263   -1.1451    1.3498 C   0  0  0  0  0  0  0  0  0  0  0  0
    6.6495   -1.1798    2.1136 C   0  0  0  0  0  0  0  0  0  0  0  0
    7.4460    0.1076    1.9178 C   0  0  0  0  0  0  0  0  0  0  0  0
    7.6591    0.4188    0.4388 C   0  0  0  0  0  0  0  0  0  0  0  0
    6.3361    0.4537   -0.3254 C   0  0  0  0  0  0  0  0  0  0  0  0
    0.9930    1.0222   -1.0800 N   0  0  0  0  0  0  0  0  0  0  0  0
   -0.2985    0.8240   -1.6322 N   0  0  0  0  0  0  0  0  0  0  0  0
   -1.3291    0.7373   -0.7121 C   0  0  0  0  0  0  0  0  0  0  0  0
   -1.1744    0.9859    0.4780 O   0  0  0  0  0  0  0  0  0  0  0  0
   -2.5046    0.3585   -1.3109 N   0  0  0  0  0  0  0  0  0  0  0  0
   -3.7873    0.2485   -0.6076 C   0  0  0  0  0  0  0  0  0  0  0  0
   -4.2491    1.6142   -0.0417 C   0  0  0  0  0  0  0  0  0  0  0  0
   -5.6227    1.4805    0.6396 C   0  0  0  0  0  0  0  0  0  0  0  0
   -6.6553    0.9950   -0.3902 C   0  0  0  0  0  0  0  0  0  0  0  0
   -6.2338   -0.3718   -0.9530 C   0  0  0  0  0  0  0  0  0  0  0  0
   -6.1389   -1.3881    0.1954 C   0  0  0  0  0  0  0  0  0  0  0  0
   -5.1025   -0.9169    1.2274 C   0  0  0  0  0  0  0  0  0  0  0  0
   -5.5247    0.4546    1.7819 C   0  0  0  0  0  0  0  0  0  0  0  0
   -3.7286   -0.7857    0.5461 C   0  0  0  0  0  0  0  0  0  0  0  0
   -4.8568   -0.2387   -1.6228 C   0  0  0  0  0  0  0  0  0  0  0  0
    3.6082    1.1838   -0.6826 H   0  0  0  0  0  0  0  0  0  0  0  0
    2.8937    0.0424    0.4789 H   0  0  0  0  0  0  0  0  0  0  0  0
    4.4865   -0.7585   -2.0184 H   0  0  0  0  0  0  0  0  0  0  0  0
    3.7889   -1.8742   -0.8617 H   0  0  0  0  0  0  0  0  0  0  0  0
    6.1713   -1.6670   -0.5441 H   0  0  0  0  0  0  0  0  0  0  0  0
    4.8127   -2.1064    1.4716 H   0  0  0  0  0  0  0  0  0  0  0  0
    4.6841   -0.3781    1.7988 H   0  0  0  0  0  0  0  0  0  0  0  0
    6.4545   -1.3337    3.1811 H   0  0  0  0  0  0  0  0  0  0  0  0
    7.2466   -2.0344    1.7711 H   0  0  0  0  0  0  0  0  0  0  0  0
    6.9134    0.9413    2.3923 H   0  0  0  0  0  0  0  0  0  0  0  0
    8.4161    0.0212    2.4200 H   0  0  0  0  0  0  0  0  0  0  0  0
    8.3162   -0.3404   -0.0032 H   0  0  0  0  0  0  0  0  0  0  0  0
    8.1700    1.3830    0.3351 H   0  0  0  0  0  0  0  0  0  0  0  0
    6.5378    0.6239   -1.3896 H   0  0  0  0  0  0  0  0  0  0  0  0
    5.7493    1.3082    0.0313 H   0  0  0  0  0  0  0  0  0  0  0  0
    0.9799    1.3892   -0.1266 H   0  0  0  0  0  0  0  0  0  0  0  0
   -0.3074    0.1136   -2.3645 H   0  0  0  0  0  0  0  0  0  0  0  0
   -2.5536    0.6156   -2.2873 H   0  0  0  0  0  0  0  0  0  0  0  0
   -4.3027    2.3582   -0.8476 H   0  0  0  0  0  0  0  0  0  0  0  0
   -3.5245    2.0010    0.6849 H   0  0  0  0  0  0  0  0  0  0  0  0
   -5.9311    2.4522    1.0415 H   0  0  0  0  0  0  0  0  0  0  0  0
   -6.7445    1.7249   -1.2044 H   0  0  0  0  0  0  0  0  0  0  0  0
   -7.6442    0.9185    0.0786 H   0  0  0  0  0  0  0  0  0  0  0  0
   -6.9715   -0.7123   -1.6882 H   0  0  0  0  0  0  0  0  0  0  0  0
   -7.1186   -1.5053    0.6745 H   0  0  0  0  0  0  0  0  0  0  0  0
   -5.8565   -2.3727   -0.1970 H   0  0  0  0  0  0  0  0  0  0  0  0
   -5.0402   -1.6432    2.0456 H   0  0  0  0  0  0  0  0  0  0  0  0
   -4.7993    0.7957    2.5308 H   0  0  0  0  0  0  0  0  0  0  0  0
   -6.4923    0.3697    2.2918 H   0  0  0  0  0  0  0  0  0  0  0  0
   -3.4075   -1.7626    0.1608 H   0  0  0  0  0  0  0  0  0  0  0  0
   -2.9874   -0.4951    1.2995 H   0  0  0  0  0  0  0  0  0  0  0  0
   -4.9247    0.4624   -2.4657 H   0  0  0  0  0  0  0  0  0  0  0  0
   -4.5574   -1.2041   -2.0520 H   0  0  0  0  0  0  0  0  0  0  0  0
  1  2  2  0
  2  3  1  0
  3  4  1  0
  4  5  1  0
  5  6  1  0
  6  7  1  0
  7  8  1  0
  8  9  1  0
  9 10  1  0
  2 11  1  0
 11 12  1  0
 12 13  1  0
 13 14  2  0
 13 15  1  0
 15 16  1  0
 16 17  1  0
 17 18  1  0
 18 19  1  0
 19 20  1  0
 20 21  1  0
 21 22  1  0
 22 23  1  0
 22 24  1  0
 20 25  1  0
 10  5  1  0
 24 16  1  0
 25 16  1  0
 23 18  1  0
  3 26  1  0
  3 27  1  0
  4 28  1  0
  4 29  1  0
  5 30  1  0
  6 31  1  0
  6 32  1  0
  7 33  1  0
  7 34  1  0
  8 35  1  0
  8 36  1  0
  9 37  1  0
  9 38  1  0
 10 39  1  0
 10 40  1  0
 11 41  1  0
 12 42  1  0
 15 43  1  0
 17 44  1  0
 17 45  1  0
 18 46  1  0
 19 47  1  0
 19 48  1  0
 20 49  1  0
 21 50  1  0
 21 51  1  0
 22 52  1  0
 23 53  1  0
 23 54  1  0
 24 55  1  0
 24 56  1  0
 25 57  1  0
 25 58  1  0
M  END
$$$$
