
     RDKit          3D

 47 49  0  0  0  0  0  0  0  0999 V2000
    6.8535    0.7922   -1.6395 C   0  0  0  0  0  0  0  0  0  0  0  0
    6.0837    0.1699   -0.5054 C   0  0  0  0  0  0  0  0  0  0  0  0
    4.6772    0.2143   -0.5303 C   0  0  0  0  0  0  0  0  0  0  0  0
    3.9283   -0.3514    0.5012 C   0  0  0  0  0  0  0  0  0  0  0  0
    2.5644   -0.3761    0.5902 O   0  0  0  0  0  0  0  0  0  0  0  0
    1.8303    0.2942   -0.4334 C   0  0  0  0  0  0  0  0  0  0  0  0
    0.3915    0.1389   -0.1155 C   0  0  0  0  0  0  0  0  0  0  0  0
   -0.3397   -0.6646    0.7244 C   0  0  0  0  0  0  0  0  0  0  0  0
   -1.6939   -0.2901    0.5091 C   0  0  0  0  0  0  0  0  0  0  0  0
   -2.8610   -0.8375    1.2192 C   0  0  0  0  0  0  0  0  0  0  0  0
   -2.6918   -1.3988    2.3038 O   0  0  0  0  0  0  0  0  0  0  0  0
   -4.1459   -0.7004    0.6718 N   0  0  0  0  0  0  0  0  0  0  0  0
   -5.2632   -1.1335    1.4983 C   0  0  0  0  0  0  0  0  0  0  0  0
   -4.4039   -0.6639   -0.7744 C   0  0  0  0  0  0  0  0  0  0  0  0
   -5.3927    0.4055   -1.1869 C   0  0  0  0  0  0  0  0  0  0  0  0
   -5.0518    1.7544   -1.1102 C   0  0  0  0  0  0  0  0  0  0  0  0
   -5.9921    2.7100   -1.4854 C   0  0  0  0  0  0  0  0  0  0  0  0
   -7.2442    2.2988   -1.9237 C   0  0  0  0  0  0  0  0  0  0  0  0
   -7.5066    0.9405   -1.9676 C   0  0  0  0  0  0  0  0  0  0  0  0
   -6.6157   -0.0106   -1.6098 N   0  0  0  0  0  0  0  0  0  0  0  0
   -1.7571    0.7119   -0.3859 N   0  0  0  0  0  0  0  0  0  0  0  0
   -0.4595    0.9597   -0.7864 O   0  0  0  0  0  0  0  0  0  0  0  0
    4.5875   -0.9689    1.5666 C   0  0  0  0  0  0  0  0  0  0  0  0
    5.9887   -1.0320    1.6213 C   0  0  0  0  0  0  0  0  0  0  0  0
    6.6442   -1.7101    2.7942 C   0  0  0  0  0  0  0  0  0  0  0  0
    6.7331   -0.4583    0.5756 C   0  0  0  0  0  0  0  0  0  0  0  0
    8.4666   -0.5268    0.6176 Cl  0  0  0  0  0  0  0  0  0  0  0  0
    6.1847    1.2509   -2.3760 H   0  0  0  0  0  0  0  0  0  0  0  0
    7.4439    0.0318   -2.1616 H   0  0  0  0  0  0  0  0  0  0  0  0
    7.5141    1.5814   -1.2659 H   0  0  0  0  0  0  0  0  0  0  0  0
    4.1930    0.6968   -1.3735 H   0  0  0  0  0  0  0  0  0  0  0  0
    2.0893    1.3596   -0.4496 H   0  0  0  0  0  0  0  0  0  0  0  0
    2.0294   -0.1630   -1.4098 H   0  0  0  0  0  0  0  0  0  0  0  0
    0.0358   -1.4110    1.4086 H   0  0  0  0  0  0  0  0  0  0  0  0
   -5.4465   -2.1968    1.3156 H   0  0  0  0  0  0  0  0  0  0  0  0
   -6.1587   -0.5553    1.2556 H   0  0  0  0  0  0  0  0  0  0  0  0
   -5.0444   -0.9900    2.5608 H   0  0  0  0  0  0  0  0  0  0  0  0
   -3.4942   -0.5691   -1.3691 H   0  0  0  0  0  0  0  0  0  0  0  0
   -4.8080   -1.6492   -1.0426 H   0  0  0  0  0  0  0  0  0  0  0  0
   -4.0719    2.0621   -0.7596 H   0  0  0  0  0  0  0  0  0  0  0  0
   -5.7467    3.7671   -1.4331 H   0  0  0  0  0  0  0  0  0  0  0  0
   -7.9976    3.0188   -2.2223 H   0  0  0  0  0  0  0  0  0  0  0  0
   -8.4709    0.5685   -2.3019 H   0  0  0  0  0  0  0  0  0  0  0  0
    3.9920   -1.4061    2.3676 H   0  0  0  0  0  0  0  0  0  0  0  0
    7.2836   -1.0044    3.3367 H   0  0  0  0  0  0  0  0  0  0  0  0
    7.2410   -2.5661    2.4573 H   0  0  0  0  0  0  0  0  0  0  0  0
    5.9025   -2.0934    3.5029 H   0  0  0  0  0  0  0  0  0  0  0  0
  1  2  1  0
  2  3  2  0
  3  4  1  0
  4  5  1  0
  5  6  1  0
  6  7  1  0
  7  8  2  0
  8  9  1  0
  9 10  1  0
 10 11  2  0
 10 12  1  0
 12 13  1  0
 12 14  1  0
 14 15  1  0
 15 16  2  0
 16 17  1  0
 17 18  2  0
 18 19  1  0
 19 20  2  0
  9 21  2  0
 21 22  1  0
  4 23  2  0
 23 24  1  0
 24 25  1  0
 24 26  2  0
 26 27  1  0
 26  2  1  0
 22  7  1  0
 20 15  1  0
  1 28  1  0
  1 29  1  0
  1 30  1  0
  3 31  1  0
  6 32  1  0
  6 33  1  0
  8 34  1  0
 13 35  1  0
 13 36  1  0
 13 37  1  0
 14 38  1  0
 14 39  1  0
 16 40  1  0
 17 41  1  0
 18 42  1  0
 19 43  1  0
 23 44  1  0
 25 45  1  0
 25 46  1  0
 25 47  1  0
M  END
$$$$
