
     RDKit          3D

 46 48  0  0  0  0  0  0  0  0999 V2000
   -1.9153    0.7120   -0.7473 O   0  0  0  0  0  0  0  0  0  0  0  0
   -1.6674    1.1027    0.3864 C   0  0  0  0  0  0  0  0  0  0  0  0
   -2.6155    1.5830    1.2616 N   0  0  0  0  0  0  0  0  0  0  0  0
   -4.0218    1.6614    0.9042 C   0  0  0  0  0  0  0  0  0  0  0  0
   -4.8509    0.4735    1.4217 C   0  0  0  0  0  0  0  0  0  0  0  0
   -4.6526   -0.8257    0.6550 C   0  0  0  0  0  0  0  0  0  0  0  0
   -5.6876   -0.7244   -0.4364 C   0  0  0  0  0  0  0  0  0  0  0  0
   -6.8298   -0.0415    0.2815 C   0  0  0  0  0  0  0  0  0  0  0  0
   -6.2494    0.8059    1.2847 O   0  0  0  0  0  0  0  0  0  0  0  0
   -0.2722    1.0430    0.8951 C   0  0  0  0  0  0  0  0  0  0  0  0
    0.2283    1.9966    1.7853 C   0  0  0  0  0  0  0  0  0  0  0  0
    1.5541    1.9139    2.2207 C   0  0  0  0  0  0  0  0  0  0  0  0
    2.3949    0.8857    1.7704 C   0  0  0  0  0  0  0  0  0  0  0  0
    4.1734    0.9166    2.4346 Br  0  0  0  0  0  0  0  0  0  0  0  0
    1.8955   -0.0612    0.8700 C   0  0  0  0  0  0  0  0  0  0  0  0
    2.8852   -1.4017    0.2596 S   0  0  0  0  0  6  0  0  0  0  0  0
    3.4492   -2.0884    1.4003 O   0  0  0  0  0  0  0  0  0  0  0  0
    2.1115   -2.1298   -0.7255 O   0  0  0  0  0  0  0  0  0  0  0  0
    4.1310   -0.6172   -0.5932 N   0  0  0  0  0  0  0  0  0  0  0  0
    3.7190    0.1261   -1.8291 C   0  0  0  0  0  0  0  0  0  0  0  0
    4.1624   -0.6178   -3.0922 C   0  0  0  0  0  0  0  0  0  0  0  0
    5.5869   -0.7653   -3.1822 O   0  0  0  0  0  0  0  0  0  0  0  0
    6.2280   -0.8809   -1.9034 C   0  0  0  0  0  0  0  0  0  0  0  0
    5.3246   -1.4931   -0.8296 C   0  0  0  0  0  0  0  0  0  0  0  0
    0.5630    0.0201    0.4321 C   0  0  0  0  0  0  0  0  0  0  0  0
   -2.3696    1.7633    2.2255 H   0  0  0  0  0  0  0  0  0  0  0  0
   -4.1293    1.7727   -0.1807 H   0  0  0  0  0  0  0  0  0  0  0  0
   -4.4024    2.5886    1.3484 H   0  0  0  0  0  0  0  0  0  0  0  0
   -4.6421    0.3246    2.4874 H   0  0  0  0  0  0  0  0  0  0  0  0
   -3.6393   -0.9887    0.2841 H   0  0  0  0  0  0  0  0  0  0  0  0
   -4.9043   -1.6723    1.3064 H   0  0  0  0  0  0  0  0  0  0  0  0
   -5.3171   -0.0882   -1.2484 H   0  0  0  0  0  0  0  0  0  0  0  0
   -5.9710   -1.6901   -0.8633 H   0  0  0  0  0  0  0  0  0  0  0  0
   -7.4513    0.5567   -0.3906 H   0  0  0  0  0  0  0  0  0  0  0  0
   -7.4687   -0.7702    0.7916 H   0  0  0  0  0  0  0  0  0  0  0  0
   -0.3870    2.8258    2.1252 H   0  0  0  0  0  0  0  0  0  0  0  0
    1.9284    2.6696    2.9100 H   0  0  0  0  0  0  0  0  0  0  0  0
    4.1964    1.1123   -1.7836 H   0  0  0  0  0  0  0  0  0  0  0  0
    2.6384    0.2935   -1.8558 H   0  0  0  0  0  0  0  0  0  0  0  0
    3.8348   -0.0742   -3.9839 H   0  0  0  0  0  0  0  0  0  0  0  0
    3.7153   -1.6174   -3.1355 H   0  0  0  0  0  0  0  0  0  0  0  0
    6.5595    0.1202   -1.6040 H   0  0  0  0  0  0  0  0  0  0  0  0
    7.1234   -1.4952   -2.0405 H   0  0  0  0  0  0  0  0  0  0  0  0
    4.9953   -2.4870   -1.1546 H   0  0  0  0  0  0  0  0  0  0  0  0
    5.8828   -1.5883    0.1074 H   0  0  0  0  0  0  0  0  0  0  0  0
    0.1635   -0.7128   -0.2693 H   0  0  0  0  0  0  0  0  0  0  0  0
  1  2  2  0
  2  3  1  0
  3  4  1  0
  4  5  1  0
  5  6  1  0
  6  7  1  0
  7  8  1  0
  8  9  1  0
  2 10  1  0
 10 11  2  0
 11 12  1  0
 12 13  2  0
 13 14  1  0
 13 15  1  0
 15 16  1  0
 16 17  2  0
 16 18  2  0
 16 19  1  0
 19 20  1  0
 20 21  1  0
 21 22  1  0
 22 23  1  0
 23 24  1  0
 15 25  2  0
  9  5  1  0
 25 10  1  0
 24 19  1  0
  3 26  1  0
  4 27  1  0
  4 28  1  0
  5 29  1  0
  6 30  1  0
  6 31  1  0
  7 32  1  0
  7 33  1  0
  8 34  1  0
  8 35  1  0
 11 36  1  0
 12 37  1  0
 20 38  1  0
 20 39  1  0
 21 40  1  0
 21 41  1  0
 23 42  1  0
 23 43  1  0
 24 44  1  0
 24 45  1  0
 25 46  1  0
M  END
$$$$
