
     RDKit          3D

 35 37  0  0  0  0  0  0  0  0999 V2000
   -3.2788   -1.7786   -1.3417 C   0  0  0  0  0  0  0  0  0  0  0  0
   -3.8560   -0.8009   -0.3544 C   0  0  0  0  0  0  0  0  0  0  0  0
   -5.2358   -0.5380   -0.3892 C   0  0  0  0  0  0  0  0  0  0  0  0
   -5.8185    0.3562    0.5085 C   0  0  0  0  0  0  0  0  0  0  0  0
   -5.0313    1.0006    1.4556 C   0  0  0  0  0  0  0  0  0  0  0  0
   -3.6612    0.7474    1.5077 C   0  0  0  0  0  0  0  0  0  0  0  0
   -3.0558   -0.1575    0.6149 C   0  0  0  0  0  0  0  0  0  0  0  0
   -1.5615   -0.3832    0.7181 C   0  0  0  0  0  0  0  0  0  0  0  0
   -0.6415    0.8251   -0.2811 S   0  0  0  0  0  0  0  0  0  0  0  0
    1.0000    0.3183    0.0369 C   0  0  0  0  0  0  0  0  0  0  0  0
    1.2473   -0.6891    0.8120 N   0  0  0  0  0  0  0  0  0  0  0  0
    2.5660   -1.0528    1.0324 C   0  0  0  0  0  0  0  0  0  0  0  0
    2.8923   -1.9933    1.7475 O   0  0  0  0  0  0  0  0  0  0  0  0
    3.6148   -0.2550    0.3622 C   0  0  0  0  0  0  0  0  0  0  0  0
    3.2581    0.7645   -0.4163 C   0  0  0  0  0  0  0  0  0  0  0  0
    1.9497    1.0707   -0.5962 N   0  0  0  0  0  0  0  0  0  0  0  0
    4.4308    1.4554   -1.0100 C   0  0  0  0  0  0  0  0  0  0  0  0
    5.5924    0.8621   -0.1942 C   0  0  0  0  0  0  0  0  0  0  0  0
    5.0800   -0.4416    0.4407 C   0  0  0  0  0  0  0  0  0  0  0  0
   -2.4554   -1.3236   -1.9003 H   0  0  0  0  0  0  0  0  0  0  0  0
   -4.0273   -2.0978   -2.0750 H   0  0  0  0  0  0  0  0  0  0  0  0
   -2.9210   -2.6733   -0.8226 H   0  0  0  0  0  0  0  0  0  0  0  0
   -5.8700   -1.0309   -1.1230 H   0  0  0  0  0  0  0  0  0  0  0  0
   -6.8869    0.5496    0.4659 H   0  0  0  0  0  0  0  0  0  0  0  0
   -5.4817    1.7007    2.1538 H   0  0  0  0  0  0  0  0  0  0  0  0
   -3.0595    1.2637    2.2533 H   0  0  0  0  0  0  0  0  0  0  0  0
   -1.3087   -1.4016    0.4063 H   0  0  0  0  0  0  0  0  0  0  0  0
   -1.2574   -0.2938    1.7679 H   0  0  0  0  0  0  0  0  0  0  0  0
    1.6725    1.8443   -1.1857 H   0  0  0  0  0  0  0  0  0  0  0  0
    4.5275    1.2113   -2.0729 H   0  0  0  0  0  0  0  0  0  0  0  0
    4.3833    2.5421   -0.8931 H   0  0  0  0  0  0  0  0  0  0  0  0
    6.4807    0.6938   -0.8120 H   0  0  0  0  0  0  0  0  0  0  0  0
    5.8807    1.5663    0.5975 H   0  0  0  0  0  0  0  0  0  0  0  0
    5.3922   -1.3146   -0.1415 H   0  0  0  0  0  0  0  0  0  0  0  0
    5.4398   -0.5463    1.4683 H   0  0  0  0  0  0  0  0  0  0  0  0
  1  2  1  0
  2  3  2  0
  3  4  1  0
  4  5  2  0
  5  6  1  0
  6  7  2  0
  7  8  1  0
  8  9  1  0
  9 10  1  0
 10 11  2  0
 11 12  1  0
 12 13  2  0
 12 14  1  0
 14 15  2  0
 15 16  1  0
 15 17  1  0
 17 18  1  0
 18 19  1  0
  7  2  1  0
 16 10  1  0
 19 14  1  0
  1 20  1  0
  1 21  1  0
  1 22  1  0
  3 23  1  0
  4 24  1  0
  5 25  1  0
  6 26  1  0
  8 27  1  0
  8 28  1  0
 16 29  1  0
 17 30  1  0
 17 31  1  0
 18 32  1  0
 18 33  1  0
 19 34  1  0
 19 35  1  0
M  END
$$$$
