
     RDKit          3D

 42 44  0  0  0  0  0  0  0  0999 V2000
   -6.2698    0.4890    0.7154 C   0  0  0  0  0  0  0  0  0  0  0  0
   -4.8324    0.4496    0.2876 C   0  0  0  0  0  0  0  0  0  0  0  0
   -3.8172    0.7894    1.1867 C   0  0  0  0  0  0  0  0  0  0  0  0
   -2.4649    0.7320    0.8112 C   0  0  0  0  0  0  0  0  0  0  0  0
   -1.4131    1.0976    1.8263 C   0  0  0  0  0  0  0  0  0  0  0  0
   -2.1254    0.3062   -0.4927 C   0  0  0  0  0  0  0  0  0  0  0  0
   -0.7257    0.2638   -0.8949 C   0  0  0  0  0  0  0  0  0  0  0  0
   -0.1727    1.1641   -1.7864 C   0  0  0  0  0  0  0  0  0  0  0  0
    1.4930    0.8110   -1.9965 S   0  0  0  0  0  0  0  0  0  0  0  0
    1.3379   -0.4775   -0.8843 C   0  0  0  0  0  0  0  0  0  0  0  0
    2.5048   -1.1478   -0.6569 N   0  0  0  0  0  0  0  0  0  0  0  0
    2.6045   -2.1746    0.2423 C   0  0  0  0  0  0  0  0  0  0  0  0
    1.7161   -2.7118    0.8894 O   0  0  0  0  0  0  0  0  0  0  0  0
    3.9835   -2.7235    0.3541 C   0  0  0  0  0  0  0  0  0  0  0  0
    5.1324   -2.0522    0.5285 C   0  0  0  0  0  0  0  0  0  0  0  0
    5.2319   -0.6436    0.7004 C   0  0  0  0  0  0  0  0  0  0  0  0
    4.4658    0.2269    1.4583 C   0  0  0  0  0  0  0  0  0  0  0  0
    4.8913    1.5827    1.3500 C   0  0  0  0  0  0  0  0  0  0  0  0
    5.9864    1.7123    0.5287 C   0  0  0  0  0  0  0  0  0  0  0  0
    6.4972    0.2087   -0.0995 S   0  0  0  0  0  0  0  0  0  0  0  0
    0.1511   -0.6683   -0.3732 N   0  0  0  0  0  0  0  0  0  0  0  0
   -3.1427   -0.0816   -1.3941 C   0  0  0  0  0  0  0  0  0  0  0  0
   -2.8368   -0.5850   -2.7803 C   0  0  0  0  0  0  0  0  0  0  0  0
   -4.4864    0.0054   -0.9923 C   0  0  0  0  0  0  0  0  0  0  0  0
   -6.5574   -0.4733    1.1499 H   0  0  0  0  0  0  0  0  0  0  0  0
   -6.4350    1.2767    1.4580 H   0  0  0  0  0  0  0  0  0  0  0  0
   -6.9249    0.7035   -0.1355 H   0  0  0  0  0  0  0  0  0  0  0  0
   -4.0819    1.1009    2.1958 H   0  0  0  0  0  0  0  0  0  0  0  0
   -0.7291    1.8512    1.4228 H   0  0  0  0  0  0  0  0  0  0  0  0
   -1.8615    1.5253    2.7296 H   0  0  0  0  0  0  0  0  0  0  0  0
   -0.8484    0.2090    2.1251 H   0  0  0  0  0  0  0  0  0  0  0  0
   -0.6511    1.9827   -2.3046 H   0  0  0  0  0  0  0  0  0  0  0  0
    3.3193   -0.8107   -1.1470 H   0  0  0  0  0  0  0  0  0  0  0  0
    4.0031   -3.8096    0.3172 H   0  0  0  0  0  0  0  0  0  0  0  0
    6.0582   -2.6244    0.5595 H   0  0  0  0  0  0  0  0  0  0  0  0
    3.6277   -0.0917    2.0695 H   0  0  0  0  0  0  0  0  0  0  0  0
    4.4212    2.4166    1.8572 H   0  0  0  0  0  0  0  0  0  0  0  0
    6.5193    2.6183    0.2739 H   0  0  0  0  0  0  0  0  0  0  0  0
   -2.5244    0.2427   -3.4243 H   0  0  0  0  0  0  0  0  0  0  0  0
   -2.0527   -1.3486   -2.7543 H   0  0  0  0  0  0  0  0  0  0  0  0
   -3.7163   -1.0514   -3.2377 H   0  0  0  0  0  0  0  0  0  0  0  0
   -5.2747   -0.2898   -1.6829 H   0  0  0  0  0  0  0  0  0  0  0  0
  1  2  1  0
  2  3  2  0
  3  4  1  0
  4  5  1  0
  4  6  2  0
  6  7  1  0
  7  8  2  0
  8  9  1  0
  9 10  1  0
 10 11  1  0
 11 12  1  0
 12 13  2  0
 12 14  1  0
 14 15  2  3
 15 16  1  0
 16 17  2  0
 17 18  1  0
 18 19  2  0
 19 20  1  0
 10 21  2  0
  6 22  1  0
 22 23  1  0
 22 24  2  0
 24  2  1  0
 21  7  1  0
 20 16  1  0
  1 25  1  0
  1 26  1  0
  1 27  1  0
  3 28  1  0
  5 29  1  0
  5 30  1  0
  5 31  1  0
  8 32  1  0
 11 33  1  0
 14 34  1  0
 15 35  1  0
 17 36  1  0
 18 37  1  0
 19 38  1  0
 23 39  1  0
 23 40  1  0
 23 41  1  0
 24 42  1  0
M  END
$$$$
