
     RDKit          3D

 45 47  0  0  0  0  0  0  0  0999 V2000
    9.4582    0.9553    1.0082 N   0  0  0  0  0  0  0  0  0  0  0  0
    8.3821    0.8420    0.5884 C   0  0  0  0  0  0  0  0  0  0  0  0
    7.0513    0.7090    0.0722 C   0  0  0  0  0  0  0  0  0  0  0  0
    5.9564    0.7069    0.9419 C   0  0  0  0  0  0  0  0  0  0  0  0
    4.6548    0.5775    0.4414 C   0  0  0  0  0  0  0  0  0  0  0  0
    4.4404    0.4541   -0.9315 C   0  0  0  0  0  0  0  0  0  0  0  0
    3.2308    0.3146   -1.5508 O   0  0  0  0  0  0  0  0  0  0  0  0
    2.0548    0.5742   -0.7974 C   0  0  0  0  0  0  0  0  0  0  0  0
    1.5303   -0.5926    0.0611 C   0  0  0  0  0  0  0  0  0  0  0  0
    2.1552   -1.6480    0.1746 O   0  0  0  0  0  0  0  0  0  0  0  0
    0.3193   -0.3910    0.7132 N   0  0  0  0  0  0  0  0  0  0  0  0
   -0.2737   -1.4857    1.4937 C   0  0  0  0  0  0  0  0  0  0  0  0
   -1.7863   -1.6197    1.2346 C   0  0  0  0  0  0  0  0  0  0  0  0
   -2.5163   -0.3466    1.4644 N   0  0  0  0  0  0  0  0  0  0  0  0
   -3.6169   -0.1900    0.6039 C   0  0  0  0  0  0  0  0  0  0  0  0
   -4.6258   -1.1550    0.5888 C   0  0  0  0  0  0  0  0  0  0  0  0
   -5.7233   -1.0063   -0.2598 C   0  0  0  0  0  0  0  0  0  0  0  0
   -5.8029    0.1090   -1.0904 C   0  0  0  0  0  0  0  0  0  0  0  0
   -6.9575    0.3532   -2.0091 C   0  0  0  0  0  0  0  0  0  0  0  0
   -6.5836    0.9132   -3.1929 F   0  0  0  0  0  0  0  0  0  0  0  0
   -7.8792    1.1977   -1.4715 F   0  0  0  0  0  0  0  0  0  0  0  0
   -7.6352   -0.7826   -2.3342 F   0  0  0  0  0  0  0  0  0  0  0  0
   -4.7724    1.0293   -1.0070 C   0  0  0  0  0  0  0  0  0  0  0  0
   -3.6992    0.9004   -0.1897 N   0  0  0  0  0  0  0  0  0  0  0  0
   -1.6656    0.8539    1.5959 C   0  0  0  0  0  0  0  0  0  0  0  0
   -0.4939    0.8317    0.6001 C   0  0  0  0  0  0  0  0  0  0  0  0
    5.5391    0.4459   -1.7962 C   0  0  0  0  0  0  0  0  0  0  0  0
    6.8396    0.5762   -1.3016 C   0  0  0  0  0  0  0  0  0  0  0  0
    6.1065    0.7950    2.0165 H   0  0  0  0  0  0  0  0  0  0  0  0
    3.8375    0.5522    1.1544 H   0  0  0  0  0  0  0  0  0  0  0  0
    1.2773    0.7989   -1.5364 H   0  0  0  0  0  0  0  0  0  0  0  0
    2.1784    1.4730   -0.1822 H   0  0  0  0  0  0  0  0  0  0  0  0
    0.2204   -2.4372    1.2725 H   0  0  0  0  0  0  0  0  0  0  0  0
   -0.0878   -1.2599    2.5506 H   0  0  0  0  0  0  0  0  0  0  0  0
   -1.9134   -1.9570    0.1964 H   0  0  0  0  0  0  0  0  0  0  0  0
   -2.1975   -2.3935    1.8930 H   0  0  0  0  0  0  0  0  0  0  0  0
   -4.5739   -2.0128    1.2518 H   0  0  0  0  0  0  0  0  0  0  0  0
   -6.5094   -1.7586   -0.2606 H   0  0  0  0  0  0  0  0  0  0  0  0
   -4.7709    1.9332   -1.6131 H   0  0  0  0  0  0  0  0  0  0  0  0
   -1.2604    0.8564    2.6164 H   0  0  0  0  0  0  0  0  0  0  0  0
   -2.2320    1.7896    1.5134 H   0  0  0  0  0  0  0  0  0  0  0  0
   -0.8620    0.8801   -0.4308 H   0  0  0  0  0  0  0  0  0  0  0  0
    0.1499    1.7001    0.7696 H   0  0  0  0  0  0  0  0  0  0  0  0
    5.3791    0.3354   -2.8666 H   0  0  0  0  0  0  0  0  0  0  0  0
    7.6779    0.5680   -1.9952 H   0  0  0  0  0  0  0  0  0  0  0  0
  1  2  3  0
  2  3  1  0
  3  4  2  0
  4  5  1  0
  5  6  2  0
  6  7  1  0
  7  8  1  0
  8  9  1  0
  9 10  2  0
  9 11  1  0
 11 12  1  0
 12 13  1  0
 13 14  1  0
 14 15  1  0
 15 16  2  0
 16 17  1  0
 17 18  2  0
 18 19  1  0
 19 20  1  0
 19 21  1  0
 19 22  1  0
 18 23  1  0
 23 24  2  0
 14 25  1  0
 25 26  1  0
  6 27  1  0
 27 28  2  0
 28  3  1  0
 26 11  1  0
 24 15  1  0
  4 29  1  0
  5 30  1  0
  8 31  1  0
  8 32  1  0
 12 33  1  0
 12 34  1  0
 13 35  1  0
 13 36  1  0
 16 37  1  0
 17 38  1  0
 23 39  1  0
 25 40  1  0
 25 41  1  0
 26 42  1  0
 26 43  1  0
 27 44  1  0
 28 45  1  0
M  END
$$$$
