
     RDKit          3D

 47 49  0  0  0  0  0  0  0  0999 V2000
    2.7240    0.6621   -3.4897 C   0  0  0  0  0  0  0  0  0  0  0  0
    2.5161    0.5207   -2.0894 O   0  0  0  0  0  0  0  0  0  0  0  0
    3.5684    0.8572   -1.2664 C   0  0  0  0  0  0  0  0  0  0  0  0
    4.8240    1.2862   -1.7079 C   0  0  0  0  0  0  0  0  0  0  0  0
    5.8217    1.6008   -0.7829 C   0  0  0  0  0  0  0  0  0  0  0  0
    5.5713    1.4861    0.5819 C   0  0  0  0  0  0  0  0  0  0  0  0
    4.3214    1.0576    1.0327 C   0  0  0  0  0  0  0  0  0  0  0  0
    3.3133    0.7459    0.1185 C   0  0  0  0  0  0  0  0  0  0  0  0
    2.0282    0.2953    0.4951 N   0  0  0  0  0  0  0  0  0  0  0  0
    1.4663    0.2596    1.7487 C   0  0  0  0  0  0  0  0  0  0  0  0
    1.9878    0.7191    2.7613 O   0  0  0  0  0  0  0  0  0  0  0  0
    0.2054   -0.3457    1.7931 N   0  0  0  0  0  0  0  0  0  0  0  0
   -0.3498   -1.1536    0.7090 C   0  0  0  0  0  0  0  0  0  0  0  0
   -1.4670   -2.0951    1.1491 C   0  0  0  0  0  0  0  0  0  0  0  0
   -2.5358   -1.4360    2.0333 C   0  0  0  0  0  0  0  0  0  0  0  0
   -3.8501   -1.0904    1.3359 C   0  0  0  0  0  0  0  0  0  0  0  0
   -4.9268   -1.1529    1.9277 O   0  0  0  0  0  0  0  0  0  0  0  0
   -3.8723   -0.6724   -0.0830 C   0  0  0  0  0  0  0  0  0  0  0  0
   -3.2070    0.4788   -0.5158 C   0  0  0  0  0  0  0  0  0  0  0  0
   -3.2636    0.8411   -1.8632 C   0  0  0  0  0  0  0  0  0  0  0  0
   -3.9935    0.0623   -2.7564 C   0  0  0  0  0  0  0  0  0  0  0  0
   -4.0420    0.4132   -4.0475 F   0  0  0  0  0  0  0  0  0  0  0  0
   -4.6794   -1.0696   -2.3281 C   0  0  0  0  0  0  0  0  0  0  0  0
   -4.6266   -1.4364   -0.9828 C   0  0  0  0  0  0  0  0  0  0  0  0
   -2.0167   -0.2464    2.8436 C   0  0  0  0  0  0  0  0  0  0  0  0
   -0.5136   -0.3315    3.0640 C   0  0  0  0  0  0  0  0  0  0  0  0
    2.9388    1.7028   -3.7543 H   0  0  0  0  0  0  0  0  0  0  0  0
    1.7963    0.3759   -3.9946 H   0  0  0  0  0  0  0  0  0  0  0  0
    3.5142   -0.0095   -3.8410 H   0  0  0  0  0  0  0  0  0  0  0  0
    5.0613    1.3855   -2.7613 H   0  0  0  0  0  0  0  0  0  0  0  0
    6.7974    1.9341   -1.1277 H   0  0  0  0  0  0  0  0  0  0  0  0
    6.3492    1.7273    1.3023 H   0  0  0  0  0  0  0  0  0  0  0  0
    4.1649    0.9688    2.1032 H   0  0  0  0  0  0  0  0  0  0  0  0
    1.4208    0.1394   -0.2955 H   0  0  0  0  0  0  0  0  0  0  0  0
   -0.7047   -0.4611   -0.0584 H   0  0  0  0  0  0  0  0  0  0  0  0
    0.4552   -1.7459    0.2584 H   0  0  0  0  0  0  0  0  0  0  0  0
   -1.0002   -2.8978    1.7375 H   0  0  0  0  0  0  0  0  0  0  0  0
   -1.9069   -2.5895    0.2760 H   0  0  0  0  0  0  0  0  0  0  0  0
   -2.8231   -2.2203    2.7508 H   0  0  0  0  0  0  0  0  0  0  0  0
   -2.6596    1.1094    0.1782 H   0  0  0  0  0  0  0  0  0  0  0  0
   -2.7543    1.7312   -2.2206 H   0  0  0  0  0  0  0  0  0  0  0  0
   -5.2559   -1.6515   -3.0406 H   0  0  0  0  0  0  0  0  0  0  0  0
   -5.1756   -2.3095   -0.6362 H   0  0  0  0  0  0  0  0  0  0  0  0
   -2.2543    0.7010    2.3472 H   0  0  0  0  0  0  0  0  0  0  0  0
   -2.5300   -0.2143    3.8126 H   0  0  0  0  0  0  0  0  0  0  0  0
   -0.1899    0.5172    3.6760 H   0  0  0  0  0  0  0  0  0  0  0  0
   -0.2475   -1.2463    3.6072 H   0  0  0  0  0  0  0  0  0  0  0  0
  1  2  1  0
  2  3  1  0
  3  4  2  0
  4  5  1  0
  5  6  2  0
  6  7  1  0
  7  8  2  0
  8  9  1  0
  9 10  1  0
 10 11  2  0
 10 12  1  0
 12 13  1  0
 13 14  1  0
 14 15  1  0
 15 16  1  0
 16 17  2  0
 16 18  1  0
 18 19  2  0
 19 20  1  0
 20 21  2  0
 21 22  1  0
 21 23  1  0
 23 24  2  0
 15 25  1  0
 25 26  1  0
  8  3  1  0
 26 12  1  0
 24 18  1  0
  1 27  1  0
  1 28  1  0
  1 29  1  0
  4 30  1  0
  5 31  1  0
  6 32  1  0
  7 33  1  0
  9 34  1  0
 13 35  1  0
 13 36  1  0
 14 37  1  0
 14 38  1  0
 15 39  1  0
 19 40  1  0
 20 41  1  0
 23 42  1  0
 24 43  1  0
 25 44  1  0
 25 45  1  0
 26 46  1  0
 26 47  1  0
M  END
$$$$
