
     RDKit          3D

 81 84  0  0  0  0  0  0  0  0999 V2000
   -6.4972   -0.3976    3.2472 O   0  0  0  0  0  0  0  0  0  0  0  0
   -6.4987   -0.2743    2.0308 C   0  0  0  0  0  0  0  0  0  0  0  0
   -7.6293   -0.4964    1.2728 N   0  0  0  0  0  0  0  0  0  0  0  0
   -8.9344   -0.6297    1.8862 C   0  0  0  0  0  0  0  0  0  0  0  0
  -10.0123   -0.9830    0.8567 C   0  0  0  0  0  0  0  0  0  0  0  0
  -10.1851    0.0857   -0.2370 C   0  0  0  0  0  0  0  0  0  0  0  0
   -8.9955    0.2589   -1.1054 N   0  0  0  0  0  0  0  0  0  0  0  0
   -8.8278   -0.8899   -2.0356 C   0  0  0  0  0  0  0  0  0  0  0  0
   -7.6284   -0.6591   -2.9701 C   0  0  0  0  0  0  0  0  0  0  0  0
   -7.8064    0.5330   -3.7478 O   0  0  0  0  0  0  0  0  0  0  0  0
   -7.9659    1.6686   -2.8906 C   0  0  0  0  0  0  0  0  0  0  0  0
   -9.1486    1.4860   -1.9244 C   0  0  0  0  0  0  0  0  0  0  0  0
   -5.4391    0.0871    1.2288 N   0  0  0  0  0  0  0  0  0  0  0  0
   -4.1376    0.4545    1.6264 C   0  0  0  0  0  0  0  0  0  0  0  0
   -3.2849    0.9557    0.6362 C   0  0  0  0  0  0  0  0  0  0  0  0
   -1.9958    1.3910    0.9552 C   0  0  0  0  0  0  0  0  0  0  0  0
   -1.5316    1.3326    2.2735 C   0  0  0  0  0  0  0  0  0  0  0  0
   -0.1786    1.8941    2.6566 C   0  0  0  0  0  0  0  0  0  0  0  0
    0.9821    1.4448    1.7964 C   0  0  0  0  0  0  0  0  0  0  0  0
    1.3720    0.0999    1.7538 C   0  0  0  0  0  0  0  0  0  0  0  0
    2.4799   -0.2998    0.9930 C   0  0  0  0  0  0  0  0  0  0  0  0
    3.2153    0.6374    0.2636 C   0  0  0  0  0  0  0  0  0  0  0  0
    4.3561    0.3204   -0.5013 N   0  0  0  0  0  0  0  0  0  0  0  0
    4.9791   -0.9011   -0.6253 C   0  0  0  0  0  0  0  0  0  0  0  0
    4.6540   -1.9466   -0.0844 O   0  0  0  0  0  0  0  0  0  0  0  0
    6.0828   -0.8070   -1.4558 N   0  0  0  0  0  0  0  0  0  0  0  0
    6.8594   -1.9916   -1.7898 C   0  0  0  0  0  0  0  0  0  0  0  0
    7.7036   -2.5302   -0.6362 C   0  0  0  0  0  0  0  0  0  0  0  0
    8.7694   -1.5787   -0.0714 C   0  0  0  0  0  0  0  0  0  0  0  0
    9.8829   -1.3520   -1.0074 N   0  0  0  0  0  0  0  0  0  0  0  0
   11.1726   -1.2834   -0.2880 C   0  0  0  0  0  0  0  0  0  0  0  0
   12.2809   -0.6773   -1.1620 C   0  0  0  0  0  0  0  0  0  0  0  0
   12.0183    0.6837   -1.5363 O   0  0  0  0  0  0  0  0  0  0  0  0
   10.6261    1.0188   -1.4939 C   0  0  0  0  0  0  0  0  0  0  0  0
    9.7081   -0.1593   -1.8623 C   0  0  0  0  0  0  0  0  0  0  0  0
    2.8152    1.9789    0.2915 C   0  0  0  0  0  0  0  0  0  0  0  0
    1.7101    2.3802    1.0498 C   0  0  0  0  0  0  0  0  0  0  0  0
   -2.3807    0.8134    3.2577 C   0  0  0  0  0  0  0  0  0  0  0  0
   -3.6672    0.3665    2.9359 C   0  0  0  0  0  0  0  0  0  0  0  0
   -7.6448   -0.1472    0.3165 H   0  0  0  0  0  0  0  0  0  0  0  0
   -8.8827   -1.4002    2.6668 H   0  0  0  0  0  0  0  0  0  0  0  0
   -9.1713    0.3249    2.3784 H   0  0  0  0  0  0  0  0  0  0  0  0
  -10.9681   -1.0817    1.3854 H   0  0  0  0  0  0  0  0  0  0  0  0
   -9.8050   -1.9648    0.4156 H   0  0  0  0  0  0  0  0  0  0  0  0
  -11.0785   -0.1425   -0.8401 H   0  0  0  0  0  0  0  0  0  0  0  0
  -10.3975    1.0384    0.2718 H   0  0  0  0  0  0  0  0  0  0  0  0
   -8.6525   -1.8120   -1.4731 H   0  0  0  0  0  0  0  0  0  0  0  0
   -9.7322   -1.0187   -2.6374 H   0  0  0  0  0  0  0  0  0  0  0  0
   -6.6978   -0.5800   -2.4002 H   0  0  0  0  0  0  0  0  0  0  0  0
   -7.5203   -1.5002   -3.6651 H   0  0  0  0  0  0  0  0  0  0  0  0
   -8.1372    2.5431   -3.5281 H   0  0  0  0  0  0  0  0  0  0  0  0
   -7.0337    1.8393   -2.3437 H   0  0  0  0  0  0  0  0  0  0  0  0
  -10.0749    1.4357   -2.5110 H   0  0  0  0  0  0  0  0  0  0  0  0
   -9.1890    2.3707   -1.2726 H   0  0  0  0  0  0  0  0  0  0  0  0
   -5.6650    0.2324    0.2575 H   0  0  0  0  0  0  0  0  0  0  0  0
   -3.6202    1.0465   -0.3971 H   0  0  0  0  0  0  0  0  0  0  0  0
   -1.3631    1.7934    0.1673 H   0  0  0  0  0  0  0  0  0  0  0  0
    0.0566    1.6361    3.6956 H   0  0  0  0  0  0  0  0  0  0  0  0
   -0.2617    2.9897    2.6372 H   0  0  0  0  0  0  0  0  0  0  0  0
    0.8217   -0.6549    2.3166 H   0  0  0  0  0  0  0  0  0  0  0  0
    2.7448   -1.3524    0.9978 H   0  0  0  0  0  0  0  0  0  0  0  0
    4.8323    1.0993   -0.9323 H   0  0  0  0  0  0  0  0  0  0  0  0
    5.9988   -0.1257   -2.1919 H   0  0  0  0  0  0  0  0  0  0  0  0
    6.1578   -2.7702   -2.1230 H   0  0  0  0  0  0  0  0  0  0  0  0
    7.4932   -1.7411   -2.6460 H   0  0  0  0  0  0  0  0  0  0  0  0
    7.0482   -2.8259    0.1915 H   0  0  0  0  0  0  0  0  0  0  0  0
    8.1973   -3.4546   -0.9709 H   0  0  0  0  0  0  0  0  0  0  0  0
    8.3322   -0.6345    0.2771 H   0  0  0  0  0  0  0  0  0  0  0  0
    9.1504   -2.0763    0.8342 H   0  0  0  0  0  0  0  0  0  0  0  0
   11.4702   -2.2937    0.0177 H   0  0  0  0  0  0  0  0  0  0  0  0
   11.0758   -0.6740    0.6190 H   0  0  0  0  0  0  0  0  0  0  0  0
   13.2353   -0.6847   -0.6245 H   0  0  0  0  0  0  0  0  0  0  0  0
   12.4164   -1.2640   -2.0771 H   0  0  0  0  0  0  0  0  0  0  0  0
   10.4680    1.8446   -2.1932 H   0  0  0  0  0  0  0  0  0  0  0  0
   10.3930    1.3977   -0.4920 H   0  0  0  0  0  0  0  0  0  0  0  0
    9.9550   -0.4725   -2.8849 H   0  0  0  0  0  0  0  0  0  0  0  0
    8.6697    0.1880   -1.8774 H   0  0  0  0  0  0  0  0  0  0  0  0
    3.3642    2.7361   -0.2626 H   0  0  0  0  0  0  0  0  0  0  0  0
    1.4268    3.4300    1.0602 H   0  0  0  0  0  0  0  0  0  0  0  0
   -2.0491    0.7440    4.2943 H   0  0  0  0  0  0  0  0  0  0  0  0
   -4.2856   -0.0523    3.7278 H   0  0  0  0  0  0  0  0  0  0  0  0
  1  2  2  0
  2  3  1  0
  3  4  1  0
  4  5  1  0
  5  6  1  0
  6  7  1  0
  7  8  1  0
  8  9  1  0
  9 10  1  0
 10 11  1  0
 11 12  1  0
  2 13  1  0
 13 14  1  0
 14 15  2  0
 15 16  1  0
 16 17  2  0
 17 18  1  0
 18 19  1  0
 19 20  2  0
 20 21  1  0
 21 22  2  0
 22 23  1  0
 23 24  1  0
 24 25  2  0
 24 26  1  0
 26 27  1  0
 27 28  1  0
 28 29  1  0
 29 30  1  0
 30 31  1  0
 31 32  1  0
 32 33  1  0
 33 34  1  0
 34 35  1  0
 22 36  1  0
 36 37  2  0
 17 38  1  0
 38 39  2  0
 12  7  1  0
 39 14  1  0
 37 19  1  0
 35 30  1  0
  3 40  1  0
  4 41  1  0
  4 42  1  0
  5 43  1  0
  5 44  1  0
  6 45  1  0
  6 46  1  0
  8 47  1  0
  8 48  1  0
  9 49  1  0
  9 50  1  0
 11 51  1  0
 11 52  1  0
 12 53  1  0
 12 54  1  0
 13 55  1  0
 15 56  1  0
 16 57  1  0
 18 58  1  0
 18 59  1  0
 20 60  1  0
 21 61  1  0
 23 62  1  0
 26 63  1  0
 27 64  1  0
 27 65  1  0
 28 66  1  0
 28 67  1  0
 29 68  1  0
 29 69  1  0
 31 70  1  0
 31 71  1  0
 32 72  1  0
 32 73  1  0
 34 74  1  0
 34 75  1  0
 35 76  1  0
 35 77  1  0
 36 78  1  0
 37 79  1  0
 38 80  1  0
 39 81  1  0
M  END
$$$$
