
     RDKit          3D

 39 41  0  0  0  0  0  0  0  0999 V2000
    1.0873   -3.1138    0.9460 S   0  0  0  0  0  0  0  0  0  0  0  0
    0.4217   -1.5807    0.7901 C   0  0  0  0  0  0  0  0  0  0  0  0
    1.1400   -0.4138    0.9965 N   0  0  0  0  0  0  0  0  0  0  0  0
    2.5406   -0.3343    1.4153 C   0  0  0  0  0  0  0  0  0  0  0  0
    3.1264    1.0731    1.2252 C   0  0  0  0  0  0  0  0  0  0  0  0
    3.3152    1.4558   -0.2373 C   0  0  0  0  0  0  0  0  0  0  0  0
    4.7284    1.0089   -0.5165 C   0  0  0  0  0  0  0  0  0  0  0  0
    5.4147    1.3033    0.7979 C   0  0  0  0  0  0  0  0  0  0  0  0
    4.4343    1.1197    1.8286 O   0  0  0  0  0  0  0  0  0  0  0  0
   -0.9181   -1.3153    0.4358 N   0  0  0  0  0  0  0  0  0  0  0  0
   -1.9197   -2.3915    0.4097 C   0  0  0  0  0  0  0  0  0  0  0  0
   -3.3194   -1.8585    0.7083 C   0  0  0  0  0  0  0  0  0  0  0  0
   -3.6693   -0.6839   -0.1636 C   0  0  0  0  0  0  0  0  0  0  0  0
   -5.0117   -0.3405   -0.3749 C   0  0  0  0  0  0  0  0  0  0  0  0
   -5.3423    0.7633   -1.1596 C   0  0  0  0  0  0  0  0  0  0  0  0
   -4.3359    1.5362   -1.7319 C   0  0  0  0  0  0  0  0  0  0  0  0
   -2.9972    1.2090   -1.5148 C   0  0  0  0  0  0  0  0  0  0  0  0
   -2.6496    0.1040   -0.7213 C   0  0  0  0  0  0  0  0  0  0  0  0
   -1.1886   -0.2251   -0.5169 C   0  0  0  0  0  0  0  0  0  0  0  0
    0.5560    0.3174    1.3817 H   0  0  0  0  0  0  0  0  0  0  0  0
    2.5854   -0.6166    2.4740 H   0  0  0  0  0  0  0  0  0  0  0  0
    3.1379   -1.0709    0.8675 H   0  0  0  0  0  0  0  0  0  0  0  0
    2.4889    1.8051    1.7340 H   0  0  0  0  0  0  0  0  0  0  0  0
    3.2566    2.5466   -0.3389 H   0  0  0  0  0  0  0  0  0  0  0  0
    2.5783    1.0182   -0.9163 H   0  0  0  0  0  0  0  0  0  0  0  0
    5.1916    1.5225   -1.3630 H   0  0  0  0  0  0  0  0  0  0  0  0
    4.7476   -0.0682   -0.7184 H   0  0  0  0  0  0  0  0  0  0  0  0
    6.2706    0.6481    0.9823 H   0  0  0  0  0  0  0  0  0  0  0  0
    5.7550    2.3434    0.8426 H   0  0  0  0  0  0  0  0  0  0  0  0
   -1.8786   -2.8627   -0.5807 H   0  0  0  0  0  0  0  0  0  0  0  0
   -1.6852   -3.1563    1.1563 H   0  0  0  0  0  0  0  0  0  0  0  0
   -4.0456   -2.6674    0.5668 H   0  0  0  0  0  0  0  0  0  0  0  0
   -3.3749   -1.5334    1.7546 H   0  0  0  0  0  0  0  0  0  0  0  0
   -5.8070   -0.9335    0.0713 H   0  0  0  0  0  0  0  0  0  0  0  0
   -6.3856    1.0205   -1.3233 H   0  0  0  0  0  0  0  0  0  0  0  0
   -4.5935    2.3953   -2.3458 H   0  0  0  0  0  0  0  0  0  0  0  0
   -2.2227    1.8235   -1.9688 H   0  0  0  0  0  0  0  0  0  0  0  0
   -0.7591   -0.5338   -1.4788 H   0  0  0  0  0  0  0  0  0  0  0  0
   -0.6726    0.6866   -0.2006 H   0  0  0  0  0  0  0  0  0  0  0  0
  1  2  2  0
  2  3  1  0
  3  4  1  0
  4  5  1  0
  5  6  1  0
  6  7  1  0
  7  8  1  0
  8  9  1  0
  2 10  1  0
 10 11  1  0
 11 12  1  0
 12 13  1  0
 13 14  2  0
 14 15  1  0
 15 16  2  0
 16 17  1  0
 17 18  2  0
 18 19  1  0
  9  5  1  0
 19 10  1  0
 18 13  1  0
  3 20  1  0
  4 21  1  0
  4 22  1  0
  5 23  1  0
  6 24  1  0
  6 25  1  0
  7 26  1  0
  7 27  1  0
  8 28  1  0
  8 29  1  0
 11 30  1  0
 11 31  1  0
 12 32  1  0
 12 33  1  0
 14 34  1  0
 15 35  1  0
 16 36  1  0
 17 37  1  0
 19 38  1  0
 19 39  1  0
M  END
$$$$
