
     RDKit          3D

 46 48  0  0  0  0  0  0  0  0999 V2000
    7.1716    0.1413   -2.3637 C   0  0  0  0  0  0  0  0  0  0  0  0
    6.0326   -0.5890   -1.9254 O   0  0  0  0  0  0  0  0  0  0  0  0
    6.1724   -1.0950   -0.5962 C   0  0  0  0  0  0  0  0  0  0  0  0
    5.6866   -0.0812    0.4505 C   0  0  0  0  0  0  0  0  0  0  0  0
    4.2539    0.2032    0.3197 N   0  0  0  0  0  0  0  0  0  0  0  0
    3.3572   -0.7509    0.7686 C   0  0  0  0  0  0  0  0  0  0  0  0
    3.6496   -1.8032    1.3220 O   0  0  0  0  0  0  0  0  0  0  0  0
    1.9628   -0.3228    0.4920 C   0  0  0  0  0  0  0  0  0  0  0  0
    0.9117   -1.0760    0.8407 C   0  0  0  0  0  0  0  0  0  0  0  0
   -0.4953   -0.7256    0.6143 C   0  0  0  0  0  0  0  0  0  0  0  0
   -1.0389   -0.8924   -0.6610 C   0  0  0  0  0  0  0  0  0  0  0  0
   -2.3782   -0.5700   -0.9133 C   0  0  0  0  0  0  0  0  0  0  0  0
   -3.2248   -0.0719    0.0855 C   0  0  0  0  0  0  0  0  0  0  0  0
   -4.5390    0.2440   -0.1667 N   0  0  0  0  0  0  0  0  0  0  0  0
   -5.4189    0.9233    0.7815 C   0  0  0  0  0  0  0  0  0  0  0  0
   -6.6169    1.3476   -0.0646 C   0  0  0  0  0  0  0  0  0  0  0  0
   -6.6843    0.2688   -1.1309 C   0  0  0  0  0  0  0  0  0  0  0  0
   -5.2138   -0.0002   -1.4392 C   0  0  0  0  0  0  0  0  0  0  0  0
   -2.6553    0.0818    1.3611 C   0  0  0  0  0  0  0  0  0  0  0  0
   -1.3104   -0.2366    1.6447 C   0  0  0  0  0  0  0  0  0  0  0  0
   -0.7851   -0.0339    3.0398 C   0  0  0  0  0  0  0  0  0  0  0  0
    1.9571    1.2068   -0.2853 S   0  0  0  0  0  0  0  0  0  0  0  0
    3.7145    1.3253   -0.2747 C   0  0  0  0  0  0  0  0  0  0  0  0
    4.5052    2.6623   -0.8857 S   0  0  0  0  0  0  0  0  0  0  0  0
    7.3937    0.9721   -1.6887 H   0  0  0  0  0  0  0  0  0  0  0  0
    6.9590    0.5447   -3.3574 H   0  0  0  0  0  0  0  0  0  0  0  0
    8.0388   -0.5220   -2.4368 H   0  0  0  0  0  0  0  0  0  0  0  0
    5.5731   -2.0096   -0.5425 H   0  0  0  0  0  0  0  0  0  0  0  0
    7.2129   -1.3804   -0.4011 H   0  0  0  0  0  0  0  0  0  0  0  0
    6.2618    0.8449    0.3789 H   0  0  0  0  0  0  0  0  0  0  0  0
    5.8589   -0.4979    1.4500 H   0  0  0  0  0  0  0  0  0  0  0  0
    1.0652   -2.0284    1.3450 H   0  0  0  0  0  0  0  0  0  0  0  0
   -0.4286   -1.2719   -1.4773 H   0  0  0  0  0  0  0  0  0  0  0  0
   -2.7430   -0.7107   -1.9265 H   0  0  0  0  0  0  0  0  0  0  0  0
   -4.9519    1.8027    1.2380 H   0  0  0  0  0  0  0  0  0  0  0  0
   -5.7313    0.2276    1.5686 H   0  0  0  0  0  0  0  0  0  0  0  0
   -6.4220    2.3212   -0.5306 H   0  0  0  0  0  0  0  0  0  0  0  0
   -7.5366    1.4266    0.5217 H   0  0  0  0  0  0  0  0  0  0  0  0
   -7.2481    0.5774   -2.0155 H   0  0  0  0  0  0  0  0  0  0  0  0
   -7.1543   -0.6332   -0.7205 H   0  0  0  0  0  0  0  0  0  0  0  0
   -5.0847   -1.0278   -1.7953 H   0  0  0  0  0  0  0  0  0  0  0  0
   -4.8477    0.6981   -2.2006 H   0  0  0  0  0  0  0  0  0  0  0  0
   -3.2709    0.4537    2.1761 H   0  0  0  0  0  0  0  0  0  0  0  0
   -1.5693    0.3176    3.7188 H   0  0  0  0  0  0  0  0  0  0  0  0
   -0.4018   -0.9762    3.4444 H   0  0  0  0  0  0  0  0  0  0  0  0
    0.0123    0.7162    3.0405 H   0  0  0  0  0  0  0  0  0  0  0  0
  1  2  1  0
  2  3  1  0
  3  4  1  0
  4  5  1  0
  5  6  1  0
  6  7  2  0
  6  8  1  0
  8  9  2  3
  9 10  1  0
 10 11  2  0
 11 12  1  0
 12 13  2  0
 13 14  1  0
 14 15  1  0
 15 16  1  0
 16 17  1  0
 17 18  1  0
 13 19  1  0
 19 20  2  0
 20 21  1  0
  8 22  1  0
 22 23  1  0
 23 24  2  0
 23  5  1  0
 20 10  1  0
 18 14  1  0
  1 25  1  0
  1 26  1  0
  1 27  1  0
  3 28  1  0
  3 29  1  0
  4 30  1  0
  4 31  1  0
  9 32  1  0
 11 33  1  0
 12 34  1  0
 15 35  1  0
 15 36  1  0
 16 37  1  0
 16 38  1  0
 17 39  1  0
 17 40  1  0
 18 41  1  0
 18 42  1  0
 19 43  1  0
 21 44  1  0
 21 45  1  0
 21 46  1  0
M  END
$$$$
