
     RDKit          3D

 55 58  0  0  0  0  0  0  0  0999 V2000
   -7.9081    0.6877   -0.2157 C   0  0  0  0  0  0  0  0  0  0  0  0
   -6.9012   -0.2845   -0.4587 O   0  0  0  0  0  0  0  0  0  0  0  0
   -5.6051    0.0685   -0.1860 C   0  0  0  0  0  0  0  0  0  0  0  0
   -5.2121    1.2726    0.3968 C   0  0  0  0  0  0  0  0  0  0  0  0
   -3.8567    1.5330    0.6377 C   0  0  0  0  0  0  0  0  0  0  0  0
   -2.8518    0.6076    0.3045 C   0  0  0  0  0  0  0  0  0  0  0  0
   -1.4280    0.9169    0.5604 C   0  0  0  0  0  0  0  0  0  0  0  0
   -0.4754   -0.0542    0.8138 C   0  0  0  0  0  0  0  0  0  0  0  0
    0.8414    0.3504    1.0304 C   0  0  0  0  0  0  0  0  0  0  0  0
    1.8271   -0.7190    1.2741 C   0  0  0  0  0  0  0  0  0  0  0  0
    1.7269   -1.3539    2.3204 O   0  0  0  0  0  0  0  0  0  0  0  0
    2.8129   -0.9608    0.3134 N   0  0  0  0  0  0  0  0  0  0  0  0
    2.7093   -0.5257   -1.0780 C   0  0  0  0  0  0  0  0  0  0  0  0
    4.0632   -0.0978   -1.6401 C   0  0  0  0  0  0  0  0  0  0  0  0
    5.2569   -0.6398   -0.8535 C   0  0  0  0  0  0  0  0  0  0  0  0
    5.0184   -2.0301   -0.2561 C   0  0  0  0  0  0  0  0  0  0  0  0
    5.0105   -3.1272   -1.3062 C   0  0  0  0  0  0  0  0  0  0  0  0
    3.9958   -2.9934   -2.1843 F   0  0  0  0  0  0  0  0  0  0  0  0
    4.8967   -4.3448   -0.7307 F   0  0  0  0  0  0  0  0  0  0  0  0
    6.1635   -3.1243   -2.0122 F   0  0  0  0  0  0  0  0  0  0  0  0
    3.7342   -2.0673    0.5791 C   0  0  0  0  0  0  0  0  0  0  0  0
    1.2020    1.7124    1.0457 C   0  0  0  0  0  0  0  0  0  0  0  0
    2.5047    2.2046    1.3130 C   0  0  0  0  0  0  0  0  0  0  0  0
    2.7712    3.5716    1.2952 C   0  0  0  0  0  0  0  0  0  0  0  0
    1.7441    4.4619    1.0167 C   0  0  0  0  0  0  0  0  0  0  0  0
    0.4575    3.9787    0.7651 C   0  0  0  0  0  0  0  0  0  0  0  0
    0.1649    2.6212    0.7794 C   0  0  0  0  0  0  0  0  0  0  0  0
   -1.1003    2.2342    0.5384 N   0  0  0  0  0  0  0  0  0  0  0  0
   -3.2643   -0.5993   -0.2882 C   0  0  0  0  0  0  0  0  0  0  0  0
   -4.6213   -0.8776   -0.5116 C   0  0  0  0  0  0  0  0  0  0  0  0
   -5.0349   -2.0415   -1.1157 O   0  0  0  0  0  0  0  0  0  0  0  0
   -4.4076   -3.2150   -0.6075 C   0  0  0  0  0  0  0  0  0  0  0  0
   -7.7348    1.5956   -0.8026 H   0  0  0  0  0  0  0  0  0  0  0  0
   -8.8656    0.2647   -0.5342 H   0  0  0  0  0  0  0  0  0  0  0  0
   -7.9848    0.9147    0.8524 H   0  0  0  0  0  0  0  0  0  0  0  0
   -5.9298    2.0349    0.6797 H   0  0  0  0  0  0  0  0  0  0  0  0
   -3.5835    2.4845    1.0938 H   0  0  0  0  0  0  0  0  0  0  0  0
   -0.7312   -1.1072    0.8620 H   0  0  0  0  0  0  0  0  0  0  0  0
    1.9864    0.2823   -1.2115 H   0  0  0  0  0  0  0  0  0  0  0  0
    2.3107   -1.3760   -1.6437 H   0  0  0  0  0  0  0  0  0  0  0  0
    4.1256    0.9976   -1.6474 H   0  0  0  0  0  0  0  0  0  0  0  0
    4.1275   -0.4075   -2.6900 H   0  0  0  0  0  0  0  0  0  0  0  0
    5.4679    0.0542   -0.0284 H   0  0  0  0  0  0  0  0  0  0  0  0
    6.1512   -0.6341   -1.4873 H   0  0  0  0  0  0  0  0  0  0  0  0
    5.8602   -2.2575    0.4115 H   0  0  0  0  0  0  0  0  0  0  0  0
    3.1781   -3.0026    0.4413 H   0  0  0  0  0  0  0  0  0  0  0  0
    4.0067   -2.0245    1.6414 H   0  0  0  0  0  0  0  0  0  0  0  0
    3.3192    1.5211    1.5455 H   0  0  0  0  0  0  0  0  0  0  0  0
    3.7734    3.9375    1.5033 H   0  0  0  0  0  0  0  0  0  0  0  0
    1.9341    5.5321    1.0010 H   0  0  0  0  0  0  0  0  0  0  0  0
   -0.3437    4.6844    0.5553 H   0  0  0  0  0  0  0  0  0  0  0  0
   -2.5208   -1.3183   -0.6172 H   0  0  0  0  0  0  0  0  0  0  0  0
   -4.3205   -3.1933    0.4848 H   0  0  0  0  0  0  0  0  0  0  0  0
   -3.4273   -3.3602   -1.0723 H   0  0  0  0  0  0  0  0  0  0  0  0
   -5.0336   -4.0712   -0.8767 H   0  0  0  0  0  0  0  0  0  0  0  0
  1  2  1  0
  2  3  1  0
  3  4  2  0
  4  5  1  0
  5  6  2  0
  6  7  1  0
  7  8  2  0
  8  9  1  0
  9 10  1  0
 10 11  2  0
 10 12  1  0
 12 13  1  0
 13 14  1  0
 14 15  1  0
 15 16  1  0
 16 17  1  0
 17 18  1  0
 17 19  1  0
 17 20  1  0
 16 21  1  0
  9 22  2  0
 22 23  1  0
 23 24  2  0
 24 25  1  0
 25 26  2  0
 26 27  1  0
 27 28  2  0
  6 29  1  0
 29 30  2  0
 30 31  1  0
 31 32  1  0
 30  3  1  0
 28  7  1  0
 21 12  1  0
 27 22  1  0
  1 33  1  0
  1 34  1  0
  1 35  1  0
  4 36  1  0
  5 37  1  0
  8 38  1  0
 13 39  1  0
 13 40  1  0
 14 41  1  0
 14 42  1  0
 15 43  1  0
 15 44  1  0
 16 45  1  0
 21 46  1  0
 21 47  1  0
 23 48  1  0
 24 49  1  0
 25 50  1  0
 26 51  1  0
 29 52  1  0
 32 53  1  0
 32 54  1  0
 32 55  1  0
M  END
$$$$
