
     RDKit          3D

 72 74  0  0  0  0  0  0  0  0999 V2000
    6.8855    1.5551   -4.1685 C   0  0  0  0  0  0  0  0  0  0  0  0
    7.7000    0.4055   -3.5978 C   0  0  0  0  0  0  0  0  0  0  0  0
    8.5326    0.8010   -2.3790 C   0  0  0  0  0  0  0  0  0  0  0  0
    7.7519    1.2466   -1.1364 C   0  0  0  0  0  0  0  0  0  0  0  0
    6.9174    0.1393   -0.4808 C   0  0  0  0  0  0  0  0  0  0  0  0
    5.4392    0.1112   -0.8816 C   0  0  0  0  0  0  0  0  0  0  0  0
    4.6388    1.2838   -0.3068 C   0  0  0  0  0  0  0  0  0  0  0  0
    3.1571    1.1772   -0.6816 C   0  0  0  0  0  0  0  0  0  0  0  0
    2.3448    2.3126   -0.0566 C   0  0  0  0  0  0  0  0  0  0  0  0
    0.8636    2.2117   -0.4060 C   0  0  0  0  0  0  0  0  0  0  0  0
    0.3111    1.0376    0.2175 O   0  0  0  0  0  0  0  0  0  0  0  0
   -0.4035    0.1958   -0.5746 C   0  0  0  0  0  0  0  0  0  0  0  0
   -0.6486    0.3544   -1.7641 O   0  0  0  0  0  0  0  0  0  0  0  0
   -0.9408   -0.9730    0.2332 C   0  0  0  0  0  0  0  0  0  0  0  0
   -2.0015   -0.5367    1.1620 N   0  0  0  0  0  0  0  0  0  0  0  0
   -3.1840    0.0129    0.7840 C   0  0  0  0  0  0  0  0  0  0  0  0
   -3.7341    0.1179   -0.6349 C   0  0  0  0  0  0  0  0  0  0  0  0
   -5.1524    0.0158   -0.7034 O   0  0  0  0  0  0  0  0  0  0  0  0
   -5.7257   -1.2030   -0.4672 C   0  0  0  0  0  0  0  0  0  0  0  0
   -5.0699   -2.4316   -0.4218 C   0  0  0  0  0  0  0  0  0  0  0  0
   -5.7929   -3.5979   -0.1562 C   0  0  0  0  0  0  0  0  0  0  0  0
   -7.1682   -3.5417    0.0689 C   0  0  0  0  0  0  0  0  0  0  0  0
   -7.8383   -2.3174    0.0262 C   0  0  0  0  0  0  0  0  0  0  0  0
   -9.3247   -2.2516    0.2215 C   0  0  0  0  0  0  0  0  0  0  0  0
   -7.1093   -1.1569   -0.2639 C   0  0  0  0  0  0  0  0  0  0  0  0
   -3.7625    0.4934    1.9117 N   0  0  0  0  0  4  0  0  0  0  0  0
   -4.9934    1.2832    1.9464 C   0  0  0  0  0  0  0  0  0  0  0  0
   -3.0480    0.0838    3.0310 C   0  0  0  0  0  0  0  0  0  0  0  0
   -3.2910    0.2477    4.3943 C   0  0  0  0  0  0  0  0  0  0  0  0
   -2.3314   -0.2892    5.2620 C   0  0  0  0  0  0  0  0  0  0  0  0
   -1.1871   -0.9513    4.7780 C   0  0  0  0  0  0  0  0  0  0  0  0
   -0.9509   -1.1080    3.4060 C   0  0  0  0  0  0  0  0  0  0  0  0
   -1.9144   -0.5758    2.5505 C   0  0  0  0  0  0  0  0  0  0  0  0
    6.0949    1.8709   -3.4801 H   0  0  0  0  0  0  0  0  0  0  0  0
    7.5244    2.4186   -4.3839 H   0  0  0  0  0  0  0  0  0  0  0  0
    6.4053    1.2511   -5.1062 H   0  0  0  0  0  0  0  0  0  0  0  0
    8.3868    0.0516   -4.3746 H   0  0  0  0  0  0  0  0  0  0  0  0
    7.0433   -0.4398   -3.3649 H   0  0  0  0  0  0  0  0  0  0  0  0
    9.2124    1.6130   -2.6690 H   0  0  0  0  0  0  0  0  0  0  0  0
    9.1749   -0.0452   -2.1065 H   0  0  0  0  0  0  0  0  0  0  0  0
    8.5034    1.5705   -0.4008 H   0  0  0  0  0  0  0  0  0  0  0  0
    7.1500    2.1321   -1.3581 H   0  0  0  0  0  0  0  0  0  0  0  0
    6.9706    0.2650    0.6080 H   0  0  0  0  0  0  0  0  0  0  0  0
    7.3645   -0.8382   -0.6933 H   0  0  0  0  0  0  0  0  0  0  0  0
    5.0051   -0.8244   -0.5018 H   0  0  0  0  0  0  0  0  0  0  0  0
    5.3299    0.0842   -1.9701 H   0  0  0  0  0  0  0  0  0  0  0  0
    4.7403    1.2926    0.7863 H   0  0  0  0  0  0  0  0  0  0  0  0
    5.0338    2.2374   -0.6759 H   0  0  0  0  0  0  0  0  0  0  0  0
    2.7651    0.2093   -0.3467 H   0  0  0  0  0  0  0  0  0  0  0  0
    3.0518    1.2110   -1.7725 H   0  0  0  0  0  0  0  0  0  0  0  0
    2.4653    2.2783    1.0326 H   0  0  0  0  0  0  0  0  0  0  0  0
    2.7308    3.2768   -0.4044 H   0  0  0  0  0  0  0  0  0  0  0  0
    0.7277    2.2206   -1.4918 H   0  0  0  0  0  0  0  0  0  0  0  0
    0.3323    3.0755    0.0068 H   0  0  0  0  0  0  0  0  0  0  0  0
   -1.3538   -1.7279   -0.4416 H   0  0  0  0  0  0  0  0  0  0  0  0
   -0.1111   -1.4390    0.7693 H   0  0  0  0  0  0  0  0  0  0  0  0
   -3.2336   -0.6124   -1.2737 H   0  0  0  0  0  0  0  0  0  0  0  0
   -3.4455    1.1219   -0.9602 H   0  0  0  0  0  0  0  0  0  0  0  0
   -4.0103   -2.5395   -0.6138 H   0  0  0  0  0  0  0  0  0  0  0  0
   -5.2876   -4.5611   -0.1363 H   0  0  0  0  0  0  0  0  0  0  0  0
   -7.7167   -4.4617    0.2645 H   0  0  0  0  0  0  0  0  0  0  0  0
   -9.6104   -1.3071    0.6962 H   0  0  0  0  0  0  0  0  0  0  0  0
   -9.6706   -3.0577    0.8740 H   0  0  0  0  0  0  0  0  0  0  0  0
   -9.8343   -2.3294   -0.7436 H   0  0  0  0  0  0  0  0  0  0  0  0
   -7.6273   -0.2025   -0.3306 H   0  0  0  0  0  0  0  0  0  0  0  0
   -5.0128    1.9134    2.8393 H   0  0  0  0  0  0  0  0  0  0  0  0
   -5.0386    1.9397    1.0743 H   0  0  0  0  0  0  0  0  0  0  0  0
   -5.8497    0.6069    1.9634 H   0  0  0  0  0  0  0  0  0  0  0  0
   -4.1716    0.7585    4.7658 H   0  0  0  0  0  0  0  0  0  0  0  0
   -2.4728   -0.1939    6.3399 H   0  0  0  0  0  0  0  0  0  0  0  0
   -0.4669   -1.3514    5.4917 H   0  0  0  0  0  0  0  0  0  0  0  0
   -0.0686   -1.6199    3.0417 H   0  0  0  0  0  0  0  0  0  0  0  0
  1  2  1  0
  2  3  1  0
  3  4  1  0
  4  5  1  0
  5  6  1  0
  6  7  1  0
  7  8  1  0
  8  9  1  0
  9 10  1  0
 10 11  1  0
 11 12  1  0
 12 13  2  0
 12 14  1  0
 14 15  1  0
 15 16  1  0
 16 17  1  0
 17 18  1  0
 18 19  1  0
 19 20  2  0
 20 21  1  0
 21 22  2  0
 22 23  1  0
 23 24  1  0
 23 25  2  0
 16 26  2  0
 26 27  1  0
 26 28  1  0
 28 29  2  0
 29 30  1  0
 30 31  2  0
 31 32  1  0
 32 33  2  0
 33 15  1  0
 25 19  1  0
 33 28  1  0
  1 34  1  0
  1 35  1  0
  1 36  1  0
  2 37  1  0
  2 38  1  0
  3 39  1  0
  3 40  1  0
  4 41  1  0
  4 42  1  0
  5 43  1  0
  5 44  1  0
  6 45  1  0
  6 46  1  0
  7 47  1  0
  7 48  1  0
  8 49  1  0
  8 50  1  0
  9 51  1  0
  9 52  1  0
 10 53  1  0
 10 54  1  0
 14 55  1  0
 14 56  1  0
 17 57  1  0
 17 58  1  0
 20 59  1  0
 21 60  1  0
 22 61  1  0
 24 62  1  0
 24 63  1  0
 24 64  1  0
 25 65  1  0
 27 66  1  0
 27 67  1  0
 27 68  1  0
 29 69  1  0
 30 70  1  0
 31 71  1  0
 32 72  1  0
M  CHG  1  26   1
M  END
$$$$
