
     RDKit          3D

 60 63  0  0  0  0  0  0  0  0999 V2000
   -7.4074    1.9368   -1.4523 C   0  0  0  0  0  0  0  0  0  0  0  0
   -7.6327    0.4614   -1.1348 C   0  0  0  0  0  0  0  0  0  0  0  0
   -8.9026   -0.0367   -1.8216 C   0  0  0  0  0  0  0  0  0  0  0  0
   -6.5536   -0.3252   -1.6529 O   0  0  0  0  0  0  0  0  0  0  0  0
   -5.4095   -0.4646   -0.9206 C   0  0  0  0  0  0  0  0  0  0  0  0
   -4.4070   -1.2032   -1.5520 C   0  0  0  0  0  0  0  0  0  0  0  0
   -3.1760   -1.4290   -0.9237 C   0  0  0  0  0  0  0  0  0  0  0  0
   -2.9110   -0.9209    0.3594 C   0  0  0  0  0  0  0  0  0  0  0  0
   -1.6232   -1.1493    1.0456 C   0  0  0  0  0  0  0  0  0  0  0  0
   -0.4163   -1.2307    0.3738 C   0  0  0  0  0  0  0  0  0  0  0  0
    0.7460   -1.4623    1.1120 C   0  0  0  0  0  0  0  0  0  0  0  0
    2.0089   -1.4687    0.3359 C   0  0  0  0  0  0  0  0  0  0  0  0
    2.0917   -2.1388   -0.6855 O   0  0  0  0  0  0  0  0  0  0  0  0
    2.9989   -0.6393    0.8096 N   0  0  0  0  0  0  0  0  0  0  0  0
    4.2975   -0.5150    0.1679 C   0  0  0  0  0  0  0  0  0  0  0  0
    4.5424    0.9311   -0.3101 C   0  0  0  0  0  0  0  0  0  0  0  0
    5.8862    1.1336   -0.8762 N   0  0  0  0  0  0  0  0  0  0  0  0
    6.2410    2.5770   -0.8704 C   0  0  0  0  0  0  0  0  0  0  0  0
    7.3463    2.8897   -1.8854 C   0  0  0  0  0  0  0  0  0  0  0  0
    6.9178    2.6719   -3.2380 O   0  0  0  0  0  0  0  0  0  0  0  0
    5.9355    1.6351   -3.3562 C   0  0  0  0  0  0  0  0  0  0  0  0
    6.0243    0.5759   -2.2431 C   0  0  0  0  0  0  0  0  0  0  0  0
    0.6943   -1.6643    2.5104 C   0  0  0  0  0  0  0  0  0  0  0  0
    1.7987   -2.0069    3.3358 C   0  0  0  0  0  0  0  0  0  0  0  0
    1.6495   -2.1664    4.7128 C   0  0  0  0  0  0  0  0  0  0  0  0
    0.3987   -1.9973    5.2860 C   0  0  0  0  0  0  0  0  0  0  0  0
   -0.6955   -1.6869    4.4766 C   0  0  0  0  0  0  0  0  0  0  0  0
   -0.5753   -1.5303    3.1019 C   0  0  0  0  0  0  0  0  0  0  0  0
   -1.6870   -1.2647    2.3962 N   0  0  0  0  0  0  0  0  0  0  0  0
   -3.9380   -0.1904    0.9839 C   0  0  0  0  0  0  0  0  0  0  0  0
   -5.1698    0.0405    0.3538 C   0  0  0  0  0  0  0  0  0  0  0  0
   -6.4825    2.3016   -0.9958 H   0  0  0  0  0  0  0  0  0  0  0  0
   -8.2378    2.5497   -1.0877 H   0  0  0  0  0  0  0  0  0  0  0  0
   -7.3054    2.0941   -2.5323 H   0  0  0  0  0  0  0  0  0  0  0  0
   -7.7679    0.3043   -0.0588 H   0  0  0  0  0  0  0  0  0  0  0  0
   -9.7826    0.5086   -1.4714 H   0  0  0  0  0  0  0  0  0  0  0  0
   -9.0497   -1.1029   -1.6215 H   0  0  0  0  0  0  0  0  0  0  0  0
   -8.8319    0.0662   -2.9104 H   0  0  0  0  0  0  0  0  0  0  0  0
   -4.5842   -1.6126   -2.5442 H   0  0  0  0  0  0  0  0  0  0  0  0
   -2.4340   -2.0268   -1.4519 H   0  0  0  0  0  0  0  0  0  0  0  0
   -0.3584   -1.0979   -0.7031 H   0  0  0  0  0  0  0  0  0  0  0  0
    2.8215   -0.0722    1.6297 H   0  0  0  0  0  0  0  0  0  0  0  0
    5.0463   -0.7944    0.9237 H   0  0  0  0  0  0  0  0  0  0  0  0
    4.3743   -1.2346   -0.6603 H   0  0  0  0  0  0  0  0  0  0  0  0
    4.4260    1.5783    0.5724 H   0  0  0  0  0  0  0  0  0  0  0  0
    3.7630    1.2400   -1.0225 H   0  0  0  0  0  0  0  0  0  0  0  0
    6.5737    2.8582    0.1373 H   0  0  0  0  0  0  0  0  0  0  0  0
    5.3608    3.1898   -1.1210 H   0  0  0  0  0  0  0  0  0  0  0  0
    7.6552    3.9373   -1.7994 H   0  0  0  0  0  0  0  0  0  0  0  0
    8.2334    2.2729   -1.7026 H   0  0  0  0  0  0  0  0  0  0  0  0
    6.0740    1.1643   -4.3347 H   0  0  0  0  0  0  0  0  0  0  0  0
    4.9443    2.1013   -3.3610 H   0  0  0  0  0  0  0  0  0  0  0  0
    7.0149    0.1090   -2.2950 H   0  0  0  0  0  0  0  0  0  0  0  0
    5.2967   -0.2186   -2.4401 H   0  0  0  0  0  0  0  0  0  0  0  0
    2.7837   -2.1778    2.9058 H   0  0  0  0  0  0  0  0  0  0  0  0
    2.5029   -2.4318    5.3322 H   0  0  0  0  0  0  0  0  0  0  0  0
    0.2612   -2.1220    6.3573 H   0  0  0  0  0  0  0  0  0  0  0  0
   -1.6769   -1.5756    4.9345 H   0  0  0  0  0  0  0  0  0  0  0  0
   -3.7804    0.2134    1.9830 H   0  0  0  0  0  0  0  0  0  0  0  0
   -5.9128    0.6162    0.8988 H   0  0  0  0  0  0  0  0  0  0  0  0
  1  2  1  0
  2  3  1  0
  2  4  1  0
  4  5  1  0
  5  6  2  0
  6  7  1  0
  7  8  2  0
  8  9  1  0
  9 10  2  0
 10 11  1  0
 11 12  1  0
 12 13  2  0
 12 14  1  0
 14 15  1  0
 15 16  1  0
 16 17  1  0
 17 18  1  0
 18 19  1  0
 19 20  1  0
 20 21  1  0
 21 22  1  0
 11 23  2  0
 23 24  1  0
 24 25  2  0
 25 26  1  0
 26 27  2  0
 27 28  1  0
 28 29  2  0
  8 30  1  0
 30 31  2  0
 31  5  1  0
 29  9  1  0
 22 17  1  0
 28 23  1  0
  1 32  1  0
  1 33  1  0
  1 34  1  0
  2 35  1  0
  3 36  1  0
  3 37  1  0
  3 38  1  0
  6 39  1  0
  7 40  1  0
 10 41  1  0
 14 42  1  0
 15 43  1  0
 15 44  1  0
 16 45  1  0
 16 46  1  0
 18 47  1  0
 18 48  1  0
 19 49  1  0
 19 50  1  0
 21 51  1  0
 21 52  1  0
 22 53  1  0
 22 54  1  0
 24 55  1  0
 25 56  1  0
 26 57  1  0
 27 58  1  0
 30 59  1  0
 31 60  1  0
M  END
$$$$
