
     RDKit          3D

 53 56  0  0  0  0  0  0  0  0999 V2000
   -0.7007   -0.8857    2.4774 C   0  0  0  0  0  0  0  0  0  0  0  0
    0.0943    0.3768    2.1670 C   0  0  0  0  0  0  0  0  0  0  0  0
    0.2246    0.6044    0.7107 N   0  0  0  0  0  0  0  0  0  0  0  0
    1.1129   -0.1104   -0.1084 C   0  0  0  0  0  0  0  0  0  0  0  0
    1.1225    0.0519   -1.3343 O   0  0  0  0  0  0  0  0  0  0  0  0
    2.0254   -1.1392    0.5580 C   0  0  0  0  0  0  0  0  0  0  0  0
    3.5143   -1.4645   -0.4441 S   0  0  0  0  0  0  0  0  0  0  0  0
    4.2190   -2.7460    0.4813 C   0  0  0  0  0  0  0  0  0  0  0  0
    3.7536   -3.2288    1.6125 N   0  0  0  0  0  0  0  0  0  0  0  0
    4.5907   -4.2462    2.0131 N   0  0  0  0  0  0  0  0  0  0  0  0
    5.5485   -4.3552    1.1169 C   0  0  0  0  0  0  0  0  0  0  0  0
    6.6729   -5.2194    1.0116 C   0  0  0  0  0  0  0  0  0  0  0  0
    7.5137   -5.0920   -0.0339 C   0  0  0  0  0  0  0  0  0  0  0  0
    7.3004   -4.0867   -1.0654 C   0  0  0  0  0  0  0  0  0  0  0  0
    6.2348   -3.2716   -0.9716 C   0  0  0  0  0  0  0  0  0  0  0  0
    5.3658   -3.4095    0.1131 N   0  0  0  0  0  0  0  0  0  0  0  0
   -0.5093    1.6882    0.1793 C   0  0  0  0  0  0  0  0  0  0  0  0
   -1.4035    1.5974   -0.8438 C   0  0  0  0  0  0  0  0  0  0  0  0
   -1.6333    0.3783   -1.4879 N   0  0  0  0  0  0  0  0  0  0  0  0
   -2.1273    2.7300   -1.2359 N   0  0  0  0  0  0  0  0  0  0  0  0
   -3.2670    2.6242   -2.1555 C   0  0  0  0  0  0  0  0  0  0  0  0
   -4.5726    2.3372   -1.4410 C   0  0  0  0  0  0  0  0  0  0  0  0
   -4.9743    1.0192   -1.1807 C   0  0  0  0  0  0  0  0  0  0  0  0
   -6.1739    0.7586   -0.5148 C   0  0  0  0  0  0  0  0  0  0  0  0
   -6.9836    1.8127   -0.0971 C   0  0  0  0  0  0  0  0  0  0  0  0
   -6.5928    3.1271   -0.3410 C   0  0  0  0  0  0  0  0  0  0  0  0
   -5.3939    3.3888   -1.0074 C   0  0  0  0  0  0  0  0  0  0  0  0
   -1.9078    3.9896   -0.6962 C   0  0  0  0  0  0  0  0  0  0  0  0
   -2.5099    5.0105   -1.0269 O   0  0  0  0  0  0  0  0  0  0  0  0
   -0.9558    4.0755    0.2680 N   0  0  0  0  0  0  0  0  0  0  0  0
   -0.2636    3.0342    0.7911 C   0  0  0  0  0  0  0  0  0  0  0  0
    0.5458    3.2124    1.6996 O   0  0  0  0  0  0  0  0  0  0  0  0
   -0.2123   -1.7869    2.1004 H   0  0  0  0  0  0  0  0  0  0  0  0
   -1.6979   -0.8359    2.0270 H   0  0  0  0  0  0  0  0  0  0  0  0
   -0.8210   -0.9972    3.5596 H   0  0  0  0  0  0  0  0  0  0  0  0
   -0.4407    1.2079    2.6392 H   0  0  0  0  0  0  0  0  0  0  0  0
    1.0845    0.3381    2.6278 H   0  0  0  0  0  0  0  0  0  0  0  0
    1.4592   -2.0683    0.6692 H   0  0  0  0  0  0  0  0  0  0  0  0
    2.3718   -0.7876    1.5294 H   0  0  0  0  0  0  0  0  0  0  0  0
    6.8302   -5.9660    1.7817 H   0  0  0  0  0  0  0  0  0  0  0  0
    8.3803   -5.7406   -0.1306 H   0  0  0  0  0  0  0  0  0  0  0  0
    8.0074   -4.0154   -1.8849 H   0  0  0  0  0  0  0  0  0  0  0  0
    6.0169   -2.5029   -1.7023 H   0  0  0  0  0  0  0  0  0  0  0  0
   -0.8350   -0.2434   -1.3468 H   0  0  0  0  0  0  0  0  0  0  0  0
   -1.6944    0.5184   -2.4923 H   0  0  0  0  0  0  0  0  0  0  0  0
   -3.0862    1.8714   -2.9295 H   0  0  0  0  0  0  0  0  0  0  0  0
   -3.3709    3.5619   -2.7173 H   0  0  0  0  0  0  0  0  0  0  0  0
   -4.3512    0.1831   -1.4907 H   0  0  0  0  0  0  0  0  0  0  0  0
   -6.4734   -0.2682   -0.3196 H   0  0  0  0  0  0  0  0  0  0  0  0
   -7.9165    1.6097    0.4224 H   0  0  0  0  0  0  0  0  0  0  0  0
   -7.2196    3.9512   -0.0110 H   0  0  0  0  0  0  0  0  0  0  0  0
   -5.1010    4.4231   -1.1844 H   0  0  0  0  0  0  0  0  0  0  0  0
   -0.8004    4.9857    0.6708 H   0  0  0  0  0  0  0  0  0  0  0  0
  1  2  1  0
  2  3  1  0
  3  4  1  0
  4  5  2  0
  4  6  1  0
  6  7  1  0
  7  8  1  0
  8  9  2  0
  9 10  1  0
 10 11  2  0
 11 12  1  0
 12 13  2  0
 13 14  1  0
 14 15  2  0
 15 16  1  0
  3 17  1  0
 17 18  2  0
 18 19  1  0
 18 20  1  0
 20 21  1  0
 21 22  1  0
 22 23  2  0
 23 24  1  0
 24 25  2  0
 25 26  1  0
 26 27  2  0
 20 28  1  0
 28 29  2  0
 28 30  1  0
 30 31  1  0
 31 32  2  0
 16  8  1  0
 31 17  1  0
 16 11  1  0
 27 22  1  0
  1 33  1  0
  1 34  1  0
  1 35  1  0
  2 36  1  0
  2 37  1  0
  6 38  1  0
  6 39  1  0
 12 40  1  0
 13 41  1  0
 14 42  1  0
 15 43  1  0
 19 44  1  0
 19 45  1  0
 21 46  1  0
 21 47  1  0
 23 48  1  0
 24 49  1  0
 25 50  1  0
 26 51  1  0
 27 52  1  0
 30 53  1  0
M  END
$$$$
