
     RDKit          3D

 35 36  0  0  0  0  0  0  0  0999 V2000
    6.0799   -0.4514   -2.5560 C   0  0  0  0  0  0  0  0  0  0  0  0
    4.6995   -0.3780   -1.9752 C   0  0  0  0  0  0  0  0  0  0  0  0
    4.5156   -0.1870   -0.6030 C   0  0  0  0  0  0  0  0  0  0  0  0
    3.2283   -0.0886   -0.0597 C   0  0  0  0  0  0  0  0  0  0  0  0
    2.1031   -0.1841   -0.8767 C   0  0  0  0  0  0  0  0  0  0  0  0
    0.7708   -0.0685   -0.4226 N   0  0  0  0  0  0  0  0  0  0  0  0
    0.2044   -0.2368    0.8349 C   0  0  0  0  0  0  0  0  0  0  0  0
    0.8729   -1.0029    2.1613 S   0  0  0  0  0  0  0  0  0  0  0  0
   -1.0874    0.2774    0.8152 N   0  0  0  0  0  0  0  0  0  0  0  0
   -1.9792    0.3563    1.9587 C   0  0  0  0  0  0  0  0  0  0  0  0
   -3.3151    0.7668    1.4444 C   0  0  0  0  0  0  0  0  0  0  0  0
   -3.8932    2.0241    1.4039 C   0  0  0  0  0  0  0  0  0  0  0  0
   -5.1727    1.8952    0.8178 C   0  0  0  0  0  0  0  0  0  0  0  0
   -5.3502    0.5649    0.5140 C   0  0  0  0  0  0  0  0  0  0  0  0
   -4.2232   -0.1149    0.8979 N   0  0  0  0  0  0  0  0  0  0  0  0
   -4.0321   -1.5410    0.7386 C   0  0  0  0  0  0  0  0  0  0  0  0
    2.2909   -0.3342   -2.2569 C   0  0  0  0  0  0  0  0  0  0  0  0
    3.5753   -0.4334   -2.8021 C   0  0  0  0  0  0  0  0  0  0  0  0
    6.7800   -0.8997   -1.8432 H   0  0  0  0  0  0  0  0  0  0  0  0
    6.0918   -1.0733   -3.4573 H   0  0  0  0  0  0  0  0  0  0  0  0
    6.4314    0.5523   -2.8140 H   0  0  0  0  0  0  0  0  0  0  0  0
    5.3742   -0.1049    0.0603 H   0  0  0  0  0  0  0  0  0  0  0  0
    3.1481    0.1004    1.0046 H   0  0  0  0  0  0  0  0  0  0  0  0
    0.0799   -0.0085   -1.1592 H   0  0  0  0  0  0  0  0  0  0  0  0
   -1.2406    1.0064    0.1316 H   0  0  0  0  0  0  0  0  0  0  0  0
   -1.5797    1.1038    2.6528 H   0  0  0  0  0  0  0  0  0  0  0  0
   -2.0245   -0.6062    2.4766 H   0  0  0  0  0  0  0  0  0  0  0  0
   -3.4380    2.9388    1.7626 H   0  0  0  0  0  0  0  0  0  0  0  0
   -5.8896    2.6859    0.6383 H   0  0  0  0  0  0  0  0  0  0  0  0
   -6.1885    0.0529    0.0595 H   0  0  0  0  0  0  0  0  0  0  0  0
   -3.9122   -1.9861    1.7293 H   0  0  0  0  0  0  0  0  0  0  0  0
   -3.1436   -1.7075    0.1250 H   0  0  0  0  0  0  0  0  0  0  0  0
   -4.9057   -1.9733    0.2439 H   0  0  0  0  0  0  0  0  0  0  0  0
    1.4399   -0.3891   -2.9308 H   0  0  0  0  0  0  0  0  0  0  0  0
    3.6893   -0.5555   -3.8768 H   0  0  0  0  0  0  0  0  0  0  0  0
  1  2  1  0
  2  3  2  0
  3  4  1  0
  4  5  2  0
  5  6  1  0
  6  7  1  0
  7  8  2  0
  7  9  1  0
  9 10  1  0
 10 11  1  0
 11 12  2  0
 12 13  1  0
 13 14  2  0
 14 15  1  0
 15 16  1  0
  5 17  1  0
 17 18  2  0
 18  2  1  0
 15 11  1  0
  1 19  1  0
  1 20  1  0
  1 21  1  0
  3 22  1  0
  4 23  1  0
  6 24  1  0
  9 25  1  0
 10 26  1  0
 10 27  1  0
 12 28  1  0
 13 29  1  0
 14 30  1  0
 16 31  1  0
 16 32  1  0
 16 33  1  0
 17 34  1  0
 18 35  1  0
M  END
$$$$
