
     RDKit          3D

 44 47  0  0  0  0  0  0  0  0999 V2000
    4.6043    0.1980    0.9316 C   0  0  0  0  0  0  0  0  0  0  0  0
    3.1302    0.6487    0.9315 C   0  0  0  0  0  0  0  0  0  0  0  0
    2.8636    1.3845    2.2541 C   0  0  0  0  0  0  0  0  0  0  0  0
    2.2311   -0.6011    0.8001 C   0  0  0  0  0  0  0  0  0  0  0  0
    1.0327   -0.3830   -0.1350 C   0  0  0  0  0  0  0  0  0  0  0  0
   -0.0513    0.4762    0.5256 C   0  0  0  0  0  0  0  0  0  0  0  0
   -1.2796    0.6104   -0.3843 C   0  0  0  0  0  0  0  0  0  0  0  0
   -2.4146    1.2412    0.4023 C   0  0  0  0  0  0  0  0  0  0  0  0
   -3.1995    0.6858    1.3977 C   0  0  0  0  0  0  0  0  0  0  0  0
   -4.1672    1.6006    1.9027 C   0  0  0  0  0  0  0  0  0  0  0  0
   -4.0884    2.8273    1.2842 C   0  0  0  0  0  0  0  0  0  0  0  0
   -2.8543    2.8736    0.1036 S   0  0  0  0  0  0  0  0  0  0  0  0
   -1.6347   -0.7255   -1.0050 C   0  0  0  0  0  0  0  0  0  0  0  0
   -2.8623   -0.9176   -1.6661 C   0  0  0  0  0  0  0  0  0  0  0  0
   -3.1831   -2.1526   -2.2353 C   0  0  0  0  0  0  0  0  0  0  0  0
   -4.7125   -2.3326   -3.0126 Cl  0  0  0  0  0  0  0  0  0  0  0  0
   -2.2714   -3.2064   -2.1655 C   0  0  0  0  0  0  0  0  0  0  0  0
   -2.5809   -4.4194   -2.7163 O   0  0  0  0  0  0  0  0  0  0  0  0
   -1.0393   -3.0214   -1.5423 C   0  0  0  0  0  0  0  0  0  0  0  0
   -0.7183   -1.7807   -0.9833 C   0  0  0  0  0  0  0  0  0  0  0  0
    0.5282   -1.6963   -0.4300 O   0  0  0  0  0  0  0  0  0  0  0  0
    1.5392    0.1842   -1.3638 N   0  0  0  0  0  0  0  0  0  0  0  0
    2.3502    1.2664   -1.3623 C   0  0  0  0  0  0  0  0  0  0  0  0
    2.5921    2.1753   -2.7257 S   0  0  0  0  0  0  0  0  0  0  0  0
    2.9378    1.5843   -0.1819 N   0  0  0  0  0  0  0  0  0  0  0  0
    4.8061   -0.5040    1.7484 H   0  0  0  0  0  0  0  0  0  0  0  0
    5.2802    1.0535    1.0470 H   0  0  0  0  0  0  0  0  0  0  0  0
    4.8684   -0.2934   -0.0122 H   0  0  0  0  0  0  0  0  0  0  0  0
    3.0365    0.7294    3.1153 H   0  0  0  0  0  0  0  0  0  0  0  0
    1.8367    1.7547    2.3184 H   0  0  0  0  0  0  0  0  0  0  0  0
    3.5217    2.2551    2.3599 H   0  0  0  0  0  0  0  0  0  0  0  0
    2.8241   -1.4312    0.3865 H   0  0  0  0  0  0  0  0  0  0  0  0
    1.9024   -0.9699    1.7806 H   0  0  0  0  0  0  0  0  0  0  0  0
   -0.3428    0.0016    1.4735 H   0  0  0  0  0  0  0  0  0  0  0  0
    0.3106    1.4805    0.7697 H   0  0  0  0  0  0  0  0  0  0  0  0
   -1.0131    1.2692   -1.2233 H   0  0  0  0  0  0  0  0  0  0  0  0
   -3.0902   -0.3355    1.7440 H   0  0  0  0  0  0  0  0  0  0  0  0
   -4.8860    1.3701    2.6796 H   0  0  0  0  0  0  0  0  0  0  0  0
   -4.6971    3.7021    1.4681 H   0  0  0  0  0  0  0  0  0  0  0  0
   -3.5807   -0.1021   -1.7331 H   0  0  0  0  0  0  0  0  0  0  0  0
   -1.8371   -5.0311   -2.5929 H   0  0  0  0  0  0  0  0  0  0  0  0
   -0.3107   -3.8253   -1.4934 H   0  0  0  0  0  0  0  0  0  0  0  0
    1.0620   -0.0315   -2.2297 H   0  0  0  0  0  0  0  0  0  0  0  0
    3.5569    2.3878   -0.2306 H   0  0  0  0  0  0  0  0  0  0  0  0
  1  2  1  0
  2  3  1  0
  2  4  1  0
  4  5  1  0
  5  6  1  0
  6  7  1  0
  7  8  1  0
  8  9  2  0
  9 10  1  0
 10 11  2  0
 11 12  1  0
  7 13  1  0
 13 14  2  0
 14 15  1  0
 15 16  1  0
 15 17  2  0
 17 18  1  0
 17 19  1  0
 19 20  2  0
 20 21  1  0
  5 22  1  0
 22 23  1  0
 23 24  2  0
 23 25  1  0
 25  2  1  0
 21  5  1  0
 12  8  1  0
 20 13  1  0
  1 26  1  0
  1 27  1  0
  1 28  1  0
  3 29  1  0
  3 30  1  0
  3 31  1  0
  4 32  1  0
  4 33  1  0
  6 34  1  0
  6 35  1  0
  7 36  1  0
  9 37  1  0
 10 38  1  0
 11 39  1  0
 14 40  1  0
 18 41  1  0
 19 42  1  0
 22 43  1  0
 25 44  1  0
M  END
$$$$
