
     RDKit          3D

 34 36  0  0  0  0  0  0  0  0999 V2000
   -5.1938    1.6294   -0.2004 C   0  0  0  0  0  0  0  0  0  0  0  0
   -4.0129    0.7218   -0.1817 C   0  0  0  0  0  0  0  0  0  0  0  0
   -2.6827    1.0418   -0.3384 C   0  0  0  0  0  0  0  0  0  0  0  0
   -1.8092   -0.1021   -0.2591 C   0  0  0  0  0  0  0  0  0  0  0  0
   -0.2974   -0.0463   -0.4057 C   0  0  0  0  0  0  0  0  0  0  0  0
    0.1351    0.6889   -1.6569 C   0  0  0  0  0  0  0  0  0  0  0  0
    1.3697    0.0834   -2.2400 C   0  0  0  0  0  0  0  0  0  0  0  0
    1.4110   -0.1845   -3.4463 O   0  0  0  0  0  0  0  0  0  0  0  0
    2.4902   -0.1564   -1.5222 N   0  0  0  0  0  0  0  0  0  0  0  0
    2.8913    0.0102   -0.1819 C   0  0  0  0  0  0  0  0  0  0  0  0
    4.2571   -0.2958    0.0231 C   0  0  0  0  0  0  0  0  0  0  0  0
    4.8699   -0.1739    1.2701 C   0  0  0  0  0  0  0  0  0  0  0  0
    4.1264    0.2598    2.3518 C   0  0  0  0  0  0  0  0  0  0  0  0
    2.7759    0.5565    2.1762 C   0  0  0  0  0  0  0  0  0  0  0  0
    2.1314    0.4287    0.9232 C   0  0  0  0  0  0  0  0  0  0  0  0
    0.3994    0.8372    1.0233 S   0  0  0  0  0  0  0  0  0  0  0  0
   -2.5466   -1.2586   -0.0357 C   0  0  0  0  0  0  0  0  0  0  0  0
   -2.0522   -2.6607    0.1196 C   0  0  0  0  0  0  0  0  0  0  0  0
   -4.2269   -0.9508    0.0614 S   0  0  0  0  0  0  0  0  0  0  0  0
   -5.7301    1.5893    0.7534 H   0  0  0  0  0  0  0  0  0  0  0  0
   -4.8869    2.6672   -0.3681 H   0  0  0  0  0  0  0  0  0  0  0  0
   -5.8851    1.3514   -1.0028 H   0  0  0  0  0  0  0  0  0  0  0  0
   -2.3389    2.0575   -0.4996 H   0  0  0  0  0  0  0  0  0  0  0  0
    0.0893   -1.0721   -0.3949 H   0  0  0  0  0  0  0  0  0  0  0  0
    0.2931    1.7659   -1.5223 H   0  0  0  0  0  0  0  0  0  0  0  0
   -0.6391    0.5916   -2.4312 H   0  0  0  0  0  0  0  0  0  0  0  0
    3.2031   -0.5152   -2.1499 H   0  0  0  0  0  0  0  0  0  0  0  0
    4.8797   -0.6299   -0.8060 H   0  0  0  0  0  0  0  0  0  0  0  0
    5.9237   -0.4124    1.3883 H   0  0  0  0  0  0  0  0  0  0  0  0
    4.5861    0.3659    3.3309 H   0  0  0  0  0  0  0  0  0  0  0  0
    2.2146    0.8882    3.0504 H   0  0  0  0  0  0  0  0  0  0  0  0
   -2.8583   -3.3689    0.3373 H   0  0  0  0  0  0  0  0  0  0  0  0
   -1.5572   -2.9894   -0.8002 H   0  0  0  0  0  0  0  0  0  0  0  0
   -1.3294   -2.7177    0.9403 H   0  0  0  0  0  0  0  0  0  0  0  0
  1  2  1  0
  2  3  2  0
  3  4  1  0
  4  5  1  0
  5  6  1  0
  6  7  1  0
  7  8  2  0
  7  9  1  0
  9 10  1  0
 10 11  2  0
 11 12  1  0
 12 13  2  0
 13 14  1  0
 14 15  2  0
 15 16  1  0
  4 17  2  0
 17 18  1  0
 17 19  1  0
 19  2  1  0
 16  5  1  0
 15 10  1  0
  1 20  1  0
  1 21  1  0
  1 22  1  0
  3 23  1  0
  5 24  1  0
  6 25  1  0
  6 26  1  0
  9 27  1  0
 11 28  1  0
 12 29  1  0
 13 30  1  0
 14 31  1  0
 18 32  1  0
 18 33  1  0
 18 34  1  0
M  END
$$$$
