
     RDKit          3D

 48 50  0  0  0  0  0  0  0  0999 V2000
   -3.3927   -2.0786   -2.9063 C   0  0  0  0  0  0  0  0  0  0  0  0
   -3.7145   -1.1182   -1.7757 C   0  0  0  0  0  0  0  0  0  0  0  0
   -2.6048   -1.0226   -0.8699 O   0  0  0  0  0  0  0  0  0  0  0  0
   -1.6226   -0.1436   -1.2101 C   0  0  0  0  0  0  0  0  0  0  0  0
   -1.5847    0.4998   -2.2482 O   0  0  0  0  0  0  0  0  0  0  0  0
   -0.5588   -0.1128   -0.1397 C   0  0  0  0  0  0  0  0  0  0  0  0
    0.8097    0.1398   -0.7356 C   0  0  0  0  0  0  0  0  0  0  0  0
    1.5340   -1.0253   -1.3520 C   0  0  0  0  0  0  0  0  0  0  0  0
    2.4940   -1.8589   -0.1186 S   0  0  0  0  0  6  0  0  0  0  0  0
    2.8389   -3.1660   -0.6469 O   0  0  0  0  0  0  0  0  0  0  0  0
    1.7984   -1.7541    1.1532 O   0  0  0  0  0  0  0  0  0  0  0  0
    3.9967   -0.9224   -0.0039 C   0  0  0  0  0  0  0  0  0  0  0  0
    4.1104    0.1011    0.9395 C   0  0  0  0  0  0  0  0  0  0  0  0
    5.3014    0.8225    1.0270 C   0  0  0  0  0  0  0  0  0  0  0  0
    6.3727    0.5111    0.1883 C   0  0  0  0  0  0  0  0  0  0  0  0
    6.2609   -0.5270   -0.7369 C   0  0  0  0  0  0  0  0  0  0  0  0
    5.0731   -1.2522   -0.8330 C   0  0  0  0  0  0  0  0  0  0  0  0
    1.3965    1.2944   -0.7559 N   0  0  0  0  0  0  0  0  0  0  0  0
    0.7897    2.4102   -0.2520 C   0  0  0  0  0  0  0  0  0  0  0  0
    1.2607    3.5337   -0.3704 O   0  0  0  0  0  0  0  0  0  0  0  0
   -0.3800    2.2505    0.4284 N   0  0  0  0  0  0  0  0  0  0  0  0
   -0.7846    0.9590    0.9166 C   0  0  0  0  0  0  0  0  0  0  0  0
   -2.1831    0.9827    1.5023 C   0  0  0  0  0  0  0  0  0  0  0  0
   -2.4901    0.1600    2.5971 C   0  0  0  0  0  0  0  0  0  0  0  0
   -3.7776    0.1455    3.1368 C   0  0  0  0  0  0  0  0  0  0  0  0
   -4.7763    0.9474    2.5876 C   0  0  0  0  0  0  0  0  0  0  0  0
   -4.4899    1.7627    1.4965 C   0  0  0  0  0  0  0  0  0  0  0  0
   -3.2038    1.7796    0.9545 C   0  0  0  0  0  0  0  0  0  0  0  0
   -3.0490   -3.0421   -2.5120 H   0  0  0  0  0  0  0  0  0  0  0  0
   -4.2730   -2.2432   -3.5336 H   0  0  0  0  0  0  0  0  0  0  0  0
   -2.5883   -1.6840   -3.5359 H   0  0  0  0  0  0  0  0  0  0  0  0
   -4.5626   -1.5015   -1.1980 H   0  0  0  0  0  0  0  0  0  0  0  0
   -3.9997   -0.1302   -2.1531 H   0  0  0  0  0  0  0  0  0  0  0  0
   -0.5459   -1.1028    0.3320 H   0  0  0  0  0  0  0  0  0  0  0  0
    2.1933   -0.7078   -2.1637 H   0  0  0  0  0  0  0  0  0  0  0  0
    0.8113   -1.7422   -1.7528 H   0  0  0  0  0  0  0  0  0  0  0  0
    3.2865    0.3513    1.6041 H   0  0  0  0  0  0  0  0  0  0  0  0
    5.3946    1.6312    1.7476 H   0  0  0  0  0  0  0  0  0  0  0  0
    7.2981    1.0780    0.2591 H   0  0  0  0  0  0  0  0  0  0  0  0
    7.1005   -0.7730   -1.3834 H   0  0  0  0  0  0  0  0  0  0  0  0
    5.0008   -2.0668   -1.5496 H   0  0  0  0  0  0  0  0  0  0  0  0
   -0.6617    3.0866    0.9258 H   0  0  0  0  0  0  0  0  0  0  0  0
   -0.0889    0.7632    1.7470 H   0  0  0  0  0  0  0  0  0  0  0  0
   -1.7289   -0.4793    3.0409 H   0  0  0  0  0  0  0  0  0  0  0  0
   -4.0031   -0.4928    3.9873 H   0  0  0  0  0  0  0  0  0  0  0  0
   -5.7783    0.9352    3.0095 H   0  0  0  0  0  0  0  0  0  0  0  0
   -5.2687    2.3856    1.0638 H   0  0  0  0  0  0  0  0  0  0  0  0
   -3.0104    2.4163    0.0922 H   0  0  0  0  0  0  0  0  0  0  0  0
  1  2  1  0
  2  3  1  0
  3  4  1  0
  4  5  2  0
  4  6  1  0
  6  7  1  0
  7  8  1  0
  8  9  1  0
  9 10  2  0
  9 11  2  0
  9 12  1  0
 12 13  2  0
 13 14  1  0
 14 15  2  0
 15 16  1  0
 16 17  2  0
  7 18  2  0
 18 19  1  0
 19 20  2  0
 19 21  1  0
 21 22  1  0
 22 23  1  0
 23 24  2  0
 24 25  1  0
 25 26  2  0
 26 27  1  0
 27 28  2  0
 22  6  1  0
 28 23  1  0
 17 12  1  0
  1 29  1  0
  1 30  1  0
  1 31  1  0
  2 32  1  0
  2 33  1  0
  6 34  1  0
  8 35  1  0
  8 36  1  0
 13 37  1  0
 14 38  1  0
 15 39  1  0
 16 40  1  0
 17 41  1  0
 21 42  1  0
 22 43  1  0
 24 44  1  0
 25 45  1  0
 26 46  1  0
 27 47  1  0
 28 48  1  0
M  END
$$$$
