
     RDKit          3D

 80 84  0  0  0  0  0  0  0  0999 V2000
    1.0295    1.8321   -3.7982 C   0  0  0  0  0  0  0  0  0  0  0  0
    0.3382    1.4578   -2.6132 O   0  0  0  0  0  0  0  0  0  0  0  0
    1.0380    0.7900   -1.6420 C   0  0  0  0  0  0  0  0  0  0  0  0
    2.3612    0.3670   -1.7891 C   0  0  0  0  0  0  0  0  0  0  0  0
    3.0142   -0.3298   -0.7618 C   0  0  0  0  0  0  0  0  0  0  0  0
    4.3306   -0.6699   -0.9493 O   0  0  0  0  0  0  0  0  0  0  0  0
    4.4829   -1.6794   -1.9485 C   0  0  0  0  0  0  0  0  0  0  0  0
    2.3763   -0.5927    0.4587 C   0  0  0  0  0  0  0  0  0  0  0  0
    3.0046   -1.3009    1.5984 C   0  0  0  0  0  0  0  0  0  0  0  0
    4.3681   -1.8677    1.6583 C   0  0  0  0  0  0  0  0  0  0  0  0
    4.5767   -3.2350    1.4295 C   0  0  0  0  0  0  0  0  0  0  0  0
    5.8624   -3.7734    1.5044 C   0  0  0  0  0  0  0  0  0  0  0  0
    6.9452   -2.9507    1.8105 C   0  0  0  0  0  0  0  0  0  0  0  0
    6.7453   -1.5905    2.0427 C   0  0  0  0  0  0  0  0  0  0  0  0
    5.4606   -1.0493    1.9710 C   0  0  0  0  0  0  0  0  0  0  0  0
    2.2919   -1.4677    2.7246 C   0  0  0  0  0  0  0  0  0  0  0  0
    0.9116   -1.0090    2.8837 C   0  0  0  0  0  0  0  0  0  0  0  0
    0.3011   -1.1953    3.9289 O   0  0  0  0  0  0  0  0  0  0  0  0
    0.3473   -0.3845    1.7919 O   0  0  0  0  0  0  0  0  0  0  0  0
    1.0495   -0.1538    0.5853 C   0  0  0  0  0  0  0  0  0  0  0  0
    0.3514    0.5301   -0.4391 C   0  0  0  0  0  0  0  0  0  0  0  0
   -1.0949    1.0126   -0.2508 C   0  0  0  0  0  0  0  0  0  0  0  0
   -2.1123   -0.1449   -0.0627 C   0  0  0  0  0  0  0  0  0  0  0  0
   -2.2044   -1.0478   -1.3064 C   0  0  0  0  0  0  0  0  0  0  0  0
   -3.1137   -2.1920   -1.1157 N   0  0  0  0  0  0  0  0  0  0  0  0
   -4.5344   -1.8260   -1.0133 C   0  0  0  0  0  0  0  0  0  0  0  0
   -5.1612   -1.3784   -2.3356 C   0  0  0  0  0  0  0  0  0  0  0  0
   -4.9564   -2.4251   -3.4266 C   0  0  0  0  0  0  0  0  0  0  0  0
   -3.4792   -2.8192   -3.5366 C   0  0  0  0  0  0  0  0  0  0  0  0
   -3.2987   -3.9575   -4.5401 C   0  0  0  0  0  0  0  0  0  0  0  0
   -2.9262   -3.2182   -2.1560 C   0  0  0  0  0  0  0  0  0  0  0  0
   -1.1878    2.1294    0.7914 C   0  0  0  0  0  0  0  0  0  0  0  0
   -0.7141    3.4058    0.4666 C   0  0  0  0  0  0  0  0  0  0  0  0
   -0.7713    4.4604    1.3903 C   0  0  0  0  0  0  0  0  0  0  0  0
   -1.2877    4.2963    2.6856 C   0  0  0  0  0  0  0  0  0  0  0  0
   -1.3559    5.3548    3.6021 N   0  0  0  0  0  0  0  0  0  0  0  0
   -1.6079    5.0477    5.0090 C   0  0  0  0  0  0  0  0  0  0  0  0
   -0.5614    6.5548    3.3505 C   0  0  0  0  0  0  0  0  0  0  0  0
   -1.7702    3.0115    2.9864 C   0  0  0  0  0  0  0  0  0  0  0  0
   -1.7187    1.9489    2.0691 C   0  0  0  0  0  0  0  0  0  0  0  0
    1.8713    2.4959   -3.5733 H   0  0  0  0  0  0  0  0  0  0  0  0
    1.3575    0.9505   -4.3583 H   0  0  0  0  0  0  0  0  0  0  0  0
    0.3288    2.3846   -4.4325 H   0  0  0  0  0  0  0  0  0  0  0  0
    2.9226    0.5810   -2.6918 H   0  0  0  0  0  0  0  0  0  0  0  0
    5.4664   -2.1390   -1.8127 H   0  0  0  0  0  0  0  0  0  0  0  0
    4.4538   -1.2347   -2.9493 H   0  0  0  0  0  0  0  0  0  0  0  0
    3.7235   -2.4660   -1.8576 H   0  0  0  0  0  0  0  0  0  0  0  0
    3.7389   -3.8859    1.1912 H   0  0  0  0  0  0  0  0  0  0  0  0
    6.0187   -4.8336    1.3270 H   0  0  0  0  0  0  0  0  0  0  0  0
    7.9468   -3.3690    1.8686 H   0  0  0  0  0  0  0  0  0  0  0  0
    7.5905   -0.9485    2.2773 H   0  0  0  0  0  0  0  0  0  0  0  0
    5.3169    0.0142    2.1466 H   0  0  0  0  0  0  0  0  0  0  0  0
    2.6959   -1.9688    3.5986 H   0  0  0  0  0  0  0  0  0  0  0  0
   -1.4331    1.4979   -1.1769 H   0  0  0  0  0  0  0  0  0  0  0  0
   -1.8685   -0.7608    0.8101 H   0  0  0  0  0  0  0  0  0  0  0  0
   -3.0956    0.2998    0.1340 H   0  0  0  0  0  0  0  0  0  0  0  0
   -2.4855   -0.4476   -2.1792 H   0  0  0  0  0  0  0  0  0  0  0  0
   -1.2008   -1.4417   -1.5077 H   0  0  0  0  0  0  0  0  0  0  0  0
   -5.0841   -2.7033   -0.6448 H   0  0  0  0  0  0  0  0  0  0  0  0
   -4.6968   -1.0572   -0.2505 H   0  0  0  0  0  0  0  0  0  0  0  0
   -6.2347   -1.2086   -2.1935 H   0  0  0  0  0  0  0  0  0  0  0  0
   -4.7330   -0.4217   -2.6563 H   0  0  0  0  0  0  0  0  0  0  0  0
   -5.5629   -3.3105   -3.1938 H   0  0  0  0  0  0  0  0  0  0  0  0
   -5.3199   -2.0348   -4.3851 H   0  0  0  0  0  0  0  0  0  0  0  0
   -2.9155   -1.9564   -3.9130 H   0  0  0  0  0  0  0  0  0  0  0  0
   -3.6868   -3.6747   -5.5238 H   0  0  0  0  0  0  0  0  0  0  0  0
   -2.2382   -4.2049   -4.6561 H   0  0  0  0  0  0  0  0  0  0  0  0
   -3.8239   -4.8635   -4.2171 H   0  0  0  0  0  0  0  0  0  0  0  0
   -3.4226   -4.1380   -1.8171 H   0  0  0  0  0  0  0  0  0  0  0  0
   -1.8631   -3.4813   -2.2368 H   0  0  0  0  0  0  0  0  0  0  0  0
   -0.2932    3.5965   -0.5188 H   0  0  0  0  0  0  0  0  0  0  0  0
   -0.3952    5.4216    1.0551 H   0  0  0  0  0  0  0  0  0  0  0  0
   -2.5950    4.5912    5.1438 H   0  0  0  0  0  0  0  0  0  0  0  0
   -0.8358    4.3825    5.4126 H   0  0  0  0  0  0  0  0  0  0  0  0
   -1.6113    5.9576    5.6200 H   0  0  0  0  0  0  0  0  0  0  0  0
   -0.8807    7.0559    2.4305 H   0  0  0  0  0  0  0  0  0  0  0  0
   -0.6908    7.2924    4.1506 H   0  0  0  0  0  0  0  0  0  0  0  0
    0.5065    6.3173    3.2905 H   0  0  0  0  0  0  0  0  0  0  0  0
   -2.2057    2.7907    3.9560 H   0  0  0  0  0  0  0  0  0  0  0  0
   -2.0954    0.9805    2.3896 H   0  0  0  0  0  0  0  0  0  0  0  0
  1  2  1  0
  2  3  1  0
  3  4  2  0
  4  5  1  0
  5  6  1  0
  6  7  1  0
  5  8  2  0
  8  9  1  0
  9 10  1  0
 10 11  2  0
 11 12  1  0
 12 13  2  0
 13 14  1  0
 14 15  2  0
  9 16  2  0
 16 17  1  0
 17 18  2  0
 17 19  1  0
 19 20  1  0
 20 21  2  0
 21 22  1  0
 22 23  1  0
 23 24  1  0
 24 25  1  0
 25 26  1  0
 26 27  1  0
 27 28  1  0
 28 29  1  0
 29 30  1  0
 29 31  1  0
 22 32  1  0
 32 33  2  0
 33 34  1  0
 34 35  2  0
 35 36  1  0
 36 37  1  0
 36 38  1  0
 35 39  1  0
 39 40  2  0
 21  3  1  0
 31 25  1  0
 40 32  1  0
 20  8  1  0
 15 10  1  0
  1 41  1  0
  1 42  1  0
  1 43  1  0
  4 44  1  0
  7 45  1  0
  7 46  1  0
  7 47  1  0
 11 48  1  0
 12 49  1  0
 13 50  1  0
 14 51  1  0
 15 52  1  0
 16 53  1  0
 22 54  1  0
 23 55  1  0
 23 56  1  0
 24 57  1  0
 24 58  1  0
 26 59  1  0
 26 60  1  0
 27 61  1  0
 27 62  1  0
 28 63  1  0
 28 64  1  0
 29 65  1  0
 30 66  1  0
 30 67  1  0
 30 68  1  0
 31 69  1  0
 31 70  1  0
 33 71  1  0
 34 72  1  0
 37 73  1  0
 37 74  1  0
 37 75  1  0
 38 76  1  0
 38 77  1  0
 38 78  1  0
 39 79  1  0
 40 80  1  0
M  END
$$$$
