
     RDKit          3D

 44 46  0  0  0  0  0  0  0  0999 V2000
    1.8293   -0.7378    1.4184 C   0  0  0  0  0  0  0  0  0  0  0  0
    1.6352    0.5798    0.6942 C   0  0  0  0  0  0  0  0  0  0  0  0
    2.6065    1.3549    0.3132 N   0  0  0  0  0  0  0  0  0  0  0  0
    4.0043    0.9566    0.5224 C   0  0  0  0  0  0  0  0  0  0  0  0
    4.4941   -0.0990   -0.4289 C   0  0  0  0  0  0  0  0  0  0  0  0
    4.1423   -0.1000   -1.7817 C   0  0  0  0  0  0  0  0  0  0  0  0
    4.6413   -1.0871   -2.6264 C   0  0  0  0  0  0  0  0  0  0  0  0
    5.4913   -2.0397   -2.0908 C   0  0  0  0  0  0  0  0  0  0  0  0
    5.8688   -2.0643   -0.7950 N   0  0  0  0  0  0  0  0  0  0  0  0
    5.3671   -1.0936    0.0016 C   0  0  0  0  0  0  0  0  0  0  0  0
    0.2280    1.0226    0.4175 C   0  0  0  0  0  0  0  0  0  0  0  0
   -0.0546    2.3323    0.4157 C   0  0  0  0  0  0  0  0  0  0  0  0
    0.8555    3.3448    0.5761 O   0  0  0  0  0  0  0  0  0  0  0  0
   -1.3136    2.7842    0.2301 N   0  0  0  0  0  0  0  0  0  0  0  0
   -2.4138    1.9942    0.0481 C   0  0  0  0  0  0  0  0  0  0  0  0
   -3.4895    2.5431   -0.1864 O   0  0  0  0  0  0  0  0  0  0  0  0
   -2.1837    0.6173    0.1063 N   0  0  0  0  0  0  0  0  0  0  0  0
   -3.3049   -0.2642   -0.0786 C   0  0  0  0  0  0  0  0  0  0  0  0
   -3.2553   -1.2333   -1.0984 C   0  0  0  0  0  0  0  0  0  0  0  0
   -4.3357   -2.0821   -1.3446 C   0  0  0  0  0  0  0  0  0  0  0  0
   -5.4866   -1.9786   -0.5745 C   0  0  0  0  0  0  0  0  0  0  0  0
   -5.5495   -1.0395    0.4530 C   0  0  0  0  0  0  0  0  0  0  0  0
   -4.4618   -0.1892    0.7302 C   0  0  0  0  0  0  0  0  0  0  0  0
   -4.5996    0.7418    1.9057 C   0  0  0  0  0  0  0  0  0  0  0  0
   -0.8945    0.0753    0.1614 C   0  0  0  0  0  0  0  0  0  0  0  0
   -0.6255   -1.1194    0.0247 O   0  0  0  0  0  0  0  0  0  0  0  0
    0.9264   -1.0254    1.9636 H   0  0  0  0  0  0  0  0  0  0  0  0
    2.0794   -1.5192    0.6962 H   0  0  0  0  0  0  0  0  0  0  0  0
    2.6240   -0.6628    2.1635 H   0  0  0  0  0  0  0  0  0  0  0  0
    4.1745    0.6695    1.5662 H   0  0  0  0  0  0  0  0  0  0  0  0
    4.6247    1.8483    0.3681 H   0  0  0  0  0  0  0  0  0  0  0  0
    3.4783    0.6641   -2.1787 H   0  0  0  0  0  0  0  0  0  0  0  0
    4.3750   -1.1113   -3.6770 H   0  0  0  0  0  0  0  0  0  0  0  0
    5.9059   -2.8307   -2.7091 H   0  0  0  0  0  0  0  0  0  0  0  0
    5.7007   -1.1456    1.0347 H   0  0  0  0  0  0  0  0  0  0  0  0
    1.7513    2.9430    0.4968 H   0  0  0  0  0  0  0  0  0  0  0  0
   -1.4650    3.7850    0.1962 H   0  0  0  0  0  0  0  0  0  0  0  0
   -2.3800   -1.3229   -1.7382 H   0  0  0  0  0  0  0  0  0  0  0  0
   -4.2779   -2.8156   -2.1445 H   0  0  0  0  0  0  0  0  0  0  0  0
   -6.3338   -2.6313   -0.7683 H   0  0  0  0  0  0  0  0  0  0  0  0
   -6.4549   -0.9806    1.0547 H   0  0  0  0  0  0  0  0  0  0  0  0
   -5.1760    0.2636    2.7061 H   0  0  0  0  0  0  0  0  0  0  0  0
   -3.6282    0.9952    2.3406 H   0  0  0  0  0  0  0  0  0  0  0  0
   -5.1194    1.6577    1.6104 H   0  0  0  0  0  0  0  0  0  0  0  0
  1  2  1  0
  2  3  2  3
  3  4  1  0
  4  5  1  0
  5  6  2  0
  6  7  1  0
  7  8  2  0
  8  9  1  0
  9 10  2  0
  2 11  1  0
 11 12  2  0
 12 13  1  0
 12 14  1  0
 14 15  1  0
 15 16  2  0
 15 17  1  0
 17 18  1  0
 18 19  2  0
 19 20  1  0
 20 21  2  0
 21 22  1  0
 22 23  2  0
 23 24  1  0
 17 25  1  0
 25 26  2  0
 10  5  1  0
 25 11  1  0
 23 18  1  0
  1 27  1  0
  1 28  1  0
  1 29  1  0
  4 30  1  0
  4 31  1  0
  6 32  1  0
  7 33  1  0
  8 34  1  0
 10 35  1  0
 13 36  1  0
 14 37  1  0
 19 38  1  0
 20 39  1  0
 21 40  1  0
 22 41  1  0
 24 42  1  0
 24 43  1  0
 24 44  1  0
M  END
$$$$
