
     RDKit          3D

 57 61  0  0  0  0  0  0  0  0999 V2000
   -5.6744    4.0468    0.1303 C   0  0  0  0  0  0  0  0  0  0  0  0
   -5.4127    3.1617   -0.9112 C   0  0  0  0  0  0  0  0  0  0  0  0
   -4.6063    2.0406   -0.6958 C   0  0  0  0  0  0  0  0  0  0  0  0
   -4.0364    1.7874    0.5654 C   0  0  0  0  0  0  0  0  0  0  0  0
   -3.1687    0.5737    0.8846 C   0  0  0  0  0  0  0  0  0  0  0  0
   -3.8617   -0.7433    1.2032 C   0  0  0  0  0  0  0  0  0  0  0  0
   -3.1672   -1.7165    1.9499 C   0  0  0  0  0  0  0  0  0  0  0  0
   -3.7602   -2.9392    2.2708 C   0  0  0  0  0  0  0  0  0  0  0  0
   -5.0585   -3.2138    1.8522 C   0  0  0  0  0  0  0  0  0  0  0  0
   -5.7622   -2.2673    1.1125 C   0  0  0  0  0  0  0  0  0  0  0  0
   -5.1700   -1.0430    0.7899 C   0  0  0  0  0  0  0  0  0  0  0  0
   -2.2003    0.3419   -0.2420 C   0  0  0  0  0  0  0  0  0  0  0  0
   -2.4821   -0.3268   -1.3748 N   0  0  0  0  0  0  0  0  0  0  0  0
   -1.2835   -0.2927   -2.0847 O   0  0  0  0  0  0  0  0  0  0  0  0
   -0.3921    0.3893   -1.3111 C   0  0  0  0  0  0  0  0  0  0  0  0
    0.9813    0.5764   -1.8668 C   0  0  0  0  0  0  0  0  0  0  0  0
    1.8632   -0.5982   -1.6943 N   0  0  0  0  0  0  0  0  0  0  0  0
    3.0999   -0.4722   -2.4739 C   0  0  0  0  0  0  0  0  0  0  0  0
    4.0931    0.5499   -1.9182 C   0  0  0  0  0  0  0  0  0  0  0  0
    4.3794    0.3941   -0.4156 C   0  0  0  0  0  0  0  0  0  0  0  0
    5.5378   -0.5459   -0.1130 C   0  0  0  0  0  0  0  0  0  0  0  0
    5.5134   -1.9153   -0.3886 C   0  0  0  0  0  0  0  0  0  0  0  0
    6.6239   -2.6889   -0.0755 C   0  0  0  0  0  0  0  0  0  0  0  0
    7.7484   -2.2026    0.4871 N   0  0  0  0  0  0  0  0  0  0  0  0
    7.7619   -0.8810    0.7491 C   0  0  0  0  0  0  0  0  0  0  0  0
    6.7023   -0.0286    0.4727 C   0  0  0  0  0  0  0  0  0  0  0  0
    3.1063    0.0856    0.3898 C   0  0  0  0  0  0  0  0  0  0  0  0
    2.1618   -0.9075   -0.2896 C   0  0  0  0  0  0  0  0  0  0  0  0
   -0.8987    0.8013   -0.1692 N   0  0  0  0  0  0  0  0  0  0  0  0
   -4.3289    2.6897    1.6072 C   0  0  0  0  0  0  0  0  0  0  0  0
   -5.1352    3.8097    1.3908 C   0  0  0  0  0  0  0  0  0  0  0  0
   -6.3030    4.9168   -0.0391 H   0  0  0  0  0  0  0  0  0  0  0  0
   -5.8400    3.3386   -1.8951 H   0  0  0  0  0  0  0  0  0  0  0  0
   -4.4422    1.3631   -1.5314 H   0  0  0  0  0  0  0  0  0  0  0  0
   -2.5669    0.8385    1.7672 H   0  0  0  0  0  0  0  0  0  0  0  0
   -2.1481   -1.5273    2.2829 H   0  0  0  0  0  0  0  0  0  0  0  0
   -3.2062   -3.6780    2.8437 H   0  0  0  0  0  0  0  0  0  0  0  0
   -5.5209   -4.1657    2.0980 H   0  0  0  0  0  0  0  0  0  0  0  0
   -6.7751   -2.4810    0.7809 H   0  0  0  0  0  0  0  0  0  0  0  0
   -5.7514   -0.3321    0.2083 H   0  0  0  0  0  0  0  0  0  0  0  0
    0.8659    0.7832   -2.9388 H   0  0  0  0  0  0  0  0  0  0  0  0
    1.4193    1.4787   -1.4253 H   0  0  0  0  0  0  0  0  0  0  0  0
    2.8624   -0.2166   -3.5145 H   0  0  0  0  0  0  0  0  0  0  0  0
    3.5763   -1.4566   -2.5364 H   0  0  0  0  0  0  0  0  0  0  0  0
    5.0237    0.5090   -2.4978 H   0  0  0  0  0  0  0  0  0  0  0  0
    3.6804    1.5538   -2.0853 H   0  0  0  0  0  0  0  0  0  0  0  0
    4.7085    1.3869   -0.0743 H   0  0  0  0  0  0  0  0  0  0  0  0
    4.6588   -2.4021   -0.8395 H   0  0  0  0  0  0  0  0  0  0  0  0
    6.6336   -3.7563   -0.2781 H   0  0  0  0  0  0  0  0  0  0  0  0
    8.6756   -0.5078    1.2025 H   0  0  0  0  0  0  0  0  0  0  0  0
    6.7949    1.0252    0.7158 H   0  0  0  0  0  0  0  0  0  0  0  0
    3.3607   -0.2786    1.3929 H   0  0  0  0  0  0  0  0  0  0  0  0
    2.5614    1.0265    0.5427 H   0  0  0  0  0  0  0  0  0  0  0  0
    1.2392   -0.9873    0.2972 H   0  0  0  0  0  0  0  0  0  0  0  0
    2.5921   -1.9138   -0.2432 H   0  0  0  0  0  0  0  0  0  0  0  0
   -3.9286    2.5235    2.6060 H   0  0  0  0  0  0  0  0  0  0  0  0
   -5.3444    4.4941    2.2088 H   0  0  0  0  0  0  0  0  0  0  0  0
  1  2  2  0
  2  3  1  0
  3  4  2  0
  4  5  1  0
  5  6  1  0
  6  7  2  0
  7  8  1  0
  8  9  2  0
  9 10  1  0
 10 11  2  0
  5 12  1  0
 12 13  2  0
 13 14  1  0
 14 15  1  0
 15 16  1  0
 16 17  1  0
 17 18  1  0
 18 19  1  0
 19 20  1  0
 20 21  1  0
 21 22  2  0
 22 23  1  0
 23 24  2  0
 24 25  1  0
 25 26  2  0
 20 27  1  0
 27 28  1  0
 15 29  2  0
  4 30  1  0
 30 31  2  0
 31  1  1  0
 11  6  1  0
 29 12  1  0
 28 17  1  0
 26 21  1  0
  1 32  1  0
  2 33  1  0
  3 34  1  0
  5 35  1  0
  7 36  1  0
  8 37  1  0
  9 38  1  0
 10 39  1  0
 11 40  1  0
 16 41  1  0
 16 42  1  0
 18 43  1  0
 18 44  1  0
 19 45  1  0
 19 46  1  0
 20 47  1  0
 22 48  1  0
 23 49  1  0
 25 50  1  0
 26 51  1  0
 27 52  1  0
 27 53  1  0
 28 54  1  0
 28 55  1  0
 30 56  1  0
 31 57  1  0
M  END
$$$$
