
     RDKit          3D

 41 42  0  0  0  0  0  0  0  0999 V2000
   -6.8803   -2.0867   -0.2973 C   0  0  0  0  0  0  0  0  0  0  0  0
   -6.0837   -1.0171   -0.7835 O   0  0  0  0  0  0  0  0  0  0  0  0
   -4.8558   -0.8233   -0.2017 C   0  0  0  0  0  0  0  0  0  0  0  0
   -4.3358   -1.6053    0.8342 C   0  0  0  0  0  0  0  0  0  0  0  0
   -3.0713   -1.3320    1.3652 C   0  0  0  0  0  0  0  0  0  0  0  0
   -2.3071   -0.2674    0.8753 C   0  0  0  0  0  0  0  0  0  0  0  0
   -0.9584    0.0530    1.4795 C   0  0  0  0  0  0  0  0  0  0  0  0
    0.2165   -0.0486    0.5271 C   0  0  0  0  0  0  0  0  0  0  0  0
    0.1506   -0.3095   -0.6677 O   0  0  0  0  0  0  0  0  0  0  0  0
    1.3613    0.2178    1.2511 O   0  0  0  0  0  0  0  0  0  0  0  0
    2.4789    0.2263    0.3959 N   0  0  0  0  0  0  0  0  0  0  0  0
    3.5806    0.4598    1.0457 C   0  0  0  0  0  0  0  0  0  0  0  0
    3.6290    0.6411    2.4110 N   0  0  0  0  0  0  0  0  0  0  0  0
    4.8579    0.5151    0.2614 C   0  0  0  0  0  0  0  0  0  0  0  0
    4.9178   -0.0594   -1.0148 C   0  0  0  0  0  0  0  0  0  0  0  0
    6.1046   -0.0178   -1.7495 C   0  0  0  0  0  0  0  0  0  0  0  0
    7.2336    0.6019   -1.2166 C   0  0  0  0  0  0  0  0  0  0  0  0
    7.1781    1.1854    0.0489 C   0  0  0  0  0  0  0  0  0  0  0  0
    5.9930    1.1453    0.7877 C   0  0  0  0  0  0  0  0  0  0  0  0
   -2.8316    0.5201   -0.1612 C   0  0  0  0  0  0  0  0  0  0  0  0
   -4.0874    0.2378   -0.7137 C   0  0  0  0  0  0  0  0  0  0  0  0
   -4.6510    0.9772   -1.7259 O   0  0  0  0  0  0  0  0  0  0  0  0
   -3.7375    1.6013   -2.6201 C   0  0  0  0  0  0  0  0  0  0  0  0
   -7.8130   -2.0962   -0.8694 H   0  0  0  0  0  0  0  0  0  0  0  0
   -6.3856   -3.0513   -0.4536 H   0  0  0  0  0  0  0  0  0  0  0  0
   -7.1386   -1.9399    0.7567 H   0  0  0  0  0  0  0  0  0  0  0  0
   -4.8902   -2.4386    1.2525 H   0  0  0  0  0  0  0  0  0  0  0  0
   -2.6957   -1.9594    2.1708 H   0  0  0  0  0  0  0  0  0  0  0  0
   -0.7632   -0.6272    2.3175 H   0  0  0  0  0  0  0  0  0  0  0  0
   -0.9947    1.0741    1.8774 H   0  0  0  0  0  0  0  0  0  0  0  0
    2.7736    0.3420    2.8649 H   0  0  0  0  0  0  0  0  0  0  0  0
    4.4505    0.2578    2.8658 H   0  0  0  0  0  0  0  0  0  0  0  0
    4.0419   -0.5422   -1.4436 H   0  0  0  0  0  0  0  0  0  0  0  0
    6.1436   -0.4650   -2.7397 H   0  0  0  0  0  0  0  0  0  0  0  0
    8.1552    0.6377   -1.7925 H   0  0  0  0  0  0  0  0  0  0  0  0
    8.0555    1.6814    0.4557 H   0  0  0  0  0  0  0  0  0  0  0  0
    5.9621    1.6317    1.7582 H   0  0  0  0  0  0  0  0  0  0  0  0
   -2.2447    1.3567   -0.5287 H   0  0  0  0  0  0  0  0  0  0  0  0
   -3.3053    2.4990   -2.1674 H   0  0  0  0  0  0  0  0  0  0  0  0
   -4.2988    1.9147   -3.5054 H   0  0  0  0  0  0  0  0  0  0  0  0
   -2.9544    0.9096   -2.9500 H   0  0  0  0  0  0  0  0  0  0  0  0
  1  2  1  0
  2  3  1  0
  3  4  2  0
  4  5  1  0
  5  6  2  0
  6  7  1  0
  7  8  1  0
  8  9  2  0
  8 10  1  0
 10 11  1  0
 11 12  2  3
 12 13  1  0
 12 14  1  0
 14 15  2  0
 15 16  1  0
 16 17  2  0
 17 18  1  0
 18 19  2  0
  6 20  1  0
 20 21  2  0
 21 22  1  0
 22 23  1  0
 21  3  1  0
 19 14  1  0
  1 24  1  0
  1 25  1  0
  1 26  1  0
  4 27  1  0
  5 28  1  0
  7 29  1  0
  7 30  1  0
 13 31  1  0
 13 32  1  0
 15 33  1  0
 16 34  1  0
 17 35  1  0
 18 36  1  0
 19 37  1  0
 20 38  1  0
 23 39  1  0
 23 40  1  0
 23 41  1  0
M  END
$$$$
