
     RDKit          3D

 36 38  0  0  0  0  0  0  0  0999 V2000
   -2.4337    2.2179    1.4861 C   0  0  0  0  0  0  0  0  0  0  0  0
   -2.0951    1.2134    0.5012 N   0  0  0  0  0  0  0  0  0  0  0  0
   -1.1695    1.3774   -0.4969 C   0  0  0  0  0  0  0  0  0  0  0  0
   -1.1757    0.2343   -1.2645 C   0  0  0  0  0  0  0  0  0  0  0  0
   -0.3890    0.0312   -2.4351 C   0  0  0  0  0  0  0  0  0  0  0  0
    0.9518   -0.0203   -2.5171 C   0  0  0  0  0  0  0  0  0  0  0  0
    1.8930    0.0644   -1.3959 C   0  0  0  0  0  0  0  0  0  0  0  0
    2.9572    0.9599   -1.4553 C   0  0  0  0  0  0  0  0  0  0  0  0
    3.8597    1.0235   -0.3997 C   0  0  0  0  0  0  0  0  0  0  0  0
    3.7167    0.2217    0.6794 N   0  0  0  0  0  4  0  0  0  0  0  0
    4.6905    0.2988    1.7810 C   0  0  0  0  0  0  0  0  0  0  0  0
    2.7036   -0.6704    0.7470 C   0  0  0  0  0  0  0  0  0  0  0  0
    1.7805   -0.7702   -0.2850 C   0  0  0  0  0  0  0  0  0  0  0  0
   -2.1254   -0.6671   -0.7048 C   0  0  0  0  0  0  0  0  0  0  0  0
   -2.5635   -1.9656   -1.0396 C   0  0  0  0  0  0  0  0  0  0  0  0
   -3.5303   -2.5849   -0.2435 C   0  0  0  0  0  0  0  0  0  0  0  0
   -4.0563   -4.1753   -0.6422 Cl  0  0  0  0  0  0  0  0  0  0  0  0
   -4.0682   -1.9416    0.8662 C   0  0  0  0  0  0  0  0  0  0  0  0
   -3.6532   -0.6526    1.2152 C   0  0  0  0  0  0  0  0  0  0  0  0
   -2.6776   -0.0356    0.4155 C   0  0  0  0  0  0  0  0  0  0  0  0
   -3.4964    2.4538    1.3884 H   0  0  0  0  0  0  0  0  0  0  0  0
   -1.8374    3.1171    1.3114 H   0  0  0  0  0  0  0  0  0  0  0  0
   -2.2143    1.8154    2.4782 H   0  0  0  0  0  0  0  0  0  0  0  0
   -0.6153    2.3011   -0.6014 H   0  0  0  0  0  0  0  0  0  0  0  0
   -0.9531   -0.1015   -3.3585 H   0  0  0  0  0  0  0  0  0  0  0  0
    1.4025   -0.1532   -3.4997 H   0  0  0  0  0  0  0  0  0  0  0  0
    3.0843    1.6157   -2.3145 H   0  0  0  0  0  0  0  0  0  0  0  0
    4.7006    1.7111   -0.4105 H   0  0  0  0  0  0  0  0  0  0  0  0
    5.0928    1.3137    1.8349 H   0  0  0  0  0  0  0  0  0  0  0  0
    4.1863    0.0599    2.7209 H   0  0  0  0  0  0  0  0  0  0  0  0
    5.4828   -0.4232    1.5685 H   0  0  0  0  0  0  0  0  0  0  0  0
    2.6426   -1.3033    1.6279 H   0  0  0  0  0  0  0  0  0  0  0  0
    0.9750   -1.4993   -0.2150 H   0  0  0  0  0  0  0  0  0  0  0  0
   -2.1550   -2.4768   -1.9060 H   0  0  0  0  0  0  0  0  0  0  0  0
   -4.8253   -2.4377    1.4698 H   0  0  0  0  0  0  0  0  0  0  0  0
   -4.0859   -0.1517    2.0760 H   0  0  0  0  0  0  0  0  0  0  0  0
  1  2  1  0
  2  3  1  0
  3  4  2  0
  4  5  1  0
  5  6  2  3
  6  7  1  0
  7  8  2  0
  8  9  1  0
  9 10  2  0
 10 11  1  0
 10 12  1  0
 12 13  2  0
  4 14  1  0
 14 15  2  0
 15 16  1  0
 16 17  1  0
 16 18  2  0
 18 19  1  0
 19 20  2  0
 20  2  1  0
 13  7  1  0
 20 14  1  0
  1 21  1  0
  1 22  1  0
  1 23  1  0
  3 24  1  0
  5 25  1  0
  6 26  1  0
  8 27  1  0
  9 28  1  0
 11 29  1  0
 11 30  1  0
 11 31  1  0
 12 32  1  0
 13 33  1  0
 15 34  1  0
 18 35  1  0
 19 36  1  0
M  CHG  1  10   1
M  END
$$$$
