
     RDKit          3D

 42 45  0  0  0  0  0  0  0  0999 V2000
   -2.8380    3.9228   -0.0168 C   0  0  0  0  0  0  0  0  0  0  0  0
   -1.7146    2.9282   -0.0070 C   0  0  0  0  0  0  0  0  0  0  0  0
   -0.5216    3.2145    0.6776 C   0  0  0  0  0  0  0  0  0  0  0  0
    0.5298    2.2893    0.7200 C   0  0  0  0  0  0  0  0  0  0  0  0
    0.3681    1.0560    0.1114 C   0  0  0  0  0  0  0  0  0  0  0  0
   -0.8071    0.7806   -0.5914 C   0  0  0  0  0  0  0  0  0  0  0  0
   -1.8550    1.6944   -0.6501 C   0  0  0  0  0  0  0  0  0  0  0  0
   -0.7242   -0.5355   -1.3102 C   0  0  0  0  0  0  0  0  0  0  0  0
   -1.8578   -1.5075   -0.9724 C   0  0  0  0  0  0  0  0  0  0  0  0
   -1.5310   -2.8310   -1.5080 N   0  0  0  0  0  0  0  0  0  0  0  0
   -2.6583   -3.7526   -1.4007 C   0  0  0  0  0  0  0  0  0  0  0  0
   -0.3081   -3.4041   -0.9282 C   0  0  0  0  0  0  0  0  0  0  0  0
    0.5588   -2.4070   -0.1575 C   0  0  0  0  0  0  0  0  0  0  0  0
    0.6652   -1.0589   -0.8797 C   0  0  0  0  0  0  0  0  0  0  0  0
    1.2638   -0.0265   -0.0010 N   0  0  0  0  0  0  0  0  0  0  0  0
    2.5769   -0.1573    0.4449 C   0  0  0  0  0  0  0  0  0  0  0  0
    3.3621   -0.8929   -0.1608 O   0  0  0  0  0  0  0  0  0  0  0  0
    2.9950    0.5086    1.6633 C   0  0  0  0  0  0  0  0  0  0  0  0
    4.2503    0.9228    2.0732 C   0  0  0  0  0  0  0  0  0  0  0  0
    4.1072    1.4321    3.3867 C   0  0  0  0  0  0  0  0  0  0  0  0
    2.7818    1.2710    3.7158 C   0  0  0  0  0  0  0  0  0  0  0  0
    1.9906    1.7676    5.3719 Br  0  0  0  0  0  0  0  0  0  0  0  0
    2.1038    0.6987    2.6867 O   0  0  0  0  0  0  0  0  0  0  0  0
   -2.4524    4.9474    0.0099 H   0  0  0  0  0  0  0  0  0  0  0  0
   -3.4388    3.8261   -0.9273 H   0  0  0  0  0  0  0  0  0  0  0  0
   -3.4845    3.7645    0.8518 H   0  0  0  0  0  0  0  0  0  0  0  0
   -0.3977    4.1736    1.1771 H   0  0  0  0  0  0  0  0  0  0  0  0
    1.4433    2.5791    1.2219 H   0  0  0  0  0  0  0  0  0  0  0  0
   -2.7588    1.4609   -1.2060 H   0  0  0  0  0  0  0  0  0  0  0  0
   -0.7078   -0.3417   -2.3915 H   0  0  0  0  0  0  0  0  0  0  0  0
   -2.0459   -1.5515    0.1092 H   0  0  0  0  0  0  0  0  0  0  0  0
   -2.7822   -1.1350   -1.4324 H   0  0  0  0  0  0  0  0  0  0  0  0
   -3.5310   -3.3588   -1.9332 H   0  0  0  0  0  0  0  0  0  0  0  0
   -2.9434   -3.9324   -0.3579 H   0  0  0  0  0  0  0  0  0  0  0  0
   -2.4148   -4.7146   -1.8654 H   0  0  0  0  0  0  0  0  0  0  0  0
    0.2798   -3.8298   -1.7502 H   0  0  0  0  0  0  0  0  0  0  0  0
   -0.5359   -4.2347   -0.2472 H   0  0  0  0  0  0  0  0  0  0  0  0
    0.1337   -2.2570    0.8446 H   0  0  0  0  0  0  0  0  0  0  0  0
    1.5534   -2.8395    0.0019 H   0  0  0  0  0  0  0  0  0  0  0  0
    1.3111   -1.1710   -1.7609 H   0  0  0  0  0  0  0  0  0  0  0  0
    5.1551    0.8524    1.4839 H   0  0  0  0  0  0  0  0  0  0  0  0
    4.8791    1.8486    4.0185 H   0  0  0  0  0  0  0  0  0  0  0  0
  1  2  1  0
  2  3  2  0
  3  4  1  0
  4  5  2  0
  5  6  1  0
  6  7  2  0
  6  8  1  0
  8  9  1  0
  9 10  1  0
 10 11  1  0
 10 12  1  0
 12 13  1  0
 13 14  1  0
 14 15  1  0
 15 16  1  0
 16 17  2  0
 16 18  1  0
 18 19  2  0
 19 20  1  0
 20 21  2  0
 21 22  1  0
 21 23  1  0
  7  2  1  0
 14  8  1  0
 23 18  1  0
 15  5  1  0
  1 24  1  0
  1 25  1  0
  1 26  1  0
  3 27  1  0
  4 28  1  0
  7 29  1  0
  8 30  1  0
  9 31  1  0
  9 32  1  0
 11 33  1  0
 11 34  1  0
 11 35  1  0
 12 36  1  0
 12 37  1  0
 13 38  1  0
 13 39  1  0
 14 40  1  0
 19 41  1  0
 20 42  1  0
M  END
$$$$
