
     RDKit          3D

 45 47  0  0  0  0  0  0  0  0999 V2000
    6.9290   -1.4319    1.5973 C   0  0  0  0  0  0  0  0  0  0  0  0
    6.3152   -0.5070    0.7122 O   0  0  0  0  0  0  0  0  0  0  0  0
    4.9461   -0.5261    0.6177 C   0  0  0  0  0  0  0  0  0  0  0  0
    4.1153   -1.3811    1.3453 C   0  0  0  0  0  0  0  0  0  0  0  0
    2.7277   -1.3268    1.1803 C   0  0  0  0  0  0  0  0  0  0  0  0
    2.1489   -0.4223    0.2856 C   0  0  0  0  0  0  0  0  0  0  0  0
    0.7410   -0.4213    0.1907 N   0  0  0  0  0  0  0  0  0  0  0  0
   -0.0380    0.2203   -0.7479 C   0  0  0  0  0  0  0  0  0  0  0  0
    0.3937    0.7886   -1.7473 O   0  0  0  0  0  0  0  0  0  0  0  0
   -1.4079    0.1576   -0.4855 N   0  0  0  0  0  0  0  0  0  0  0  0
   -2.3239    0.6593   -1.5110 C   0  0  0  0  0  0  0  0  0  0  0  0
   -3.6731   -0.0385   -1.4300 C   0  0  0  0  0  0  0  0  0  0  0  0
   -4.3250    0.1791   -0.0606 C   0  0  0  0  0  0  0  0  0  0  0  0
   -3.3212    0.5120    1.0451 C   0  0  0  0  0  0  0  0  0  0  0  0
   -1.9964   -0.1979    0.8096 C   0  0  0  0  0  0  0  0  0  0  0  0
   -5.2693    1.2629   -0.1613 O   0  0  0  0  0  0  0  0  0  0  0  0
   -6.4804    0.7547    0.3968 C   0  0  0  0  0  0  0  0  0  0  0  0
   -6.4092   -0.7158    0.0961 C   0  0  0  0  0  0  0  0  0  0  0  0
   -5.0316   -1.0227    0.3091 O   0  0  0  0  0  0  0  0  0  0  0  0
    2.9779    0.4419   -0.4339 C   0  0  0  0  0  0  0  0  0  0  0  0
    4.3717    0.3925   -0.2824 C   0  0  0  0  0  0  0  0  0  0  0  0
    5.2523    1.2062   -0.9554 O   0  0  0  0  0  0  0  0  0  0  0  0
    4.7227    2.0388   -1.9783 C   0  0  0  0  0  0  0  0  0  0  0  0
    6.6243   -1.2493    2.6330 H   0  0  0  0  0  0  0  0  0  0  0  0
    6.7194   -2.4643    1.2985 H   0  0  0  0  0  0  0  0  0  0  0  0
    8.0116   -1.2830    1.5390 H   0  0  0  0  0  0  0  0  0  0  0  0
    4.5142   -2.1021    2.0503 H   0  0  0  0  0  0  0  0  0  0  0  0
    2.1103   -2.0060    1.7624 H   0  0  0  0  0  0  0  0  0  0  0  0
    0.2620   -1.1133    0.7438 H   0  0  0  0  0  0  0  0  0  0  0  0
   -2.4289    1.7412   -1.3657 H   0  0  0  0  0  0  0  0  0  0  0  0
   -1.8892    0.5033   -2.5046 H   0  0  0  0  0  0  0  0  0  0  0  0
   -4.3242    0.3311   -2.2311 H   0  0  0  0  0  0  0  0  0  0  0  0
   -3.5272   -1.1117   -1.6105 H   0  0  0  0  0  0  0  0  0  0  0  0
   -3.1484    1.5957    1.0820 H   0  0  0  0  0  0  0  0  0  0  0  0
   -3.7210    0.2259    2.0254 H   0  0  0  0  0  0  0  0  0  0  0  0
   -1.3015    0.0623    1.6150 H   0  0  0  0  0  0  0  0  0  0  0  0
   -2.1311   -1.2858    0.8188 H   0  0  0  0  0  0  0  0  0  0  0  0
   -6.4644    0.9474    1.4749 H   0  0  0  0  0  0  0  0  0  0  0  0
   -7.3484    1.2480   -0.0470 H   0  0  0  0  0  0  0  0  0  0  0  0
   -6.6482   -0.9271   -0.9518 H   0  0  0  0  0  0  0  0  0  0  0  0
   -7.0459   -1.3235    0.7436 H   0  0  0  0  0  0  0  0  0  0  0  0
    2.5349    1.1669   -1.1045 H   0  0  0  0  0  0  0  0  0  0  0  0
    4.0649    2.8066   -1.5583 H   0  0  0  0  0  0  0  0  0  0  0  0
    4.2091    1.4502   -2.7459 H   0  0  0  0  0  0  0  0  0  0  0  0
    5.5620    2.5500   -2.4597 H   0  0  0  0  0  0  0  0  0  0  0  0
  1  2  1  0
  2  3  1  0
  3  4  2  0
  4  5  1  0
  5  6  2  0
  6  7  1  0
  7  8  1  0
  8  9  2  0
  8 10  1  0
 10 11  1  0
 11 12  1  0
 12 13  1  0
 13 14  1  0
 14 15  1  0
 13 16  1  0
 16 17  1  0
 17 18  1  0
 18 19  1  0
  6 20  1  0
 20 21  2  0
 21 22  1  0
 22 23  1  0
 21  3  1  0
 15 10  1  0
 19 13  1  0
  1 24  1  0
  1 25  1  0
  1 26  1  0
  4 27  1  0
  5 28  1  0
  7 29  1  0
 11 30  1  0
 11 31  1  0
 12 32  1  0
 12 33  1  0
 14 34  1  0
 14 35  1  0
 15 36  1  0
 15 37  1  0
 17 38  1  0
 17 39  1  0
 18 40  1  0
 18 41  1  0
 20 42  1  0
 23 43  1  0
 23 44  1  0
 23 45  1  0
M  END
$$$$
