
     RDKit          3D

 53 56  0  0  0  0  0  0  0  0999 V2000
   -5.8020    2.4325    1.2481 C   0  0  0  0  0  0  0  0  0  0  0  0
   -5.7552    1.1296    0.4206 C   0  0  0  0  0  0  0  0  0  0  0  0
   -6.3068    1.4619   -0.9843 C   0  0  0  0  0  0  0  0  0  0  0  0
   -6.7084    0.0924    1.0524 C   0  0  0  0  0  0  0  0  0  0  0  0
   -4.3209    0.5740    0.4099 C   0  0  0  0  0  0  0  0  0  0  0  0
   -3.5912    0.3711   -0.7707 C   0  0  0  0  0  0  0  0  0  0  0  0
   -2.2814   -0.1379   -0.7533 C   0  0  0  0  0  0  0  0  0  0  0  0
   -1.6555   -0.4560    0.4521 C   0  0  0  0  0  0  0  0  0  0  0  0
   -0.3249   -0.9756    0.5308 N   0  0  0  0  0  0  0  0  0  0  0  0
    0.1261   -1.4475    1.7329 N   0  0  0  0  0  0  0  0  0  0  0  0
    1.3399   -1.9370    1.4955 C   0  0  0  0  0  0  0  0  0  0  0  0
    1.7351   -1.7520    0.1687 C   0  0  0  0  0  0  0  0  0  0  0  0
    0.6675   -1.1081   -0.4341 C   0  0  0  0  0  0  0  0  0  0  0  0
    0.6559   -0.6726   -1.8597 C   0  0  0  0  0  0  0  0  0  0  0  0
    2.0747   -0.7271   -2.4614 C   0  0  0  0  0  0  0  0  0  0  0  0
    2.8411   -1.9982   -2.0487 C   0  0  0  0  0  0  0  0  0  0  0  0
    3.0118   -2.0993   -0.5154 C   0  0  0  0  0  0  0  0  0  0  0  0
    4.0176   -1.1762   -0.0372 N   0  0  0  0  0  0  0  0  0  0  0  0
    5.3668   -1.4299   -0.1379 C   0  0  0  0  0  0  0  0  0  0  0  0
    5.8382   -2.4810   -0.5546 O   0  0  0  0  0  0  0  0  0  0  0  0
    6.2392   -0.3041    0.2970 C   0  0  0  0  0  0  0  0  0  0  0  0
    7.6184   -0.4434    0.2779 C   0  0  0  0  0  0  0  0  0  0  0  0
    8.4504    0.5586    0.6633 N   0  0  0  0  0  0  0  0  0  0  0  0
    7.8384    1.6967    1.0664 C   0  0  0  0  0  0  0  0  0  0  0  0
    6.4582    1.8356    1.0835 C   0  0  0  0  0  0  0  0  0  0  0  0
    5.6198    0.8452    0.6988 N   0  0  0  0  0  0  0  0  0  0  0  0
   -2.3803   -0.2728    1.6386 C   0  0  0  0  0  0  0  0  0  0  0  0
   -3.6848    0.2357    1.6159 C   0  0  0  0  0  0  0  0  0  0  0  0
   -6.8078    2.8687    1.2421 H   0  0  0  0  0  0  0  0  0  0  0  0
   -5.1110    3.1816    0.8437 H   0  0  0  0  0  0  0  0  0  0  0  0
   -5.5314    2.2677    2.2968 H   0  0  0  0  0  0  0  0  0  0  0  0
   -7.3275    1.8585   -0.9243 H   0  0  0  0  0  0  0  0  0  0  0  0
   -5.6959    2.2197   -1.4886 H   0  0  0  0  0  0  0  0  0  0  0  0
   -6.3449    0.5724   -1.6239 H   0  0  0  0  0  0  0  0  0  0  0  0
   -7.7447    0.4501    1.0422 H   0  0  0  0  0  0  0  0  0  0  0  0
   -6.4540   -0.1224    2.0961 H   0  0  0  0  0  0  0  0  0  0  0  0
   -6.6777   -0.8569    0.5044 H   0  0  0  0  0  0  0  0  0  0  0  0
   -4.0220    0.5950   -1.7434 H   0  0  0  0  0  0  0  0  0  0  0  0
   -1.8132   -0.2935   -1.7151 H   0  0  0  0  0  0  0  0  0  0  0  0
    1.8919   -2.3917    2.3085 H   0  0  0  0  0  0  0  0  0  0  0  0
    0.0093   -1.3443   -2.4360 H   0  0  0  0  0  0  0  0  0  0  0  0
    0.2823    0.3515   -1.9593 H   0  0  0  0  0  0  0  0  0  0  0  0
    2.6413    0.1558   -2.1386 H   0  0  0  0  0  0  0  0  0  0  0  0
    2.0055   -0.6734   -3.5540 H   0  0  0  0  0  0  0  0  0  0  0  0
    2.2807   -2.8719   -2.4070 H   0  0  0  0  0  0  0  0  0  0  0  0
    3.8161   -2.0168   -2.5493 H   0  0  0  0  0  0  0  0  0  0  0  0
    3.3239   -3.1178   -0.2559 H   0  0  0  0  0  0  0  0  0  0  0  0
    3.7496   -0.2375    0.2494 H   0  0  0  0  0  0  0  0  0  0  0  0
    8.0972   -1.3615   -0.0461 H   0  0  0  0  0  0  0  0  0  0  0  0
    8.4934    2.5029    1.3787 H   0  0  0  0  0  0  0  0  0  0  0  0
    5.9892    2.7572    1.4110 H   0  0  0  0  0  0  0  0  0  0  0  0
   -1.9413   -0.5151    2.6056 H   0  0  0  0  0  0  0  0  0  0  0  0
   -4.1964    0.3611    2.5679 H   0  0  0  0  0  0  0  0  0  0  0  0
  1  2  1  0
  2  3  1  0
  2  4  1  0
  2  5  1  0
  5  6  2  0
  6  7  1  0
  7  8  2  0
  8  9  1  0
  9 10  1  0
 10 11  2  0
 11 12  1  0
 12 13  2  0
 13 14  1  0
 14 15  1  0
 15 16  1  0
 16 17  1  0
 17 18  1  0
 18 19  1  0
 19 20  2  0
 19 21  1  0
 21 22  2  0
 22 23  1  0
 23 24  2  0
 24 25  1  0
 25 26  2  0
  8 27  1  0
 27 28  2  0
 28  5  1  0
 13  9  1  0
 26 21  1  0
 17 12  1  0
  1 29  1  0
  1 30  1  0
  1 31  1  0
  3 32  1  0
  3 33  1  0
  3 34  1  0
  4 35  1  0
  4 36  1  0
  4 37  1  0
  6 38  1  0
  7 39  1  0
 11 40  1  0
 14 41  1  0
 14 42  1  0
 15 43  1  0
 15 44  1  0
 16 45  1  0
 16 46  1  0
 17 47  1  0
 18 48  1  0
 22 49  1  0
 24 50  1  0
 25 51  1  0
 27 52  1  0
 28 53  1  0
M  END
$$$$
