
     RDKit          3D

 43 45  0  0  0  0  0  0  0  0999 V2000
   -7.6538   -1.3163    0.8704 C   0  0  0  0  0  0  0  0  0  0  0  0
   -6.8257   -0.8644   -0.0808 C   0  0  0  0  0  0  0  0  0  0  0  0
   -6.2357    0.5186   -0.1102 C   0  0  0  0  0  0  0  0  0  0  0  0
   -4.8251    0.4364    0.2322 N   0  0  0  0  0  0  0  0  0  0  0  0
   -4.4673    0.6313    1.5586 C   0  0  0  0  0  0  0  0  0  0  0  0
   -5.2591    0.8956    2.4610 O   0  0  0  0  0  0  0  0  0  0  0  0
   -3.1412    0.5273    1.8494 N   0  0  0  0  0  0  0  0  0  0  0  0
   -2.1644    0.2468    0.9127 C   0  0  0  0  0  0  0  0  0  0  0  0
   -0.8906    0.1734    1.3486 N   0  0  0  0  0  0  0  0  0  0  0  0
    0.0492   -0.1016    0.4173 C   0  0  0  0  0  0  0  0  0  0  0  0
    1.3805   -0.1933    0.7939 C   0  0  0  0  0  0  0  0  0  0  0  0
    2.3907   -0.4638   -0.1346 C   0  0  0  0  0  0  0  0  0  0  0  0
    3.7188   -0.5627    0.3042 N   0  0  0  0  0  0  0  0  0  0  0  0
    4.3828    0.5449    0.3662 C   0  0  0  0  0  0  0  0  0  0  0  0
    5.6913    0.6842    0.7697 N   0  0  0  0  0  0  0  0  0  0  0  0
    6.4122    1.9164    0.4954 C   0  0  0  0  0  0  0  0  0  0  0  0
    6.5080   -0.5076    0.9575 C   0  0  0  0  0  0  0  0  0  0  0  0
    2.0527   -0.6798   -1.4764 C   0  0  0  0  0  0  0  0  0  0  0  0
    3.1075   -1.0018   -2.4965 C   0  0  0  0  0  0  0  0  0  0  0  0
    0.7079   -0.5813   -1.8624 C   0  0  0  0  0  0  0  0  0  0  0  0
   -0.2945   -0.2968   -0.9455 C   0  0  0  0  0  0  0  0  0  0  0  0
   -1.5692   -0.2143   -1.3670 N   0  0  0  0  0  0  0  0  0  0  0  0
   -2.4949    0.0582   -0.4133 C   0  0  0  0  0  0  0  0  0  0  0  0
   -3.9190    0.1634   -0.7984 C   0  0  0  0  0  0  0  0  0  0  0  0
   -4.2542    0.0138   -1.9718 O   0  0  0  0  0  0  0  0  0  0  0  0
   -7.9401   -0.6977    1.7167 H   0  0  0  0  0  0  0  0  0  0  0  0
   -8.0540   -2.3246    0.8272 H   0  0  0  0  0  0  0  0  0  0  0  0
   -6.5646   -1.5179   -0.9115 H   0  0  0  0  0  0  0  0  0  0  0  0
   -6.3588    0.9423   -1.1133 H   0  0  0  0  0  0  0  0  0  0  0  0
   -6.7584    1.1849    0.5854 H   0  0  0  0  0  0  0  0  0  0  0  0
   -2.8528    0.6595    2.8088 H   0  0  0  0  0  0  0  0  0  0  0  0
    1.6470   -0.0552    1.8388 H   0  0  0  0  0  0  0  0  0  0  0  0
    3.9223    1.5113    0.0832 H   0  0  0  0  0  0  0  0  0  0  0  0
    6.7385    1.9419   -0.5493 H   0  0  0  0  0  0  0  0  0  0  0  0
    7.2937    2.0094    1.1383 H   0  0  0  0  0  0  0  0  0  0  0  0
    5.7797    2.7905    0.6841 H   0  0  0  0  0  0  0  0  0  0  0  0
    7.4352   -0.2711    1.4903 H   0  0  0  0  0  0  0  0  0  0  0  0
    5.9779   -1.2580    1.5536 H   0  0  0  0  0  0  0  0  0  0  0  0
    6.7693   -0.9469   -0.0108 H   0  0  0  0  0  0  0  0  0  0  0  0
    3.6960   -1.8687   -2.1787 H   0  0  0  0  0  0  0  0  0  0  0  0
    3.7715   -0.1432   -2.6383 H   0  0  0  0  0  0  0  0  0  0  0  0
    2.6638   -1.2467   -3.4674 H   0  0  0  0  0  0  0  0  0  0  0  0
    0.4268   -0.7366   -2.9026 H   0  0  0  0  0  0  0  0  0  0  0  0
  1  2  2  0
  2  3  1  0
  3  4  1  0
  4  5  1  0
  5  6  2  0
  5  7  1  0
  7  8  1  0
  8  9  2  0
  9 10  1  0
 10 11  2  0
 11 12  1  0
 12 13  1  0
 13 14  2  3
 14 15  1  0
 15 16  1  0
 15 17  1  0
 12 18  2  0
 18 19  1  0
 18 20  1  0
 20 21  2  0
 21 22  1  0
 22 23  2  0
 23 24  1  0
 24 25  2  0
 24  4  1  0
 23  8  1  0
 21 10  1  0
  1 26  1  0
  1 27  1  0
  2 28  1  0
  3 29  1  0
  3 30  1  0
  7 31  1  0
 11 32  1  0
 14 33  1  0
 16 34  1  0
 16 35  1  0
 16 36  1  0
 17 37  1  0
 17 38  1  0
 17 39  1  0
 19 40  1  0
 19 41  1  0
 19 42  1  0
 20 43  1  0
M  END
$$$$
