
     RDKit          3D

 43 45  0  0  0  0  0  0  0  0999 V2000
   -3.1638   -3.3087    1.1512 C   0  0  0  0  0  0  0  0  0  0  0  0
   -3.2054   -1.8657    0.9089 N   0  0  0  0  0  0  0  0  0  0  0  0
   -4.3280   -1.2733    1.6406 C   0  0  0  0  0  0  0  0  0  0  0  0
   -3.3131   -1.6033   -0.5400 C   0  0  0  0  0  0  0  0  0  0  0  0
   -3.0608   -0.1626   -0.9067 C   0  0  0  0  0  0  0  0  0  0  0  0
   -4.0771    0.6990   -1.3552 C   0  0  0  0  0  0  0  0  0  0  0  0
   -5.3497    0.2085   -1.4714 O   0  0  0  0  0  0  0  0  0  0  0  0
   -3.8267    2.0477   -1.6852 C   0  0  0  0  0  0  0  0  0  0  0  0
   -2.5392    2.5756   -1.5741 C   0  0  0  0  0  0  0  0  0  0  0  0
   -1.5483    1.7221   -1.1348 C   0  0  0  0  0  0  0  0  0  0  0  0
   -1.7913    0.3885   -0.8093 C   0  0  0  0  0  0  0  0  0  0  0  0
   -0.6525   -0.2750   -0.4032 O   0  0  0  0  0  0  0  0  0  0  0  0
    0.3763    0.6590   -0.4538 C   0  0  0  0  0  0  0  0  0  0  0  0
    1.6557    0.4299   -0.1304 C   0  0  0  0  0  0  0  0  0  0  0  0
    2.1536   -0.8476    0.3368 C   0  0  0  0  0  0  0  0  0  0  0  0
    3.4271   -1.1419    0.6450 C   0  0  0  0  0  0  0  0  0  0  0  0
    4.5747   -0.2364    0.5444 C   0  0  0  0  0  0  0  0  0  0  0  0
    5.1969    0.2243    1.7092 C   0  0  0  0  0  0  0  0  0  0  0  0
    6.2967    1.0809    1.6274 C   0  0  0  0  0  0  0  0  0  0  0  0
    6.7818    1.4773    0.3817 C   0  0  0  0  0  0  0  0  0  0  0  0
    6.1695    1.0172   -0.7833 C   0  0  0  0  0  0  0  0  0  0  0  0
    5.0700    0.1604   -0.7031 C   0  0  0  0  0  0  0  0  0  0  0  0
   -0.1286    1.9743   -0.9243 C   0  0  0  0  0  0  0  0  0  0  0  0
    0.4707    3.0118   -1.1035 O   0  0  0  0  0  0  0  0  0  0  0  0
   -2.2970   -3.7583    0.6540 H   0  0  0  0  0  0  0  0  0  0  0  0
   -4.0682   -3.8154    0.7950 H   0  0  0  0  0  0  0  0  0  0  0  0
   -3.0501   -3.5168    2.2210 H   0  0  0  0  0  0  0  0  0  0  0  0
   -5.2961   -1.6503    1.2912 H   0  0  0  0  0  0  0  0  0  0  0  0
   -4.2433   -1.4908    2.7116 H   0  0  0  0  0  0  0  0  0  0  0  0
   -4.3278   -0.1818    1.5534 H   0  0  0  0  0  0  0  0  0  0  0  0
   -4.2797   -1.9495   -0.9278 H   0  0  0  0  0  0  0  0  0  0  0  0
   -2.5594   -2.1961   -1.0773 H   0  0  0  0  0  0  0  0  0  0  0  0
   -5.9390    0.9189   -1.7753 H   0  0  0  0  0  0  0  0  0  0  0  0
   -4.6295    2.6948   -2.0288 H   0  0  0  0  0  0  0  0  0  0  0  0
   -2.3201    3.6090   -1.8205 H   0  0  0  0  0  0  0  0  0  0  0  0
    2.3632    1.2531   -0.2119 H   0  0  0  0  0  0  0  0  0  0  0  0
    1.4122   -1.6364    0.4647 H   0  0  0  0  0  0  0  0  0  0  0  0
    3.6658   -2.1364    1.0160 H   0  0  0  0  0  0  0  0  0  0  0  0
    4.8246   -0.0740    2.6863 H   0  0  0  0  0  0  0  0  0  0  0  0
    6.7726    1.4407    2.5357 H   0  0  0  0  0  0  0  0  0  0  0  0
    7.6361    2.1462    0.3187 H   0  0  0  0  0  0  0  0  0  0  0  0
    6.5462    1.3262   -1.7547 H   0  0  0  0  0  0  0  0  0  0  0  0
    4.6008   -0.1934   -1.6180 H   0  0  0  0  0  0  0  0  0  0  0  0
  1  2  1  0
  2  3  1  0
  2  4  1  0
  4  5  1  0
  5  6  2  0
  6  7  1  0
  6  8  1  0
  8  9  2  0
  9 10  1  0
 10 11  2  0
 11 12  1  0
 12 13  1  0
 13 14  2  3
 14 15  1  0
 15 16  2  3
 16 17  1  0
 17 18  2  0
 18 19  1  0
 19 20  2  0
 20 21  1  0
 21 22  2  0
 13 23  1  0
 23 24  2  0
 11  5  1  0
 22 17  1  0
 23 10  1  0
  1 25  1  0
  1 26  1  0
  1 27  1  0
  3 28  1  0
  3 29  1  0
  3 30  1  0
  4 31  1  0
  4 32  1  0
  7 33  1  0
  8 34  1  0
  9 35  1  0
 14 36  1  0
 15 37  1  0
 16 38  1  0
 18 39  1  0
 19 40  1  0
 20 41  1  0
 21 42  1  0
 22 43  1  0
M  END
$$$$
