
     RDKit          3D

 39 41  0  0  0  0  0  0  0  0999 V2000
   -3.9913   -2.2910   -1.0631 C   0  0  0  0  0  0  0  0  0  0  0  0
   -3.5738   -2.5999    0.3647 C   0  0  0  0  0  0  0  0  0  0  0  0
   -1.8769   -3.2656    0.4460 S   0  0  0  0  0  0  0  0  0  0  0  0
   -0.8957   -1.7887    0.2070 C   0  0  0  0  0  0  0  0  0  0  0  0
    0.4521   -1.9323   -0.0450 C   0  0  0  0  0  0  0  0  0  0  0  0
    1.1963   -0.7838   -0.2128 C   0  0  0  0  0  0  0  0  0  0  0  0
    2.5434   -0.8263   -0.4837 N   0  0  0  0  0  0  0  0  0  0  0  0
    3.3013    0.4138   -0.6036 C   0  0  0  0  0  0  0  0  0  0  0  0
    4.7245   -0.0754   -0.8527 C   0  0  0  0  0  0  0  0  0  0  0  0
    4.7953   -1.3366   -0.0066 C   0  0  0  0  0  0  0  0  0  0  0  0
    3.4075   -1.9582   -0.1698 C   0  0  0  0  0  0  0  0  0  0  0  0
    0.6029    0.4202   -0.1463 N   0  0  0  0  0  0  0  0  0  0  0  0
   -0.7167    0.4756    0.1092 C   0  0  0  0  0  0  0  0  0  0  0  0
   -1.3481    1.8107    0.1826 C   0  0  0  0  0  0  0  0  0  0  0  0
   -0.6007    2.9898   -0.0231 C   0  0  0  0  0  0  0  0  0  0  0  0
   -1.1955    4.2540    0.0444 C   0  0  0  0  0  0  0  0  0  0  0  0
   -2.5511    4.3579    0.3197 C   0  0  0  0  0  0  0  0  0  0  0  0
   -3.1225    5.5673    0.3847 F   0  0  0  0  0  0  0  0  0  0  0  0
   -3.3220    3.2235    0.5284 C   0  0  0  0  0  0  0  0  0  0  0  0
   -2.7237    1.9610    0.4599 C   0  0  0  0  0  0  0  0  0  0  0  0
   -1.4982   -0.5967    0.2989 N   0  0  0  0  0  0  0  0  0  0  0  0
   -3.9374   -3.1829   -1.6966 H   0  0  0  0  0  0  0  0  0  0  0  0
   -3.3736   -1.5087   -1.5144 H   0  0  0  0  0  0  0  0  0  0  0  0
   -5.0282   -1.9390   -1.0774 H   0  0  0  0  0  0  0  0  0  0  0  0
   -3.6812   -1.7220    1.0092 H   0  0  0  0  0  0  0  0  0  0  0  0
   -4.2400   -3.3700    0.7680 H   0  0  0  0  0  0  0  0  0  0  0  0
    0.8981   -2.9142   -0.1211 H   0  0  0  0  0  0  0  0  0  0  0  0
    3.2572    0.9883    0.3298 H   0  0  0  0  0  0  0  0  0  0  0  0
    2.9517    1.0392   -1.4319 H   0  0  0  0  0  0  0  0  0  0  0  0
    5.4783    0.6665   -0.5754 H   0  0  0  0  0  0  0  0  0  0  0  0
    4.8588   -0.3271   -1.9116 H   0  0  0  0  0  0  0  0  0  0  0  0
    4.9629   -1.0701    1.0441 H   0  0  0  0  0  0  0  0  0  0  0  0
    5.5957   -2.0139   -0.3169 H   0  0  0  0  0  0  0  0  0  0  0  0
    3.1207   -2.4768    0.7516 H   0  0  0  0  0  0  0  0  0  0  0  0
    3.3983   -2.6719   -1.0009 H   0  0  0  0  0  0  0  0  0  0  0  0
    0.4648    2.9263   -0.2412 H   0  0  0  0  0  0  0  0  0  0  0  0
   -0.6074    5.1516   -0.1168 H   0  0  0  0  0  0  0  0  0  0  0  0
   -4.3811    3.3235    0.7427 H   0  0  0  0  0  0  0  0  0  0  0  0
   -3.3445    1.0819    0.6267 H   0  0  0  0  0  0  0  0  0  0  0  0
  1  2  1  0
  2  3  1  0
  3  4  1  0
  4  5  2  0
  5  6  1  0
  6  7  1  0
  7  8  1  0
  8  9  1  0
  9 10  1  0
 10 11  1  0
  6 12  2  0
 12 13  1  0
 13 14  1  0
 14 15  2  0
 15 16  1  0
 16 17  2  0
 17 18  1  0
 17 19  1  0
 19 20  2  0
 13 21  2  0
 21  4  1  0
 11  7  1  0
 20 14  1  0
  1 22  1  0
  1 23  1  0
  1 24  1  0
  2 25  1  0
  2 26  1  0
  5 27  1  0
  8 28  1  0
  8 29  1  0
  9 30  1  0
  9 31  1  0
 10 32  1  0
 10 33  1  0
 11 34  1  0
 11 35  1  0
 15 36  1  0
 16 37  1  0
 19 38  1  0
 20 39  1  0
M  END
$$$$
