
     RDKit          3D

 68 72  0  0  0  0  0  0  0  0999 V2000
    9.3117    2.3890    0.3316 C   0  0  0  0  0  0  0  0  0  0  0  0
    8.6732    1.9276   -0.8527 O   0  0  0  0  0  0  0  0  0  0  0  0
    7.3245    1.7160   -0.7828 C   0  0  0  0  0  0  0  0  0  0  0  0
    6.5062    1.9692    0.3116 C   0  0  0  0  0  0  0  0  0  0  0  0
    5.1314    1.6882    0.2459 C   0  0  0  0  0  0  0  0  0  0  0  0
    4.5291    1.1487   -0.9017 C   0  0  0  0  0  0  0  0  0  0  0  0
    3.1746    0.8681   -0.9475 N   0  0  0  0  0  0  0  0  0  0  0  0
    2.4117    0.5807    0.2794 C   0  0  0  0  0  0  0  0  0  0  0  0
    1.2842   -0.4408   -0.0010 C   0  0  0  0  0  0  0  0  0  0  0  0
    0.2974   -0.0047   -1.0240 N   0  0  0  0  0  0  0  0  0  0  0  0
   -0.3451   -1.1724   -1.6542 C   0  0  0  0  0  0  0  0  0  0  0  0
   -1.1539   -1.9887   -0.6844 C   0  0  0  0  0  0  0  0  0  0  0  0
   -0.8696   -3.2304   -0.3166 N   0  0  0  0  0  0  0  0  0  0  0  0
   -1.8601   -3.5801    0.5441 C   0  0  0  0  0  0  0  0  0  0  0  0
   -2.7584   -2.5695    0.7267 C   0  0  0  0  0  0  0  0  0  0  0  0
   -3.8837   -2.6981    1.5874 C   0  0  0  0  0  0  0  0  0  0  0  0
   -4.7198   -1.8279    1.8040 O   0  0  0  0  0  0  0  0  0  0  0  0
   -3.9490   -3.9364    2.1868 N   0  0  0  0  0  0  0  0  0  0  0  0
   -3.0615   -4.9869    2.0432 C   0  0  0  0  0  0  0  0  0  0  0  0
   -3.2604   -6.0230    2.6773 O   0  0  0  0  0  0  0  0  0  0  0  0
   -1.9876   -4.7956    1.1816 N   0  0  0  0  0  0  0  0  0  0  0  0
   -1.0034   -5.8408    0.9823 C   0  0  0  0  0  0  0  0  0  0  0  0
   -2.3015   -1.5393   -0.0515 N   0  0  0  0  0  0  0  0  0  0  0  0
   -2.9150   -0.2274   -0.1792 C   0  0  0  0  0  0  0  0  0  0  0  0
   -2.5910    0.6813    1.0083 C   0  0  0  0  0  0  0  0  0  0  0  0
   -3.0370    2.1297    0.7854 C   0  0  0  0  0  0  0  0  0  0  0  0
   -4.5099    2.3261    0.5141 C   0  0  0  0  0  0  0  0  0  0  0  0
   -4.9181    3.1784   -0.5223 C   0  0  0  0  0  0  0  0  0  0  0  0
   -6.2738    3.3937   -0.7766 C   0  0  0  0  0  0  0  0  0  0  0  0
   -7.2388    2.7634    0.0047 C   0  0  0  0  0  0  0  0  0  0  0  0
   -6.8481    1.9240    1.0445 C   0  0  0  0  0  0  0  0  0  0  0  0
   -5.4923    1.7131    1.3042 C   0  0  0  0  0  0  0  0  0  0  0  0
    0.9467    0.8555   -2.0405 C   0  0  0  0  0  0  0  0  0  0  0  0
    2.4702    0.6544   -2.2190 C   0  0  0  0  0  0  0  0  0  0  0  0
    5.3758    0.9244   -1.9967 C   0  0  0  0  0  0  0  0  0  0  0  0
    6.7492    1.2000   -1.9401 C   0  0  0  0  0  0  0  0  0  0  0  0
    9.1649    1.6866    1.1598 H   0  0  0  0  0  0  0  0  0  0  0  0
   10.3869    2.4472    0.1324 H   0  0  0  0  0  0  0  0  0  0  0  0
    8.9653    3.3934    0.5964 H   0  0  0  0  0  0  0  0  0  0  0  0
    6.8940    2.3916    1.2315 H   0  0  0  0  0  0  0  0  0  0  0  0
    4.5294    1.9269    1.1186 H   0  0  0  0  0  0  0  0  0  0  0  0
    3.0558    0.1462    1.0536 H   0  0  0  0  0  0  0  0  0  0  0  0
    1.9880    1.5129    0.6730 H   0  0  0  0  0  0  0  0  0  0  0  0
    1.7664   -1.3791   -0.3103 H   0  0  0  0  0  0  0  0  0  0  0  0
    0.7562   -0.6421    0.9386 H   0  0  0  0  0  0  0  0  0  0  0  0
   -1.0243   -0.8427   -2.4508 H   0  0  0  0  0  0  0  0  0  0  0  0
    0.4027   -1.8165   -2.1361 H   0  0  0  0  0  0  0  0  0  0  0  0
   -4.7205   -4.0939    2.8161 H   0  0  0  0  0  0  0  0  0  0  0  0
   -0.8729   -6.0193   -0.0897 H   0  0  0  0  0  0  0  0  0  0  0  0
   -1.3093   -6.7769    1.4572 H   0  0  0  0  0  0  0  0  0  0  0  0
   -0.0541   -5.5199    1.4211 H   0  0  0  0  0  0  0  0  0  0  0  0
   -3.9935   -0.3877   -0.2843 H   0  0  0  0  0  0  0  0  0  0  0  0
   -2.5750    0.2229   -1.1167 H   0  0  0  0  0  0  0  0  0  0  0  0
   -1.5092    0.6834    1.1897 H   0  0  0  0  0  0  0  0  0  0  0  0
   -3.0401    0.2812    1.9241 H   0  0  0  0  0  0  0  0  0  0  0  0
   -2.7755    2.7250    1.6692 H   0  0  0  0  0  0  0  0  0  0  0  0
   -2.4512    2.5425   -0.0465 H   0  0  0  0  0  0  0  0  0  0  0  0
   -4.1807    3.6872   -1.1388 H   0  0  0  0  0  0  0  0  0  0  0  0
   -6.5759    4.0571   -1.5830 H   0  0  0  0  0  0  0  0  0  0  0  0
   -8.2941    2.9301   -0.1917 H   0  0  0  0  0  0  0  0  0  0  0  0
   -7.5979    1.4331    1.6592 H   0  0  0  0  0  0  0  0  0  0  0  0
   -5.2174    1.0595    2.1297 H   0  0  0  0  0  0  0  0  0  0  0  0
    0.7790    1.8936   -1.7235 H   0  0  0  0  0  0  0  0  0  0  0  0
    0.4510    0.7662   -3.0150 H   0  0  0  0  0  0  0  0  0  0  0  0
    2.8103    1.3751   -2.9720 H   0  0  0  0  0  0  0  0  0  0  0  0
    2.6714   -0.3566   -2.5934 H   0  0  0  0  0  0  0  0  0  0  0  0
    4.9905    0.5032   -2.9205 H   0  0  0  0  0  0  0  0  0  0  0  0
    7.3717    1.0001   -2.8083 H   0  0  0  0  0  0  0  0  0  0  0  0
  1  2  1  0
  2  3  1  0
  3  4  2  0
  4  5  1  0
  5  6  2  0
  6  7  1  0
  7  8  1  0
  8  9  1  0
  9 10  1  0
 10 11  1  0
 11 12  1  0
 12 13  2  0
 13 14  1  0
 14 15  2  0
 15 16  1  0
 16 17  2  0
 16 18  1  0
 18 19  1  0
 19 20  2  0
 19 21  1  0
 21 22  1  0
 15 23  1  0
 23 24  1  0
 24 25  1  0
 25 26  1  0
 26 27  1  0
 27 28  2  0
 28 29  1  0
 29 30  2  0
 30 31  1  0
 31 32  2  0
 10 33  1  0
 33 34  1  0
  6 35  1  0
 35 36  2  0
 36  3  1  0
 34  7  1  0
 23 12  1  0
 32 27  1  0
 21 14  1  0
  1 37  1  0
  1 38  1  0
  1 39  1  0
  4 40  1  0
  5 41  1  0
  8 42  1  0
  8 43  1  0
  9 44  1  0
  9 45  1  0
 11 46  1  0
 11 47  1  0
 18 48  1  0
 22 49  1  0
 22 50  1  0
 22 51  1  0
 24 52  1  0
 24 53  1  0
 25 54  1  0
 25 55  1  0
 26 56  1  0
 26 57  1  0
 28 58  1  0
 29 59  1  0
 30 60  1  0
 31 61  1  0
 32 62  1  0
 33 63  1  0
 33 64  1  0
 34 65  1  0
 34 66  1  0
 35 67  1  0
 36 68  1  0
M  END
$$$$
