
     RDKit          3D

 45 47  0  0  0  0  0  0  0  0999 V2000
    4.1659    3.1265    3.8677 C   0  0  0  0  0  0  0  0  0  0  0  0
    3.6646    2.3696    2.6731 C   0  0  0  0  0  0  0  0  0  0  0  0
    4.0801    1.0529    2.4423 C   0  0  0  0  0  0  0  0  0  0  0  0
    3.5896    0.3333    1.3481 C   0  0  0  0  0  0  0  0  0  0  0  0
    2.6719    0.9242    0.4737 C   0  0  0  0  0  0  0  0  0  0  0  0
    2.1272    0.1856   -0.7033 C   0  0  0  0  0  0  0  0  0  0  0  0
    0.9604    0.5115   -1.1753 N   0  0  0  0  0  0  0  0  0  0  0  0
    0.4700   -0.1902   -2.2544 N   0  0  0  0  0  0  0  0  0  0  0  0
   -0.9596   -0.0929   -2.4995 C   0  0  0  0  0  0  0  0  0  0  0  0
   -1.7124   -1.2501   -1.8365 C   0  0  0  0  0  0  0  0  0  0  0  0
   -1.1796   -2.1567   -1.1998 O   0  0  0  0  0  0  0  0  0  0  0  0
   -3.0814   -1.1858   -2.0279 N   0  0  0  0  0  0  0  0  0  0  0  0
   -3.9723   -2.0991   -1.3412 C   0  0  0  0  0  0  0  0  0  0  0  0
   -4.4192   -1.5288   -0.0152 C   0  0  0  0  0  0  0  0  0  0  0  0
   -3.7081   -1.8136    1.1487 C   0  0  0  0  0  0  0  0  0  0  0  0
   -4.1224   -1.2399    2.3469 C   0  0  0  0  0  0  0  0  0  0  0  0
   -5.2249   -0.3945    2.3515 C   0  0  0  0  0  0  0  0  0  0  0  0
   -5.8670   -0.1504    1.1494 C   0  0  0  0  0  0  0  0  0  0  0  0
   -5.4874   -0.6883   -0.0309 N   0  0  0  0  0  0  0  0  0  0  0  0
    1.2464   -0.9792   -3.0948 C   0  0  0  0  0  0  0  0  0  0  0  0
    0.8066   -1.5803   -4.0746 O   0  0  0  0  0  0  0  0  0  0  0  0
    2.7168   -0.9745   -2.7813 C   0  0  0  0  0  0  0  0  0  0  0  0
    2.9286   -0.9535   -1.2861 C   0  0  0  0  0  0  0  0  0  0  0  0
    2.2340    2.2311    0.7175 C   0  0  0  0  0  0  0  0  0  0  0  0
    2.7264    2.9480    1.8111 C   0  0  0  0  0  0  0  0  0  0  0  0
    5.1845    2.8182    4.1258 H   0  0  0  0  0  0  0  0  0  0  0  0
    3.5125    2.9454    4.7266 H   0  0  0  0  0  0  0  0  0  0  0  0
    4.1943    4.2022    3.6645 H   0  0  0  0  0  0  0  0  0  0  0  0
    4.7861    0.5753    3.1190 H   0  0  0  0  0  0  0  0  0  0  0  0
    3.9204   -0.6924    1.2132 H   0  0  0  0  0  0  0  0  0  0  0  0
   -1.3285    0.8561   -2.0950 H   0  0  0  0  0  0  0  0  0  0  0  0
   -1.1545   -0.1195   -3.5770 H   0  0  0  0  0  0  0  0  0  0  0  0
   -3.4922   -0.3088   -2.3204 H   0  0  0  0  0  0  0  0  0  0  0  0
   -4.8458   -2.2421   -1.9868 H   0  0  0  0  0  0  0  0  0  0  0  0
   -3.4961   -3.0764   -1.2061 H   0  0  0  0  0  0  0  0  0  0  0  0
   -2.8361   -2.4616    1.1203 H   0  0  0  0  0  0  0  0  0  0  0  0
   -3.5831   -1.4472    3.2668 H   0  0  0  0  0  0  0  0  0  0  0  0
   -5.5716    0.0677    3.2686 H   0  0  0  0  0  0  0  0  0  0  0  0
   -6.7303    0.5072    1.1016 H   0  0  0  0  0  0  0  0  0  0  0  0
    3.1779   -1.8705   -3.2097 H   0  0  0  0  0  0  0  0  0  0  0  0
    3.1614   -0.0933   -3.2576 H   0  0  0  0  0  0  0  0  0  0  0  0
    3.9960   -0.8425   -1.0758 H   0  0  0  0  0  0  0  0  0  0  0  0
    2.5742   -1.8845   -0.8285 H   0  0  0  0  0  0  0  0  0  0  0  0
    1.5072    2.7008    0.0583 H   0  0  0  0  0  0  0  0  0  0  0  0
    2.3697    3.9610    1.9852 H   0  0  0  0  0  0  0  0  0  0  0  0
  1  2  1  0
  2  3  2  0
  3  4  1  0
  4  5  2  0
  5  6  1  0
  6  7  2  0
  7  8  1  0
  8  9  1  0
  9 10  1  0
 10 11  2  0
 10 12  1  0
 12 13  1  0
 13 14  1  0
 14 15  2  0
 15 16  1  0
 16 17  2  0
 17 18  1  0
 18 19  2  0
  8 20  1  0
 20 21  2  0
 20 22  1  0
 22 23  1  0
  5 24  1  0
 24 25  2  0
 25  2  1  0
 23  6  1  0
 19 14  1  0
  1 26  1  0
  1 27  1  0
  1 28  1  0
  3 29  1  0
  4 30  1  0
  9 31  1  0
  9 32  1  0
 12 33  1  0
 13 34  1  0
 13 35  1  0
 15 36  1  0
 16 37  1  0
 17 38  1  0
 18 39  1  0
 22 40  1  0
 22 41  1  0
 23 42  1  0
 23 43  1  0
 24 44  1  0
 25 45  1  0
M  END
$$$$
