
     RDKit          3D

 59 62  0  0  0  0  0  0  0  0999 V2000
   -7.9809    0.0879    1.0922 C   0  0  0  0  0  0  0  0  0  0  0  0
   -6.8217    0.5151    0.1938 C   0  0  0  0  0  0  0  0  0  0  0  0
   -7.3137    1.4473   -0.9220 C   0  0  0  0  0  0  0  0  0  0  0  0
   -6.2026    2.3501   -1.4561 C   0  0  0  0  0  0  0  0  0  0  0  0
   -4.8211    1.7413   -1.2283 C   0  0  0  0  0  0  0  0  0  0  0  0
   -4.5224    1.5500    0.2000 N   0  0  0  0  0  0  0  0  0  0  0  0
   -3.4157    0.6029    0.4262 C   0  0  0  0  0  0  0  0  0  0  0  0
   -2.0946    1.0633   -0.2071 C   0  0  0  0  0  0  0  0  0  0  0  0
   -0.9347    0.1261    0.1279 C   0  0  0  0  0  0  0  0  0  0  0  0
   -0.5810    0.2518    1.5414 N   0  0  0  0  0  0  0  0  0  0  0  0
    0.3010   -0.9600    2.2943 S   0  0  0  0  0  6  0  0  0  0  0  0
   -0.3931   -2.2118    2.0883 O   0  0  0  0  0  0  0  0  0  0  0  0
    0.6268   -0.4707    3.6153 O   0  0  0  0  0  0  0  0  0  0  0  0
    1.8027   -0.9863    1.3446 C   0  0  0  0  0  0  0  0  0  0  0  0
    2.0160   -2.0050    0.4010 C   0  0  0  0  0  0  0  0  0  0  0  0
    3.1984   -2.0314   -0.3464 C   0  0  0  0  0  0  0  0  0  0  0  0
    4.1467   -1.0449   -0.1257 C   0  0  0  0  0  0  0  0  0  0  0  0
    3.9327   -0.0438    0.8250 C   0  0  0  0  0  0  0  0  0  0  0  0
    2.7659    0.0031    1.5735 C   0  0  0  0  0  0  0  0  0  0  0  0
    5.0817    0.9116    0.8780 C   0  0  0  0  0  0  0  0  0  0  0  0
    6.0731    0.2787   -0.1069 C   0  0  0  0  0  0  0  0  0  0  0  0
    5.4014   -0.8698   -0.7359 N   0  0  0  0  0  0  0  0  0  0  0  0
    5.9324   -1.6646   -1.7357 C   0  0  0  0  0  0  0  0  0  0  0  0
    5.3712   -2.6071   -2.2808 O   0  0  0  0  0  0  0  0  0  0  0  0
    7.3094   -1.2978   -2.1873 C   0  0  0  0  0  0  0  0  0  0  0  0
    8.5131   -1.6239   -1.3294 C   0  0  0  0  0  0  0  0  0  0  0  0
    8.2831   -2.3827   -2.6015 C   0  0  0  0  0  0  0  0  0  0  0  0
   -5.7068    1.1916    1.0033 C   0  0  0  0  0  0  0  0  0  0  0  0
   -7.6494   -0.6586    1.8205 H   0  0  0  0  0  0  0  0  0  0  0  0
   -8.7872   -0.3560    0.5008 H   0  0  0  0  0  0  0  0  0  0  0  0
   -8.3922    0.9380    1.6444 H   0  0  0  0  0  0  0  0  0  0  0  0
   -6.4129   -0.3946   -0.2669 H   0  0  0  0  0  0  0  0  0  0  0  0
   -8.1412    2.0792   -0.5746 H   0  0  0  0  0  0  0  0  0  0  0  0
   -7.7197    0.8377   -1.7386 H   0  0  0  0  0  0  0  0  0  0  0  0
   -6.3632    2.5413   -2.5233 H   0  0  0  0  0  0  0  0  0  0  0  0
   -6.2554    3.3264   -0.9566 H   0  0  0  0  0  0  0  0  0  0  0  0
   -4.0734    2.4130   -1.6661 H   0  0  0  0  0  0  0  0  0  0  0  0
   -4.7636    0.7899   -1.7744 H   0  0  0  0  0  0  0  0  0  0  0  0
   -3.2528    0.5074    1.5072 H   0  0  0  0  0  0  0  0  0  0  0  0
   -3.6817   -0.3943    0.0525 H   0  0  0  0  0  0  0  0  0  0  0  0
   -1.8583    2.0825    0.1248 H   0  0  0  0  0  0  0  0  0  0  0  0
   -2.1949    1.0924   -1.2980 H   0  0  0  0  0  0  0  0  0  0  0  0
   -0.0689    0.4171   -0.4757 H   0  0  0  0  0  0  0  0  0  0  0  0
   -1.2019   -0.9053   -0.1225 H   0  0  0  0  0  0  0  0  0  0  0  0
   -0.4314    1.1792    1.9347 H   0  0  0  0  0  0  0  0  0  0  0  0
    1.2714   -2.7830    0.2473 H   0  0  0  0  0  0  0  0  0  0  0  0
    3.3560   -2.8253   -1.0710 H   0  0  0  0  0  0  0  0  0  0  0  0
    2.6100    0.7784    2.3177 H   0  0  0  0  0  0  0  0  0  0  0  0
    5.5097    0.9826    1.8821 H   0  0  0  0  0  0  0  0  0  0  0  0
    4.7743    1.9077    0.5403 H   0  0  0  0  0  0  0  0  0  0  0  0
    6.3895    0.9914   -0.8764 H   0  0  0  0  0  0  0  0  0  0  0  0
    6.9658   -0.0790    0.4178 H   0  0  0  0  0  0  0  0  0  0  0  0
    7.3409   -0.3960   -2.7909 H   0  0  0  0  0  0  0  0  0  0  0  0
    8.3643   -2.1671   -0.4023 H   0  0  0  0  0  0  0  0  0  0  0  0
    9.3293   -0.9108   -1.3058 H   0  0  0  0  0  0  0  0  0  0  0  0
    8.9398   -2.1886   -3.4417 H   0  0  0  0  0  0  0  0  0  0  0  0
    7.9627   -3.4164   -2.5272 H   0  0  0  0  0  0  0  0  0  0  0  0
   -5.4338    0.5685    1.8646 H   0  0  0  0  0  0  0  0  0  0  0  0
   -6.0988    2.1216    1.4366 H   0  0  0  0  0  0  0  0  0  0  0  0
  1  2  1  0
  2  3  1  0
  3  4  1  0
  4  5  1  0
  5  6  1  0
  6  7  1  0
  7  8  1  0
  8  9  1  0
  9 10  1  0
 10 11  1  0
 11 12  2  0
 11 13  2  0
 11 14  1  0
 14 15  2  0
 15 16  1  0
 16 17  2  0
 17 18  1  0
 18 19  2  0
 18 20  1  0
 20 21  1  0
 21 22  1  0
 22 23  1  0
 23 24  2  0
 23 25  1  0
 25 26  1  0
 26 27  1  0
  6 28  1  0
 28  2  1  0
 19 14  1  0
 27 25  1  0
 22 17  1  0
  1 29  1  0
  1 30  1  0
  1 31  1  0
  2 32  1  0
  3 33  1  0
  3 34  1  0
  4 35  1  0
  4 36  1  0
  5 37  1  0
  5 38  1  0
  7 39  1  0
  7 40  1  0
  8 41  1  0
  8 42  1  0
  9 43  1  0
  9 44  1  0
 10 45  1  0
 15 46  1  0
 16 47  1  0
 19 48  1  0
 20 49  1  0
 20 50  1  0
 21 51  1  0
 21 52  1  0
 25 53  1  0
 26 54  1  0
 26 55  1  0
 27 56  1  0
 27 57  1  0
 28 58  1  0
 28 59  1  0
M  END
$$$$
