
     RDKit          3D

 49 51  0  0  0  0  0  0  0  0999 V2000
    6.4155   -2.1514    1.7669 C   0  0  0  0  0  0  0  0  0  0  0  0
    6.2924   -1.2271    0.6963 O   0  0  0  0  0  0  0  0  0  0  0  0
    5.0332   -0.7803    0.3787 C   0  0  0  0  0  0  0  0  0  0  0  0
    3.8644   -1.1716    1.0410 C   0  0  0  0  0  0  0  0  0  0  0  0
    2.6155   -0.6596    0.6567 C   0  0  0  0  0  0  0  0  0  0  0  0
    2.5276    0.2336   -0.4208 C   0  0  0  0  0  0  0  0  0  0  0  0
    3.7036    0.6287   -1.0812 C   0  0  0  0  0  0  0  0  0  0  0  0
    4.9524    0.1306   -0.6917 C   0  0  0  0  0  0  0  0  0  0  0  0
    6.1427    0.4681   -1.2876 O   0  0  0  0  0  0  0  0  0  0  0  0
    6.1006    1.3634   -2.3890 C   0  0  0  0  0  0  0  0  0  0  0  0
    1.2027    0.8056   -0.8805 C   0  0  0  0  0  0  0  0  0  0  0  0
    0.0234    0.2225   -0.2217 N   0  0  0  0  0  0  0  0  0  0  0  0
   -1.2760    0.4296   -0.7408 C   0  0  0  0  0  0  0  0  0  0  0  0
   -1.6122    1.3863   -2.0860 S   0  0  0  0  0  0  0  0  0  0  0  0
   -2.2268   -0.3367   -0.0692 N   0  0  0  0  0  0  0  0  0  0  0  0
   -3.6330   -0.1901   -0.1190 C   0  0  0  0  0  0  0  0  0  0  0  0
   -4.3775   -1.3386   -0.4205 C   0  0  0  0  0  0  0  0  0  0  0  0
   -5.7708   -1.2892   -0.4924 C   0  0  0  0  0  0  0  0  0  0  0  0
   -6.4466   -0.0969   -0.2305 C   0  0  0  0  0  0  0  0  0  0  0  0
   -7.9394   -0.0222   -0.3542 C   0  0  0  0  0  0  0  0  0  0  0  0
   -5.7048    1.0421    0.1064 C   0  0  0  0  0  0  0  0  0  0  0  0
   -4.3000    1.0045    0.2028 C   0  0  0  0  0  0  0  0  0  0  0  0
   -3.6067    2.2477    0.6886 C   0  0  0  0  0  0  0  0  0  0  0  0
    0.2317   -0.1056    1.1958 C   0  0  0  0  0  0  0  0  0  0  0  0
    1.3659   -1.1121    1.3654 C   0  0  0  0  0  0  0  0  0  0  0  0
    7.4763   -2.3959    1.8775 H   0  0  0  0  0  0  0  0  0  0  0  0
    6.0766   -1.7109    2.7104 H   0  0  0  0  0  0  0  0  0  0  0  0
    5.8815   -3.0821    1.5491 H   0  0  0  0  0  0  0  0  0  0  0  0
    3.8979   -1.8769    1.8649 H   0  0  0  0  0  0  0  0  0  0  0  0
    3.6146    1.3301   -1.9053 H   0  0  0  0  0  0  0  0  0  0  0  0
    5.5208    0.9440   -3.2179 H   0  0  0  0  0  0  0  0  0  0  0  0
    5.7122    2.3418   -2.0879 H   0  0  0  0  0  0  0  0  0  0  0  0
    7.1263    1.5082   -2.7417 H   0  0  0  0  0  0  0  0  0  0  0  0
    1.1938    1.8833   -0.6754 H   0  0  0  0  0  0  0  0  0  0  0  0
    1.1193    0.6464   -1.9611 H   0  0  0  0  0  0  0  0  0  0  0  0
   -1.9095   -1.2963   -0.0022 H   0  0  0  0  0  0  0  0  0  0  0  0
   -3.8801   -2.2785   -0.6446 H   0  0  0  0  0  0  0  0  0  0  0  0
   -6.3222   -2.1864   -0.7637 H   0  0  0  0  0  0  0  0  0  0  0  0
   -8.3997   -0.9912   -0.1343 H   0  0  0  0  0  0  0  0  0  0  0  0
   -8.3539    0.7019    0.3552 H   0  0  0  0  0  0  0  0  0  0  0  0
   -8.2159    0.2778   -1.3696 H   0  0  0  0  0  0  0  0  0  0  0  0
   -6.2278    1.9735    0.3193 H   0  0  0  0  0  0  0  0  0  0  0  0
   -2.6226    2.0328    1.1148 H   0  0  0  0  0  0  0  0  0  0  0  0
   -4.1890    2.7149    1.4914 H   0  0  0  0  0  0  0  0  0  0  0  0
   -3.5034    2.9724   -0.1238 H   0  0  0  0  0  0  0  0  0  0  0  0
   -0.6716   -0.4968    1.6713 H   0  0  0  0  0  0  0  0  0  0  0  0
    0.4671    0.8362    1.7090 H   0  0  0  0  0  0  0  0  0  0  0  0
    1.0672   -2.0818    0.9487 H   0  0  0  0  0  0  0  0  0  0  0  0
    1.5644   -1.2477    2.4348 H   0  0  0  0  0  0  0  0  0  0  0  0
  1  2  1  0
  2  3  1  0
  3  4  2  0
  4  5  1  0
  5  6  2  0
  6  7  1  0
  7  8  2  0
  8  9  1  0
  9 10  1  0
  6 11  1  0
 11 12  1  0
 12 13  1  0
 13 14  2  0
 13 15  1  0
 15 16  1  0
 16 17  2  0
 17 18  1  0
 18 19  2  0
 19 20  1  0
 19 21  1  0
 21 22  2  0
 22 23  1  0
 12 24  1  0
 24 25  1  0
  8  3  1  0
 22 16  1  0
 25  5  1  0
  1 26  1  0
  1 27  1  0
  1 28  1  0
  4 29  1  0
  7 30  1  0
 10 31  1  0
 10 32  1  0
 10 33  1  0
 11 34  1  0
 11 35  1  0
 15 36  1  0
 17 37  1  0
 18 38  1  0
 20 39  1  0
 20 40  1  0
 20 41  1  0
 21 42  1  0
 23 43  1  0
 23 44  1  0
 23 45  1  0
 24 46  1  0
 24 47  1  0
 25 48  1  0
 25 49  1  0
M  END
$$$$
