
     RDKit          3D

 36 39  0  0  0  0  0  0  0  0999 V2000
   -6.1287    0.2796   -2.6149 C   0  0  0  0  0  0  0  0  0  0  0  0
   -5.0065    0.0836   -1.6232 C   0  0  0  0  0  0  0  0  0  0  0  0
   -5.3845   -0.0747   -0.1850 C   0  0  0  0  0  0  0  0  0  0  0  0
   -4.3784   -0.2171    0.7012 C   0  0  0  0  0  0  0  0  0  0  0  0
   -4.6774   -0.4172    2.1571 C   0  0  0  0  0  0  0  0  0  0  0  0
   -3.0578   -0.2080    0.2104 N   0  0  0  0  0  0  0  0  0  0  0  0
   -1.8238   -0.3074    0.8269 C   0  0  0  0  0  0  0  0  0  0  0  0
   -1.3980   -0.4499    2.6814 Br  0  0  0  0  0  0  0  0  0  0  0  0
   -0.8794   -0.2590   -0.1827 C   0  0  0  0  0  0  0  0  0  0  0  0
    0.6100   -0.3222   -0.1123 C   0  0  0  0  0  0  0  0  0  0  0  0
    1.3231    1.3489   -0.1255 S   0  0  0  0  0  0  0  0  0  0  0  0
    3.0229    0.9564   -0.0209 C   0  0  0  0  0  0  0  0  0  0  0  0
    3.4393   -0.2197    0.3930 N   0  0  0  0  0  0  0  0  0  0  0  0
    4.8247   -0.2455    0.3942 C   0  0  0  0  0  0  0  0  0  0  0  0
    5.6292   -1.3346    0.7856 C   0  0  0  0  0  0  0  0  0  0  0  0
    7.0234   -1.2233    0.7323 C   0  0  0  0  0  0  0  0  0  0  0  0
    7.6220   -0.0461    0.2902 C   0  0  0  0  0  0  0  0  0  0  0  0
    6.8464    1.0488   -0.1044 C   0  0  0  0  0  0  0  0  0  0  0  0
    5.4474    0.9281   -0.0373 C   0  0  0  0  0  0  0  0  0  0  0  0
    4.2386    2.0937   -0.4193 S   0  0  0  0  0  0  0  0  0  0  0  0
   -1.4996   -0.1319   -1.4059 N   0  0  0  0  0  0  0  0  0  0  0  0
   -2.7925   -0.0853   -1.1655 C   0  0  0  0  0  0  0  0  0  0  0  0
   -3.7929    0.0705   -2.0784 N   0  0  0  0  0  0  0  0  0  0  0  0
   -7.0977    0.0181   -2.1771 H   0  0  0  0  0  0  0  0  0  0  0  0
   -5.9597   -0.3526   -3.4940 H   0  0  0  0  0  0  0  0  0  0  0  0
   -6.1452    1.3285   -2.9276 H   0  0  0  0  0  0  0  0  0  0  0  0
   -6.4321   -0.0798    0.0875 H   0  0  0  0  0  0  0  0  0  0  0  0
   -5.7561   -0.4484    2.3463 H   0  0  0  0  0  0  0  0  0  0  0  0
   -4.2720   -1.3750    2.5003 H   0  0  0  0  0  0  0  0  0  0  0  0
   -4.2753    0.4007    2.7610 H   0  0  0  0  0  0  0  0  0  0  0  0
    0.9864   -0.8963   -0.9664 H   0  0  0  0  0  0  0  0  0  0  0  0
    0.9229   -0.8502    0.7954 H   0  0  0  0  0  0  0  0  0  0  0  0
    5.1579   -2.2521    1.1307 H   0  0  0  0  0  0  0  0  0  0  0  0
    7.6410   -2.0634    1.0413 H   0  0  0  0  0  0  0  0  0  0  0  0
    8.7073    0.0261    0.2524 H   0  0  0  0  0  0  0  0  0  0  0  0
    7.3153    1.9667   -0.4468 H   0  0  0  0  0  0  0  0  0  0  0  0
  1  2  1  0
  2  3  1  0
  3  4  2  0
  4  5  1  0
  4  6  1  0
  6  7  1  0
  7  8  1  0
  7  9  2  0
  9 10  1  0
 10 11  1  0
 11 12  1  0
 12 13  2  0
 13 14  1  0
 14 15  2  0
 15 16  1  0
 16 17  2  0
 17 18  1  0
 18 19  2  0
 19 20  1  0
  9 21  1  0
 21 22  2  0
 22 23  1  0
 23  2  2  0
 22  6  1  0
 20 12  1  0
 19 14  1  0
  1 24  1  0
  1 25  1  0
  1 26  1  0
  3 27  1  0
  5 28  1  0
  5 29  1  0
  5 30  1  0
 10 31  1  0
 10 32  1  0
 15 33  1  0
 16 34  1  0
 17 35  1  0
 18 36  1  0
M  END
$$$$
