
     RDKit          3D

 59 62  0  0  0  0  0  0  0  0999 V2000
    3.9252    3.1565   -3.8840 C   0  0  0  0  0  0  0  0  0  0  0  0
    4.0598    1.9940   -2.9428 C   0  0  0  0  0  0  0  0  0  0  0  0
    3.8260    2.1572   -1.5706 C   0  0  0  0  0  0  0  0  0  0  0  0
    3.9728    1.0788   -0.6944 C   0  0  0  0  0  0  0  0  0  0  0  0
    4.3747   -0.1775   -1.1715 C   0  0  0  0  0  0  0  0  0  0  0  0
    4.4832   -1.3528   -0.2327 C   0  0  0  0  0  0  0  0  0  0  0  0
    3.1966   -1.9874   -0.0916 N   0  0  0  0  0  0  0  0  0  0  0  0
    2.9607   -3.2891   -0.4402 C   0  0  0  0  0  0  0  0  0  0  0  0
    3.8301   -4.0639   -0.8264 O   0  0  0  0  0  0  0  0  0  0  0  0
    1.5084   -3.7084   -0.3374 C   0  0  0  0  0  0  0  0  0  0  0  0
    0.7671   -3.5086   -1.6583 C   0  0  0  0  0  0  0  0  0  0  0  0
    0.4472   -2.0536   -2.0134 C   0  0  0  0  0  0  0  0  0  0  0  0
   -0.6027   -1.4799   -1.1744 N   0  0  0  0  0  0  0  0  0  0  0  0
   -1.9121   -1.7719   -1.5752 N   0  0  0  0  0  0  0  0  0  0  0  0
   -2.9389   -1.3064   -0.9198 C   0  0  0  0  0  0  0  0  0  0  0  0
   -4.3148   -1.6446   -1.4140 C   0  0  0  0  0  0  0  0  0  0  0  0
   -2.7218   -0.4893    0.2485 C   0  0  0  0  0  0  0  0  0  0  0  0
   -3.5558    0.0874    1.1947 C   0  0  0  0  0  0  0  0  0  0  0  0
   -5.0181   -0.0839    1.4029 C   0  0  0  0  0  0  0  0  0  0  0  0
   -2.7155    0.8600    2.0067 N   0  0  0  0  0  0  0  0  0  0  0  0
   -3.0222    1.8644    2.9765 C   0  0  0  0  0  0  0  0  0  0  0  0
   -2.0168    2.2726    3.8723 C   0  0  0  0  0  0  0  0  0  0  0  0
   -2.2690    3.2651    4.8227 C   0  0  0  0  0  0  0  0  0  0  0  0
   -3.5218    3.8698    4.8837 C   0  0  0  0  0  0  0  0  0  0  0  0
   -4.5187    3.4899    3.9866 C   0  0  0  0  0  0  0  0  0  0  0  0
   -4.2705    2.4972    3.0314 C   0  0  0  0  0  0  0  0  0  0  0  0
   -1.4081    0.5651    1.7641 N   0  0  0  0  0  0  0  0  0  0  0  0
   -1.4211   -0.1878    0.6604 C   0  0  0  0  0  0  0  0  0  0  0  0
   -0.2581   -0.7020   -0.0496 C   0  0  0  0  0  0  0  0  0  0  0  0
    0.9012   -0.5026    0.3115 O   0  0  0  0  0  0  0  0  0  0  0  0
    4.6127   -0.3386   -2.5446 C   0  0  0  0  0  0  0  0  0  0  0  0
    4.4654    0.7410   -3.4206 C   0  0  0  0  0  0  0  0  0  0  0  0
    3.5337    2.8268   -4.8540 H   0  0  0  0  0  0  0  0  0  0  0  0
    3.2277    3.9045   -3.4872 H   0  0  0  0  0  0  0  0  0  0  0  0
    4.9000    3.6301   -4.0377 H   0  0  0  0  0  0  0  0  0  0  0  0
    3.5183    3.1226   -1.1746 H   0  0  0  0  0  0  0  0  0  0  0  0
    3.7601    1.2188    0.3645 H   0  0  0  0  0  0  0  0  0  0  0  0
    4.7968   -1.0159    0.7621 H   0  0  0  0  0  0  0  0  0  0  0  0
    5.2395   -2.0638   -0.5876 H   0  0  0  0  0  0  0  0  0  0  0  0
    2.4226   -1.3958    0.2198 H   0  0  0  0  0  0  0  0  0  0  0  0
    1.0159   -3.1928    0.4926 H   0  0  0  0  0  0  0  0  0  0  0  0
    1.5030   -4.7741   -0.0767 H   0  0  0  0  0  0  0  0  0  0  0  0
   -0.1668   -4.0815   -1.6230 H   0  0  0  0  0  0  0  0  0  0  0  0
    1.3682   -3.9351   -2.4692 H   0  0  0  0  0  0  0  0  0  0  0  0
    0.0878   -2.0132   -3.0494 H   0  0  0  0  0  0  0  0  0  0  0  0
    1.3405   -1.4243   -1.9727 H   0  0  0  0  0  0  0  0  0  0  0  0
   -4.9443   -0.7491   -1.4233 H   0  0  0  0  0  0  0  0  0  0  0  0
   -4.2643   -2.0476   -2.4321 H   0  0  0  0  0  0  0  0  0  0  0  0
   -4.7608   -2.4012   -0.7603 H   0  0  0  0  0  0  0  0  0  0  0  0
   -5.3292   -1.0944    1.1228 H   0  0  0  0  0  0  0  0  0  0  0  0
   -5.3039    0.0276    2.4540 H   0  0  0  0  0  0  0  0  0  0  0  0
   -5.5859    0.6240    0.7895 H   0  0  0  0  0  0  0  0  0  0  0  0
   -1.0258    1.8193    3.8468 H   0  0  0  0  0  0  0  0  0  0  0  0
   -1.4822    3.5679    5.5109 H   0  0  0  0  0  0  0  0  0  0  0  0
   -3.7163    4.6456    5.6204 H   0  0  0  0  0  0  0  0  0  0  0  0
   -5.4889    3.9809    4.0195 H   0  0  0  0  0  0  0  0  0  0  0  0
   -5.0610    2.2855    2.3209 H   0  0  0  0  0  0  0  0  0  0  0  0
    4.9079   -1.3115   -2.9379 H   0  0  0  0  0  0  0  0  0  0  0  0
    4.6626    0.5958   -4.4826 H   0  0  0  0  0  0  0  0  0  0  0  0
  1  2  1  0
  2  3  2  0
  3  4  1  0
  4  5  2  0
  5  6  1  0
  6  7  1  0
  7  8  1  0
  8  9  2  0
  8 10  1  0
 10 11  1  0
 11 12  1  0
 12 13  1  0
 13 14  1  0
 14 15  2  0
 15 16  1  0
 15 17  1  0
 17 18  2  0
 18 19  1  0
 18 20  1  0
 20 21  1  0
 21 22  2  0
 22 23  1  0
 23 24  2  0
 24 25  1  0
 25 26  2  0
 20 27  1  0
 27 28  2  0
 28 29  1  0
 29 30  2  0
  5 31  1  0
 31 32  2  0
 32  2  1  0
 29 13  1  0
 28 17  1  0
 26 21  1  0
  1 33  1  0
  1 34  1  0
  1 35  1  0
  3 36  1  0
  4 37  1  0
  6 38  1  0
  6 39  1  0
  7 40  1  0
 10 41  1  0
 10 42  1  0
 11 43  1  0
 11 44  1  0
 12 45  1  0
 12 46  1  0
 16 47  1  0
 16 48  1  0
 16 49  1  0
 19 50  1  0
 19 51  1  0
 19 52  1  0
 22 53  1  0
 23 54  1  0
 24 55  1  0
 25 56  1  0
 26 57  1  0
 31 58  1  0
 32 59  1  0
M  END
$$$$
