
     RDKit          3D

 34 34  0  0  0  0  0  0  0  0999 V2000
    4.2726   -1.5774   -2.0296 C   0  0  0  0  0  0  0  0  0  0  0  0
    4.0365   -0.4569   -1.1897 O   0  0  0  0  0  0  0  0  0  0  0  0
    2.8742   -0.4441   -0.4583 C   0  0  0  0  0  0  0  0  0  0  0  0
    1.9055   -1.4515   -0.4966 C   0  0  0  0  0  0  0  0  0  0  0  0
    0.7513   -1.3519    0.2836 C   0  0  0  0  0  0  0  0  0  0  0  0
    0.5476   -0.2469    1.1174 C   0  0  0  0  0  0  0  0  0  0  0  0
   -0.7156   -0.1374    1.9318 C   0  0  0  0  0  0  0  0  0  0  0  0
   -1.8029    0.3614    1.1207 N   0  0  0  0  0  0  0  0  0  0  0  0
   -2.7551   -0.4767    0.6018 C   0  0  0  0  0  0  0  0  0  0  0  0
   -2.8320   -1.6747    0.8391 O   0  0  0  0  0  0  0  0  0  0  0  0
   -3.7002    0.2154   -0.3018 C   0  0  0  0  0  0  0  0  0  0  0  0
   -4.6691   -0.4910   -0.8992 C   0  0  0  0  0  0  0  0  0  0  0  0
   -5.6031    0.1980   -1.7901 C   0  0  0  0  0  0  0  0  0  0  0  0
   -5.6161    1.3825   -2.0647 O   0  0  0  0  0  0  0  0  0  0  0  0
   -6.4911   -0.6692   -2.2972 O   0  0  0  0  0  0  0  0  0  0  0  0
    1.5156    0.7687    1.1506 C   0  0  0  0  0  0  0  0  0  0  0  0
    2.6783    0.6764    0.3743 C   0  0  0  0  0  0  0  0  0  0  0  0
    3.6719    1.6245    0.3512 O   0  0  0  0  0  0  0  0  0  0  0  0
    3.5582    2.7244    1.2414 C   0  0  0  0  0  0  0  0  0  0  0  0
    5.2361   -1.4261   -2.5259 H   0  0  0  0  0  0  0  0  0  0  0  0
    3.5071   -1.6556   -2.8086 H   0  0  0  0  0  0  0  0  0  0  0  0
    4.3414   -2.5016   -1.4464 H   0  0  0  0  0  0  0  0  0  0  0  0
    2.0145   -2.3283   -1.1257 H   0  0  0  0  0  0  0  0  0  0  0  0
    0.0032   -2.1427    0.2342 H   0  0  0  0  0  0  0  0  0  0  0  0
   -0.5785    0.5671    2.7596 H   0  0  0  0  0  0  0  0  0  0  0  0
   -0.9678   -1.1085    2.3726 H   0  0  0  0  0  0  0  0  0  0  0  0
   -1.7351    1.3138    0.7914 H   0  0  0  0  0  0  0  0  0  0  0  0
   -3.5900    1.2812   -0.4598 H   0  0  0  0  0  0  0  0  0  0  0  0
   -4.7970   -1.5572   -0.7540 H   0  0  0  0  0  0  0  0  0  0  0  0
   -7.0638   -0.1206   -2.8723 H   0  0  0  0  0  0  0  0  0  0  0  0
    1.3399    1.6269    1.7907 H   0  0  0  0  0  0  0  0  0  0  0  0
    2.6884    3.3420    0.9949 H   0  0  0  0  0  0  0  0  0  0  0  0
    3.5246    2.3900    2.2836 H   0  0  0  0  0  0  0  0  0  0  0  0
    4.4508    3.3460    1.1211 H   0  0  0  0  0  0  0  0  0  0  0  0
  1  2  1  0
  2  3  1  0
  3  4  2  0
  4  5  1  0
  5  6  2  0
  6  7  1  0
  7  8  1  0
  8  9  1  0
  9 10  2  0
  9 11  1  0
 11 12  2  3
 12 13  1  0
 13 14  2  0
 13 15  1  0
  6 16  1  0
 16 17  2  0
 17 18  1  0
 18 19  1  0
 17  3  1  0
  1 20  1  0
  1 21  1  0
  1 22  1  0
  4 23  1  0
  5 24  1  0
  7 25  1  0
  7 26  1  0
  8 27  1  0
 11 28  1  0
 12 29  1  0
 15 30  1  0
 16 31  1  0
 19 32  1  0
 19 33  1  0
 19 34  1  0
M  END
$$$$
