
     RDKit          3D

 48 51  0  0  0  0  0  0  0  0999 V2000
    5.0531    2.3876   -0.2895 C   0  0  0  0  0  0  0  0  0  0  0  0
    4.4751    1.0033   -0.0040 C   0  0  0  0  0  0  0  0  0  0  0  0
    5.4592   -0.0847   -0.4394 C   0  0  0  0  0  0  0  0  0  0  0  0
    3.1172    0.8364   -0.6970 C   0  0  0  0  0  0  0  0  0  0  0  0
    2.5496   -0.4211   -0.3110 O   0  0  0  0  0  0  0  0  0  0  0  0
    1.3335   -0.6706   -0.8630 C   0  0  0  0  0  0  0  0  0  0  0  0
    0.7377    0.0411   -1.6547 O   0  0  0  0  0  0  0  0  0  0  0  0
    0.8456   -1.9846   -0.3788 C   0  0  0  0  0  0  0  0  0  0  0  0
    1.7335   -3.0733   -0.4668 C   0  0  0  0  0  0  0  0  0  0  0  0
    1.2953   -4.3711   -0.2030 C   0  0  0  0  0  0  0  0  0  0  0  0
   -0.0366   -4.5968    0.1311 C   0  0  0  0  0  0  0  0  0  0  0  0
   -0.9284   -3.5254    0.2217 C   0  0  0  0  0  0  0  0  0  0  0  0
   -0.4927   -2.2093   -0.0132 C   0  0  0  0  0  0  0  0  0  0  0  0
   -1.4194   -1.1414    0.1804 N   0  0  0  0  0  0  0  0  0  0  0  0
   -2.7823   -1.1533   -0.1890 C   0  0  0  0  0  0  0  0  0  0  0  0
   -3.3516   -2.1749   -0.8226 O   0  0  0  0  0  0  0  0  0  0  0  0
   -3.2978    0.0570    0.1711 C   0  0  0  0  0  0  0  0  0  0  0  0
   -2.2941    0.8108    0.8041 C   0  0  0  0  0  0  0  0  0  0  0  0
   -1.1516    0.0690    0.8548 C   0  0  0  0  0  0  0  0  0  0  0  0
    0.0129    0.3226    1.4445 O   0  0  0  0  0  0  0  0  0  0  0  0
   -2.9050    2.1165    1.2042 C   0  0  0  0  0  0  0  0  0  0  0  0
   -3.1924    2.9204   -0.0905 C   0  0  0  0  0  0  0  0  0  0  0  0
   -4.3058    2.0839   -0.8027 C   0  0  0  0  0  0  0  0  0  0  0  0
   -4.5395    0.8918    0.1613 C   0  0  0  0  0  0  0  0  0  0  0  0
   -4.3587    1.6364    1.5250 C   0  0  0  0  0  0  0  0  0  0  0  0
    6.0129    2.5219    0.2208 H   0  0  0  0  0  0  0  0  0  0  0  0
    5.2161    2.5373   -1.3624 H   0  0  0  0  0  0  0  0  0  0  0  0
    4.3751    3.1718    0.0633 H   0  0  0  0  0  0  0  0  0  0  0  0
    4.3286    0.8994    1.0789 H   0  0  0  0  0  0  0  0  0  0  0  0
    5.0853   -1.0818   -0.1852 H   0  0  0  0  0  0  0  0  0  0  0  0
    5.6319   -0.0530   -1.5203 H   0  0  0  0  0  0  0  0  0  0  0  0
    6.4250    0.0434    0.0615 H   0  0  0  0  0  0  0  0  0  0  0  0
    2.4411    1.6430   -0.3884 H   0  0  0  0  0  0  0  0  0  0  0  0
    3.2392    0.8656   -1.7869 H   0  0  0  0  0  0  0  0  0  0  0  0
    2.7659   -2.9159   -0.7719 H   0  0  0  0  0  0  0  0  0  0  0  0
    1.9878   -5.2057   -0.2768 H   0  0  0  0  0  0  0  0  0  0  0  0
   -0.3851   -5.6074    0.3292 H   0  0  0  0  0  0  0  0  0  0  0  0
   -1.9550   -3.7309    0.5172 H   0  0  0  0  0  0  0  0  0  0  0  0
   -4.2572   -1.8987   -1.0467 H   0  0  0  0  0  0  0  0  0  0  0  0
   -0.0497    1.2203    1.8146 H   0  0  0  0  0  0  0  0  0  0  0  0
   -2.3970    2.6589    2.0011 H   0  0  0  0  0  0  0  0  0  0  0  0
   -2.3057    3.0252   -0.7251 H   0  0  0  0  0  0  0  0  0  0  0  0
   -3.5728    3.9205    0.1459 H   0  0  0  0  0  0  0  0  0  0  0  0
   -5.2146    2.6874   -0.9064 H   0  0  0  0  0  0  0  0  0  0  0  0
   -3.9856    1.7615   -1.7994 H   0  0  0  0  0  0  0  0  0  0  0  0
   -5.4779    0.3521    0.0358 H   0  0  0  0  0  0  0  0  0  0  0  0
   -5.0678    2.4588    1.6702 H   0  0  0  0  0  0  0  0  0  0  0  0
   -4.3975    0.9557    2.3848 H   0  0  0  0  0  0  0  0  0  0  0  0
  1  2  1  0
  2  3  1  0
  2  4  1  0
  4  5  1  0
  5  6  1  0
  6  7  2  0
  6  8  1  0
  8  9  2  0
  9 10  1  0
 10 11  2  0
 11 12  1  0
 12 13  2  0
 13 14  1  0
 14 15  1  0
 15 16  1  0
 15 17  2  0
 17 18  1  0
 18 19  2  0
 19 20  1  0
 18 21  1  0
 21 22  1  0
 22 23  1  0
 23 24  1  0
 24 25  1  0
 13  8  1  0
 19 14  1  0
 25 21  1  0
 24 17  1  0
  1 26  1  0
  1 27  1  0
  1 28  1  0
  2 29  1  0
  3 30  1  0
  3 31  1  0
  3 32  1  0
  4 33  1  0
  4 34  1  0
  9 35  1  0
 10 36  1  0
 11 37  1  0
 12 38  1  0
 16 39  1  0
 20 40  1  0
 21 41  1  0
 22 42  1  0
 22 43  1  0
 23 44  1  0
 23 45  1  0
 24 46  1  0
 25 47  1  0
 25 48  1  0
M  END
$$$$
