
     RDKit          3D

 50 53  0  0  0  0  0  0  0  0999 V2000
   -4.2091   -4.4009   -0.4226 C   0  0  0  0  0  0  0  0  0  0  0  0
   -3.7562   -3.7839   -1.6212 O   0  0  0  0  0  0  0  0  0  0  0  0
   -2.9090   -2.7192   -1.4838 C   0  0  0  0  0  0  0  0  0  0  0  0
   -2.4729   -2.1662   -0.2813 C   0  0  0  0  0  0  0  0  0  0  0  0
   -1.6020   -1.0704   -0.2850 C   0  0  0  0  0  0  0  0  0  0  0  0
   -1.1453   -0.5129   -1.4895 C   0  0  0  0  0  0  0  0  0  0  0  0
   -0.2193    0.6942   -1.5242 C   0  0  0  0  0  0  0  0  0  0  0  0
   -1.0117    1.9944   -1.3751 C   0  0  0  0  0  0  0  0  0  0  0  0
   -0.5531    2.4380   -0.0135 C   0  0  0  0  0  0  0  0  0  0  0  0
   -1.1611    3.6012    0.6744 C   0  0  0  0  0  0  0  0  0  0  0  0
   -2.1552    4.3751    0.0649 C   0  0  0  0  0  0  0  0  0  0  0  0
   -2.7073    5.4652    0.7432 C   0  0  0  0  0  0  0  0  0  0  0  0
   -2.2698    5.7862    2.0277 C   0  0  0  0  0  0  0  0  0  0  0  0
   -1.2787    5.0200    2.6382 C   0  0  0  0  0  0  0  0  0  0  0  0
   -0.7247    3.9303    1.9640 C   0  0  0  0  0  0  0  0  0  0  0  0
    0.4249    1.7475    0.4896 N   0  0  0  0  0  0  0  0  0  0  0  0
    0.7121    0.7470   -0.3949 N   0  0  0  0  0  0  0  0  0  0  0  0
    1.8521   -0.0398   -0.2375 C   0  0  0  0  0  0  0  0  0  0  0  0
    2.2026   -1.0516   -1.1477 C   0  0  0  0  0  0  0  0  0  0  0  0
    3.3500   -1.8362   -0.9726 C   0  0  0  0  0  0  0  0  0  0  0  0
    4.1691   -1.6220    0.1342 C   0  0  0  0  0  0  0  0  0  0  0  0
    5.6334   -2.5867    0.3446 S   0  0  0  0  0  6  0  0  0  0  0  0
    5.0775   -3.8660    1.2790 N   0  0  0  0  0  0  0  0  0  0  0  0
    6.0136   -3.1617   -0.9251 O   0  0  0  0  0  0  0  0  0  0  0  0
    6.5683   -1.8658    1.1768 O   0  0  0  0  0  0  0  0  0  0  0  0
    3.8613   -0.6207    1.0512 C   0  0  0  0  0  0  0  0  0  0  0  0
    2.7105    0.1525    0.8620 C   0  0  0  0  0  0  0  0  0  0  0  0
   -1.5972   -1.0721   -2.6939 C   0  0  0  0  0  0  0  0  0  0  0  0
   -2.4678   -2.1651   -2.6867 C   0  0  0  0  0  0  0  0  0  0  0  0
   -4.8013   -3.7045    0.1801 H   0  0  0  0  0  0  0  0  0  0  0  0
   -4.8598   -5.2353   -0.7017 H   0  0  0  0  0  0  0  0  0  0  0  0
   -3.3717   -4.8098    0.1526 H   0  0  0  0  0  0  0  0  0  0  0  0
   -2.7872   -2.5598    0.6794 H   0  0  0  0  0  0  0  0  0  0  0  0
   -1.2723   -0.6578    0.6682 H   0  0  0  0  0  0  0  0  0  0  0  0
    0.3313    0.7138   -2.4735 H   0  0  0  0  0  0  0  0  0  0  0  0
   -2.0965    1.8664   -1.4218 H   0  0  0  0  0  0  0  0  0  0  0  0
   -0.6901    2.7366   -2.1136 H   0  0  0  0  0  0  0  0  0  0  0  0
   -2.5146    4.1542   -0.9354 H   0  0  0  0  0  0  0  0  0  0  0  0
   -3.4795    6.0662    0.2688 H   0  0  0  0  0  0  0  0  0  0  0  0
   -2.7005    6.6352    2.5531 H   0  0  0  0  0  0  0  0  0  0  0  0
   -0.9350    5.2695    3.6390 H   0  0  0  0  0  0  0  0  0  0  0  0
    0.0489    3.3401    2.4513 H   0  0  0  0  0  0  0  0  0  0  0  0
    1.5838   -1.2574   -2.0161 H   0  0  0  0  0  0  0  0  0  0  0  0
    3.5885   -2.6072   -1.7014 H   0  0  0  0  0  0  0  0  0  0  0  0
    5.5461   -3.8616    2.1849 H   0  0  0  0  0  0  0  0  0  0  0  0
    5.1766   -4.7403    0.7634 H   0  0  0  0  0  0  0  0  0  0  0  0
    4.4995   -0.4307    1.9105 H   0  0  0  0  0  0  0  0  0  0  0  0
    2.4808    0.9278    1.5906 H   0  0  0  0  0  0  0  0  0  0  0  0
   -1.2755   -0.6651   -3.6500 H   0  0  0  0  0  0  0  0  0  0  0  0
   -2.8062   -2.5907   -3.6285 H   0  0  0  0  0  0  0  0  0  0  0  0
  1  2  1  0
  2  3  1  0
  3  4  2  0
  4  5  1  0
  5  6  2  0
  6  7  1  0
  7  8  1  0
  8  9  1  0
  9 10  1  0
 10 11  2  0
 11 12  1  0
 12 13  2  0
 13 14  1  0
 14 15  2  0
  9 16  2  0
 16 17  1  0
 17 18  1  0
 18 19  2  0
 19 20  1  0
 20 21  2  0
 21 22  1  0
 22 23  1  0
 22 24  2  0
 22 25  2  0
 21 26  1  0
 26 27  2  0
  6 28  1  0
 28 29  2  0
 29  3  1  0
 17  7  1  0
 27 18  1  0
 15 10  1  0
  1 30  1  0
  1 31  1  0
  1 32  1  0
  4 33  1  0
  5 34  1  0
  7 35  1  0
  8 36  1  0
  8 37  1  0
 11 38  1  0
 12 39  1  0
 13 40  1  0
 14 41  1  0
 15 42  1  0
 19 43  1  0
 20 44  1  0
 23 45  1  0
 23 46  1  0
 26 47  1  0
 27 48  1  0
 28 49  1  0
 29 50  1  0
M  END
$$$$
