
     RDKit          3D

 42 44  0  0  0  0  0  0  0  0999 V2000
   -5.2406    0.8908    5.1335 C   0  0  0  0  0  0  0  0  0  0  0  0
   -4.6759    2.0256    4.2924 C   0  0  0  0  0  0  0  0  0  0  0  0
   -3.4331    1.5849    3.5178 C   0  0  0  0  0  0  0  0  0  0  0  0
   -2.8522    2.7417    2.7003 C   0  0  0  0  0  0  0  0  0  0  0  0
   -1.6511    2.3098    1.8961 C   0  0  0  0  0  0  0  0  0  0  0  0
   -0.3643    2.3723    2.4448 C   0  0  0  0  0  0  0  0  0  0  0  0
    0.7485    1.9571    1.7034 C   0  0  0  0  0  0  0  0  0  0  0  0
    0.5955    1.4687    0.3987 C   0  0  0  0  0  0  0  0  0  0  0  0
    1.7320    1.0320   -0.4091 C   0  0  0  0  0  0  0  0  0  0  0  0
    3.0391    1.4349   -0.2113 C   0  0  0  0  0  0  0  0  0  0  0  0
    4.0617    0.7338   -1.3944 S   0  0  0  0  0  0  0  0  0  0  0  0
    2.6974   -0.0746   -2.0921 C   0  0  0  0  0  0  0  0  0  0  0  0
    2.8792   -0.9113   -3.2329 C   0  0  0  0  0  0  0  0  0  0  0  0
    2.7169   -0.3148   -4.5169 C   0  0  0  0  0  0  0  0  0  0  0  0
    2.5906    0.1718   -5.5658 N   0  0  0  0  0  0  0  0  0  0  0  0
    3.1863   -2.2055   -3.0115 C   0  0  0  0  0  0  0  0  0  0  0  0
    3.4118   -3.2135   -3.9933 C   0  0  0  0  0  0  0  0  0  0  0  0
    3.0597   -3.3306   -5.3358 C   0  0  0  0  0  0  0  0  0  0  0  0
    3.5474   -4.5759   -5.8127 C   0  0  0  0  0  0  0  0  0  0  0  0
    4.1630   -5.1723   -4.7442 C   0  0  0  0  0  0  0  0  0  0  0  0
    4.0862   -4.3744   -3.6545 O   0  0  0  0  0  0  0  0  0  0  0  0
    1.5549    0.1658   -1.4793 N   0  0  0  0  0  0  0  0  0  0  0  0
   -0.6980    1.3938   -0.1393 C   0  0  0  0  0  0  0  0  0  0  0  0
   -1.8098    1.8098    0.5996 C   0  0  0  0  0  0  0  0  0  0  0  0
   -5.5130    0.0322    4.5087 H   0  0  0  0  0  0  0  0  0  0  0  0
   -4.5099    0.5551    5.8787 H   0  0  0  0  0  0  0  0  0  0  0  0
   -6.1373    1.2247    5.6651 H   0  0  0  0  0  0  0  0  0  0  0  0
   -5.4457    2.3743    3.5930 H   0  0  0  0  0  0  0  0  0  0  0  0
   -4.4273    2.8688    4.9476 H   0  0  0  0  0  0  0  0  0  0  0  0
   -2.6755    1.2086    4.2191 H   0  0  0  0  0  0  0  0  0  0  0  0
   -3.6927    0.7490    2.8549 H   0  0  0  0  0  0  0  0  0  0  0  0
   -3.6149    3.1504    2.0247 H   0  0  0  0  0  0  0  0  0  0  0  0
   -2.5668    3.5663    3.3652 H   0  0  0  0  0  0  0  0  0  0  0  0
   -0.2189    2.7412    3.4580 H   0  0  0  0  0  0  0  0  0  0  0  0
    1.7272    2.0109    2.1736 H   0  0  0  0  0  0  0  0  0  0  0  0
    3.4435    2.1063    0.5316 H   0  0  0  0  0  0  0  0  0  0  0  0
    3.3073   -2.5510   -1.9844 H   0  0  0  0  0  0  0  0  0  0  0  0
    2.5013   -2.6138   -5.9250 H   0  0  0  0  0  0  0  0  0  0  0  0
    3.4495   -4.9840   -6.8085 H   0  0  0  0  0  0  0  0  0  0  0  0
    4.6783   -6.1143   -4.6020 H   0  0  0  0  0  0  0  0  0  0  0  0
   -0.8501    1.0109   -1.1470 H   0  0  0  0  0  0  0  0  0  0  0  0
   -2.8001    1.7378    0.1533 H   0  0  0  0  0  0  0  0  0  0  0  0
  1  2  1  0
  2  3  1  0
  3  4  1  0
  4  5  1  0
  5  6  2  0
  6  7  1  0
  7  8  2  0
  8  9  1  0
  9 10  2  0
 10 11  1  0
 11 12  1  0
 12 13  1  0
 13 14  1  0
 14 15  3  0
 13 16  2  3
 16 17  1  0
 17 18  2  0
 18 19  1  0
 19 20  2  0
 20 21  1  0
 12 22  2  0
  8 23  1  0
 23 24  2  0
 24  5  1  0
 22  9  1  0
 21 17  1  0
  1 25  1  0
  1 26  1  0
  1 27  1  0
  2 28  1  0
  2 29  1  0
  3 30  1  0
  3 31  1  0
  4 32  1  0
  4 33  1  0
  6 34  1  0
  7 35  1  0
 10 36  1  0
 16 37  1  0
 18 38  1  0
 19 39  1  0
 20 40  1  0
 23 41  1  0
 24 42  1  0
M  END
$$$$
