
     RDKit          3D

 60 64  0  0  0  0  0  0  0  0999 V2000
   -5.4033   -3.3839    1.5169 C   0  0  0  0  0  0  0  0  0  0  0  0
   -4.9616   -1.9342    1.6719 C   0  0  0  0  0  0  0  0  0  0  0  0
   -3.5360   -1.6804    1.1599 C   0  0  0  0  0  0  0  0  0  0  0  0
   -3.4905   -1.8486   -0.2914 N   0  0  0  0  0  0  0  0  0  0  0  0
   -2.2172   -1.5814   -0.8078 C   0  0  0  0  0  0  0  0  0  0  0  0
   -1.8690   -2.3274   -1.8641 N   0  0  0  0  0  0  0  0  0  0  0  0
   -0.6806   -2.0476   -2.3986 C   0  0  0  0  0  0  0  0  0  0  0  0
    0.2009   -1.1532   -1.9374 N   0  0  0  0  0  0  0  0  0  0  0  0
   -0.1406   -0.4422   -0.8416 C   0  0  0  0  0  0  0  0  0  0  0  0
    0.8734    0.3342   -0.2482 N   0  0  0  0  0  0  0  0  0  0  0  0
    1.3638   -0.2473    1.0352 C   0  0  0  0  0  0  0  0  0  0  0  0
    2.8242   -0.7467    0.9481 C   0  0  0  0  0  0  0  0  0  0  0  0
    3.7528    0.3354    0.5234 N   0  0  0  0  0  0  0  0  0  0  0  0
    5.0254   -0.1701    0.2149 C   0  0  0  0  0  0  0  0  0  0  0  0
    5.5189   -0.2925   -1.0909 C   0  0  0  0  0  0  0  0  0  0  0  0
    6.7910   -0.8216   -1.3384 C   0  0  0  0  0  0  0  0  0  0  0  0
    7.5935   -1.2405   -0.2812 C   0  0  0  0  0  0  0  0  0  0  0  0
    7.1233   -1.1328    1.0232 C   0  0  0  0  0  0  0  0  0  0  0  0
    5.8514   -0.6055    1.2641 C   0  0  0  0  0  0  0  0  0  0  0  0
    3.1458    1.3400   -0.3835 C   0  0  0  0  0  0  0  0  0  0  0  0
    1.9587    0.7501   -1.1733 C   0  0  0  0  0  0  0  0  0  0  0  0
   -1.4123   -0.5741   -0.2591 C   0  0  0  0  0  0  0  0  0  0  0  0
   -1.9323    0.2027    0.8396 N   0  0  0  0  0  0  0  0  0  0  0  0
   -1.5719    1.6110    1.0003 C   0  0  0  0  0  0  0  0  0  0  0  0
   -2.2963    2.5134    0.0208 C   0  0  0  0  0  0  0  0  0  0  0  0
   -3.5909    2.9761    0.2997 C   0  0  0  0  0  0  0  0  0  0  0  0
   -4.2652    3.7933   -0.6091 C   0  0  0  0  0  0  0  0  0  0  0  0
   -3.6553    4.1547   -1.8082 C   0  0  0  0  0  0  0  0  0  0  0  0
   -2.3716    3.6988   -2.0999 C   0  0  0  0  0  0  0  0  0  0  0  0
   -1.6960    2.8823   -1.1913 C   0  0  0  0  0  0  0  0  0  0  0  0
   -3.0599   -0.2554    1.5398 C   0  0  0  0  0  0  0  0  0  0  0  0
   -3.5878    0.3873    2.4498 O   0  0  0  0  0  0  0  0  0  0  0  0
   -4.7044   -4.0624    2.0157 H   0  0  0  0  0  0  0  0  0  0  0  0
   -6.3912   -3.5247    1.9673 H   0  0  0  0  0  0  0  0  0  0  0  0
   -5.4755   -3.6735    0.4646 H   0  0  0  0  0  0  0  0  0  0  0  0
   -5.0230   -1.6774    2.7363 H   0  0  0  0  0  0  0  0  0  0  0  0
   -5.6735   -1.2823    1.1509 H   0  0  0  0  0  0  0  0  0  0  0  0
   -2.8518   -2.3896    1.6470 H   0  0  0  0  0  0  0  0  0  0  0  0
   -3.8042   -2.7345   -0.6746 H   0  0  0  0  0  0  0  0  0  0  0  0
   -0.3929   -2.6097   -3.2807 H   0  0  0  0  0  0  0  0  0  0  0  0
    0.7317   -1.0709    1.3904 H   0  0  0  0  0  0  0  0  0  0  0  0
    1.3108    0.5407    1.7966 H   0  0  0  0  0  0  0  0  0  0  0  0
    3.1208   -1.1239    1.9341 H   0  0  0  0  0  0  0  0  0  0  0  0
    2.8681   -1.5849    0.2390 H   0  0  0  0  0  0  0  0  0  0  0  0
    4.9161   -0.0032   -1.9454 H   0  0  0  0  0  0  0  0  0  0  0  0
    7.1503   -0.9098   -2.3603 H   0  0  0  0  0  0  0  0  0  0  0  0
    8.5817   -1.6495   -0.4737 H   0  0  0  0  0  0  0  0  0  0  0  0
    7.7434   -1.4523    1.8561 H   0  0  0  0  0  0  0  0  0  0  0  0
    5.5068   -0.5122    2.2912 H   0  0  0  0  0  0  0  0  0  0  0  0
    3.8775    1.7892   -1.0643 H   0  0  0  0  0  0  0  0  0  0  0  0
    2.7796    2.1635    0.2433 H   0  0  0  0  0  0  0  0  0  0  0  0
    2.3329   -0.0894   -1.7728 H   0  0  0  0  0  0  0  0  0  0  0  0
    1.5692    1.5113   -1.8592 H   0  0  0  0  0  0  0  0  0  0  0  0
   -0.4984    1.7805    0.9400 H   0  0  0  0  0  0  0  0  0  0  0  0
   -1.8296    1.9338    2.0176 H   0  0  0  0  0  0  0  0  0  0  0  0
   -4.0845    2.6984    1.2295 H   0  0  0  0  0  0  0  0  0  0  0  0
   -5.2684    4.1435   -0.3810 H   0  0  0  0  0  0  0  0  0  0  0  0
   -4.1822    4.7880   -2.5166 H   0  0  0  0  0  0  0  0  0  0  0  0
   -1.8970    3.9753   -3.0375 H   0  0  0  0  0  0  0  0  0  0  0  0
   -0.6972    2.5321   -1.4372 H   0  0  0  0  0  0  0  0  0  0  0  0
  1  2  1  0
  2  3  1  0
  3  4  1  0
  4  5  1  0
  5  6  2  0
  6  7  1  0
  7  8  2  0
  8  9  1  0
  9 10  1  0
 10 11  1  0
 11 12  1  0
 12 13  1  0
 13 14  1  0
 14 15  2  0
 15 16  1  0
 16 17  2  0
 17 18  1  0
 18 19  2  0
 13 20  1  0
 20 21  1  0
  9 22  2  0
 22 23  1  0
 23 24  1  0
 24 25  1  0
 25 26  2  0
 26 27  1  0
 27 28  2  0
 28 29  1  0
 29 30  2  0
 23 31  1  0
 31 32  2  0
 31  3  1  0
 22  5  1  0
 30 25  1  0
 21 10  1  0
 19 14  1  0
  1 33  1  0
  1 34  1  0
  1 35  1  0
  2 36  1  0
  2 37  1  0
  3 38  1  0
  4 39  1  0
  7 40  1  0
 11 41  1  0
 11 42  1  0
 12 43  1  0
 12 44  1  0
 15 45  1  0
 16 46  1  0
 17 47  1  0
 18 48  1  0
 19 49  1  0
 20 50  1  0
 20 51  1  0
 21 52  1  0
 21 53  1  0
 24 54  1  0
 24 55  1  0
 26 56  1  0
 27 57  1  0
 28 58  1  0
 29 59  1  0
 30 60  1  0
M  END
$$$$
