
     RDKit          3D

 56 58  0  0  0  0  0  0  0  0999 V2000
   -7.2627    0.8334    0.3675 C   0  0  0  0  0  0  0  0  0  0  0  0
   -6.6290    1.9729   -0.4089 C   0  0  0  0  0  0  0  0  0  0  0  0
   -5.3567    1.5662   -0.9318 O   0  0  0  0  0  0  0  0  0  0  0  0
   -4.2962    1.7071   -0.0867 C   0  0  0  0  0  0  0  0  0  0  0  0
   -4.3544    2.1482    1.0546 O   0  0  0  0  0  0  0  0  0  0  0  0
   -3.0364    1.1859   -0.7347 C   0  0  0  0  0  0  0  0  0  0  0  0
   -2.0099    2.2911   -0.8489 C   0  0  0  0  0  0  0  0  0  0  0  0
   -2.3139    3.4552   -1.1066 O   0  0  0  0  0  0  0  0  0  0  0  0
   -0.5693    1.9524   -0.7488 C   0  0  0  0  0  0  0  0  0  0  0  0
   -0.1601    0.6883   -0.5607 C   0  0  0  0  0  0  0  0  0  0  0  0
    1.2473    0.3252   -0.5278 C   0  0  0  0  0  0  0  0  0  0  0  0
    2.1890    0.9932    0.1581 C   0  0  0  0  0  0  0  0  0  0  0  0
    3.6058    0.6079    0.1860 C   0  0  0  0  0  0  0  0  0  0  0  0
    4.0224   -0.7189    0.2787 C   0  0  0  0  0  0  0  0  0  0  0  0
    5.3889   -1.0394    0.3321 C   0  0  0  0  0  0  0  0  0  0  0  0
    6.3952   -0.0579    0.3160 C   0  0  0  0  0  0  0  0  0  0  0  0
    7.7558   -0.3866    0.3505 N   0  0  0  0  0  0  0  0  0  0  0  0
    8.7373    0.6706    0.5875 C   0  0  0  0  0  0  0  0  0  0  0  0
    8.1481   -1.7222    0.7966 C   0  0  0  0  0  0  0  0  0  0  0  0
    5.9460    1.2705    0.2220 C   0  0  0  0  0  0  0  0  0  0  0  0
    4.5823    1.6020    0.1697 C   0  0  0  0  0  0  0  0  0  0  0  0
   -1.1271   -0.4598   -0.4162 C   0  0  0  0  0  0  0  0  0  0  0  0
   -2.5047    0.0029    0.0936 C   0  0  0  0  0  0  0  0  0  0  0  0
   -3.4804   -1.1667    0.1399 C   0  0  0  0  0  0  0  0  0  0  0  0
   -4.0165   -1.5723    1.3717 C   0  0  0  0  0  0  0  0  0  0  0  0
   -4.9257   -2.6292    1.4397 C   0  0  0  0  0  0  0  0  0  0  0  0
   -5.3117   -3.2938    0.2787 C   0  0  0  0  0  0  0  0  0  0  0  0
   -4.7898   -2.9015   -0.9513 C   0  0  0  0  0  0  0  0  0  0  0  0
   -3.8803   -1.8444   -1.0221 C   0  0  0  0  0  0  0  0  0  0  0  0
   -8.2658    1.1061    0.7069 H   0  0  0  0  0  0  0  0  0  0  0  0
   -6.6593    0.5703    1.2414 H   0  0  0  0  0  0  0  0  0  0  0  0
   -7.3321   -0.0652   -0.2546 H   0  0  0  0  0  0  0  0  0  0  0  0
   -7.2597    2.2283   -1.2666 H   0  0  0  0  0  0  0  0  0  0  0  0
   -6.5375    2.8765    0.2046 H   0  0  0  0  0  0  0  0  0  0  0  0
   -3.2573    0.8696   -1.7625 H   0  0  0  0  0  0  0  0  0  0  0  0
    0.1150    2.7842   -0.8781 H   0  0  0  0  0  0  0  0  0  0  0  0
    1.5139   -0.5636   -1.0985 H   0  0  0  0  0  0  0  0  0  0  0  0
    1.9368    1.8836    0.7295 H   0  0  0  0  0  0  0  0  0  0  0  0
    3.2978   -1.5281    0.3190 H   0  0  0  0  0  0  0  0  0  0  0  0
    5.6392   -2.0944    0.3869 H   0  0  0  0  0  0  0  0  0  0  0  0
    8.6994    1.4315   -0.1994 H   0  0  0  0  0  0  0  0  0  0  0  0
    8.5813    1.1411    1.5645 H   0  0  0  0  0  0  0  0  0  0  0  0
    9.7586    0.2742    0.5699 H   0  0  0  0  0  0  0  0  0  0  0  0
    7.7896   -1.9194    1.8130 H   0  0  0  0  0  0  0  0  0  0  0  0
    7.7714   -2.4937    0.1165 H   0  0  0  0  0  0  0  0  0  0  0  0
    9.2382   -1.8354    0.8039 H   0  0  0  0  0  0  0  0  0  0  0  0
    6.6484    2.0974    0.1861 H   0  0  0  0  0  0  0  0  0  0  0  0
    4.3019    2.6508    0.1024 H   0  0  0  0  0  0  0  0  0  0  0  0
   -0.7278   -1.2003    0.2906 H   0  0  0  0  0  0  0  0  0  0  0  0
   -1.2089   -0.9658   -1.3869 H   0  0  0  0  0  0  0  0  0  0  0  0
   -2.3532    0.3551    1.1260 H   0  0  0  0  0  0  0  0  0  0  0  0
   -3.7385   -1.0613    2.2920 H   0  0  0  0  0  0  0  0  0  0  0  0
   -5.3357   -2.9305    2.4003 H   0  0  0  0  0  0  0  0  0  0  0  0
   -6.0209   -4.1156    0.3325 H   0  0  0  0  0  0  0  0  0  0  0  0
   -5.0935   -3.4181   -1.8584 H   0  0  0  0  0  0  0  0  0  0  0  0
   -3.4946   -1.5578   -1.9978 H   0  0  0  0  0  0  0  0  0  0  0  0
  1  2  1  0
  2  3  1  0
  3  4  1  0
  4  5  2  0
  4  6  1  0
  6  7  1  0
  7  8  2  0
  7  9  1  0
  9 10  2  0
 10 11  1  0
 11 12  2  3
 12 13  1  0
 13 14  2  0
 14 15  1  0
 15 16  2  0
 16 17  1  0
 17 18  1  0
 17 19  1  0
 16 20  1  0
 20 21  2  0
 10 22  1  0
 22 23  1  0
 23 24  1  0
 24 25  2  0
 25 26  1  0
 26 27  2  0
 27 28  1  0
 28 29  2  0
 23  6  1  0
 29 24  1  0
 21 13  1  0
  1 30  1  0
  1 31  1  0
  1 32  1  0
  2 33  1  0
  2 34  1  0
  6 35  1  0
  9 36  1  0
 11 37  1  0
 12 38  1  0
 14 39  1  0
 15 40  1  0
 18 41  1  0
 18 42  1  0
 18 43  1  0
 19 44  1  0
 19 45  1  0
 19 46  1  0
 20 47  1  0
 21 48  1  0
 22 49  1  0
 22 50  1  0
 23 51  1  0
 25 52  1  0
 26 53  1  0
 27 54  1  0
 28 55  1  0
 29 56  1  0
M  END
$$$$
