
     RDKit          3D

 55 59  0  0  0  0  0  0  0  0999 V2000
   -2.7428    0.9955   -2.5392 C   0  0  0  0  0  0  0  0  0  0  0  0
   -2.8475    0.3326   -1.1932 C   0  0  0  0  0  0  0  0  0  0  0  0
   -4.0361    0.3175   -0.4651 C   0  0  0  0  0  0  0  0  0  0  0  0
   -5.3015    0.9017   -0.9372 C   0  0  0  0  0  0  0  0  0  0  0  0
   -5.9109    1.9504   -0.2258 C   0  0  0  0  0  0  0  0  0  0  0  0
   -7.1140    2.5134   -0.6593 C   0  0  0  0  0  0  0  0  0  0  0  0
   -7.7326    2.0288   -1.8098 C   0  0  0  0  0  0  0  0  0  0  0  0
   -7.1491    0.9793   -2.5155 C   0  0  0  0  0  0  0  0  0  0  0  0
   -7.9169    0.3727   -3.9312 Cl  0  0  0  0  0  0  0  0  0  0  0  0
   -5.9476    0.4146   -2.0858 C   0  0  0  0  0  0  0  0  0  0  0  0
   -4.1336   -0.2499    0.7635 N   0  0  0  0  0  0  0  0  0  0  0  0
   -3.0757   -0.8714    1.3027 C   0  0  0  0  0  0  0  0  0  0  0  0
   -3.2266   -1.4575    2.5527 C   0  0  0  0  0  0  0  0  0  0  0  0
   -2.1847   -2.1436    3.1795 C   0  0  0  0  0  0  0  0  0  0  0  0
   -0.9575   -2.2535    2.5438 C   0  0  0  0  0  0  0  0  0  0  0  0
   -0.7818   -1.6715    1.2896 C   0  0  0  0  0  0  0  0  0  0  0  0
   -1.8358   -0.9637    0.6522 C   0  0  0  0  0  0  0  0  0  0  0  0
   -1.7520   -0.3343   -0.6139 C   0  0  0  0  0  0  0  0  0  0  0  0
   -0.4894   -0.3997   -1.3719 C   0  0  0  0  0  0  0  0  0  0  0  0
   -0.3375   -1.0252   -2.4055 O   0  0  0  0  0  0  0  0  0  0  0  0
    0.4242    0.3883   -0.7599 O   0  0  0  0  0  0  0  0  0  0  0  0
    1.6868    0.4153   -1.4212 C   0  0  0  0  0  0  0  0  0  0  0  0
    2.6394    1.3751   -0.7184 C   0  0  0  0  0  0  0  0  0  0  0  0
    2.3069    2.0380    0.2682 O   0  0  0  0  0  0  0  0  0  0  0  0
    4.0458    1.4209   -1.2750 C   0  0  0  0  0  0  0  0  0  0  0  0
    4.5794    2.7868   -1.2604 C   0  0  0  0  0  0  0  0  0  0  0  0
    5.0199    3.8615   -1.2514 N   0  0  0  0  0  0  0  0  0  0  0  0
    4.8731    0.4918   -0.4487 C   0  0  0  0  0  0  0  0  0  0  0  0
    5.2642   -0.7139   -0.8127 N   0  0  0  0  0  0  0  0  0  0  0  0
    5.9610   -1.2191    0.2588 C   0  0  0  0  0  0  0  0  0  0  0  0
    6.6015   -2.4568    0.4101 C   0  0  0  0  0  0  0  0  0  0  0  0
    7.2453   -2.7348    1.6228 C   0  0  0  0  0  0  0  0  0  0  0  0
    7.2492   -1.8005    2.6618 C   0  0  0  0  0  0  0  0  0  0  0  0
    6.6138   -0.5603    2.5282 C   0  0  0  0  0  0  0  0  0  0  0  0
    5.9819   -0.3090    1.3087 C   0  0  0  0  0  0  0  0  0  0  0  0
    5.2788    0.7706    0.8399 N   0  0  0  0  0  0  0  0  0  0  0  0
   -3.4364    1.8370   -2.6333 H   0  0  0  0  0  0  0  0  0  0  0  0
   -1.7474    1.4215   -2.7015 H   0  0  0  0  0  0  0  0  0  0  0  0
   -2.9526    0.2712   -3.3325 H   0  0  0  0  0  0  0  0  0  0  0  0
   -5.4432    2.3283    0.6827 H   0  0  0  0  0  0  0  0  0  0  0  0
   -7.5687    3.3238   -0.0949 H   0  0  0  0  0  0  0  0  0  0  0  0
   -8.6697    2.4654   -2.1446 H   0  0  0  0  0  0  0  0  0  0  0  0
   -5.5172   -0.4165   -2.6402 H   0  0  0  0  0  0  0  0  0  0  0  0
   -4.1901   -1.3823    3.0530 H   0  0  0  0  0  0  0  0  0  0  0  0
   -2.3397   -2.5916    4.1576 H   0  0  0  0  0  0  0  0  0  0  0  0
   -0.1393   -2.7890    3.0190 H   0  0  0  0  0  0  0  0  0  0  0  0
    0.1906   -1.7756    0.8126 H   0  0  0  0  0  0  0  0  0  0  0  0
    2.1295   -0.5865   -1.4000 H   0  0  0  0  0  0  0  0  0  0  0  0
    1.5607    0.7645   -2.4521 H   0  0  0  0  0  0  0  0  0  0  0  0
    4.0237    1.0681   -2.3128 H   0  0  0  0  0  0  0  0  0  0  0  0
    6.5954   -3.1782   -0.3994 H   0  0  0  0  0  0  0  0  0  0  0  0
    7.7482   -3.6902    1.7546 H   0  0  0  0  0  0  0  0  0  0  0  0
    7.7576   -2.0411    3.5939 H   0  0  0  0  0  0  0  0  0  0  0  0
    6.6188    0.1641    3.3357 H   0  0  0  0  0  0  0  0  0  0  0  0
    5.0823    1.6171    1.3603 H   0  0  0  0  0  0  0  0  0  0  0  0
  1  2  1  0
  2  3  2  0
  3  4  1  0
  4  5  2  0
  5  6  1  0
  6  7  2  0
  7  8  1  0
  8  9  1  0
  8 10  2  0
  3 11  1  0
 11 12  2  0
 12 13  1  0
 13 14  2  0
 14 15  1  0
 15 16  2  0
 16 17  1  0
 17 18  2  0
 18 19  1  0
 19 20  2  0
 19 21  1  0
 21 22  1  0
 22 23  1  0
 23 24  2  0
 23 25  1  0
 25 26  1  0
 26 27  3  0
 25 28  1  0
 28 29  2  0
 29 30  1  0
 30 31  2  0
 31 32  1  0
 32 33  2  0
 33 34  1  0
 34 35  2  0
 35 36  1  0
 18  2  1  0
 36 28  1  0
 10  4  1  0
 17 12  1  0
 35 30  1  0
  1 37  1  0
  1 38  1  0
  1 39  1  0
  5 40  1  0
  6 41  1  0
  7 42  1  0
 10 43  1  0
 13 44  1  0
 14 45  1  0
 15 46  1  0
 16 47  1  0
 22 48  1  0
 22 49  1  0
 25 50  1  0
 31 51  1  0
 32 52  1  0
 33 53  1  0
 34 54  1  0
 36 55  1  0
M  END
$$$$
