
     RDKit          3D

 47 49  0  0  0  0  0  0  0  0999 V2000
   -8.1609    0.1016    1.4490 C   0  0  0  0  0  0  0  0  0  0  0  0
   -7.6422   -0.0976    0.1421 O   0  0  0  0  0  0  0  0  0  0  0  0
   -6.2856   -0.2662    0.0137 C   0  0  0  0  0  0  0  0  0  0  0  0
   -5.3879   -0.2935    1.0856 C   0  0  0  0  0  0  0  0  0  0  0  0
   -4.0206   -0.4715    0.8585 C   0  0  0  0  0  0  0  0  0  0  0  0
   -3.5345   -0.6178   -0.4424 C   0  0  0  0  0  0  0  0  0  0  0  0
   -2.1048   -0.8205   -0.6997 C   0  0  0  0  0  0  0  0  0  0  0  0
   -1.1315    0.0748   -0.4846 C   0  0  0  0  0  0  0  0  0  0  0  0
   -1.2736    1.6714    0.1290 S   0  0  0  0  0  0  0  0  0  0  0  0
    0.4563    1.9717    0.0156 C   0  0  0  0  0  0  0  0  0  0  0  0
    1.1399    3.4107    0.5095 S   0  0  0  0  0  0  0  0  0  0  0  0
    1.0889    0.8664   -0.5154 N   0  0  0  0  0  0  0  0  0  0  0  0
    2.5340    0.7542   -0.7379 C   0  0  0  0  0  0  0  0  0  0  0  0
    3.2457    0.1470    0.4656 C   0  0  0  0  0  0  0  0  0  0  0  0
    4.7381    0.0636    0.2310 C   0  0  0  0  0  0  0  0  0  0  0  0
    5.2564    0.4083   -0.8292 O   0  0  0  0  0  0  0  0  0  0  0  0
    5.4085   -0.4514    1.3095 N   0  0  0  0  0  0  0  0  0  0  0  0
    6.6718   -0.2478    1.3918 C   0  0  0  0  0  0  0  0  0  0  0  0
    7.5362    0.4274    0.5784 N   0  0  0  0  0  0  0  0  0  0  0  0
    8.9313    0.0809    0.7480 C   0  0  0  0  0  0  0  0  0  0  0  0
    9.1186   -0.1988    2.2355 C   0  0  0  0  0  0  0  0  0  0  0  0
    7.5433   -0.9538    2.7537 S   0  0  0  0  0  0  0  0  0  0  0  0
    0.2901   -0.2298   -0.7929 C   0  0  0  0  0  0  0  0  0  0  0  0
    0.6762   -1.3106   -1.2165 O   0  0  0  0  0  0  0  0  0  0  0  0
   -4.4301   -0.6020   -1.5187 C   0  0  0  0  0  0  0  0  0  0  0  0
   -5.8024   -0.4238   -1.3014 C   0  0  0  0  0  0  0  0  0  0  0  0
   -6.7477   -0.3910   -2.2975 O   0  0  0  0  0  0  0  0  0  0  0  0
   -6.2998   -0.5181   -3.6390 C   0  0  0  0  0  0  0  0  0  0  0  0
   -9.2434    0.2364    1.3623 H   0  0  0  0  0  0  0  0  0  0  0  0
   -7.9854   -0.7751    2.0810 H   0  0  0  0  0  0  0  0  0  0  0  0
   -7.7490    1.0081    1.9047 H   0  0  0  0  0  0  0  0  0  0  0  0
   -5.7192   -0.1816    2.1124 H   0  0  0  0  0  0  0  0  0  0  0  0
   -3.3432   -0.4962    1.7092 H   0  0  0  0  0  0  0  0  0  0  0  0
   -1.8568   -1.7938   -1.1218 H   0  0  0  0  0  0  0  0  0  0  0  0
    2.7010    0.1264   -1.6223 H   0  0  0  0  0  0  0  0  0  0  0  0
    2.9481    1.7402   -0.9740 H   0  0  0  0  0  0  0  0  0  0  0  0
    3.0697    0.7539    1.3608 H   0  0  0  0  0  0  0  0  0  0  0  0
    2.8686   -0.8631    0.6622 H   0  0  0  0  0  0  0  0  0  0  0  0
    7.1909    0.5758   -0.3700 H   0  0  0  0  0  0  0  0  0  0  0  0
    9.5822    0.8940    0.4127 H   0  0  0  0  0  0  0  0  0  0  0  0
    9.1664   -0.8094    0.1527 H   0  0  0  0  0  0  0  0  0  0  0  0
    9.2539    0.7340    2.7923 H   0  0  0  0  0  0  0  0  0  0  0  0
    9.9679   -0.8589    2.4296 H   0  0  0  0  0  0  0  0  0  0  0  0
   -4.0347   -0.7268   -2.5215 H   0  0  0  0  0  0  0  0  0  0  0  0
   -7.1760   -0.4563   -4.2915 H   0  0  0  0  0  0  0  0  0  0  0  0
   -5.8290   -1.4922   -3.8073 H   0  0  0  0  0  0  0  0  0  0  0  0
   -5.6255    0.3008   -3.9104 H   0  0  0  0  0  0  0  0  0  0  0  0
  1  2  1  0
  2  3  1  0
  3  4  2  0
  4  5  1  0
  5  6  2  0
  6  7  1  0
  7  8  2  3
  8  9  1  0
  9 10  1  0
 10 11  2  0
 10 12  1  0
 12 13  1  0
 13 14  1  0
 14 15  1  0
 15 16  2  0
 15 17  1  0
 17 18  2  3
 18 19  1  0
 19 20  1  0
 20 21  1  0
 21 22  1  0
 12 23  1  0
 23 24  2  0
  6 25  1  0
 25 26  2  0
 26 27  1  0
 27 28  1  0
 26  3  1  0
 23  8  1  0
 22 18  1  0
  1 29  1  0
  1 30  1  0
  1 31  1  0
  4 32  1  0
  5 33  1  0
  7 34  1  0
 13 35  1  0
 13 36  1  0
 14 37  1  0
 14 38  1  0
 19 39  1  0
 20 40  1  0
 20 41  1  0
 21 42  1  0
 21 43  1  0
 25 44  1  0
 28 45  1  0
 28 46  1  0
 28 47  1  0
M  END
$$$$
