
     RDKit          3D

 62 64  0  0  0  0  0  0  0  0999 V2000
    8.6260    4.1848    1.5797 C   0  0  0  0  0  0  0  0  0  0  0  0
    7.5976    3.7873    2.4781 O   0  0  0  0  0  0  0  0  0  0  0  0
    6.3812    3.4870    1.9295 C   0  0  0  0  0  0  0  0  0  0  0  0
    6.0709    3.4865    0.5698 C   0  0  0  0  0  0  0  0  0  0  0  0
    4.7799    3.1554    0.1425 C   0  0  0  0  0  0  0  0  0  0  0  0
    3.7832    2.8248    1.0689 C   0  0  0  0  0  0  0  0  0  0  0  0
    2.3995    2.4449    0.6026 C   0  0  0  0  0  0  0  0  0  0  0  0
    2.2708    0.9354    0.4182 C   0  0  0  0  0  0  0  0  0  0  0  0
    0.8921    0.5418   -0.0782 C   0  0  0  0  0  0  0  0  0  0  0  0
    0.0074    1.3648   -0.2844 O   0  0  0  0  0  0  0  0  0  0  0  0
    0.7856   -0.8227   -0.2410 N   0  0  0  0  0  0  0  0  0  0  0  0
   -0.3179   -1.5679   -0.7026 C   0  0  0  0  0  0  0  0  0  0  0  0
   -1.4778   -1.0009   -1.2271 C   0  0  0  0  0  0  0  0  0  0  0  0
   -2.5268   -1.8358   -1.6234 C   0  0  0  0  0  0  0  0  0  0  0  0
   -4.0040   -1.1288   -2.3133 S   0  0  0  0  0  6  0  0  0  0  0  0
   -4.5742   -2.1167   -3.2074 O   0  0  0  0  0  0  0  0  0  0  0  0
   -3.7061    0.2072   -2.7828 O   0  0  0  0  0  0  0  0  0  0  0  0
   -5.0359   -0.9917   -0.9534 N   0  0  0  0  0  0  0  0  0  0  0  0
   -4.5168   -0.1398    0.1576 C   0  0  0  0  0  0  0  0  0  0  0  0
   -5.6208    0.1676    1.1620 C   0  0  0  0  0  0  0  0  0  0  0  0
   -6.7454    0.9760    0.5202 C   0  0  0  0  0  0  0  0  0  0  0  0
   -6.8889    0.6817   -0.9713 C   0  0  0  0  0  0  0  0  0  0  0  0
   -6.4670   -0.7426   -1.3042 C   0  0  0  0  0  0  0  0  0  0  0  0
   -2.4154   -3.2264   -1.5333 C   0  0  0  0  0  0  0  0  0  0  0  0
   -1.2452   -3.7942   -1.0288 C   0  0  0  0  0  0  0  0  0  0  0  0
   -0.1850   -2.9774   -0.6082 C   0  0  0  0  0  0  0  0  0  0  0  0
    1.0354   -3.5045   -0.0887 N   0  0  0  0  0  0  0  0  0  0  0  0
    0.8109   -4.3044    1.1215 C   0  0  0  0  0  0  0  0  0  0  0  0
    1.7860   -4.2130   -1.1341 C   0  0  0  0  0  0  0  0  0  0  0  0
    4.1004    2.8222    2.4315 C   0  0  0  0  0  0  0  0  0  0  0  0
    5.3900    3.1518    2.8547 C   0  0  0  0  0  0  0  0  0  0  0  0
    9.5182    4.4098    2.1717 H   0  0  0  0  0  0  0  0  0  0  0  0
    8.3481    5.0950    1.0374 H   0  0  0  0  0  0  0  0  0  0  0  0
    8.8809    3.3742    0.8887 H   0  0  0  0  0  0  0  0  0  0  0  0
    6.8077    3.7375   -0.1859 H   0  0  0  0  0  0  0  0  0  0  0  0
    4.5576    3.1599   -0.9228 H   0  0  0  0  0  0  0  0  0  0  0  0
    2.1733    2.9664   -0.3365 H   0  0  0  0  0  0  0  0  0  0  0  0
    1.6585    2.8069    1.3274 H   0  0  0  0  0  0  0  0  0  0  0  0
    3.0119    0.5777   -0.3077 H   0  0  0  0  0  0  0  0  0  0  0  0
    2.4549    0.4203    1.3693 H   0  0  0  0  0  0  0  0  0  0  0  0
    1.5481   -1.4219    0.0704 H   0  0  0  0  0  0  0  0  0  0  0  0
   -1.5813    0.0741   -1.3361 H   0  0  0  0  0  0  0  0  0  0  0  0
   -3.7232   -0.6860    0.6776 H   0  0  0  0  0  0  0  0  0  0  0  0
   -4.0985    0.7955   -0.2307 H   0  0  0  0  0  0  0  0  0  0  0  0
   -6.0289   -0.7729    1.5539 H   0  0  0  0  0  0  0  0  0  0  0  0
   -5.2152    0.7159    2.0197 H   0  0  0  0  0  0  0  0  0  0  0  0
   -6.5624    2.0488    0.6546 H   0  0  0  0  0  0  0  0  0  0  0  0
   -7.6851    0.7556    1.0409 H   0  0  0  0  0  0  0  0  0  0  0  0
   -6.2697    1.3867   -1.5406 H   0  0  0  0  0  0  0  0  0  0  0  0
   -7.9257    0.8544   -1.2817 H   0  0  0  0  0  0  0  0  0  0  0  0
   -6.6572   -0.9347   -2.3652 H   0  0  0  0  0  0  0  0  0  0  0  0
   -7.0787   -1.4641   -0.7492 H   0  0  0  0  0  0  0  0  0  0  0  0
   -3.2308   -3.8687   -1.8603 H   0  0  0  0  0  0  0  0  0  0  0  0
   -1.1681   -4.8762   -0.9734 H   0  0  0  0  0  0  0  0  0  0  0  0
    0.2422   -3.7361    1.8664 H   0  0  0  0  0  0  0  0  0  0  0  0
    1.7754   -4.5565    1.5759 H   0  0  0  0  0  0  0  0  0  0  0  0
    0.2850   -5.2421    0.9095 H   0  0  0  0  0  0  0  0  0  0  0  0
    1.2763   -5.1255   -1.4638 H   0  0  0  0  0  0  0  0  0  0  0  0
    1.9541   -3.5652   -2.0022 H   0  0  0  0  0  0  0  0  0  0  0  0
    2.7710   -4.4977   -0.7483 H   0  0  0  0  0  0  0  0  0  0  0  0
    3.3474    2.5666    3.1735 H   0  0  0  0  0  0  0  0  0  0  0  0
    5.6246    3.1496    3.9164 H   0  0  0  0  0  0  0  0  0  0  0  0
  1  2  1  0
  2  3  1  0
  3  4  2  0
  4  5  1  0
  5  6  2  0
  6  7  1  0
  7  8  1  0
  8  9  1  0
  9 10  2  0
  9 11  1  0
 11 12  1  0
 12 13  2  0
 13 14  1  0
 14 15  1  0
 15 16  2  0
 15 17  2  0
 15 18  1  0
 18 19  1  0
 19 20  1  0
 20 21  1  0
 21 22  1  0
 22 23  1  0
 14 24  2  0
 24 25  1  0
 25 26  2  0
 26 27  1  0
 27 28  1  0
 27 29  1  0
  6 30  1  0
 30 31  2  0
 31  3  1  0
 26 12  1  0
 23 18  1  0
  1 32  1  0
  1 33  1  0
  1 34  1  0
  4 35  1  0
  5 36  1  0
  7 37  1  0
  7 38  1  0
  8 39  1  0
  8 40  1  0
 11 41  1  0
 13 42  1  0
 19 43  1  0
 19 44  1  0
 20 45  1  0
 20 46  1  0
 21 47  1  0
 21 48  1  0
 22 49  1  0
 22 50  1  0
 23 51  1  0
 23 52  1  0
 24 53  1  0
 25 54  1  0
 28 55  1  0
 28 56  1  0
 28 57  1  0
 29 58  1  0
 29 59  1  0
 29 60  1  0
 30 61  1  0
 31 62  1  0
M  END
$$$$
