
     RDKit          3D

 62 65  0  0  0  0  0  0  0  0999 V2000
    3.7120    0.4188   -1.9241 O   0  0  0  0  0  0  0  0  0  0  0  0
    3.8364    1.1650   -0.9582 C   0  0  0  0  0  0  0  0  0  0  0  0
    5.1375    1.9155   -0.7400 C   0  0  0  0  0  0  0  0  0  0  0  0
    6.3388    1.0013   -0.9342 C   0  0  0  0  0  0  0  0  0  0  0  0
    6.5693   -0.0473    0.4901 S   0  0  0  0  0  6  0  0  0  0  0  0
    5.5246   -1.0470    0.5462 O   0  0  0  0  0  0  0  0  0  0  0  0
    6.7826    0.8424    1.6207 O   0  0  0  0  0  0  0  0  0  0  0  0
    8.0923   -0.8922    0.2111 C   0  0  0  0  0  0  0  0  0  0  0  0
    9.1183   -0.8270    1.1592 C   0  0  0  0  0  0  0  0  0  0  0  0
   10.3191   -1.4991    0.9210 C   0  0  0  0  0  0  0  0  0  0  0  0
   10.4905   -2.2318   -0.2551 C   0  0  0  0  0  0  0  0  0  0  0  0
    9.4601   -2.2952   -1.1938 C   0  0  0  0  0  0  0  0  0  0  0  0
    8.2633   -1.6251   -0.9552 C   0  0  0  0  0  0  0  0  0  0  0  0
    7.2961   -1.6969   -1.8772 F   0  0  0  0  0  0  0  0  0  0  0  0
    2.8701    1.4827   -0.0229 N   0  0  0  0  0  0  0  0  0  0  0  0
    1.5347    1.0293    0.0159 C   0  0  0  0  0  0  0  0  0  0  0  0
    0.7347    1.4760    1.0681 C   0  0  0  0  0  0  0  0  0  0  0  0
   -0.6100    1.0857    1.1648 C   0  0  0  0  0  0  0  0  0  0  0  0
   -1.2058    0.2336    0.2260 C   0  0  0  0  0  0  0  0  0  0  0  0
   -2.5332   -0.1478    0.3128 N   0  0  0  0  0  0  0  0  0  0  0  0
   -3.0108   -1.3926   -0.3121 C   0  0  0  0  0  0  0  0  0  0  0  0
   -4.2288   -1.9704    0.4473 C   0  0  0  0  0  0  0  0  0  0  0  0
   -5.3816   -1.0580    0.6065 N   0  0  0  0  0  0  0  0  0  0  0  0
   -6.3936   -1.2839   -0.4379 C   0  0  0  0  0  0  0  0  0  0  0  0
   -7.6757   -0.5093   -0.2118 C   0  0  0  0  0  0  0  0  0  0  0  0
   -8.4421   -0.7237    0.9433 C   0  0  0  0  0  0  0  0  0  0  0  0
   -9.6272   -0.0169    1.1507 C   0  0  0  0  0  0  0  0  0  0  0  0
  -10.0603    0.9099    0.2048 C   0  0  0  0  0  0  0  0  0  0  0  0
   -9.3089    1.1311   -0.9475 C   0  0  0  0  0  0  0  0  0  0  0  0
   -8.1226    0.4254   -1.1564 C   0  0  0  0  0  0  0  0  0  0  0  0
   -4.9376    0.3564    0.6301 C   0  0  0  0  0  0  0  0  0  0  0  0
   -3.4999    0.5691    1.1592 C   0  0  0  0  0  0  0  0  0  0  0  0
   -0.3794   -0.2043   -0.8190 C   0  0  0  0  0  0  0  0  0  0  0  0
    0.9663    0.1833   -0.9279 C   0  0  0  0  0  0  0  0  0  0  0  0
    5.1601    2.3974    0.2437 H   0  0  0  0  0  0  0  0  0  0  0  0
    5.1626    2.7151   -1.4913 H   0  0  0  0  0  0  0  0  0  0  0  0
    6.2349    0.3746   -1.8221 H   0  0  0  0  0  0  0  0  0  0  0  0
    7.2471    1.6056   -1.0291 H   0  0  0  0  0  0  0  0  0  0  0  0
    8.9914   -0.2665    2.0834 H   0  0  0  0  0  0  0  0  0  0  0  0
   11.1205   -1.4562    1.6559 H   0  0  0  0  0  0  0  0  0  0  0  0
   11.4251   -2.7580   -0.4367 H   0  0  0  0  0  0  0  0  0  0  0  0
    9.5816   -2.8667   -2.1095 H   0  0  0  0  0  0  0  0  0  0  0  0
    3.1442    2.0851    0.7428 H   0  0  0  0  0  0  0  0  0  0  0  0
    1.1361    2.1312    1.8353 H   0  0  0  0  0  0  0  0  0  0  0  0
   -1.1770    1.4507    2.0155 H   0  0  0  0  0  0  0  0  0  0  0  0
   -3.2815   -1.1958   -1.3564 H   0  0  0  0  0  0  0  0  0  0  0  0
   -2.2270   -2.1600   -0.3009 H   0  0  0  0  0  0  0  0  0  0  0  0
   -4.5320   -2.9187   -0.0130 H   0  0  0  0  0  0  0  0  0  0  0  0
   -3.8970   -2.2360    1.4599 H   0  0  0  0  0  0  0  0  0  0  0  0
   -5.9817   -1.0600   -1.4309 H   0  0  0  0  0  0  0  0  0  0  0  0
   -6.6755   -2.3453   -0.4567 H   0  0  0  0  0  0  0  0  0  0  0  0
   -8.1058   -1.4406    1.6896 H   0  0  0  0  0  0  0  0  0  0  0  0
  -10.2102   -0.1882    2.0513 H   0  0  0  0  0  0  0  0  0  0  0  0
  -10.9827    1.4606    0.3665 H   0  0  0  0  0  0  0  0  0  0  0  0
   -9.6463    1.8546   -1.6845 H   0  0  0  0  0  0  0  0  0  0  0  0
   -7.5477    0.6126   -2.0602 H   0  0  0  0  0  0  0  0  0  0  0  0
   -4.9749    0.7854   -0.3808 H   0  0  0  0  0  0  0  0  0  0  0  0
   -5.6291    0.9338    1.2539 H   0  0  0  0  0  0  0  0  0  0  0  0
   -3.3033    1.6478    1.1449 H   0  0  0  0  0  0  0  0  0  0  0  0
   -3.4203    0.2214    2.1961 H   0  0  0  0  0  0  0  0  0  0  0  0
   -0.7742   -0.8467   -1.6010 H   0  0  0  0  0  0  0  0  0  0  0  0
    1.5332   -0.1973   -1.7705 H   0  0  0  0  0  0  0  0  0  0  0  0
  1  2  2  0
  2  3  1  0
  3  4  1  0
  4  5  1  0
  5  6  2  0
  5  7  2  0
  5  8  1  0
  8  9  2  0
  9 10  1  0
 10 11  2  0
 11 12  1  0
 12 13  2  0
 13 14  1  0
  2 15  1  0
 15 16  1  0
 16 17  2  0
 17 18  1  0
 18 19  2  0
 19 20  1  0
 20 21  1  0
 21 22  1  0
 22 23  1  0
 23 24  1  0
 24 25  1  0
 25 26  2  0
 26 27  1  0
 27 28  2  0
 28 29  1  0
 29 30  2  0
 23 31  1  0
 31 32  1  0
 19 33  1  0
 33 34  2  0
 13  8  1  0
 34 16  1  0
 32 20  1  0
 30 25  1  0
  3 35  1  0
  3 36  1  0
  4 37  1  0
  4 38  1  0
  9 39  1  0
 10 40  1  0
 11 41  1  0
 12 42  1  0
 15 43  1  0
 17 44  1  0
 18 45  1  0
 21 46  1  0
 21 47  1  0
 22 48  1  0
 22 49  1  0
 24 50  1  0
 24 51  1  0
 26 52  1  0
 27 53  1  0
 28 54  1  0
 29 55  1  0
 30 56  1  0
 31 57  1  0
 31 58  1  0
 32 59  1  0
 32 60  1  0
 33 61  1  0
 34 62  1  0
M  END
$$$$
