
     RDKit          3D

 40 43  0  0  0  0  0  0  0  0999 V2000
    7.4360    1.5296   -1.4099 C   0  0  0  0  0  0  0  0  0  0  0  0
    6.0822    1.0222   -1.0578 C   0  0  0  0  0  0  0  0  0  0  0  0
    5.3181    0.3253   -1.8693 N   0  0  0  0  0  0  0  0  0  0  0  0
    4.1267    0.0103   -1.2382 C   0  0  0  0  0  0  0  0  0  0  0  0
    3.0664   -0.7259   -1.7974 C   0  0  0  0  0  0  0  0  0  0  0  0
    1.9148   -0.9703   -1.0381 C   0  0  0  0  0  0  0  0  0  0  0  0
    1.7955   -0.4947    0.2715 C   0  0  0  0  0  0  0  0  0  0  0  0
    0.5954   -0.7983    0.9482 N   0  0  0  0  0  0  0  0  0  0  0  0
    0.2128   -0.4025    2.2194 C   0  0  0  0  0  0  0  0  0  0  0  0
    0.8813    0.2742    2.9969 O   0  0  0  0  0  0  0  0  0  0  0  0
   -1.1418   -0.9503    2.6557 C   0  0  0  0  0  0  0  0  0  0  0  0
   -2.2319   -0.8573    1.6122 C   0  0  0  0  0  0  0  0  0  0  0  0
   -2.8286   -2.0188    1.0986 C   0  0  0  0  0  0  0  0  0  0  0  0
   -3.8299   -1.9299    0.1288 C   0  0  0  0  0  0  0  0  0  0  0  0
   -4.2470   -0.6826   -0.3290 C   0  0  0  0  0  0  0  0  0  0  0  0
   -3.6462    0.4793    0.1624 C   0  0  0  0  0  0  0  0  0  0  0  0
   -2.6559    0.3946    1.1405 C   0  0  0  0  0  0  0  0  0  0  0  0
   -3.9833    1.7381   -0.2643 O   0  0  0  0  0  0  0  0  0  0  0  0
   -4.7408    1.6930   -1.4789 C   0  0  0  0  0  0  0  0  0  0  0  0
   -5.8254    0.6316   -1.3966 C   0  0  0  0  0  0  0  0  0  0  0  0
   -5.2474   -0.6728   -1.2669 O   0  0  0  0  0  0  0  0  0  0  0  0
    2.8431    0.2384    0.8401 C   0  0  0  0  0  0  0  0  0  0  0  0
    3.9969    0.4788    0.0686 C   0  0  0  0  0  0  0  0  0  0  0  0
    5.4275    1.3386    0.4962 S   0  0  0  0  0  0  0  0  0  0  0  0
    7.4705    2.6220   -1.3493 H   0  0  0  0  0  0  0  0  0  0  0  0
    7.6985    1.2409   -2.4328 H   0  0  0  0  0  0  0  0  0  0  0  0
    8.1943    1.1149   -0.7381 H   0  0  0  0  0  0  0  0  0  0  0  0
    3.1511   -1.0971   -2.8137 H   0  0  0  0  0  0  0  0  0  0  0  0
    1.1114   -1.5405   -1.4991 H   0  0  0  0  0  0  0  0  0  0  0  0
   -0.0873   -1.3269    0.4175 H   0  0  0  0  0  0  0  0  0  0  0  0
   -0.9889   -1.9906    2.9671 H   0  0  0  0  0  0  0  0  0  0  0  0
   -1.4706   -0.3971    3.5442 H   0  0  0  0  0  0  0  0  0  0  0  0
   -2.5271   -3.0023    1.4542 H   0  0  0  0  0  0  0  0  0  0  0  0
   -4.2961   -2.8319   -0.2588 H   0  0  0  0  0  0  0  0  0  0  0  0
   -2.2093    1.3107    1.5229 H   0  0  0  0  0  0  0  0  0  0  0  0
   -5.1882    2.6808   -1.6276 H   0  0  0  0  0  0  0  0  0  0  0  0
   -4.0528    1.5003   -2.3114 H   0  0  0  0  0  0  0  0  0  0  0  0
   -6.4301    0.6368   -2.3089 H   0  0  0  0  0  0  0  0  0  0  0  0
   -6.4926    0.8040   -0.5430 H   0  0  0  0  0  0  0  0  0  0  0  0
    2.7988    0.6255    1.8513 H   0  0  0  0  0  0  0  0  0  0  0  0
  1  2  1  0
  2  3  2  0
  3  4  1  0
  4  5  2  0
  5  6  1  0
  6  7  2  0
  7  8  1  0
  8  9  1  0
  9 10  2  0
  9 11  1  0
 11 12  1  0
 12 13  2  0
 13 14  1  0
 14 15  2  0
 15 16  1  0
 16 17  2  0
 16 18  1  0
 18 19  1  0
 19 20  1  0
 20 21  1  0
  7 22  1  0
 22 23  2  0
 23 24  1  0
 24  2  1  0
 23  4  1  0
 17 12  1  0
 21 15  1  0
  1 25  1  0
  1 26  1  0
  1 27  1  0
  5 28  1  0
  6 29  1  0
  8 30  1  0
 11 31  1  0
 11 32  1  0
 13 33  1  0
 14 34  1  0
 17 35  1  0
 19 36  1  0
 19 37  1  0
 20 38  1  0
 20 39  1  0
 22 40  1  0
M  END
$$$$
