
     RDKit          3D

 49 52  0  0  0  0  0  0  0  0999 V2000
    5.2740   -2.7311    0.8002 C   0  0  0  0  0  0  0  0  0  0  0  0
    5.9930   -1.4188    0.6749 C   0  0  0  0  0  0  0  0  0  0  0  0
    7.2720   -1.3661    0.1004 C   0  0  0  0  0  0  0  0  0  0  0  0
    7.9437   -0.1477   -0.0118 C   0  0  0  0  0  0  0  0  0  0  0  0
    9.5129   -0.1003   -0.7172 Cl  0  0  0  0  0  0  0  0  0  0  0  0
    7.3580    1.0293    0.4482 C   0  0  0  0  0  0  0  0  0  0  0  0
    6.0865    0.9896    1.0213 C   0  0  0  0  0  0  0  0  0  0  0  0
    5.3987   -0.2255    1.1171 C   0  0  0  0  0  0  0  0  0  0  0  0
    4.1658   -0.3033    1.7222 O   0  0  0  0  0  0  0  0  0  0  0  0
    3.1519    0.4747    1.3318 C   0  0  0  0  0  0  0  0  0  0  0  0
    3.1846    1.2715    0.2845 N   0  0  0  0  0  0  0  0  0  0  0  0
    1.9693    1.9116    0.1513 C   0  0  0  0  0  0  0  0  0  0  0  0
    1.0142    1.5931    1.0957 C   0  0  0  0  0  0  0  0  0  0  0  0
   -0.3847    2.1073    1.2367 C   0  0  0  0  0  0  0  0  0  0  0  0
   -1.3960    1.0906    0.9091 N   0  0  0  0  0  0  0  0  0  0  0  0
   -1.4256    0.7867   -0.5419 C   0  0  0  0  0  0  0  0  0  0  0  0
   -2.5258   -0.2345   -0.9154 C   0  0  0  0  0  0  0  0  0  0  0  0
   -3.8502    0.2523   -0.4787 N   0  0  0  0  0  0  0  0  0  0  0  0
   -4.9861   -0.4503   -0.9155 C   0  0  0  0  0  0  0  0  0  0  0  0
   -4.9375   -1.7313   -1.4849 C   0  0  0  0  0  0  0  0  0  0  0  0
   -6.0990   -2.3867   -1.9128 C   0  0  0  0  0  0  0  0  0  0  0  0
   -7.3384   -1.7680   -1.7897 C   0  0  0  0  0  0  0  0  0  0  0  0
   -7.4150   -0.4924   -1.2435 C   0  0  0  0  0  0  0  0  0  0  0  0
   -6.2512    0.1553   -0.8165 C   0  0  0  0  0  0  0  0  0  0  0  0
   -3.8712    0.5652    0.9695 C   0  0  0  0  0  0  0  0  0  0  0  0
   -2.7396    1.5597    1.3222 C   0  0  0  0  0  0  0  0  0  0  0  0
    1.6732    0.4566    2.2013 S   0  0  0  0  0  0  0  0  0  0  0  0
    5.0471   -2.9407    1.8505 H   0  0  0  0  0  0  0  0  0  0  0  0
    4.3429   -2.7087    0.2250 H   0  0  0  0  0  0  0  0  0  0  0  0
    5.8809   -3.5595    0.4203 H   0  0  0  0  0  0  0  0  0  0  0  0
    7.7475   -2.2755   -0.2591 H   0  0  0  0  0  0  0  0  0  0  0  0
    7.8828    1.9768    0.3658 H   0  0  0  0  0  0  0  0  0  0  0  0
    5.6347    1.9083    1.3859 H   0  0  0  0  0  0  0  0  0  0  0  0
    1.8295    2.6076   -0.6674 H   0  0  0  0  0  0  0  0  0  0  0  0
   -0.5180    3.0053    0.6186 H   0  0  0  0  0  0  0  0  0  0  0  0
   -0.5126    2.4323    2.2785 H   0  0  0  0  0  0  0  0  0  0  0  0
   -1.5862    1.7080   -1.1181 H   0  0  0  0  0  0  0  0  0  0  0  0
   -0.4655    0.3637   -0.8580 H   0  0  0  0  0  0  0  0  0  0  0  0
   -2.5094   -0.3661   -2.0043 H   0  0  0  0  0  0  0  0  0  0  0  0
   -2.2948   -1.1987   -0.4439 H   0  0  0  0  0  0  0  0  0  0  0  0
   -3.9963   -2.2603   -1.5949 H   0  0  0  0  0  0  0  0  0  0  0  0
   -6.0291   -3.3824   -2.3426 H   0  0  0  0  0  0  0  0  0  0  0  0
   -8.2388   -2.2751   -2.1243 H   0  0  0  0  0  0  0  0  0  0  0  0
   -8.3757    0.0073   -1.1555 H   0  0  0  0  0  0  0  0  0  0  0  0
   -6.3363    1.1655   -0.4241 H   0  0  0  0  0  0  0  0  0  0  0  0
   -3.7462   -0.3582    1.5507 H   0  0  0  0  0  0  0  0  0  0  0  0
   -4.8195    1.0224    1.2736 H   0  0  0  0  0  0  0  0  0  0  0  0
   -2.9614    2.5268    0.8506 H   0  0  0  0  0  0  0  0  0  0  0  0
   -2.7531    1.7137    2.4080 H   0  0  0  0  0  0  0  0  0  0  0  0
  1  2  1  0
  2  3  2  0
  3  4  1  0
  4  5  1  0
  4  6  2  0
  6  7  1  0
  7  8  2  0
  8  9  1  0
  9 10  1  0
 10 11  2  0
 11 12  1  0
 12 13  2  0
 13 14  1  0
 14 15  1  0
 15 16  1  0
 16 17  1  0
 17 18  1  0
 18 19  1  0
 19 20  2  0
 20 21  1  0
 21 22  2  0
 22 23  1  0
 23 24  2  0
 18 25  1  0
 25 26  1  0
 13 27  1  0
  8  2  1  0
 27 10  1  0
 26 15  1  0
 24 19  1  0
  1 28  1  0
  1 29  1  0
  1 30  1  0
  3 31  1  0
  6 32  1  0
  7 33  1  0
 12 34  1  0
 14 35  1  0
 14 36  1  0
 16 37  1  0
 16 38  1  0
 17 39  1  0
 17 40  1  0
 20 41  1  0
 21 42  1  0
 22 43  1  0
 23 44  1  0
 24 45  1  0
 25 46  1  0
 25 47  1  0
 26 48  1  0
 26 49  1  0
M  END
$$$$
