
     RDKit          3D

 56 60  0  0  0  0  0  0  0  0999 V2000
   -7.2628    2.0644    1.5368 C   0  0  0  0  0  0  0  0  0  0  0  0
   -6.2108    1.0318    1.2515 C   0  0  0  0  0  0  0  0  0  0  0  0
   -5.1815    0.8044    2.1766 C   0  0  0  0  0  0  0  0  0  0  0  0
   -4.2159   -0.1719    1.9321 C   0  0  0  0  0  0  0  0  0  0  0  0
   -4.2814   -0.9234    0.7541 C   0  0  0  0  0  0  0  0  0  0  0  0
   -3.0203   -2.1663    0.4494 S   0  0  0  0  0  6  0  0  0  0  0  0
   -3.4100   -2.8441   -0.7785 O   0  0  0  0  0  0  0  0  0  0  0  0
   -2.9603   -2.9029    1.6979 O   0  0  0  0  0  0  0  0  0  0  0  0
   -1.6093   -1.2104    0.1321 C   0  0  0  0  0  0  0  0  0  0  0  0
   -1.6841   -0.1794   -0.7281 C   0  0  0  0  0  0  0  0  0  0  0  0
   -0.5364    0.6475   -1.0615 C   0  0  0  0  0  0  0  0  0  0  0  0
   -0.6986    1.7699   -2.0294 C   0  0  0  0  0  0  0  0  0  0  0  0
   -1.8095    2.0069   -2.5113 O   0  0  0  0  0  0  0  0  0  0  0  0
    0.4465    2.4894   -2.3212 N   0  0  0  0  0  0  0  0  0  0  0  0
    0.3823    3.5412   -3.2293 C   0  0  0  0  0  0  0  0  0  0  0  0
    1.4630    4.2662   -3.5449 C   0  0  0  0  0  0  0  0  0  0  0  0
    2.7305    3.9654   -2.9350 C   0  0  0  0  0  0  0  0  0  0  0  0
    2.8365    2.9655   -2.0517 C   0  0  0  0  0  0  0  0  0  0  0  0
    1.6356    2.1550   -1.6998 C   0  0  0  0  0  0  0  0  0  0  0  0
    1.7682    1.1941   -0.8426 N   0  0  0  0  0  0  0  0  0  0  0  0
    0.6776    0.4217   -0.5094 C   0  0  0  0  0  0  0  0  0  0  0  0
    0.8171   -0.6467    0.4179 N   0  0  0  0  0  0  0  0  0  0  0  0
    2.1510   -0.8796    1.0086 C   0  0  0  0  0  0  0  0  0  0  0  0
    2.9698   -1.8307    0.1279 C   0  0  0  0  0  0  0  0  0  0  0  0
    4.3372   -2.0957    0.7069 C   0  0  0  0  0  0  0  0  0  0  0  0
    5.3711   -1.1665    0.5303 C   0  0  0  0  0  0  0  0  0  0  0  0
    6.6345   -1.4025    1.0747 C   0  0  0  0  0  0  0  0  0  0  0  0
    6.8748   -2.5659    1.8019 C   0  0  0  0  0  0  0  0  0  0  0  0
    5.8520   -3.4939    1.9863 C   0  0  0  0  0  0  0  0  0  0  0  0
    4.5874   -3.2603    1.4432 C   0  0  0  0  0  0  0  0  0  0  0  0
   -0.2556   -1.5172    0.6898 C   0  0  0  0  0  0  0  0  0  0  0  0
   -0.1380   -2.6006    1.3899 N   0  0  0  0  0  0  0  0  0  0  0  0
   -5.3183   -0.7317   -0.1625 C   0  0  0  0  0  0  0  0  0  0  0  0
   -6.2800    0.2476    0.0907 C   0  0  0  0  0  0  0  0  0  0  0  0
   -7.7801    2.3648    0.6202 H   0  0  0  0  0  0  0  0  0  0  0  0
   -6.8125    2.9664    1.9672 H   0  0  0  0  0  0  0  0  0  0  0  0
   -8.0000    1.6641    2.2384 H   0  0  0  0  0  0  0  0  0  0  0  0
   -5.1332    1.3833    3.0969 H   0  0  0  0  0  0  0  0  0  0  0  0
   -3.4304   -0.3507    2.6633 H   0  0  0  0  0  0  0  0  0  0  0  0
   -2.6171    0.0730   -1.2269 H   0  0  0  0  0  0  0  0  0  0  0  0
   -0.5870    3.7515   -3.6767 H   0  0  0  0  0  0  0  0  0  0  0  0
    1.4039    5.0835   -4.2564 H   0  0  0  0  0  0  0  0  0  0  0  0
    3.5923    4.5666   -3.2066 H   0  0  0  0  0  0  0  0  0  0  0  0
    3.7719    2.7087   -1.5706 H   0  0  0  0  0  0  0  0  0  0  0  0
    2.6862    0.0702    1.1443 H   0  0  0  0  0  0  0  0  0  0  0  0
    2.0579   -1.2712    2.0290 H   0  0  0  0  0  0  0  0  0  0  0  0
    3.0857   -1.4187   -0.8827 H   0  0  0  0  0  0  0  0  0  0  0  0
    2.4352   -2.7800   -0.0053 H   0  0  0  0  0  0  0  0  0  0  0  0
    5.1984   -0.2549   -0.0372 H   0  0  0  0  0  0  0  0  0  0  0  0
    7.4325   -0.6798    0.9300 H   0  0  0  0  0  0  0  0  0  0  0  0
    7.8599   -2.7518    2.2226 H   0  0  0  0  0  0  0  0  0  0  0  0
    6.0405   -4.4028    2.5515 H   0  0  0  0  0  0  0  0  0  0  0  0
    3.8033   -3.9986    1.5948 H   0  0  0  0  0  0  0  0  0  0  0  0
    0.8074   -2.7643    1.7272 H   0  0  0  0  0  0  0  0  0  0  0  0
   -5.3887   -1.3344   -1.0658 H   0  0  0  0  0  0  0  0  0  0  0  0
   -7.0887    0.3942   -0.6225 H   0  0  0  0  0  0  0  0  0  0  0  0
  1  2  1  0
  2  3  2  0
  3  4  1  0
  4  5  2  0
  5  6  1  0
  6  7  2  0
  6  8  2  0
  6  9  1  0
  9 10  2  0
 10 11  1  0
 11 12  1  0
 12 13  2  0
 12 14  1  0
 14 15  1  0
 15 16  2  0
 16 17  1  0
 17 18  2  0
 18 19  1  0
 19 20  2  0
 20 21  1  0
 21 22  1  0
 22 23  1  0
 23 24  1  0
 24 25  1  0
 25 26  2  0
 26 27  1  0
 27 28  2  0
 28 29  1  0
 29 30  2  0
 22 31  1  0
 31 32  2  3
  5 33  1  0
 33 34  2  0
 34  2  1  0
 31  9  1  0
 21 11  2  0
 30 25  1  0
 19 14  1  0
  1 35  1  0
  1 36  1  0
  1 37  1  0
  3 38  1  0
  4 39  1  0
 10 40  1  0
 15 41  1  0
 16 42  1  0
 17 43  1  0
 18 44  1  0
 23 45  1  0
 23 46  1  0
 24 47  1  0
 24 48  1  0
 26 49  1  0
 27 50  1  0
 28 51  1  0
 29 52  1  0
 30 53  1  0
 32 54  1  0
 33 55  1  0
 34 56  1  0
M  END
$$$$
