
     RDKit          3D

 30 31  0  0  0  0  0  0  0  0999 V2000
    5.7743   -2.0521    0.8193 C   0  0  0  0  0  0  0  0  0  0  0  0
    4.7243   -1.1845    0.3417 N   0  0  0  0  0  0  0  0  0  0  0  0
    4.7753   -0.3502   -0.7294 C   0  0  0  0  0  0  0  0  0  0  0  0
    3.5463    0.2568   -0.7736 C   0  0  0  0  0  0  0  0  0  0  0  0
    3.0382    1.5318   -2.0494 Br  0  0  0  0  0  0  0  0  0  0  0  0
    2.7915   -0.2658    0.3125 C   0  0  0  0  0  0  0  0  0  0  0  0
    1.4127    0.0119    0.7617 C   0  0  0  0  0  0  0  0  0  0  0  0
    0.9175   -0.4621    1.7887 O   0  0  0  0  0  0  0  0  0  0  0  0
    0.6559    0.8417   -0.0506 N   0  0  0  0  0  0  0  0  0  0  0  0
   -0.7301    0.9145    0.1997 N   0  0  0  0  0  0  0  0  0  0  0  0
   -1.5579    0.9053   -0.9077 C   0  0  0  0  0  0  0  0  0  0  0  0
   -1.1255    1.0165   -2.0526 O   0  0  0  0  0  0  0  0  0  0  0  0
   -3.0137    0.7174   -0.6544 C   0  0  0  0  0  0  0  0  0  0  0  0
   -3.6019    1.0034    0.5858 C   0  0  0  0  0  0  0  0  0  0  0  0
   -4.9758    0.8128    0.7694 C   0  0  0  0  0  0  0  0  0  0  0  0
   -5.7614    0.3449   -0.2835 C   0  0  0  0  0  0  0  0  0  0  0  0
   -7.4499    0.1138   -0.0519 Cl  0  0  0  0  0  0  0  0  0  0  0  0
   -5.1881    0.0702   -1.5232 C   0  0  0  0  0  0  0  0  0  0  0  0
   -3.8161    0.2600   -1.7098 C   0  0  0  0  0  0  0  0  0  0  0  0
    3.5497   -1.1583    0.9887 N   0  0  0  0  0  0  0  0  0  0  0  0
    6.0220   -1.7617    1.8433 H   0  0  0  0  0  0  0  0  0  0  0  0
    5.4109   -3.0823    0.7878 H   0  0  0  0  0  0  0  0  0  0  0  0
    6.6530   -1.9464    0.1783 H   0  0  0  0  0  0  0  0  0  0  0  0
    5.6548   -0.2576   -1.3510 H   0  0  0  0  0  0  0  0  0  0  0  0
    0.9360    1.0373   -1.0112 H   0  0  0  0  0  0  0  0  0  0  0  0
   -1.0217    0.4893    1.0806 H   0  0  0  0  0  0  0  0  0  0  0  0
   -3.0187    1.3964    1.4142 H   0  0  0  0  0  0  0  0  0  0  0  0
   -5.4276    1.0377    1.7327 H   0  0  0  0  0  0  0  0  0  0  0  0
   -5.7996   -0.2882   -2.3474 H   0  0  0  0  0  0  0  0  0  0  0  0
   -3.3741    0.0476   -2.6821 H   0  0  0  0  0  0  0  0  0  0  0  0
  1  2  1  0
  2  3  1  0
  3  4  2  0
  4  5  1  0
  4  6  1  0
  6  7  1  0
  7  8  2  0
  7  9  1  0
  9 10  1  0
 10 11  1  0
 11 12  2  0
 11 13  1  0
 13 14  2  0
 14 15  1  0
 15 16  2  0
 16 17  1  0
 16 18  1  0
 18 19  2  0
  6 20  2  0
 20  2  1  0
 19 13  1  0
  1 21  1  0
  1 22  1  0
  1 23  1  0
  3 24  1  0
  9 25  1  0
 10 26  1  0
 14 27  1  0
 15 28  1  0
 18 29  1  0
 19 30  1  0
M  END
$$$$
