
     RDKit          3D

 71 76  0  0  0  0  0  0  0  0999 V2000
   -2.9963   -5.4152    2.6972 C   0  0  0  0  0  0  0  0  0  0  0  0
   -2.3020   -4.2267    2.3408 O   0  0  0  0  0  0  0  0  0  0  0  0
   -2.5126   -3.7359    1.0807 C   0  0  0  0  0  0  0  0  0  0  0  0
   -3.3354   -4.3195    0.0997 C   0  0  0  0  0  0  0  0  0  0  0  0
   -3.4823   -3.7268   -1.1600 C   0  0  0  0  0  0  0  0  0  0  0  0
   -2.7874   -2.5615   -1.4032 C   0  0  0  0  0  0  0  0  0  0  0  0
   -1.9514   -1.9711   -0.4534 C   0  0  0  0  0  0  0  0  0  0  0  0
   -1.8213   -2.5498    0.8023 C   0  0  0  0  0  0  0  0  0  0  0  0
   -1.3530   -0.7177   -1.0406 C   0  0  1  0  0  0  0  0  0  0  0  0
   -2.0185   -0.6640   -2.4529 C   0  0  0  0  0  0  0  0  0  0  0  0
   -1.8947    0.1729   -3.3347 O   0  0  0  0  0  0  0  0  0  0  0  0
   -2.8231   -1.8018   -2.5617 N   0  0  0  0  0  0  0  0  0  0  0  0
   -1.7299    0.4124   -0.1654 C   0  0  0  0  0  0  0  0  0  0  0  0
   -0.6035    1.1743    0.1750 C   0  0  0  0  0  0  0  0  0  0  0  0
   -0.9993    2.2066    0.9836 C   0  0  0  0  0  0  0  0  0  0  0  0
   -0.3299    3.1946    1.5632 O   0  0  0  0  0  0  0  0  0  0  0  0
   -2.3712    2.0777    1.1379 N   0  0  0  0  0  0  0  0  0  0  0  0
   -3.2040    2.9508    1.9561 C   0  0  0  0  0  0  0  0  0  0  0  0
   -3.7341    4.1260    1.1717 C   0  0  0  0  0  0  0  0  0  0  0  0
   -4.9152    4.0109    0.4238 C   0  0  0  0  0  0  0  0  0  0  0  0
   -5.4034    5.0979   -0.3026 C   0  0  0  0  0  0  0  0  0  0  0  0
   -4.7152    6.3094   -0.2923 C   0  0  0  0  0  0  0  0  0  0  0  0
   -3.5359    6.4342    0.4392 C   0  0  0  0  0  0  0  0  0  0  0  0
   -3.0458    5.3478    1.1653 C   0  0  0  0  0  0  0  0  0  0  0  0
   -2.8258    0.9615    0.4521 C   0  0  0  0  0  0  0  0  0  0  0  0
   -4.1041    0.6051    0.4853 O   0  0  0  0  0  0  0  0  0  0  0  0
    0.6261    0.6340   -0.4420 C   0  0  1  0  0  0  0  0  0  0  0  0
    1.7563    0.3446    0.5644 C   0  0  0  0  0  0  0  0  0  0  0  0
    2.8373   -0.4295   -0.0461 N   0  0  0  0  0  0  0  0  0  0  0  0
    4.1528   -0.1269    0.2333 C   0  0  0  0  0  0  0  0  0  0  0  0
    4.4937    0.7527    1.0133 O   0  0  0  0  0  0  0  0  0  0  0  0
    5.0093   -0.9166   -0.4638 O   0  0  0  0  0  0  0  0  0  0  0  0
    6.4456   -0.7659   -0.3300 C   0  0  0  0  0  0  0  0  0  0  0  0
    6.9073   -1.0669    1.0998 C   0  0  0  0  0  0  0  0  0  0  0  0
    6.9085    0.6155   -0.8045 C   0  0  0  0  0  0  0  0  0  0  0  0
    7.0348   -1.8296   -1.2692 C   0  0  0  0  0  0  0  0  0  0  0  0
    2.4502   -1.4705   -1.0016 C   0  0  0  0  0  0  0  0  0  0  0  0
    0.9418   -1.7828   -0.9559 C   0  0  0  0  0  0  0  0  0  0  0  0
    0.1311   -0.5868   -1.1751 N   0  0  0  0  0  0  0  0  0  0  0  0
   -4.0803   -5.2652    2.6606 H   0  0  0  0  0  0  0  0  0  0  0  0
   -2.6921   -6.2551    2.0636 H   0  0  0  0  0  0  0  0  0  0  0  0
   -2.7285   -5.6623    3.7290 H   0  0  0  0  0  0  0  0  0  0  0  0
   -3.8808   -5.2382    0.2933 H   0  0  0  0  0  0  0  0  0  0  0  0
   -4.1259   -4.1738   -1.9098 H   0  0  0  0  0  0  0  0  0  0  0  0
   -1.1979   -2.0905    1.5650 H   0  0  0  0  0  0  0  0  0  0  0  0
   -3.3575   -2.0030   -3.3935 H   0  0  0  0  0  0  0  0  0  0  0  0
    0.5850    3.1709    1.2324 H   0  0  0  0  0  0  0  0  0  0  0  0
   -2.6086    3.2859    2.8136 H   0  0  0  0  0  0  0  0  0  0  0  0
   -4.0267    2.3562    2.3702 H   0  0  0  0  0  0  0  0  0  0  0  0
   -5.4562    3.0670    0.3985 H   0  0  0  0  0  0  0  0  0  0  0  0
   -6.3175    4.9971   -0.8816 H   0  0  0  0  0  0  0  0  0  0  0  0
   -5.0942    7.1541   -0.8607 H   0  0  0  0  0  0  0  0  0  0  0  0
   -2.9940    7.3758    0.4400 H   0  0  0  0  0  0  0  0  0  0  0  0
   -2.1172    5.4552    1.7224 H   0  0  0  0  0  0  0  0  0  0  0  0
   -4.1970   -0.2133   -0.0335 H   0  0  0  0  0  0  0  0  0  0  0  0
    0.9940    1.3346   -1.2020 H   0  0  0  0  0  0  0  0  0  0  0  0
    2.1417    1.2826    0.9790 H   0  0  0  0  0  0  0  0  0  0  0  0
    1.3841   -0.2453    1.4122 H   0  0  0  0  0  0  0  0  0  0  0  0
    6.5791   -0.2987    1.8074 H   0  0  0  0  0  0  0  0  0  0  0  0
    7.9994   -1.1239    1.1617 H   0  0  0  0  0  0  0  0  0  0  0  0
    6.4885   -2.0165    1.4514 H   0  0  0  0  0  0  0  0  0  0  0  0
    6.4939    0.8463   -1.7926 H   0  0  0  0  0  0  0  0  0  0  0  0
    6.5770    1.4121   -0.1317 H   0  0  0  0  0  0  0  0  0  0  0  0
    8.0010    0.6709   -0.8627 H   0  0  0  0  0  0  0  0  0  0  0  0
    8.1299   -1.8169   -1.2644 H   0  0  0  0  0  0  0  0  0  0  0  0
    6.6914   -1.6734   -2.2986 H   0  0  0  0  0  0  0  0  0  0  0  0
    6.6986   -2.8324   -0.9805 H   0  0  0  0  0  0  0  0  0  0  0  0
    3.0243   -2.3795   -0.7869 H   0  0  0  0  0  0  0  0  0  0  0  0
    2.7390   -1.1227   -2.0013 H   0  0  0  0  0  0  0  0  0  0  0  0
    0.7121   -2.5344   -1.7196 H   0  0  0  0  0  0  0  0  0  0  0  0
    0.7361   -2.2270    0.0239 H   0  0  0  0  0  0  0  0  0  0  0  0
  1  2  1  0
  2  3  1  0
  3  4  2  0
  4  5  1  0
  5  6  2  0
  6  7  1  0
  7  8  2  0
  7  9  1  0
  9 10  1  0
 10 11  2  0
 10 12  1  0
  9 13  1  0
 13 14  1  0
 14 15  2  0
 15 16  1  0
 15 17  1  0
 17 18  1  0
 18 19  1  0
 19 20  2  0
 20 21  1  0
 21 22  2  0
 22 23  1  0
 23 24  2  0
 17 25  1  0
 25 26  1  0
 14 27  1  0
 27 28  1  0
 28 29  1  0
 29 30  1  0
 30 31  2  0
 30 32  1  0
 32 33  1  0
 33 34  1  0
 33 35  1  0
 33 36  1  0
 29 37  1  0
 37 38  1  0
 38 39  1  0
  8  3  1  0
  9 39  1  6
 12  6  1  0
 25 13  2  0
 39 27  1  0
 24 19  1  0
  1 40  1  0
  1 41  1  0
  1 42  1  0
  4 43  1  0
  5 44  1  0
  8 45  1  0
 12 46  1  0
 16 47  1  0
 18 48  1  0
 18 49  1  0
 20 50  1  0
 21 51  1  0
 22 52  1  0
 23 53  1  0
 24 54  1  0
 26 55  1  0
 27 56  1  6
 28 57  1  0
 28 58  1  0
 34 59  1  0
 34 60  1  0
 34 61  1  0
 35 62  1  0
 35 63  1  0
 35 64  1  0
 36 65  1  0
 36 66  1  0
 36 67  1  0
 37 68  1  0
 37 69  1  0
 38 70  1  0
 38 71  1  0
M  END
$$$$
