
     RDKit          3D

 43 44  0  0  0  0  0  0  0  0999 V2000
    4.9000    1.7909    2.8307 C   0  0  0  0  0  0  0  0  0  0  0  0
    4.0431    1.3491    1.7767 O   0  0  0  0  0  0  0  0  0  0  0  0
    4.6500    1.2811    0.5657 C   0  0  0  0  0  0  0  0  0  0  0  0
    5.8158    1.5600    0.3341 O   0  0  0  0  0  0  0  0  0  0  0  0
    3.6970    0.8116   -0.4758 C   0  0  0  0  0  0  0  0  0  0  0  0
    4.1689    0.6664   -1.7868 C   0  0  0  0  0  0  0  0  0  0  0  0
    3.3127    0.2347   -2.8035 C   0  0  0  0  0  0  0  0  0  0  0  0
    1.9664   -0.0219   -2.5330 C   0  0  0  0  0  0  0  0  0  0  0  0
    1.1425   -0.5585   -3.5441 N   0  0  0  0  0  0  0  0  0  0  0  0
    1.5079    0.0521   -1.1976 C   0  0  0  0  0  0  0  0  0  0  0  0
    0.1768   -0.2749   -0.8685 N   0  0  0  0  0  0  0  0  0  0  0  0
   -0.0818   -1.5431   -0.8056 C   0  0  0  0  0  0  0  0  0  0  0  0
   -1.4581   -2.0254   -0.4636 C   0  0  0  0  0  0  0  0  0  0  0  0
   -1.6668   -2.0219    1.0257 C   0  0  0  0  0  0  0  0  0  0  0  0
   -1.2726   -2.9577    1.7242 O   0  0  0  0  0  0  0  0  0  0  0  0
   -2.2470   -0.7756    1.6565 C   0  0  0  0  0  0  0  0  0  0  0  0
   -3.4833   -0.2708    0.8951 C   0  0  0  0  0  0  0  0  0  0  0  0
   -4.6500   -1.2686    1.0318 C   0  0  0  0  0  0  0  0  0  0  0  0
   -3.9248    1.0725    1.5048 C   0  0  0  0  0  0  0  0  0  0  0  0
   -3.1319   -0.0496   -0.5852 C   0  0  0  0  0  0  0  0  0  0  0  0
   -2.5286   -1.2841   -1.2212 C   0  0  0  0  0  0  0  0  0  0  0  0
   -2.8311   -1.6084   -2.3720 O   0  0  0  0  0  0  0  0  0  0  0  0
    2.3638    0.4987   -0.1860 C   0  0  0  0  0  0  0  0  0  0  0  0
    4.3172    1.8086    3.7558 H   0  0  0  0  0  0  0  0  0  0  0  0
    5.7363    1.0970    2.9613 H   0  0  0  0  0  0  0  0  0  0  0  0
    5.2629    2.8039    2.6305 H   0  0  0  0  0  0  0  0  0  0  0  0
    5.2099    0.8821   -2.0226 H   0  0  0  0  0  0  0  0  0  0  0  0
    3.7053    0.1057   -3.8088 H   0  0  0  0  0  0  0  0  0  0  0  0
    1.3850   -0.2397   -4.4769 H   0  0  0  0  0  0  0  0  0  0  0  0
    0.1568   -0.3996   -3.3343 H   0  0  0  0  0  0  0  0  0  0  0  0
    0.6939   -2.3171   -0.9604 H   0  0  0  0  0  0  0  0  0  0  0  0
   -1.5292   -3.0733   -0.7842 H   0  0  0  0  0  0  0  0  0  0  0  0
   -2.5059   -1.0024    2.6977 H   0  0  0  0  0  0  0  0  0  0  0  0
   -1.4556   -0.0165    1.6725 H   0  0  0  0  0  0  0  0  0  0  0  0
   -4.9173   -1.4182    2.0841 H   0  0  0  0  0  0  0  0  0  0  0  0
   -5.5428   -0.9020    0.5124 H   0  0  0  0  0  0  0  0  0  0  0  0
   -4.4063   -2.2500    0.6119 H   0  0  0  0  0  0  0  0  0  0  0  0
   -4.1835    0.9605    2.5638 H   0  0  0  0  0  0  0  0  0  0  0  0
   -3.1279    1.8216    1.4348 H   0  0  0  0  0  0  0  0  0  0  0  0
   -4.8036    1.4726    0.9865 H   0  0  0  0  0  0  0  0  0  0  0  0
   -4.0297    0.2262   -1.1516 H   0  0  0  0  0  0  0  0  0  0  0  0
   -2.4105    0.7678   -0.6999 H   0  0  0  0  0  0  0  0  0  0  0  0
    1.9761    0.5863    0.8250 H   0  0  0  0  0  0  0  0  0  0  0  0
  1  2  1  0
  2  3  1  0
  3  4  2  0
  3  5  1  0
  5  6  2  0
  6  7  1  0
  7  8  2  0
  8  9  1  0
  8 10  1  0
 10 11  1  0
 11 12  2  3
 12 13  1  0
 13 14  1  0
 14 15  2  0
 14 16  1  0
 16 17  1  0
 17 18  1  0
 17 19  1  0
 17 20  1  0
 20 21  1  0
 21 22  2  0
 10 23  2  0
 23  5  1  0
 21 13  1  0
  1 24  1  0
  1 25  1  0
  1 26  1  0
  6 27  1  0
  7 28  1  0
  9 29  1  0
  9 30  1  0
 12 31  1  0
 13 32  1  0
 16 33  1  0
 16 34  1  0
 18 35  1  0
 18 36  1  0
 18 37  1  0
 19 38  1  0
 19 39  1  0
 19 40  1  0
 20 41  1  0
 20 42  1  0
 23 43  1  0
M  END
$$$$
