
     RDKit          3D

 49 52  0  0  0  0  0  0  0  0999 V2000
    0.2028   -0.5304    4.4305 O   0  0  0  0  0  0  0  0  0  0  0  0
    0.9262   -0.6392    3.4434 C   0  0  0  0  0  0  0  0  0  0  0  0
    2.4457   -0.7747    3.5919 C   0  0  0  0  0  0  0  0  0  0  0  0
    3.0701   -1.4133    2.4299 N   0  0  0  0  0  0  0  0  0  0  0  0
    3.2405   -0.6290    1.3033 N   0  0  0  0  0  0  0  0  0  0  0  0
    3.7725   -1.1794    0.2535 C   0  0  0  0  0  0  0  0  0  0  0  0
    3.9505   -0.3561   -0.9762 C   0  0  0  0  0  0  0  0  0  0  0  0
    4.2355    1.0107   -0.8327 C   0  0  0  0  0  0  0  0  0  0  0  0
    4.3881    1.8185   -1.9612 C   0  0  0  0  0  0  0  0  0  0  0  0
    4.2467    1.2611   -3.2263 C   0  0  0  0  0  0  0  0  0  0  0  0
    4.3892    2.0359   -4.3087 F   0  0  0  0  0  0  0  0  0  0  0  0
    3.9506   -0.0885   -3.3854 C   0  0  0  0  0  0  0  0  0  0  0  0
    3.7971   -0.9017   -2.2594 C   0  0  0  0  0  0  0  0  0  0  0  0
    4.2257   -2.5853    0.1969 C   0  0  0  0  0  0  0  0  0  0  0  0
    4.0123   -3.3327    1.2804 C   0  0  0  0  0  0  0  0  0  0  0  0
    3.3710   -2.7674    2.4836 C   0  0  0  0  0  0  0  0  0  0  0  0
    3.1589   -3.5008    3.4438 O   0  0  0  0  0  0  0  0  0  0  0  0
    0.5257   -0.4987    2.1256 N   0  0  0  0  0  0  0  0  0  0  0  0
   -0.7694   -0.3172    1.6161 C   0  0  0  0  0  0  0  0  0  0  0  0
   -0.8880   -0.1158    0.2345 C   0  0  0  0  0  0  0  0  0  0  0  0
   -2.1420    0.0753   -0.3561 C   0  0  0  0  0  0  0  0  0  0  0  0
   -3.2943    0.0677    0.4368 C   0  0  0  0  0  0  0  0  0  0  0  0
   -4.6502    0.2629   -0.1439 C   0  0  0  0  0  0  0  0  0  0  0  0
   -5.6198   -0.2913    0.3619 O   0  0  0  0  0  0  0  0  0  0  0  0
   -4.7227    1.1082   -1.2366 N   0  0  0  0  0  0  0  0  0  0  0  0
   -5.9694    1.4431   -1.8497 C   0  0  0  0  0  0  0  0  0  0  0  0
   -6.0317    2.4542   -2.9617 C   0  0  0  0  0  0  0  0  0  0  0  0
   -6.5967    2.7885   -1.6125 C   0  0  0  0  0  0  0  0  0  0  0  0
   -3.1816   -0.1567    1.8123 C   0  0  0  0  0  0  0  0  0  0  0  0
   -1.9241   -0.3416    2.3991 C   0  0  0  0  0  0  0  0  0  0  0  0
    2.6526   -1.3580    4.4947 H   0  0  0  0  0  0  0  0  0  0  0  0
    2.8757    0.2256    3.7111 H   0  0  0  0  0  0  0  0  0  0  0  0
    4.3458    1.4518    0.1563 H   0  0  0  0  0  0  0  0  0  0  0  0
    4.6140    2.8758   -1.8609 H   0  0  0  0  0  0  0  0  0  0  0  0
    3.8340   -0.4954   -4.3856 H   0  0  0  0  0  0  0  0  0  0  0  0
    3.5349   -1.9460   -2.4053 H   0  0  0  0  0  0  0  0  0  0  0  0
    4.7269   -2.9814   -0.6751 H   0  0  0  0  0  0  0  0  0  0  0  0
    4.3091   -4.3723    1.3384 H   0  0  0  0  0  0  0  0  0  0  0  0
    1.3003   -0.5012    1.4621 H   0  0  0  0  0  0  0  0  0  0  0  0
   -0.0047   -0.1081   -0.3996 H   0  0  0  0  0  0  0  0  0  0  0  0
   -2.2024    0.1989   -1.4336 H   0  0  0  0  0  0  0  0  0  0  0  0
   -3.9109    1.6590   -1.4826 H   0  0  0  0  0  0  0  0  0  0  0  0
   -6.6478    0.5948   -1.9290 H   0  0  0  0  0  0  0  0  0  0  0  0
   -6.7292    2.2689   -3.7709 H   0  0  0  0  0  0  0  0  0  0  0  0
   -5.1216    2.9549   -3.2680 H   0  0  0  0  0  0  0  0  0  0  0  0
   -6.0656    3.5023   -0.9944 H   0  0  0  0  0  0  0  0  0  0  0  0
   -7.6745    2.8232   -1.5008 H   0  0  0  0  0  0  0  0  0  0  0  0
   -4.0727   -0.1861    2.4368 H   0  0  0  0  0  0  0  0  0  0  0  0
   -1.8833   -0.5130    3.4709 H   0  0  0  0  0  0  0  0  0  0  0  0
  1  2  2  0
  2  3  1  0
  3  4  1  0
  4  5  1  0
  5  6  2  0
  6  7  1  0
  7  8  2  0
  8  9  1  0
  9 10  2  0
 10 11  1  0
 10 12  1  0
 12 13  2  0
  6 14  1  0
 14 15  2  0
 15 16  1  0
 16 17  2  0
  2 18  1  0
 18 19  1  0
 19 20  2  0
 20 21  1  0
 21 22  2  0
 22 23  1  0
 23 24  2  0
 23 25  1  0
 25 26  1  0
 26 27  1  0
 27 28  1  0
 22 29  1  0
 29 30  2  0
 16  4  1  0
 30 19  1  0
 13  7  1  0
 28 26  1  0
  3 31  1  0
  3 32  1  0
  8 33  1  0
  9 34  1  0
 12 35  1  0
 13 36  1  0
 14 37  1  0
 15 38  1  0
 18 39  1  0
 20 40  1  0
 21 41  1  0
 25 42  1  0
 26 43  1  0
 27 44  1  0
 27 45  1  0
 28 46  1  0
 28 47  1  0
 29 48  1  0
 30 49  1  0
M  END
$$$$
