
     RDKit          3D

 41 41  0  0  0  0  0  0  0  0999 V2000
    3.8852   -2.3149    3.1584 C   0  0  0  0  0  0  0  0  0  0  0  0
    2.6370   -1.7194    2.5251 C   0  0  0  0  0  0  0  0  0  0  0  0
    2.7617   -1.6542    1.0023 C   0  0  0  0  0  0  0  0  0  0  0  0
    1.4867   -1.1607    0.3090 C   0  0  0  0  0  0  0  0  0  0  0  0
    1.1291    0.2853    0.6617 C   0  0  0  0  0  0  0  0  0  0  0  0
    0.0460    0.9235   -0.2425 C   0  0  0  0  0  0  0  0  0  0  0  0
   -0.0428    2.4163    0.0956 C   0  0  0  0  0  0  0  0  0  0  0  0
   -1.0809    3.1003   -0.7668 C   0  0  0  0  0  0  0  0  0  0  0  0
   -0.7666    4.2434   -1.2942 N   0  0  0  0  0  0  0  0  0  0  0  0
   -1.8167    4.7797   -2.0487 O   0  0  0  0  0  0  0  0  0  0  0  0
   -2.3978    2.4175   -0.8728 C   0  0  0  0  0  0  0  0  0  0  0  0
   -2.5267    1.1270   -0.5199 C   0  0  0  0  0  0  0  0  0  0  0  0
   -3.8940    0.4911   -0.4915 C   0  0  0  0  0  0  0  0  0  0  0  0
   -1.3479    0.2453   -0.1072 C   0  0  0  0  0  0  0  0  0  0  0  0
   -1.4180   -1.0562   -0.9149 C   0  0  0  0  0  0  0  0  0  0  0  0
   -1.8327   -2.1142   -0.4542 O   0  0  0  0  0  0  0  0  0  0  0  0
   -1.0262   -0.8761   -2.2067 O   0  0  0  0  0  0  0  0  0  0  0  0
   -1.1086   -2.0520   -3.0119 C   0  0  0  0  0  0  0  0  0  0  0  0
    3.7778   -2.3498    4.2471 H   0  0  0  0  0  0  0  0  0  0  0  0
    4.7692   -1.7137    2.9230 H   0  0  0  0  0  0  0  0  0  0  0  0
    4.0579   -3.3353    2.8016 H   0  0  0  0  0  0  0  0  0  0  0  0
    1.7683   -2.3274    2.8025 H   0  0  0  0  0  0  0  0  0  0  0  0
    2.4793   -0.7170    2.9373 H   0  0  0  0  0  0  0  0  0  0  0  0
    2.9940   -2.6552    0.6179 H   0  0  0  0  0  0  0  0  0  0  0  0
    3.6041   -1.0081    0.7266 H   0  0  0  0  0  0  0  0  0  0  0  0
    1.6348   -1.2447   -0.7743 H   0  0  0  0  0  0  0  0  0  0  0  0
    0.6631   -1.8289    0.5794 H   0  0  0  0  0  0  0  0  0  0  0  0
    0.8019    0.3389    1.7073 H   0  0  0  0  0  0  0  0  0  0  0  0
    2.0413    0.8921    0.5892 H   0  0  0  0  0  0  0  0  0  0  0  0
    0.3952    0.8500   -1.2812 H   0  0  0  0  0  0  0  0  0  0  0  0
    0.9290    2.8990   -0.0642 H   0  0  0  0  0  0  0  0  0  0  0  0
   -0.3175    2.5701    1.1466 H   0  0  0  0  0  0  0  0  0  0  0  0
   -1.4276    5.6086   -2.3846 H   0  0  0  0  0  0  0  0  0  0  0  0
   -3.2394    3.0205   -1.1938 H   0  0  0  0  0  0  0  0  0  0  0  0
   -4.0713    0.0176    0.4797 H   0  0  0  0  0  0  0  0  0  0  0  0
   -3.9899   -0.2661   -1.2757 H   0  0  0  0  0  0  0  0  0  0  0  0
   -4.6913    1.2263   -0.6461 H   0  0  0  0  0  0  0  0  0  0  0  0
   -1.4974   -0.0236    0.9476 H   0  0  0  0  0  0  0  0  0  0  0  0
   -2.1448   -2.3980   -3.0792 H   0  0  0  0  0  0  0  0  0  0  0  0
   -0.7620   -1.7989   -4.0176 H   0  0  0  0  0  0  0  0  0  0  0  0
   -0.4613   -2.8379   -2.6102 H   0  0  0  0  0  0  0  0  0  0  0  0
  1  2  1  0
  2  3  1  0
  3  4  1  0
  4  5  1  0
  5  6  1  0
  6  7  1  0
  7  8  1  0
  8  9  2  3
  9 10  1  0
  8 11  1  0
 11 12  2  0
 12 13  1  0
 12 14  1  0
 14 15  1  0
 15 16  2  0
 15 17  1  0
 17 18  1  0
 14  6  1  0
  1 19  1  0
  1 20  1  0
  1 21  1  0
  2 22  1  0
  2 23  1  0
  3 24  1  0
  3 25  1  0
  4 26  1  0
  4 27  1  0
  5 28  1  0
  5 29  1  0
  6 30  1  0
  7 31  1  0
  7 32  1  0
 10 33  1  0
 11 34  1  0
 13 35  1  0
 13 36  1  0
 13 37  1  0
 14 38  1  0
 18 39  1  0
 18 40  1  0
 18 41  1  0
M  END
$$$$
