
     RDKit          3D

 42 44  0  0  0  0  0  0  0  0999 V2000
    1.9802    1.1176    2.6597 C   0  0  0  0  0  0  0  0  0  0  0  0
    2.2706    0.3916    1.4720 O   0  0  0  0  0  0  0  0  0  0  0  0
    1.2096   -0.0688    0.7361 C   0  0  0  0  0  0  0  0  0  0  0  0
   -0.1340    0.2687    0.9664 C   0  0  0  0  0  0  0  0  0  0  0  0
   -1.2002   -0.2150    0.1740 C   0  0  0  0  0  0  0  0  0  0  0  0
   -2.5003    0.1799    0.4540 N   0  0  0  0  0  0  0  0  0  0  0  0
   -2.8050    1.3997    1.2101 C   0  0  0  0  0  0  0  0  0  0  0  0
   -4.2185    1.7830    0.7776 C   0  0  0  0  0  0  0  0  0  0  0  0
   -4.8343    0.4539    0.3878 C   0  0  0  0  0  0  0  0  0  0  0  0
   -3.6739   -0.2600   -0.2998 C   0  0  0  0  0  0  0  0  0  0  0  0
   -0.8355   -1.1178   -0.8484 C   0  0  0  0  0  0  0  0  0  0  0  0
   -1.7835   -1.6689   -1.6816 O   0  0  0  0  0  0  0  0  0  0  0  0
   -1.8989   -3.0753   -1.4582 C   0  0  0  0  0  0  0  0  0  0  0  0
    0.5075   -1.4343   -1.1145 C   0  0  0  0  0  0  0  0  0  0  0  0
    1.5391   -0.9191   -0.3253 C   0  0  0  0  0  0  0  0  0  0  0  0
    2.9728   -1.2890   -0.6233 C   0  0  0  0  0  0  0  0  0  0  0  0
    3.7780   -0.1240   -1.0828 C   0  0  0  0  0  0  0  0  0  0  0  0
    3.6242    0.5740   -2.1685 N   0  0  0  0  0  0  0  0  0  0  0  0
    4.6004    1.5485   -2.1317 C   0  0  0  0  0  0  0  0  0  0  0  0
    4.8927    2.7217   -3.2730 S   0  0  0  0  0  0  0  0  0  0  0  0
    5.3550    1.4482   -1.0080 N   0  0  0  0  0  0  0  0  0  0  0  0
    4.9518    0.3865   -0.2875 C   0  0  0  0  0  0  0  0  0  0  0  0
    5.4187   -0.1077    0.7107 O   0  0  0  0  0  0  0  0  0  0  0  0
    1.5072    2.0769    2.4264 H   0  0  0  0  0  0  0  0  0  0  0  0
    2.9296    1.3293    3.1610 H   0  0  0  0  0  0  0  0  0  0  0  0
    1.3654    0.5271    3.3470 H   0  0  0  0  0  0  0  0  0  0  0  0
   -0.3731    0.9268    1.7933 H   0  0  0  0  0  0  0  0  0  0  0  0
   -2.7776    1.1845    2.2843 H   0  0  0  0  0  0  0  0  0  0  0  0
   -2.1190    2.2250    0.9885 H   0  0  0  0  0  0  0  0  0  0  0  0
   -4.7732    2.2960    1.5682 H   0  0  0  0  0  0  0  0  0  0  0  0
   -4.1765    2.4457   -0.0953 H   0  0  0  0  0  0  0  0  0  0  0  0
   -5.1399   -0.0966    1.2858 H   0  0  0  0  0  0  0  0  0  0  0  0
   -5.7055    0.5617   -0.2641 H   0  0  0  0  0  0  0  0  0  0  0  0
   -3.8260   -1.3419   -0.2458 H   0  0  0  0  0  0  0  0  0  0  0  0
   -3.6093    0.0636   -1.3452 H   0  0  0  0  0  0  0  0  0  0  0  0
   -2.8311   -3.4105   -1.9229 H   0  0  0  0  0  0  0  0  0  0  0  0
   -1.9492   -3.3153   -0.3897 H   0  0  0  0  0  0  0  0  0  0  0  0
   -1.0742   -3.6154   -1.9339 H   0  0  0  0  0  0  0  0  0  0  0  0
    0.7411   -2.0790   -1.9583 H   0  0  0  0  0  0  0  0  0  0  0  0
    3.4238   -1.7438    0.2654 H   0  0  0  0  0  0  0  0  0  0  0  0
    3.0168   -2.0484   -1.4133 H   0  0  0  0  0  0  0  0  0  0  0  0
    6.1539    2.0211   -0.7972 H   0  0  0  0  0  0  0  0  0  0  0  0
  1  2  1  0
  2  3  1  0
  3  4  2  0
  4  5  1  0
  5  6  1  0
  6  7  1  0
  7  8  1  0
  8  9  1  0
  9 10  1  0
  5 11  2  0
 11 12  1  0
 12 13  1  0
 11 14  1  0
 14 15  2  0
 15 16  1  0
 16 17  1  0
 17 18  2  0
 18 19  1  0
 19 20  2  0
 19 21  1  0
 21 22  1  0
 22 23  2  0
 15  3  1  0
 22 17  1  0
 10  6  1  0
  1 24  1  0
  1 25  1  0
  1 26  1  0
  4 27  1  0
  7 28  1  0
  7 29  1  0
  8 30  1  0
  8 31  1  0
  9 32  1  0
  9 33  1  0
 10 34  1  0
 10 35  1  0
 13 36  1  0
 13 37  1  0
 13 38  1  0
 14 39  1  0
 16 40  1  0
 16 41  1  0
 21 42  1  0
M  END
$$$$
