
     RDKit          3D

 47 49  0  0  0  0  0  0  0  0999 V2000
    0.7916    2.0269   -2.4281 O   0  0  0  0  0  0  0  0  0  0  0  0
    0.6906    1.4787   -1.3364 C   0  0  0  0  0  0  0  0  0  0  0  0
    1.4678    1.9501   -0.1202 C   0  0  0  0  0  0  0  0  0  0  0  0
    2.3192    3.1691   -0.4522 C   0  0  0  0  0  0  0  0  0  0  0  0
    3.2132    3.7849    1.0214 S   0  0  0  0  0  0  0  0  0  0  0  0
    4.4191    2.4886    1.2401 C   0  0  0  0  0  0  0  0  0  0  0  0
    5.3485    2.1785    0.2426 C   0  0  0  0  0  0  0  0  0  0  0  0
    6.2832    1.1600    0.4421 C   0  0  0  0  0  0  0  0  0  0  0  0
    6.2995    0.4529    1.6431 C   0  0  0  0  0  0  0  0  0  0  0  0
    5.3865    0.7677    2.6478 C   0  0  0  0  0  0  0  0  0  0  0  0
    4.4521    1.7863    2.4488 C   0  0  0  0  0  0  0  0  0  0  0  0
   -0.1158    0.3981   -1.0327 N   0  0  0  0  0  0  0  0  0  0  0  0
   -0.9319   -0.3666   -1.9033 C   0  0  0  0  0  0  0  0  0  0  0  0
   -0.9503   -0.1682   -3.2880 C   0  0  0  0  0  0  0  0  0  0  0  0
   -1.7192   -0.9899   -4.1201 C   0  0  0  0  0  0  0  0  0  0  0  0
   -2.4724   -2.0298   -3.5833 C   0  0  0  0  0  0  0  0  0  0  0  0
   -2.4802   -2.2356   -2.2060 C   0  0  0  0  0  0  0  0  0  0  0  0
   -1.7433   -1.3894   -1.3630 C   0  0  0  0  0  0  0  0  0  0  0  0
   -1.7983   -1.5999    0.1084 C   0  0  0  0  0  0  0  0  0  0  0  0
   -0.7403   -1.5830    0.7380 O   0  0  0  0  0  0  0  0  0  0  0  0
   -3.0278   -1.7473    0.7275 N   0  0  0  0  0  0  0  0  0  0  0  0
   -4.3351   -1.3978    0.1816 C   0  0  0  0  0  0  0  0  0  0  0  0
   -5.2016   -1.1337    1.4070 C   0  0  0  0  0  0  0  0  0  0  0  0
   -4.5876   -2.0462    2.4605 C   0  0  0  0  0  0  0  0  0  0  0  0
   -3.1002   -1.9334    2.1671 C   0  0  0  0  0  0  0  0  0  0  0  0
    0.7481    2.1913    0.6716 H   0  0  0  0  0  0  0  0  0  0  0  0
    2.0936    1.1158    0.2172 H   0  0  0  0  0  0  0  0  0  0  0  0
    3.0248    2.9563   -1.2619 H   0  0  0  0  0  0  0  0  0  0  0  0
    1.6777    3.9862   -0.8012 H   0  0  0  0  0  0  0  0  0  0  0  0
    5.3619    2.7303   -0.6937 H   0  0  0  0  0  0  0  0  0  0  0  0
    7.0015    0.9226   -0.3385 H   0  0  0  0  0  0  0  0  0  0  0  0
    7.0280   -0.3389    1.7983 H   0  0  0  0  0  0  0  0  0  0  0  0
    5.4023    0.2224    3.5879 H   0  0  0  0  0  0  0  0  0  0  0  0
    3.7487    2.0236    3.2433 H   0  0  0  0  0  0  0  0  0  0  0  0
   -0.0773    0.0491   -0.0726 H   0  0  0  0  0  0  0  0  0  0  0  0
   -0.3557    0.6077   -3.7608 H   0  0  0  0  0  0  0  0  0  0  0  0
   -1.7082   -0.8238   -5.1952 H   0  0  0  0  0  0  0  0  0  0  0  0
   -3.0462   -2.6810   -4.2381 H   0  0  0  0  0  0  0  0  0  0  0  0
   -3.0494   -3.0650   -1.7951 H   0  0  0  0  0  0  0  0  0  0  0  0
   -4.2753   -0.5310   -0.4825 H   0  0  0  0  0  0  0  0  0  0  0  0
   -4.7144   -2.2626   -0.3718 H   0  0  0  0  0  0  0  0  0  0  0  0
   -6.2604   -1.3382    1.2265 H   0  0  0  0  0  0  0  0  0  0  0  0
   -5.1011   -0.0872    1.7191 H   0  0  0  0  0  0  0  0  0  0  0  0
   -4.8399   -1.7516    3.4826 H   0  0  0  0  0  0  0  0  0  0  0  0
   -4.9273   -3.0769    2.3032 H   0  0  0  0  0  0  0  0  0  0  0  0
   -2.5337   -2.8192    2.4691 H   0  0  0  0  0  0  0  0  0  0  0  0
   -2.6650   -1.0510    2.6501 H   0  0  0  0  0  0  0  0  0  0  0  0
  1  2  2  0
  2  3  1  0
  3  4  1  0
  4  5  1  0
  5  6  1  0
  6  7  2  0
  7  8  1  0
  8  9  2  0
  9 10  1  0
 10 11  2  0
  2 12  1  0
 12 13  1  0
 13 14  2  0
 14 15  1  0
 15 16  2  0
 16 17  1  0
 17 18  2  0
 18 19  1  0
 19 20  2  0
 19 21  1  0
 21 22  1  0
 22 23  1  0
 23 24  1  0
 24 25  1  0
 11  6  1  0
 18 13  1  0
 25 21  1  0
  3 26  1  0
  3 27  1  0
  4 28  1  0
  4 29  1  0
  7 30  1  0
  8 31  1  0
  9 32  1  0
 10 33  1  0
 11 34  1  0
 12 35  1  0
 14 36  1  0
 15 37  1  0
 16 38  1  0
 17 39  1  0
 22 40  1  0
 22 41  1  0
 23 42  1  0
 23 43  1  0
 24 44  1  0
 24 45  1  0
 25 46  1  0
 25 47  1  0
M  END
$$$$
