
     RDKit          3D

 50 51  0  0  0  0  0  0  0  0999 V2000
    5.2426   -0.7953   -1.8611 C   0  0  0  0  0  0  0  0  0  0  0  0
    4.7310   -0.0941   -0.6368 C   0  0  0  0  0  0  0  0  0  0  0  0
    5.0672    1.2433   -0.3971 C   0  0  0  0  0  0  0  0  0  0  0  0
    4.6184    1.8905    0.7568 C   0  0  0  0  0  0  0  0  0  0  0  0
    3.8305    1.2055    1.6883 C   0  0  0  0  0  0  0  0  0  0  0  0
    3.3558    1.8814    2.8952 C   0  0  0  0  0  0  0  0  0  0  0  0
    4.0971    1.9561    4.0078 C   0  0  0  0  0  0  0  0  0  0  0  0
    3.2682    2.7890    5.2790 S   0  0  0  0  0  0  0  0  0  0  0  0
    1.8340    3.0230    4.2578 C   0  0  0  0  0  0  0  0  0  0  0  0
    0.4453    3.7692    4.7957 S   0  0  0  0  0  0  0  0  0  0  0  0
    2.1062    2.4852    2.9968 N   0  0  0  0  0  0  0  0  0  0  0  0
    1.1325    2.4638    1.8975 C   0  0  0  0  0  0  0  0  0  0  0  0
    0.2504    1.2217    1.9424 C   0  0  0  0  0  0  0  0  0  0  0  0
    0.3585    0.2855    2.7247 O   0  0  0  0  0  0  0  0  0  0  0  0
   -0.6870    1.2950    0.9569 O   0  0  0  0  0  0  0  0  0  0  0  0
   -1.5687    0.1756    0.9175 C   0  0  0  0  0  0  0  0  0  0  0  0
   -2.5564    0.2907   -0.2428 C   0  0  0  0  0  0  0  0  0  0  0  0
   -2.5535    1.2178   -1.0466 O   0  0  0  0  0  0  0  0  0  0  0  0
   -3.4583   -0.7584   -0.2987 N   0  0  0  0  0  0  0  0  0  0  0  0
   -4.4093   -0.8995   -1.3996 C   0  0  0  0  0  0  0  0  0  0  0  0
   -5.6376   -1.6650   -0.9082 C   0  0  0  0  0  0  0  0  0  0  0  0
   -3.7243   -1.5220   -2.6451 C   0  0  0  0  0  0  0  0  0  0  0  0
   -4.6138   -1.4232   -3.8882 C   0  0  0  0  0  0  0  0  0  0  0  0
   -3.2839   -2.9740   -2.4352 C   0  0  0  0  0  0  0  0  0  0  0  0
    3.5129   -0.1379    1.4622 C   0  0  0  0  0  0  0  0  0  0  0  0
    3.9618   -0.7835    0.3082 C   0  0  0  0  0  0  0  0  0  0  0  0
    6.2487   -1.1851   -1.6766 H   0  0  0  0  0  0  0  0  0  0  0  0
    5.2760   -0.1107   -2.7150 H   0  0  0  0  0  0  0  0  0  0  0  0
    4.5879   -1.6282   -2.1386 H   0  0  0  0  0  0  0  0  0  0  0  0
    5.6826    1.7899   -1.1089 H   0  0  0  0  0  0  0  0  0  0  0  0
    4.8866    2.9318    0.9213 H   0  0  0  0  0  0  0  0  0  0  0  0
    5.0903    1.5459    4.1337 H   0  0  0  0  0  0  0  0  0  0  0  0
    0.4878    3.3455    1.9665 H   0  0  0  0  0  0  0  0  0  0  0  0
    1.6520    2.5042    0.9352 H   0  0  0  0  0  0  0  0  0  0  0  0
   -2.1421    0.1261    1.8504 H   0  0  0  0  0  0  0  0  0  0  0  0
   -0.9920   -0.7465    0.7739 H   0  0  0  0  0  0  0  0  0  0  0  0
   -3.2906   -1.5684    0.2860 H   0  0  0  0  0  0  0  0  0  0  0  0
   -4.7361    0.1139   -1.6678 H   0  0  0  0  0  0  0  0  0  0  0  0
   -6.3937   -1.7631   -1.6923 H   0  0  0  0  0  0  0  0  0  0  0  0
   -5.3772   -2.6661   -0.5494 H   0  0  0  0  0  0  0  0  0  0  0  0
   -6.1020   -1.1360   -0.0676 H   0  0  0  0  0  0  0  0  0  0  0  0
   -2.8172   -0.9397   -2.8572 H   0  0  0  0  0  0  0  0  0  0  0  0
   -4.9384   -0.3906   -4.0540 H   0  0  0  0  0  0  0  0  0  0  0  0
   -5.5043   -2.0537   -3.8034 H   0  0  0  0  0  0  0  0  0  0  0  0
   -4.0640   -1.7456   -4.7792 H   0  0  0  0  0  0  0  0  0  0  0  0
   -2.7215   -3.3319   -3.3053 H   0  0  0  0  0  0  0  0  0  0  0  0
   -2.6317   -3.0700   -1.5614 H   0  0  0  0  0  0  0  0  0  0  0  0
   -4.1397   -3.6428   -2.3002 H   0  0  0  0  0  0  0  0  0  0  0  0
    2.9124   -0.6903    2.1837 H   0  0  0  0  0  0  0  0  0  0  0  0
    3.7064   -1.8291    0.1522 H   0  0  0  0  0  0  0  0  0  0  0  0
  1  2  1  0
  2  3  2  0
  3  4  1  0
  4  5  2  0
  5  6  1  0
  6  7  2  0
  7  8  1  0
  8  9  1  0
  9 10  2  0
  9 11  1  0
 11 12  1  0
 12 13  1  0
 13 14  2  0
 13 15  1  0
 15 16  1  0
 16 17  1  0
 17 18  2  0
 17 19  1  0
 19 20  1  0
 20 21  1  0
 20 22  1  0
 22 23  1  0
 22 24  1  0
  5 25  1  0
 25 26  2  0
 26  2  1  0
 11  6  1  0
  1 27  1  0
  1 28  1  0
  1 29  1  0
  3 30  1  0
  4 31  1  0
  7 32  1  0
 12 33  1  0
 12 34  1  0
 16 35  1  0
 16 36  1  0
 19 37  1  0
 20 38  1  0
 21 39  1  0
 21 40  1  0
 21 41  1  0
 22 42  1  0
 23 43  1  0
 23 44  1  0
 23 45  1  0
 24 46  1  0
 24 47  1  0
 24 48  1  0
 25 49  1  0
 26 50  1  0
M  END
$$$$
