
     RDKit          3D

 69 71  0  0  0  0  0  0  0  0999 V2000
    9.2282    0.2679    0.0913 C   0  0  0  0  0  0  0  0  0  0  0  0
    8.5565   -0.5959    1.1475 C   0  0  0  0  0  0  0  0  0  0  0  0
    7.3167   -1.3325    0.6359 C   0  0  0  0  0  0  0  0  0  0  0  0
    6.1622   -0.3954    0.2706 C   0  0  0  0  0  0  0  0  0  0  0  0
    4.9185   -1.1874   -0.1422 C   0  0  0  0  0  0  0  0  0  0  0  0
    3.6927   -0.3052   -0.3999 C   0  0  0  0  0  0  0  0  0  0  0  0
    3.8676    0.6442   -1.5882 C   0  0  0  0  0  0  0  0  0  0  0  0
    2.5660    1.3404   -2.0002 C   0  0  0  0  0  0  0  0  0  0  0  0
    2.0241    2.2963   -0.9322 C   0  0  0  0  0  0  0  0  0  0  0  0
    0.7847    3.0506   -1.4134 C   0  0  0  0  0  0  0  0  0  0  0  0
   -0.2661    2.1345   -1.7726 O   0  0  0  0  0  0  0  0  0  0  0  0
   -1.0468    1.6864   -0.7547 C   0  0  0  0  0  0  0  0  0  0  0  0
   -0.9737    2.0389    0.4165 O   0  0  0  0  0  0  0  0  0  0  0  0
   -2.0795    0.6964   -1.2769 C   0  0  0  0  0  0  0  0  0  0  0  0
   -2.6071   -0.1635   -0.1886 N   0  0  0  0  0  0  0  0  0  0  0  0
   -3.3473    0.2777    0.8627 C   0  0  0  0  0  0  0  0  0  0  0  0
   -3.9379    1.6691    1.0552 C   0  0  0  0  0  0  0  0  0  0  0  0
   -5.2562    1.6548    1.6002 O   0  0  0  0  0  0  0  0  0  0  0  0
   -6.2914    1.2347    0.8151 C   0  0  0  0  0  0  0  0  0  0  0  0
   -6.2223    0.8839   -0.5334 C   0  0  0  0  0  0  0  0  0  0  0  0
   -7.3721    0.4491   -1.2044 C   0  0  0  0  0  0  0  0  0  0  0  0
   -8.5891    0.3702   -0.5301 C   0  0  0  0  0  0  0  0  0  0  0  0
   -9.9927   -0.1704   -1.3609 Cl  0  0  0  0  0  0  0  0  0  0  0  0
   -8.6693    0.7279    0.8112 C   0  0  0  0  0  0  0  0  0  0  0  0
   -7.5212    1.1607    1.4790 C   0  0  0  0  0  0  0  0  0  0  0  0
   -3.4705   -0.7628    1.7210 N   0  0  0  0  0  4  0  0  0  0  0  0
   -4.1289   -0.6878    3.0257 C   0  0  0  0  0  0  0  0  0  0  0  0
   -2.9108   -1.9088    1.1737 C   0  0  0  0  0  0  0  0  0  0  0  0
   -2.8482   -3.2187    1.6440 C   0  0  0  0  0  0  0  0  0  0  0  0
   -2.1779   -4.1376    0.8274 C   0  0  0  0  0  0  0  0  0  0  0  0
   -1.6001   -3.7527   -0.3959 C   0  0  0  0  0  0  0  0  0  0  0  0
   -1.6689   -2.4324   -0.8609 C   0  0  0  0  0  0  0  0  0  0  0  0
   -2.3448   -1.5255   -0.0449 C   0  0  0  0  0  0  0  0  0  0  0  0
    8.5889    1.1021   -0.2116 H   0  0  0  0  0  0  0  0  0  0  0  0
    9.4758   -0.3200   -0.7982 H   0  0  0  0  0  0  0  0  0  0  0  0
   10.1577    0.6897    0.4875 H   0  0  0  0  0  0  0  0  0  0  0  0
    8.2926    0.0235    2.0125 H   0  0  0  0  0  0  0  0  0  0  0  0
    9.2810   -1.3394    1.5002 H   0  0  0  0  0  0  0  0  0  0  0  0
    6.9825   -2.0236    1.4196 H   0  0  0  0  0  0  0  0  0  0  0  0
    7.5853   -1.9459   -0.2326 H   0  0  0  0  0  0  0  0  0  0  0  0
    6.4679    0.2597   -0.5512 H   0  0  0  0  0  0  0  0  0  0  0  0
    5.9230    0.2435    1.1288 H   0  0  0  0  0  0  0  0  0  0  0  0
    5.1385   -1.7817   -1.0375 H   0  0  0  0  0  0  0  0  0  0  0  0
    4.6641   -1.8985    0.6536 H   0  0  0  0  0  0  0  0  0  0  0  0
    3.4653    0.2652    0.5079 H   0  0  0  0  0  0  0  0  0  0  0  0
    2.8336   -0.9615   -0.5868 H   0  0  0  0  0  0  0  0  0  0  0  0
    4.6234    1.4037   -1.3579 H   0  0  0  0  0  0  0  0  0  0  0  0
    4.2385    0.0764   -2.4505 H   0  0  0  0  0  0  0  0  0  0  0  0
    2.7558    1.9054   -2.9212 H   0  0  0  0  0  0  0  0  0  0  0  0
    1.8127    0.5820   -2.2453 H   0  0  0  0  0  0  0  0  0  0  0  0
    2.7983    3.0210   -0.6553 H   0  0  0  0  0  0  0  0  0  0  0  0
    1.7685    1.7264   -0.0325 H   0  0  0  0  0  0  0  0  0  0  0  0
    1.0214    3.6340   -2.3097 H   0  0  0  0  0  0  0  0  0  0  0  0
    0.4367    3.7606   -0.6537 H   0  0  0  0  0  0  0  0  0  0  0  0
   -1.6178    0.0681   -2.0431 H   0  0  0  0  0  0  0  0  0  0  0  0
   -2.9117    1.2436   -1.7274 H   0  0  0  0  0  0  0  0  0  0  0  0
   -3.8889    2.2229    0.1152 H   0  0  0  0  0  0  0  0  0  0  0  0
   -3.2766    2.1498    1.7824 H   0  0  0  0  0  0  0  0  0  0  0  0
   -5.3070    0.9399   -1.1080 H   0  0  0  0  0  0  0  0  0  0  0  0
   -7.3169    0.1777   -2.2565 H   0  0  0  0  0  0  0  0  0  0  0  0
   -9.6180    0.6773    1.3405 H   0  0  0  0  0  0  0  0  0  0  0  0
   -7.5941    1.4458    2.5269 H   0  0  0  0  0  0  0  0  0  0  0  0
   -5.1971   -0.8785    2.8959 H   0  0  0  0  0  0  0  0  0  0  0  0
   -3.7059   -1.4319    3.7057 H   0  0  0  0  0  0  0  0  0  0  0  0
   -3.9697    0.2979    3.4691 H   0  0  0  0  0  0  0  0  0  0  0  0
   -3.2925   -3.5133    2.5865 H   0  0  0  0  0  0  0  0  0  0  0  0
   -2.1003   -5.1773    1.1470 H   0  0  0  0  0  0  0  0  0  0  0  0
   -1.0869   -4.5046   -0.9969 H   0  0  0  0  0  0  0  0  0  0  0  0
   -1.2227   -2.1471   -1.8052 H   0  0  0  0  0  0  0  0  0  0  0  0
  1  2  1  0
  2  3  1  0
  3  4  1  0
  4  5  1  0
  5  6  1  0
  6  7  1  0
  7  8  1  0
  8  9  1  0
  9 10  1  0
 10 11  1  0
 11 12  1  0
 12 13  2  0
 12 14  1  0
 14 15  1  0
 15 16  1  0
 16 17  1  0
 17 18  1  0
 18 19  1  0
 19 20  2  0
 20 21  1  0
 21 22  2  0
 22 23  1  0
 22 24  1  0
 24 25  2  0
 16 26  2  0
 26 27  1  0
 26 28  1  0
 28 29  2  0
 29 30  1  0
 30 31  2  0
 31 32  1  0
 32 33  2  0
 33 15  1  0
 25 19  1  0
 33 28  1  0
  1 34  1  0
  1 35  1  0
  1 36  1  0
  2 37  1  0
  2 38  1  0
  3 39  1  0
  3 40  1  0
  4 41  1  0
  4 42  1  0
  5 43  1  0
  5 44  1  0
  6 45  1  0
  6 46  1  0
  7 47  1  0
  7 48  1  0
  8 49  1  0
  8 50  1  0
  9 51  1  0
  9 52  1  0
 10 53  1  0
 10 54  1  0
 14 55  1  0
 14 56  1  0
 17 57  1  0
 17 58  1  0
 20 59  1  0
 21 60  1  0
 24 61  1  0
 25 62  1  0
 27 63  1  0
 27 64  1  0
 27 65  1  0
 29 66  1  0
 30 67  1  0
 31 68  1  0
 32 69  1  0
M  CHG  1  26   1
M  END
$$$$
