
     RDKit          3D

 45 48  0  0  0  0  0  0  0  0999 V2000
    3.5312    0.0385   -3.1214 O   0  0  0  0  0  0  0  0  0  0  0  0
    3.1975    0.3140   -1.9748 C   0  0  0  0  0  0  0  0  0  0  0  0
    2.1845   -0.2812   -1.2458 N   0  0  0  0  0  0  0  0  0  0  0  0
    1.3520   -1.3719   -1.6180 C   0  0  0  0  0  0  0  0  0  0  0  0
    1.5151   -2.0436   -2.8374 C   0  0  0  0  0  0  0  0  0  0  0  0
    0.6873   -3.1121   -3.1914 C   0  0  0  0  0  0  0  0  0  0  0  0
   -0.3173   -3.5318   -2.3306 C   0  0  0  0  0  0  0  0  0  0  0  0
   -0.4942   -2.8826   -1.1100 C   0  0  0  0  0  0  0  0  0  0  0  0
    0.3288   -1.8012   -0.7324 C   0  0  0  0  0  0  0  0  0  0  0  0
    0.1164   -1.1526    0.5614 C   0  0  0  0  0  0  0  0  0  0  0  0
    0.8258   -0.2174    1.1630 N   0  0  0  0  0  0  0  0  0  0  0  0
    0.1878    0.0521    2.3540 N   0  0  0  0  0  0  0  0  0  0  0  0
   -0.8773   -0.7220    2.3980 C   0  0  0  0  0  0  0  0  0  0  0  0
   -2.0026   -0.7387    3.7178 S   0  0  0  0  0  0  0  0  0  0  0  0
   -3.4923   -1.3759    2.9052 C   0  0  0  0  0  0  0  0  0  0  0  0
   -4.1205   -0.3915    1.9470 C   0  0  0  0  0  0  0  0  0  0  0  0
   -4.0807   -0.6177    0.5624 C   0  0  0  0  0  0  0  0  0  0  0  0
   -4.6553    0.2970   -0.3236 C   0  0  0  0  0  0  0  0  0  0  0  0
   -5.2771    1.4418    0.1687 C   0  0  0  0  0  0  0  0  0  0  0  0
   -5.9861    2.5663   -0.9231 Cl  0  0  0  0  0  0  0  0  0  0  0  0
   -5.3300    1.6800    1.5397 C   0  0  0  0  0  0  0  0  0  0  0  0
   -4.7548    0.7662    2.4260 C   0  0  0  0  0  0  0  0  0  0  0  0
   -0.9780   -1.5294    1.2952 O   0  0  0  0  0  0  0  0  0  0  0  0
    3.9134    1.4256   -1.2783 C   0  0  0  0  0  0  0  0  0  0  0  0
    4.4483    2.4606   -2.0576 C   0  0  0  0  0  0  0  0  0  0  0  0
    5.1249    3.5212   -1.4524 C   0  0  0  0  0  0  0  0  0  0  0  0
    5.2783    3.5494   -0.0672 C   0  0  0  0  0  0  0  0  0  0  0  0
    4.7639    2.5149    0.7140 C   0  0  0  0  0  0  0  0  0  0  0  0
    4.0868    1.4507    0.1127 C   0  0  0  0  0  0  0  0  0  0  0  0
    1.9653    0.1458   -0.3490 H   0  0  0  0  0  0  0  0  0  0  0  0
    2.2877   -1.7601   -3.5458 H   0  0  0  0  0  0  0  0  0  0  0  0
    0.8365   -3.6138   -4.1449 H   0  0  0  0  0  0  0  0  0  0  0  0
   -0.9581   -4.3654   -2.6070 H   0  0  0  0  0  0  0  0  0  0  0  0
   -1.2826   -3.2388   -0.4502 H   0  0  0  0  0  0  0  0  0  0  0  0
   -4.2256   -1.6177    3.6835 H   0  0  0  0  0  0  0  0  0  0  0  0
   -3.2655   -2.3235    2.4032 H   0  0  0  0  0  0  0  0  0  0  0  0
   -3.6005   -1.5068    0.1594 H   0  0  0  0  0  0  0  0  0  0  0  0
   -4.6139    0.1116   -1.3938 H   0  0  0  0  0  0  0  0  0  0  0  0
   -5.8138    2.5737    1.9248 H   0  0  0  0  0  0  0  0  0  0  0  0
   -4.8006    0.9676    3.4950 H   0  0  0  0  0  0  0  0  0  0  0  0
    4.3358    2.4431   -3.1400 H   0  0  0  0  0  0  0  0  0  0  0  0
    5.5333    4.3227   -2.0628 H   0  0  0  0  0  0  0  0  0  0  0  0
    5.8062    4.3750    0.4039 H   0  0  0  0  0  0  0  0  0  0  0  0
    4.8956    2.5331    1.7934 H   0  0  0  0  0  0  0  0  0  0  0  0
    3.7247    0.6447    0.7455 H   0  0  0  0  0  0  0  0  0  0  0  0
  1  2  2  0
  2  3  1  0
  3  4  1  0
  4  5  2  0
  5  6  1  0
  6  7  2  0
  7  8  1  0
  8  9  2  0
  9 10  1  0
 10 11  2  0
 11 12  1  0
 12 13  2  0
 13 14  1  0
 14 15  1  0
 15 16  1  0
 16 17  2  0
 17 18  1  0
 18 19  2  0
 19 20  1  0
 19 21  1  0
 21 22  2  0
 13 23  1  0
  2 24  1  0
 24 25  2  0
 25 26  1  0
 26 27  2  0
 27 28  1  0
 28 29  2  0
  9  4  1  0
 23 10  1  0
 29 24  1  0
 22 16  1  0
  3 30  1  0
  5 31  1  0
  6 32  1  0
  7 33  1  0
  8 34  1  0
 15 35  1  0
 15 36  1  0
 17 37  1  0
 18 38  1  0
 21 39  1  0
 22 40  1  0
 25 41  1  0
 26 42  1  0
 27 43  1  0
 28 44  1  0
 29 45  1  0
M  END
$$$$
