
     RDKit          3D

 46 48  0  0  0  0  0  0  0  0999 V2000
    5.1783    3.6090    3.9165 C   0  0  0  0  0  0  0  0  0  0  0  0
    4.4547    2.3248    3.6478 C   0  0  0  0  0  0  0  0  0  0  0  0
    3.5247    1.9014    4.3184 O   0  0  0  0  0  0  0  0  0  0  0  0
    4.9774    1.7188    2.5469 O   0  0  0  0  0  0  0  0  0  0  0  0
    4.3890    0.4574    2.1898 C   0  0  0  0  0  0  0  0  0  0  0  0
    3.1614    0.6797    1.3130 C   0  0  0  0  0  0  0  0  0  0  0  0
    2.5823   -0.6480    0.8293 C   0  0  0  0  0  0  0  0  0  0  0  0
    1.3897   -0.4001    0.0224 N   0  0  0  0  0  0  0  0  0  0  0  0
    0.6791   -1.3897   -0.6673 C   0  0  0  0  0  0  0  0  0  0  0  0
   -0.2795   -0.8916   -1.6130 C   0  0  0  0  0  0  0  0  0  0  0  0
   -1.1625   -1.6838   -2.3903 C   0  0  0  0  0  0  0  0  0  0  0  0
   -2.3036   -1.0288   -3.5635 S   0  0  0  0  0  0  0  0  0  0  0  0
   -3.3543   -0.0454   -2.5112 C   0  0  0  0  0  0  0  0  0  0  0  0
   -4.1280   -0.6367   -1.5077 C   0  0  0  0  0  0  0  0  0  0  0  0
   -4.9446    0.1496   -0.6900 C   0  0  0  0  0  0  0  0  0  0  0  0
   -5.0013    1.5364   -0.8683 C   0  0  0  0  0  0  0  0  0  0  0  0
   -5.8917    2.3879   -0.0115 C   0  0  0  0  0  0  0  0  0  0  0  0
   -4.2402    2.1234   -1.8862 C   0  0  0  0  0  0  0  0  0  0  0  0
   -3.4224    1.3372   -2.7029 C   0  0  0  0  0  0  0  0  0  0  0  0
   -1.0672   -3.0740   -2.1707 C   0  0  0  0  0  0  0  0  0  0  0  0
   -1.7381   -4.0933   -2.7254 N   0  0  0  0  0  0  0  0  0  0  0  0
   -1.2544   -5.2425   -2.1339 O   0  0  0  0  0  0  0  0  0  0  0  0
   -0.2755   -4.9607   -1.2015 N   0  0  0  0  0  0  0  0  0  0  0  0
   -0.1347   -3.6272   -1.1983 C   0  0  0  0  0  0  0  0  0  0  0  0
    0.7119   -2.7847   -0.4501 C   0  0  0  0  0  0  0  0  0  0  0  0
    1.5549   -3.4517    0.4873 N   0  0  0  0  0  4  0  0  0  0  0  0
    2.7038   -3.7263    0.1130 O   0  0  0  0  0  0  0  0  0  0  0  0
    1.0820   -3.6867    1.6072 O   0  0  0  0  0  1  0  0  0  0  0  0
    4.8019    4.0498    4.8457 H   0  0  0  0  0  0  0  0  0  0  0  0
    5.0014    4.3104    3.0971 H   0  0  0  0  0  0  0  0  0  0  0  0
    6.2470    3.4150    4.0356 H   0  0  0  0  0  0  0  0  0  0  0  0
    4.1511   -0.1321    3.0833 H   0  0  0  0  0  0  0  0  0  0  0  0
    5.1522   -0.0989    1.6348 H   0  0  0  0  0  0  0  0  0  0  0  0
    3.4322    1.3138    0.4587 H   0  0  0  0  0  0  0  0  0  0  0  0
    2.4014    1.2447    1.8671 H   0  0  0  0  0  0  0  0  0  0  0  0
    2.3267   -1.2536    1.7037 H   0  0  0  0  0  0  0  0  0  0  0  0
    3.3382   -1.1670    0.2296 H   0  0  0  0  0  0  0  0  0  0  0  0
    1.4416    0.4828   -0.4867 H   0  0  0  0  0  0  0  0  0  0  0  0
   -0.3456    0.1910   -1.7494 H   0  0  0  0  0  0  0  0  0  0  0  0
   -4.1115   -1.7142   -1.3564 H   0  0  0  0  0  0  0  0  0  0  0  0
   -5.5399   -0.3307    0.0831 H   0  0  0  0  0  0  0  0  0  0  0  0
   -6.7398    2.7544   -0.6004 H   0  0  0  0  0  0  0  0  0  0  0  0
   -6.2840    1.8250    0.8425 H   0  0  0  0  0  0  0  0  0  0  0  0
   -5.3318    3.2419    0.3853 H   0  0  0  0  0  0  0  0  0  0  0  0
   -4.2868    3.1978   -2.0561 H   0  0  0  0  0  0  0  0  0  0  0  0
   -2.8454    1.8154   -3.4911 H   0  0  0  0  0  0  0  0  0  0  0  0
  1  2  1  0
  2  3  2  0
  2  4  1  0
  4  5  1  0
  5  6  1  0
  6  7  1  0
  7  8  1  0
  8  9  1  0
  9 10  1  0
 10 11  2  0
 11 12  1  0
 12 13  1  0
 13 14  2  0
 14 15  1  0
 15 16  2  0
 16 17  1  0
 16 18  1  0
 18 19  2  0
 11 20  1  0
 20 21  2  0
 21 22  1  0
 22 23  1  0
 23 24  2  0
 24 25  1  0
 25 26  1  0
 26 27  2  0
 26 28  1  0
 25  9  2  0
 19 13  1  0
 24 20  1  0
  1 29  1  0
  1 30  1  0
  1 31  1  0
  5 32  1  0
  5 33  1  0
  6 34  1  0
  6 35  1  0
  7 36  1  0
  7 37  1  0
  8 38  1  0
 10 39  1  0
 14 40  1  0
 15 41  1  0
 17 42  1  0
 17 43  1  0
 17 44  1  0
 18 45  1  0
 19 46  1  0
M  CHG  2  26   1  28  -1
M  END
$$$$
