
     RDKit          3D

 47 50  0  0  0  0  0  0  0  0999 V2000
   -7.3598   -0.3862   -0.1142 C   0  0  0  0  0  0  0  0  0  0  0  0
   -5.9713    0.2493   -0.1413 C   0  0  0  0  0  0  0  0  0  0  0  0
   -5.4199    0.3093   -1.5796 C   0  0  0  0  0  0  0  0  0  0  0  0
   -4.0754    1.0523   -1.6319 C   0  0  0  0  0  0  0  0  0  0  0  0
   -3.1213    0.5788   -0.5705 C   0  0  0  0  0  0  0  0  0  0  0  0
   -3.5832   -0.1309    0.5226 C   0  0  0  0  0  0  0  0  0  0  0  0
   -2.3373   -0.6155    1.5621 S   0  0  0  0  0  0  0  0  0  0  0  0
   -1.1471    0.0817    0.5772 C   0  0  0  0  0  0  0  0  0  0  0  0
    0.2001   -0.0399    0.8804 N   0  0  0  0  0  0  0  0  0  0  0  0
    0.7866   -0.6978    1.9456 C   0  0  0  0  0  0  0  0  0  0  0  0
    0.2054   -1.2441    2.8761 O   0  0  0  0  0  0  0  0  0  0  0  0
    2.2392   -0.6833    1.8673 C   0  0  0  0  0  0  0  0  0  0  0  0
    3.1974   -1.2548    2.6824 C   0  0  0  0  0  0  0  0  0  0  0  0
    4.4566   -0.9401    2.1166 C   0  0  0  0  0  0  0  0  0  0  0  0
    4.2043   -0.1843    0.9890 C   0  0  0  0  0  0  0  0  0  0  0  0
    5.0549    0.4717   -0.0383 C   0  0  0  0  0  0  0  0  0  0  0  0
    6.2434   -0.3172   -0.3429 N   0  0  0  0  0  0  0  0  0  0  0  0
    7.4728   -0.2090    0.2573 C   0  0  0  0  0  0  0  0  0  0  0  0
    8.2634   -1.1364   -0.3686 C   0  0  0  0  0  0  0  0  0  0  0  0
   10.0528   -1.5436   -0.0326 Br  0  0  0  0  0  0  0  0  0  0  0  0
    7.4558   -1.7398   -1.3412 C   0  0  0  0  0  0  0  0  0  0  0  0
    6.2168   -1.2332   -1.3412 N   0  0  0  0  0  0  0  0  0  0  0  0
    2.8567   -0.0119    0.8447 O   0  0  0  0  0  0  0  0  0  0  0  0
   -1.6803    0.7556   -0.5182 C   0  0  0  0  0  0  0  0  0  0  0  0
   -0.8149    1.4830   -1.4500 C   0  0  0  0  0  0  0  0  0  0  0  0
   -1.3927    2.4836   -2.1761 N   0  0  0  0  0  0  0  0  0  0  0  0
    0.3935    1.2798   -1.5447 O   0  0  0  0  0  0  0  0  0  0  0  0
   -5.0069   -0.5230    0.7836 C   0  0  0  0  0  0  0  0  0  0  0  0
   -7.3358   -1.4107   -0.5014 H   0  0  0  0  0  0  0  0  0  0  0  0
   -7.7505   -0.4186    0.9085 H   0  0  0  0  0  0  0  0  0  0  0  0
   -8.0631    0.1899   -0.7247 H   0  0  0  0  0  0  0  0  0  0  0  0
   -6.0649    1.2791    0.2327 H   0  0  0  0  0  0  0  0  0  0  0  0
   -6.1334    0.8127   -2.2427 H   0  0  0  0  0  0  0  0  0  0  0  0
   -5.2906   -0.7112   -1.9649 H   0  0  0  0  0  0  0  0  0  0  0  0
   -4.2606    2.1236   -1.4844 H   0  0  0  0  0  0  0  0  0  0  0  0
   -3.6373    0.9228   -2.6281 H   0  0  0  0  0  0  0  0  0  0  0  0
    0.8429    0.3541    0.1918 H   0  0  0  0  0  0  0  0  0  0  0  0
    2.9943   -1.8383    3.5720 H   0  0  0  0  0  0  0  0  0  0  0  0
    5.4281   -1.2390    2.4861 H   0  0  0  0  0  0  0  0  0  0  0  0
    5.3931    1.4513    0.3156 H   0  0  0  0  0  0  0  0  0  0  0  0
    4.5096    0.6172   -0.9772 H   0  0  0  0  0  0  0  0  0  0  0  0
    7.6631    0.4908    1.0602 H   0  0  0  0  0  0  0  0  0  0  0  0
    7.7031   -2.5208   -2.0484 H   0  0  0  0  0  0  0  0  0  0  0  0
   -0.7498    3.0751   -2.6859 H   0  0  0  0  0  0  0  0  0  0  0  0
   -2.2562    2.9024   -1.8669 H   0  0  0  0  0  0  0  0  0  0  0  0
   -5.2741   -0.3314    1.8299 H   0  0  0  0  0  0  0  0  0  0  0  0
   -5.1072   -1.6031    0.6118 H   0  0  0  0  0  0  0  0  0  0  0  0
  1  2  1  0
  2  3  1  0
  3  4  1  0
  4  5  1  0
  5  6  2  0
  6  7  1  0
  7  8  1  0
  8  9  1  0
  9 10  1  0
 10 11  2  0
 10 12  1  0
 12 13  2  0
 13 14  1  0
 14 15  2  0
 15 16  1  0
 16 17  1  0
 17 18  1  0
 18 19  2  0
 19 20  1  0
 19 21  1  0
 21 22  2  0
 15 23  1  0
  8 24  2  0
 24 25  1  0
 25 26  1  0
 25 27  2  0
  6 28  1  0
 28  2  1  0
 24  5  1  0
 23 12  1  0
 22 17  1  0
  1 29  1  0
  1 30  1  0
  1 31  1  0
  2 32  1  0
  3 33  1  0
  3 34  1  0
  4 35  1  0
  4 36  1  0
  9 37  1  0
 13 38  1  0
 14 39  1  0
 16 40  1  0
 16 41  1  0
 18 42  1  0
 21 43  1  0
 26 44  1  0
 26 45  1  0
 28 46  1  0
 28 47  1  0
M  END
$$$$
