
     RDKit          3D

 32 34  0  0  0  0  0  0  0  0999 V2000
    3.2561    0.6639   -2.3424 O   0  0  0  0  0  0  0  0  0  0  0  0
    3.9154    0.4458   -1.1644 C   0  0  0  0  0  0  0  0  0  0  0  0
    5.3095    0.5180   -1.1013 C   0  0  0  0  0  0  0  0  0  0  0  0
    6.3288    0.9368   -2.6454 Br  0  0  0  0  0  0  0  0  0  0  0  0
    5.9788    0.2899    0.1040 C   0  0  0  0  0  0  0  0  0  0  0  0
    5.2387   -0.0152    1.2464 C   0  0  0  0  0  0  0  0  0  0  0  0
    6.1362   -0.3037    2.8800 Br  0  0  0  0  0  0  0  0  0  0  0  0
    3.8478   -0.0964    1.1978 C   0  0  0  0  0  0  0  0  0  0  0  0
    3.1863    0.1337   -0.0120 C   0  0  0  0  0  0  0  0  0  0  0  0
    1.7086    0.0860   -0.0572 C   0  0  0  0  0  0  0  0  0  0  0  0
    1.0323   -0.4550    0.9068 N   0  0  0  0  0  0  0  0  0  0  0  0
   -0.3163   -0.4152    0.7452 C   0  0  0  0  0  0  0  0  0  0  0  0
   -1.0436    0.5802    0.2625 N   0  0  0  0  0  0  0  0  0  0  0  0
   -2.3771    0.2402    0.2839 C   0  0  0  0  0  0  0  0  0  0  0  0
   -2.6658   -1.0085    0.7973 C   0  0  0  0  0  0  0  0  0  0  0  0
   -1.2384   -1.7902    1.2680 S   0  0  0  0  0  0  0  0  0  0  0  0
   -4.0286   -1.6075    0.8992 C   0  0  0  0  0  0  0  0  0  0  0  0
   -5.1011   -0.5159    0.6913 C   0  0  0  0  0  0  0  0  0  0  0  0
   -4.7466    0.4364   -0.4683 C   0  0  0  0  0  0  0  0  0  0  0  0
   -3.4235    1.1800   -0.2038 C   0  0  0  0  0  0  0  0  0  0  0  0
    3.9152    0.8898   -3.0233 H   0  0  0  0  0  0  0  0  0  0  0  0
    7.0645    0.3501    0.1540 H   0  0  0  0  0  0  0  0  0  0  0  0
    3.2791   -0.3285    2.0969 H   0  0  0  0  0  0  0  0  0  0  0  0
    1.2227    0.5183   -0.9541 H   0  0  0  0  0  0  0  0  0  0  0  0
   -4.1784   -2.0950    1.8731 H   0  0  0  0  0  0  0  0  0  0  0  0
   -4.1369   -2.3777    0.1194 H   0  0  0  0  0  0  0  0  0  0  0  0
   -6.0730   -0.9847    0.5071 H   0  0  0  0  0  0  0  0  0  0  0  0
   -5.2074    0.0749    1.6115 H   0  0  0  0  0  0  0  0  0  0  0  0
   -4.6599   -0.1484   -1.3938 H   0  0  0  0  0  0  0  0  0  0  0  0
   -5.5496    1.1675   -0.6184 H   0  0  0  0  0  0  0  0  0  0  0  0
   -3.0908    1.6799   -1.1160 H   0  0  0  0  0  0  0  0  0  0  0  0
   -3.5829    1.9505    0.5595 H   0  0  0  0  0  0  0  0  0  0  0  0
  1  2  1  0
  2  3  2  0
  3  4  1  0
  3  5  1  0
  5  6  2  0
  6  7  1  0
  6  8  1  0
  8  9  2  0
  9 10  1  0
 10 11  2  3
 11 12  1  0
 12 13  2  0
 13 14  1  0
 14 15  2  0
 15 16  1  0
 15 17  1  0
 17 18  1  0
 18 19  1  0
 19 20  1  0
  9  2  1  0
 16 12  1  0
 20 14  1  0
  1 21  1  0
  5 22  1  0
  8 23  1  0
 10 24  1  0
 17 25  1  0
 17 26  1  0
 18 27  1  0
 18 28  1  0
 19 29  1  0
 19 30  1  0
 20 31  1  0
 20 32  1  0
M  END
$$$$
