
     RDKit          3D

 48 53  0  0  0  0  0  0  0  0999 V2000
    3.2117    1.2166   -1.0631 O   0  0  0  0  0  0  0  0  0  0  0  0
    3.3734    0.2559   -0.3166 C   0  0  0  0  0  0  0  0  0  0  0  0
    2.3866   -0.6396    0.0199 N   0  0  0  0  0  0  0  0  0  0  0  0
    1.0752   -0.2723   -0.0766 N   0  0  0  0  0  0  0  0  0  0  0  0
    0.4104    0.1209   -1.2230 C   0  0  0  0  0  0  0  0  0  0  0  0
    1.0092    0.4307   -2.3705 O   0  0  0  0  0  0  0  0  0  0  0  0
   -0.9226    0.1294   -0.8939 C   0  0  0  0  0  0  0  0  0  0  0  0
   -1.0540   -0.2532    0.4976 C   0  0  0  0  0  0  0  0  0  0  0  0
    0.2081   -0.5149    0.9739 C   0  0  0  0  0  0  0  0  0  0  0  0
    0.6569   -0.9418    2.1531 O   0  0  0  0  0  0  0  0  0  0  0  0
   -2.4733   -0.2853    1.0251 C   0  0  0  0  0  0  0  0  0  0  0  0
   -2.9407    1.1414    0.6943 C   0  0  0  0  0  0  0  0  0  0  0  0
   -3.4695    2.0334    1.6202 C   0  0  0  0  0  0  0  0  0  0  0  0
   -3.8569    3.3026    1.1832 C   0  0  0  0  0  0  0  0  0  0  0  0
   -3.7186    3.6779   -0.1626 C   0  0  0  0  0  0  0  0  0  0  0  0
   -3.1917    2.7923   -1.1055 C   0  0  0  0  0  0  0  0  0  0  0  0
   -2.8026    1.5252   -0.6873 C   0  0  0  0  0  0  0  0  0  0  0  0
   -2.2114    0.4466   -1.6142 C   0  0  0  0  0  0  0  0  0  0  0  0
   -3.0045   -0.8503   -1.3662 C   0  0  0  0  0  0  0  0  0  0  0  0
   -3.5680   -1.6303   -2.3692 C   0  0  0  0  0  0  0  0  0  0  0  0
   -4.2676   -2.7842   -2.0089 C   0  0  0  0  0  0  0  0  0  0  0  0
   -4.4051   -3.1550   -0.6616 C   0  0  0  0  0  0  0  0  0  0  0  0
   -3.8440   -2.3827    0.3584 C   0  0  0  0  0  0  0  0  0  0  0  0
   -3.1418   -1.2329    0.0158 C   0  0  0  0  0  0  0  0  0  0  0  0
    4.7210   -0.0080    0.2610 C   0  0  0  0  0  0  0  0  0  0  0  0
    5.5884    1.0777    0.4460 C   0  0  0  0  0  0  0  0  0  0  0  0
    6.8633    0.8774    0.9820 C   0  0  0  0  0  0  0  0  0  0  0  0
    7.2756   -0.4096    1.3228 C   0  0  0  0  0  0  0  0  0  0  0  0
    8.8456   -0.6589    1.9795 Cl  0  0  0  0  0  0  0  0  0  0  0  0
    6.4259   -1.4986    1.1289 C   0  0  0  0  0  0  0  0  0  0  0  0
    5.1485   -1.3012    0.5943 C   0  0  0  0  0  0  0  0  0  0  0  0
    2.5223   -1.2309    0.8315 H   0  0  0  0  0  0  0  0  0  0  0  0
    1.9273    0.7059   -2.1498 H   0  0  0  0  0  0  0  0  0  0  0  0
   -0.1173   -1.0235    2.7387 H   0  0  0  0  0  0  0  0  0  0  0  0
   -2.5684   -0.5766    2.0726 H   0  0  0  0  0  0  0  0  0  0  0  0
   -3.5828    1.7581    2.6637 H   0  0  0  0  0  0  0  0  0  0  0  0
   -4.2708    4.0133    1.8948 H   0  0  0  0  0  0  0  0  0  0  0  0
   -4.0250    4.6737   -0.4742 H   0  0  0  0  0  0  0  0  0  0  0  0
   -3.0864    3.0949   -2.1427 H   0  0  0  0  0  0  0  0  0  0  0  0
   -2.1021    0.7363   -2.6606 H   0  0  0  0  0  0  0  0  0  0  0  0
   -3.4660   -1.3546   -3.4145 H   0  0  0  0  0  0  0  0  0  0  0  0
   -4.7130   -3.4051   -2.7831 H   0  0  0  0  0  0  0  0  0  0  0  0
   -4.9573   -4.0579   -0.4108 H   0  0  0  0  0  0  0  0  0  0  0  0
   -3.9600   -2.6817    1.3951 H   0  0  0  0  0  0  0  0  0  0  0  0
    5.2723    2.0840    0.1750 H   0  0  0  0  0  0  0  0  0  0  0  0
    7.5273    1.7263    1.1246 H   0  0  0  0  0  0  0  0  0  0  0  0
    6.7560   -2.5034    1.3817 H   0  0  0  0  0  0  0  0  0  0  0  0
    4.5161   -2.1679    0.4214 H   0  0  0  0  0  0  0  0  0  0  0  0
  1  2  2  0
  2  3  1  0
  3  4  1  0
  4  5  1  0
  5  6  1  0
  5  7  2  0
  7  8  1  0
  8  9  2  0
  9 10  1  0
  8 11  1  0
 11 12  1  0
 12 13  2  0
 13 14  1  0
 14 15  2  0
 15 16  1  0
 16 17  2  0
 17 18  1  0
 18 19  1  0
 19 20  2  0
 20 21  1  0
 21 22  2  0
 22 23  1  0
 23 24  2  0
  2 25  1  0
 25 26  2  0
 26 27  1  0
 27 28  2  0
 28 29  1  0
 28 30  1  0
 30 31  2  0
  9  4  1  0
 24 11  1  0
 31 25  1  0
 18  7  1  0
 24 19  1  0
 17 12  1  0
  3 32  1  0
  6 33  1  0
 10 34  1  0
 11 35  1  0
 13 36  1  0
 14 37  1  0
 15 38  1  0
 16 39  1  0
 18 40  1  0
 20 41  1  0
 21 42  1  0
 22 43  1  0
 23 44  1  0
 26 45  1  0
 27 46  1  0
 30 47  1  0
 31 48  1  0
M  END
$$$$
