
     RDKit          3D

 33 34  0  0  0  0  0  0  0  0999 V2000
    1.9661   -0.9117   -4.0120 C   0  0  0  0  0  0  0  0  0  0  0  0
    2.4927   -0.7116   -2.6010 C   0  0  0  0  0  0  0  0  0  0  0  0
    1.6212   -1.3970   -1.5547 C   0  0  0  0  0  0  0  0  0  0  0  0
    0.7088   -2.1683   -1.8745 O   0  0  0  0  0  0  0  0  0  0  0  0
    1.8446   -1.0692   -0.0902 C   0  0  0  0  0  0  0  0  0  0  0  0
    3.2738   -1.0039    0.2369 C   0  0  0  0  0  0  0  0  0  0  0  0
    4.4088   -1.0186    0.4833 N   0  0  0  0  0  0  0  0  0  0  0  0
    1.1276    0.2039    0.2014 C   0  0  0  0  0  0  0  0  0  0  0  0
    1.6505    1.4134    0.1686 N   0  0  0  0  0  0  0  0  0  0  0  0
    0.6679    2.3194    0.4589 N   0  0  0  0  0  0  0  0  0  0  0  0
   -0.4516    1.6608    0.6584 C   0  0  0  0  0  0  0  0  0  0  0  0
   -0.2119    0.3204    0.4965 N   0  0  0  0  0  0  0  0  0  0  0  0
   -1.2150   -0.7176    0.6007 C   0  0  0  0  0  0  0  0  0  0  0  0
   -1.8512   -0.7952    1.9868 C   0  0  0  0  0  0  0  0  0  0  0  0
   -2.8826    0.3022    2.2581 C   0  0  0  0  0  0  0  0  0  0  0  0
   -2.3139    1.7213    2.3334 C   0  0  0  0  0  0  0  0  0  0  0  0
   -1.7736    2.2438    1.0036 C   0  0  0  0  0  0  0  0  0  0  0  0
    2.6041   -0.3927   -4.7339 H   0  0  0  0  0  0  0  0  0  0  0  0
    0.9481   -0.5203   -4.1103 H   0  0  0  0  0  0  0  0  0  0  0  0
    1.9447   -1.9738   -4.2776 H   0  0  0  0  0  0  0  0  0  0  0  0
    2.5281    0.3610   -2.3859 H   0  0  0  0  0  0  0  0  0  0  0  0
    3.5059   -1.1199   -2.5338 H   0  0  0  0  0  0  0  0  0  0  0  0
    1.4205   -1.8876    0.5035 H   0  0  0  0  0  0  0  0  0  0  0  0
   -1.9636   -0.5313   -0.1779 H   0  0  0  0  0  0  0  0  0  0  0  0
   -0.7470   -1.6781    0.3731 H   0  0  0  0  0  0  0  0  0  0  0  0
   -2.3664   -1.7603    2.0699 H   0  0  0  0  0  0  0  0  0  0  0  0
   -1.0786   -0.7813    2.7655 H   0  0  0  0  0  0  0  0  0  0  0  0
   -3.3669    0.0808    3.2175 H   0  0  0  0  0  0  0  0  0  0  0  0
   -3.6728    0.2616    1.4981 H   0  0  0  0  0  0  0  0  0  0  0  0
   -1.5422    1.7721    3.1118 H   0  0  0  0  0  0  0  0  0  0  0  0
   -3.1264    2.3860    2.6531 H   0  0  0  0  0  0  0  0  0  0  0  0
   -2.4895    2.0594    0.1943 H   0  0  0  0  0  0  0  0  0  0  0  0
   -1.6602    3.3325    1.0784 H   0  0  0  0  0  0  0  0  0  0  0  0
  1  2  1  0
  2  3  1  0
  3  4  2  0
  3  5  1  0
  5  6  1  0
  6  7  3  0
  5  8  1  0
  8  9  2  0
  9 10  1  0
 10 11  2  0
 11 12  1  0
 12 13  1  0
 13 14  1  0
 14 15  1  0
 15 16  1  0
 16 17  1  0
 12  8  1  0
 17 11  1  0
  1 18  1  0
  1 19  1  0
  1 20  1  0
  2 21  1  0
  2 22  1  0
  5 23  1  0
 13 24  1  0
 13 25  1  0
 14 26  1  0
 14 27  1  0
 15 28  1  0
 15 29  1  0
 16 30  1  0
 16 31  1  0
 17 32  1  0
 17 33  1  0
M  END
$$$$
