
     RDKit          3D

 46 48  0  0  0  0  0  0  0  0999 V2000
   -1.3333   -3.8299   -1.5361 C   0  0  0  0  0  0  0  0  0  0  0  0
   -1.1057   -2.4408   -1.3266 O   0  0  0  0  0  0  0  0  0  0  0  0
   -2.1965   -1.6777   -0.9729 C   0  0  0  0  0  0  0  0  0  0  0  0
   -3.4972   -2.1621   -0.8185 C   0  0  0  0  0  0  0  0  0  0  0  0
   -4.5290   -1.2946   -0.4511 C   0  0  0  0  0  0  0  0  0  0  0  0
   -4.2721    0.0606   -0.2230 C   0  0  0  0  0  0  0  0  0  0  0  0
   -5.3873    0.9970    0.1406 C   0  0  0  0  0  0  0  0  0  0  0  0
   -2.9690    0.5500   -0.3932 C   0  0  0  0  0  0  0  0  0  0  0  0
   -1.9305   -0.3074   -0.7637 C   0  0  0  0  0  0  0  0  0  0  0  0
   -0.5916    0.1098   -0.9408 N   0  0  0  0  0  0  0  0  0  0  0  0
   -0.0682    1.3809   -0.8389 C   0  0  0  0  0  0  0  0  0  0  0  0
   -0.7007    2.4081   -0.6210 O   0  0  0  0  0  0  0  0  0  0  0  0
    1.4408    1.4040   -1.0166 C   0  0  0  0  0  0  0  0  0  0  0  0
    1.9913    2.8061   -1.2109 C   0  0  0  0  0  0  0  0  0  0  0  0
    3.4075    2.6442   -0.7640 C   0  0  0  0  0  0  0  0  0  0  0  0
    4.3214    3.4149   -1.0039 O   0  0  0  0  0  0  0  0  0  0  0  0
    3.5405    1.5015   -0.0313 O   0  0  0  0  0  0  0  0  0  0  0  0
    2.2439    0.8959    0.1867 C   0  0  0  0  0  0  0  0  0  0  0  0
    1.7335    1.3756    1.5698 C   0  0  0  0  0  0  0  0  0  0  0  0
    2.1597    0.4696    2.7340 C   0  0  0  0  0  0  0  0  0  0  0  0
    3.4937   -0.2163    2.4861 C   0  0  0  0  0  0  0  0  0  0  0  0
    3.4612   -1.0901    1.2325 C   0  0  0  0  0  0  0  0  0  0  0  0
    2.4443   -0.6258    0.1821 C   0  0  0  0  0  0  0  0  0  0  0  0
   -0.3753   -4.2880   -1.8002 H   0  0  0  0  0  0  0  0  0  0  0  0
   -2.0222   -3.9953   -2.3709 H   0  0  0  0  0  0  0  0  0  0  0  0
   -1.6921   -4.3137   -0.6216 H   0  0  0  0  0  0  0  0  0  0  0  0
   -3.7466   -3.2055   -0.9777 H   0  0  0  0  0  0  0  0  0  0  0  0
   -5.5387   -1.6857   -0.3420 H   0  0  0  0  0  0  0  0  0  0  0  0
   -5.0275    1.7941    0.7997 H   0  0  0  0  0  0  0  0  0  0  0  0
   -5.8079    1.4465   -0.7641 H   0  0  0  0  0  0  0  0  0  0  0  0
   -6.1836    0.4689    0.6756 H   0  0  0  0  0  0  0  0  0  0  0  0
   -2.7906    1.6083   -0.2286 H   0  0  0  0  0  0  0  0  0  0  0  0
    0.0176   -0.6507   -1.2279 H   0  0  0  0  0  0  0  0  0  0  0  0
    1.6918    0.8228   -1.9157 H   0  0  0  0  0  0  0  0  0  0  0  0
    1.5072    3.5615   -0.5852 H   0  0  0  0  0  0  0  0  0  0  0  0
    1.9501    3.1038   -2.2620 H   0  0  0  0  0  0  0  0  0  0  0  0
    2.1038    2.3888    1.7718 H   0  0  0  0  0  0  0  0  0  0  0  0
    0.6406    1.4311    1.6004 H   0  0  0  0  0  0  0  0  0  0  0  0
    2.2030    1.0583    3.6575 H   0  0  0  0  0  0  0  0  0  0  0  0
    1.3898   -0.2967    2.8921 H   0  0  0  0  0  0  0  0  0  0  0  0
    3.7719   -0.8281    3.3519 H   0  0  0  0  0  0  0  0  0  0  0  0
    4.2773    0.5446    2.3836 H   0  0  0  0  0  0  0  0  0  0  0  0
    4.4662   -1.1146    0.7938 H   0  0  0  0  0  0  0  0  0  0  0  0
    3.2273   -2.1255    1.5091 H   0  0  0  0  0  0  0  0  0  0  0  0
    1.4893   -1.1281    0.3753 H   0  0  0  0  0  0  0  0  0  0  0  0
    2.7920   -0.9700   -0.7997 H   0  0  0  0  0  0  0  0  0  0  0  0
  1  2  1  0
  2  3  1  0
  3  4  2  0
  4  5  1  0
  5  6  2  0
  6  7  1  0
  6  8  1  0
  8  9  2  0
  9 10  1  0
 10 11  1  0
 11 12  2  0
 11 13  1  0
 13 14  1  0
 14 15  1  0
 15 16  2  0
 15 17  1  0
 17 18  1  0
 18 19  1  0
 19 20  1  0
 20 21  1  0
 21 22  1  0
 22 23  1  0
  9  3  1  0
 18 13  1  0
 23 18  1  0
  1 24  1  0
  1 25  1  0
  1 26  1  0
  4 27  1  0
  5 28  1  0
  7 29  1  0
  7 30  1  0
  7 31  1  0
  8 32  1  0
 10 33  1  0
 13 34  1  0
 14 35  1  0
 14 36  1  0
 19 37  1  0
 19 38  1  0
 20 39  1  0
 20 40  1  0
 21 41  1  0
 21 42  1  0
 22 43  1  0
 22 44  1  0
 23 45  1  0
 23 46  1  0
M  END
$$$$
