
     RDKit          3D

 39 41  0  0  0  0  0  0  0  0999 V2000
   -0.5566    5.5028   -1.6142 C   0  0  0  0  0  0  0  0  0  0  0  0
   -0.2065    4.1250   -1.0792 C   0  0  0  0  0  0  0  0  0  0  0  0
   -1.4822    2.9251   -1.5829 S   0  0  0  0  0  0  0  0  0  0  0  0
   -0.8124    1.4195   -0.8867 C   0  0  0  0  0  0  0  0  0  0  0  0
   -1.4410    0.2258   -1.1738 C   0  0  0  0  0  0  0  0  0  0  0  0
   -0.9162   -0.9219   -0.6186 C   0  0  0  0  0  0  0  0  0  0  0  0
   -1.4613   -2.1570   -0.8506 N   0  0  0  0  0  0  0  0  0  0  0  0
   -0.8729   -3.3521   -0.2587 C   0  0  0  0  0  0  0  0  0  0  0  0
   -1.7021   -4.4830   -0.8621 C   0  0  0  0  0  0  0  0  0  0  0  0
   -3.0790   -3.8533   -1.0066 C   0  0  0  0  0  0  0  0  0  0  0  0
   -2.7700   -2.4172   -1.4296 C   0  0  0  0  0  0  0  0  0  0  0  0
    0.1737   -0.8541    0.1642 N   0  0  0  0  0  0  0  0  0  0  0  0
    0.7373    0.3452    0.3773 C   0  0  0  0  0  0  0  0  0  0  0  0
    1.9012    0.4111    1.2683 C   0  0  0  0  0  0  0  0  0  0  0  0
    1.9173    1.3695    2.3065 C   0  0  0  0  0  0  0  0  0  0  0  0
    2.9889    1.4705    3.1977 C   0  0  0  0  0  0  0  0  0  0  0  0
    4.0775    0.6162    3.0700 C   0  0  0  0  0  0  0  0  0  0  0  0
    4.0953   -0.3308    2.0475 C   0  0  0  0  0  0  0  0  0  0  0  0
    3.0209   -0.4331    1.1510 C   0  0  0  0  0  0  0  0  0  0  0  0
    3.1875   -1.6011   -0.1187 Cl  0  0  0  0  0  0  0  0  0  0  0  0
    0.2703    1.5065   -0.1033 N   0  0  0  0  0  0  0  0  0  0  0  0
   -0.6135    5.5075   -2.7081 H   0  0  0  0  0  0  0  0  0  0  0  0
    0.2151    6.2228   -1.3210 H   0  0  0  0  0  0  0  0  0  0  0  0
   -1.5111    5.8600   -1.2123 H   0  0  0  0  0  0  0  0  0  0  0  0
    0.7665    3.8171   -1.4754 H   0  0  0  0  0  0  0  0  0  0  0  0
   -0.1453    4.1629    0.0133 H   0  0  0  0  0  0  0  0  0  0  0  0
   -2.3068    0.1997   -1.8205 H   0  0  0  0  0  0  0  0  0  0  0  0
    0.1861   -3.4719   -0.5120 H   0  0  0  0  0  0  0  0  0  0  0  0
   -0.9863   -3.3352    0.8319 H   0  0  0  0  0  0  0  0  0  0  0  0
   -1.7072   -5.3799   -0.2364 H   0  0  0  0  0  0  0  0  0  0  0  0
   -1.3094   -4.7529   -1.8501 H   0  0  0  0  0  0  0  0  0  0  0  0
   -3.5919   -3.8551   -0.0370 H   0  0  0  0  0  0  0  0  0  0  0  0
   -3.7131   -4.3752   -1.7287 H   0  0  0  0  0  0  0  0  0  0  0  0
   -3.5452   -1.7393   -1.0560 H   0  0  0  0  0  0  0  0  0  0  0  0
   -2.7183   -2.3384   -2.5212 H   0  0  0  0  0  0  0  0  0  0  0  0
    1.0711    2.0459    2.4261 H   0  0  0  0  0  0  0  0  0  0  0  0
    2.9685    2.2161    3.9891 H   0  0  0  0  0  0  0  0  0  0  0  0
    4.9146    0.6897    3.7596 H   0  0  0  0  0  0  0  0  0  0  0  0
    4.9565   -0.9874    1.9455 H   0  0  0  0  0  0  0  0  0  0  0  0
  1  2  1  0
  2  3  1  0
  3  4  1  0
  4  5  2  0
  5  6  1  0
  6  7  1  0
  7  8  1  0
  8  9  1  0
  9 10  1  0
 10 11  1  0
  6 12  2  0
 12 13  1  0
 13 14  1  0
 14 15  2  0
 15 16  1  0
 16 17  2  0
 17 18  1  0
 18 19  2  0
 19 20  1  0
 13 21  2  0
 21  4  1  0
 11  7  1  0
 19 14  1  0
  1 22  1  0
  1 23  1  0
  1 24  1  0
  2 25  1  0
  2 26  1  0
  5 27  1  0
  8 28  1  0
  8 29  1  0
  9 30  1  0
  9 31  1  0
 10 32  1  0
 10 33  1  0
 11 34  1  0
 11 35  1  0
 15 36  1  0
 16 37  1  0
 17 38  1  0
 18 39  1  0
M  END
$$$$
