
     RDKit          3D

 69 71  0  0  0  0  0  0  0  0999 V2000
    8.2418   -2.7918    2.7233 C   0  0  0  0  0  0  0  0  0  0  0  0
    7.8103   -1.9556    1.5289 C   0  0  0  0  0  0  0  0  0  0  0  0
    6.3791   -2.2863    1.1043 C   0  0  0  0  0  0  0  0  0  0  0  0
    5.9744   -1.5070   -0.1502 C   0  0  0  0  0  0  0  0  0  0  0  0
    4.5280   -1.7836   -0.5734 C   0  0  0  0  0  0  0  0  0  0  0  0
    3.5241   -0.7006   -0.1624 C   0  0  0  0  0  0  0  0  0  0  0  0
    3.4132   -0.4845    1.3487 C   0  0  0  0  0  0  0  0  0  0  0  0
    2.3274    0.5336    1.7190 C   0  0  0  0  0  0  0  0  0  0  0  0
    1.0204   -0.0882    2.2236 C   0  0  0  0  0  0  0  0  0  0  0  0
    0.2913   -0.9822    1.2262 C   0  0  0  0  0  0  0  0  0  0  0  0
    0.0671   -0.2508    0.0097 O   0  0  0  0  0  0  0  0  0  0  0  0
   -1.1597   -0.3747   -0.5606 C   0  0  0  0  0  0  0  0  0  0  0  0
   -2.0783   -1.0698   -0.1446 O   0  0  0  0  0  0  0  0  0  0  0  0
   -1.2315    0.4741   -1.8257 C   0  0  0  0  0  0  0  0  0  0  0  0
   -2.6386    0.6868   -2.2468 N   0  0  0  0  0  0  0  0  0  0  0  0
   -3.4307    1.6881   -1.7975 C   0  0  0  0  0  0  0  0  0  0  0  0
   -3.0057    2.8389   -0.8985 C   0  0  0  0  0  0  0  0  0  0  0  0
   -2.2228    2.3940    0.2110 O   0  0  0  0  0  0  0  0  0  0  0  0
   -2.9704    2.3369    1.3537 C   0  0  0  0  0  0  0  0  0  0  0  0
   -3.8873    1.3070    1.5654 C   0  0  0  0  0  0  0  0  0  0  0  0
   -4.6153    1.2682    2.7565 C   0  0  0  0  0  0  0  0  0  0  0  0
   -4.4092    2.2474    3.7282 C   0  0  0  0  0  0  0  0  0  0  0  0
   -5.3084    2.1987    5.1923 Cl  0  0  0  0  0  0  0  0  0  0  0  0
   -3.4700    3.2592    3.5253 C   0  0  0  0  0  0  0  0  0  0  0  0
   -2.7409    3.2994    2.3358 C   0  0  0  0  0  0  0  0  0  0  0  0
   -4.6669    1.4808   -2.3107 N   0  0  0  0  0  4  0  0  0  0  0  0
   -5.8239    2.3341   -2.0482 C   0  0  0  0  0  0  0  0  0  0  0  0
   -4.6740    0.3199   -3.0817 C   0  0  0  0  0  0  0  0  0  0  0  0
   -5.6915   -0.3162   -3.7914 C   0  0  0  0  0  0  0  0  0  0  0  0
   -5.3388   -1.5003   -4.4533 C   0  0  0  0  0  0  0  0  0  0  0  0
   -4.0317   -2.0167   -4.4007 C   0  0  0  0  0  0  0  0  0  0  0  0
   -3.0155   -1.3711   -3.6848 C   0  0  0  0  0  0  0  0  0  0  0  0
   -3.3744   -0.1913   -3.0351 C   0  0  0  0  0  0  0  0  0  0  0  0
    7.5885   -2.6145    3.5843 H   0  0  0  0  0  0  0  0  0  0  0  0
    8.2129   -3.8578    2.4806 H   0  0  0  0  0  0  0  0  0  0  0  0
    9.2661   -2.5371    3.0142 H   0  0  0  0  0  0  0  0  0  0  0  0
    7.8844   -0.8926    1.7857 H   0  0  0  0  0  0  0  0  0  0  0  0
    8.4999   -2.1370    0.6964 H   0  0  0  0  0  0  0  0  0  0  0  0
    5.6962   -2.0667    1.9314 H   0  0  0  0  0  0  0  0  0  0  0  0
    6.2975   -3.3619    0.9023 H   0  0  0  0  0  0  0  0  0  0  0  0
    6.1390   -0.4328   -0.0093 H   0  0  0  0  0  0  0  0  0  0  0  0
    6.6376   -1.8183   -0.9675 H   0  0  0  0  0  0  0  0  0  0  0  0
    4.5036   -1.8423   -1.6690 H   0  0  0  0  0  0  0  0  0  0  0  0
    4.1937   -2.7610   -0.2066 H   0  0  0  0  0  0  0  0  0  0  0  0
    3.8003    0.2461   -0.6442 H   0  0  0  0  0  0  0  0  0  0  0  0
    2.5476   -0.9804   -0.5716 H   0  0  0  0  0  0  0  0  0  0  0  0
    3.2448   -1.4374    1.8635 H   0  0  0  0  0  0  0  0  0  0  0  0
    4.3705   -0.0925    1.7115 H   0  0  0  0  0  0  0  0  0  0  0  0
    2.7157    1.1605    2.5319 H   0  0  0  0  0  0  0  0  0  0  0  0
    2.1278    1.2144    0.8836 H   0  0  0  0  0  0  0  0  0  0  0  0
    0.3511    0.7370    2.4998 H   0  0  0  0  0  0  0  0  0  0  0  0
    1.2153   -0.6589    3.1387 H   0  0  0  0  0  0  0  0  0  0  0  0
    0.8892   -1.8667    0.9847 H   0  0  0  0  0  0  0  0  0  0  0  0
   -0.6450   -1.3239    1.6816 H   0  0  0  0  0  0  0  0  0  0  0  0
   -0.6877   -0.0330   -2.6285 H   0  0  0  0  0  0  0  0  0  0  0  0
   -0.7646    1.4488   -1.6581 H   0  0  0  0  0  0  0  0  0  0  0  0
   -2.3782    3.4680   -1.5375 H   0  0  0  0  0  0  0  0  0  0  0  0
   -3.8948    3.4067   -0.6085 H   0  0  0  0  0  0  0  0  0  0  0  0
   -4.0268    0.5137    0.8374 H   0  0  0  0  0  0  0  0  0  0  0  0
   -5.3279    0.4648    2.9310 H   0  0  0  0  0  0  0  0  0  0  0  0
   -3.2969    4.0110    4.2918 H   0  0  0  0  0  0  0  0  0  0  0  0
   -1.9974    4.0785    2.1858 H   0  0  0  0  0  0  0  0  0  0  0  0
   -6.7078    1.9846   -2.5835 H   0  0  0  0  0  0  0  0  0  0  0  0
   -6.0349    2.3206   -0.9758 H   0  0  0  0  0  0  0  0  0  0  0  0
   -5.5939    3.3529   -2.3720 H   0  0  0  0  0  0  0  0  0  0  0  0
   -6.7012    0.0724   -3.8290 H   0  0  0  0  0  0  0  0  0  0  0  0
   -6.0975   -2.0412   -5.0199 H   0  0  0  0  0  0  0  0  0  0  0  0
   -3.8069   -2.9456   -4.9268 H   0  0  0  0  0  0  0  0  0  0  0  0
   -2.0121   -1.7752   -3.6388 H   0  0  0  0  0  0  0  0  0  0  0  0
  1  2  1  0
  2  3  1  0
  3  4  1  0
  4  5  1  0
  5  6  1  0
  6  7  1  0
  7  8  1  0
  8  9  1  0
  9 10  1  0
 10 11  1  0
 11 12  1  0
 12 13  2  0
 12 14  1  0
 14 15  1  0
 15 16  1  0
 16 17  1  0
 17 18  1  0
 18 19  1  0
 19 20  2  0
 20 21  1  0
 21 22  2  0
 22 23  1  0
 22 24  1  0
 24 25  2  0
 16 26  2  0
 26 27  1  0
 26 28  1  0
 28 29  2  0
 29 30  1  0
 30 31  2  0
 31 32  1  0
 32 33  2  0
 33 15  1  0
 25 19  1  0
 33 28  1  0
  1 34  1  0
  1 35  1  0
  1 36  1  0
  2 37  1  0
  2 38  1  0
  3 39  1  0
  3 40  1  0
  4 41  1  0
  4 42  1  0
  5 43  1  0
  5 44  1  0
  6 45  1  0
  6 46  1  0
  7 47  1  0
  7 48  1  0
  8 49  1  0
  8 50  1  0
  9 51  1  0
  9 52  1  0
 10 53  1  0
 10 54  1  0
 14 55  1  0
 14 56  1  0
 17 57  1  0
 17 58  1  0
 20 59  1  0
 21 60  1  0
 24 61  1  0
 25 62  1  0
 27 63  1  0
 27 64  1  0
 27 65  1  0
 29 66  1  0
 30 67  1  0
 31 68  1  0
 32 69  1  0
M  CHG  1  26   1
M  END
$$$$
