
     RDKit          3D

 41 44  0  0  0  0  0  0  0  0999 V2000
    2.9873    1.7481   -1.1512 C   0  0  0  0  0  0  0  0  0  0  0  0
    3.3994    0.5927   -0.2833 C   0  0  0  0  0  0  0  0  0  0  0  0
    4.7134    0.1057   -0.3999 C   0  0  0  0  0  0  0  0  0  0  0  0
    5.1657   -0.9506    0.3938 C   0  0  0  0  0  0  0  0  0  0  0  0
    4.3164   -1.5365    1.3267 C   0  0  0  0  0  0  0  0  0  0  0  0
    3.0127   -1.0652    1.4682 C   0  0  0  0  0  0  0  0  0  0  0  0
    2.5503   -0.0082    0.6669 C   0  0  0  0  0  0  0  0  0  0  0  0
    0.8795    0.5580    0.9377 S   0  0  0  0  0  6  0  0  0  0  0  0
    0.9063    2.0061    0.9681 O   0  0  0  0  0  0  0  0  0  0  0  0
    0.2998   -0.1736    2.0471 O   0  0  0  0  0  0  0  0  0  0  0  0
    0.0679    0.1282   -0.4697 N   0  0  0  0  0  0  0  0  0  0  0  0
   -0.3606   -1.2136   -0.5414 C   0  0  0  0  0  0  0  0  0  0  0  0
    0.6174   -2.1126   -0.7212 N   0  0  0  0  0  0  0  0  0  0  0  0
    0.2714   -3.4055   -0.7653 C   0  0  0  0  0  0  0  0  0  0  0  0
   -0.9542   -3.9226   -0.6468 N   0  0  0  0  0  0  0  0  0  0  0  0
   -1.8955   -2.9831   -0.4530 C   0  0  0  0  0  0  0  0  0  0  0  0
   -3.5304   -3.4240   -0.2676 S   0  0  0  0  0  0  0  0  0  0  0  0
   -4.0104   -1.7938   -0.0864 C   0  0  0  0  0  0  0  0  0  0  0  0
   -2.9401   -0.9241   -0.1664 C   0  0  0  0  0  0  0  0  0  0  0  0
   -3.1476    0.5071   -0.0389 C   0  0  0  0  0  0  0  0  0  0  0  0
   -2.8175    1.1577    1.1543 C   0  0  0  0  0  0  0  0  0  0  0  0
   -2.9619    2.5414    1.2564 C   0  0  0  0  0  0  0  0  0  0  0  0
   -3.4434    3.2753    0.1728 C   0  0  0  0  0  0  0  0  0  0  0  0
   -3.7823    2.6282   -1.0154 C   0  0  0  0  0  0  0  0  0  0  0  0
   -3.6337    1.2448   -1.1240 C   0  0  0  0  0  0  0  0  0  0  0  0
   -1.6925   -1.6132   -0.3835 C   0  0  0  0  0  0  0  0  0  0  0  0
    2.9334    2.6674   -0.5608 H   0  0  0  0  0  0  0  0  0  0  0  0
    3.7117    1.9163   -1.9561 H   0  0  0  0  0  0  0  0  0  0  0  0
    2.0266    1.5593   -1.6370 H   0  0  0  0  0  0  0  0  0  0  0  0
    5.4018    0.5512   -1.1162 H   0  0  0  0  0  0  0  0  0  0  0  0
    6.1852   -1.3123    0.2845 H   0  0  0  0  0  0  0  0  0  0  0  0
    4.6693   -2.3564    1.9470 H   0  0  0  0  0  0  0  0  0  0  0  0
    2.3610   -1.5306    2.2049 H   0  0  0  0  0  0  0  0  0  0  0  0
   -0.5990    0.8506   -0.7316 H   0  0  0  0  0  0  0  0  0  0  0  0
    1.0809   -4.1137   -0.9149 H   0  0  0  0  0  0  0  0  0  0  0  0
   -5.0539   -1.5549    0.0745 H   0  0  0  0  0  0  0  0  0  0  0  0
   -2.4354    0.5986    2.0072 H   0  0  0  0  0  0  0  0  0  0  0  0
   -2.6921    3.0474    2.1807 H   0  0  0  0  0  0  0  0  0  0  0  0
   -3.5537    4.3540    0.2560 H   0  0  0  0  0  0  0  0  0  0  0  0
   -4.1594    3.2035   -1.8574 H   0  0  0  0  0  0  0  0  0  0  0  0
   -3.8937    0.7528   -2.0586 H   0  0  0  0  0  0  0  0  0  0  0  0
  1  2  1  0
  2  3  2  0
  3  4  1  0
  4  5  2  0
  5  6  1  0
  6  7  2  0
  7  8  1  0
  8  9  2  0
  8 10  2  0
  8 11  1  0
 11 12  1  0
 12 13  2  0
 13 14  1  0
 14 15  2  0
 15 16  1  0
 16 17  1  0
 17 18  1  0
 18 19  2  0
 19 20  1  0
 20 21  2  0
 21 22  1  0
 22 23  2  0
 23 24  1  0
 24 25  2  0
 19 26  1  0
  7  2  1  0
 26 12  1  0
 26 16  2  0
 25 20  1  0
  1 27  1  0
  1 28  1  0
  1 29  1  0
  3 30  1  0
  4 31  1  0
  5 32  1  0
  6 33  1  0
 11 34  1  0
 14 35  1  0
 18 36  1  0
 21 37  1  0
 22 38  1  0
 23 39  1  0
 24 40  1  0
 25 41  1  0
M  END
$$$$
