
     RDKit          3D

 40 41  0  0  0  0  0  0  0  0999 V2000
   -4.7452    2.2000    0.9039 C   0  0  0  0  0  0  0  0  0  0  0  0
   -4.3503    0.7279    0.7805 C   0  0  0  0  0  0  0  0  0  0  0  0
   -3.1263    0.3980    1.6530 C   0  0  0  0  0  0  0  0  0  0  0  0
   -1.8211    0.4147    0.8608 C   0  0  0  0  0  0  0  0  0  0  0  0
   -1.8597   -0.5154   -0.2727 N   0  0  0  0  0  0  0  0  0  0  0  0
   -0.7780   -1.2837   -0.6990 C   0  0  0  0  0  0  0  0  0  0  0  0
   -0.8894   -2.2560   -1.4428 O   0  0  0  0  0  0  0  0  0  0  0  0
    0.5862   -0.9248   -0.2481 C   0  0  0  0  0  0  0  0  0  0  0  0
    1.0854    0.3702   -0.4175 C   0  0  0  0  0  0  0  0  0  0  0  0
    2.3879    0.6709   -0.0105 C   0  0  0  0  0  0  0  0  0  0  0  0
    3.1989   -0.3241    0.5384 C   0  0  0  0  0  0  0  0  0  0  0  0
    4.5328   -0.0538    0.9546 N   0  0  0  0  0  0  0  0  0  0  0  0
    5.6567    0.5584   -0.1397 S   0  0  0  0  0  6  0  0  0  0  0  0
    5.6922   -0.7007   -1.4017 C   0  0  0  0  0  0  0  0  0  0  0  0
    5.1602    1.7851   -0.7218 O   0  0  0  0  0  0  0  0  0  0  0  0
    6.9291    0.5177    0.5501 O   0  0  0  0  0  0  0  0  0  0  0  0
    2.7017   -1.6205    0.6973 C   0  0  0  0  0  0  0  0  0  0  0  0
    1.3994   -1.9250    0.2937 C   0  0  0  0  0  0  0  0  0  0  0  0
   -3.1705   -0.8183   -0.8430 C   0  0  0  0  0  0  0  0  0  0  0  0
   -4.1284    0.3571   -0.6956 C   0  0  0  0  0  0  0  0  0  0  0  0
   -4.9883    2.4510    1.9418 H   0  0  0  0  0  0  0  0  0  0  0  0
   -3.9334    2.8591    0.5781 H   0  0  0  0  0  0  0  0  0  0  0  0
   -5.6272    2.4177    0.2924 H   0  0  0  0  0  0  0  0  0  0  0  0
   -5.1924    0.1350    1.1620 H   0  0  0  0  0  0  0  0  0  0  0  0
   -3.0566    1.0793    2.5088 H   0  0  0  0  0  0  0  0  0  0  0  0
   -3.2612   -0.6087    2.0711 H   0  0  0  0  0  0  0  0  0  0  0  0
   -0.9931    0.1602    1.5293 H   0  0  0  0  0  0  0  0  0  0  0  0
   -1.6383    1.4167    0.4566 H   0  0  0  0  0  0  0  0  0  0  0  0
    0.4732    1.1437   -0.8741 H   0  0  0  0  0  0  0  0  0  0  0  0
    2.7540    1.6888   -0.1243 H   0  0  0  0  0  0  0  0  0  0  0  0
    4.9591   -0.6989    1.6194 H   0  0  0  0  0  0  0  0  0  0  0  0
    6.4767   -0.4354   -2.1142 H   0  0  0  0  0  0  0  0  0  0  0  0
    4.7288   -0.7304   -1.9128 H   0  0  0  0  0  0  0  0  0  0  0  0
    5.9253   -1.6610   -0.9381 H   0  0  0  0  0  0  0  0  0  0  0  0
    3.3183   -2.4078    1.1223 H   0  0  0  0  0  0  0  0  0  0  0  0
    1.0177   -2.9387    0.3971 H   0  0  0  0  0  0  0  0  0  0  0  0
   -3.5608   -1.7050   -0.3291 H   0  0  0  0  0  0  0  0  0  0  0  0
   -3.0542   -1.0766   -1.9017 H   0  0  0  0  0  0  0  0  0  0  0  0
   -3.7182    1.2155   -1.2438 H   0  0  0  0  0  0  0  0  0  0  0  0
   -5.0909    0.1181   -1.1628 H   0  0  0  0  0  0  0  0  0  0  0  0
  1  2  1  0
  2  3  1  0
  3  4  1  0
  4  5  1  0
  5  6  1  0
  6  7  2  0
  6  8  1  0
  8  9  2  0
  9 10  1  0
 10 11  2  0
 11 12  1  0
 12 13  1  0
 13 14  1  0
 13 15  2  0
 13 16  2  0
 11 17  1  0
 17 18  2  0
  5 19  1  0
 19 20  1  0
 20  2  1  0
 18  8  1  0
  1 21  1  0
  1 22  1  0
  1 23  1  0
  2 24  1  0
  3 25  1  0
  3 26  1  0
  4 27  1  0
  4 28  1  0
  9 29  1  0
 10 30  1  0
 12 31  1  0
 14 32  1  0
 14 33  1  0
 14 34  1  0
 17 35  1  0
 18 36  1  0
 19 37  1  0
 19 38  1  0
 20 39  1  0
 20 40  1  0
M  END
$$$$
