
     RDKit          3D

 43 46  0  0  0  0  0  0  0  0999 V2000
   -1.2561   -2.8173    0.4199 C   0  0  0  0  0  0  0  0  0  0  0  0
   -2.6033   -2.1619    0.1869 C   0  0  0  0  0  0  0  0  0  0  0  0
   -2.4103   -0.7434    0.1239 O   0  0  0  0  0  0  0  0  0  0  0  0
   -3.5520   -0.0415   -0.1239 C   0  0  0  0  0  0  0  0  0  0  0  0
   -4.6562   -0.5553   -0.2547 O   0  0  0  0  0  0  0  0  0  0  0  0
   -3.2880    1.3865   -0.2174 C   0  0  0  0  0  0  0  0  0  0  0  0
   -4.2349    2.3244   -0.6197 C   0  0  0  0  0  0  0  0  0  0  0  0
   -3.5925    3.5887   -0.6240 C   0  0  0  0  0  0  0  0  0  0  0  0
   -3.9571    5.2428   -0.9801 S   0  0  0  0  0  0  0  0  0  0  0  0
   -2.3383    5.6766   -0.5967 C   0  0  0  0  0  0  0  0  0  0  0  0
   -1.5474    4.6177   -0.2043 C   0  0  0  0  0  0  0  0  0  0  0  0
   -2.3042    3.4116   -0.2239 C   0  0  0  0  0  0  0  0  0  0  0  0
   -2.1132    2.0710    0.0538 N   0  0  0  0  0  0  0  0  0  0  0  0
   -0.8660    1.5636    0.6092 C   0  0  0  0  0  0  0  0  0  0  0  0
    0.0567    0.9697   -0.4359 C   0  0  0  0  0  0  0  0  0  0  0  0
   -0.0688    1.1800   -1.6409 O   0  0  0  0  0  0  0  0  0  0  0  0
    1.1885    0.1105    0.0275 C   0  0  0  0  0  0  0  0  0  0  0  0
    1.5606    0.0215    1.3765 C   0  0  0  0  0  0  0  0  0  0  0  0
    2.6243   -0.8022    1.7588 C   0  0  0  0  0  0  0  0  0  0  0  0
    3.3217   -1.5322    0.7994 C   0  0  0  0  0  0  0  0  0  0  0  0
    2.9429   -1.4626   -0.5434 C   0  0  0  0  0  0  0  0  0  0  0  0
    1.8934   -0.6315   -0.9316 C   0  0  0  0  0  0  0  0  0  0  0  0
    3.5623   -2.1781   -1.5353 O   0  0  0  0  0  0  0  0  0  0  0  0
    4.3720   -3.2297   -0.9966 C   0  0  0  0  0  0  0  0  0  0  0  0
    5.2060   -2.7213    0.1677 C   0  0  0  0  0  0  0  0  0  0  0  0
    4.3636   -2.3012    1.2483 O   0  0  0  0  0  0  0  0  0  0  0  0
   -1.3597   -3.9029    0.5011 H   0  0  0  0  0  0  0  0  0  0  0  0
   -0.7934   -2.4360    1.3360 H   0  0  0  0  0  0  0  0  0  0  0  0
   -0.5719   -2.5913   -0.4039 H   0  0  0  0  0  0  0  0  0  0  0  0
   -3.0296   -2.5229   -0.7559 H   0  0  0  0  0  0  0  0  0  0  0  0
   -3.2783   -2.4041    1.0155 H   0  0  0  0  0  0  0  0  0  0  0  0
   -5.2609    2.1134   -0.8939 H   0  0  0  0  0  0  0  0  0  0  0  0
   -2.0447    6.7137   -0.6847 H   0  0  0  0  0  0  0  0  0  0  0  0
   -0.5041    4.7105    0.0664 H   0  0  0  0  0  0  0  0  0  0  0  0
   -0.3511    2.3961    1.1007 H   0  0  0  0  0  0  0  0  0  0  0  0
   -1.1305    0.8335    1.3788 H   0  0  0  0  0  0  0  0  0  0  0  0
    1.0534    0.5860    2.1531 H   0  0  0  0  0  0  0  0  0  0  0  0
    2.9185   -0.8658    2.8036 H   0  0  0  0  0  0  0  0  0  0  0  0
    1.6176   -0.5787   -1.9833 H   0  0  0  0  0  0  0  0  0  0  0  0
    3.7148   -4.0531   -0.6903 H   0  0  0  0  0  0  0  0  0  0  0  0
    5.0223   -3.5921   -1.7988 H   0  0  0  0  0  0  0  0  0  0  0  0
    5.8559   -3.5173    0.5443 H   0  0  0  0  0  0  0  0  0  0  0  0
    5.8381   -1.8755   -0.1301 H   0  0  0  0  0  0  0  0  0  0  0  0
  1  2  1  0
  2  3  1  0
  3  4  1  0
  4  5  2  0
  4  6  1  0
  6  7  2  0
  7  8  1  0
  8  9  1  0
  9 10  1  0
 10 11  2  0
 11 12  1  0
 12 13  1  0
 13 14  1  0
 14 15  1  0
 15 16  2  0
 15 17  1  0
 17 18  2  0
 18 19  1  0
 19 20  2  0
 20 21  1  0
 21 22  2  0
 21 23  1  0
 23 24  1  0
 24 25  1  0
 25 26  1  0
 13  6  1  0
 22 17  1  0
 12  8  2  0
 26 20  1  0
  1 27  1  0
  1 28  1  0
  1 29  1  0
  2 30  1  0
  2 31  1  0
  7 32  1  0
 10 33  1  0
 11 34  1  0
 14 35  1  0
 14 36  1  0
 18 37  1  0
 19 38  1  0
 22 39  1  0
 24 40  1  0
 24 41  1  0
 25 42  1  0
 25 43  1  0
M  END
$$$$
