
     RDKit          3D

 38 41  0  0  0  0  0  0  0  0999 V2000
    8.1511    1.6925    0.2537 C   0  0  0  0  0  0  0  0  0  0  0  0
    6.6738    1.8231    0.2919 C   0  0  0  0  0  0  0  0  0  0  0  0
    6.0177    2.9465    0.4922 N   0  0  0  0  0  0  0  0  0  0  0  0
    4.6509    2.7535    0.4729 N   0  0  0  0  0  0  0  0  0  0  0  0
    4.3277    1.4968    0.2600 C   0  0  0  0  0  0  0  0  0  0  0  0
    3.0215    1.0858    0.2023 N   0  0  0  0  0  0  0  0  0  0  0  0
    2.5471   -0.1899   -0.0111 C   0  0  0  0  0  0  0  0  0  0  0  0
    3.2594   -1.1766   -0.1832 O   0  0  0  0  0  0  0  0  0  0  0  0
    1.0841   -0.3040   -0.0189 C   0  0  0  0  0  0  0  0  0  0  0  0
    0.0791    1.0192    0.3983 S   0  0  0  0  0  0  0  0  0  0  0  0
   -1.3392    0.1120    0.1742 C   0  0  0  0  0  0  0  0  0  0  0  0
   -2.5341    0.6947    0.3758 N   0  0  0  0  0  0  0  0  0  0  0  0
   -3.6078   -0.0870    0.1548 C   0  0  0  0  0  0  0  0  0  0  0  0
   -4.8915    0.6072    0.3876 C   0  0  0  0  0  0  0  0  0  0  0  0
   -5.0895    1.9411    0.7166 C   0  0  0  0  0  0  0  0  0  0  0  0
   -6.4622    2.2873    0.8742 C   0  0  0  0  0  0  0  0  0  0  0  0
   -7.2869    1.2079    0.6646 C   0  0  0  0  0  0  0  0  0  0  0  0
   -6.4065   -0.2036    0.2835 S   0  0  0  0  0  0  0  0  0  0  0  0
   -3.5048   -1.4093   -0.2601 C   0  0  0  0  0  0  0  0  0  0  0  0
   -2.2409   -2.0062   -0.4563 C   0  0  0  0  0  0  0  0  0  0  0  0
   -2.1684   -3.4277   -0.9449 C   0  0  0  0  0  0  0  0  0  0  0  0
   -3.3476   -4.0999   -0.8125 F   0  0  0  0  0  0  0  0  0  0  0  0
   -1.2493   -4.1823   -0.2771 F   0  0  0  0  0  0  0  0  0  0  0  0
   -1.8432   -3.5139   -2.2626 F   0  0  0  0  0  0  0  0  0  0  0  0
   -1.0986   -1.1974   -0.2210 C   0  0  0  0  0  0  0  0  0  0  0  0
    0.3210   -1.4230   -0.3158 C   0  0  0  0  0  0  0  0  0  0  0  0
    0.8734   -2.6076   -0.6722 N   0  0  0  0  0  0  0  0  0  0  0  0
    5.6615    0.4555    0.0677 S   0  0  0  0  0  0  0  0  0  0  0  0
    8.4839    1.3134   -0.7177 H   0  0  0  0  0  0  0  0  0  0  0  0
    8.6260    2.6654    0.4157 H   0  0  0  0  0  0  0  0  0  0  0  0
    8.5027    1.0121    1.0357 H   0  0  0  0  0  0  0  0  0  0  0  0
    2.3549    1.8344    0.3352 H   0  0  0  0  0  0  0  0  0  0  0  0
   -4.2711    2.6422    0.8386 H   0  0  0  0  0  0  0  0  0  0  0  0
   -6.8222    3.2766    1.1289 H   0  0  0  0  0  0  0  0  0  0  0  0
   -8.3667    1.1796    0.7181 H   0  0  0  0  0  0  0  0  0  0  0  0
   -4.3976   -2.0019   -0.4456 H   0  0  0  0  0  0  0  0  0  0  0  0
    1.8910   -2.7194   -0.5943 H   0  0  0  0  0  0  0  0  0  0  0  0
    0.4011   -3.4968   -0.5083 H   0  0  0  0  0  0  0  0  0  0  0  0
  1  2  1  0
  2  3  2  0
  3  4  1  0
  4  5  2  0
  5  6  1  0
  6  7  1  0
  7  8  2  0
  7  9  1  0
  9 10  1  0
 10 11  1  0
 11 12  2  0
 12 13  1  0
 13 14  1  0
 14 15  2  0
 15 16  1  0
 16 17  2  0
 17 18  1  0
 13 19  2  0
 19 20  1  0
 20 21  1  0
 21 22  1  0
 21 23  1  0
 21 24  1  0
 20 25  2  0
 25 26  1  0
 26 27  1  0
  5 28  1  0
 28  2  1  0
 26  9  2  0
 25 11  1  0
 18 14  1  0
  1 29  1  0
  1 30  1  0
  1 31  1  0
  6 32  1  0
 15 33  1  0
 16 34  1  0
 17 35  1  0
 19 36  1  0
 27 37  1  0
 27 38  1  0
M  END
$$$$
