
     RDKit          3D

 57 60  0  0  0  0  0  0  0  0999 V2000
    6.4419    2.7695   -0.1588 C   0  0  0  0  0  0  0  0  0  0  0  0
    5.1875    2.1614    0.1199 O   0  0  0  0  0  0  0  0  0  0  0  0
    5.1209    0.7930    0.0582 C   0  0  0  0  0  0  0  0  0  0  0  0
    6.2263   -0.0478   -0.1024 C   0  0  0  0  0  0  0  0  0  0  0  0
    6.0575   -1.4324   -0.1666 C   0  0  0  0  0  0  0  0  0  0  0  0
    4.7811   -1.9873   -0.0859 C   0  0  0  0  0  0  0  0  0  0  0  0
    3.6562   -1.1646    0.0664 C   0  0  0  0  0  0  0  0  0  0  0  0
    2.3257   -1.8387    0.1173 C   0  0  0  0  0  0  0  0  0  0  0  0
    2.2452   -3.0205    0.4369 O   0  0  0  0  0  0  0  0  0  0  0  0
    1.2305   -1.0818   -0.2247 N   0  0  0  0  0  0  0  0  0  0  0  0
   -0.1186   -1.5832   -0.0825 C   0  0  0  0  0  0  0  0  0  0  0  0
   -0.5739   -1.5112    1.3948 C   0  0  0  0  0  0  0  0  0  0  0  0
   -2.1176   -1.5891    1.5819 C   0  0  0  0  0  0  0  0  0  0  0  0
   -2.4421   -1.4552    3.0820 C   0  0  0  0  0  0  0  0  0  0  0  0
   -2.6541   -2.9524    1.0997 C   0  0  0  0  0  0  0  0  0  0  0  0
   -2.8187   -0.4246    0.8127 C   0  0  0  0  0  0  0  0  0  0  0  0
   -2.2285   -0.2347   -0.5458 C   0  0  0  0  0  0  0  0  0  0  0  0
   -1.0169   -0.7691   -0.9489 C   0  0  0  0  0  0  0  0  0  0  0  0
   -0.9234   -0.4514   -2.3075 C   0  0  0  0  0  0  0  0  0  0  0  0
   -1.9684    0.2518   -2.7355 N   0  0  0  0  0  0  0  0  0  0  0  0
   -2.7575    0.4422   -1.6379 N   0  0  0  0  0  0  0  0  0  0  0  0
   -3.9276    1.2534   -1.7682 C   0  0  0  0  0  0  0  0  0  0  0  0
   -4.6634    1.7102   -0.6665 C   0  0  0  0  0  0  0  0  0  0  0  0
   -5.8032    2.5048   -0.8506 C   0  0  0  0  0  0  0  0  0  0  0  0
   -6.2133    2.8561   -2.1335 C   0  0  0  0  0  0  0  0  0  0  0  0
   -5.4771    2.4188   -3.2254 C   0  0  0  0  0  0  0  0  0  0  0  0
   -5.8666    2.7619   -4.4603 F   0  0  0  0  0  0  0  0  0  0  0  0
   -4.3435    1.6307   -3.0576 C   0  0  0  0  0  0  0  0  0  0  0  0
    3.8363    0.2251    0.1746 C   0  0  0  0  0  0  0  0  0  0  0  0
    2.7429    1.0475    0.3433 O   0  0  0  0  0  0  0  0  0  0  0  0
    2.6296    1.4429    1.7137 C   0  0  0  0  0  0  0  0  0  0  0  0
    6.8053    2.4941   -1.1544 H   0  0  0  0  0  0  0  0  0  0  0  0
    6.2973    3.8541   -0.1459 H   0  0  0  0  0  0  0  0  0  0  0  0
    7.1769    2.5233    0.6143 H   0  0  0  0  0  0  0  0  0  0  0  0
    7.2362    0.3421   -0.1785 H   0  0  0  0  0  0  0  0  0  0  0  0
    6.9220   -2.0812   -0.2890 H   0  0  0  0  0  0  0  0  0  0  0  0
    4.6632   -3.0679   -0.1521 H   0  0  0  0  0  0  0  0  0  0  0  0
    1.3656   -0.0836   -0.3586 H   0  0  0  0  0  0  0  0  0  0  0  0
   -0.1421   -2.6270   -0.4192 H   0  0  0  0  0  0  0  0  0  0  0  0
   -0.2190   -0.5671    1.8346 H   0  0  0  0  0  0  0  0  0  0  0  0
   -0.0794   -2.3083    1.9655 H   0  0  0  0  0  0  0  0  0  0  0  0
   -3.5234   -1.4869    3.2567 H   0  0  0  0  0  0  0  0  0  0  0  0
   -1.9852   -2.2667    3.6596 H   0  0  0  0  0  0  0  0  0  0  0  0
   -2.0673   -0.5083    3.4866 H   0  0  0  0  0  0  0  0  0  0  0  0
   -3.7280   -3.0436    1.2995 H   0  0  0  0  0  0  0  0  0  0  0  0
   -2.5115   -3.1010    0.0250 H   0  0  0  0  0  0  0  0  0  0  0  0
   -2.1503   -3.7764    1.6177 H   0  0  0  0  0  0  0  0  0  0  0  0
   -3.8921   -0.6348    0.7474 H   0  0  0  0  0  0  0  0  0  0  0  0
   -2.6819    0.5073    1.3754 H   0  0  0  0  0  0  0  0  0  0  0  0
   -0.1423   -0.7144   -3.0100 H   0  0  0  0  0  0  0  0  0  0  0  0
   -4.3724    1.5063    0.3553 H   0  0  0  0  0  0  0  0  0  0  0  0
   -6.3647    2.8568    0.0119 H   0  0  0  0  0  0  0  0  0  0  0  0
   -7.0930    3.4720   -2.2896 H   0  0  0  0  0  0  0  0  0  0  0  0
   -3.8043    1.3136   -3.9471 H   0  0  0  0  0  0  0  0  0  0  0  0
    1.6705    1.9563    1.8315 H   0  0  0  0  0  0  0  0  0  0  0  0
    3.4225    2.1418    1.9970 H   0  0  0  0  0  0  0  0  0  0  0  0
    2.6302    0.5741    2.3817 H   0  0  0  0  0  0  0  0  0  0  0  0
  1  2  1  0
  2  3  1  0
  3  4  2  0
  4  5  1  0
  5  6  2  0
  6  7  1  0
  7  8  1  0
  8  9  2  0
  8 10  1  0
 10 11  1  0
 11 12  1  0
 12 13  1  0
 13 14  1  0
 13 15  1  0
 13 16  1  0
 16 17  1  0
 17 18  2  0
 18 19  1  0
 19 20  2  0
 20 21  1  0
 21 22  1  0
 22 23  2  0
 23 24  1  0
 24 25  2  0
 25 26  1  0
 26 27  1  0
 26 28  2  0
  7 29  2  0
 29 30  1  0
 30 31  1  0
 29  3  1  0
 18 11  1  0
 28 22  1  0
 21 17  1  0
  1 32  1  0
  1 33  1  0
  1 34  1  0
  4 35  1  0
  5 36  1  0
  6 37  1  0
 10 38  1  0
 11 39  1  0
 12 40  1  0
 12 41  1  0
 14 42  1  0
 14 43  1  0
 14 44  1  0
 15 45  1  0
 15 46  1  0
 15 47  1  0
 16 48  1  0
 16 49  1  0
 19 50  1  0
 23 51  1  0
 24 52  1  0
 25 53  1  0
 28 54  1  0
 31 55  1  0
 31 56  1  0
 31 57  1  0
M  END
$$$$
