
     RDKit          3D

 35 36  0  0  0  0  0  0  0  0999 V2000
   -5.8695   -0.1616   -0.2994 C   0  0  0  0  0  0  0  0  0  0  0  0
   -4.3883   -0.0727   -0.0821 C   0  0  0  0  0  0  0  0  0  0  0  0
   -3.5081   -0.0985   -1.1687 C   0  0  0  0  0  0  0  0  0  0  0  0
   -2.1229   -0.0482   -0.9700 C   0  0  0  0  0  0  0  0  0  0  0  0
   -1.5962    0.0316    0.3235 C   0  0  0  0  0  0  0  0  0  0  0  0
   -0.1889    0.0744    0.5713 N   0  0  0  0  0  0  0  0  0  0  0  0
    0.2654   -0.2344    1.8159 N   0  0  0  0  0  0  0  0  0  0  0  0
    1.5851   -0.3527    1.6834 C   0  0  0  0  0  0  0  0  0  0  0  0
    2.4033   -0.7932    2.8410 C   0  0  0  0  0  0  0  0  0  0  0  0
    2.0200   -0.0083    0.3791 C   0  0  0  0  0  0  0  0  0  0  0  0
    3.3422   -0.0187   -0.0385 N   0  0  0  0  0  0  0  0  0  0  0  0
    3.8130   -0.0258   -1.3375 C   0  0  0  0  0  0  0  0  0  0  0  0
    3.1281   -0.0415   -2.3577 O   0  0  0  0  0  0  0  0  0  0  0  0
    5.3283    0.0420   -1.4495 C   0  0  0  0  0  0  0  0  0  0  0  0
    6.1366   -0.7436   -0.0709 Cl  0  0  0  0  0  0  0  0  0  0  0  0
    0.8712    0.4028   -0.2745 C   0  0  0  0  0  0  0  0  0  0  0  0
    0.7049    1.1543   -1.5480 C   0  0  0  0  0  0  0  0  0  0  0  0
   -2.4802    0.0148    1.4147 C   0  0  0  0  0  0  0  0  0  0  0  0
   -3.8628   -0.0338    1.2123 C   0  0  0  0  0  0  0  0  0  0  0  0
   -6.1542    0.3102   -1.2458 H   0  0  0  0  0  0  0  0  0  0  0  0
   -6.1830   -1.2099   -0.3180 H   0  0  0  0  0  0  0  0  0  0  0  0
   -6.4130    0.3567    0.4977 H   0  0  0  0  0  0  0  0  0  0  0  0
   -3.8947   -0.1713   -2.1833 H   0  0  0  0  0  0  0  0  0  0  0  0
   -1.4907   -0.1237   -1.8472 H   0  0  0  0  0  0  0  0  0  0  0  0
    2.9718   -1.6933    2.5856 H   0  0  0  0  0  0  0  0  0  0  0  0
    1.7813   -1.0237    3.7122 H   0  0  0  0  0  0  0  0  0  0  0  0
    3.1096   -0.0078    3.1283 H   0  0  0  0  0  0  0  0  0  0  0  0
    4.0280   -0.2483    0.6747 H   0  0  0  0  0  0  0  0  0  0  0  0
    5.6410    1.0887   -1.4878 H   0  0  0  0  0  0  0  0  0  0  0  0
    5.6484   -0.4758   -2.3575 H   0  0  0  0  0  0  0  0  0  0  0  0
   -0.1656    1.8171   -1.5177 H   0  0  0  0  0  0  0  0  0  0  0  0
    0.6070    0.4750   -2.3992 H   0  0  0  0  0  0  0  0  0  0  0  0
    1.5626    1.8122   -1.7232 H   0  0  0  0  0  0  0  0  0  0  0  0
   -2.1059    0.0494    2.4365 H   0  0  0  0  0  0  0  0  0  0  0  0
   -4.5238   -0.0427    2.0762 H   0  0  0  0  0  0  0  0  0  0  0  0
  1  2  1  0
  2  3  2  0
  3  4  1  0
  4  5  2  0
  5  6  1  0
  6  7  1  0
  7  8  2  0
  8  9  1  0
  8 10  1  0
 10 11  1  0
 11 12  1  0
 12 13  2  0
 12 14  1  0
 14 15  1  0
 10 16  2  0
 16 17  1  0
  5 18  1  0
 18 19  2  0
 19  2  1  0
 16  6  1  0
  1 20  1  0
  1 21  1  0
  1 22  1  0
  3 23  1  0
  4 24  1  0
  9 25  1  0
  9 26  1  0
  9 27  1  0
 11 28  1  0
 14 29  1  0
 14 30  1  0
 17 31  1  0
 17 32  1  0
 17 33  1  0
 18 34  1  0
 19 35  1  0
M  END
$$$$
