
     RDKit          3D

 67 72  0  0  0  0  0  0  0  0999 V2000
    1.6128    1.4070    2.4952 O   0  0  0  0  0  0  0  0  0  0  0  0
    2.0051    0.4738    1.7914 C   0  0  0  0  0  0  0  0  0  0  0  0
    1.0135   -0.3804    1.0079 C   0  0  0  0  0  0  0  0  0  0  0  0
    0.5993   -1.5960    1.8439 C   0  0  0  0  0  0  0  0  0  0  0  0
   -0.4273   -2.4292    1.0856 C   0  0  0  0  0  0  0  0  0  0  0  0
   -1.6400   -1.5962    0.6650 C   0  0  0  0  0  0  0  0  0  0  0  0
   -1.2067   -0.3987   -0.0645 N   0  0  0  0  0  0  0  0  0  0  0  0
   -2.2352    0.3664   -0.6612 C   0  0  0  0  0  0  0  0  0  0  0  0
   -1.8820    1.5383   -1.2780 N   0  0  0  0  0  0  0  0  0  0  0  0
   -2.8185    2.2931   -1.8859 C   0  0  0  0  0  0  0  0  0  0  0  0
   -4.1358    2.0581   -1.9877 N   0  0  0  0  0  0  0  0  0  0  0  0
   -4.4618    0.9075   -1.3788 C   0  0  0  0  0  0  0  0  0  0  0  0
   -3.6161    0.0281   -0.7171 C   0  0  0  0  0  0  0  0  0  0  0  0
   -4.3496   -1.0358   -0.2144 N   0  0  0  0  0  0  0  0  0  0  0  0
   -5.6014   -0.8142   -0.5658 C   0  0  0  0  0  0  0  0  0  0  0  0
   -5.7092    0.3549   -1.2788 N   0  0  0  0  0  0  0  0  0  0  0  0
   -6.9318    0.9109   -1.8153 C   0  0  0  0  0  0  0  0  0  0  0  0
   -7.9624    1.2364   -0.7366 C   0  0  0  0  0  0  0  0  0  0  0  0
   -8.6917    0.0083   -0.1875 C   0  0  0  0  0  0  0  0  0  0  0  0
   -7.8155   -0.9652    0.6049 C   0  0  0  0  0  0  0  0  0  0  0  0
   -6.7661   -1.6849   -0.2409 C   0  0  0  0  0  0  0  0  0  0  0  0
   -0.2246    0.4491    0.6416 C   0  0  0  0  0  0  0  0  0  0  0  0
    3.3460    0.1186    1.7365 N   0  0  0  0  0  0  0  0  0  0  0  0
    3.9097   -0.8818    0.8159 C   0  0  0  0  0  0  0  0  0  0  0  0
    5.3961   -1.1698    1.0829 C   0  0  0  0  0  0  0  0  0  0  0  0
    6.2029    0.0636    1.0438 N   0  0  0  0  0  0  0  0  0  0  0  0
    6.9905    0.3594   -0.0768 C   0  0  0  0  0  0  0  0  0  0  0  0
    6.7901   -0.2167   -1.3394 C   0  0  0  0  0  0  0  0  0  0  0  0
    7.5952    0.1211   -2.4353 C   0  0  0  0  0  0  0  0  0  0  0  0
    8.6283    1.0407   -2.2897 C   0  0  0  0  0  0  0  0  0  0  0  0
    8.8566    1.6203   -1.0477 C   0  0  0  0  0  0  0  0  0  0  0  0
    8.0462    1.2807    0.0416 C   0  0  0  0  0  0  0  0  0  0  0  0
    5.5700    1.2617    1.6572 C   0  0  0  0  0  0  0  0  0  0  0  0
    4.3285    0.9063    2.4963 C   0  0  0  0  0  0  0  0  0  0  0  0
    1.4707   -0.7151    0.0697 H   0  0  0  0  0  0  0  0  0  0  0  0
    1.4654   -2.2191    2.0913 H   0  0  0  0  0  0  0  0  0  0  0  0
    0.1742   -1.2680    2.8014 H   0  0  0  0  0  0  0  0  0  0  0  0
   -0.7563   -3.2696    1.7073 H   0  0  0  0  0  0  0  0  0  0  0  0
    0.0478   -2.8570    0.1933 H   0  0  0  0  0  0  0  0  0  0  0  0
   -2.2216   -1.3177    1.5531 H   0  0  0  0  0  0  0  0  0  0  0  0
   -2.2511   -2.2434    0.0261 H   0  0  0  0  0  0  0  0  0  0  0  0
   -2.4579    3.2062   -2.3500 H   0  0  0  0  0  0  0  0  0  0  0  0
   -7.3254    0.1976   -2.5487 H   0  0  0  0  0  0  0  0  0  0  0  0
   -6.6783    1.8286   -2.3576 H   0  0  0  0  0  0  0  0  0  0  0  0
   -8.7166    1.9002   -1.1773 H   0  0  0  0  0  0  0  0  0  0  0  0
   -7.4945    1.7906    0.0869 H   0  0  0  0  0  0  0  0  0  0  0  0
   -9.4915    0.3601    0.4765 H   0  0  0  0  0  0  0  0  0  0  0  0
   -9.1861   -0.5257   -1.0086 H   0  0  0  0  0  0  0  0  0  0  0  0
   -8.4781   -1.7240    1.0405 H   0  0  0  0  0  0  0  0  0  0  0  0
   -7.3429   -0.4416    1.4454 H   0  0  0  0  0  0  0  0  0  0  0  0
   -6.3989   -2.5516    0.3233 H   0  0  0  0  0  0  0  0  0  0  0  0
   -7.2109   -2.0780   -1.1626 H   0  0  0  0  0  0  0  0  0  0  0  0
    0.1161    1.2839    0.0157 H   0  0  0  0  0  0  0  0  0  0  0  0
   -0.6919    0.8820    1.5367 H   0  0  0  0  0  0  0  0  0  0  0  0
    3.7778   -0.4922   -0.2002 H   0  0  0  0  0  0  0  0  0  0  0  0
    3.3384   -1.8095    0.8984 H   0  0  0  0  0  0  0  0  0  0  0  0
    5.4970   -1.5952    2.0895 H   0  0  0  0  0  0  0  0  0  0  0  0
    5.7715   -1.9452    0.4062 H   0  0  0  0  0  0  0  0  0  0  0  0
    5.9842   -0.9214   -1.5140 H   0  0  0  0  0  0  0  0  0  0  0  0
    7.4078   -0.3340   -3.4041 H   0  0  0  0  0  0  0  0  0  0  0  0
    9.2522    1.3030   -3.1402 H   0  0  0  0  0  0  0  0  0  0  0  0
    9.6664    2.3337   -0.9181 H   0  0  0  0  0  0  0  0  0  0  0  0
    8.2643    1.7324    1.0060 H   0  0  0  0  0  0  0  0  0  0  0  0
    5.2567    1.9616    0.8710 H   0  0  0  0  0  0  0  0  0  0  0  0
    6.2951    1.7732    2.3005 H   0  0  0  0  0  0  0  0  0  0  0  0
    3.8804    1.8242    2.8889 H   0  0  0  0  0  0  0  0  0  0  0  0
    4.6208    0.2954    3.3583 H   0  0  0  0  0  0  0  0  0  0  0  0
  1  2  2  0
  2  3  1  0
  3  4  1  0
  4  5  1  0
  5  6  1  0
  6  7  1  0
  7  8  1  0
  8  9  2  0
  9 10  1  0
 10 11  2  0
 11 12  1  0
 12 13  2  0
 13 14  1  0
 14 15  2  0
 15 16  1  0
 16 17  1  0
 17 18  1  0
 18 19  1  0
 19 20  1  0
 20 21  1  0
  7 22  1  0
  2 23  1  0
 23 24  1  0
 24 25  1  0
 25 26  1  0
 26 27  1  0
 27 28  2  0
 28 29  1  0
 29 30  2  0
 30 31  1  0
 31 32  2  0
 26 33  1  0
 33 34  1  0
 22  3  1  0
 34 23  1  0
 13  8  1  0
 21 15  1  0
 32 27  1  0
 16 12  1  0
  3 35  1  0
  4 36  1  0
  4 37  1  0
  5 38  1  0
  5 39  1  0
  6 40  1  0
  6 41  1  0
 10 42  1  0
 17 43  1  0
 17 44  1  0
 18 45  1  0
 18 46  1  0
 19 47  1  0
 19 48  1  0
 20 49  1  0
 20 50  1  0
 21 51  1  0
 21 52  1  0
 22 53  1  0
 22 54  1  0
 24 55  1  0
 24 56  1  0
 25 57  1  0
 25 58  1  0
 28 59  1  0
 29 60  1  0
 30 61  1  0
 31 62  1  0
 32 63  1  0
 33 64  1  0
 33 65  1  0
 34 66  1  0
 34 67  1  0
M  END
$$$$
