
     RDKit          3D

 71 76  0  0  0  0  0  0  0  0999 V2000
   10.2453    3.2285    0.5835 C   0  0  0  0  0  0  0  0  0  0  0  0
    9.8735    1.8699    0.7783 O   0  0  0  0  0  0  0  0  0  0  0  0
    8.5840    1.5351    0.4765 C   0  0  0  0  0  0  0  0  0  0  0  0
    7.6028    2.3910   -0.0082 C   0  0  0  0  0  0  0  0  0  0  0  0
    6.3129    1.9058   -0.2766 C   0  0  0  0  0  0  0  0  0  0  0  0
    5.9581    0.5615   -0.0766 C   0  0  0  0  0  0  0  0  0  0  0  0
    4.6754    0.1044   -0.3412 N   0  0  0  0  0  0  0  0  0  0  0  0
    4.2008   -1.1945    0.1594 C   0  0  0  0  0  0  0  0  0  0  0  0
    2.6611   -1.2387    0.2157 C   0  0  0  0  0  0  0  0  0  0  0  0
    2.0130   -0.9041   -1.0596 N   0  0  0  0  0  0  0  0  0  0  0  0
    0.6541   -1.0320   -1.3215 C   0  0  0  0  0  0  0  0  0  0  0  0
    0.1693   -0.6303   -2.3809 O   0  0  0  0  0  0  0  0  0  0  0  0
   -0.2101   -1.7501   -0.2813 C   0  0  0  0  0  0  0  0  0  0  0  0
   -0.1259   -3.2658   -0.4679 C   0  0  0  0  0  0  0  0  0  0  0  0
   -0.8571   -3.7454   -1.7213 C   0  0  0  0  0  0  0  0  0  0  0  0
   -2.1204   -2.9493   -2.0600 C   0  0  0  0  0  0  0  0  0  0  0  0
   -2.6036   -2.2295   -0.8820 N   0  0  0  0  0  0  0  0  0  0  0  0
   -3.9477   -1.8077   -0.9712 C   0  0  0  0  0  0  0  0  0  0  0  0
   -4.8059   -2.5199   -1.7686 N   0  0  0  0  0  0  0  0  0  0  0  0
   -6.1028   -2.1635   -1.8570 C   0  0  0  0  0  0  0  0  0  0  0  0
   -6.7295   -1.1488   -1.2418 N   0  0  0  0  0  0  0  0  0  0  0  0
   -5.8765   -0.4676   -0.4615 C   0  0  0  0  0  0  0  0  0  0  0  0
   -4.5252   -0.7139   -0.2653 C   0  0  0  0  0  0  0  0  0  0  0  0
   -4.0049    0.2187    0.6202 N   0  0  0  0  0  0  0  0  0  0  0  0
   -5.0084    1.0079    0.9500 C   0  0  0  0  0  0  0  0  0  0  0  0
   -6.1626    0.6232    0.3127 N   0  0  0  0  0  0  0  0  0  0  0  0
   -7.4553    1.2589    0.4427 C   0  0  0  0  0  0  0  0  0  0  0  0
   -7.9924    1.2329    1.8717 C   0  0  0  0  0  0  0  0  0  0  0  0
   -7.3304    2.2532    2.8006 C   0  0  0  0  0  0  0  0  0  0  0  0
   -5.8513    1.9943    3.0974 C   0  0  0  0  0  0  0  0  0  0  0  0
   -4.9368    2.1646    1.8860 C   0  0  0  0  0  0  0  0  0  0  0  0
   -1.6669   -1.2488   -0.3062 C   0  0  0  0  0  0  0  0  0  0  0  0
    2.8621   -0.2127   -2.0366 C   0  0  0  0  0  0  0  0  0  0  0  0
    3.8541    0.7635   -1.3772 C   0  0  0  0  0  0  0  0  0  0  0  0
    6.9664   -0.2761    0.4198 C   0  0  0  0  0  0  0  0  0  0  0  0
    8.2575    0.1991    0.6891 C   0  0  0  0  0  0  0  0  0  0  0  0
    9.6577    3.8945    1.2242 H   0  0  0  0  0  0  0  0  0  0  0  0
   11.2963    3.3326    0.8707 H   0  0  0  0  0  0  0  0  0  0  0  0
   10.1582    3.5143   -0.4700 H   0  0  0  0  0  0  0  0  0  0  0  0
    7.7956    3.4433   -0.1856 H   0  0  0  0  0  0  0  0  0  0  0  0
    5.5735    2.6208   -0.6277 H   0  0  0  0  0  0  0  0  0  0  0  0
    4.5713   -1.9934   -0.4945 H   0  0  0  0  0  0  0  0  0  0  0  0
    4.5702   -1.3824    1.1744 H   0  0  0  0  0  0  0  0  0  0  0  0
    2.3380   -2.2298    0.5441 H   0  0  0  0  0  0  0  0  0  0  0  0
    2.3018   -0.5085    0.9511 H   0  0  0  0  0  0  0  0  0  0  0  0
    0.1843   -1.4890    0.7073 H   0  0  0  0  0  0  0  0  0  0  0  0
   -0.5773   -3.7495    0.4085 H   0  0  0  0  0  0  0  0  0  0  0  0
    0.9116   -3.6143   -0.5105 H   0  0  0  0  0  0  0  0  0  0  0  0
   -0.1809   -3.7135   -2.5845 H   0  0  0  0  0  0  0  0  0  0  0  0
   -1.1151   -4.8033   -1.5862 H   0  0  0  0  0  0  0  0  0  0  0  0
   -1.9122   -2.2381   -2.8691 H   0  0  0  0  0  0  0  0  0  0  0  0
   -2.8511   -3.6670   -2.4520 H   0  0  0  0  0  0  0  0  0  0  0  0
   -6.7160   -2.7774   -2.5096 H   0  0  0  0  0  0  0  0  0  0  0  0
   -7.3586    2.2833    0.0653 H   0  0  0  0  0  0  0  0  0  0  0  0
   -8.1590    0.7355   -0.2137 H   0  0  0  0  0  0  0  0  0  0  0  0
   -7.9007    0.2264    2.2984 H   0  0  0  0  0  0  0  0  0  0  0  0
   -9.0642    1.4652    1.8356 H   0  0  0  0  0  0  0  0  0  0  0  0
   -7.8731    2.2442    3.7543 H   0  0  0  0  0  0  0  0  0  0  0  0
   -7.4525    3.2619    2.3870 H   0  0  0  0  0  0  0  0  0  0  0  0
   -5.7289    0.9970    3.5383 H   0  0  0  0  0  0  0  0  0  0  0  0
   -5.5372    2.7162    3.8618 H   0  0  0  0  0  0  0  0  0  0  0  0
   -3.9026    2.2537    2.2412 H   0  0  0  0  0  0  0  0  0  0  0  0
   -5.1650    3.0950    1.3531 H   0  0  0  0  0  0  0  0  0  0  0  0
   -1.9461   -1.0923    0.7435 H   0  0  0  0  0  0  0  0  0  0  0  0
   -1.7430   -0.2815   -0.8185 H   0  0  0  0  0  0  0  0  0  0  0  0
    2.2589    0.3271   -2.7735 H   0  0  0  0  0  0  0  0  0  0  0  0
    3.4131   -0.9935   -2.5754 H   0  0  0  0  0  0  0  0  0  0  0  0
    3.2990    1.5869   -0.9116 H   0  0  0  0  0  0  0  0  0  0  0  0
    4.4835    1.1798   -2.1730 H   0  0  0  0  0  0  0  0  0  0  0  0
    6.7813   -1.3324    0.5897 H   0  0  0  0  0  0  0  0  0  0  0  0
    9.0124   -0.4865    1.0657 H   0  0  0  0  0  0  0  0  0  0  0  0
  1  2  1  0
  2  3  1  0
  3  4  2  0
  4  5  1  0
  5  6  2  0
  6  7  1  0
  7  8  1  0
  8  9  1  0
  9 10  1  0
 10 11  1  0
 11 12  2  0
 11 13  1  0
 13 14  1  0
 14 15  1  0
 15 16  1  0
 16 17  1  0
 17 18  1  0
 18 19  2  0
 19 20  1  0
 20 21  2  0
 21 22  1  0
 22 23  2  0
 23 24  1  0
 24 25  2  0
 25 26  1  0
 26 27  1  0
 27 28  1  0
 28 29  1  0
 29 30  1  0
 30 31  1  0
 17 32  1  0
 10 33  1  0
 33 34  1  0
  6 35  1  0
 35 36  2  0
 36  3  1  0
 34  7  1  0
 32 13  1  0
 23 18  1  0
 31 25  1  0
 26 22  1  0
  1 37  1  0
  1 38  1  0
  1 39  1  0
  4 40  1  0
  5 41  1  0
  8 42  1  0
  8 43  1  0
  9 44  1  0
  9 45  1  0
 13 46  1  0
 14 47  1  0
 14 48  1  0
 15 49  1  0
 15 50  1  0
 16 51  1  0
 16 52  1  0
 20 53  1  0
 27 54  1  0
 27 55  1  0
 28 56  1  0
 28 57  1  0
 29 58  1  0
 29 59  1  0
 30 60  1  0
 30 61  1  0
 31 62  1  0
 31 63  1  0
 32 64  1  0
 32 65  1  0
 33 66  1  0
 33 67  1  0
 34 68  1  0
 34 69  1  0
 35 70  1  0
 36 71  1  0
M  END
$$$$
