
     RDKit          3D

 40 41  0  0  0  0  0  0  0  0999 V2000
    1.0312    3.9102    0.9875 O   0  0  0  0  0  0  0  0  0  0  0  0
    1.2572    2.7192    0.8385 C   0  0  0  0  0  0  0  0  0  0  0  0
    1.8041    2.2675   -0.3028 O   0  0  0  0  0  0  0  0  0  0  0  0
    1.0384    1.6545    1.8721 C   0  0  0  0  0  0  0  0  0  0  0  0
    0.0883    0.5464    1.4142 C   0  0  0  0  0  0  0  0  0  0  0  0
   -1.1490    1.0452    0.7589 N   0  0  0  0  0  0  0  0  0  0  0  0
   -2.0960    1.6824    1.6808 C   0  0  0  0  0  0  0  0  0  0  0  0
   -2.7135    0.7216    2.6359 C   0  0  0  0  0  0  0  0  0  0  0  0
   -2.8863    0.7264    4.0046 C   0  0  0  0  0  0  0  0  0  0  0  0
   -3.5450   -0.4844    4.3280 C   0  0  0  0  0  0  0  0  0  0  0  0
   -3.7331   -1.1489    3.1392 C   0  0  0  0  0  0  0  0  0  0  0  0
   -3.2319   -0.4257    2.1055 O   0  0  0  0  0  0  0  0  0  0  0  0
    0.8335   -0.4578    0.5080 C   0  0  0  0  0  0  0  0  0  0  0  0
    2.0195   -0.7426    0.6232 O   0  0  0  0  0  0  0  0  0  0  0  0
   -0.0247   -1.0546   -0.3720 O   0  0  0  0  0  0  0  0  0  0  0  0
    0.5293   -2.0631   -1.2308 C   0  0  0  0  0  0  0  0  0  0  0  0
    0.7494   -1.5178   -2.6392 C   0  0  0  0  0  0  0  0  0  0  0  0
    1.8072   -0.4303   -2.7369 C   0  0  0  0  0  0  0  0  0  0  0  0
    2.2386   -0.5566   -4.1764 C   0  0  0  0  0  0  0  0  0  0  0  0
    2.2054   -2.0556   -4.3809 C   0  0  0  0  0  0  0  0  0  0  0  0
    1.1748   -2.5715   -3.5251 O   0  0  0  0  0  0  0  0  0  0  0  0
    1.8984    3.0721   -0.8543 H   0  0  0  0  0  0  0  0  0  0  0  0
    2.0186    1.2653    2.1698 H   0  0  0  0  0  0  0  0  0  0  0  0
    0.6239    2.1468    2.7605 H   0  0  0  0  0  0  0  0  0  0  0  0
   -0.1819   -0.0588    2.2896 H   0  0  0  0  0  0  0  0  0  0  0  0
   -1.6276    0.2363    0.3469 H   0  0  0  0  0  0  0  0  0  0  0  0
   -1.6231    2.5121    2.2167 H   0  0  0  0  0  0  0  0  0  0  0  0
   -2.8983    2.1284    1.0812 H   0  0  0  0  0  0  0  0  0  0  0  0
   -2.5758    1.5080    4.6841 H   0  0  0  0  0  0  0  0  0  0  0  0
   -3.8480   -0.8307    5.3062 H   0  0  0  0  0  0  0  0  0  0  0  0
   -4.1839   -2.0949    2.8725 H   0  0  0  0  0  0  0  0  0  0  0  0
   -0.1962   -2.8840   -1.2713 H   0  0  0  0  0  0  0  0  0  0  0  0
    1.4472   -2.5076   -0.8272 H   0  0  0  0  0  0  0  0  0  0  0  0
   -0.1998   -1.1289   -3.0296 H   0  0  0  0  0  0  0  0  0  0  0  0
    1.4218    0.5620   -2.4889 H   0  0  0  0  0  0  0  0  0  0  0  0
    2.6585   -0.6477   -2.0813 H   0  0  0  0  0  0  0  0  0  0  0  0
    3.2187   -0.1190   -4.3824 H   0  0  0  0  0  0  0  0  0  0  0  0
    1.5022   -0.0727   -4.8289 H   0  0  0  0  0  0  0  0  0  0  0  0
    1.9971   -2.3338   -5.4179 H   0  0  0  0  0  0  0  0  0  0  0  0
    3.1510   -2.5177   -4.0782 H   0  0  0  0  0  0  0  0  0  0  0  0
  1  2  2  0
  2  3  1  0
  2  4  1  0
  4  5  1  0
  5  6  1  0
  6  7  1  0
  7  8  1  0
  8  9  2  0
  9 10  1  0
 10 11  2  0
 11 12  1  0
  5 13  1  0
 13 14  2  0
 13 15  1  0
 15 16  1  0
 16 17  1  0
 17 18  1  0
 18 19  1  0
 19 20  1  0
 20 21  1  0
 12  8  1  0
 21 17  1  0
  3 22  1  0
  4 23  1  0
  4 24  1  0
  5 25  1  0
  6 26  1  0
  7 27  1  0
  7 28  1  0
  9 29  1  0
 10 30  1  0
 11 31  1  0
 16 32  1  0
 16 33  1  0
 17 34  1  0
 18 35  1  0
 18 36  1  0
 19 37  1  0
 19 38  1  0
 20 39  1  0
 20 40  1  0
M  END
$$$$
