
     RDKit          3D

 42 43  0  0  0  0  0  0  0  0999 V2000
   -3.3263    0.3393    0.7735 C   0  0  0  0  0  0  0  0  0  0  0  0
   -2.5594    1.3451   -0.1012 C   0  0  0  0  0  0  0  0  0  0  0  0
   -3.5499    2.4269   -0.5816 C   0  0  0  0  0  0  0  0  0  0  0  0
   -1.4788    2.0404    0.7408 C   0  0  0  0  0  0  0  0  0  0  0  0
   -1.9585    0.6587   -1.3550 C   0  0  0  0  0  0  0  0  0  0  0  0
   -1.1839   -0.5575   -1.0488 N   0  0  0  0  0  0  0  0  0  0  0  0
   -1.3288   -1.6385   -1.8781 C   0  0  0  0  0  0  0  0  0  0  0  0
   -2.5636   -2.1662   -1.9674 N   0  0  0  0  0  0  0  0  0  0  0  0
   -0.2879   -2.1271   -2.4828 N   0  0  0  0  0  0  0  0  0  0  0  0
    0.7958   -1.1745   -2.1127 C   0  0  0  0  0  0  0  0  0  0  0  0
    0.2747   -0.3900   -0.8908 C   0  0  0  0  0  0  0  0  0  0  0  0
    0.7247   -1.0423    0.4330 C   0  0  0  0  0  0  0  0  0  0  0  0
    2.1615   -0.7328    0.7873 C   0  0  0  0  0  0  0  0  0  0  0  0
    3.1573   -1.7097    0.6421 C   0  0  0  0  0  0  0  0  0  0  0  0
    4.4871   -1.4216    0.9579 C   0  0  0  0  0  0  0  0  0  0  0  0
    4.8206   -0.1541    1.4224 C   0  0  0  0  0  0  0  0  0  0  0  0
    6.1056    0.1706    1.7418 O   0  0  0  0  0  0  0  0  0  0  0  0
    3.8479    0.8254    1.5769 C   0  0  0  0  0  0  0  0  0  0  0  0
    2.5194    0.5377    1.2612 C   0  0  0  0  0  0  0  0  0  0  0  0
   -2.6601   -0.4212    1.1948 H   0  0  0  0  0  0  0  0  0  0  0  0
   -4.1020   -0.1752    0.1954 H   0  0  0  0  0  0  0  0  0  0  0  0
   -3.8179    0.8425    1.6140 H   0  0  0  0  0  0  0  0  0  0  0  0
   -4.0022    2.9568    0.2645 H   0  0  0  0  0  0  0  0  0  0  0  0
   -4.3643    1.9875   -1.1687 H   0  0  0  0  0  0  0  0  0  0  0  0
   -3.0475    3.1707   -1.2105 H   0  0  0  0  0  0  0  0  0  0  0  0
   -1.9278    2.6329    1.5464 H   0  0  0  0  0  0  0  0  0  0  0  0
   -0.8063    1.3228    1.2135 H   0  0  0  0  0  0  0  0  0  0  0  0
   -0.8744    2.7191    0.1289 H   0  0  0  0  0  0  0  0  0  0  0  0
   -1.3398    1.3686   -1.9201 H   0  0  0  0  0  0  0  0  0  0  0  0
   -2.7862    0.4014   -2.0300 H   0  0  0  0  0  0  0  0  0  0  0  0
   -2.5318   -3.0863   -2.3923 H   0  0  0  0  0  0  0  0  0  0  0  0
   -3.0434   -2.1749   -1.0771 H   0  0  0  0  0  0  0  0  0  0  0  0
    1.7258   -1.7152   -1.9190 H   0  0  0  0  0  0  0  0  0  0  0  0
    0.9638   -0.4998   -2.9607 H   0  0  0  0  0  0  0  0  0  0  0  0
    0.5902    0.6584   -0.9400 H   0  0  0  0  0  0  0  0  0  0  0  0
    0.5760   -2.1300    0.3958 H   0  0  0  0  0  0  0  0  0  0  0  0
    0.0911   -0.7034    1.2616 H   0  0  0  0  0  0  0  0  0  0  0  0
    2.9027   -2.7038    0.2789 H   0  0  0  0  0  0  0  0  0  0  0  0
    5.2401   -2.1936    0.8356 H   0  0  0  0  0  0  0  0  0  0  0  0
    6.6664   -0.6082    1.5927 H   0  0  0  0  0  0  0  0  0  0  0  0
    4.1229    1.8097    1.9448 H   0  0  0  0  0  0  0  0  0  0  0  0
    1.7670    1.3115    1.3931 H   0  0  0  0  0  0  0  0  0  0  0  0
  1  2  1  0
  2  3  1  0
  2  4  1  0
  2  5  1  0
  5  6  1  0
  6  7  1  0
  7  8  1  0
  7  9  2  0
  9 10  1  0
 10 11  1  0
 11 12  1  0
 12 13  1  0
 13 14  2  0
 14 15  1  0
 15 16  2  0
 16 17  1  0
 16 18  1  0
 18 19  2  0
 11  6  1  0
 19 13  1  0
  1 20  1  0
  1 21  1  0
  1 22  1  0
  3 23  1  0
  3 24  1  0
  3 25  1  0
  4 26  1  0
  4 27  1  0
  4 28  1  0
  5 29  1  0
  5 30  1  0
  8 31  1  0
  8 32  1  0
 10 33  1  0
 10 34  1  0
 11 35  1  0
 12 36  1  0
 12 37  1  0
 14 38  1  0
 15 39  1  0
 17 40  1  0
 18 41  1  0
 19 42  1  0
M  END
$$$$
