
     RDKit          3D

 46 49  0  0  0  0  0  0  0  0999 V2000
    5.4067   -1.5782    3.1220 N   0  0  0  0  0  0  0  0  0  0  0  0
    5.7667   -0.5515    1.8350 S   0  0  0  0  0  6  0  0  0  0  0  0
    6.2377    0.6764    2.4330 O   0  0  0  0  0  0  0  0  0  0  0  0
    6.5490   -1.3012    0.8808 O   0  0  0  0  0  0  0  0  0  0  0  0
    4.1580   -0.2648    1.1527 C   0  0  0  0  0  0  0  0  0  0  0  0
    3.7186   -1.0237    0.0708 C   0  0  0  0  0  0  0  0  0  0  0  0
    2.4430   -0.7958   -0.4612 C   0  0  0  0  0  0  0  0  0  0  0  0
    1.5858    0.1846    0.0666 C   0  0  0  0  0  0  0  0  0  0  0  0
    0.3086    0.4142   -0.4405 N   0  0  0  0  0  0  0  0  0  0  0  0
   -0.4942    1.3796    0.0970 N   0  0  0  0  0  0  0  0  0  0  0  0
   -1.5490    1.4669   -0.6557 C   0  0  0  0  0  0  0  0  0  0  0  0
   -2.6667    2.3992   -0.3791 C   0  0  0  0  0  0  0  0  0  0  0  0
   -3.7441    2.5335   -1.2624 C   0  0  0  0  0  0  0  0  0  0  0  0
   -4.7810    3.4240   -0.9706 C   0  0  0  0  0  0  0  0  0  0  0  0
   -4.7468    4.1798    0.2003 C   0  0  0  0  0  0  0  0  0  0  0  0
   -3.6742    4.0524    1.0809 C   0  0  0  0  0  0  0  0  0  0  0  0
   -2.6362    3.1644    0.7930 C   0  0  0  0  0  0  0  0  0  0  0  0
   -1.5468    0.5680   -1.8613 C   0  0  0  0  0  0  0  0  0  0  0  0
   -0.3169   -0.2917   -1.5612 C   0  0  0  0  0  0  0  0  0  0  0  0
   -0.7221   -1.7214   -1.2274 C   0  0  0  0  0  0  0  0  0  0  0  0
   -0.7022   -2.6983   -2.2377 C   0  0  0  0  0  0  0  0  0  0  0  0
   -1.0862   -4.0141   -1.9689 C   0  0  0  0  0  0  0  0  0  0  0  0
   -1.5026   -4.3720   -0.6880 C   0  0  0  0  0  0  0  0  0  0  0  0
   -1.5337   -3.4106    0.3192 C   0  0  0  0  0  0  0  0  0  0  0  0
   -2.0944   -3.8924    2.0588 Br  0  0  0  0  0  0  0  0  0  0  0  0
   -1.1538   -2.0942    0.0569 C   0  0  0  0  0  0  0  0  0  0  0  0
    2.0744    0.9424    1.1488 C   0  0  0  0  0  0  0  0  0  0  0  0
    3.3475    0.7323    1.6886 C   0  0  0  0  0  0  0  0  0  0  0  0
    5.6413   -1.1040    3.9952 H   0  0  0  0  0  0  0  0  0  0  0  0
    4.4390   -1.9025    3.1153 H   0  0  0  0  0  0  0  0  0  0  0  0
    4.3535   -1.7921   -0.3667 H   0  0  0  0  0  0  0  0  0  0  0  0
    2.1355   -1.4086   -1.3026 H   0  0  0  0  0  0  0  0  0  0  0  0
   -3.7963    1.9655   -2.1853 H   0  0  0  0  0  0  0  0  0  0  0  0
   -5.6155    3.5308   -1.6594 H   0  0  0  0  0  0  0  0  0  0  0  0
   -5.5544    4.8723    0.4248 H   0  0  0  0  0  0  0  0  0  0  0  0
   -3.6431    4.6444    1.9925 H   0  0  0  0  0  0  0  0  0  0  0  0
   -1.8044    3.0752    1.4889 H   0  0  0  0  0  0  0  0  0  0  0  0
   -1.3894    1.1803   -2.7558 H   0  0  0  0  0  0  0  0  0  0  0  0
   -2.4775    0.0009   -1.9532 H   0  0  0  0  0  0  0  0  0  0  0  0
    0.3505   -0.2877   -2.4322 H   0  0  0  0  0  0  0  0  0  0  0  0
   -0.3801   -2.4408   -3.2458 H   0  0  0  0  0  0  0  0  0  0  0  0
   -1.0574   -4.7611   -2.7596 H   0  0  0  0  0  0  0  0  0  0  0  0
   -1.7983   -5.3976   -0.4848 H   0  0  0  0  0  0  0  0  0  0  0  0
   -1.1845   -1.3543    0.8558 H   0  0  0  0  0  0  0  0  0  0  0  0
    1.4492    1.7222    1.5800 H   0  0  0  0  0  0  0  0  0  0  0  0
    3.6868    1.3496    2.5171 H   0  0  0  0  0  0  0  0  0  0  0  0
  1  2  1  0
  2  3  2  0
  2  4  2  0
  2  5  1  0
  5  6  2  0
  6  7  1  0
  7  8  2  0
  8  9  1  0
  9 10  1  0
 10 11  2  0
 11 12  1  0
 12 13  2  0
 13 14  1  0
 14 15  2  0
 15 16  1  0
 16 17  2  0
 11 18  1  0
 18 19  1  0
 19 20  1  0
 20 21  2  0
 21 22  1  0
 22 23  2  0
 23 24  1  0
 24 25  1  0
 24 26  2  0
  8 27  1  0
 27 28  2  0
 28  5  1  0
 19  9  1  0
 26 20  1  0
 17 12  1  0
  1 29  1  0
  1 30  1  0
  6 31  1  0
  7 32  1  0
 13 33  1  0
 14 34  1  0
 15 35  1  0
 16 36  1  0
 17 37  1  0
 18 38  1  0
 18 39  1  0
 19 40  1  0
 21 41  1  0
 22 42  1  0
 23 43  1  0
 26 44  1  0
 27 45  1  0
 28 46  1  0
M  END
$$$$
