
     RDKit          3D

 32 34  0  0  0  0  0  0  0  0999 V2000
    6.2456    0.8986    0.0495 O   0  0  0  0  0  0  0  0  0  0  0  0
    4.9502    0.4805   -0.0132 C   0  0  0  0  0  0  0  0  0  0  0  0
    4.2756    0.2834    1.1855 C   0  0  0  0  0  0  0  0  0  0  0  0
    2.9464   -0.1456    1.1681 C   0  0  0  0  0  0  0  0  0  0  0  0
    2.2845   -0.3698   -0.0484 C   0  0  0  0  0  0  0  0  0  0  0  0
    0.9557   -0.8323   -0.1188 N   0  0  0  0  0  0  0  0  0  0  0  0
    0.1984   -0.1565    0.6117 N   0  0  0  0  0  0  0  0  0  0  0  0
   -1.1428   -0.5912    0.4841 C   0  0  0  0  0  0  0  0  0  0  0  0
   -1.5224   -1.8647    0.9467 C   0  0  0  0  0  0  0  0  0  0  0  0
   -0.6001   -2.7266    1.4824 O   0  0  0  0  0  0  0  0  0  0  0  0
   -2.8370   -2.3019    0.8803 C   0  0  0  0  0  0  0  0  0  0  0  0
   -3.8088   -1.4603    0.3445 C   0  0  0  0  0  0  0  0  0  0  0  0
   -3.4752   -0.1780   -0.1219 C   0  0  0  0  0  0  0  0  0  0  0  0
   -4.4640    0.6653   -0.6545 C   0  0  0  0  0  0  0  0  0  0  0  0
   -4.1457    1.9429   -1.1149 C   0  0  0  0  0  0  0  0  0  0  0  0
   -2.8338    2.3959   -1.0493 C   0  0  0  0  0  0  0  0  0  0  0  0
   -1.8382    1.5704   -0.5237 C   0  0  0  0  0  0  0  0  0  0  0  0
   -2.1314    0.2720   -0.0515 C   0  0  0  0  0  0  0  0  0  0  0  0
    2.9889   -0.1758   -1.2434 C   0  0  0  0  0  0  0  0  0  0  0  0
    4.3194    0.2532   -1.2314 C   0  0  0  0  0  0  0  0  0  0  0  0
    6.5878    0.9948   -0.8545 H   0  0  0  0  0  0  0  0  0  0  0  0
    4.7813    0.4608    2.1305 H   0  0  0  0  0  0  0  0  0  0  0  0
    2.4266   -0.3031    2.1095 H   0  0  0  0  0  0  0  0  0  0  0  0
    0.2692   -2.3024    1.3445 H   0  0  0  0  0  0  0  0  0  0  0  0
   -3.1026   -3.2906    1.2426 H   0  0  0  0  0  0  0  0  0  0  0  0
   -4.8368   -1.8141    0.2964 H   0  0  0  0  0  0  0  0  0  0  0  0
   -5.4981    0.3316   -0.7138 H   0  0  0  0  0  0  0  0  0  0  0  0
   -4.9235    2.5829   -1.5234 H   0  0  0  0  0  0  0  0  0  0  0  0
   -2.5811    3.3910   -1.4061 H   0  0  0  0  0  0  0  0  0  0  0  0
   -0.8182    1.9495   -0.4855 H   0  0  0  0  0  0  0  0  0  0  0  0
    2.4911   -0.3596   -2.1927 H   0  0  0  0  0  0  0  0  0  0  0  0
    4.8389    0.3999   -2.1730 H   0  0  0  0  0  0  0  0  0  0  0  0
  1  2  1  0
  2  3  2  0
  3  4  1  0
  4  5  2  0
  5  6  1  0
  6  7  2  3
  7  8  1  0
  8  9  2  0
  9 10  1  0
  9 11  1  0
 11 12  2  0
 12 13  1  0
 13 14  2  0
 14 15  1  0
 15 16  2  0
 16 17  1  0
 17 18  2  0
  5 19  1  0
 19 20  2  0
 20  2  1  0
 18  8  1  0
 18 13  1  0
  1 21  1  0
  3 22  1  0
  4 23  1  0
 10 24  1  0
 11 25  1  0
 12 26  1  0
 14 27  1  0
 15 28  1  0
 16 29  1  0
 17 30  1  0
 19 31  1  0
 20 32  1  0
M  END
$$$$
