
     RDKit          3D

 56 59  0  0  0  0  0  0  0  0999 V2000
   -2.1253    3.8974    3.6595 C   0  0  0  0  0  0  0  0  0  0  0  0
   -2.6994    2.7418    2.8573 C   0  0  0  0  0  0  0  0  0  0  0  0
   -1.6449    1.8825    2.3168 N   0  0  0  0  0  0  0  0  0  0  0  0
   -1.1129    2.2455    0.9981 C   0  0  0  0  0  0  0  0  0  0  0  0
   -1.7934    1.4540   -0.1281 C   0  0  0  0  0  0  0  0  0  0  0  0
   -3.0019    1.7920   -0.4601 N   0  0  0  0  0  0  0  0  0  0  0  0
   -3.6424    1.1011   -1.4668 C   0  0  0  0  0  0  0  0  0  0  0  0
   -4.7834    1.3752   -1.8282 O   0  0  0  0  0  0  0  0  0  0  0  0
   -2.9416   -0.0159   -2.1524 C   0  0  0  0  0  0  0  0  0  0  0  0
   -3.5496   -0.7463   -3.1792 C   0  0  0  0  0  0  0  0  0  0  0  0
   -2.8455   -1.7853   -3.7924 C   0  0  0  0  0  0  0  0  0  0  0  0
   -1.5492   -2.0861   -3.3714 C   0  0  0  0  0  0  0  0  0  0  0  0
   -0.6846   -3.3741   -4.1153 Cl  0  0  0  0  0  0  0  0  0  0  0  0
   -0.9466   -1.3562   -2.3462 C   0  0  0  0  0  0  0  0  0  0  0  0
   -1.6413   -0.3133   -1.7340 C   0  0  0  0  0  0  0  0  0  0  0  0
   -1.0717    0.4421   -0.7124 N   0  0  0  0  0  0  0  0  0  0  0  0
   -1.2479    0.7882    3.0830 C   0  0  0  0  0  0  0  0  0  0  0  0
   -1.6673    0.5520    4.2133 O   0  0  0  0  0  0  0  0  0  0  0  0
   -0.3240   -0.2000    2.4978 C   0  0  0  0  0  0  0  0  0  0  0  0
   -0.8339   -1.4567    2.1633 C   0  0  0  0  0  0  0  0  0  0  0  0
    0.0096   -2.4117    1.6026 C   0  0  0  0  0  0  0  0  0  0  0  0
    1.3552   -2.1085    1.3726 C   0  0  0  0  0  0  0  0  0  0  0  0
    1.8628   -0.8502    1.7060 C   0  0  0  0  0  0  0  0  0  0  0  0
    3.1467   -0.4278    1.4968 O   0  0  0  0  0  0  0  0  0  0  0  0
    3.9169   -1.0952    0.4853 C   0  0  0  0  0  0  0  0  0  0  0  0
    3.4011   -0.8674   -0.8934 C   0  0  0  0  0  0  0  0  0  0  0  0
    3.0771    0.3774   -1.5053 C   0  0  0  0  0  0  0  0  0  0  0  0
    3.1902    1.7481   -0.9460 C   0  0  0  0  0  0  0  0  0  0  0  0
    2.5935    0.1993   -2.7420 N   0  0  0  0  0  0  0  0  0  0  0  0
    2.6409   -1.1601   -2.9758 O   0  0  0  0  0  0  0  0  0  0  0  0
    3.1199   -1.7973   -1.8747 C   0  0  0  0  0  0  0  0  0  0  0  0
    3.2032   -3.2689   -1.9778 C   0  0  0  0  0  0  0  0  0  0  0  0
    1.0270    0.0944    2.3054 C   0  0  0  0  0  0  0  0  0  0  0  0
   -1.4907    4.5311    3.0324 H   0  0  0  0  0  0  0  0  0  0  0  0
   -1.5160    3.5334    4.4932 H   0  0  0  0  0  0  0  0  0  0  0  0
   -2.9308    4.5183    4.0693 H   0  0  0  0  0  0  0  0  0  0  0  0
   -3.3140    3.1177    2.0334 H   0  0  0  0  0  0  0  0  0  0  0  0
   -3.3588    2.1510    3.5025 H   0  0  0  0  0  0  0  0  0  0  0  0
   -1.2748    3.3152    0.8251 H   0  0  0  0  0  0  0  0  0  0  0  0
   -0.0350    2.0786    0.9654 H   0  0  0  0  0  0  0  0  0  0  0  0
   -4.5623   -0.5060   -3.5020 H   0  0  0  0  0  0  0  0  0  0  0  0
   -3.3113   -2.3533   -4.5943 H   0  0  0  0  0  0  0  0  0  0  0  0
    0.0638   -1.5992   -2.0351 H   0  0  0  0  0  0  0  0  0  0  0  0
   -0.1299    0.2194   -0.4151 H   0  0  0  0  0  0  0  0  0  0  0  0
   -1.8818   -1.6880    2.3476 H   0  0  0  0  0  0  0  0  0  0  0  0
   -0.3791   -3.3964    1.3527 H   0  0  0  0  0  0  0  0  0  0  0  0
    1.9824   -2.8869    0.9507 H   0  0  0  0  0  0  0  0  0  0  0  0
    4.0337   -2.1562    0.7326 H   0  0  0  0  0  0  0  0  0  0  0  0
    4.9259   -0.6688    0.5413 H   0  0  0  0  0  0  0  0  0  0  0  0
    2.2664    2.0242   -0.4275 H   0  0  0  0  0  0  0  0  0  0  0  0
    4.0208    1.8174   -0.2330 H   0  0  0  0  0  0  0  0  0  0  0  0
    3.3695    2.4864   -1.7371 H   0  0  0  0  0  0  0  0  0  0  0  0
    2.1981   -3.7015   -2.0088 H   0  0  0  0  0  0  0  0  0  0  0  0
    3.7320   -3.5646   -2.8885 H   0  0  0  0  0  0  0  0  0  0  0  0
    3.7293   -3.7012   -1.1226 H   0  0  0  0  0  0  0  0  0  0  0  0
    1.4254    1.0596    2.6090 H   0  0  0  0  0  0  0  0  0  0  0  0
  1  2  1  0
  2  3  1  0
  3  4  1  0
  4  5  1  0
  5  6  2  0
  6  7  1  0
  7  8  2  0
  7  9  1  0
  9 10  2  0
 10 11  1  0
 11 12  2  0
 12 13  1  0
 12 14  1  0
 14 15  2  0
 15 16  1  0
  3 17  1  0
 17 18  2  0
 17 19  1  0
 19 20  2  0
 20 21  1  0
 21 22  2  0
 22 23  1  0
 23 24  1  0
 24 25  1  0
 25 26  1  0
 26 27  1  0
 27 28  1  0
 27 29  2  0
 29 30  1  0
 30 31  1  0
 31 32  1  0
 23 33  2  0
 16  5  1  0
 33 19  1  0
 15  9  1  0
 31 26  2  0
  1 34  1  0
  1 35  1  0
  1 36  1  0
  2 37  1  0
  2 38  1  0
  4 39  1  0
  4 40  1  0
 10 41  1  0
 11 42  1  0
 14 43  1  0
 16 44  1  0
 20 45  1  0
 21 46  1  0
 22 47  1  0
 25 48  1  0
 25 49  1  0
 28 50  1  0
 28 51  1  0
 28 52  1  0
 32 53  1  0
 32 54  1  0
 32 55  1  0
 33 56  1  0
M  END
$$$$
