
     RDKit          3D

 43 45  0  0  0  0  0  0  0  0999 V2000
   -1.7196   -3.4660   -0.3546 N   0  0  0  0  0  0  0  0  0  0  0  0
   -0.5099   -2.8772   -0.3851 C   0  0  0  0  0  0  0  0  0  0  0  0
    0.5873   -3.5457   -0.5797 N   0  0  0  0  0  0  0  0  0  0  0  0
    1.6568   -2.5114   -0.5122 C   0  0  0  0  0  0  0  0  0  0  0  0
    0.9502   -1.1394   -0.4982 C   0  0  0  0  0  0  0  0  0  0  0  0
    1.4945   -0.1872    0.5718 C   0  0  0  0  0  0  0  0  0  0  0  0
    2.8836    0.3159    0.2593 C   0  0  0  0  0  0  0  0  0  0  0  0
    3.0770    1.3009   -0.7201 C   0  0  0  0  0  0  0  0  0  0  0  0
    4.3616    1.7561   -1.0194 C   0  0  0  0  0  0  0  0  0  0  0  0
    5.4544    1.2294   -0.3426 C   0  0  0  0  0  0  0  0  0  0  0  0
    6.6909    1.7024   -0.6678 O   0  0  0  0  0  0  0  0  0  0  0  0
    5.2848    0.2530    0.6328 C   0  0  0  0  0  0  0  0  0  0  0  0
    3.9989   -0.2025    0.9331 C   0  0  0  0  0  0  0  0  0  0  0  0
   -0.4349   -1.5290   -0.2093 N   0  0  0  0  0  0  0  0  0  0  0  0
   -1.4939   -0.6012   -0.6034 C   0  0  0  0  0  0  0  0  0  0  0  0
   -2.3598   -0.2368    0.6066 C   0  0  0  0  0  0  0  0  0  0  0  0
   -3.4167    0.7816    0.2570 C   0  0  0  0  0  0  0  0  0  0  0  0
   -3.1978    2.1473    0.4936 C   0  0  0  0  0  0  0  0  0  0  0  0
   -4.1699    3.0924    0.1541 C   0  0  0  0  0  0  0  0  0  0  0  0
   -5.3675    2.6813   -0.4277 C   0  0  0  0  0  0  0  0  0  0  0  0
   -5.5828    1.3295   -0.6661 C   0  0  0  0  0  0  0  0  0  0  0  0
   -6.7327    0.9341   -1.2279 F   0  0  0  0  0  0  0  0  0  0  0  0
   -4.6224    0.3793   -0.3328 C   0  0  0  0  0  0  0  0  0  0  0  0
   -1.6054   -4.4749   -0.3744 H   0  0  0  0  0  0  0  0  0  0  0  0
   -2.2643   -3.1928    0.4513 H   0  0  0  0  0  0  0  0  0  0  0  0
    2.3163   -2.6008   -1.3818 H   0  0  0  0  0  0  0  0  0  0  0  0
    2.2518   -2.6890    0.3901 H   0  0  0  0  0  0  0  0  0  0  0  0
    1.0117   -0.6957   -1.5007 H   0  0  0  0  0  0  0  0  0  0  0  0
    1.4803   -0.6710    1.5575 H   0  0  0  0  0  0  0  0  0  0  0  0
    0.8328    0.6832    0.6728 H   0  0  0  0  0  0  0  0  0  0  0  0
    2.2301    1.7231   -1.2564 H   0  0  0  0  0  0  0  0  0  0  0  0
    4.5099    2.5192   -1.7781 H   0  0  0  0  0  0  0  0  0  0  0  0
    7.3510    1.2419   -0.1244 H   0  0  0  0  0  0  0  0  0  0  0  0
    6.1333   -0.1633    1.1665 H   0  0  0  0  0  0  0  0  0  0  0  0
    3.8745   -0.9672    1.6975 H   0  0  0  0  0  0  0  0  0  0  0  0
   -2.1044   -1.0294   -1.4085 H   0  0  0  0  0  0  0  0  0  0  0  0
   -1.0567    0.3165   -1.0184 H   0  0  0  0  0  0  0  0  0  0  0  0
   -1.7278    0.1525    1.4155 H   0  0  0  0  0  0  0  0  0  0  0  0
   -2.8460   -1.1279    1.0215 H   0  0  0  0  0  0  0  0  0  0  0  0
   -2.2678    2.4856    0.9470 H   0  0  0  0  0  0  0  0  0  0  0  0
   -3.9924    4.1480    0.3442 H   0  0  0  0  0  0  0  0  0  0  0  0
   -6.1320    3.4030   -0.6966 H   0  0  0  0  0  0  0  0  0  0  0  0
   -4.8269   -0.6676   -0.5381 H   0  0  0  0  0  0  0  0  0  0  0  0
  1  2  1  0
  2  3  2  0
  3  4  1  0
  4  5  1  0
  5  6  1  0
  6  7  1  0
  7  8  2  0
  8  9  1  0
  9 10  2  0
 10 11  1  0
 10 12  1  0
 12 13  2  0
  5 14  1  0
 14 15  1  0
 15 16  1  0
 16 17  1  0
 17 18  2  0
 18 19  1  0
 19 20  2  0
 20 21  1  0
 21 22  1  0
 21 23  2  0
 14  2  1  0
 23 17  1  0
 13  7  1  0
  1 24  1  0
  1 25  1  0
  4 26  1  0
  4 27  1  0
  5 28  1  0
  6 29  1  0
  6 30  1  0
  8 31  1  0
  9 32  1  0
 11 33  1  0
 12 34  1  0
 13 35  1  0
 15 36  1  0
 15 37  1  0
 16 38  1  0
 16 39  1  0
 18 40  1  0
 19 41  1  0
 20 42  1  0
 23 43  1  0
M  END
$$$$
