
     RDKit          3D

 54 56  0  0  0  0  0  0  0  0999 V2000
   -4.9570   -1.2130   -3.1163 C   0  0  0  0  0  0  0  0  0  0  0  0
   -4.8838   -0.5878   -1.7482 C   0  0  0  0  0  0  0  0  0  0  0  0
   -6.0657    0.0042   -1.2709 C   0  0  0  0  0  0  0  0  0  0  0  0
   -6.1328    0.5335    0.0090 C   0  0  0  0  0  0  0  0  0  0  0  0
   -5.0229    0.4624    0.8429 C   0  0  0  0  0  0  0  0  0  0  0  0
   -3.8151   -0.1255    0.4150 C   0  0  0  0  0  0  0  0  0  0  0  0
   -2.6273   -0.1513    1.3807 C   0  0  0  0  0  0  0  0  0  0  0  0
   -1.7618    1.0969    1.1917 C   0  0  0  0  0  0  0  0  0  0  0  0
   -3.0016   -0.3090    2.8622 C   0  0  0  0  0  0  0  0  0  0  0  0
   -3.7304   -0.5984   -0.9269 C   0  0  0  0  0  0  0  0  0  0  0  0
   -2.4941   -1.1231   -1.3852 N   0  0  0  0  0  0  0  0  0  0  0  0
   -1.9085   -0.8423   -2.6129 C   0  0  0  0  0  0  0  0  0  0  0  0
   -2.3543   -0.0987   -3.4809 O   0  0  0  0  0  0  0  0  0  0  0  0
   -0.5727   -1.5468   -2.8008 C   0  0  0  0  0  0  0  0  0  0  0  0
    0.5024   -0.8048   -2.0657 C   0  0  0  0  0  0  0  0  0  0  0  0
    1.2392    0.2789   -2.4998 C   0  0  0  0  0  0  0  0  0  0  0  0
    2.1575    0.7354   -1.5116 C   0  0  0  0  0  0  0  0  0  0  0  0
    2.1016   -0.0171   -0.3552 C   0  0  0  0  0  0  0  0  0  0  0  0
    2.9637    0.1180    1.1948 S   0  0  0  0  0  6  0  0  0  0  0  0
    2.1731    1.0466    1.9720 O   0  0  0  0  0  0  0  0  0  0  0  0
    3.2335   -1.2287    1.6496 O   0  0  0  0  0  0  0  0  0  0  0  0
    4.4684    0.8562    0.8669 N   0  0  0  0  0  0  0  0  0  0  0  0
    5.1055    1.4445    2.0917 C   0  0  0  0  0  0  0  0  0  0  0  0
    6.6056    1.6545    1.8679 C   0  0  0  0  0  0  0  0  0  0  0  0
    7.3145    0.4321    1.6181 O   0  0  0  0  0  0  0  0  0  0  0  0
    6.5082   -0.5765    0.9906 C   0  0  0  0  0  0  0  0  0  0  0  0
    5.4280    0.0124    0.0800 C   0  0  0  0  0  0  0  0  0  0  0  0
    0.9528   -1.2748   -0.4812 S   0  0  0  0  0  0  0  0  0  0  0  0
   -5.9513   -1.6423   -3.2871 H   0  0  0  0  0  0  0  0  0  0  0  0
   -4.2521   -2.0432   -3.2254 H   0  0  0  0  0  0  0  0  0  0  0  0
   -4.7780   -0.4623   -3.8906 H   0  0  0  0  0  0  0  0  0  0  0  0
   -6.9503    0.0418   -1.9013 H   0  0  0  0  0  0  0  0  0  0  0  0
   -7.0514    0.9922    0.3632 H   0  0  0  0  0  0  0  0  0  0  0  0
   -5.1141    0.8929    1.8378 H   0  0  0  0  0  0  0  0  0  0  0  0
   -2.0196   -1.0364    1.1695 H   0  0  0  0  0  0  0  0  0  0  0  0
   -1.4245    1.1983    0.1537 H   0  0  0  0  0  0  0  0  0  0  0  0
   -0.8727    1.0525    1.8299 H   0  0  0  0  0  0  0  0  0  0  0  0
   -2.3152    2.0070    1.4496 H   0  0  0  0  0  0  0  0  0  0  0  0
   -3.6764   -1.1599    3.0103 H   0  0  0  0  0  0  0  0  0  0  0  0
   -3.4814    0.5876    3.2692 H   0  0  0  0  0  0  0  0  0  0  0  0
   -2.1044   -0.4899    3.4623 H   0  0  0  0  0  0  0  0  0  0  0  0
   -1.8175   -1.3634   -0.6747 H   0  0  0  0  0  0  0  0  0  0  0  0
   -0.6548   -2.5881   -2.4724 H   0  0  0  0  0  0  0  0  0  0  0  0
   -0.3479   -1.5746   -3.8713 H   0  0  0  0  0  0  0  0  0  0  0  0
    1.1079    0.7373   -3.4745 H   0  0  0  0  0  0  0  0  0  0  0  0
    2.8182    1.5869   -1.6310 H   0  0  0  0  0  0  0  0  0  0  0  0
    4.9605    0.7725    2.9447 H   0  0  0  0  0  0  0  0  0  0  0  0
    4.6270    2.4049    2.3085 H   0  0  0  0  0  0  0  0  0  0  0  0
    7.0581    2.1207    2.7487 H   0  0  0  0  0  0  0  0  0  0  0  0
    6.7798    2.3232    1.0163 H   0  0  0  0  0  0  0  0  0  0  0  0
    7.1802   -1.2194    0.4142 H   0  0  0  0  0  0  0  0  0  0  0  0
    6.0634   -1.1916    1.7802 H   0  0  0  0  0  0  0  0  0  0  0  0
    4.9076   -0.7862   -0.4557 H   0  0  0  0  0  0  0  0  0  0  0  0
    5.8829    0.6619   -0.6760 H   0  0  0  0  0  0  0  0  0  0  0  0
  1  2  1  0
  2  3  2  0
  3  4  1  0
  4  5  2  0
  5  6  1  0
  6  7  1  0
  7  8  1  0
  7  9  1  0
  6 10  2  0
 10 11  1  0
 11 12  1  0
 12 13  2  0
 12 14  1  0
 14 15  1  0
 15 16  2  0
 16 17  1  0
 17 18  2  0
 18 19  1  0
 19 20  2  0
 19 21  2  0
 19 22  1  0
 22 23  1  0
 23 24  1  0
 24 25  1  0
 25 26  1  0
 26 27  1  0
 18 28  1  0
 10  2  1  0
 28 15  1  0
 27 22  1  0
  1 29  1  0
  1 30  1  0
  1 31  1  0
  3 32  1  0
  4 33  1  0
  5 34  1  0
  7 35  1  0
  8 36  1  0
  8 37  1  0
  8 38  1  0
  9 39  1  0
  9 40  1  0
  9 41  1  0
 11 42  1  0
 14 43  1  0
 14 44  1  0
 16 45  1  0
 17 46  1  0
 23 47  1  0
 23 48  1  0
 24 49  1  0
 24 50  1  0
 26 51  1  0
 26 52  1  0
 27 53  1  0
 27 54  1  0
M  END
$$$$
