
     RDKit          3D

 46 49  0  0  0  0  0  0  0  0999 V2000
    0.1349   -4.9656   -0.5676 C   0  0  0  0  0  0  0  0  0  0  0  0
   -0.6170   -3.7670   -0.7511 O   0  0  0  0  0  0  0  0  0  0  0  0
   -0.0865   -2.6699   -0.1292 C   0  0  0  0  0  0  0  0  0  0  0  0
    0.9379   -2.6995    0.5445 O   0  0  0  0  0  0  0  0  0  0  0  0
   -0.8908   -1.4664   -0.3239 C   0  0  0  0  0  0  0  0  0  0  0  0
   -2.1806   -1.4889   -0.7189 N   0  0  0  0  0  0  0  0  0  0  0  0
   -2.5258   -0.1760   -0.7071 N   0  0  0  0  0  0  0  0  0  0  0  0
   -3.8314    0.2614   -1.0513 C   0  0  0  0  0  0  0  0  0  0  0  0
   -4.8102   -0.6713   -1.4243 C   0  0  0  0  0  0  0  0  0  0  0  0
   -6.0941   -0.2369   -1.7599 C   0  0  0  0  0  0  0  0  0  0  0  0
   -6.4046    1.1224   -1.7251 C   0  0  0  0  0  0  0  0  0  0  0  0
   -5.4339    2.0532   -1.3556 C   0  0  0  0  0  0  0  0  0  0  0  0
   -4.1474    1.6277   -1.0183 C   0  0  0  0  0  0  0  0  0  0  0  0
   -1.5535    0.6933   -0.3315 N   0  0  0  0  0  0  0  0  0  0  0  0
   -0.5197   -0.1248   -0.1035 C   0  0  0  0  0  0  0  0  0  0  0  0
    0.8077    0.3532    0.2611 C   0  0  0  0  0  0  0  0  0  0  0  0
    1.9011    0.0627   -0.4522 N   0  0  0  0  0  0  0  0  0  0  0  0
    2.8598    0.7707    0.1973 N   0  0  0  0  0  0  0  0  0  0  0  0
    4.2183    0.7498   -0.2139 C   0  0  0  0  0  0  0  0  0  0  0  0
    5.1736    1.5100    0.4766 C   0  0  0  0  0  0  0  0  0  0  0  0
    6.5090    1.4872    0.0690 C   0  0  0  0  0  0  0  0  0  0  0  0
    6.8944    0.7097   -1.0229 C   0  0  0  0  0  0  0  0  0  0  0  0
    5.9476   -0.0482   -1.7118 C   0  0  0  0  0  0  0  0  0  0  0  0
    4.6100   -0.0311   -1.3112 C   0  0  0  0  0  0  0  0  0  0  0  0
    2.4410    1.5089    1.2560 N   0  0  0  0  0  0  0  0  0  0  0  0
    1.1221    1.2338    1.3175 C   0  0  0  0  0  0  0  0  0  0  0  0
    0.2567    1.7947    2.3532 C   0  0  0  0  0  0  0  0  0  0  0  0
    0.5132    2.8185    2.9790 O   0  0  0  0  0  0  0  0  0  0  0  0
   -0.8526    1.0288    2.5861 O   0  0  0  0  0  0  0  0  0  0  0  0
   -1.7243    1.5515    3.5886 C   0  0  0  0  0  0  0  0  0  0  0  0
    0.1737   -5.2355    0.4923 H   0  0  0  0  0  0  0  0  0  0  0  0
    1.1436   -4.8529   -0.9772 H   0  0  0  0  0  0  0  0  0  0  0  0
   -0.3704   -5.7692   -1.1105 H   0  0  0  0  0  0  0  0  0  0  0  0
   -4.5892   -1.7366   -1.4593 H   0  0  0  0  0  0  0  0  0  0  0  0
   -6.8527   -0.9599   -2.0498 H   0  0  0  0  0  0  0  0  0  0  0  0
   -7.4051    1.4573   -1.9882 H   0  0  0  0  0  0  0  0  0  0  0  0
   -5.6787    3.1124   -1.3315 H   0  0  0  0  0  0  0  0  0  0  0  0
   -3.4053    2.3717   -0.7351 H   0  0  0  0  0  0  0  0  0  0  0  0
    4.8940    2.1241    1.3309 H   0  0  0  0  0  0  0  0  0  0  0  0
    7.2488    2.0772    0.6045 H   0  0  0  0  0  0  0  0  0  0  0  0
    7.9351    0.6943   -1.3373 H   0  0  0  0  0  0  0  0  0  0  0  0
    6.2513   -0.6539   -2.5620 H   0  0  0  0  0  0  0  0  0  0  0  0
    3.8879   -0.6312   -1.8612 H   0  0  0  0  0  0  0  0  0  0  0  0
   -2.5832    0.8799    3.6728 H   0  0  0  0  0  0  0  0  0  0  0  0
   -2.0885    2.5432    3.3027 H   0  0  0  0  0  0  0  0  0  0  0  0
   -1.2162    1.5870    4.5573 H   0  0  0  0  0  0  0  0  0  0  0  0
  1  2  1  0
  2  3  1  0
  3  4  2  0
  3  5  1  0
  5  6  2  0
  6  7  1  0
  7  8  1  0
  8  9  2  0
  9 10  1  0
 10 11  2  0
 11 12  1  0
 12 13  2  0
  7 14  1  0
 14 15  2  0
 15 16  1  0
 16 17  2  0
 17 18  1  0
 18 19  1  0
 19 20  2  0
 20 21  1  0
 21 22  2  0
 22 23  1  0
 23 24  2  0
 18 25  1  0
 25 26  2  0
 26 27  1  0
 27 28  2  0
 27 29  1  0
 29 30  1  0
 15  5  1  0
 26 16  1  0
 13  8  1  0
 24 19  1  0
  1 31  1  0
  1 32  1  0
  1 33  1  0
  9 34  1  0
 10 35  1  0
 11 36  1  0
 12 37  1  0
 13 38  1  0
 20 39  1  0
 21 40  1  0
 22 41  1  0
 23 42  1  0
 24 43  1  0
 30 44  1  0
 30 45  1  0
 30 46  1  0
M  END
$$$$
