
     RDKit          3D

 53 56  0  0  0  0  0  0  0  0999 V2000
   -6.1236   -0.6851   -3.1086 C   0  0  0  0  0  0  0  0  0  0  0  0
   -4.9589   -0.6096   -2.1666 C   0  0  0  0  0  0  0  0  0  0  0  0
   -3.7656   -1.2793   -2.4538 C   0  0  0  0  0  0  0  0  0  0  0  0
   -2.6745   -1.1852   -1.5848 C   0  0  0  0  0  0  0  0  0  0  0  0
   -2.7625   -0.4270   -0.4126 C   0  0  0  0  0  0  0  0  0  0  0  0
   -1.6125   -0.3399    0.4000 N   0  0  0  0  0  0  0  0  0  0  0  0
   -1.5018   -0.0739    1.7575 C   0  0  0  0  0  0  0  0  0  0  0  0
   -2.6682   -0.5651    2.8706 S   0  0  0  0  0  0  0  0  0  0  0  0
   -0.2683    0.5410    2.0894 N   0  0  0  0  0  0  0  0  0  0  0  0
    0.1581    0.7069    3.4964 C   0  0  0  0  0  0  0  0  0  0  0  0
    0.0807    2.1411    3.9488 C   0  0  0  0  0  0  0  0  0  0  0  0
    1.1328    2.9757    4.2813 C   0  0  0  0  0  0  0  0  0  0  0  0
    0.6984    4.2730    4.6754 C   0  0  0  0  0  0  0  0  0  0  0  0
   -0.6727    4.3857    4.6441 C   0  0  0  0  0  0  0  0  0  0  0  0
   -1.4249    2.9362    4.1421 S   0  0  0  0  0  0  0  0  0  0  0  0
    0.5306    1.2834    1.0851 C   0  0  0  0  0  0  0  0  0  0  0  0
    1.4591    0.4062    0.2902 C   0  0  0  0  0  0  0  0  0  0  0  0
    1.2632    0.1266   -1.0124 C   0  0  0  0  0  0  0  0  0  0  0  0
    2.1853   -0.7274   -1.7590 C   0  0  0  0  0  0  0  0  0  0  0  0
    1.9441   -1.0459   -3.0973 C   0  0  0  0  0  0  0  0  0  0  0  0
    2.8305   -1.8729   -3.7847 C   0  0  0  0  0  0  0  0  0  0  0  0
    3.9583   -2.3836   -3.1386 C   0  0  0  0  0  0  0  0  0  0  0  0
    4.2197   -2.0744   -1.7947 C   0  0  0  0  0  0  0  0  0  0  0  0
    5.4441   -2.6409   -1.1333 C   0  0  0  0  0  0  0  0  0  0  0  0
    3.3199   -1.2390   -1.1127 C   0  0  0  0  0  0  0  0  0  0  0  0
    3.5374   -0.8806    0.2257 N   0  0  0  0  0  0  0  0  0  0  0  0
    2.7184   -0.0541    0.9466 C   0  0  0  0  0  0  0  0  0  0  0  0
    3.0303    0.2972    2.0803 O   0  0  0  0  0  0  0  0  0  0  0  0
   -3.9383    0.2748   -0.1461 C   0  0  0  0  0  0  0  0  0  0  0  0
   -5.0303    0.1812   -1.0151 C   0  0  0  0  0  0  0  0  0  0  0  0
   -6.1233   -1.6327   -3.6571 H   0  0  0  0  0  0  0  0  0  0  0  0
   -6.0778    0.1387   -3.8273 H   0  0  0  0  0  0  0  0  0  0  0  0
   -7.0705   -0.6276   -2.5615 H   0  0  0  0  0  0  0  0  0  0  0  0
   -3.6784   -1.8836   -3.3539 H   0  0  0  0  0  0  0  0  0  0  0  0
   -1.7646   -1.7258   -1.8309 H   0  0  0  0  0  0  0  0  0  0  0  0
   -0.8014   -0.8253    0.0428 H   0  0  0  0  0  0  0  0  0  0  0  0
   -0.4125    0.0739    4.1805 H   0  0  0  0  0  0  0  0  0  0  0  0
    1.1877    0.3483    3.5738 H   0  0  0  0  0  0  0  0  0  0  0  0
    2.1706    2.6647    4.2364 H   0  0  0  0  0  0  0  0  0  0  0  0
    1.3573    5.0794    4.9719 H   0  0  0  0  0  0  0  0  0  0  0  0
   -1.2733    5.2491    4.8952 H   0  0  0  0  0  0  0  0  0  0  0  0
   -0.1741    1.7964    0.4178 H   0  0  0  0  0  0  0  0  0  0  0  0
    1.1087    2.0802    1.5633 H   0  0  0  0  0  0  0  0  0  0  0  0
    0.3987    0.5158   -1.5437 H   0  0  0  0  0  0  0  0  0  0  0  0
    1.0718   -0.6556   -3.6158 H   0  0  0  0  0  0  0  0  0  0  0  0
    2.6446   -2.1213   -4.8271 H   0  0  0  0  0  0  0  0  0  0  0  0
    4.6356   -3.0276   -3.6966 H   0  0  0  0  0  0  0  0  0  0  0  0
    5.1605   -3.2509   -0.2692 H   0  0  0  0  0  0  0  0  0  0  0  0
    6.1088   -1.8333   -0.8094 H   0  0  0  0  0  0  0  0  0  0  0  0
    6.0113   -3.2819   -1.8165 H   0  0  0  0  0  0  0  0  0  0  0  0
    4.3714   -1.1860    0.7077 H   0  0  0  0  0  0  0  0  0  0  0  0
   -4.0231    0.9233    0.7209 H   0  0  0  0  0  0  0  0  0  0  0  0
   -5.9369    0.7362   -0.7839 H   0  0  0  0  0  0  0  0  0  0  0  0
  1  2  1  0
  2  3  2  0
  3  4  1  0
  4  5  2  0
  5  6  1  0
  6  7  1  0
  7  8  2  0
  7  9  1  0
  9 10  1  0
 10 11  1  0
 11 12  2  0
 12 13  1  0
 13 14  2  0
 14 15  1  0
  9 16  1  0
 16 17  1  0
 17 18  2  0
 18 19  1  0
 19 20  2  0
 20 21  1  0
 21 22  2  0
 22 23  1  0
 23 24  1  0
 23 25  2  0
 25 26  1  0
 26 27  1  0
 27 28  2  0
  5 29  1  0
 29 30  2  0
 30  2  1  0
 15 11  1  0
 27 17  1  0
 25 19  1  0
  1 31  1  0
  1 32  1  0
  1 33  1  0
  3 34  1  0
  4 35  1  0
  6 36  1  0
 10 37  1  0
 10 38  1  0
 12 39  1  0
 13 40  1  0
 14 41  1  0
 16 42  1  0
 16 43  1  0
 18 44  1  0
 20 45  1  0
 21 46  1  0
 22 47  1  0
 24 48  1  0
 24 49  1  0
 24 50  1  0
 26 51  1  0
 29 52  1  0
 30 53  1  0
M  END
$$$$
