
     RDKit          3D

 47 48  0  0  0  0  0  0  0  0999 V2000
    5.4465   -2.3058    2.0593 C   0  0  0  0  0  0  0  0  0  0  0  0
    5.3283   -0.8422    2.4360 C   0  0  0  0  0  0  0  0  0  0  0  0
    4.9397   -0.0687    1.2921 O   0  0  0  0  0  0  0  0  0  0  0  0
    3.5963    0.0464    1.0789 C   0  0  0  0  0  0  0  0  0  0  0  0
    2.7440   -0.4771    1.7851 O   0  0  0  0  0  0  0  0  0  0  0  0
    3.2567    0.8718   -0.0818 C   0  0  0  0  0  0  0  0  0  0  0  0
    4.1351    1.4530   -0.9941 C   0  0  0  0  0  0  0  0  0  0  0  0
    5.6189    1.3974   -1.1119 C   0  0  0  0  0  0  0  0  0  0  0  0
    3.3960    2.2030   -1.8773 N   0  0  0  0  0  0  0  0  0  0  0  0
    2.0641    2.1168   -1.5740 C   0  0  0  0  0  0  0  0  0  0  0  0
    1.0365    2.8387   -2.3732 C   0  0  0  0  0  0  0  0  0  0  0  0
    1.9313    1.2725   -0.4809 C   0  0  0  0  0  0  0  0  0  0  0  0
    0.6429    0.9261    0.1262 C   0  0  0  0  0  0  0  0  0  0  0  0
   -0.0811    1.7993    0.6087 O   0  0  0  0  0  0  0  0  0  0  0  0
    0.2071   -0.5433    0.0754 C   0  0  0  0  0  0  0  0  0  0  0  0
   -1.2147   -0.7089    0.1086 O   0  0  0  0  0  0  0  0  0  0  0  0
   -1.8533   -0.2566   -0.9994 C   0  0  0  0  0  0  0  0  0  0  0  0
   -1.3160    0.1726   -2.0087 O   0  0  0  0  0  0  0  0  0  0  0  0
   -3.3243   -0.3407   -0.8661 C   0  0  0  0  0  0  0  0  0  0  0  0
   -3.9536   -0.8926    0.1826 C   0  0  0  0  0  0  0  0  0  0  0  0
   -5.4140   -0.9763    0.2956 C   0  0  0  0  0  0  0  0  0  0  0  0
   -5.9855   -2.1442    0.8217 C   0  0  0  0  0  0  0  0  0  0  0  0
   -7.3712   -2.2506    0.9710 C   0  0  0  0  0  0  0  0  0  0  0  0
   -8.1921   -1.1842    0.6056 C   0  0  0  0  0  0  0  0  0  0  0  0
   -9.8981   -1.3102    0.7985 Cl  0  0  0  0  0  0  0  0  0  0  0  0
   -7.6380   -0.0117    0.0963 C   0  0  0  0  0  0  0  0  0  0  0  0
   -6.2523    0.0931   -0.0554 C   0  0  0  0  0  0  0  0  0  0  0  0
    5.7455   -2.9025    2.9254 H   0  0  0  0  0  0  0  0  0  0  0  0
    6.1871   -2.4420    1.2633 H   0  0  0  0  0  0  0  0  0  0  0  0
    4.4982   -2.6986    1.6732 H   0  0  0  0  0  0  0  0  0  0  0  0
    6.3027   -0.4632    2.7661 H   0  0  0  0  0  0  0  0  0  0  0  0
    4.6345   -0.7006    3.2712 H   0  0  0  0  0  0  0  0  0  0  0  0
    6.0862    1.9425   -0.2839 H   0  0  0  0  0  0  0  0  0  0  0  0
    5.9615    1.8468   -2.0508 H   0  0  0  0  0  0  0  0  0  0  0  0
    5.9697    0.3599   -1.0990 H   0  0  0  0  0  0  0  0  0  0  0  0
    3.7801    2.7521   -2.6380 H   0  0  0  0  0  0  0  0  0  0  0  0
    0.5747    2.1594   -3.0992 H   0  0  0  0  0  0  0  0  0  0  0  0
    1.4763    3.6793   -2.9214 H   0  0  0  0  0  0  0  0  0  0  0  0
    0.2505    3.2431   -1.7272 H   0  0  0  0  0  0  0  0  0  0  0  0
    0.6211   -1.0427   -0.8112 H   0  0  0  0  0  0  0  0  0  0  0  0
    0.5908   -1.0556    0.9612 H   0  0  0  0  0  0  0  0  0  0  0  0
   -3.8664    0.0796   -1.7090 H   0  0  0  0  0  0  0  0  0  0  0  0
   -3.3901   -1.3359    1.0040 H   0  0  0  0  0  0  0  0  0  0  0  0
   -5.3565   -2.9842    1.1150 H   0  0  0  0  0  0  0  0  0  0  0  0
   -7.8003   -3.1651    1.3743 H   0  0  0  0  0  0  0  0  0  0  0  0
   -8.2767    0.8255   -0.1799 H   0  0  0  0  0  0  0  0  0  0  0  0
   -5.8380    1.0245   -0.4360 H   0  0  0  0  0  0  0  0  0  0  0  0
  1  2  1  0
  2  3  1  0
  3  4  1  0
  4  5  2  0
  4  6  1  0
  6  7  2  0
  7  8  1  0
  7  9  1  0
  9 10  1  0
 10 11  1  0
 10 12  2  0
 12 13  1  0
 13 14  2  0
 13 15  1  0
 15 16  1  0
 16 17  1  0
 17 18  2  0
 17 19  1  0
 19 20  2  3
 20 21  1  0
 21 22  2  0
 22 23  1  0
 23 24  2  0
 24 25  1  0
 24 26  1  0
 26 27  2  0
 12  6  1  0
 27 21  1  0
  1 28  1  0
  1 29  1  0
  1 30  1  0
  2 31  1  0
  2 32  1  0
  8 33  1  0
  8 34  1  0
  8 35  1  0
  9 36  1  0
 11 37  1  0
 11 38  1  0
 11 39  1  0
 15 40  1  0
 15 41  1  0
 19 42  1  0
 20 43  1  0
 22 44  1  0
 23 45  1  0
 26 46  1  0
 27 47  1  0
M  END
$$$$
