
     RDKit          3D

 53 55  0  0  0  0  0  0  0  0999 V2000
   -7.5349    4.0926   -1.0819 C   0  0  0  0  0  0  0  0  0  0  0  0
   -6.6929    3.3353   -1.9385 O   0  0  0  0  0  0  0  0  0  0  0  0
   -5.7187    2.5636   -1.3559 C   0  0  0  0  0  0  0  0  0  0  0  0
   -5.4882    2.4873    0.0202 C   0  0  0  0  0  0  0  0  0  0  0  0
   -4.4703    1.6710    0.5228 C   0  0  0  0  0  0  0  0  0  0  0  0
   -3.6729    0.9114   -0.3382 C   0  0  0  0  0  0  0  0  0  0  0  0
   -2.5918    0.0960    0.2355 C   0  0  0  0  0  0  0  0  0  0  0  0
   -2.2212   -1.0985   -0.2529 C   0  0  0  0  0  0  0  0  0  0  0  0
   -1.1580   -1.9435    0.3557 C   0  0  0  0  0  0  0  0  0  0  0  0
   -1.2972   -3.1598    0.3335 O   0  0  0  0  0  0  0  0  0  0  0  0
   -0.0729   -1.2321    0.8176 N   0  0  0  0  0  0  0  0  0  0  0  0
    1.0669   -1.7430    1.4725 C   0  0  0  0  0  0  0  0  0  0  0  0
    1.2176   -3.0808    1.8470 C   0  0  0  0  0  0  0  0  0  0  0  0
    2.3656   -3.5092    2.5234 C   0  0  0  0  0  0  0  0  0  0  0  0
    3.3817   -2.6057    2.8229 C   0  0  0  0  0  0  0  0  0  0  0  0
    3.2499   -1.2754    2.4232 C   0  0  0  0  0  0  0  0  0  0  0  0
    4.5242   -0.0985    2.8264 S   0  0  0  0  0  6  0  0  0  0  0  0
    5.2216   -0.5971    3.9925 O   0  0  0  0  0  0  0  0  0  0  0  0
    3.9096    1.2130    2.8223 O   0  0  0  0  0  0  0  0  0  0  0  0
    5.5722   -0.1803    1.5145 N   0  0  0  0  0  0  0  0  0  0  0  0
    5.1505    0.3538    0.2064 C   0  0  0  0  0  0  0  0  0  0  0  0
    6.1349   -0.2710   -0.7727 C   0  0  0  0  0  0  0  0  0  0  0  0
    6.3541   -1.6499   -0.1787 C   0  0  0  0  0  0  0  0  0  0  0  0
    6.4202   -1.3738    1.3183 C   0  0  0  0  0  0  0  0  0  0  0  0
    2.0887   -0.8366    1.7744 C   0  0  0  0  0  0  0  0  0  0  0  0
   -3.8933    1.0006   -1.7204 C   0  0  0  0  0  0  0  0  0  0  0  0
   -4.9134    1.8131   -2.2348 C   0  0  0  0  0  0  0  0  0  0  0  0
   -5.1922    1.9524   -3.5724 O   0  0  0  0  0  0  0  0  0  0  0  0
   -4.4887    1.1231   -4.4851 C   0  0  0  0  0  0  0  0  0  0  0  0
   -8.2532    4.6301   -1.7085 H   0  0  0  0  0  0  0  0  0  0  0  0
   -8.1029    3.4420   -0.4088 H   0  0  0  0  0  0  0  0  0  0  0  0
   -6.9602    4.8373   -0.5218 H   0  0  0  0  0  0  0  0  0  0  0  0
   -6.0823    3.0506    0.7317 H   0  0  0  0  0  0  0  0  0  0  0  0
   -4.3168    1.6305    1.5993 H   0  0  0  0  0  0  0  0  0  0  0  0
   -2.1270    0.5030    1.1304 H   0  0  0  0  0  0  0  0  0  0  0  0
   -2.7392   -1.5738   -1.0798 H   0  0  0  0  0  0  0  0  0  0  0  0
   -0.0677   -0.2380    0.6317 H   0  0  0  0  0  0  0  0  0  0  0  0
    0.4466   -3.8190    1.6450 H   0  0  0  0  0  0  0  0  0  0  0  0
    2.4540   -4.5505    2.8254 H   0  0  0  0  0  0  0  0  0  0  0  0
    4.2588   -2.9419    3.3710 H   0  0  0  0  0  0  0  0  0  0  0  0
    5.2098    1.4453    0.1877 H   0  0  0  0  0  0  0  0  0  0  0  0
    4.1330    0.0393   -0.0406 H   0  0  0  0  0  0  0  0  0  0  0  0
    5.7462   -0.3042   -1.7941 H   0  0  0  0  0  0  0  0  0  0  0  0
    7.0760    0.2915   -0.7782 H   0  0  0  0  0  0  0  0  0  0  0  0
    5.4965   -2.2952   -0.4040 H   0  0  0  0  0  0  0  0  0  0  0  0
    7.2572   -2.1377   -0.5547 H   0  0  0  0  0  0  0  0  0  0  0  0
    7.4425   -1.1241    1.6224 H   0  0  0  0  0  0  0  0  0  0  0  0
    6.0935   -2.2441    1.8901 H   0  0  0  0  0  0  0  0  0  0  0  0
    1.9894    0.2137    1.5108 H   0  0  0  0  0  0  0  0  0  0  0  0
   -3.2502    0.4389   -2.3894 H   0  0  0  0  0  0  0  0  0  0  0  0
   -3.4219    1.3680   -4.4962 H   0  0  0  0  0  0  0  0  0  0  0  0
   -4.6497    0.0626   -4.2650 H   0  0  0  0  0  0  0  0  0  0  0  0
   -4.8840    1.3178   -5.4866 H   0  0  0  0  0  0  0  0  0  0  0  0
  1  2  1  0
  2  3  1  0
  3  4  2  0
  4  5  1  0
  5  6  2  0
  6  7  1  0
  7  8  2  3
  8  9  1  0
  9 10  2  0
  9 11  1  0
 11 12  1  0
 12 13  2  0
 13 14  1  0
 14 15  2  0
 15 16  1  0
 16 17  1  0
 17 18  2  0
 17 19  2  0
 17 20  1  0
 20 21  1  0
 21 22  1  0
 22 23  1  0
 23 24  1  0
 16 25  2  0
  6 26  1  0
 26 27  2  0
 27 28  1  0
 28 29  1  0
 27  3  1  0
 25 12  1  0
 24 20  1  0
  1 30  1  0
  1 31  1  0
  1 32  1  0
  4 33  1  0
  5 34  1  0
  7 35  1  0
  8 36  1  0
 11 37  1  0
 13 38  1  0
 14 39  1  0
 15 40  1  0
 21 41  1  0
 21 42  1  0
 22 43  1  0
 22 44  1  0
 23 45  1  0
 23 46  1  0
 24 47  1  0
 24 48  1  0
 25 49  1  0
 26 50  1  0
 29 51  1  0
 29 52  1  0
 29 53  1  0
M  END
$$$$
