
     RDKit          3D

 28 30  0  0  0  0  0  0  0  0999 V2000
    1.0844    3.8243    1.0633 S   0  0  0  0  0  0  0  0  0  0  0  0
   -0.2187    2.9087    0.5926 C   0  0  0  0  0  0  0  0  0  0  0  0
   -1.5093    3.4287    0.5145 N   0  0  0  0  0  0  0  0  0  0  0  0
   -2.4177    2.4318    0.2952 N   0  0  0  0  0  0  0  0  0  0  0  0
   -1.6962    1.3484    0.1598 C   0  0  0  0  0  0  0  0  0  0  0  0
   -2.2950    0.0209   -0.0687 C   0  0  0  0  0  0  0  0  0  0  0  0
   -3.6029   -0.2214    0.3624 C   0  0  0  0  0  0  0  0  0  0  0  0
   -4.1912   -1.4619    0.1240 C   0  0  0  0  0  0  0  0  0  0  0  0
   -3.4537   -2.4190   -0.5528 C   0  0  0  0  0  0  0  0  0  0  0  0
   -2.1961   -2.2161   -1.0007 N   0  0  0  0  0  0  0  0  0  0  0  0
   -1.6455   -1.0005   -0.7483 C   0  0  0  0  0  0  0  0  0  0  0  0
   -0.3426    1.5662    0.2564 N   0  0  0  0  0  0  0  0  0  0  0  0
    0.5644    0.5665    0.4671 N   0  0  0  0  0  0  0  0  0  0  0  0
    1.7674    0.7467    0.0220 C   0  0  0  0  0  0  0  0  0  0  0  0
    2.8169   -0.2266    0.2226 C   0  0  0  0  0  0  0  0  0  0  0  0
    4.1316   -0.1388   -0.1991 C   0  0  0  0  0  0  0  0  0  0  0  0
    4.8977   -1.2861    0.1703 C   0  0  0  0  0  0  0  0  0  0  0  0
    4.1302   -2.1928    0.8554 C   0  0  0  0  0  0  0  0  0  0  0  0
    4.8007   -3.8554    1.5169 Br  0  0  0  0  0  0  0  0  0  0  0  0
    2.5259   -1.6937    1.0594 S   0  0  0  0  0  0  0  0  0  0  0  0
   -1.7965    4.3619    0.7865 H   0  0  0  0  0  0  0  0  0  0  0  0
   -4.1648    0.5489    0.8854 H   0  0  0  0  0  0  0  0  0  0  0  0
   -5.2014   -1.6740    0.4562 H   0  0  0  0  0  0  0  0  0  0  0  0
   -3.8679   -3.4013   -0.7626 H   0  0  0  0  0  0  0  0  0  0  0  0
   -0.6450   -0.8835   -1.1502 H   0  0  0  0  0  0  0  0  0  0  0  0
    2.0452    1.6364   -0.5700 H   0  0  0  0  0  0  0  0  0  0  0  0
    4.5328    0.7074   -0.7450 H   0  0  0  0  0  0  0  0  0  0  0  0
    5.9474   -1.4258   -0.0574 H   0  0  0  0  0  0  0  0  0  0  0  0
  1  2  2  0
  2  3  1  0
  3  4  1  0
  4  5  2  0
  5  6  1  0
  6  7  2  0
  7  8  1  0
  8  9  2  0
  9 10  1  0
 10 11  2  0
  5 12  1  0
 12 13  1  0
 13 14  2  3
 14 15  1  0
 15 16  2  0
 16 17  1  0
 17 18  2  0
 18 19  1  0
 18 20  1  0
 12  2  1  0
 20 15  1  0
 11  6  1  0
  3 21  1  0
  7 22  1  0
  8 23  1  0
  9 24  1  0
 11 25  1  0
 14 26  1  0
 16 27  1  0
 17 28  1  0
M  END
$$$$
