
     RDKit          3D

 44 47  0  0  0  0  0  0  0  0999 V2000
    1.3694    3.0358   -0.3107 C   0  0  0  0  0  0  0  0  0  0  0  0
    2.7459    2.8224   -0.0170 O   0  0  0  0  0  0  0  0  0  0  0  0
    3.1266    1.5362    0.2429 C   0  0  0  0  0  0  0  0  0  0  0  0
    4.4123    1.3940    0.7509 C   0  0  0  0  0  0  0  0  0  0  0  0
    4.9122    0.1266    1.0616 C   0  0  0  0  0  0  0  0  0  0  0  0
    4.1587   -1.0222    0.8747 C   0  0  0  0  0  0  0  0  0  0  0  0
    4.7070   -2.2047    1.2012 N   0  0  0  0  0  0  0  0  0  0  0  0
    3.9739   -3.3210    1.0177 C   0  0  0  0  0  0  0  0  0  0  0  0
    2.6912   -3.3218    0.5119 C   0  0  0  0  0  0  0  0  0  0  0  0
    2.1190   -2.0973    0.1696 C   0  0  0  0  0  0  0  0  0  0  0  0
    0.7496   -2.1113   -0.3606 C   0  0  0  0  0  0  0  0  0  0  0  0
   -0.3119   -1.9539    0.4440 C   0  0  0  0  0  0  0  0  0  0  0  0
   -1.6808   -1.9128   -0.0886 C   0  0  0  0  0  0  0  0  0  0  0  0
   -2.2392   -3.0946   -0.5759 C   0  0  0  0  0  0  0  0  0  0  0  0
   -3.5220   -3.0491   -1.0805 C   0  0  0  0  0  0  0  0  0  0  0  0
   -4.2683   -1.9273   -1.1334 N   0  0  0  0  0  0  0  0  0  0  0  0
   -3.7346   -0.7868   -0.6658 C   0  0  0  0  0  0  0  0  0  0  0  0
   -4.4970    0.3714   -0.7248 C   0  0  0  0  0  0  0  0  0  0  0  0
   -4.0179    1.6050   -0.2675 C   0  0  0  0  0  0  0  0  0  0  0  0
   -2.7413    1.6924    0.2704 C   0  0  0  0  0  0  0  0  0  0  0  0
   -2.1400    2.8231    0.7465 O   0  0  0  0  0  0  0  0  0  0  0  0
   -2.9169    4.0151    0.7405 C   0  0  0  0  0  0  0  0  0  0  0  0
   -1.9613    0.5371    0.3436 C   0  0  0  0  0  0  0  0  0  0  0  0
   -2.4353   -0.7142   -0.1225 C   0  0  0  0  0  0  0  0  0  0  0  0
    2.8542   -0.8991    0.3495 C   0  0  0  0  0  0  0  0  0  0  0  0
    2.3571    0.3932    0.0330 C   0  0  0  0  0  0  0  0  0  0  0  0
    1.2082    4.1151   -0.3916 H   0  0  0  0  0  0  0  0  0  0  0  0
    0.7316    2.6632    0.4970 H   0  0  0  0  0  0  0  0  0  0  0  0
    1.0984    2.5857   -1.2711 H   0  0  0  0  0  0  0  0  0  0  0  0
    5.0326    2.2718    0.9137 H   0  0  0  0  0  0  0  0  0  0  0  0
    5.9189    0.0356    1.4627 H   0  0  0  0  0  0  0  0  0  0  0  0
    4.4657   -4.2476    1.2999 H   0  0  0  0  0  0  0  0  0  0  0  0
    2.1536   -4.2558    0.3906 H   0  0  0  0  0  0  0  0  0  0  0  0
    0.6520   -2.2308   -1.4365 H   0  0  0  0  0  0  0  0  0  0  0  0
   -0.2059   -1.8096    1.5167 H   0  0  0  0  0  0  0  0  0  0  0  0
   -1.6927   -4.0312   -0.5615 H   0  0  0  0  0  0  0  0  0  0  0  0
   -4.0025   -3.9422   -1.4701 H   0  0  0  0  0  0  0  0  0  0  0  0
   -5.4992    0.3139   -1.1449 H   0  0  0  0  0  0  0  0  0  0  0  0
   -4.6704    2.4674   -0.3514 H   0  0  0  0  0  0  0  0  0  0  0  0
   -2.3056    4.8140    1.1711 H   0  0  0  0  0  0  0  0  0  0  0  0
   -3.1780    4.3093   -0.2814 H   0  0  0  0  0  0  0  0  0  0  0  0
   -3.8116    3.9072    1.3626 H   0  0  0  0  0  0  0  0  0  0  0  0
   -0.9661    0.6184    0.7744 H   0  0  0  0  0  0  0  0  0  0  0  0
    1.3606    0.4793   -0.3869 H   0  0  0  0  0  0  0  0  0  0  0  0
  1  2  1  0
  2  3  1  0
  3  4  2  0
  4  5  1  0
  5  6  2  0
  6  7  1  0
  7  8  2  0
  8  9  1  0
  9 10  2  0
 10 11  1  0
 11 12  2  3
 12 13  1  0
 13 14  2  0
 14 15  1  0
 15 16  2  0
 16 17  1  0
 17 18  2  0
 18 19  1  0
 19 20  2  0
 20 21  1  0
 21 22  1  0
 20 23  1  0
 23 24  2  0
 10 25  1  0
 25 26  2  0
 26  3  1  0
 25  6  1  0
 24 13  1  0
 24 17  1  0
  1 27  1  0
  1 28  1  0
  1 29  1  0
  4 30  1  0
  5 31  1  0
  8 32  1  0
  9 33  1  0
 11 34  1  0
 12 35  1  0
 14 36  1  0
 15 37  1  0
 18 38  1  0
 19 39  1  0
 22 40  1  0
 22 41  1  0
 22 42  1  0
 23 43  1  0
 26 44  1  0
M  END
$$$$
