
     RDKit          3D

 48 50  0  0  0  0  0  0  0  0999 V2000
    4.6715   -4.6151    0.7271 C   0  0  0  0  0  0  0  0  0  0  0  0
    4.2649   -3.2026    0.4245 C   0  0  0  0  0  0  0  0  0  0  0  0
    5.2296   -2.2321    0.1450 C   0  0  0  0  0  0  0  0  0  0  0  0
    4.8891   -0.9006   -0.1734 C   0  0  0  0  0  0  0  0  0  0  0  0
    5.9940    0.0775   -0.4608 C   0  0  0  0  0  0  0  0  0  0  0  0
    3.5119   -0.5866   -0.2130 C   0  0  0  0  0  0  0  0  0  0  0  0
    2.7270    0.9061   -0.5786 S   0  0  0  0  0  0  0  0  0  0  0  0
    1.1957    0.1977   -0.3041 C   0  0  0  0  0  0  0  0  0  0  0  0
    0.0140    0.9200   -0.5035 N   0  0  0  0  0  0  0  0  0  0  0  0
   -1.2638    0.1839   -0.4567 C   0  0  0  0  0  0  0  0  0  0  0  0
   -1.7624    0.0044    0.9821 C   0  0  0  0  0  0  0  0  0  0  0  0
   -3.0685   -0.7952    1.0507 C   0  0  0  0  0  0  0  0  0  0  0  0
   -4.1743   -0.1989    0.2825 N   0  0  0  0  0  0  0  0  0  0  0  0
   -5.2858   -1.1502    0.1843 C   0  0  0  0  0  0  0  0  0  0  0  0
   -4.6503    1.0500    0.8827 C   0  0  0  0  0  0  0  0  0  0  0  0
    0.0203    2.3189   -0.3565 C   0  0  0  0  0  0  0  0  0  0  0  0
    0.8218    2.9178    0.3608 O   0  0  0  0  0  0  0  0  0  0  0  0
   -1.0255    3.0680   -1.0438 C   0  0  0  0  0  0  0  0  0  0  0  0
   -1.8021    4.0908   -0.5280 C   0  0  0  0  0  0  0  0  0  0  0  0
   -2.6969    4.6349   -1.4971 C   0  0  0  0  0  0  0  0  0  0  0  0
   -2.5272    4.0331   -2.7178 C   0  0  0  0  0  0  0  0  0  0  0  0
   -3.5390    4.4970   -4.2711 Br  0  0  0  0  0  0  0  0  0  0  0  0
   -1.3143    2.8510   -2.7230 S   0  0  0  0  0  0  0  0  0  0  0  0
    1.2176   -1.0874   -0.0323 N   0  0  0  0  0  0  0  0  0  0  0  0
    2.5244   -1.5385    0.0502 C   0  0  0  0  0  0  0  0  0  0  0  0
    2.9095   -2.8577    0.3629 C   0  0  0  0  0  0  0  0  0  0  0  0
    5.6391   -4.6416    1.2395 H   0  0  0  0  0  0  0  0  0  0  0  0
    3.9429   -5.0987    1.3860 H   0  0  0  0  0  0  0  0  0  0  0  0
    4.7460   -5.1898   -0.2011 H   0  0  0  0  0  0  0  0  0  0  0  0
    6.2839   -2.5097    0.1734 H   0  0  0  0  0  0  0  0  0  0  0  0
    6.6997    0.1026    0.3762 H   0  0  0  0  0  0  0  0  0  0  0  0
    5.6223    1.0946   -0.6095 H   0  0  0  0  0  0  0  0  0  0  0  0
    6.5294   -0.2229   -1.3673 H   0  0  0  0  0  0  0  0  0  0  0  0
   -2.0221    0.7148   -1.0345 H   0  0  0  0  0  0  0  0  0  0  0  0
   -1.1317   -0.7879   -0.9482 H   0  0  0  0  0  0  0  0  0  0  0  0
   -1.8806    0.9807    1.4661 H   0  0  0  0  0  0  0  0  0  0  0  0
   -1.0045   -0.5276    1.5705 H   0  0  0  0  0  0  0  0  0  0  0  0
   -3.3555   -0.9299    2.1017 H   0  0  0  0  0  0  0  0  0  0  0  0
   -2.8540   -1.7968    0.6551 H   0  0  0  0  0  0  0  0  0  0  0  0
   -6.0976   -0.7332   -0.4220 H   0  0  0  0  0  0  0  0  0  0  0  0
   -5.6896   -1.4176    1.1676 H   0  0  0  0  0  0  0  0  0  0  0  0
   -4.9634   -2.0687   -0.3189 H   0  0  0  0  0  0  0  0  0  0  0  0
   -5.4842    1.4610    0.3020 H   0  0  0  0  0  0  0  0  0  0  0  0
   -3.8707    1.8176    0.8725 H   0  0  0  0  0  0  0  0  0  0  0  0
   -4.9879    0.9101    1.9159 H   0  0  0  0  0  0  0  0  0  0  0  0
   -1.7320    4.4234    0.5016 H   0  0  0  0  0  0  0  0  0  0  0  0
   -3.4068    5.4293   -1.3021 H   0  0  0  0  0  0  0  0  0  0  0  0
    2.1364   -3.5956    0.5555 H   0  0  0  0  0  0  0  0  0  0  0  0
  1  2  1  0
  2  3  2  0
  3  4  1  0
  4  5  1  0
  4  6  2  0
  6  7  1  0
  7  8  1  0
  8  9  1  0
  9 10  1  0
 10 11  1  0
 11 12  1  0
 12 13  1  0
 13 14  1  0
 13 15  1  0
  9 16  1  0
 16 17  2  0
 16 18  1  0
 18 19  2  0
 19 20  1  0
 20 21  2  0
 21 22  1  0
 21 23  1  0
  8 24  2  0
 24 25  1  0
 25 26  2  0
 26  2  1  0
 25  6  1  0
 23 18  1  0
  1 27  1  0
  1 28  1  0
  1 29  1  0
  3 30  1  0
  5 31  1  0
  5 32  1  0
  5 33  1  0
 10 34  1  0
 10 35  1  0
 11 36  1  0
 11 37  1  0
 12 38  1  0
 12 39  1  0
 14 40  1  0
 14 41  1  0
 14 42  1  0
 15 43  1  0
 15 44  1  0
 15 45  1  0
 19 46  1  0
 20 47  1  0
 26 48  1  0
M  END
$$$$
