
     RDKit          3D

 60 61  0  0  0  0  0  0  0  0999 V2000
    1.5292   -5.4853   -1.5652 C   0  0  0  0  0  0  0  0  0  0  0  0
    0.9115   -4.3798   -0.9179 O   0  0  0  0  0  0  0  0  0  0  0  0
    1.5669   -3.1753   -0.9419 C   0  0  0  0  0  0  0  0  0  0  0  0
    2.7634   -2.9534   -1.6301 C   0  0  0  0  0  0  0  0  0  0  0  0
    3.3643   -1.6940   -1.6161 C   0  0  0  0  0  0  0  0  0  0  0  0
    2.7678   -0.6279   -0.9349 C   0  0  0  0  0  0  0  0  0  0  0  0
    3.4783    0.6806   -0.9880 C   0  0  0  0  0  0  0  0  0  0  0  0
    4.7041    0.6941   -1.0258 O   0  0  0  0  0  0  0  0  0  0  0  0
    2.6502    1.9141   -1.1171 C   0  0  0  0  0  0  0  0  0  0  0  0
    3.0162    3.1669   -0.8039 C   0  0  0  0  0  0  0  0  0  0  0  0
    4.2899    3.6184   -0.2402 C   0  0  0  0  0  0  0  0  0  0  0  0
    5.4660    3.6150   -0.9988 C   0  0  0  0  0  0  0  0  0  0  0  0
    6.6624    4.0891   -0.4534 C   0  0  0  0  0  0  0  0  0  0  0  0
    6.6739    4.5751    0.8499 C   0  0  0  0  0  0  0  0  0  0  0  0
    7.8188    5.0477    1.4210 O   0  0  0  0  0  0  0  0  0  0  0  0
    5.5130    4.5943    1.6133 C   0  0  0  0  0  0  0  0  0  0  0  0
    4.3195    4.1165    1.0682 C   0  0  0  0  0  0  0  0  0  0  0  0
    1.5714   -0.8457   -0.2338 C   0  0  0  0  0  0  0  0  0  0  0  0
    1.0233    0.2032    0.4585 O   0  0  0  0  0  0  0  0  0  0  0  0
    0.9621   -2.1224   -0.2163 C   0  0  0  0  0  0  0  0  0  0  0  0
   -0.3104   -2.3816    0.5759 C   0  0  0  0  0  0  0  0  0  0  0  0
   -1.5289   -1.8115   -0.1034 C   0  0  0  0  0  0  0  0  0  0  0  0
   -2.4510   -0.9582    0.3897 C   0  0  0  0  0  0  0  0  0  0  0  0
   -2.4381   -0.3711    1.7764 C   0  0  0  0  0  0  0  0  0  0  0  0
   -3.5907   -0.4870   -0.5029 C   0  0  0  0  0  0  0  0  0  0  0  0
   -4.8676   -1.3355   -0.4228 C   0  0  0  0  0  0  0  0  0  0  0  0
   -5.6362   -1.1656    0.8597 C   0  0  0  0  0  0  0  0  0  0  0  0
   -6.6133   -0.2736    1.1121 C   0  0  0  0  0  0  0  0  0  0  0  0
   -7.0988    0.7658    0.1394 C   0  0  0  0  0  0  0  0  0  0  0  0
   -7.3060   -0.2464    2.4494 C   0  0  0  0  0  0  0  0  0  0  0  0
    0.8931   -6.3609   -1.4076 H   0  0  0  0  0  0  0  0  0  0  0  0
    1.6030   -5.3179   -2.6445 H   0  0  0  0  0  0  0  0  0  0  0  0
    2.5095   -5.7040   -1.1284 H   0  0  0  0  0  0  0  0  0  0  0  0
    3.2615   -3.7400   -2.1874 H   0  0  0  0  0  0  0  0  0  0  0  0
    4.3025   -1.5433   -2.1479 H   0  0  0  0  0  0  0  0  0  0  0  0
    1.6405    1.7552   -1.4845 H   0  0  0  0  0  0  0  0  0  0  0  0
    2.2842    3.9631   -0.9282 H   0  0  0  0  0  0  0  0  0  0  0  0
    5.4596    3.2248   -2.0138 H   0  0  0  0  0  0  0  0  0  0  0  0
    7.5636    4.0645   -1.0565 H   0  0  0  0  0  0  0  0  0  0  0  0
    8.5499    4.9078    0.7974 H   0  0  0  0  0  0  0  0  0  0  0  0
    5.5355    4.9743    2.6301 H   0  0  0  0  0  0  0  0  0  0  0  0
    3.4164    4.1299    1.6735 H   0  0  0  0  0  0  0  0  0  0  0  0
    0.1095   -0.0082    0.7099 H   0  0  0  0  0  0  0  0  0  0  0  0
   -0.4774   -3.4551    0.7187 H   0  0  0  0  0  0  0  0  0  0  0  0
   -0.1660   -1.9956    1.5897 H   0  0  0  0  0  0  0  0  0  0  0  0
   -1.6600   -2.1722   -1.1251 H   0  0  0  0  0  0  0  0  0  0  0  0
   -2.4841    0.7221    1.7224 H   0  0  0  0  0  0  0  0  0  0  0  0
   -1.5401   -0.6220    2.3451 H   0  0  0  0  0  0  0  0  0  0  0  0
   -3.2943   -0.7244    2.3565 H   0  0  0  0  0  0  0  0  0  0  0  0
   -3.8157    0.5652   -0.2879 H   0  0  0  0  0  0  0  0  0  0  0  0
   -3.2496   -0.4962   -1.5467 H   0  0  0  0  0  0  0  0  0  0  0  0
   -4.6219   -2.3985   -0.5427 H   0  0  0  0  0  0  0  0  0  0  0  0
   -5.5098   -1.0917   -1.2770 H   0  0  0  0  0  0  0  0  0  0  0  0
   -5.3565   -1.8691    1.6436 H   0  0  0  0  0  0  0  0  0  0  0  0
   -7.0540    1.7609    0.5959 H   0  0  0  0  0  0  0  0  0  0  0  0
   -8.1374    0.5611   -0.1411 H   0  0  0  0  0  0  0  0  0  0  0  0
   -6.5054    0.8083   -0.7774 H   0  0  0  0  0  0  0  0  0  0  0  0
   -6.9324   -1.0205    3.1275 H   0  0  0  0  0  0  0  0  0  0  0  0
   -7.1534    0.7236    2.9343 H   0  0  0  0  0  0  0  0  0  0  0  0
   -8.3814   -0.4075    2.3225 H   0  0  0  0  0  0  0  0  0  0  0  0
  1  2  1  0
  2  3  1  0
  3  4  2  0
  4  5  1  0
  5  6  2  0
  6  7  1  0
  7  8  2  0
  7  9  1  0
  9 10  2  3
 10 11  1  0
 11 12  2  0
 12 13  1  0
 13 14  2  0
 14 15  1  0
 14 16  1  0
 16 17  2  0
  6 18  1  0
 18 19  1  0
 18 20  2  0
 20 21  1  0
 21 22  1  0
 22 23  2  3
 23 24  1  0
 23 25  1  0
 25 26  1  0
 26 27  1  0
 27 28  2  3
 28 29  1  0
 28 30  1  0
 20  3  1  0
 17 11  1  0
  1 31  1  0
  1 32  1  0
  1 33  1  0
  4 34  1  0
  5 35  1  0
  9 36  1  0
 10 37  1  0
 12 38  1  0
 13 39  1  0
 15 40  1  0
 16 41  1  0
 17 42  1  0
 19 43  1  0
 21 44  1  0
 21 45  1  0
 22 46  1  0
 24 47  1  0
 24 48  1  0
 24 49  1  0
 25 50  1  0
 25 51  1  0
 26 52  1  0
 26 53  1  0
 27 54  1  0
 29 55  1  0
 29 56  1  0
 29 57  1  0
 30 58  1  0
 30 59  1  0
 30 60  1  0
M  END
$$$$
