
     RDKit          3D

 54 57  0  0  0  0  0  0  0  0999 V2000
   -3.6598    5.8167   -0.2120 C   0  0  0  0  0  0  0  0  0  0  0  0
   -3.0717    4.8387    0.6360 O   0  0  0  0  0  0  0  0  0  0  0  0
   -2.3212    3.8674    0.0336 C   0  0  0  0  0  0  0  0  0  0  0  0
   -2.0532    3.7640   -1.3306 C   0  0  0  0  0  0  0  0  0  0  0  0
   -1.2653    2.7134   -1.8169 C   0  0  0  0  0  0  0  0  0  0  0  0
   -0.7372    1.7446   -0.9486 C   0  0  0  0  0  0  0  0  0  0  0  0
    0.1353    0.6296   -1.5071 C   0  0  0  0  0  0  0  0  0  0  0  0
    1.6199    0.9462   -1.3158 C   0  0  0  0  0  0  0  0  0  0  0  0
    1.9876   -0.0864   -0.2859 C   0  0  0  0  0  0  0  0  0  0  0  0
    3.3167   -0.0975    0.3688 C   0  0  0  0  0  0  0  0  0  0  0  0
    4.3141    0.8145    0.0128 C   0  0  0  0  0  0  0  0  0  0  0  0
    5.5540    0.7734    0.6531 C   0  0  0  0  0  0  0  0  0  0  0  0
    5.8046   -0.1759    1.6478 C   0  0  0  0  0  0  0  0  0  0  0  0
    4.8155   -1.0913    2.0079 C   0  0  0  0  0  0  0  0  0  0  0  0
    4.9314   -2.0659    2.9602 O   0  0  0  0  0  0  0  0  0  0  0  0
    6.1786   -2.1647    3.6358 C   0  0  0  0  0  0  0  0  0  0  0  0
    3.5749   -1.0473    1.3653 C   0  0  0  0  0  0  0  0  0  0  0  0
    1.0688   -0.9713   -0.0436 N   0  0  0  0  0  0  0  0  0  0  0  0
   -0.0217   -0.6414   -0.7967 N   0  0  0  0  0  0  0  0  0  0  0  0
   -1.1097   -1.5068   -0.8926 C   0  0  0  0  0  0  0  0  0  0  0  0
   -1.1180   -2.7290   -0.1927 C   0  0  0  0  0  0  0  0  0  0  0  0
   -2.1965   -3.6174   -0.2591 C   0  0  0  0  0  0  0  0  0  0  0  0
   -3.3049   -3.2837   -1.0317 C   0  0  0  0  0  0  0  0  0  0  0  0
   -4.6890   -4.3842   -1.1181 S   0  0  0  0  0  6  0  0  0  0  0  0
   -5.6677   -3.7848    0.1162 N   0  0  0  0  0  0  0  0  0  0  0  0
   -4.2684   -5.6950   -0.6790 O   0  0  0  0  0  0  0  0  0  0  0  0
   -5.3723   -4.1671   -2.3711 O   0  0  0  0  0  0  0  0  0  0  0  0
   -3.3295   -2.0907   -1.7517 C   0  0  0  0  0  0  0  0  0  0  0  0
   -2.2394   -1.2151   -1.6759 C   0  0  0  0  0  0  0  0  0  0  0  0
   -1.0062    1.8642    0.4224 C   0  0  0  0  0  0  0  0  0  0  0  0
   -1.7920    2.9139    0.9044 C   0  0  0  0  0  0  0  0  0  0  0  0
   -2.8928    6.4018   -0.7301 H   0  0  0  0  0  0  0  0  0  0  0  0
   -4.2335    6.5038    0.4175 H   0  0  0  0  0  0  0  0  0  0  0  0
   -4.3548    5.3573   -0.9227 H   0  0  0  0  0  0  0  0  0  0  0  0
   -2.4403    4.4837   -2.0441 H   0  0  0  0  0  0  0  0  0  0  0  0
   -1.0703    2.6588   -2.8863 H   0  0  0  0  0  0  0  0  0  0  0  0
   -0.0699    0.4953   -2.5769 H   0  0  0  0  0  0  0  0  0  0  0  0
    2.1850    0.7448   -2.2322 H   0  0  0  0  0  0  0  0  0  0  0  0
    1.8203    1.9636   -0.9693 H   0  0  0  0  0  0  0  0  0  0  0  0
    4.1544    1.5619   -0.7582 H   0  0  0  0  0  0  0  0  0  0  0  0
    6.3308    1.4831    0.3770 H   0  0  0  0  0  0  0  0  0  0  0  0
    6.7811   -0.1739    2.1211 H   0  0  0  0  0  0  0  0  0  0  0  0
    6.9883   -2.4000    2.9373 H   0  0  0  0  0  0  0  0  0  0  0  0
    6.3951   -1.2513    4.1997 H   0  0  0  0  0  0  0  0  0  0  0  0
    6.1068   -2.9889    4.3520 H   0  0  0  0  0  0  0  0  0  0  0  0
    2.8071   -1.7641    1.6506 H   0  0  0  0  0  0  0  0  0  0  0  0
   -0.2591   -3.0000    0.4195 H   0  0  0  0  0  0  0  0  0  0  0  0
   -2.1534   -4.5536    0.2922 H   0  0  0  0  0  0  0  0  0  0  0  0
   -5.3371   -2.8946    0.4884 H   0  0  0  0  0  0  0  0  0  0  0  0
   -5.7434   -4.4950    0.8464 H   0  0  0  0  0  0  0  0  0  0  0  0
   -4.1860   -1.8312   -2.3707 H   0  0  0  0  0  0  0  0  0  0  0  0
   -2.2988   -0.2914   -2.2440 H   0  0  0  0  0  0  0  0  0  0  0  0
   -0.6125    1.1332    1.1274 H   0  0  0  0  0  0  0  0  0  0  0  0
   -1.9948    2.9855    1.9703 H   0  0  0  0  0  0  0  0  0  0  0  0
  1  2  1  0
  2  3  1  0
  3  4  2  0
  4  5  1  0
  5  6  2  0
  6  7  1  0
  7  8  1  0
  8  9  1  0
  9 10  1  0
 10 11  2  0
 11 12  1  0
 12 13  2  0
 13 14  1  0
 14 15  1  0
 15 16  1  0
 14 17  2  0
  9 18  2  0
 18 19  1  0
 19 20  1  0
 20 21  2  0
 21 22  1  0
 22 23  2  0
 23 24  1  0
 24 25  1  0
 24 26  2  0
 24 27  2  0
 23 28  1  0
 28 29  2  0
  6 30  1  0
 30 31  2  0
 31  3  1  0
 19  7  1  0
 29 20  1  0
 17 10  1  0
  1 32  1  0
  1 33  1  0
  1 34  1  0
  4 35  1  0
  5 36  1  0
  7 37  1  0
  8 38  1  0
  8 39  1  0
 11 40  1  0
 12 41  1  0
 13 42  1  0
 16 43  1  0
 16 44  1  0
 16 45  1  0
 17 46  1  0
 21 47  1  0
 22 48  1  0
 25 49  1  0
 25 50  1  0
 28 51  1  0
 29 52  1  0
 30 53  1  0
 31 54  1  0
M  END
$$$$
