
     RDKit          3D

 72 76  0  0  0  0  0  0  0  0999 V2000
    8.5011   -0.4281    0.7266 C   0  0  0  0  0  0  0  0  0  0  0  0
    7.4085    0.0243    1.7075 C   0  0  0  0  0  0  0  0  0  0  0  0
    6.6940   -1.2186    2.2503 C   0  0  0  0  0  0  0  0  0  0  0  0
    8.0639    0.8427    2.8255 C   0  0  0  0  0  0  0  0  0  0  0  0
    6.5121    0.8395    0.9100 O   0  0  0  0  0  0  0  0  0  0  0  0
    5.4209    1.4113    1.4671 C   0  0  0  0  0  0  0  0  0  0  0  0
    5.0773    1.3282    2.6348 O   0  0  0  0  0  0  0  0  0  0  0  0
    4.7457    2.0913    0.5000 N   0  0  0  0  0  0  0  0  0  0  0  0
    3.4681    2.7224    0.7323 C   0  0  0  0  0  0  0  0  0  0  0  0
    2.3101    1.7231    0.7431 C   0  0  0  0  0  0  0  0  0  0  0  0
    2.0735    1.0894   -0.6308 C   0  0  0  0  0  0  0  0  0  0  0  0
    1.0109   -0.0161   -0.6168 C   0  0  0  0  0  0  0  0  0  0  0  0
   -0.3782    0.4157   -0.1291 C   0  0  1  0  0  0  0  0  0  0  0  0
   -0.9254    1.5697   -0.9283 N   0  0  0  0  0  0  0  0  0  0  0  0
   -1.9361    1.0249   -1.9032 C   0  0  0  0  0  0  0  0  0  0  0  0
   -1.3764    0.9789   -3.3560 C   0  0  0  0  0  0  0  0  0  0  0  0
   -0.3789    0.4173   -3.7835 O   0  0  0  0  0  0  0  0  0  0  0  0
   -2.2538    1.7294   -4.1454 N   0  0  0  0  0  0  0  0  0  0  0  0
   -3.2995    2.2453   -3.3939 C   0  0  0  0  0  0  0  0  0  0  0  0
   -4.3428    3.0224   -3.8515 C   0  0  0  0  0  0  0  0  0  0  0  0
   -5.3027    3.4217   -2.9191 C   0  0  0  0  0  0  0  0  0  0  0  0
   -5.1985    3.0394   -1.5693 C   0  0  0  0  0  0  0  0  0  0  0  0
   -4.1300    2.2538   -1.1270 C   0  0  0  0  0  0  0  0  0  0  0  0
   -3.1778    1.8593   -2.0557 C   0  0  0  0  0  0  0  0  0  0  0  0
   -2.2978   -0.2865   -1.3457 C   0  0  0  0  0  0  0  0  0  0  0  0
   -1.4040   -0.6328   -0.3256 C   0  0  0  0  0  0  0  0  0  0  0  0
   -1.7620   -1.8556    0.1749 C   0  0  0  0  0  0  0  0  0  0  0  0
   -1.2343   -2.6180    1.1237 O   0  0  0  0  0  0  0  0  0  0  0  0
   -2.8921   -2.2482   -0.5266 N   0  0  0  0  0  0  0  0  0  0  0  0
   -3.6060   -3.5025   -0.3248 C   0  0  0  0  0  0  0  0  0  0  0  0
   -4.7245   -3.3557    0.6787 C   0  0  0  0  0  0  0  0  0  0  0  0
   -6.0135   -2.9916    0.2626 C   0  0  0  0  0  0  0  0  0  0  0  0
   -7.0463   -2.8527    1.1911 C   0  0  0  0  0  0  0  0  0  0  0  0
   -6.8011   -3.0714    2.5453 C   0  0  0  0  0  0  0  0  0  0  0  0
   -5.5224   -3.4241    2.9729 C   0  0  0  0  0  0  0  0  0  0  0  0
   -4.4886   -3.5632    2.0455 C   0  0  0  0  0  0  0  0  0  0  0  0
   -3.2152   -1.2960   -1.4824 C   0  0  0  0  0  0  0  0  0  0  0  0
   -4.2515   -1.4563   -2.2963 O   0  0  0  0  0  0  0  0  0  0  0  0
    8.0663   -0.9867   -0.1105 H   0  0  0  0  0  0  0  0  0  0  0  0
    9.0133    0.4362    0.2879 H   0  0  0  0  0  0  0  0  0  0  0  0
    9.2487   -1.0622    1.2144 H   0  0  0  0  0  0  0  0  0  0  0  0
    5.9427   -0.9627    3.0034 H   0  0  0  0  0  0  0  0  0  0  0  0
    6.1661   -1.7448    1.4470 H   0  0  0  0  0  0  0  0  0  0  0  0
    7.4012   -1.9135    2.7160 H   0  0  0  0  0  0  0  0  0  0  0  0
    8.4907    1.7708    2.4287 H   0  0  0  0  0  0  0  0  0  0  0  0
    7.3440    1.1324    3.5969 H   0  0  0  0  0  0  0  0  0  0  0  0
    8.8605    0.2756    3.3191 H   0  0  0  0  0  0  0  0  0  0  0  0
    5.1022    1.9897   -0.4397 H   0  0  0  0  0  0  0  0  0  0  0  0
    3.3250    3.4765   -0.0485 H   0  0  0  0  0  0  0  0  0  0  0  0
    3.5107    3.2375    1.6985 H   0  0  0  0  0  0  0  0  0  0  0  0
    1.4069    2.2562    1.0605 H   0  0  0  0  0  0  0  0  0  0  0  0
    2.4989    0.9368    1.4836 H   0  0  0  0  0  0  0  0  0  0  0  0
    1.7959    1.8669   -1.3523 H   0  0  0  0  0  0  0  0  0  0  0  0
    3.0070    0.6466   -0.9985 H   0  0  0  0  0  0  0  0  0  0  0  0
    0.9456   -0.4363   -1.6286 H   0  0  0  0  0  0  0  0  0  0  0  0
    1.3675   -0.8388    0.0176 H   0  0  0  0  0  0  0  0  0  0  0  0
   -0.3378    0.7049    0.9270 H   0  0  0  0  0  0  0  0  0  0  0  0
   -1.4591    2.1334   -0.2687 H   0  0  0  0  0  0  0  0  0  0  0  0
   -2.1065    1.8670   -5.1338 H   0  0  0  0  0  0  0  0  0  0  0  0
   -4.4244    3.3158   -4.8919 H   0  0  0  0  0  0  0  0  0  0  0  0
   -6.1432    4.0347   -3.2378 H   0  0  0  0  0  0  0  0  0  0  0  0
   -5.9617    3.3571   -0.8615 H   0  0  0  0  0  0  0  0  0  0  0  0
   -4.0619    1.9505   -0.0861 H   0  0  0  0  0  0  0  0  0  0  0  0
   -0.4370   -2.1652    1.4502 H   0  0  0  0  0  0  0  0  0  0  0  0
   -3.9904   -3.8394   -1.2945 H   0  0  0  0  0  0  0  0  0  0  0  0
   -2.8853   -4.2619   -0.0000 H   0  0  0  0  0  0  0  0  0  0  0  0
   -6.2156   -2.8091   -0.7911 H   0  0  0  0  0  0  0  0  0  0  0  0
   -8.0411   -2.5713    0.8566 H   0  0  0  0  0  0  0  0  0  0  0  0
   -7.6051   -2.9626    3.2679 H   0  0  0  0  0  0  0  0  0  0  0  0
   -5.3280   -3.5881    4.0293 H   0  0  0  0  0  0  0  0  0  0  0  0
   -3.4922   -3.8293    2.3931 H   0  0  0  0  0  0  0  0  0  0  0  0
   -4.3310   -0.6491   -2.8349 H   0  0  0  0  0  0  0  0  0  0  0  0
  1  2  1  0
  2  3  1  0
  2  4  1  0
  2  5  1  0
  5  6  1  0
  6  7  2  0
  6  8  1  0
  8  9  1  0
  9 10  1  0
 10 11  1  0
 11 12  1  0
 12 13  1  0
 13 14  1  0
 14 15  1  0
 15 16  1  0
 16 17  2  0
 16 18  1  0
 18 19  1  0
 19 20  2  0
 20 21  1  0
 21 22  2  0
 22 23  1  0
 23 24  2  0
 15 25  1  0
 25 26  1  0
 26 27  2  0
 27 28  1  0
 27 29  1  0
 29 30  1  0
 30 31  1  0
 31 32  2  0
 32 33  1  0
 33 34  2  0
 34 35  1  0
 35 36  2  0
 29 37  1  0
 37 38  1  0
 26 13  1  0
 36 31  1  0
 24 15  1  0
 37 25  2  0
 24 19  1  0
  1 39  1  0
  1 40  1  0
  1 41  1  0
  3 42  1  0
  3 43  1  0
  3 44  1  0
  4 45  1  0
  4 46  1  0
  4 47  1  0
  8 48  1  0
  9 49  1  0
  9 50  1  0
 10 51  1  0
 10 52  1  0
 11 53  1  0
 11 54  1  0
 12 55  1  0
 12 56  1  0
 13 57  1  1
 14 58  1  0
 18 59  1  0
 20 60  1  0
 21 61  1  0
 22 62  1  0
 23 63  1  0
 28 64  1  0
 30 65  1  0
 30 66  1  0
 32 67  1  0
 33 68  1  0
 34 69  1  0
 35 70  1  0
 36 71  1  0
 38 72  1  0
M  END
$$$$
