
     RDKit          3D

 45 47  0  0  0  0  0  0  0  0999 V2000
    7.4518    1.0798   -0.2747 C   0  0  0  0  0  0  0  0  0  0  0  0
    6.9869    0.5412    1.0671 C   0  0  0  0  0  0  0  0  0  0  0  0
    6.1986   -0.6355    0.8947 O   0  0  0  0  0  0  0  0  0  0  0  0
    4.8474   -0.5059    0.7448 C   0  0  0  0  0  0  0  0  0  0  0  0
    4.1473   -1.7130    0.7312 C   0  0  0  0  0  0  0  0  0  0  0  0
    2.7570   -1.7322    0.5815 C   0  0  0  0  0  0  0  0  0  0  0  0
    2.0421   -0.5388    0.4420 C   0  0  0  0  0  0  0  0  0  0  0  0
    0.6457   -0.6352    0.2870 N   0  0  0  0  0  0  0  0  0  0  0  0
   -0.2710    0.3926    0.2573 C   0  0  0  0  0  0  0  0  0  0  0  0
   -0.0482    1.5811    0.4427 O   0  0  0  0  0  0  0  0  0  0  0  0
   -1.5360   -0.0912    0.0031 N   0  0  0  0  0  0  0  0  0  0  0  0
   -2.6779    0.8049   -0.1220 C   0  0  0  0  0  0  0  0  0  0  0  0
   -2.6689    1.5485   -1.4687 C   0  0  0  0  0  0  0  0  0  0  0  0
   -3.0934    0.6297   -2.6098 C   0  0  0  0  0  0  0  0  0  0  0  0
   -4.5232    0.1404   -2.3978 C   0  0  0  0  0  0  0  0  0  0  0  0
   -4.7884   -0.3472   -0.9948 C   0  0  0  0  0  0  0  0  0  0  0  0
   -5.9397   -1.1125   -0.7514 C   0  0  0  0  0  0  0  0  0  0  0  0
   -6.2467   -1.5482    0.5373 C   0  0  0  0  0  0  0  0  0  0  0  0
   -5.4116   -1.2182    1.6000 C   0  0  0  0  0  0  0  0  0  0  0  0
   -4.2701   -0.4505    1.3740 C   0  0  0  0  0  0  0  0  0  0  0  0
   -3.9488   -0.0002    0.0812 C   0  0  0  0  0  0  0  0  0  0  0  0
    2.7445    0.6664    0.4437 C   0  0  0  0  0  0  0  0  0  0  0  0
    4.1391    0.6836    0.5947 C   0  0  0  0  0  0  0  0  0  0  0  0
    6.6068    1.3877   -0.8976 H   0  0  0  0  0  0  0  0  0  0  0  0
    8.1144    1.9391   -0.1375 H   0  0  0  0  0  0  0  0  0  0  0  0
    7.9903    0.3060   -0.8319 H   0  0  0  0  0  0  0  0  0  0  0  0
    6.4822    1.3024    1.6722 H   0  0  0  0  0  0  0  0  0  0  0  0
    7.8700    0.2395    1.6420 H   0  0  0  0  0  0  0  0  0  0  0  0
    4.6895   -2.6491    0.8405 H   0  0  0  0  0  0  0  0  0  0  0  0
    2.2494   -2.6926    0.5784 H   0  0  0  0  0  0  0  0  0  0  0  0
    0.2518   -1.5626    0.3291 H   0  0  0  0  0  0  0  0  0  0  0  0
   -1.6050   -0.9671   -0.4905 H   0  0  0  0  0  0  0  0  0  0  0  0
   -2.6032    1.5586    0.6728 H   0  0  0  0  0  0  0  0  0  0  0  0
   -3.3644    2.3969   -1.4196 H   0  0  0  0  0  0  0  0  0  0  0  0
   -1.6780    1.9648   -1.6819 H   0  0  0  0  0  0  0  0  0  0  0  0
   -3.0276    1.1623   -3.5654 H   0  0  0  0  0  0  0  0  0  0  0  0
   -2.4100   -0.2258   -2.6759 H   0  0  0  0  0  0  0  0  0  0  0  0
   -5.2205    0.9614   -2.6076 H   0  0  0  0  0  0  0  0  0  0  0  0
   -4.7308   -0.6610   -3.1170 H   0  0  0  0  0  0  0  0  0  0  0  0
   -6.6087   -1.3700   -1.5701 H   0  0  0  0  0  0  0  0  0  0  0  0
   -7.1406   -2.1412    0.7119 H   0  0  0  0  0  0  0  0  0  0  0  0
   -5.6491   -1.5560    2.6053 H   0  0  0  0  0  0  0  0  0  0  0  0
   -3.6221   -0.2011    2.2126 H   0  0  0  0  0  0  0  0  0  0  0  0
    2.2371    1.6188    0.3223 H   0  0  0  0  0  0  0  0  0  0  0  0
    4.6319    1.6495    0.5792 H   0  0  0  0  0  0  0  0  0  0  0  0
  1  2  1  0
  2  3  1  0
  3  4  1  0
  4  5  2  0
  5  6  1  0
  6  7  2  0
  7  8  1  0
  8  9  1  0
  9 10  2  0
  9 11  1  0
 11 12  1  0
 12 13  1  0
 13 14  1  0
 14 15  1  0
 15 16  1  0
 16 17  2  0
 17 18  1  0
 18 19  2  0
 19 20  1  0
 20 21  2  0
  7 22  1  0
 22 23  2  0
 23  4  1  0
 21 12  1  0
 21 16  1  0
  1 24  1  0
  1 25  1  0
  1 26  1  0
  2 27  1  0
  2 28  1  0
  5 29  1  0
  6 30  1  0
  8 31  1  0
 11 32  1  0
 12 33  1  0
 13 34  1  0
 13 35  1  0
 14 36  1  0
 14 37  1  0
 15 38  1  0
 15 39  1  0
 17 40  1  0
 18 41  1  0
 19 42  1  0
 20 43  1  0
 22 44  1  0
 23 45  1  0
M  END
$$$$
