
     RDKit          3D

 35 38  0  0  0  0  0  0  0  0999 V2000
    0.0839    1.6233    2.2923 O   0  0  0  0  0  0  0  0  0  0  0  0
   -0.3349    0.9109    1.0272 P   0  0  0  0  0  5  0  0  0  0  0  0
   -0.5609    1.7688   -0.3548 N   0  0  0  0  0  0  0  0  0  0  0  0
   -1.6213    2.5859   -0.3944 C   0  0  0  0  0  0  0  0  0  0  0  0
   -2.6721    2.4967    0.3862 N   0  0  0  0  0  0  0  0  0  0  0  0
   -3.5848    3.4850    0.0780 C   0  0  0  0  0  0  0  0  0  0  0  0
   -3.2255    4.3209   -0.9544 C   0  0  0  0  0  0  0  0  0  0  0  0
   -1.6931    3.8553   -1.5594 S   0  0  0  0  0  0  0  0  0  0  0  0
   -1.3885   -0.5117    1.2314 C   0  0  0  0  0  0  0  0  0  0  0  0
   -1.6550   -1.0094    2.5156 C   0  0  0  0  0  0  0  0  0  0  0  0
   -2.4717   -2.1272    2.6894 C   0  0  0  0  0  0  0  0  0  0  0  0
   -3.0347   -2.7575    1.5813 C   0  0  0  0  0  0  0  0  0  0  0  0
   -2.7853   -2.2699    0.2999 C   0  0  0  0  0  0  0  0  0  0  0  0
   -1.9681   -1.1522    0.1254 C   0  0  0  0  0  0  0  0  0  0  0  0
    1.1383    0.1634    0.2946 C   0  0  0  0  0  0  0  0  0  0  0  0
    1.6505    0.5412   -0.8675 N   0  0  0  0  0  0  0  0  0  0  0  0
    2.7888   -0.2008   -1.1366 C   0  0  0  0  0  0  0  0  0  0  0  0
    3.5934   -0.0865   -2.2886 C   0  0  0  0  0  0  0  0  0  0  0  0
    4.7212   -0.9010   -2.4344 C   0  0  0  0  0  0  0  0  0  0  0  0
    5.0551   -1.8244   -1.4492 C   0  0  0  0  0  0  0  0  0  0  0  0
    4.2745   -1.9567   -0.2967 C   0  0  0  0  0  0  0  0  0  0  0  0
    3.1441   -1.1337   -0.1600 C   0  0  0  0  0  0  0  0  0  0  0  0
    2.0076   -1.0611    1.1302 S   0  0  0  0  0  0  0  0  0  0  0  0
    0.2577    2.0163   -0.9005 H   0  0  0  0  0  0  0  0  0  0  0  0
   -4.5061    3.5498    0.6440 H   0  0  0  0  0  0  0  0  0  0  0  0
   -3.7726    5.1547   -1.3692 H   0  0  0  0  0  0  0  0  0  0  0  0
   -1.2238   -0.5172    3.3865 H   0  0  0  0  0  0  0  0  0  0  0  0
   -2.6718   -2.5032    3.6895 H   0  0  0  0  0  0  0  0  0  0  0  0
   -3.6736   -3.6265    1.7174 H   0  0  0  0  0  0  0  0  0  0  0  0
   -3.2309   -2.7576   -0.5635 H   0  0  0  0  0  0  0  0  0  0  0  0
   -1.7863   -0.7760   -0.8795 H   0  0  0  0  0  0  0  0  0  0  0  0
    3.3327    0.6362   -3.0553 H   0  0  0  0  0  0  0  0  0  0  0  0
    5.3397   -0.8086   -3.3241 H   0  0  0  0  0  0  0  0  0  0  0  0
    5.9357   -2.4514   -1.5741 H   0  0  0  0  0  0  0  0  0  0  0  0
    4.5379   -2.6760    0.4729 H   0  0  0  0  0  0  0  0  0  0  0  0
  1  2  2  0
  2  3  1  0
  3  4  1  0
  4  5  2  0
  5  6  1  0
  6  7  2  0
  7  8  1  0
  2  9  1  0
  9 10  2  0
 10 11  1  0
 11 12  2  0
 12 13  1  0
 13 14  2  0
  2 15  1  0
 15 16  2  0
 16 17  1  0
 17 18  2  0
 18 19  1  0
 19 20  2  0
 20 21  1  0
 21 22  2  0
 22 23  1  0
  8  4  1  0
 14  9  1  0
 23 15  1  0
 22 17  1  0
  3 24  1  0
  6 25  1  0
  7 26  1  0
 10 27  1  0
 11 28  1  0
 12 29  1  0
 13 30  1  0
 14 31  1  0
 18 32  1  0
 19 33  1  0
 20 34  1  0
 21 35  1  0
M  END
$$$$
