
     RDKit          3D

 56 61  0  0  0  0  0  0  0  0999 V2000
   -0.1432    1.1562   -3.4397 C   0  0  0  0  0  0  0  0  0  0  0  0
    0.6978    0.6627   -2.3227 C   0  0  0  0  0  0  0  0  0  0  0  0
    2.0010    0.9568   -2.2945 N   0  0  0  0  0  0  0  0  0  0  0  0
    2.4909    0.3646   -1.1598 N   0  0  0  0  0  0  0  0  0  0  0  0
    3.8762    0.5068   -0.8323 C   0  0  0  0  0  0  0  0  0  0  0  0
    4.4317   -0.0662    0.3208 C   0  0  0  0  0  0  0  0  0  0  0  0
    5.7932    0.0949    0.6097 C   0  0  0  0  0  0  0  0  0  0  0  0
    6.6062    0.8335   -0.2573 C   0  0  0  0  0  0  0  0  0  0  0  0
    8.0327    1.0020    0.0452 N   0  0  0  0  0  4  0  0  0  0  0  0
    8.7171    1.6620   -0.7503 O   0  0  0  0  0  0  0  0  0  0  0  0
    8.4712    0.4748    1.0776 O   0  0  0  0  0  1  0  0  0  0  0  0
    6.0677    1.4129   -1.4107 C   0  0  0  0  0  0  0  0  0  0  0  0
    4.7076    1.2483   -1.6934 C   0  0  0  0  0  0  0  0  0  0  0  0
    1.4788   -0.3211   -0.4942 C   0  0  0  0  0  0  0  0  0  0  0  0
    0.3241   -0.1124   -1.2121 C   0  0  0  0  0  0  0  0  0  0  0  0
   -0.9484   -0.7270   -0.7450 C   0  0  0  0  0  0  0  0  0  0  0  0
   -1.8278    0.4642   -0.3586 C   0  0  0  0  0  0  0  0  0  0  0  0
   -2.8917    0.8549   -1.1915 C   0  0  0  0  0  0  0  0  0  0  0  0
   -3.7113    1.9403   -0.8582 C   0  0  0  0  0  0  0  0  0  0  0  0
   -3.4794    2.6610    0.3125 C   0  0  0  0  0  0  0  0  0  0  0  0
   -4.2092    3.7271    0.7566 O   0  0  0  0  0  0  0  0  0  0  0  0
   -4.9993    4.3962   -0.2112 C   0  0  0  0  0  0  0  0  0  0  0  0
   -6.0847    3.6376   -0.5044 F   0  0  0  0  0  0  0  0  0  0  0  0
   -5.4661    5.5341    0.3621 F   0  0  0  0  0  0  0  0  0  0  0  0
   -2.4342    2.2759    1.1528 C   0  0  0  0  0  0  0  0  0  0  0  0
   -1.6120    1.1960    0.8215 C   0  0  0  0  0  0  0  0  0  0  0  0
   -0.7544   -1.6594    0.3873 N   0  0  0  0  0  0  0  0  0  0  0  0
    0.5069   -1.6919    1.0131 C   0  0  0  0  0  0  0  0  0  0  0  0
    1.5927   -1.0632    0.6352 N   0  0  0  0  0  0  0  0  0  0  0  0
    0.6829   -2.5499    2.2893 C   0  0  0  0  0  0  0  0  0  0  0  0
    1.7245   -2.5547    2.9306 O   0  0  0  0  0  0  0  0  0  0  0  0
   -0.3985   -3.3057    2.6545 N   0  0  0  0  0  0  0  0  0  0  0  0
   -1.6120   -3.3166    1.9617 C   0  0  0  0  0  0  0  0  0  0  0  0
   -2.6218   -4.1600    2.4405 C   0  0  0  0  0  0  0  0  0  0  0  0
   -3.8489   -4.2138    1.7897 C   0  0  0  0  0  0  0  0  0  0  0  0
   -4.0613   -3.4279    0.6643 C   0  0  0  0  0  0  0  0  0  0  0  0
   -3.0488   -2.5844    0.1895 C   0  0  0  0  0  0  0  0  0  0  0  0
   -1.7990   -2.4983    0.8263 C   0  0  0  0  0  0  0  0  0  0  0  0
   -0.9000    0.4148   -3.7145 H   0  0  0  0  0  0  0  0  0  0  0  0
   -0.6513    2.0819   -3.1520 H   0  0  0  0  0  0  0  0  0  0  0  0
    0.4589    1.3606   -4.3313 H   0  0  0  0  0  0  0  0  0  0  0  0
    3.8400   -0.6452    1.0245 H   0  0  0  0  0  0  0  0  0  0  0  0
    6.1951   -0.3621    1.5124 H   0  0  0  0  0  0  0  0  0  0  0  0
    6.6834    1.9912   -2.0965 H   0  0  0  0  0  0  0  0  0  0  0  0
    4.3076    1.7079   -2.5968 H   0  0  0  0  0  0  0  0  0  0  0  0
   -1.3790   -1.2710   -1.5958 H   0  0  0  0  0  0  0  0  0  0  0  0
   -3.1014    0.3099   -2.1103 H   0  0  0  0  0  0  0  0  0  0  0  0
   -4.5359    2.1770   -1.5246 H   0  0  0  0  0  0  0  0  0  0  0  0
   -4.4475    4.6579   -1.1209 H   0  0  0  0  0  0  0  0  0  0  0  0
   -2.2507    2.8235    2.0751 H   0  0  0  0  0  0  0  0  0  0  0  0
   -0.7994    0.9336    1.4968 H   0  0  0  0  0  0  0  0  0  0  0  0
   -0.2704   -3.8759    3.4792 H   0  0  0  0  0  0  0  0  0  0  0  0
   -2.4620   -4.7794    3.3192 H   0  0  0  0  0  0  0  0  0  0  0  0
   -4.6363   -4.8664    2.1585 H   0  0  0  0  0  0  0  0  0  0  0  0
   -5.0195   -3.4661    0.1504 H   0  0  0  0  0  0  0  0  0  0  0  0
   -3.2828   -2.0028   -0.6953 H   0  0  0  0  0  0  0  0  0  0  0  0
  1  2  1  0
  2  3  2  0
  3  4  1  0
  4  5  1  0
  5  6  2  0
  6  7  1  0
  7  8  2  0
  8  9  1  0
  9 10  2  0
  9 11  1  0
  8 12  1  0
 12 13  2  0
  4 14  1  0
 14 15  2  0
 15 16  1  0
 16 17  1  0
 17 18  2  0
 18 19  1  0
 19 20  2  0
 20 21  1  0
 21 22  1  0
 22 23  1  0
 22 24  1  0
 20 25  1  0
 25 26  2  0
 16 27  1  0
 27 28  1  0
 28 29  2  0
 28 30  1  0
 30 31  2  0
 30 32  1  0
 32 33  1  0
 33 34  2  0
 34 35  1  0
 35 36  2  0
 36 37  1  0
 37 38  2  0
 15  2  1  0
 26 17  1  0
 38 27  1  0
 13  5  1  0
 29 14  1  0
 38 33  1  0
  1 39  1  0
  1 40  1  0
  1 41  1  0
  6 42  1  0
  7 43  1  0
 12 44  1  0
 13 45  1  0
 16 46  1  0
 18 47  1  0
 19 48  1  0
 22 49  1  0
 25 50  1  0
 26 51  1  0
 32 52  1  0
 34 53  1  0
 35 54  1  0
 36 55  1  0
 37 56  1  0
M  CHG  2   9   1  11  -1
M  END
$$$$
