
     RDKit          3D

 46 48  0  0  0  0  0  0  0  0999 V2000
    0.1254    1.6185   -1.7145 N   0  0  0  0  0  0  0  0  0  0  0  0
    0.3372    0.3165   -1.4512 C   0  0  0  0  0  0  0  0  0  0  0  0
    0.7423   -0.5352   -2.3473 N   0  0  0  0  0  0  0  0  0  0  0  0
    0.8190   -1.8258   -1.6029 C   0  0  0  0  0  0  0  0  0  0  0  0
    0.6069   -1.5044   -0.1079 C   0  0  0  0  0  0  0  0  0  0  0  0
    1.8684   -1.6751    0.7615 C   0  0  0  0  0  0  0  0  0  0  0  0
    3.0315   -0.7449    0.4896 C   0  0  0  0  0  0  0  0  0  0  0  0
    4.0370   -1.0944   -0.4230 C   0  0  0  0  0  0  0  0  0  0  0  0
    5.1010   -0.2252   -0.6780 C   0  0  0  0  0  0  0  0  0  0  0  0
    5.1632    0.9950   -0.0143 C   0  0  0  0  0  0  0  0  0  0  0  0
    6.1823    1.8736   -0.2358 O   0  0  0  0  0  0  0  0  0  0  0  0
    4.1825    1.3575    0.8990 C   0  0  0  0  0  0  0  0  0  0  0  0
    3.1188    0.4900    1.1505 C   0  0  0  0  0  0  0  0  0  0  0  0
    0.1593   -0.1230   -0.1817 N   0  0  0  0  0  0  0  0  0  0  0  0
   -0.6586    0.4635    0.8593 C   0  0  0  0  0  0  0  0  0  0  0  0
   -2.1545    0.5297    0.4917 C   0  0  0  0  0  0  0  0  0  0  0  0
   -2.9110    1.3261    1.5702 C   0  0  0  0  0  0  0  0  0  0  0  0
   -4.4086    1.3981    1.2853 C   0  0  0  0  0  0  0  0  0  0  0  0
   -5.0135    0.0093    1.1173 C   0  0  0  0  0  0  0  0  0  0  0  0
   -4.2812   -0.7889    0.0452 C   0  0  0  0  0  0  0  0  0  0  0  0
   -2.7802   -0.8643    0.3187 C   0  0  0  0  0  0  0  0  0  0  0  0
    0.4713    1.8355   -2.6434 H   0  0  0  0  0  0  0  0  0  0  0  0
    0.5666    2.2153   -1.0274 H   0  0  0  0  0  0  0  0  0  0  0  0
    1.7682   -2.3285   -1.8059 H   0  0  0  0  0  0  0  0  0  0  0  0
    0.0150   -2.4762   -1.9676 H   0  0  0  0  0  0  0  0  0  0  0  0
   -0.1754   -2.1622    0.2888 H   0  0  0  0  0  0  0  0  0  0  0  0
    1.5835   -1.5526    1.8156 H   0  0  0  0  0  0  0  0  0  0  0  0
    2.2198   -2.7125    0.6822 H   0  0  0  0  0  0  0  0  0  0  0  0
    3.9974   -2.0445   -0.9499 H   0  0  0  0  0  0  0  0  0  0  0  0
    5.8617   -0.5165   -1.3949 H   0  0  0  0  0  0  0  0  0  0  0  0
    6.7675    1.4975   -0.9135 H   0  0  0  0  0  0  0  0  0  0  0  0
    4.2437    2.3129    1.4114 H   0  0  0  0  0  0  0  0  0  0  0  0
    2.3529    0.7867    1.8623 H   0  0  0  0  0  0  0  0  0  0  0  0
   -0.2882    1.4753    1.0654 H   0  0  0  0  0  0  0  0  0  0  0  0
   -0.5317   -0.0964    1.7945 H   0  0  0  0  0  0  0  0  0  0  0  0
   -2.2667    1.0678   -0.4585 H   0  0  0  0  0  0  0  0  0  0  0  0
   -2.7536    0.8633    2.5530 H   0  0  0  0  0  0  0  0  0  0  0  0
   -2.5095    2.3448    1.6314 H   0  0  0  0  0  0  0  0  0  0  0  0
   -4.9142    1.9237    2.1032 H   0  0  0  0  0  0  0  0  0  0  0  0
   -4.5793    1.9851    0.3744 H   0  0  0  0  0  0  0  0  0  0  0  0
   -6.0733    0.0974    0.8531 H   0  0  0  0  0  0  0  0  0  0  0  0
   -4.9649   -0.5292    2.0717 H   0  0  0  0  0  0  0  0  0  0  0  0
   -4.6963   -1.8018   -0.0075 H   0  0  0  0  0  0  0  0  0  0  0  0
   -4.4492   -0.3244   -0.9343 H   0  0  0  0  0  0  0  0  0  0  0  0
   -2.3057   -1.3924   -0.5156 H   0  0  0  0  0  0  0  0  0  0  0  0
   -2.6068   -1.4647    1.2206 H   0  0  0  0  0  0  0  0  0  0  0  0
  1  2  1  0
  2  3  2  0
  3  4  1  0
  4  5  1  0
  5  6  1  0
  6  7  1  0
  7  8  2  0
  8  9  1  0
  9 10  2  0
 10 11  1  0
 10 12  1  0
 12 13  2  0
  5 14  1  0
 14 15  1  0
 15 16  1  0
 16 17  1  0
 17 18  1  0
 18 19  1  0
 19 20  1  0
 20 21  1  0
 14  2  1  0
 21 16  1  0
 13  7  1  0
  1 22  1  0
  1 23  1  0
  4 24  1  0
  4 25  1  0
  5 26  1  0
  6 27  1  0
  6 28  1  0
  8 29  1  0
  9 30  1  0
 11 31  1  0
 12 32  1  0
 13 33  1  0
 15 34  1  0
 15 35  1  0
 16 36  1  0
 17 37  1  0
 17 38  1  0
 18 39  1  0
 18 40  1  0
 19 41  1  0
 19 42  1  0
 20 43  1  0
 20 44  1  0
 21 45  1  0
 21 46  1  0
M  END
$$$$
