
     RDKit          3D

 56 59  0  0  0  0  0  0  0  0999 V2000
   -0.4630    4.6468    1.9351 C   0  0  0  0  0  0  0  0  0  0  0  0
   -1.7911    3.9403    2.1268 C   0  0  0  0  0  0  0  0  0  0  0  0
   -1.6619    2.6105    1.6052 O   0  0  0  0  0  0  0  0  0  0  0  0
   -2.7933    1.8454    1.7269 C   0  0  0  0  0  0  0  0  0  0  0  0
   -3.8256    2.2544    2.2460 O   0  0  0  0  0  0  0  0  0  0  0  0
   -2.6396    0.4908    1.1786 C   0  0  0  0  0  0  0  0  0  0  0  0
   -1.4601   -0.0303    0.6497 C   0  0  0  0  0  0  0  0  0  0  0  0
   -0.2409    0.6248    0.5362 N   0  0  0  0  0  0  0  0  0  0  0  0
    0.9458    0.1428   -0.0106 C   0  0  0  0  0  0  0  0  0  0  0  0
    1.1324   -0.9651   -0.5033 O   0  0  0  0  0  0  0  0  0  0  0  0
    2.0576    1.1984    0.0996 C   0  0  0  0  0  0  0  0  0  0  0  0
    3.2725    0.7823   -0.5826 N   0  0  0  0  0  0  0  0  0  0  0  0
    4.2422    0.1851    0.1897 N   0  0  0  0  0  0  0  0  0  0  0  0
    5.2993   -0.2875   -0.4019 C   0  0  0  0  0  0  0  0  0  0  0  0
    6.3415   -0.9464    0.4846 C   0  0  0  0  0  0  0  0  0  0  0  0
    7.4378   -0.4771    0.7121 O   0  0  0  0  0  0  0  0  0  0  0  0
    5.9274   -2.1240    0.9595 O   0  0  0  0  0  0  0  0  0  0  0  0
    5.5374   -0.2110   -1.8494 C   0  0  0  0  0  0  0  0  0  0  0  0
    6.6845   -0.7282   -2.4644 C   0  0  0  0  0  0  0  0  0  0  0  0
    6.8423   -0.6143   -3.8483 C   0  0  0  0  0  0  0  0  0  0  0  0
    5.8618    0.0118   -4.6173 C   0  0  0  0  0  0  0  0  0  0  0  0
    4.7201    0.5275   -4.0039 C   0  0  0  0  0  0  0  0  0  0  0  0
    4.5611    0.4152   -2.6169 C   0  0  0  0  0  0  0  0  0  0  0  0
    3.3575    0.9579   -1.9602 C   0  0  0  0  0  0  0  0  0  0  0  0
    2.5043    1.5372   -2.6285 O   0  0  0  0  0  0  0  0  0  0  0  0
   -1.6333   -1.6400    0.1353 S   0  0  0  0  0  0  0  0  0  0  0  0
   -3.2620   -1.6923    0.5880 C   0  0  0  0  0  0  0  0  0  0  0  0
   -3.7024   -0.4966    1.1187 C   0  0  0  0  0  0  0  0  0  0  0  0
   -5.1214   -0.3273    1.5905 C   0  0  0  0  0  0  0  0  0  0  0  0
   -6.0439   -1.4484    1.0842 C   0  0  0  0  0  0  0  0  0  0  0  0
   -5.3902   -2.8385    1.2223 C   0  0  0  0  0  0  0  0  0  0  0  0
   -6.3642   -3.9402    0.8107 C   0  0  0  0  0  0  0  0  0  0  0  0
   -4.0973   -2.9188    0.3829 C   0  0  0  0  0  0  0  0  0  0  0  0
   -0.1887    4.6740    0.8754 H   0  0  0  0  0  0  0  0  0  0  0  0
   -0.5065    5.6708    2.3168 H   0  0  0  0  0  0  0  0  0  0  0  0
    0.3369    4.1085    2.4553 H   0  0  0  0  0  0  0  0  0  0  0  0
   -2.0367    3.8977    3.1940 H   0  0  0  0  0  0  0  0  0  0  0  0
   -2.5788    4.4755    1.5844 H   0  0  0  0  0  0  0  0  0  0  0  0
   -0.2457    1.5834    0.8712 H   0  0  0  0  0  0  0  0  0  0  0  0
    1.7006    2.1370   -0.3394 H   0  0  0  0  0  0  0  0  0  0  0  0
    2.2818    1.3686    1.1588 H   0  0  0  0  0  0  0  0  0  0  0  0
    6.6446   -2.4290    1.5504 H   0  0  0  0  0  0  0  0  0  0  0  0
    7.4693   -1.2181   -1.8935 H   0  0  0  0  0  0  0  0  0  0  0  0
    7.7330   -1.0148   -4.3284 H   0  0  0  0  0  0  0  0  0  0  0  0
    5.9850    0.0981   -5.6946 H   0  0  0  0  0  0  0  0  0  0  0  0
    3.9547    1.0128   -4.6068 H   0  0  0  0  0  0  0  0  0  0  0  0
   -5.1251   -0.3224    2.6876 H   0  0  0  0  0  0  0  0  0  0  0  0
   -5.5258    0.6327    1.2510 H   0  0  0  0  0  0  0  0  0  0  0  0
   -6.2884   -1.2658    0.0290 H   0  0  0  0  0  0  0  0  0  0  0  0
   -6.9883   -1.4120    1.6403 H   0  0  0  0  0  0  0  0  0  0  0  0
   -5.1314   -2.9915    2.2795 H   0  0  0  0  0  0  0  0  0  0  0  0
   -5.9027   -4.9270    0.9210 H   0  0  0  0  0  0  0  0  0  0  0  0
   -7.2621   -3.9178    1.4375 H   0  0  0  0  0  0  0  0  0  0  0  0
   -6.6779   -3.8260   -0.2327 H   0  0  0  0  0  0  0  0  0  0  0  0
   -3.5383   -3.8209    0.6599 H   0  0  0  0  0  0  0  0  0  0  0  0
   -4.3452   -2.9993   -0.6834 H   0  0  0  0  0  0  0  0  0  0  0  0
  1  2  1  0
  2  3  1  0
  3  4  1  0
  4  5  2  0
  4  6  1  0
  6  7  2  0
  7  8  1  0
  8  9  1  0
  9 10  2  0
  9 11  1  0
 11 12  1  0
 12 13  1  0
 13 14  2  0
 14 15  1  0
 15 16  2  0
 15 17  1  0
 14 18  1  0
 18 19  2  0
 19 20  1  0
 20 21  2  0
 21 22  1  0
 22 23  2  0
 23 24  1  0
 24 25  2  0
  7 26  1  0
 26 27  1  0
 27 28  2  0
 28 29  1  0
 29 30  1  0
 30 31  1  0
 31 32  1  0
 31 33  1  0
 28  6  1  0
 24 12  1  0
 33 27  1  0
 23 18  1  0
  1 34  1  0
  1 35  1  0
  1 36  1  0
  2 37  1  0
  2 38  1  0
  8 39  1  0
 11 40  1  0
 11 41  1  0
 17 42  1  0
 19 43  1  0
 20 44  1  0
 21 45  1  0
 22 46  1  0
 29 47  1  0
 29 48  1  0
 30 49  1  0
 30 50  1  0
 31 51  1  0
 32 52  1  0
 32 53  1  0
 32 54  1  0
 33 55  1  0
 33 56  1  0
M  END
$$$$
