
     RDKit          3D

 55 57  0  0  0  0  0  0  0  0999 V2000
   -0.7234   -3.8271   -1.9810 C   0  0  0  0  0  0  0  0  0  0  0  0
    0.0643   -2.5444   -2.1796 C   0  0  0  0  0  0  0  0  0  0  0  0
   -0.7011   -1.4050   -1.7976 O   0  0  0  0  0  0  0  0  0  0  0  0
   -0.6664   -1.1281   -0.3915 C   0  0  0  0  0  0  0  0  0  0  0  0
    0.6453   -0.7350    0.0457 O   0  0  0  0  0  0  0  0  0  0  0  0
    1.0235    0.5480   -0.3070 C   0  0  0  0  0  0  0  0  0  0  0  0
    2.4939    0.8865   -0.2338 C   0  0  0  0  0  0  0  0  0  0  0  0
    2.9151    1.9950   -0.5393 O   0  0  0  0  0  0  0  0  0  0  0  0
    3.2292   -0.1946    0.2104 N   0  0  0  0  0  0  0  0  0  0  0  0
    4.6195   -0.2789    0.4066 C   0  0  0  0  0  0  0  0  0  0  0  0
    5.1264   -1.4974    0.8771 C   0  0  0  0  0  0  0  0  0  0  0  0
    6.4964   -1.6628    1.0971 C   0  0  0  0  0  0  0  0  0  0  0  0
    7.3727   -0.6102    0.8481 C   0  0  0  0  0  0  0  0  0  0  0  0
    6.8778    0.6047    0.3801 C   0  0  0  0  0  0  0  0  0  0  0  0
    5.5064    0.7701    0.1600 C   0  0  0  0  0  0  0  0  0  0  0  0
    0.1591    1.4928   -0.7084 C   0  0  0  0  0  0  0  0  0  0  0  0
   -1.3267    1.2638   -0.7637 C   0  0  0  0  0  0  0  0  0  0  0  0
   -2.0873    2.4648   -0.2071 C   0  0  0  0  0  0  0  0  0  0  0  0
   -1.9107    2.8957    1.1189 C   0  0  0  0  0  0  0  0  0  0  0  0
   -2.6197    3.9931    1.6127 C   0  0  0  0  0  0  0  0  0  0  0  0
   -3.5105    4.6698    0.7836 C   0  0  0  0  0  0  0  0  0  0  0  0
   -4.4727    6.1533    1.4519 Br  0  0  0  0  0  0  0  0  0  0  0  0
   -3.6966    4.2619   -0.5348 C   0  0  0  0  0  0  0  0  0  0  0  0
   -2.9863    3.1648   -1.0282 C   0  0  0  0  0  0  0  0  0  0  0  0
   -1.7194   -0.0583   -0.0492 C   0  0  0  0  0  0  0  0  0  0  0  0
   -3.1584   -0.4758   -0.4335 C   0  0  0  0  0  0  0  0  0  0  0  0
   -3.6829   -1.7858    0.1724 C   0  0  0  0  0  0  0  0  0  0  0  0
   -3.7474   -1.7903    1.6951 C   0  0  0  0  0  0  0  0  0  0  0  0
   -2.4448   -1.9482    2.2393 O   0  0  0  0  0  0  0  0  0  0  0  0
   -0.9136   -4.0186   -0.9210 H   0  0  0  0  0  0  0  0  0  0  0  0
   -1.6982   -3.7611   -2.4751 H   0  0  0  0  0  0  0  0  0  0  0  0
   -0.1766   -4.6819   -2.3894 H   0  0  0  0  0  0  0  0  0  0  0  0
    1.0224   -2.5794   -1.6498 H   0  0  0  0  0  0  0  0  0  0  0  0
    0.2875   -2.4317   -3.2457 H   0  0  0  0  0  0  0  0  0  0  0  0
   -0.8967   -2.0461    0.1549 H   0  0  0  0  0  0  0  0  0  0  0  0
    2.6829   -1.0223    0.4209 H   0  0  0  0  0  0  0  0  0  0  0  0
    4.4627   -2.3336    1.0794 H   0  0  0  0  0  0  0  0  0  0  0  0
    6.8778   -2.6125    1.4625 H   0  0  0  0  0  0  0  0  0  0  0  0
    8.4389   -0.7343    1.0178 H   0  0  0  0  0  0  0  0  0  0  0  0
    7.5567    1.4307    0.1835 H   0  0  0  0  0  0  0  0  0  0  0  0
    5.1626    1.7326   -0.2058 H   0  0  0  0  0  0  0  0  0  0  0  0
    0.5248    2.4750   -1.0035 H   0  0  0  0  0  0  0  0  0  0  0  0
   -1.5745    1.1720   -1.8310 H   0  0  0  0  0  0  0  0  0  0  0  0
   -1.2112    2.3827    1.7763 H   0  0  0  0  0  0  0  0  0  0  0  0
   -2.4655    4.3121    2.6399 H   0  0  0  0  0  0  0  0  0  0  0  0
   -4.3874    4.7899   -1.1866 H   0  0  0  0  0  0  0  0  0  0  0  0
   -3.1409    2.8595   -2.0613 H   0  0  0  0  0  0  0  0  0  0  0  0
   -1.6782    0.1114    1.0342 H   0  0  0  0  0  0  0  0  0  0  0  0
   -3.8536    0.3228   -0.1463 H   0  0  0  0  0  0  0  0  0  0  0  0
   -3.2319   -0.5597   -1.5256 H   0  0  0  0  0  0  0  0  0  0  0  0
   -3.0778   -2.6272   -0.1811 H   0  0  0  0  0  0  0  0  0  0  0  0
   -4.6981   -1.9417   -0.2131 H   0  0  0  0  0  0  0  0  0  0  0  0
   -4.3562   -2.6337    2.0362 H   0  0  0  0  0  0  0  0  0  0  0  0
   -4.1862   -0.8635    2.0778 H   0  0  0  0  0  0  0  0  0  0  0  0
   -2.5452   -1.9635    3.2078 H   0  0  0  0  0  0  0  0  0  0  0  0
  1  2  1  0
  2  3  1  0
  3  4  1  0
  4  5  1  0
  5  6  1  0
  6  7  1  0
  7  8  2  0
  7  9  1  0
  9 10  1  0
 10 11  2  0
 11 12  1  0
 12 13  2  0
 13 14  1  0
 14 15  2  0
  6 16  2  0
 16 17  1  0
 17 18  1  0
 18 19  2  0
 19 20  1  0
 20 21  2  0
 21 22  1  0
 21 23  1  0
 23 24  2  0
 17 25  1  0
 25 26  1  0
 26 27  1  0
 27 28  1  0
 28 29  1  0
 25  4  1  0
 15 10  1  0
 24 18  1  0
  1 30  1  0
  1 31  1  0
  1 32  1  0
  2 33  1  0
  2 34  1  0
  4 35  1  0
  9 36  1  0
 11 37  1  0
 12 38  1  0
 13 39  1  0
 14 40  1  0
 15 41  1  0
 16 42  1  0
 17 43  1  0
 19 44  1  0
 20 45  1  0
 23 46  1  0
 24 47  1  0
 25 48  1  0
 26 49  1  0
 26 50  1  0
 27 51  1  0
 27 52  1  0
 28 53  1  0
 28 54  1  0
 29 55  1  0
M  END
$$$$
