
     RDKit          3D

 45 48  0  0  0  0  0  0  0  0999 V2000
   -4.1895   -1.1559    2.7316 C   0  0  0  0  0  0  0  0  0  0  0  0
   -3.2452   -0.6652    1.7894 O   0  0  0  0  0  0  0  0  0  0  0  0
   -3.0335   -1.3969    0.6461 C   0  0  0  0  0  0  0  0  0  0  0  0
   -3.7410   -2.5695    0.3378 C   0  0  0  0  0  0  0  0  0  0  0  0
   -3.4557   -3.2931   -0.8216 C   0  0  0  0  0  0  0  0  0  0  0  0
   -2.4599   -2.8576   -1.6850 C   0  0  0  0  0  0  0  0  0  0  0  0
   -1.7545   -1.6908   -1.3915 C   0  0  0  0  0  0  0  0  0  0  0  0
   -2.0273   -0.9296   -0.2324 C   0  0  0  0  0  0  0  0  0  0  0  0
   -1.2536    0.3010    0.0131 C   0  0  0  0  0  0  0  0  0  0  0  0
   -1.9077    1.3855    0.4831 N   0  0  0  0  0  0  0  0  0  0  0  0
   -1.1685    2.5049    0.6713 C   0  0  0  0  0  0  0  0  0  0  0  0
   -1.8835    3.6957    1.2071 C   0  0  0  0  0  0  0  0  0  0  0  0
   -3.2117    3.5080    1.4790 N   0  0  0  0  0  0  0  0  0  0  0  0
   -1.3257    4.7692    1.3966 O   0  0  0  0  0  0  0  0  0  0  0  0
    0.1620    2.5479    0.3836 C   0  0  0  0  0  0  0  0  0  0  0  0
    1.1090    3.5554    0.4659 N   0  0  0  0  0  0  0  0  0  0  0  0
    2.3369    3.0530    0.0148 C   0  0  0  0  0  0  0  0  0  0  0  0
    3.3557    3.7234   -0.0223 O   0  0  0  0  0  0  0  0  0  0  0  0
    2.1114    1.6873   -0.3422 N   0  0  0  0  0  0  0  0  0  0  0  0
    3.0663    0.7687   -0.8591 C   0  0  0  0  0  0  0  0  0  0  0  0
    4.3396    1.2127   -1.2506 C   0  0  0  0  0  0  0  0  0  0  0  0
    5.2986    0.3363   -1.7721 C   0  0  0  0  0  0  0  0  0  0  0  0
    5.0112   -1.0160   -1.9087 C   0  0  0  0  0  0  0  0  0  0  0  0
    3.7667   -1.5015   -1.5108 C   0  0  0  0  0  0  0  0  0  0  0  0
    3.4296   -2.9552   -1.6715 C   0  0  0  0  0  0  0  0  0  0  0  0
    2.8069   -0.6054   -1.0023 C   0  0  0  0  0  0  0  0  0  0  0  0
    0.7421    1.4016   -0.1027 C   0  0  0  0  0  0  0  0  0  0  0  0
    0.0596    0.2712   -0.3117 N   0  0  0  0  0  0  0  0  0  0  0  0
   -4.1986   -0.4684    3.5829 H   0  0  0  0  0  0  0  0  0  0  0  0
   -5.1984   -1.1707    2.3069 H   0  0  0  0  0  0  0  0  0  0  0  0
   -3.8998   -2.1433    3.1056 H   0  0  0  0  0  0  0  0  0  0  0  0
   -4.5228   -2.9531    0.9852 H   0  0  0  0  0  0  0  0  0  0  0  0
   -4.0107   -4.2009   -1.0457 H   0  0  0  0  0  0  0  0  0  0  0  0
   -2.2309   -3.4204   -2.5864 H   0  0  0  0  0  0  0  0  0  0  0  0
   -0.9792   -1.3633   -2.0840 H   0  0  0  0  0  0  0  0  0  0  0  0
   -3.6326    2.5950    1.3356 H   0  0  0  0  0  0  0  0  0  0  0  0
   -3.7575    4.2653    1.8640 H   0  0  0  0  0  0  0  0  0  0  0  0
    0.9440    4.5017    0.7885 H   0  0  0  0  0  0  0  0  0  0  0  0
    4.6249    2.2583   -1.1817 H   0  0  0  0  0  0  0  0  0  0  0  0
    6.2701    0.7201   -2.0738 H   0  0  0  0  0  0  0  0  0  0  0  0
    5.7625   -1.6849   -2.3209 H   0  0  0  0  0  0  0  0  0  0  0  0
    4.3323   -3.5742   -1.6347 H   0  0  0  0  0  0  0  0  0  0  0  0
    2.9293   -3.1187   -2.6310 H   0  0  0  0  0  0  0  0  0  0  0  0
    2.7712   -3.2939   -0.8646 H   0  0  0  0  0  0  0  0  0  0  0  0
    1.8578   -1.0339   -0.7003 H   0  0  0  0  0  0  0  0  0  0  0  0
  1  2  1  0
  2  3  1  0
  3  4  2  0
  4  5  1  0
  5  6  2  0
  6  7  1  0
  7  8  2  0
  8  9  1  0
  9 10  2  0
 10 11  1  0
 11 12  1  0
 12 13  1  0
 12 14  2  0
 11 15  2  0
 15 16  1  0
 16 17  1  0
 17 18  2  0
 17 19  1  0
 19 20  1  0
 20 21  2  0
 21 22  1  0
 22 23  2  0
 23 24  1  0
 24 25  1  0
 24 26  2  0
 19 27  1  0
 27 28  2  0
  8  3  1  0
 28  9  1  0
 27 15  1  0
 26 20  1  0
  1 29  1  0
  1 30  1  0
  1 31  1  0
  4 32  1  0
  5 33  1  0
  6 34  1  0
  7 35  1  0
 13 36  1  0
 13 37  1  0
 16 38  1  0
 21 39  1  0
 22 40  1  0
 23 41  1  0
 25 42  1  0
 25 43  1  0
 25 44  1  0
 26 45  1  0
M  END
$$$$
