
     RDKit          3D

 45 47  0  0  0  0  0  0  0  0999 V2000
   -2.9784    1.0405   -3.9574 C   0  0  0  0  0  0  0  0  0  0  0  0
   -2.7500    0.0753   -2.8329 C   0  0  0  0  0  0  0  0  0  0  0  0
   -3.2735   -1.2202   -2.9022 C   0  0  0  0  0  0  0  0  0  0  0  0
   -3.1036   -2.1091   -1.8406 C   0  0  0  0  0  0  0  0  0  0  0  0
   -2.4126   -1.7117   -0.6978 C   0  0  0  0  0  0  0  0  0  0  0  0
   -1.8792   -0.4184   -0.6087 C   0  0  0  0  0  0  0  0  0  0  0  0
   -1.1099    0.0124    0.6114 C   0  0  0  0  0  0  0  0  0  0  0  0
   -2.2076    0.8303    1.7749 S   0  0  0  0  0  6  0  0  0  0  0  0
   -3.2578   -0.1047    2.1523 O   0  0  0  0  0  0  0  0  0  0  0  0
   -2.5557    2.1446    1.2582 O   0  0  0  0  0  0  0  0  0  0  0  0
   -1.2095    1.0584    3.2419 C   0  0  0  0  0  0  0  0  0  0  0  0
    0.0353    1.7825    2.9108 C   0  0  0  0  0  0  0  0  0  0  0  0
    0.4220    3.1036    2.9815 C   0  0  0  0  0  0  0  0  0  0  0  0
    1.7527    3.1569    2.4962 C   0  0  0  0  0  0  0  0  0  0  0  0
    2.1028    1.8679    2.1469 C   0  0  0  0  0  0  0  0  0  0  0  0
    3.2930    1.3259    1.5230 C   0  0  0  0  0  0  0  0  0  0  0  0
    4.2936    1.9869    1.2668 O   0  0  0  0  0  0  0  0  0  0  0  0
    3.1753   -0.0060    1.2013 N   0  0  0  0  0  0  0  0  0  0  0  0
    4.0470   -0.6429    0.2464 C   0  0  0  0  0  0  0  0  0  0  0  0
    3.2218   -1.5435   -0.6043 C   0  0  0  0  0  0  0  0  0  0  0  0
    3.3442   -2.8639   -0.9910 C   0  0  0  0  0  0  0  0  0  0  0  0
    2.2186   -3.1500   -1.8047 C   0  0  0  0  0  0  0  0  0  0  0  0
    1.4811   -1.9912   -1.8636 C   0  0  0  0  0  0  0  0  0  0  0  0
    2.0771   -1.0128   -1.1329 O   0  0  0  0  0  0  0  0  0  0  0  0
    1.0610    1.0221    2.4362 O   0  0  0  0  0  0  0  0  0  0  0  0
   -2.0634    0.4702   -1.6789 C   0  0  0  0  0  0  0  0  0  0  0  0
   -2.2843    1.8848   -3.8997 H   0  0  0  0  0  0  0  0  0  0  0  0
   -2.8194    0.5500   -4.9244 H   0  0  0  0  0  0  0  0  0  0  0  0
   -4.0009    1.4281   -3.9173 H   0  0  0  0  0  0  0  0  0  0  0  0
   -3.8261   -1.5399   -3.7825 H   0  0  0  0  0  0  0  0  0  0  0  0
   -3.5200   -3.1099   -1.9024 H   0  0  0  0  0  0  0  0  0  0  0  0
   -2.3039   -2.4136    0.1246 H   0  0  0  0  0  0  0  0  0  0  0  0
   -0.6628   -0.8494    1.1148 H   0  0  0  0  0  0  0  0  0  0  0  0
   -0.3190    0.7076    0.3193 H   0  0  0  0  0  0  0  0  0  0  0  0
   -1.8137    1.6169    3.9620 H   0  0  0  0  0  0  0  0  0  0  0  0
   -1.0000    0.0671    3.6554 H   0  0  0  0  0  0  0  0  0  0  0  0
   -0.1855    3.9329    3.3211 H   0  0  0  0  0  0  0  0  0  0  0  0
    2.3797    4.0312    2.3767 H   0  0  0  0  0  0  0  0  0  0  0  0
    2.2819   -0.4392    1.3819 H   0  0  0  0  0  0  0  0  0  0  0  0
    4.7930   -1.2145    0.8099 H   0  0  0  0  0  0  0  0  0  0  0  0
    4.5599    0.0994   -0.3726 H   0  0  0  0  0  0  0  0  0  0  0  0
    4.1458   -3.5365   -0.7168 H   0  0  0  0  0  0  0  0  0  0  0  0
    1.9729   -4.0863   -2.2854 H   0  0  0  0  0  0  0  0  0  0  0  0
    0.5543   -1.7170   -2.3503 H   0  0  0  0  0  0  0  0  0  0  0  0
   -1.6763    1.4851   -1.6087 H   0  0  0  0  0  0  0  0  0  0  0  0
  1  2  1  0
  2  3  2  0
  3  4  1  0
  4  5  2  0
  5  6  1  0
  6  7  1  0
  7  8  1  0
  8  9  2  0
  8 10  2  0
  8 11  1  0
 11 12  1  0
 12 13  2  0
 13 14  1  0
 14 15  2  0
 15 16  1  0
 16 17  2  0
 16 18  1  0
 18 19  1  0
 19 20  1  0
 20 21  2  0
 21 22  1  0
 22 23  2  0
 23 24  1  0
 15 25  1  0
  6 26  2  0
 26  2  1  0
 25 12  1  0
 24 20  1  0
  1 27  1  0
  1 28  1  0
  1 29  1  0
  3 30  1  0
  4 31  1  0
  5 32  1  0
  7 33  1  0
  7 34  1  0
 11 35  1  0
 11 36  1  0
 13 37  1  0
 14 38  1  0
 18 39  1  0
 19 40  1  0
 19 41  1  0
 21 42  1  0
 22 43  1  0
 23 44  1  0
 26 45  1  0
M  END
$$$$
