
     RDKit          3D

 47 50  0  0  0  0  0  0  0  0999 V2000
   -0.6336    3.1715   -1.7379 O   0  0  0  0  0  0  0  0  0  0  0  0
   -0.1187    2.1379   -2.1702 C   0  0  0  0  0  0  0  0  0  0  0  0
   -0.6713    1.4489   -3.4165 C   0  0  0  0  0  0  0  0  0  0  0  0
   -2.4902    1.4222   -3.4019 S   0  0  0  0  0  0  0  0  0  0  0  0
   -2.7604    0.4782   -1.9698 C   0  0  0  0  0  0  0  0  0  0  0  0
   -1.8823   -0.3476   -1.4384 N   0  0  0  0  0  0  0  0  0  0  0  0
   -2.4751   -0.8855   -0.3156 N   0  0  0  0  0  0  0  0  0  0  0  0
   -3.6819   -0.3601   -0.2445 C   0  0  0  0  0  0  0  0  0  0  0  0
   -4.7395   -0.5662    0.7367 C   0  0  0  0  0  0  0  0  0  0  0  0
   -5.9943    0.0467    0.6120 C   0  0  0  0  0  0  0  0  0  0  0  0
   -6.9942   -0.1728    1.5635 C   0  0  0  0  0  0  0  0  0  0  0  0
   -6.7500   -1.0044    2.6542 C   0  0  0  0  0  0  0  0  0  0  0  0
   -5.5077   -1.6169    2.7958 C   0  0  0  0  0  0  0  0  0  0  0  0
   -4.5103   -1.4008    1.8417 C   0  0  0  0  0  0  0  0  0  0  0  0
   -3.9376    0.5062   -1.2742 O   0  0  0  0  0  0  0  0  0  0  0  0
    0.9859    1.5728   -1.5507 N   0  0  0  0  0  0  0  0  0  0  0  0
    1.4200    2.1046   -0.2566 C   0  0  0  0  0  0  0  0  0  0  0  0
    1.9441    1.0086    0.6884 C   0  0  0  0  0  0  0  0  0  0  0  0
    3.0406    0.2435    0.0719 N   0  0  0  0  0  0  0  0  0  0  0  0
    3.9609   -0.4459    0.8474 C   0  0  0  0  0  0  0  0  0  0  0  0
    5.2212   -0.8187    0.3494 C   0  0  0  0  0  0  0  0  0  0  0  0
    6.1529   -1.5174    1.1284 C   0  0  0  0  0  0  0  0  0  0  0  0
    5.8469   -1.8630    2.4377 C   0  0  0  0  0  0  0  0  0  0  0  0
    4.6118   -1.5068    2.9638 C   0  0  0  0  0  0  0  0  0  0  0  0
    3.6861   -0.8089    2.1767 C   0  0  0  0  0  0  0  0  0  0  0  0
    3.1031    0.2164   -1.3967 C   0  0  0  0  0  0  0  0  0  0  0  0
    1.7091    0.3917   -2.0306 C   0  0  0  0  0  0  0  0  0  0  0  0
   -0.3271    0.4186   -3.5224 H   0  0  0  0  0  0  0  0  0  0  0  0
   -0.3297    2.0127   -4.2901 H   0  0  0  0  0  0  0  0  0  0  0  0
   -6.2096    0.6991   -0.2322 H   0  0  0  0  0  0  0  0  0  0  0  0
   -7.9637    0.3046    1.4509 H   0  0  0  0  0  0  0  0  0  0  0  0
   -7.5274   -1.1739    3.3946 H   0  0  0  0  0  0  0  0  0  0  0  0
   -5.3142   -2.2659    3.6458 H   0  0  0  0  0  0  0  0  0  0  0  0
   -3.5460   -1.8903    1.9676 H   0  0  0  0  0  0  0  0  0  0  0  0
    2.2140    2.8306   -0.4670 H   0  0  0  0  0  0  0  0  0  0  0  0
    0.6021    2.6427    0.2324 H   0  0  0  0  0  0  0  0  0  0  0  0
    2.2821    1.4981    1.6094 H   0  0  0  0  0  0  0  0  0  0  0  0
    1.1270    0.3224    0.9422 H   0  0  0  0  0  0  0  0  0  0  0  0
    5.5196   -0.5487   -0.6587 H   0  0  0  0  0  0  0  0  0  0  0  0
    7.1183   -1.7839    0.7074 H   0  0  0  0  0  0  0  0  0  0  0  0
    6.5670   -2.4066    3.0438 H   0  0  0  0  0  0  0  0  0  0  0  0
    4.3594   -1.7747    3.9850 H   0  0  0  0  0  0  0  0  0  0  0  0
    2.7222   -0.5760    2.6247 H   0  0  0  0  0  0  0  0  0  0  0  0
    3.5071   -0.7355   -1.7614 H   0  0  0  0  0  0  0  0  0  0  0  0
    3.7660    1.0209   -1.7389 H   0  0  0  0  0  0  0  0  0  0  0  0
    1.0850   -0.4785   -1.7943 H   0  0  0  0  0  0  0  0  0  0  0  0
    1.8123    0.4502   -3.1189 H   0  0  0  0  0  0  0  0  0  0  0  0
  1  2  2  0
  2  3  1  0
  3  4  1  0
  4  5  1  0
  5  6  2  0
  6  7  1  0
  7  8  2  0
  8  9  1  0
  9 10  2  0
 10 11  1  0
 11 12  2  0
 12 13  1  0
 13 14  2  0
  8 15  1  0
  2 16  1  0
 16 17  1  0
 17 18  1  0
 18 19  1  0
 19 20  1  0
 20 21  2  0
 21 22  1  0
 22 23  2  0
 23 24  1  0
 24 25  2  0
 19 26  1  0
 26 27  1  0
 15  5  1  0
 27 16  1  0
 14  9  1  0
 25 20  1  0
  3 28  1  0
  3 29  1  0
 10 30  1  0
 11 31  1  0
 12 32  1  0
 13 33  1  0
 14 34  1  0
 17 35  1  0
 17 36  1  0
 18 37  1  0
 18 38  1  0
 21 39  1  0
 22 40  1  0
 23 41  1  0
 24 42  1  0
 25 43  1  0
 26 44  1  0
 26 45  1  0
 27 46  1  0
 27 47  1  0
M  END
$$$$
