
     RDKit          3D

 49 51  0  0  0  0  0  0  0  0999 V2000
   -4.2414   -0.6686   -3.9795 C   0  0  0  0  0  0  0  0  0  0  0  0
   -5.0699   -0.6144   -2.8263 O   0  0  0  0  0  0  0  0  0  0  0  0
   -4.4722   -0.3673   -1.6182 C   0  0  0  0  0  0  0  0  0  0  0  0
   -3.0936   -0.3114   -1.4077 C   0  0  0  0  0  0  0  0  0  0  0  0
   -2.5932   -0.0458   -0.1244 C   0  0  0  0  0  0  0  0  0  0  0  0
   -1.1317    0.0231    0.1386 C   0  0  0  0  0  0  0  0  0  0  0  0
   -0.6809   -0.3407    1.2214 O   0  0  0  0  0  0  0  0  0  0  0  0
   -0.3501    0.5567   -0.8775 N   0  0  0  0  0  0  0  0  0  0  0  0
    1.0322    0.6803   -0.9462 C   0  0  0  0  0  0  0  0  0  0  0  0
    1.6138    1.4026   -2.3325 S   0  0  0  0  0  0  0  0  0  0  0  0
    1.7032    0.1871    0.1480 N   0  0  0  0  0  0  0  0  0  0  0  0
    3.0685    0.0569    0.4837 C   0  0  0  0  0  0  0  0  0  0  0  0
    3.3285   -0.4285    1.7946 C   0  0  0  0  0  0  0  0  0  0  0  0
    4.6309   -0.6149    2.2749 C   0  0  0  0  0  0  0  0  0  0  0  0
    5.6613   -0.3115    1.4145 C   0  0  0  0  0  0  0  0  0  0  0  0
    5.4234    0.1541    0.1361 C   0  0  0  0  0  0  0  0  0  0  0  0
    4.1438    0.3477   -0.3593 C   0  0  0  0  0  0  0  0  0  0  0  0
    6.7229    0.3677   -0.5010 C   0  0  0  0  0  0  0  0  0  0  0  0
    6.8736    0.7881   -1.6317 O   0  0  0  0  0  0  0  0  0  0  0  0
    7.6698    0.0108    0.4199 N   0  0  0  0  0  0  0  0  0  0  0  0
    9.0886    0.1045    0.1820 C   0  0  0  0  0  0  0  0  0  0  0  0
    7.1090   -0.3927    1.5991 C   0  0  0  0  0  0  0  0  0  0  0  0
    7.6462   -0.7520    2.6289 O   0  0  0  0  0  0  0  0  0  0  0  0
   -3.4641    0.1356    0.9598 C   0  0  0  0  0  0  0  0  0  0  0  0
   -4.8440    0.0820    0.7668 C   0  0  0  0  0  0  0  0  0  0  0  0
   -5.7808    0.2606    1.7505 O   0  0  0  0  0  0  0  0  0  0  0  0
   -5.3155    0.5952    3.0512 C   0  0  0  0  0  0  0  0  0  0  0  0
   -5.3368   -0.1817   -0.5237 C   0  0  0  0  0  0  0  0  0  0  0  0
   -6.6980   -0.1861   -0.7379 O   0  0  0  0  0  0  0  0  0  0  0  0
   -7.2169   -1.5011   -0.5452 C   0  0  0  0  0  0  0  0  0  0  0  0
   -3.6787    0.2619   -4.1085 H   0  0  0  0  0  0  0  0  0  0  0  0
   -4.8899   -0.7901   -4.8524 H   0  0  0  0  0  0  0  0  0  0  0  0
   -3.5715   -1.5335   -3.9393 H   0  0  0  0  0  0  0  0  0  0  0  0
   -2.4046   -0.5031   -2.2224 H   0  0  0  0  0  0  0  0  0  0  0  0
   -0.8151    0.9512   -1.6845 H   0  0  0  0  0  0  0  0  0  0  0  0
    1.0644   -0.1230    0.8841 H   0  0  0  0  0  0  0  0  0  0  0  0
    2.4995   -0.6643    2.4623 H   0  0  0  0  0  0  0  0  0  0  0  0
    4.8219   -0.9821    3.2779 H   0  0  0  0  0  0  0  0  0  0  0  0
    4.0416    0.7018   -1.3746 H   0  0  0  0  0  0  0  0  0  0  0  0
    9.6451   -0.4661    0.9299 H   0  0  0  0  0  0  0  0  0  0  0  0
    9.3781    1.1581    0.2384 H   0  0  0  0  0  0  0  0  0  0  0  0
    9.3162   -0.2657   -0.8217 H   0  0  0  0  0  0  0  0  0  0  0  0
   -3.0372    0.3224    1.9409 H   0  0  0  0  0  0  0  0  0  0  0  0
   -4.7556    1.5362    3.0415 H   0  0  0  0  0  0  0  0  0  0  0  0
   -6.1903    0.7351    3.6934 H   0  0  0  0  0  0  0  0  0  0  0  0
   -4.7176   -0.2177    3.4759 H   0  0  0  0  0  0  0  0  0  0  0  0
   -6.7724   -2.2132   -1.2490 H   0  0  0  0  0  0  0  0  0  0  0  0
   -8.2938   -1.4668   -0.7354 H   0  0  0  0  0  0  0  0  0  0  0  0
   -7.0670   -1.8435    0.4845 H   0  0  0  0  0  0  0  0  0  0  0  0
  1  2  1  0
  2  3  1  0
  3  4  2  0
  4  5  1  0
  5  6  1  0
  6  7  2  0
  6  8  1  0
  8  9  1  0
  9 10  2  0
  9 11  1  0
 11 12  1  0
 12 13  2  0
 13 14  1  0
 14 15  2  0
 15 16  1  0
 16 17  2  0
 16 18  1  0
 18 19  2  0
 18 20  1  0
 20 21  1  0
 20 22  1  0
 22 23  2  0
  5 24  2  0
 24 25  1  0
 25 26  1  0
 26 27  1  0
 25 28  2  0
 28 29  1  0
 29 30  1  0
 28  3  1  0
 17 12  1  0
 22 15  1  0
  1 31  1  0
  1 32  1  0
  1 33  1  0
  4 34  1  0
  8 35  1  0
 11 36  1  0
 13 37  1  0
 14 38  1  0
 17 39  1  0
 21 40  1  0
 21 41  1  0
 21 42  1  0
 24 43  1  0
 27 44  1  0
 27 45  1  0
 27 46  1  0
 30 47  1  0
 30 48  1  0
 30 49  1  0
M  END
$$$$
