
     RDKit          3D

 45 48  0  0  0  0  0  0  0  0999 V2000
    0.8935   -2.2193   -1.2634 O   0  0  0  0  0  0  0  0  0  0  0  0
   -0.2107   -2.1140   -0.7371 C   0  0  0  0  0  0  0  0  0  0  0  0
   -0.9049   -0.9394   -0.7118 N   0  0  0  0  0  0  0  0  0  0  0  0
   -0.5415   -0.0277    0.1188 C   0  0  0  0  0  0  0  0  0  0  0  0
    0.4881   -0.1152    1.0040 N   0  0  0  0  0  0  0  0  0  0  0  0
    1.6855    0.0336    0.5444 C   0  0  0  0  0  0  0  0  0  0  0  0
    2.1325    0.1937   -0.7564 N   0  0  0  0  0  0  0  0  0  0  0  0
    3.5141    0.1418   -0.6741 C   0  0  0  0  0  0  0  0  0  0  0  0
    4.4731    0.1860   -1.6592 C   0  0  0  0  0  0  0  0  0  0  0  0
    5.8139    0.1644   -1.2587 C   0  0  0  0  0  0  0  0  0  0  0  0
    6.1598    0.1082    0.1060 C   0  0  0  0  0  0  0  0  0  0  0  0
    5.1697    0.0724    1.0908 C   0  0  0  0  0  0  0  0  0  0  0  0
    3.8599    0.0941    0.6647 C   0  0  0  0  0  0  0  0  0  0  0  0
    2.7373    0.0401    1.4760 O   0  0  0  0  0  0  0  0  0  0  0  0
   -1.2132    1.1607    0.2377 N   0  0  0  0  0  0  0  0  0  0  0  0
   -2.3581    1.5604   -0.4290 C   0  0  0  0  0  0  0  0  0  0  0  0
   -3.0857    0.8449   -1.1064 O   0  0  0  0  0  0  0  0  0  0  0  0
   -2.7509    2.9801   -0.2024 C   0  0  0  0  0  0  0  0  0  0  0  0
   -4.1136    3.3034   -0.1984 C   0  0  0  0  0  0  0  0  0  0  0  0
   -4.5210    4.6214    0.0132 C   0  0  0  0  0  0  0  0  0  0  0  0
   -3.5697    5.6216    0.2107 C   0  0  0  0  0  0  0  0  0  0  0  0
   -2.2103    5.3093    0.1885 C   0  0  0  0  0  0  0  0  0  0  0  0
   -1.7971    3.9916   -0.0220 C   0  0  0  0  0  0  0  0  0  0  0  0
   -0.8798   -3.3032   -0.1330 C   0  0  0  0  0  0  0  0  0  0  0  0
   -0.1547   -4.4930    0.0161 C   0  0  0  0  0  0  0  0  0  0  0  0
   -0.7598   -5.6166    0.5823 C   0  0  0  0  0  0  0  0  0  0  0  0
   -2.0898   -5.5574    0.9984 C   0  0  0  0  0  0  0  0  0  0  0  0
   -2.8184   -4.3774    0.8483 C   0  0  0  0  0  0  0  0  0  0  0  0
   -2.2170   -3.2508    0.2833 C   0  0  0  0  0  0  0  0  0  0  0  0
    1.7185   -0.4582   -1.4252 H   0  0  0  0  0  0  0  0  0  0  0  0
    4.2052    0.2392   -2.7084 H   0  0  0  0  0  0  0  0  0  0  0  0
    6.6005    0.1939   -2.0099 H   0  0  0  0  0  0  0  0  0  0  0  0
    7.2088    0.0910    0.3937 H   0  0  0  0  0  0  0  0  0  0  0  0
    5.4190    0.0237    2.1441 H   0  0  0  0  0  0  0  0  0  0  0  0
   -0.8179    1.7684    0.9369 H   0  0  0  0  0  0  0  0  0  0  0  0
   -4.8604    2.5281   -0.3597 H   0  0  0  0  0  0  0  0  0  0  0  0
   -5.5802    4.8674    0.0182 H   0  0  0  0  0  0  0  0  0  0  0  0
   -3.8889    6.6490    0.3704 H   0  0  0  0  0  0  0  0  0  0  0  0
   -1.4724    6.0967    0.3238 H   0  0  0  0  0  0  0  0  0  0  0  0
   -0.7324    3.7812   -0.0723 H   0  0  0  0  0  0  0  0  0  0  0  0
    0.8828   -4.5478   -0.3065 H   0  0  0  0  0  0  0  0  0  0  0  0
   -0.1941   -6.5378    0.6973 H   0  0  0  0  0  0  0  0  0  0  0  0
   -2.5608   -6.4335    1.4374 H   0  0  0  0  0  0  0  0  0  0  0  0
   -3.8570   -4.3341    1.1671 H   0  0  0  0  0  0  0  0  0  0  0  0
   -2.8017   -2.3409    0.1616 H   0  0  0  0  0  0  0  0  0  0  0  0
  1  2  2  0
  2  3  1  0
  3  4  2  3
  4  5  1  0
  5  6  2  3
  6  7  1  0
  7  8  1  0
  8  9  2  0
  9 10  1  0
 10 11  2  0
 11 12  1  0
 12 13  2  0
 13 14  1  0
  4 15  1  0
 15 16  1  0
 16 17  2  0
 16 18  1  0
 18 19  2  0
 19 20  1  0
 20 21  2  0
 21 22  1  0
 22 23  2  0
  2 24  1  0
 24 25  2  0
 25 26  1  0
 26 27  2  0
 27 28  1  0
 28 29  2  0
 14  6  1  0
 23 18  1  0
 29 24  1  0
 13  8  1  0
  7 30  1  0
  9 31  1  0
 10 32  1  0
 11 33  1  0
 12 34  1  0
 15 35  1  0
 19 36  1  0
 20 37  1  0
 21 38  1  0
 22 39  1  0
 23 40  1  0
 25 41  1  0
 26 42  1  0
 27 43  1  0
 28 44  1  0
 29 45  1  0
M  END
$$$$
