
     RDKit          3D

 35 37  0  0  0  0  0  0  0  0999 V2000
   -2.6001   -2.4977   -0.4226 C   0  0  0  0  0  0  0  0  0  0  0  0
   -2.1939   -1.6721    0.7904 C   0  0  0  0  0  0  0  0  0  0  0  0
   -1.7858   -0.3250    0.3998 N   0  0  0  0  0  0  0  0  0  0  0  0
   -0.4799    0.1876    0.1706 C   0  0  0  0  0  0  0  0  0  0  0  0
    0.7122   -0.4532    0.0549 C   0  0  0  0  0  0  0  0  0  0  0  0
    0.9411   -2.1850    0.1133 S   0  0  0  0  0  0  0  0  0  0  0  0
    2.6758   -2.1223   -0.1070 C   0  0  0  0  0  0  0  0  0  0  0  0
    3.6370   -3.4801   -0.2177 S   0  0  0  0  0  0  0  0  0  0  0  0
    3.0439   -0.8045   -0.2040 N   0  0  0  0  0  0  0  0  0  0  0  0
    4.3914   -0.3977   -0.3252 N   0  0  0  0  0  0  0  0  0  0  0  0
    5.0550   -0.1705    0.8685 C   0  0  0  0  0  0  0  0  0  0  0  0
    6.3589    0.5620    0.7067 C   0  0  0  0  0  0  0  0  0  0  0  0
    4.6292   -0.5197    1.9660 O   0  0  0  0  0  0  0  0  0  0  0  0
    2.0644    0.1760   -0.1806 C   0  0  0  0  0  0  0  0  0  0  0  0
    2.3131    1.3589   -0.3759 O   0  0  0  0  0  0  0  0  0  0  0  0
   -0.5084    1.9884   -0.0170 S   0  0  0  0  0  0  0  0  0  0  0  0
   -2.2760    1.9790    0.1310 C   0  0  0  0  0  0  0  0  0  0  0  0
   -3.0970    3.0974    0.0497 C   0  0  0  0  0  0  0  0  0  0  0  0
   -4.4722    2.9264    0.1840 C   0  0  0  0  0  0  0  0  0  0  0  0
   -5.0007    1.6493    0.3935 C   0  0  0  0  0  0  0  0  0  0  0  0
   -4.1599    0.5308    0.4742 C   0  0  0  0  0  0  0  0  0  0  0  0
   -2.7801    0.6848    0.3479 C   0  0  0  0  0  0  0  0  0  0  0  0
   -3.4786   -2.0723   -0.9180 H   0  0  0  0  0  0  0  0  0  0  0  0
   -1.8003   -2.5486   -1.1671 H   0  0  0  0  0  0  0  0  0  0  0  0
   -2.8488   -3.5190   -0.1176 H   0  0  0  0  0  0  0  0  0  0  0  0
   -3.0241   -1.6459    1.5071 H   0  0  0  0  0  0  0  0  0  0  0  0
   -1.4062   -2.1784    1.3529 H   0  0  0  0  0  0  0  0  0  0  0  0
    4.5456    0.2752   -1.0718 H   0  0  0  0  0  0  0  0  0  0  0  0
    7.1306    0.0513    1.2891 H   0  0  0  0  0  0  0  0  0  0  0  0
    6.2404    1.5871    1.0673 H   0  0  0  0  0  0  0  0  0  0  0  0
    6.6787    0.5863   -0.3388 H   0  0  0  0  0  0  0  0  0  0  0  0
   -2.6767    4.0844   -0.1155 H   0  0  0  0  0  0  0  0  0  0  0  0
   -5.1352    3.7860    0.1236 H   0  0  0  0  0  0  0  0  0  0  0  0
   -6.0766    1.5221    0.4927 H   0  0  0  0  0  0  0  0  0  0  0  0
   -4.6168   -0.4406    0.6260 H   0  0  0  0  0  0  0  0  0  0  0  0
  1  2  1  0
  2  3  1  0
  3  4  1  0
  4  5  2  3
  5  6  1  0
  6  7  1  0
  7  8  2  0
  7  9  1  0
  9 10  1  0
 10 11  1  0
 11 12  1  0
 11 13  2  0
  9 14  1  0
 14 15  2  0
  4 16  1  0
 16 17  1  0
 17 18  2  0
 18 19  1  0
 19 20  2  0
 20 21  1  0
 21 22  2  0
 22  3  1  0
 14  5  1  0
 22 17  1  0
  1 23  1  0
  1 24  1  0
  1 25  1  0
  2 26  1  0
  2 27  1  0
 10 28  1  0
 12 29  1  0
 12 30  1  0
 12 31  1  0
 18 32  1  0
 19 33  1  0
 20 34  1  0
 21 35  1  0
M  END
$$$$
