
     RDKit          3D

 21 21  0  0  0  0  0  0  0  0999 V2000
   -1.5015   -2.2945   -0.4013 C   0  0  0  0  0  0  0  0  0  0  0  0
   -0.3564   -1.9529    0.3818 O   0  0  0  0  0  0  0  0  0  0  0  0
   -0.0686   -0.6169    0.2798 C   0  0  0  0  0  0  0  0  0  0  0  0
   -0.9113    0.3107    0.9072 C   0  0  0  0  0  0  0  0  0  0  0  0
   -0.5958    1.6747    0.9247 C   0  0  0  0  0  0  0  0  0  0  0  0
   -1.5339    2.5829    1.4438 N   0  0  0  0  0  0  0  0  0  0  0  0
    0.5552    2.1005    0.2395 C   0  0  0  0  0  0  0  0  0  0  0  0
    1.0108    3.9438    0.1492 Br  0  0  0  0  0  0  0  0  0  0  0  0
    1.4150    1.1813   -0.3667 C   0  0  0  0  0  0  0  0  0  0  0  0
    1.1040   -0.1836   -0.3475 C   0  0  0  0  0  0  0  0  0  0  0  0
    2.0598   -1.0970   -1.0043 C   0  0  0  0  0  0  0  0  0  0  0  0
    3.2689   -0.9525   -1.0207 O   0  0  0  0  0  0  0  0  0  0  0  0
    1.4610   -2.0801   -1.6968 O   0  0  0  0  0  0  0  0  0  0  0  0
   -2.4221   -1.9835    0.1028 H   0  0  0  0  0  0  0  0  0  0  0  0
   -1.5239   -3.3837   -0.5026 H   0  0  0  0  0  0  0  0  0  0  0  0
   -1.4519   -1.8612   -1.4069 H   0  0  0  0  0  0  0  0  0  0  0  0
   -1.8129   -0.0385    1.4032 H   0  0  0  0  0  0  0  0  0  0  0  0
   -1.1311    3.4946    1.6516 H   0  0  0  0  0  0  0  0  0  0  0  0
   -2.0928    2.2197    2.2095 H   0  0  0  0  0  0  0  0  0  0  0  0
    2.3217    1.5212   -0.8629 H   0  0  0  0  0  0  0  0  0  0  0  0
    2.2057   -2.5851   -2.0835 H   0  0  0  0  0  0  0  0  0  0  0  0
  1  2  1  0
  2  3  1  0
  3  4  2  0
  4  5  1  0
  5  6  1  0
  5  7  2  0
  7  8  1  0
  7  9  1  0
  9 10  2  0
 10 11  1  0
 11 12  2  0
 11 13  1  0
 10  3  1  0
  1 14  1  0
  1 15  1  0
  1 16  1  0
  4 17  1  0
  6 18  1  0
  6 19  1  0
  9 20  1  0
 13 21  1  0
M  END
$$$$
