
     RDKit          3D

 46 49  0  0  0  0  0  0  0  0999 V2000
    5.2937   -4.4743    0.7595 O   0  0  0  0  0  0  0  0  0  0  0  0
    4.3948   -4.1311   -0.0223 N   0  0  0  0  0  4  0  0  0  0  0  0
    3.6286   -4.9167   -0.5984 O   0  0  0  0  0  1  0  0  0  0  0  0
    4.2314   -2.6966   -0.2882 C   0  0  0  0  0  0  0  0  0  0  0  0
    5.1490   -1.7845    0.2485 C   0  0  0  0  0  0  0  0  0  0  0  0
    4.9896   -0.4224   -0.0052 C   0  0  0  0  0  0  0  0  0  0  0  0
    3.9237    0.0243   -0.7895 C   0  0  0  0  0  0  0  0  0  0  0  0
    3.0030   -0.8842   -1.3360 C   0  0  0  0  0  0  0  0  0  0  0  0
    1.8388   -0.3824   -2.1630 C   0  0  0  0  0  0  0  0  0  0  0  0
    0.6931    0.0957   -1.3270 C   0  0  0  0  0  0  0  0  0  0  0  0
   -0.4291   -1.0236   -0.5839 S   0  0  0  0  0  0  0  0  0  0  0  0
   -1.4203    0.3296    0.0757 C   0  0  0  0  0  0  0  0  0  0  0  0
   -2.4855    0.1643    0.7999 N   0  0  0  0  0  0  0  0  0  0  0  0
   -2.9484   -1.1166    1.1209 C   0  0  0  0  0  0  0  0  0  0  0  0
   -3.8797   -1.7583    0.2999 C   0  0  0  0  0  0  0  0  0  0  0  0
   -4.3617   -3.0256    0.6334 C   0  0  0  0  0  0  0  0  0  0  0  0
   -3.9245   -3.6518    1.8000 C   0  0  0  0  0  0  0  0  0  0  0  0
   -3.0125   -3.0086    2.6360 C   0  0  0  0  0  0  0  0  0  0  0  0
   -2.5325   -1.7414    2.2997 C   0  0  0  0  0  0  0  0  0  0  0  0
   -0.8239    1.5389   -0.3186 N   0  0  0  0  0  0  0  0  0  0  0  0
   -1.2707    2.7928    0.1906 C   0  0  0  0  0  0  0  0  0  0  0  0
   -0.3621    3.7367    0.7047 C   0  0  0  0  0  0  0  0  0  0  0  0
   -0.7983    4.9735    1.1879 C   0  0  0  0  0  0  0  0  0  0  0  0
   -2.1538    5.2883    1.1709 C   0  0  0  0  0  0  0  0  0  0  0  0
   -3.0722    4.3657    0.6780 C   0  0  0  0  0  0  0  0  0  0  0  0
   -2.6339    3.1292    0.1952 C   0  0  0  0  0  0  0  0  0  0  0  0
    0.3235    1.3686   -1.1010 C   0  0  0  0  0  0  0  0  0  0  0  0
    0.9871    2.4265   -1.6756 O   0  0  0  0  0  0  0  0  0  0  0  0
    3.1595   -2.2542   -1.0765 C   0  0  0  0  0  0  0  0  0  0  0  0
    5.9841   -2.1159    0.8620 H   0  0  0  0  0  0  0  0  0  0  0  0
    5.6942    0.2945    0.4104 H   0  0  0  0  0  0  0  0  0  0  0  0
    3.8094    1.0924   -0.9717 H   0  0  0  0  0  0  0  0  0  0  0  0
    1.5002   -1.1724   -2.8463 H   0  0  0  0  0  0  0  0  0  0  0  0
    2.2015    0.4172   -2.8222 H   0  0  0  0  0  0  0  0  0  0  0  0
   -4.2290   -1.2677   -0.6038 H   0  0  0  0  0  0  0  0  0  0  0  0
   -5.0797   -3.5209   -0.0145 H   0  0  0  0  0  0  0  0  0  0  0  0
   -4.2992   -4.6381    2.0612 H   0  0  0  0  0  0  0  0  0  0  0  0
   -2.6774   -3.4903    3.5505 H   0  0  0  0  0  0  0  0  0  0  0  0
   -1.8305   -1.2364    2.9570 H   0  0  0  0  0  0  0  0  0  0  0  0
    0.6994    3.5032    0.7627 H   0  0  0  0  0  0  0  0  0  0  0  0
   -0.0805    5.6841    1.5899 H   0  0  0  0  0  0  0  0  0  0  0  0
   -2.4968    6.2466    1.5528 H   0  0  0  0  0  0  0  0  0  0  0  0
   -4.1335    4.6017    0.6735 H   0  0  0  0  0  0  0  0  0  0  0  0
   -3.3746    2.4285   -0.1854 H   0  0  0  0  0  0  0  0  0  0  0  0
    0.3650    3.1756   -1.6676 H   0  0  0  0  0  0  0  0  0  0  0  0
    2.4408   -2.9637   -1.4840 H   0  0  0  0  0  0  0  0  0  0  0  0
  1  2  2  0
  2  3  1  0
  2  4  1  0
  4  5  2  0
  5  6  1  0
  6  7  2  0
  7  8  1  0
  8  9  1  0
  9 10  1  0
 10 11  1  0
 11 12  1  0
 12 13  2  3
 13 14  1  0
 14 15  2  0
 15 16  1  0
 16 17  2  0
 17 18  1  0
 18 19  2  0
 12 20  1  0
 20 21  1  0
 21 22  2  0
 22 23  1  0
 23 24  2  0
 24 25  1  0
 25 26  2  0
 20 27  1  0
 27 28  1  0
  8 29  2  0
 29  4  1  0
 27 10  2  0
 19 14  1  0
 26 21  1  0
  5 30  1  0
  6 31  1  0
  7 32  1  0
  9 33  1  0
  9 34  1  0
 15 35  1  0
 16 36  1  0
 17 37  1  0
 18 38  1  0
 19 39  1  0
 22 40  1  0
 23 41  1  0
 24 42  1  0
 25 43  1  0
 26 44  1  0
 28 45  1  0
 29 46  1  0
M  CHG  2   2   1   3  -1
M  END
$$$$
