
     RDKit          3D

 51 53  0  0  0  0  0  0  0  0999 V2000
    1.9776    0.1326    2.2514 O   0  0  0  0  0  0  0  0  0  0  0  0
    1.9283   -0.5393    1.2265 C   0  0  0  0  0  0  0  0  0  0  0  0
    3.0374   -1.1410    0.6688 N   0  0  0  0  0  0  0  0  0  0  0  0
    4.3704   -0.8629    1.1806 C   0  0  0  0  0  0  0  0  0  0  0  0
    4.9255    0.4439    0.6114 C   0  0  0  0  0  0  0  0  0  0  0  0
    6.2845    0.8160    1.1774 C   0  0  0  0  0  0  0  0  0  0  0  0
    6.8362    1.6896    0.0789 C   0  0  0  0  0  0  0  0  0  0  0  0
    6.3389    0.9863   -1.1667 C   0  0  0  0  0  0  0  0  0  0  0  0
    5.1203    0.3122   -0.8152 O   0  0  0  0  0  0  0  0  0  0  0  0
    0.6403   -0.8046    0.4615 C   0  0  0  0  0  0  0  0  0  0  0  0
    0.2813   -2.2982    0.5130 C   0  0  0  0  0  0  0  0  0  0  0  0
   -1.2269   -2.5358    0.5669 C   0  0  0  0  0  0  0  0  0  0  0  0
   -1.9715   -1.5123   -0.2795 C   0  0  0  0  0  0  0  0  0  0  0  0
   -1.7592   -0.1296    0.2359 N   0  0  0  0  0  0  0  0  0  0  0  0
   -2.0795    1.1260   -0.8819 S   0  0  0  0  0  6  0  0  0  0  0  0
   -2.0051    2.3938   -0.1897 O   0  0  0  0  0  0  0  0  0  0  0  0
   -1.2809    0.8643   -2.0614 O   0  0  0  0  0  0  0  0  0  0  0  0
   -3.7892    0.8559   -1.2844 C   0  0  0  0  0  0  0  0  0  0  0  0
   -4.1530    0.4595   -2.5728 C   0  0  0  0  0  0  0  0  0  0  0  0
   -5.4998    0.2609   -2.8717 C   0  0  0  0  0  0  0  0  0  0  0  0
   -6.4733    0.4601   -1.8885 C   0  0  0  0  0  0  0  0  0  0  0  0
   -6.1144    0.8587   -0.5894 C   0  0  0  0  0  0  0  0  0  0  0  0
   -7.1723    1.0987    0.4608 C   0  0  0  0  0  0  0  0  0  0  0  0
   -8.2863    0.3358    0.2772 F   0  0  0  0  0  0  0  0  0  0  0  0
   -7.6011    2.3896    0.4801 F   0  0  0  0  0  0  0  0  0  0  0  0
   -6.7407    0.8243    1.7229 F   0  0  0  0  0  0  0  0  0  0  0  0
   -4.7580    1.0664   -0.2960 C   0  0  0  0  0  0  0  0  0  0  0  0
   -0.4929    0.0552    1.0189 C   0  0  0  0  0  0  0  0  0  0  0  0
    2.9910   -1.4014   -0.3095 H   0  0  0  0  0  0  0  0  0  0  0  0
    4.9945   -1.7104    0.8778 H   0  0  0  0  0  0  0  0  0  0  0  0
    4.3330   -0.8228    2.2744 H   0  0  0  0  0  0  0  0  0  0  0  0
    4.2153    1.2666    0.7616 H   0  0  0  0  0  0  0  0  0  0  0  0
    6.2182    1.3233    2.1438 H   0  0  0  0  0  0  0  0  0  0  0  0
    6.9179   -0.0715    1.2954 H   0  0  0  0  0  0  0  0  0  0  0  0
    6.3954    2.6916    0.1434 H   0  0  0  0  0  0  0  0  0  0  0  0
    7.9240    1.7943    0.1036 H   0  0  0  0  0  0  0  0  0  0  0  0
    6.1513    1.6789   -1.9921 H   0  0  0  0  0  0  0  0  0  0  0  0
    7.0518    0.2266   -1.5039 H   0  0  0  0  0  0  0  0  0  0  0  0
    0.8138   -0.5137   -0.5835 H   0  0  0  0  0  0  0  0  0  0  0  0
    0.6927   -2.7866   -0.3800 H   0  0  0  0  0  0  0  0  0  0  0  0
    0.7481   -2.7974    1.3712 H   0  0  0  0  0  0  0  0  0  0  0  0
   -1.4514   -3.5505    0.2194 H   0  0  0  0  0  0  0  0  0  0  0  0
   -1.5705   -2.4757    1.6074 H   0  0  0  0  0  0  0  0  0  0  0  0
   -1.6401   -1.5959   -1.3205 H   0  0  0  0  0  0  0  0  0  0  0  0
   -3.0430   -1.7359   -0.2430 H   0  0  0  0  0  0  0  0  0  0  0  0
   -3.4011    0.3117   -3.3451 H   0  0  0  0  0  0  0  0  0  0  0  0
   -5.7947   -0.0427   -3.8741 H   0  0  0  0  0  0  0  0  0  0  0  0
   -7.5223    0.3065   -2.1418 H   0  0  0  0  0  0  0  0  0  0  0  0
   -4.4542    1.3909    0.6997 H   0  0  0  0  0  0  0  0  0  0  0  0
   -0.1980    1.1107    1.0354 H   0  0  0  0  0  0  0  0  0  0  0  0
   -0.7084   -0.2025    2.0642 H   0  0  0  0  0  0  0  0  0  0  0  0
  1  2  2  0
  2  3  1  0
  3  4  1  0
  4  5  1  0
  5  6  1  0
  6  7  1  0
  7  8  1  0
  8  9  1  0
  2 10  1  0
 10 11  1  0
 11 12  1  0
 12 13  1  0
 13 14  1  0
 14 15  1  0
 15 16  2  0
 15 17  2  0
 15 18  1  0
 18 19  2  0
 19 20  1  0
 20 21  2  0
 21 22  1  0
 22 23  1  0
 23 24  1  0
 23 25  1  0
 23 26  1  0
 22 27  2  0
 14 28  1  0
  9  5  1  0
 28 10  1  0
 27 18  1  0
  3 29  1  0
  4 30  1  0
  4 31  1  0
  5 32  1  0
  6 33  1  0
  6 34  1  0
  7 35  1  0
  7 36  1  0
  8 37  1  0
  8 38  1  0
 10 39  1  0
 11 40  1  0
 11 41  1  0
 12 42  1  0
 12 43  1  0
 13 44  1  0
 13 45  1  0
 19 46  1  0
 20 47  1  0
 21 48  1  0
 27 49  1  0
 28 50  1  0
 28 51  1  0
M  END
$$$$
