
     RDKit          3D

 50 52  0  0  0  0  0  0  0  0999 V2000
    8.1967   -2.4224    2.2982 C   0  0  0  0  0  0  0  0  0  0  0  0
    7.9749   -2.2383    0.8053 C   0  0  0  0  0  0  0  0  0  0  0  0
    7.1762   -1.0107    0.5180 C   0  0  0  0  0  0  0  0  0  0  0  0
    7.6780    0.2043    0.4187 N   0  0  0  0  0  0  0  0  0  0  0  0
    6.7059    1.1466    0.1441 N   0  0  0  0  0  0  0  0  0  0  0  0
    5.5240    0.5964    0.0071 C   0  0  0  0  0  0  0  0  0  0  0  0
    4.3566    1.4327   -0.2213 N   0  0  0  0  0  0  0  0  0  0  0  0
    3.8950    1.3955   -1.8480 S   0  0  0  0  0  6  0  0  0  0  0  0
    4.1510    0.0989   -2.4347 O   0  0  0  0  0  0  0  0  0  0  0  0
    4.3896    2.6173   -2.4448 O   0  0  0  0  0  0  0  0  0  0  0  0
    2.1324    1.5499   -1.6760 C   0  0  0  0  0  0  0  0  0  0  0  0
    1.5122    2.7832   -1.8734 C   0  0  0  0  0  0  0  0  0  0  0  0
    0.1206    2.8921   -1.7463 C   0  0  0  0  0  0  0  0  0  0  0  0
   -0.6581    1.7782   -1.4292 C   0  0  0  0  0  0  0  0  0  0  0  0
   -2.0614    1.7649   -1.2769 N   0  0  0  0  0  0  0  0  0  0  0  0
   -3.0357    2.7351   -1.2962 C   0  0  0  0  0  0  0  0  0  0  0  0
   -2.9065    4.3902   -1.4719 S   0  0  0  0  0  0  0  0  0  0  0  0
   -4.3300    2.2568   -1.1331 N   0  0  0  0  0  0  0  0  0  0  0  0
   -4.7541    0.9553   -0.9271 C   0  0  0  0  0  0  0  0  0  0  0  0
   -4.0021   -0.0099   -0.8736 O   0  0  0  0  0  0  0  0  0  0  0  0
   -6.2299    0.8547   -0.7926 C   0  0  0  0  0  0  0  0  0  0  0  0
   -6.8763   -0.0391   -0.0277 C   0  0  0  0  0  0  0  0  0  0  0  0
   -6.2812   -1.0285    0.8765 C   0  0  0  0  0  0  0  0  0  0  0  0
   -6.5893   -2.3831    0.7063 C   0  0  0  0  0  0  0  0  0  0  0  0
   -6.0652   -3.3418    1.5765 C   0  0  0  0  0  0  0  0  0  0  0  0
   -5.2372   -2.9517    2.6276 C   0  0  0  0  0  0  0  0  0  0  0  0
   -4.9339   -1.6035    2.8109 C   0  0  0  0  0  0  0  0  0  0  0  0
   -5.4582   -0.6438    1.9419 C   0  0  0  0  0  0  0  0  0  0  0  0
   -0.0137    0.5407   -1.2549 C   0  0  0  0  0  0  0  0  0  0  0  0
    1.3733    0.4200   -1.3775 C   0  0  0  0  0  0  0  0  0  0  0  0
    5.4706   -1.0842    0.3003 S   0  0  0  0  0  0  0  0  0  0  0  0
    7.2461   -2.5366    2.8303 H   0  0  0  0  0  0  0  0  0  0  0  0
    8.7994   -3.3169    2.4845 H   0  0  0  0  0  0  0  0  0  0  0  0
    8.7216   -1.5631    2.7295 H   0  0  0  0  0  0  0  0  0  0  0  0
    7.4847   -3.1281    0.3936 H   0  0  0  0  0  0  0  0  0  0  0  0
    8.9465   -2.1552    0.3040 H   0  0  0  0  0  0  0  0  0  0  0  0
    4.6447    2.3932   -0.0239 H   0  0  0  0  0  0  0  0  0  0  0  0
    2.0920    3.6670   -2.1321 H   0  0  0  0  0  0  0  0  0  0  0  0
   -0.3083    3.8698   -1.9225 H   0  0  0  0  0  0  0  0  0  0  0  0
   -2.4438    0.8328   -1.0981 H   0  0  0  0  0  0  0  0  0  0  0  0
   -5.0245    2.9912   -1.1367 H   0  0  0  0  0  0  0  0  0  0  0  0
   -6.8108    1.5404   -1.4005 H   0  0  0  0  0  0  0  0  0  0  0  0
   -7.9646   -0.0555   -0.0506 H   0  0  0  0  0  0  0  0  0  0  0  0
   -7.2307   -2.7047   -0.1108 H   0  0  0  0  0  0  0  0  0  0  0  0
   -6.3008   -4.3928    1.4316 H   0  0  0  0  0  0  0  0  0  0  0  0
   -4.8267   -3.6981    3.3025 H   0  0  0  0  0  0  0  0  0  0  0  0
   -4.2884   -1.2983    3.6303 H   0  0  0  0  0  0  0  0  0  0  0  0
   -5.2148    0.4028    2.1051 H   0  0  0  0  0  0  0  0  0  0  0  0
   -0.5904   -0.3528   -1.0195 H   0  0  0  0  0  0  0  0  0  0  0  0
    1.8448   -0.5508   -1.2429 H   0  0  0  0  0  0  0  0  0  0  0  0
  1  2  1  0
  2  3  1  0
  3  4  2  0
  4  5  1  0
  5  6  2  0
  6  7  1  0
  7  8  1  0
  8  9  2  0
  8 10  2  0
  8 11  1  0
 11 12  2  0
 12 13  1  0
 13 14  2  0
 14 15  1  0
 15 16  1  0
 16 17  2  0
 16 18  1  0
 18 19  1  0
 19 20  2  0
 19 21  1  0
 21 22  2  3
 22 23  1  0
 23 24  2  0
 24 25  1  0
 25 26  2  0
 26 27  1  0
 27 28  2  0
 14 29  1  0
 29 30  2  0
  6 31  1  0
 31  3  1  0
 30 11  1  0
 28 23  1  0
  1 32  1  0
  1 33  1  0
  1 34  1  0
  2 35  1  0
  2 36  1  0
  7 37  1  0
 12 38  1  0
 13 39  1  0
 15 40  1  0
 18 41  1  0
 21 42  1  0
 22 43  1  0
 24 44  1  0
 25 45  1  0
 26 46  1  0
 27 47  1  0
 28 48  1  0
 29 49  1  0
 30 50  1  0
M  END
$$$$
