
     RDKit          3D

 51 54  0  0  0  0  0  0  0  0999 V2000
   -4.9517   -2.3596   -2.2046 C   0  0  0  0  0  0  0  0  0  0  0  0
   -3.9854   -1.8054   -1.3222 O   0  0  0  0  0  0  0  0  0  0  0  0
   -4.4042   -0.8367   -0.4458 C   0  0  0  0  0  0  0  0  0  0  0  0
   -5.7292   -0.3954   -0.3388 C   0  0  0  0  0  0  0  0  0  0  0  0
   -6.0729    0.6105    0.5657 C   0  0  0  0  0  0  0  0  0  0  0  0
   -5.0959    1.1881    1.3667 C   0  0  0  0  0  0  0  0  0  0  0  0
   -3.7740    0.7547    1.2713 C   0  0  0  0  0  0  0  0  0  0  0  0
   -3.4075   -0.2706    0.3798 C   0  0  0  0  0  0  0  0  0  0  0  0
   -1.9527   -0.7223    0.2747 C   0  0  0  0  0  0  0  0  0  0  0  0
   -1.1691    0.2154   -0.6586 C   0  0  0  0  0  0  0  0  0  0  0  0
    0.3325   -0.0104   -0.4923 C   0  0  0  0  0  0  0  0  0  0  0  0
    0.8120    0.3367    0.8553 N   0  0  0  0  0  0  0  0  0  0  0  0
    2.0539   -0.3717    1.2030 C   0  0  0  0  0  0  0  0  0  0  0  0
    3.1778    0.0117    0.2811 C   0  0  0  0  0  0  0  0  0  0  0  0
    3.8359   -0.8132   -0.6227 C   0  0  0  0  0  0  0  0  0  0  0  0
    3.6327   -2.2466   -0.9545 C   0  0  0  0  0  0  0  0  0  0  0  0
    4.8036   -0.0638   -1.2445 N   0  0  0  0  0  0  0  0  0  0  0  0
    4.8069    1.2231   -0.7645 C   0  0  0  0  0  0  0  0  0  0  0  0
    5.6202    2.3113   -1.1039 C   0  0  0  0  0  0  0  0  0  0  0  0
    5.3901    3.5228   -0.4453 C   0  0  0  0  0  0  0  0  0  0  0  0
    4.3851    3.6387    0.5116 C   0  0  0  0  0  0  0  0  0  0  0  0
    3.5828    2.5394    0.8377 C   0  0  0  0  0  0  0  0  0  0  0  0
    3.7961    1.3042    0.1910 C   0  0  0  0  0  0  0  0  0  0  0  0
   -0.2092    0.1930    1.8996 C   0  0  0  0  0  0  0  0  0  0  0  0
   -1.2301   -0.9115    1.6265 C   0  0  0  0  0  0  0  0  0  0  0  0
   -5.7327   -2.8908   -1.6510 H   0  0  0  0  0  0  0  0  0  0  0  0
   -4.4422   -3.0893   -2.8413 H   0  0  0  0  0  0  0  0  0  0  0  0
   -5.3790   -1.5913   -2.8574 H   0  0  0  0  0  0  0  0  0  0  0  0
   -6.5223   -0.8127   -0.9498 H   0  0  0  0  0  0  0  0  0  0  0  0
   -7.1038    0.9469    0.6380 H   0  0  0  0  0  0  0  0  0  0  0  0
   -5.3591    1.9796    2.0635 H   0  0  0  0  0  0  0  0  0  0  0  0
   -3.0297    1.2358    1.8995 H   0  0  0  0  0  0  0  0  0  0  0  0
   -1.9439   -1.7227   -0.1786 H   0  0  0  0  0  0  0  0  0  0  0  0
   -1.4599    0.0286   -1.6999 H   0  0  0  0  0  0  0  0  0  0  0  0
   -1.4056    1.2692   -0.4596 H   0  0  0  0  0  0  0  0  0  0  0  0
    0.8630    0.6004   -1.2317 H   0  0  0  0  0  0  0  0  0  0  0  0
    0.5424   -1.0624   -0.7272 H   0  0  0  0  0  0  0  0  0  0  0  0
    1.8978   -1.4576    1.2022 H   0  0  0  0  0  0  0  0  0  0  0  0
    2.3688   -0.0997    2.2192 H   0  0  0  0  0  0  0  0  0  0  0  0
    2.6417   -2.3990   -1.3932 H   0  0  0  0  0  0  0  0  0  0  0  0
    3.7100   -2.8618   -0.0524 H   0  0  0  0  0  0  0  0  0  0  0  0
    4.3785   -2.6055   -1.6711 H   0  0  0  0  0  0  0  0  0  0  0  0
    5.4355   -0.4041   -1.9551 H   0  0  0  0  0  0  0  0  0  0  0  0
    6.4012    2.2249   -1.8517 H   0  0  0  0  0  0  0  0  0  0  0  0
    6.0027    4.3879   -0.6873 H   0  0  0  0  0  0  0  0  0  0  0  0
    4.2163    4.5903    1.0085 H   0  0  0  0  0  0  0  0  0  0  0  0
    2.7925    2.6379    1.5761 H   0  0  0  0  0  0  0  0  0  0  0  0
    0.2448    0.0351    2.8859 H   0  0  0  0  0  0  0  0  0  0  0  0
   -0.7315    1.1534    1.9826 H   0  0  0  0  0  0  0  0  0  0  0  0
   -1.9382   -0.9882    2.4598 H   0  0  0  0  0  0  0  0  0  0  0  0
   -0.6949   -1.8710    1.6060 H   0  0  0  0  0  0  0  0  0  0  0  0
  1  2  1  0
  2  3  1  0
  3  4  2  0
  4  5  1  0
  5  6  2  0
  6  7  1  0
  7  8  2  0
  8  9  1  0
  9 10  1  0
 10 11  1  0
 11 12  1  0
 12 13  1  0
 13 14  1  0
 14 15  2  0
 15 16  1  0
 15 17  1  0
 17 18  1  0
 18 19  2  0
 19 20  1  0
 20 21  2  0
 21 22  1  0
 22 23  2  0
 12 24  1  0
 24 25  1  0
  8  3  1  0
 25  9  1  0
 23 14  1  0
 23 18  1  0
  1 26  1  0
  1 27  1  0
  1 28  1  0
  4 29  1  0
  5 30  1  0
  6 31  1  0
  7 32  1  0
  9 33  1  0
 10 34  1  0
 10 35  1  0
 11 36  1  0
 11 37  1  0
 13 38  1  0
 13 39  1  0
 16 40  1  0
 16 41  1  0
 16 42  1  0
 17 43  1  0
 19 44  1  0
 20 45  1  0
 21 46  1  0
 22 47  1  0
 24 48  1  0
 24 49  1  0
 25 50  1  0
 25 51  1  0
M  END
$$$$
