
     RDKit          3D

 46 48  0  0  0  0  0  0  0  0999 V2000
   -2.4620    2.7870    0.2982 C   0  0  0  0  0  0  0  0  0  0  0  0
   -3.3470    1.5741    0.1699 C   0  0  0  0  0  0  0  0  0  0  0  0
   -4.6837    1.7602    0.2507 C   0  0  0  0  0  0  0  0  0  0  0  0
   -5.7216    0.7312    0.1254 C   0  0  0  0  0  0  0  0  0  0  0  0
   -5.9561   -0.1767    1.1648 C   0  0  0  0  0  0  0  0  0  0  0  0
   -6.9432   -1.1554    1.0321 C   0  0  0  0  0  0  0  0  0  0  0  0
   -7.6994   -1.2299   -0.1377 C   0  0  0  0  0  0  0  0  0  0  0  0
   -7.4709   -0.3258   -1.1755 C   0  0  0  0  0  0  0  0  0  0  0  0
   -6.4852    0.6545   -1.0443 C   0  0  0  0  0  0  0  0  0  0  0  0
   -2.7634    0.2719   -0.1496 C   0  0  0  0  0  0  0  0  0  0  0  0
   -1.5351   -0.2420    0.0311 C   0  0  0  0  0  0  0  0  0  0  0  0
   -1.1571   -1.8434   -0.5637 S   0  0  0  0  0  0  0  0  0  0  0  0
    0.5292   -1.7577   -0.0801 C   0  0  0  0  0  0  0  0  0  0  0  0
    1.6296   -2.9802   -0.3429 S   0  0  0  0  0  0  0  0  0  0  0  0
    0.7351   -0.5551    0.5517 N   0  0  0  0  0  0  0  0  0  0  0  0
    2.1054   -0.1108    1.0469 N   0  0  0  0  0  0  0  0  0  0  0  0
    2.9143    0.8929   -0.0814 S   0  0  0  0  0  6  0  0  0  0  0  0
    3.0907    2.1755    0.5636 O   0  0  0  0  0  0  0  0  0  0  0  0
    2.2468    0.7663   -1.3606 O   0  0  0  0  0  0  0  0  0  0  0  0
    4.4993    0.1066   -0.1821 C   0  0  0  0  0  0  0  0  0  0  0  0
    4.7792   -0.7595   -1.2416 C   0  0  0  0  0  0  0  0  0  0  0  0
    6.0387   -1.3545   -1.3284 C   0  0  0  0  0  0  0  0  0  0  0  0
    7.0220   -1.0837   -0.3660 C   0  0  0  0  0  0  0  0  0  0  0  0
    8.3817   -1.7076   -0.4888 C   0  0  0  0  0  0  0  0  0  0  0  0
    6.7367   -0.1902    0.6755 C   0  0  0  0  0  0  0  0  0  0  0  0
    5.4778    0.4064    0.7703 C   0  0  0  0  0  0  0  0  0  0  0  0
   -0.3289    0.3175    0.7100 C   0  0  0  0  0  0  0  0  0  0  0  0
   -0.2666    1.3463    1.3666 O   0  0  0  0  0  0  0  0  0  0  0  0
   -1.6232    2.7501   -0.4046 H   0  0  0  0  0  0  0  0  0  0  0  0
   -2.0896    2.8866    1.3212 H   0  0  0  0  0  0  0  0  0  0  0  0
   -3.0087    3.7090    0.0690 H   0  0  0  0  0  0  0  0  0  0  0  0
   -5.0848    2.7551    0.4382 H   0  0  0  0  0  0  0  0  0  0  0  0
   -5.3725   -0.1255    2.0814 H   0  0  0  0  0  0  0  0  0  0  0  0
   -7.1230   -1.8588    1.8417 H   0  0  0  0  0  0  0  0  0  0  0  0
   -8.4683   -1.9915   -0.2401 H   0  0  0  0  0  0  0  0  0  0  0  0
   -8.0596   -0.3846   -2.0877 H   0  0  0  0  0  0  0  0  0  0  0  0
   -6.3136    1.3526   -1.8611 H   0  0  0  0  0  0  0  0  0  0  0  0
   -3.4785   -0.3914   -0.6438 H   0  0  0  0  0  0  0  0  0  0  0  0
    2.0120    0.4456    1.9066 H   0  0  0  0  0  0  0  0  0  0  0  0
    4.0304   -0.9776   -2.0007 H   0  0  0  0  0  0  0  0  0  0  0  0
    6.2521   -2.0314   -2.1541 H   0  0  0  0  0  0  0  0  0  0  0  0
    8.9585   -1.1971   -1.2659 H   0  0  0  0  0  0  0  0  0  0  0  0
    8.9355   -1.6433    0.4544 H   0  0  0  0  0  0  0  0  0  0  0  0
    8.2951   -2.7688   -0.7450 H   0  0  0  0  0  0  0  0  0  0  0  0
    7.4969    0.0488    1.4177 H   0  0  0  0  0  0  0  0  0  0  0  0
    5.2750    1.1043    1.5803 H   0  0  0  0  0  0  0  0  0  0  0  0
  1  2  1  0
  2  3  2  3
  3  4  1  0
  4  5  2  0
  5  6  1  0
  6  7  2  0
  7  8  1  0
  8  9  2  0
  2 10  1  0
 10 11  2  3
 11 12  1  0
 12 13  1  0
 13 14  2  0
 13 15  1  0
 15 16  1  0
 16 17  1  0
 17 18  2  0
 17 19  2  0
 17 20  1  0
 20 21  2  0
 21 22  1  0
 22 23  2  0
 23 24  1  0
 23 25  1  0
 25 26  2  0
 15 27  1  0
 27 28  2  0
  9  4  1  0
 27 11  1  0
 26 20  1  0
  1 29  1  0
  1 30  1  0
  1 31  1  0
  3 32  1  0
  5 33  1  0
  6 34  1  0
  7 35  1  0
  8 36  1  0
  9 37  1  0
 10 38  1  0
 16 39  1  0
 21 40  1  0
 22 41  1  0
 24 42  1  0
 24 43  1  0
 24 44  1  0
 25 45  1  0
 26 46  1  0
M  END
$$$$
