
     RDKit          3D

 43 45  0  0  0  0  0  0  0  0999 V2000
   -2.9235    3.4277    0.5561 C   0  0  0  0  0  0  0  0  0  0  0  0
   -1.5015    2.9115    0.6621 C   0  0  0  0  0  0  0  0  0  0  0  0
   -1.5483    1.4800    0.6337 O   0  0  0  0  0  0  0  0  0  0  0  0
   -0.3402    0.8682    0.8213 C   0  0  0  0  0  0  0  0  0  0  0  0
    0.6929    1.4997    1.0144 O   0  0  0  0  0  0  0  0  0  0  0  0
   -0.4491   -0.5947    0.7839 C   0  0  0  0  0  0  0  0  0  0  0  0
    0.3226   -1.4924    1.5114 C   0  0  0  0  0  0  0  0  0  0  0  0
    1.4046   -1.4445    2.3720 N   0  0  0  0  0  0  0  0  0  0  0  0
    2.2713   -0.4254    2.5619 C   0  0  0  0  0  0  0  0  0  0  0  0
    2.6740    0.0280    4.1265 S   0  0  0  0  0  0  0  0  0  0  0  0
    2.9312    0.1632    1.5222 N   0  0  0  0  0  0  0  0  0  0  0  0
    3.0408   -0.1735    0.1730 C   0  0  0  0  0  0  0  0  0  0  0  0
    2.5905   -1.1959   -0.3391 O   0  0  0  0  0  0  0  0  0  0  0  0
    3.8027    0.8034   -0.5860 C   0  0  0  0  0  0  0  0  0  0  0  0
    4.1435    0.8533   -1.9243 C   0  0  0  0  0  0  0  0  0  0  0  0
    4.8787    2.0487   -2.1143 C   0  0  0  0  0  0  0  0  0  0  0  0
    4.9481    2.6555   -0.8827 C   0  0  0  0  0  0  0  0  0  0  0  0
    4.3143    1.9054    0.0548 O   0  0  0  0  0  0  0  0  0  0  0  0
   -0.2580   -3.0993    1.4222 S   0  0  0  0  0  0  0  0  0  0  0  0
   -1.4309   -2.6838    0.2803 C   0  0  0  0  0  0  0  0  0  0  0  0
   -1.4602   -1.3264    0.0219 C   0  0  0  0  0  0  0  0  0  0  0  0
   -2.4739   -0.7461   -0.9296 C   0  0  0  0  0  0  0  0  0  0  0  0
   -3.1035   -1.8172   -1.8337 C   0  0  0  0  0  0  0  0  0  0  0  0
   -3.5136   -3.0614   -1.0374 C   0  0  0  0  0  0  0  0  0  0  0  0
   -2.3048   -3.7184   -0.3625 C   0  0  0  0  0  0  0  0  0  0  0  0
   -3.4093    3.0525   -0.3525 H   0  0  0  0  0  0  0  0  0  0  0  0
   -3.5186    3.0763    1.4041 H   0  0  0  0  0  0  0  0  0  0  0  0
   -2.9415    4.5218    0.5462 H   0  0  0  0  0  0  0  0  0  0  0  0
   -1.0553    3.2584    1.6035 H   0  0  0  0  0  0  0  0  0  0  0  0
   -0.9037    3.2722   -0.1819 H   0  0  0  0  0  0  0  0  0  0  0  0
    1.3446   -2.1238    3.1241 H   0  0  0  0  0  0  0  0  0  0  0  0
    3.4659    0.9840    1.7886 H   0  0  0  0  0  0  0  0  0  0  0  0
    3.8799    0.1112   -2.6665 H   0  0  0  0  0  0  0  0  0  0  0  0
    5.3008    2.4247   -3.0365 H   0  0  0  0  0  0  0  0  0  0  0  0
    5.3902    3.5756   -0.5244 H   0  0  0  0  0  0  0  0  0  0  0  0
   -3.2681   -0.2660   -0.3442 H   0  0  0  0  0  0  0  0  0  0  0  0
   -2.0092    0.0209   -1.5587 H   0  0  0  0  0  0  0  0  0  0  0  0
   -2.3867   -2.1088   -2.6115 H   0  0  0  0  0  0  0  0  0  0  0  0
   -3.9751   -1.3955   -2.3434 H   0  0  0  0  0  0  0  0  0  0  0  0
   -4.0035   -3.7870   -1.6976 H   0  0  0  0  0  0  0  0  0  0  0  0
   -4.2491   -2.7729   -0.2762 H   0  0  0  0  0  0  0  0  0  0  0  0
   -1.7150   -4.2549   -1.1165 H   0  0  0  0  0  0  0  0  0  0  0  0
   -2.6539   -4.4545    0.3701 H   0  0  0  0  0  0  0  0  0  0  0  0
  1  2  1  0
  2  3  1  0
  3  4  1  0
  4  5  2  0
  4  6  1  0
  6  7  2  0
  7  8  1  0
  8  9  1  0
  9 10  2  0
  9 11  1  0
 11 12  1  0
 12 13  2  0
 12 14  1  0
 14 15  2  0
 15 16  1  0
 16 17  2  0
 17 18  1  0
  7 19  1  0
 19 20  1  0
 20 21  2  0
 21 22  1  0
 22 23  1  0
 23 24  1  0
 24 25  1  0
 21  6  1  0
 18 14  1  0
 25 20  1  0
  1 26  1  0
  1 27  1  0
  1 28  1  0
  2 29  1  0
  2 30  1  0
  8 31  1  0
 11 32  1  0
 15 33  1  0
 16 34  1  0
 17 35  1  0
 22 36  1  0
 22 37  1  0
 23 38  1  0
 23 39  1  0
 24 40  1  0
 24 41  1  0
 25 42  1  0
 25 43  1  0
M  END
$$$$
