
     RDKit          3D

 47 50  0  0  0  0  0  0  0  0999 V2000
   -7.3310   -0.6828    0.1045 C   0  0  0  0  0  0  0  0  0  0  0  0
   -5.8432   -0.6731   -0.2431 C   0  0  0  0  0  0  0  0  0  0  0  0
   -5.5730    0.2199   -1.4685 C   0  0  0  0  0  0  0  0  0  0  0  0
   -4.0977    0.1769   -1.9050 C   0  0  0  0  0  0  0  0  0  0  0  0
   -3.1411    0.2501   -0.7444 C   0  0  0  0  0  0  0  0  0  0  0  0
   -3.5865    0.0441    0.5494 C   0  0  0  0  0  0  0  0  0  0  0  0
   -2.3371    0.0801    1.6916 S   0  0  0  0  0  0  0  0  0  0  0  0
   -1.1576    0.2978    0.4960 C   0  0  0  0  0  0  0  0  0  0  0  0
    0.1917    0.3250    0.8112 N   0  0  0  0  0  0  0  0  0  0  0  0
    0.7899    0.2414    2.0551 C   0  0  0  0  0  0  0  0  0  0  0  0
    0.2188    0.1846    3.1388 O   0  0  0  0  0  0  0  0  0  0  0  0
    2.2419    0.2367    1.9618 C   0  0  0  0  0  0  0  0  0  0  0  0
    3.2161    0.1199    2.9338 C   0  0  0  0  0  0  0  0  0  0  0  0
    4.4661    0.1749    2.2713 C   0  0  0  0  0  0  0  0  0  0  0  0
    4.1919    0.3213    0.9260 C   0  0  0  0  0  0  0  0  0  0  0  0
    5.0209    0.4629   -0.2988 C   0  0  0  0  0  0  0  0  0  0  0  0
    6.2431   -0.3295   -0.2268 N   0  0  0  0  0  0  0  0  0  0  0  0
    7.4656    0.0922    0.2293 C   0  0  0  0  0  0  0  0  0  0  0  0
    8.2972   -0.9868    0.0882 C   0  0  0  0  0  0  0  0  0  0  0  0
   10.1034   -1.1208    0.5360 Br  0  0  0  0  0  0  0  0  0  0  0  0
    7.5173   -2.0035   -0.4761 C   0  0  0  0  0  0  0  0  0  0  0  0
    6.2572   -1.6050   -0.6832 N   0  0  0  0  0  0  0  0  0  0  0  0
    2.8402    0.3734    0.7354 O   0  0  0  0  0  0  0  0  0  0  0  0
   -1.6988    0.4288   -0.7809 C   0  0  0  0  0  0  0  0  0  0  0  0
   -0.8319    0.6646   -1.9378 C   0  0  0  0  0  0  0  0  0  0  0  0
   -1.3817    1.3221   -2.9986 N   0  0  0  0  0  0  0  0  0  0  0  0
    0.3635    0.3798   -1.9547 O   0  0  0  0  0  0  0  0  0  0  0  0
   -5.0074   -0.1966    0.9623 C   0  0  0  0  0  0  0  0  0  0  0  0
   -7.9266   -1.0417   -0.7419 H   0  0  0  0  0  0  0  0  0  0  0  0
   -7.5255   -1.3443    0.9556 H   0  0  0  0  0  0  0  0  0  0  0  0
   -7.6864    0.3210    0.3661 H   0  0  0  0  0  0  0  0  0  0  0  0
   -5.5449   -1.7013   -0.4948 H   0  0  0  0  0  0  0  0  0  0  0  0
   -5.8470    1.2571   -1.2289 H   0  0  0  0  0  0  0  0  0  0  0  0
   -6.2019   -0.0875   -2.3133 H   0  0  0  0  0  0  0  0  0  0  0  0
   -3.9419    1.0031   -2.6018 H   0  0  0  0  0  0  0  0  0  0  0  0
   -3.9079   -0.7542   -2.4535 H   0  0  0  0  0  0  0  0  0  0  0  0
    0.8284    0.3680    0.0135 H   0  0  0  0  0  0  0  0  0  0  0  0
    3.0308    0.0040    3.9936 H   0  0  0  0  0  0  0  0  0  0  0  0
    5.4464    0.1079    2.7236 H   0  0  0  0  0  0  0  0  0  0  0  0
    4.4737    0.1420   -1.1932 H   0  0  0  0  0  0  0  0  0  0  0  0
    5.3164    1.5097   -0.4369 H   0  0  0  0  0  0  0  0  0  0  0  0
    7.6233    1.0908    0.6126 H   0  0  0  0  0  0  0  0  0  0  0  0
    7.7992   -3.0119   -0.7485 H   0  0  0  0  0  0  0  0  0  0  0  0
   -0.7179    1.6209   -3.7012 H   0  0  0  0  0  0  0  0  0  0  0  0
   -2.1756    1.9243   -2.8492 H   0  0  0  0  0  0  0  0  0  0  0  0
   -5.0616   -0.9456    1.7612 H   0  0  0  0  0  0  0  0  0  0  0  0
   -5.4186    0.7394    1.3622 H   0  0  0  0  0  0  0  0  0  0  0  0
  1  2  1  0
  2  3  1  0
  3  4  1  0
  4  5  1  0
  5  6  2  0
  6  7  1  0
  7  8  1  0
  8  9  1  0
  9 10  1  0
 10 11  2  0
 10 12  1  0
 12 13  2  0
 13 14  1  0
 14 15  2  0
 15 16  1  0
 16 17  1  0
 17 18  1  0
 18 19  2  0
 19 20  1  0
 19 21  1  0
 21 22  2  0
 15 23  1  0
  8 24  2  0
 24 25  1  0
 25 26  1  0
 25 27  2  0
  6 28  1  0
 28  2  1  0
 24  5  1  0
 23 12  1  0
 22 17  1  0
  1 29  1  0
  1 30  1  0
  1 31  1  0
  2 32  1  0
  3 33  1  0
  3 34  1  0
  4 35  1  0
  4 36  1  0
  9 37  1  0
 13 38  1  0
 14 39  1  0
 16 40  1  0
 16 41  1  0
 18 42  1  0
 21 43  1  0
 26 44  1  0
 26 45  1  0
 28 46  1  0
 28 47  1  0
M  END
$$$$
