
     RDKit          3D

 35 37  0  0  0  0  0  0  0  0999 V2000
   -1.1237   -1.7738   -0.9252 C   0  0  0  0  0  0  0  0  0  0  0  0
   -1.4134   -1.2916    0.4897 C   0  0  0  0  0  0  0  0  0  0  0  0
   -1.4979    0.1642    0.5417 N   0  0  0  0  0  0  0  0  0  0  0  0
   -0.5094    1.1003    0.9289 C   0  0  0  0  0  0  0  0  0  0  0  0
    0.8371    1.0001    1.1001 C   0  0  0  0  0  0  0  0  0  0  0  0
    1.8702    2.3319    1.6315 S   0  0  0  0  0  0  0  0  0  0  0  0
    3.3596    1.4261    1.5283 C   0  0  0  0  0  0  0  0  0  0  0  0
    4.8497    2.0454    1.9482 S   0  0  0  0  0  0  0  0  0  0  0  0
    3.0559    0.1601    1.0959 N   0  0  0  0  0  0  0  0  0  0  0  0
    4.0528   -0.8070    0.8372 N   0  0  0  0  0  0  0  0  0  0  0  0
    4.5267   -0.8495   -0.4624 C   0  0  0  0  0  0  0  0  0  0  0  0
    5.3516   -2.0700   -0.7669 C   0  0  0  0  0  0  0  0  0  0  0  0
    4.2963    0.0143   -1.3038 O   0  0  0  0  0  0  0  0  0  0  0  0
    1.7315   -0.1834    0.8682 C   0  0  0  0  0  0  0  0  0  0  0  0
    1.3952   -1.3183    0.5593 O   0  0  0  0  0  0  0  0  0  0  0  0
   -1.2576    2.7549    1.1932 S   0  0  0  0  0  0  0  0  0  0  0  0
   -2.8278    2.1277    0.6609 C   0  0  0  0  0  0  0  0  0  0  0  0
   -3.9938    2.8756    0.5443 C   0  0  0  0  0  0  0  0  0  0  0  0
   -5.1544    2.2399    0.1119 C   0  0  0  0  0  0  0  0  0  0  0  0
   -5.1303    0.8772   -0.1973 C   0  0  0  0  0  0  0  0  0  0  0  0
   -3.9468    0.1363   -0.0737 C   0  0  0  0  0  0  0  0  0  0  0  0
   -2.7763    0.7553    0.3646 C   0  0  0  0  0  0  0  0  0  0  0  0
   -1.9622   -1.5613   -1.5960 H   0  0  0  0  0  0  0  0  0  0  0  0
   -0.9585   -2.8556   -0.9293 H   0  0  0  0  0  0  0  0  0  0  0  0
   -0.2414   -1.2875   -1.3519 H   0  0  0  0  0  0  0  0  0  0  0  0
   -0.6780   -1.6621    1.2065 H   0  0  0  0  0  0  0  0  0  0  0  0
   -2.3402   -1.7601    0.8447 H   0  0  0  0  0  0  0  0  0  0  0  0
    3.9029   -1.6926    1.3113 H   0  0  0  0  0  0  0  0  0  0  0  0
    6.2654   -1.7642   -1.2838 H   0  0  0  0  0  0  0  0  0  0  0  0
    4.7728   -2.7430   -1.4047 H   0  0  0  0  0  0  0  0  0  0  0  0
    5.6359   -2.6005    0.1463 H   0  0  0  0  0  0  0  0  0  0  0  0
   -4.0014    3.9343    0.7834 H   0  0  0  0  0  0  0  0  0  0  0  0
   -6.0781    2.8042    0.0108 H   0  0  0  0  0  0  0  0  0  0  0  0
   -6.0384    0.3873   -0.5417 H   0  0  0  0  0  0  0  0  0  0  0  0
   -3.9741   -0.9145   -0.3398 H   0  0  0  0  0  0  0  0  0  0  0  0
  1  2  1  0
  2  3  1  0
  3  4  1  0
  4  5  2  3
  5  6  1  0
  6  7  1  0
  7  8  2  0
  7  9  1  0
  9 10  1  0
 10 11  1  0
 11 12  1  0
 11 13  2  0
  9 14  1  0
 14 15  2  0
  4 16  1  0
 16 17  1  0
 17 18  2  0
 18 19  1  0
 19 20  2  0
 20 21  1  0
 21 22  2  0
 22  3  1  0
 14  5  1  0
 22 17  1  0
  1 23  1  0
  1 24  1  0
  1 25  1  0
  2 26  1  0
  2 27  1  0
 10 28  1  0
 12 29  1  0
 12 30  1  0
 12 31  1  0
 18 32  1  0
 19 33  1  0
 20 34  1  0
 21 35  1  0
M  END
$$$$
