
     RDKit          3D

 51 54  0  0  0  0  0  0  0  0999 V2000
    3.3460    1.3604   -2.1972 C   0  0  0  0  0  0  0  0  0  0  0  0
    2.6181    1.2294   -0.8526 C   0  0  0  0  0  0  0  0  0  0  0  0
    1.3009    2.0346   -0.8827 C   0  0  0  0  0  0  0  0  0  0  0  0
    0.2947    0.9524   -1.1217 C   0  0  0  0  0  0  0  0  0  0  0  0
   -1.0470    1.1059   -1.4372 C   0  0  0  0  0  0  0  0  0  0  0  0
   -1.8328   -0.0479   -1.5301 C   0  0  0  0  0  0  0  0  0  0  0  0
   -3.5573    0.0990   -1.9628 S   0  0  0  0  0  6  0  0  0  0  0  0
   -3.7256    1.3773   -2.6228 O   0  0  0  0  0  0  0  0  0  0  0  0
   -3.9509   -1.1341   -2.6108 O   0  0  0  0  0  0  0  0  0  0  0  0
   -4.3264    0.1799   -0.4517 N   0  0  0  0  0  0  0  0  0  0  0  0
   -4.2042    1.4471    0.3041 C   0  0  0  0  0  0  0  0  0  0  0  0
   -4.9802    1.3545    1.6126 C   0  0  0  0  0  0  0  0  0  0  0  0
   -4.4314    0.2497    2.5142 C   0  0  0  0  0  0  0  0  0  0  0  0
   -3.7730   -0.8789    1.7224 C   0  0  0  0  0  0  0  0  0  0  0  0
   -4.4180   -1.0610    0.3546 C   0  0  0  0  0  0  0  0  0  0  0  0
   -1.2716   -1.3224   -1.3389 C   0  0  0  0  0  0  0  0  0  0  0  0
    0.0814   -1.4546   -1.0070 C   0  0  0  0  0  0  0  0  0  0  0  0
    0.8562   -0.3102   -0.9055 C   0  0  0  0  0  0  0  0  0  0  0  0
    2.2269   -0.1803   -0.5926 N   0  0  0  0  0  0  0  0  0  0  0  0
    3.0483   -1.2055   -0.1271 C   0  0  0  0  0  0  0  0  0  0  0  0
    2.6647   -2.3781   -0.0315 O   0  0  0  0  0  0  0  0  0  0  0  0
    4.4846   -0.7867    0.3226 C   0  0  0  0  0  0  0  0  0  0  0  0
    4.6216   -0.1670    1.7425 C   0  0  0  0  0  0  0  0  0  0  0  0
    5.0057   -1.5637    2.2600 C   0  0  0  0  0  0  0  0  0  0  0  0
    5.4399   -1.9079    0.8252 C   0  0  0  0  0  0  0  0  0  0  0  0
    4.2532    0.7523   -2.2330 H   0  0  0  0  0  0  0  0  0  0  0  0
    2.7110    1.0359   -3.0294 H   0  0  0  0  0  0  0  0  0  0  0  0
    3.6330    2.4018   -2.3771 H   0  0  0  0  0  0  0  0  0  0  0  0
    3.2723    1.5926   -0.0535 H   0  0  0  0  0  0  0  0  0  0  0  0
    1.2839    2.8058   -1.6583 H   0  0  0  0  0  0  0  0  0  0  0  0
    1.1098    2.4927    0.0942 H   0  0  0  0  0  0  0  0  0  0  0  0
   -1.4722    2.0920   -1.6004 H   0  0  0  0  0  0  0  0  0  0  0  0
   -3.1534    1.6714    0.5131 H   0  0  0  0  0  0  0  0  0  0  0  0
   -4.6212    2.2652   -0.2926 H   0  0  0  0  0  0  0  0  0  0  0  0
   -6.0359    1.1479    1.3936 H   0  0  0  0  0  0  0  0  0  0  0  0
   -4.9513    2.3130    2.1429 H   0  0  0  0  0  0  0  0  0  0  0  0
   -5.2494   -0.1481    3.1266 H   0  0  0  0  0  0  0  0  0  0  0  0
   -3.6973    0.6664    3.2142 H   0  0  0  0  0  0  0  0  0  0  0  0
   -3.8270   -1.8111    2.2958 H   0  0  0  0  0  0  0  0  0  0  0  0
   -2.7070   -0.6521    1.5936 H   0  0  0  0  0  0  0  0  0  0  0  0
   -3.9482   -1.9079   -0.1532 H   0  0  0  0  0  0  0  0  0  0  0  0
   -5.4789   -1.3153    0.4652 H   0  0  0  0  0  0  0  0  0  0  0  0
   -1.8797   -2.2178   -1.4509 H   0  0  0  0  0  0  0  0  0  0  0  0
    0.4989   -2.4453   -0.8600 H   0  0  0  0  0  0  0  0  0  0  0  0
    4.9869   -0.1881   -0.4444 H   0  0  0  0  0  0  0  0  0  0  0  0
    3.7121    0.2551    2.1788 H   0  0  0  0  0  0  0  0  0  0  0  0
    5.4263    0.5734    1.8205 H   0  0  0  0  0  0  0  0  0  0  0  0
    5.7952   -1.5905    3.0150 H   0  0  0  0  0  0  0  0  0  0  0  0
    4.1522   -2.1520    2.6159 H   0  0  0  0  0  0  0  0  0  0  0  0
    5.2179   -2.9274    0.4990 H   0  0  0  0  0  0  0  0  0  0  0  0
    6.4980   -1.7019    0.6237 H   0  0  0  0  0  0  0  0  0  0  0  0
  1  2  1  0
  2  3  1  0
  3  4  1  0
  4  5  2  0
  5  6  1  0
  6  7  1  0
  7  8  2  0
  7  9  2  0
  7 10  1  0
 10 11  1  0
 11 12  1  0
 12 13  1  0
 13 14  1  0
 14 15  1  0
  6 16  2  0
 16 17  1  0
 17 18  2  0
 18 19  1  0
 19 20  1  0
 20 21  2  0
 20 22  1  0
 22 23  1  0
 23 24  1  0
 24 25  1  0
 19  2  1  0
 25 22  1  0
 18  4  1  0
 15 10  1  0
  1 26  1  0
  1 27  1  0
  1 28  1  0
  2 29  1  0
  3 30  1  0
  3 31  1  0
  5 32  1  0
 11 33  1  0
 11 34  1  0
 12 35  1  0
 12 36  1  0
 13 37  1  0
 13 38  1  0
 14 39  1  0
 14 40  1  0
 15 41  1  0
 15 42  1  0
 16 43  1  0
 17 44  1  0
 22 45  1  0
 23 46  1  0
 23 47  1  0
 24 48  1  0
 24 49  1  0
 25 50  1  0
 25 51  1  0
M  END
$$$$
