
     RDKit          3D

 40 43  0  0  0  0  0  0  0  0999 V2000
    7.1359    1.0746    1.4668 O   0  0  0  0  0  0  0  0  0  0  0  0
    6.2983    0.3387    2.0087 N   0  0  0  0  0  4  0  0  0  0  0  0
    6.5042   -0.3170    3.0403 O   0  0  0  0  0  1  0  0  0  0  0  0
    4.9726    0.2381    1.3868 C   0  0  0  0  0  0  0  0  0  0  0  0
    3.9989   -0.5890    1.9557 C   0  0  0  0  0  0  0  0  0  0  0  0
    2.7382   -0.6777    1.3556 C   0  0  0  0  0  0  0  0  0  0  0  0
    2.4332    0.0521    0.1931 C   0  0  0  0  0  0  0  0  0  0  0  0
    1.1009   -0.0576   -0.4167 C   0  0  0  0  0  0  0  0  0  0  0  0
    0.2921   -1.1492   -0.1250 N   0  0  0  0  0  0  0  0  0  0  0  0
   -0.8693   -0.9260   -0.8371 N   0  0  0  0  0  0  0  0  0  0  0  0
   -1.9844   -1.8475   -0.8178 C   0  0  0  0  0  0  0  0  0  0  0  0
   -3.0112   -1.4657    0.2204 C   0  0  0  0  0  0  0  0  0  0  0  0
   -2.7342   -1.6209    1.5872 C   0  0  0  0  0  0  0  0  0  0  0  0
   -3.6838   -1.2717    2.5483 C   0  0  0  0  0  0  0  0  0  0  0  0
   -4.9200   -0.7636    2.1546 C   0  0  0  0  0  0  0  0  0  0  0  0
   -5.2065   -0.6011    0.8005 C   0  0  0  0  0  0  0  0  0  0  0  0
   -4.2573   -0.9490   -0.1623 C   0  0  0  0  0  0  0  0  0  0  0  0
   -0.7473    0.2246   -1.5318 C   0  0  0  0  0  0  0  0  0  0  0  0
   -1.4661    0.9664   -2.3863 C   0  0  0  0  0  0  0  0  0  0  0  0
   -2.6769    0.6722   -2.8362 O   0  0  0  0  0  0  0  0  0  0  0  0
   -0.7497    2.1019   -2.7445 N   0  0  0  0  0  0  0  0  0  0  0  0
    0.4869    2.0347   -2.0682 C   0  0  0  0  0  0  0  0  0  0  0  0
    1.4171    2.9737   -2.1905 O   0  0  0  0  0  0  0  0  0  0  0  0
    0.4567    0.8737   -1.3441 C   0  0  0  0  0  0  0  0  0  0  0  0
    3.4263    0.8711   -0.3635 C   0  0  0  0  0  0  0  0  0  0  0  0
    4.6922    0.9691    0.2267 C   0  0  0  0  0  0  0  0  0  0  0  0
    4.1973   -1.1676    2.8551 H   0  0  0  0  0  0  0  0  0  0  0  0
    1.9843   -1.3242    1.8037 H   0  0  0  0  0  0  0  0  0  0  0  0
   -2.4167   -1.8821   -1.8239 H   0  0  0  0  0  0  0  0  0  0  0  0
   -1.5911   -2.8488   -0.6060 H   0  0  0  0  0  0  0  0  0  0  0  0
   -1.7676   -2.0076    1.9076 H   0  0  0  0  0  0  0  0  0  0  0  0
   -3.4555   -1.3930    3.6039 H   0  0  0  0  0  0  0  0  0  0  0  0
   -5.6582   -0.4905    2.9038 H   0  0  0  0  0  0  0  0  0  0  0  0
   -6.1689   -0.2005    0.4938 H   0  0  0  0  0  0  0  0  0  0  0  0
   -4.4936   -0.8088   -1.2150 H   0  0  0  0  0  0  0  0  0  0  0  0
   -2.9959    1.3846   -3.4160 H   0  0  0  0  0  0  0  0  0  0  0  0
   -1.0462    2.8351   -3.3719 H   0  0  0  0  0  0  0  0  0  0  0  0
    1.0927    3.6964   -2.7529 H   0  0  0  0  0  0  0  0  0  0  0  0
    3.2339    1.4379   -1.2710 H   0  0  0  0  0  0  0  0  0  0  0  0
    5.4386    1.6142   -0.2319 H   0  0  0  0  0  0  0  0  0  0  0  0
  1  2  2  0
  2  3  1  0
  2  4  1  0
  4  5  2  0
  5  6  1  0
  6  7  2  0
  7  8  1  0
  8  9  2  0
  9 10  1  0
 10 11  1  0
 11 12  1  0
 12 13  2  0
 13 14  1  0
 14 15  2  0
 15 16  1  0
 16 17  2  0
 10 18  1  0
 18 19  2  0
 19 20  1  0
 19 21  1  0
 21 22  1  0
 22 23  1  0
 22 24  2  0
  7 25  1  0
 25 26  2  0
 26  4  1  0
 24  8  1  0
 17 12  1  0
 24 18  1  0
  5 27  1  0
  6 28  1  0
 11 29  1  0
 11 30  1  0
 13 31  1  0
 14 32  1  0
 15 33  1  0
 16 34  1  0
 17 35  1  0
 20 36  1  0
 21 37  1  0
 23 38  1  0
 25 39  1  0
 26 40  1  0
M  CHG  2   2   1   3  -1
M  END
$$$$
