
     RDKit          3D

 50 53  0  0  0  0  0  0  0  0999 V2000
    3.1643   -2.0814    4.0698 C   0  0  0  0  0  0  0  0  0  0  0  0
    3.3828   -1.6565    2.6720 C   0  0  0  0  0  0  0  0  0  0  0  0
    4.2689   -2.0397    1.6891 C   0  0  0  0  0  0  0  0  0  0  0  0
    3.9665   -1.2553    0.5485 C   0  0  0  0  0  0  0  0  0  0  0  0
    2.9106   -0.4428    0.9059 C   0  0  0  0  0  0  0  0  0  0  0  0
    2.1195    0.5873    0.1896 C   0  0  0  0  0  0  0  0  0  0  0  0
    1.3018   -0.0421   -0.8469 N   0  0  0  0  0  0  0  0  0  0  0  0
    1.7525    0.1016   -2.2300 C   0  0  0  0  0  0  0  0  0  0  0  0
    1.3919    1.4440   -2.8076 C   0  0  0  0  0  0  0  0  0  0  0  0
    0.0700    1.7739   -3.1209 C   0  0  0  0  0  0  0  0  0  0  0  0
   -0.2256    3.0286   -3.6439 C   0  0  0  0  0  0  0  0  0  0  0  0
    0.8158    3.9190   -3.8368 C   0  0  0  0  0  0  0  0  0  0  0  0
    2.1043    3.6402   -3.5467 N   0  0  0  0  0  0  0  0  0  0  0  0
    2.3621    2.4112   -3.0462 C   0  0  0  0  0  0  0  0  0  0  0  0
    0.1047   -0.7128   -0.6074 C   0  0  0  0  0  0  0  0  0  0  0  0
   -0.5585   -1.1771   -1.5402 O   0  0  0  0  0  0  0  0  0  0  0  0
   -0.3589   -0.8745    0.8535 C   0  0  0  0  0  0  0  0  0  0  0  0
   -1.7803   -1.2064    0.9208 N   0  0  0  0  0  0  0  0  0  0  0  0
   -2.1387   -2.5447    1.0132 C   0  0  0  0  0  0  0  0  0  0  0  0
   -1.3322   -3.4641    1.1602 O   0  0  0  0  0  0  0  0  0  0  0  0
   -3.6277   -2.8191    0.8417 C   0  0  0  0  0  0  0  0  0  0  0  0
   -4.5437   -1.8340    1.2800 O   0  0  0  0  0  0  0  0  0  0  0  0
   -4.1309   -0.5622    0.9861 C   0  0  0  0  0  0  0  0  0  0  0  0
   -5.1418    0.4006    0.9372 C   0  0  0  0  0  0  0  0  0  0  0  0
   -4.8281    1.7308    0.6702 C   0  0  0  0  0  0  0  0  0  0  0  0
   -3.5019    2.0979    0.4626 C   0  0  0  0  0  0  0  0  0  0  0  0
   -2.4868    1.1374    0.5307 C   0  0  0  0  0  0  0  0  0  0  0  0
   -2.7867   -0.2072    0.7985 C   0  0  0  0  0  0  0  0  0  0  0  0
    2.5592   -0.6789    2.2030 O   0  0  0  0  0  0  0  0  0  0  0  0
    3.8102   -2.9260    4.3277 H   0  0  0  0  0  0  0  0  0  0  0  0
    2.1244   -2.3849    4.2208 H   0  0  0  0  0  0  0  0  0  0  0  0
    3.3848   -1.2608    4.7581 H   0  0  0  0  0  0  0  0  0  0  0  0
    5.0346   -2.7969    1.7829 H   0  0  0  0  0  0  0  0  0  0  0  0
    4.4518   -1.2879   -0.4176 H   0  0  0  0  0  0  0  0  0  0  0  0
    2.7951    1.3209   -0.2634 H   0  0  0  0  0  0  0  0  0  0  0  0
    1.4742    1.1407    0.8770 H   0  0  0  0  0  0  0  0  0  0  0  0
    1.3209   -0.6819   -2.8638 H   0  0  0  0  0  0  0  0  0  0  0  0
    2.8372   -0.0584   -2.2563 H   0  0  0  0  0  0  0  0  0  0  0  0
   -0.7302    1.0531   -2.9658 H   0  0  0  0  0  0  0  0  0  0  0  0
   -1.2434    3.3011   -3.8985 H   0  0  0  0  0  0  0  0  0  0  0  0
    0.6362    4.9096   -4.2441 H   0  0  0  0  0  0  0  0  0  0  0  0
    3.4113    2.2263   -2.8336 H   0  0  0  0  0  0  0  0  0  0  0  0
    0.2306   -1.6859    1.2922 H   0  0  0  0  0  0  0  0  0  0  0  0
   -0.1864    0.0211    1.4523 H   0  0  0  0  0  0  0  0  0  0  0  0
   -3.8137   -3.0308   -0.2185 H   0  0  0  0  0  0  0  0  0  0  0  0
   -3.8557   -3.7322    1.4029 H   0  0  0  0  0  0  0  0  0  0  0  0
   -6.1752    0.1080    1.1043 H   0  0  0  0  0  0  0  0  0  0  0  0
   -5.6162    2.4777    0.6250 H   0  0  0  0  0  0  0  0  0  0  0  0
   -3.2527    3.1357    0.2514 H   0  0  0  0  0  0  0  0  0  0  0  0
   -1.4708    1.4777    0.3605 H   0  0  0  0  0  0  0  0  0  0  0  0
  1  2  1  0
  2  3  2  0
  3  4  1  0
  4  5  2  0
  5  6  1  0
  6  7  1  0
  7  8  1  0
  8  9  1  0
  9 10  2  0
 10 11  1  0
 11 12  2  0
 12 13  1  0
 13 14  2  0
  7 15  1  0
 15 16  2  0
 15 17  1  0
 17 18  1  0
 18 19  1  0
 19 20  2  0
 19 21  1  0
 21 22  1  0
 22 23  1  0
 23 24  2  0
 24 25  1  0
 25 26  2  0
 26 27  1  0
 27 28  2  0
  5 29  1  0
 29  2  1  0
 14  9  1  0
 28 18  1  0
 28 23  1  0
  1 30  1  0
  1 31  1  0
  1 32  1  0
  3 33  1  0
  4 34  1  0
  6 35  1  0
  6 36  1  0
  8 37  1  0
  8 38  1  0
 10 39  1  0
 11 40  1  0
 12 41  1  0
 14 42  1  0
 17 43  1  0
 17 44  1  0
 21 45  1  0
 21 46  1  0
 24 47  1  0
 25 48  1  0
 26 49  1  0
 27 50  1  0
M  END
$$$$
