
     RDKit          3D

 54 57  0  0  0  0  0  0  0  0999 V2000
   -3.0824    5.5629    0.8569 C   0  0  0  0  0  0  0  0  0  0  0  0
   -2.5788    5.2231   -0.4290 O   0  0  0  0  0  0  0  0  0  0  0  0
   -1.9473    4.0155   -0.5434 C   0  0  0  0  0  0  0  0  0  0  0  0
   -1.5135    3.7033   -1.8330 C   0  0  0  0  0  0  0  0  0  0  0  0
   -0.8545    2.4989   -2.0937 C   0  0  0  0  0  0  0  0  0  0  0  0
   -0.6191    1.5772   -1.0628 C   0  0  0  0  0  0  0  0  0  0  0  0
    0.1234    0.2847   -1.3694 C   0  0  0  0  0  0  0  0  0  0  0  0
    1.6182    0.4325   -1.0795 C   0  0  0  0  0  0  0  0  0  0  0  0
    1.7540   -0.4725    0.1137 C   0  0  0  0  0  0  0  0  0  0  0  0
    3.0124   -0.5578    0.8903 C   0  0  0  0  0  0  0  0  0  0  0  0
    3.0532   -1.3691    2.0289 C   0  0  0  0  0  0  0  0  0  0  0  0
    4.2261   -1.4658    2.7775 C   0  0  0  0  0  0  0  0  0  0  0  0
    5.3652   -0.7544    2.3934 C   0  0  0  0  0  0  0  0  0  0  0  0
    5.3345    0.0559    1.2577 C   0  0  0  0  0  0  0  0  0  0  0  0
    6.3755    0.8000    0.7731 O   0  0  0  0  0  0  0  0  0  0  0  0
    7.5973    0.7478    1.4998 C   0  0  0  0  0  0  0  0  0  0  0  0
    4.1563    0.1509    0.5088 C   0  0  0  0  0  0  0  0  0  0  0  0
    0.7035   -1.1858    0.3861 N   0  0  0  0  0  0  0  0  0  0  0  0
   -0.2675   -0.8340   -0.5080 N   0  0  0  0  0  0  0  0  0  0  0  0
   -1.4567   -1.5565   -0.5920 C   0  0  0  0  0  0  0  0  0  0  0  0
   -1.7011   -2.6392    0.2743 C   0  0  0  0  0  0  0  0  0  0  0  0
   -2.8844   -3.3839    0.2185 C   0  0  0  0  0  0  0  0  0  0  0  0
   -3.8535   -3.0557   -0.7256 C   0  0  0  0  0  0  0  0  0  0  0  0
   -5.3648   -3.9678   -0.7845 S   0  0  0  0  0  6  0  0  0  0  0  0
   -4.9740   -5.2222   -1.8304 N   0  0  0  0  0  0  0  0  0  0  0  0
   -6.3704   -3.1868   -1.4672 O   0  0  0  0  0  0  0  0  0  0  0  0
   -5.6044   -4.5836    0.4998 O   0  0  0  0  0  0  0  0  0  0  0  0
   -3.6551   -1.9818   -1.5910 C   0  0  0  0  0  0  0  0  0  0  0  0
   -2.4641   -1.2471   -1.5218 C   0  0  0  0  0  0  0  0  0  0  0  0
   -1.0480    1.9052    0.2327 C   0  0  0  0  0  0  0  0  0  0  0  0
   -1.7102    3.1113    0.4901 C   0  0  0  0  0  0  0  0  0  0  0  0
   -3.5740    6.5372    0.7763 H   0  0  0  0  0  0  0  0  0  0  0  0
   -2.2705    5.6593    1.5852 H   0  0  0  0  0  0  0  0  0  0  0  0
   -3.8321    4.8386    1.1925 H   0  0  0  0  0  0  0  0  0  0  0  0
   -1.6927    4.4061   -2.6432 H   0  0  0  0  0  0  0  0  0  0  0  0
   -0.5293    2.2895   -3.1103 H   0  0  0  0  0  0  0  0  0  0  0  0
   -0.0159    0.0180   -2.4250 H   0  0  0  0  0  0  0  0  0  0  0  0
    2.2189    0.0251   -1.8998 H   0  0  0  0  0  0  0  0  0  0  0  0
    1.9333    1.4557   -0.8576 H   0  0  0  0  0  0  0  0  0  0  0  0
    2.1732   -1.9289    2.3399 H   0  0  0  0  0  0  0  0  0  0  0  0
    4.2516   -2.0977    3.6622 H   0  0  0  0  0  0  0  0  0  0  0  0
    6.2582   -0.8561    3.0013 H   0  0  0  0  0  0  0  0  0  0  0  0
    8.0077   -0.2674    1.5089 H   0  0  0  0  0  0  0  0  0  0  0  0
    7.4683    1.1324    2.5169 H   0  0  0  0  0  0  0  0  0  0  0  0
    8.3178    1.3935    0.9886 H   0  0  0  0  0  0  0  0  0  0  0  0
    4.1598    0.7850   -0.3728 H   0  0  0  0  0  0  0  0  0  0  0  0
   -0.9526   -2.9095    1.0169 H   0  0  0  0  0  0  0  0  0  0  0  0
   -3.0333   -4.2068    0.9129 H   0  0  0  0  0  0  0  0  0  0  0  0
   -5.5577   -5.1698   -2.6651 H   0  0  0  0  0  0  0  0  0  0  0  0
   -5.0332   -6.1132   -1.3374 H   0  0  0  0  0  0  0  0  0  0  0  0
   -4.4150   -1.7031   -2.3173 H   0  0  0  0  0  0  0  0  0  0  0  0
   -2.3491   -0.4146   -2.2097 H   0  0  0  0  0  0  0  0  0  0  0  0
   -0.8773    1.2136    1.0572 H   0  0  0  0  0  0  0  0  0  0  0  0
   -2.0260    3.3080    1.5091 H   0  0  0  0  0  0  0  0  0  0  0  0
  1  2  1  0
  2  3  1  0
  3  4  2  0
  4  5  1  0
  5  6  2  0
  6  7  1  0
  7  8  1  0
  8  9  1  0
  9 10  1  0
 10 11  2  0
 11 12  1  0
 12 13  2  0
 13 14  1  0
 14 15  1  0
 15 16  1  0
 14 17  2  0
  9 18  2  0
 18 19  1  0
 19 20  1  0
 20 21  2  0
 21 22  1  0
 22 23  2  0
 23 24  1  0
 24 25  1  0
 24 26  2  0
 24 27  2  0
 23 28  1  0
 28 29  2  0
  6 30  1  0
 30 31  2  0
 31  3  1  0
 19  7  1  0
 29 20  1  0
 17 10  1  0
  1 32  1  0
  1 33  1  0
  1 34  1  0
  4 35  1  0
  5 36  1  0
  7 37  1  0
  8 38  1  0
  8 39  1  0
 11 40  1  0
 12 41  1  0
 13 42  1  0
 16 43  1  0
 16 44  1  0
 16 45  1  0
 17 46  1  0
 21 47  1  0
 22 48  1  0
 25 49  1  0
 25 50  1  0
 28 51  1  0
 29 52  1  0
 30 53  1  0
 31 54  1  0
M  END
$$$$
