
     RDKit          3D

 39 41  0  0  0  0  0  0  0  0999 V2000
   -4.6579    1.9585   -2.0882 C   0  0  0  0  0  0  0  0  0  0  0  0
   -4.0412    0.9818   -1.1323 C   0  0  0  0  0  0  0  0  0  0  0  0
   -2.6772    0.7622   -1.1406 C   0  0  0  0  0  0  0  0  0  0  0  0
   -2.1595   -0.1646   -0.2346 C   0  0  0  0  0  0  0  0  0  0  0  0
   -0.6967   -0.3873   -0.2457 C   0  0  0  0  0  0  0  0  0  0  0  0
   -0.2679   -1.4874   -0.5701 O   0  0  0  0  0  0  0  0  0  0  0  0
    0.0351    0.7365    0.1149 N   0  0  0  0  0  0  0  0  0  0  0  0
    1.3947    0.8830    0.0443 N   0  0  0  0  0  0  0  0  0  0  0  0
    2.1468   -0.1656    0.1450 C   0  0  0  0  0  0  0  0  0  0  0  0
    3.6172   -0.0674    0.0216 C   0  0  0  0  0  0  0  0  0  0  0  0
    4.3779   -1.2373    0.1307 C   0  0  0  0  0  0  0  0  0  0  0  0
    5.7687   -1.1800    0.0177 C   0  0  0  0  0  0  0  0  0  0  0  0
    6.4020    0.0442   -0.2048 C   0  0  0  0  0  0  0  0  0  0  0  0
    5.6334    1.2127   -0.3146 C   0  0  0  0  0  0  0  0  0  0  0  0
    6.3002    2.4996   -0.5495 N   0  0  0  0  0  4  0  0  0  0  0  0
    7.5358    2.4980   -0.6465 O   0  0  0  0  0  0  0  0  0  0  0  0
    5.5905    3.5113   -0.6358 O   0  0  0  0  0  1  0  0  0  0  0  0
    4.2386    1.1650   -0.2026 C   0  0  0  0  0  0  0  0  0  0  0  0
   -2.9987   -0.8714    0.6522 C   0  0  0  0  0  0  0  0  0  0  0  0
   -2.5554   -1.8344    1.5937 C   0  0  0  0  0  0  0  0  0  0  0  0
   -3.4556   -2.4771    2.4411 C   0  0  0  0  0  0  0  0  0  0  0  0
   -4.8058   -2.1679    2.3628 C   0  0  0  0  0  0  0  0  0  0  0  0
   -5.2459   -1.2194    1.4364 C   0  0  0  0  0  0  0  0  0  0  0  0
   -4.3703   -0.5653    0.5796 C   0  0  0  0  0  0  0  0  0  0  0  0
   -4.8720    0.3383   -0.2818 N   0  0  0  0  0  0  0  0  0  0  0  0
   -4.4668    1.6491   -3.1204 H   0  0  0  0  0  0  0  0  0  0  0  0
   -4.2414    2.9579   -1.9287 H   0  0  0  0  0  0  0  0  0  0  0  0
   -5.7417    2.0140   -1.9439 H   0  0  0  0  0  0  0  0  0  0  0  0
   -2.0346    1.2817   -1.8444 H   0  0  0  0  0  0  0  0  0  0  0  0
   -0.4562    1.6165    0.2452 H   0  0  0  0  0  0  0  0  0  0  0  0
    1.7563   -1.1743    0.3550 H   0  0  0  0  0  0  0  0  0  0  0  0
    3.8965   -2.1987    0.2995 H   0  0  0  0  0  0  0  0  0  0  0  0
    6.3588   -2.0905    0.1011 H   0  0  0  0  0  0  0  0  0  0  0  0
    7.4869    0.0710   -0.2913 H   0  0  0  0  0  0  0  0  0  0  0  0
    3.6368    2.0675   -0.2881 H   0  0  0  0  0  0  0  0  0  0  0  0
   -1.5014   -2.0976    1.6646 H   0  0  0  0  0  0  0  0  0  0  0  0
   -3.1022   -3.2175    3.1542 H   0  0  0  0  0  0  0  0  0  0  0  0
   -5.5211   -2.6617    3.0154 H   0  0  0  0  0  0  0  0  0  0  0  0
   -6.3065   -0.9836    1.3799 H   0  0  0  0  0  0  0  0  0  0  0  0
  1  2  1  0
  2  3  2  0
  3  4  1  0
  4  5  1  0
  5  6  2  0
  5  7  1  0
  7  8  1  0
  8  9  2  3
  9 10  1  0
 10 11  2  0
 11 12  1  0
 12 13  2  0
 13 14  1  0
 14 15  1  0
 15 16  2  0
 15 17  1  0
 14 18  2  0
  4 19  2  0
 19 20  1  0
 20 21  2  0
 21 22  1  0
 22 23  2  0
 23 24  1  0
 24 25  2  0
 25  2  1  0
 18 10  1  0
 24 19  1  0
  1 26  1  0
  1 27  1  0
  1 28  1  0
  3 29  1  0
  7 30  1  0
  9 31  1  0
 11 32  1  0
 12 33  1  0
 13 34  1  0
 18 35  1  0
 20 36  1  0
 21 37  1  0
 22 38  1  0
 23 39  1  0
M  CHG  2  15   1  17  -1
M  END
$$$$
