
     RDKit          3D

 42 44  0  0  0  0  0  0  0  0999 V2000
   -4.6372    2.1536   -1.5299 C   0  0  0  0  0  0  0  0  0  0  0  0
   -4.6358    0.7144   -0.9836 C   0  0  0  0  0  0  0  0  0  0  0  0
   -5.1830   -0.2193   -2.0746 C   0  0  0  0  0  0  0  0  0  0  0  0
   -5.5424    0.6653    0.2561 C   0  0  0  0  0  0  0  0  0  0  0  0
   -3.2568    0.3616   -0.6374 N   0  0  0  0  0  0  0  0  0  0  0  0
   -2.8362   -0.8480   -0.1130 C   0  0  0  0  0  0  0  0  0  0  0  0
   -3.5861   -1.7874    0.1320 O   0  0  0  0  0  0  0  0  0  0  0  0
   -1.3749   -0.8816    0.1194 C   0  0  0  0  0  0  0  0  0  0  0  0
   -0.5709    0.2020   -0.1711 N   0  0  0  0  0  0  0  0  0  0  0  0
    0.6337   -0.2008    0.1602 C   0  0  0  0  0  0  0  0  0  0  0  0
    1.8119    0.4784    0.0751 N   0  0  0  0  0  0  0  0  0  0  0  0
    2.8870   -0.1475    0.4599 C   0  0  0  0  0  0  0  0  0  0  0  0
    4.2014    0.5534    0.3785 C   0  0  0  0  0  0  0  0  0  0  0  0
    4.2328    1.9400    0.5781 C   0  0  0  0  0  0  0  0  0  0  0  0
    5.4423    2.6335    0.5095 C   0  0  0  0  0  0  0  0  0  0  0  0
    6.6236    1.9481    0.2314 C   0  0  0  0  0  0  0  0  0  0  0  0
    6.5972    0.5711    0.0136 C   0  0  0  0  0  0  0  0  0  0  0  0
    5.3891   -0.1277    0.0820 C   0  0  0  0  0  0  0  0  0  0  0  0
    2.8986   -1.5403    1.0144 C   0  0  0  0  0  0  0  0  0  0  0  0
    1.7091   -2.1696    1.0795 C   0  0  0  0  0  0  0  0  0  0  0  0
    1.5257   -3.5421    1.6027 C   0  0  0  0  0  0  0  0  0  0  0  0
    1.0249   -4.3927    0.6750 F   0  0  0  0  0  0  0  0  0  0  0  0
    2.7151   -4.0796    1.9966 F   0  0  0  0  0  0  0  0  0  0  0  0
    0.7209   -3.5848    2.6913 F   0  0  0  0  0  0  0  0  0  0  0  0
    0.5670   -1.5107    0.6491 N   0  0  0  0  0  0  0  0  0  0  0  0
   -0.7131   -1.9363    0.6193 N   0  0  0  0  0  0  0  0  0  0  0  0
   -5.6467    2.4764   -1.8078 H   0  0  0  0  0  0  0  0  0  0  0  0
   -4.0000    2.2394   -2.4180 H   0  0  0  0  0  0  0  0  0  0  0  0
   -4.2515    2.8591   -0.7845 H   0  0  0  0  0  0  0  0  0  0  0  0
   -5.2616   -1.2541   -1.7259 H   0  0  0  0  0  0  0  0  0  0  0  0
   -6.1827    0.0928   -2.3975 H   0  0  0  0  0  0  0  0  0  0  0  0
   -4.5298   -0.2204   -2.9548 H   0  0  0  0  0  0  0  0  0  0  0  0
   -5.1479    1.3013    1.0570 H   0  0  0  0  0  0  0  0  0  0  0  0
   -6.5551    1.0110    0.0196 H   0  0  0  0  0  0  0  0  0  0  0  0
   -5.6305   -0.3488    0.6590 H   0  0  0  0  0  0  0  0  0  0  0  0
   -2.5159    1.0425   -0.7894 H   0  0  0  0  0  0  0  0  0  0  0  0
    3.3167    2.4883    0.7897 H   0  0  0  0  0  0  0  0  0  0  0  0
    5.4608    3.7091    0.6682 H   0  0  0  0  0  0  0  0  0  0  0  0
    7.5647    2.4902    0.1739 H   0  0  0  0  0  0  0  0  0  0  0  0
    7.5191    0.0433   -0.2200 H   0  0  0  0  0  0  0  0  0  0  0  0
    5.3974   -1.1935   -0.1261 H   0  0  0  0  0  0  0  0  0  0  0  0
    3.8191   -1.9896    1.3663 H   0  0  0  0  0  0  0  0  0  0  0  0
  1  2  1  0
  2  3  1  0
  2  4  1  0
  2  5  1  0
  5  6  1  0
  6  7  2  0
  6  8  1  0
  8  9  1  0
  9 10  2  0
 10 11  1  0
 11 12  2  0
 12 13  1  0
 13 14  2  0
 14 15  1  0
 15 16  2  0
 16 17  1  0
 17 18  2  0
 12 19  1  0
 19 20  2  0
 20 21  1  0
 21 22  1  0
 21 23  1  0
 21 24  1  0
 20 25  1  0
 25 26  1  0
 26  8  2  0
 25 10  1  0
 18 13  1  0
  1 27  1  0
  1 28  1  0
  1 29  1  0
  3 30  1  0
  3 31  1  0
  3 32  1  0
  4 33  1  0
  4 34  1  0
  4 35  1  0
  5 36  1  0
 14 37  1  0
 15 38  1  0
 16 39  1  0
 17 40  1  0
 18 41  1  0
 19 42  1  0
M  END
$$$$
