
     RDKit          3D

 44 46  0  0  0  0  0  0  0  0999 V2000
   -4.3801    1.3484    1.6856 C   0  0  0  0  0  0  0  0  0  0  0  0
   -5.2797    0.5143    0.8171 C   0  0  0  0  0  0  0  0  0  0  0  0
   -6.5575    0.1682    1.2790 C   0  0  0  0  0  0  0  0  0  0  0  0
   -7.4199   -0.5789    0.4778 C   0  0  0  0  0  0  0  0  0  0  0  0
   -7.0226   -0.9756   -0.7985 C   0  0  0  0  0  0  0  0  0  0  0  0
   -5.7523   -0.6297   -1.2734 C   0  0  0  0  0  0  0  0  0  0  0  0
   -4.8695    0.0962   -0.4601 C   0  0  0  0  0  0  0  0  0  0  0  0
   -3.6253    0.4887   -0.8585 O   0  0  0  0  0  0  0  0  0  0  0  0
   -2.9776   -0.3281   -1.8366 C   0  0  0  0  0  0  0  0  0  0  0  0
   -1.4608   -0.1633   -1.7055 C   0  0  0  0  0  0  0  0  0  0  0  0
   -0.7306   -0.2073   -2.6885 O   0  0  0  0  0  0  0  0  0  0  0  0
   -1.0774   -0.0411   -0.3888 N   0  0  0  0  0  0  0  0  0  0  0  0
    0.1908    0.0140    0.1102 C   0  0  0  0  0  0  0  0  0  0  0  0
    0.4225    0.1211    1.3973 N   0  0  0  0  0  0  0  0  0  0  0  0
    1.7700    0.1110    1.6903 N   0  0  0  0  0  0  0  0  0  0  0  0
    2.5113    0.0068    0.6034 C   0  0  0  0  0  0  0  0  0  0  0  0
    4.0158   -0.0453    0.6238 C   0  0  0  0  0  0  0  0  0  0  0  0
    4.6430    1.3055    0.2158 C   0  0  0  0  0  0  0  0  0  0  0  0
    6.0504    1.1659   -0.3740 C   0  0  0  0  0  0  0  0  0  0  0  0
    6.8114   -0.0006    0.2533 C   0  0  0  0  0  0  0  0  0  0  0  0
    6.1095   -1.3389    0.0048 C   0  0  0  0  0  0  0  0  0  0  0  0
    4.5933   -1.2119   -0.1871 C   0  0  0  0  0  0  0  0  0  0  0  0
    1.5913   -0.0618   -0.8513 S   0  0  0  0  0  0  0  0  0  0  0  0
   -3.3881    0.8927    1.7658 H   0  0  0  0  0  0  0  0  0  0  0  0
   -4.7753    1.4440    2.7025 H   0  0  0  0  0  0  0  0  0  0  0  0
   -4.2792    2.3564    1.2629 H   0  0  0  0  0  0  0  0  0  0  0  0
   -6.8957    0.4888    2.2636 H   0  0  0  0  0  0  0  0  0  0  0  0
   -8.4105   -0.8401    0.8457 H   0  0  0  0  0  0  0  0  0  0  0  0
   -7.7024   -1.5423   -1.4286 H   0  0  0  0  0  0  0  0  0  0  0  0
   -5.4871   -0.9213   -2.2869 H   0  0  0  0  0  0  0  0  0  0  0  0
   -3.2791   -0.0030   -2.8369 H   0  0  0  0  0  0  0  0  0  0  0  0
   -3.1893   -1.3930   -1.6868 H   0  0  0  0  0  0  0  0  0  0  0  0
   -1.8065    0.0417    0.3100 H   0  0  0  0  0  0  0  0  0  0  0  0
    4.2997   -0.2278    1.6723 H   0  0  0  0  0  0  0  0  0  0  0  0
    4.6869    1.9469    1.1068 H   0  0  0  0  0  0  0  0  0  0  0  0
    4.0200    1.8500   -0.5090 H   0  0  0  0  0  0  0  0  0  0  0  0
    5.9681    0.9965   -1.4574 H   0  0  0  0  0  0  0  0  0  0  0  0
    6.6029    2.1029   -0.2470 H   0  0  0  0  0  0  0  0  0  0  0  0
    6.8973    0.1606    1.3377 H   0  0  0  0  0  0  0  0  0  0  0  0
    7.8336   -0.0425   -0.1363 H   0  0  0  0  0  0  0  0  0  0  0  0
    6.5306   -1.8304   -0.8818 H   0  0  0  0  0  0  0  0  0  0  0  0
    6.3200   -2.0085    0.8479 H   0  0  0  0  0  0  0  0  0  0  0  0
    4.3841   -1.0674   -1.2573 H   0  0  0  0  0  0  0  0  0  0  0  0
    4.1143   -2.1616    0.0936 H   0  0  0  0  0  0  0  0  0  0  0  0
  1  2  1  0
  2  3  2  0
  3  4  1  0
  4  5  2  0
  5  6  1  0
  6  7  2  0
  7  8  1  0
  8  9  1  0
  9 10  1  0
 10 11  2  0
 10 12  1  0
 12 13  1  0
 13 14  2  0
 14 15  1  0
 15 16  2  0
 16 17  1  0
 17 18  1  0
 18 19  1  0
 19 20  1  0
 20 21  1  0
 21 22  1  0
 16 23  1  0
  7  2  1  0
 23 13  1  0
 22 17  1  0
  1 24  1  0
  1 25  1  0
  1 26  1  0
  3 27  1  0
  4 28  1  0
  5 29  1  0
  6 30  1  0
  9 31  1  0
  9 32  1  0
 12 33  1  0
 17 34  1  0
 18 35  1  0
 18 36  1  0
 19 37  1  0
 19 38  1  0
 20 39  1  0
 20 40  1  0
 21 41  1  0
 21 42  1  0
 22 43  1  0
 22 44  1  0
M  END
$$$$
