
     RDKit          3D

 63 64  0  0  0  0  0  0  0  0999 V2000
   -0.9642   -1.9659   -3.3619 C   0  0  0  0  0  0  0  0  0  0  0  0
   -2.4430   -2.2159   -3.0648 C   0  0  0  0  0  0  0  0  0  0  0  0
   -2.7304   -3.7192   -3.1395 C   0  0  0  0  0  0  0  0  0  0  0  0
   -2.8951   -1.6725   -1.6922 C   0  0  0  0  0  0  0  0  0  0  0  0
   -2.7951   -0.1443   -1.5428 C   0  0  0  0  0  0  0  0  0  0  0  0
   -1.4194    0.2541   -1.2454 N   0  0  0  0  0  0  0  0  0  0  0  0
   -0.9650    1.5108   -1.5486 C   0  0  0  0  0  0  0  0  0  0  0  0
   -1.6174    2.2829   -2.2478 O   0  0  0  0  0  0  0  0  0  0  0  0
    0.3149    1.9031   -1.0097 C   0  0  0  0  0  0  0  0  0  0  0  0
    0.7989    3.1755   -1.2394 N   0  0  0  0  0  0  0  0  0  0  0  0
    2.0074    3.3016   -0.6336 C   0  0  0  0  0  0  0  0  0  0  0  0
    2.3486    2.1920   -0.0280 N   0  0  0  0  0  0  0  0  0  0  0  0
    1.3136    1.2892   -0.2554 C   0  0  0  0  0  0  0  0  0  0  0  0
    1.3062   -0.0716    0.3097 C   0  0  0  0  0  0  0  0  0  0  0  0
    0.2327   -0.6125    0.5900 O   0  0  0  0  0  0  0  0  0  0  0  0
    2.5224   -0.7281    0.5336 N   0  0  0  0  0  0  0  0  0  0  0  0
    2.4716   -2.0275    1.1856 C   0  0  0  0  0  0  0  0  0  0  0  0
    3.7584   -0.4136   -0.1891 C   0  0  0  0  0  0  0  0  0  0  0  0
    4.9500   -0.2294    0.7218 C   0  0  0  0  0  0  0  0  0  0  0  0
    4.9597    0.7889    1.6860 C   0  0  0  0  0  0  0  0  0  0  0  0
    6.0611    0.9630    2.5253 C   0  0  0  0  0  0  0  0  0  0  0  0
    7.1667    0.1232    2.4089 C   0  0  0  0  0  0  0  0  0  0  0  0
    7.1732   -0.8891    1.4511 C   0  0  0  0  0  0  0  0  0  0  0  0
    6.0722   -1.0643    0.6102 C   0  0  0  0  0  0  0  0  0  0  0  0
   -3.7733    0.3155   -0.4391 C   0  0  0  0  0  0  0  0  0  0  0  0
   -4.9872    0.1653   -0.5095 O   0  0  0  0  0  0  0  0  0  0  0  0
   -3.1114    0.8590    0.6189 O   0  0  0  0  0  0  0  0  0  0  0  0
   -3.8196    1.3448    1.7857 C   0  0  0  0  0  0  0  0  0  0  0  0
   -2.7163    1.8773    2.7127 C   0  0  0  0  0  0  0  0  0  0  0  0
   -4.5564    0.2078    2.5007 C   0  0  0  0  0  0  0  0  0  0  0  0
   -4.7582    2.5005    1.4248 C   0  0  0  0  0  0  0  0  0  0  0  0
   -0.3271   -2.3239   -2.5461 H   0  0  0  0  0  0  0  0  0  0  0  0
   -0.6586   -2.4817   -4.2790 H   0  0  0  0  0  0  0  0  0  0  0  0
   -0.7643   -0.9021   -3.5177 H   0  0  0  0  0  0  0  0  0  0  0  0
   -3.0364   -1.7250   -3.8468 H   0  0  0  0  0  0  0  0  0  0  0  0
   -3.7944   -3.9216   -2.9779 H   0  0  0  0  0  0  0  0  0  0  0  0
   -2.1607   -4.2706   -2.3837 H   0  0  0  0  0  0  0  0  0  0  0  0
   -2.4636   -4.1190   -4.1236 H   0  0  0  0  0  0  0  0  0  0  0  0
   -3.9395   -1.9789   -1.5455 H   0  0  0  0  0  0  0  0  0  0  0  0
   -2.3242   -2.1638   -0.8924 H   0  0  0  0  0  0  0  0  0  0  0  0
   -3.1154    0.3561   -2.4644 H   0  0  0  0  0  0  0  0  0  0  0  0
   -0.9961   -0.1996   -0.4366 H   0  0  0  0  0  0  0  0  0  0  0  0
    0.3080    3.8838   -1.7707 H   0  0  0  0  0  0  0  0  0  0  0  0
    2.5864    4.2151   -0.6644 H   0  0  0  0  0  0  0  0  0  0  0  0
    1.5966   -2.1120    1.8371 H   0  0  0  0  0  0  0  0  0  0  0  0
    3.3651   -2.1789    1.7968 H   0  0  0  0  0  0  0  0  0  0  0  0
    2.4151   -2.8036    0.4163 H   0  0  0  0  0  0  0  0  0  0  0  0
    3.9350   -1.2553   -0.8723 H   0  0  0  0  0  0  0  0  0  0  0  0
    3.6643    0.4549   -0.8430 H   0  0  0  0  0  0  0  0  0  0  0  0
    4.1026    1.4527    1.7863 H   0  0  0  0  0  0  0  0  0  0  0  0
    6.0537    1.7551    3.2693 H   0  0  0  0  0  0  0  0  0  0  0  0
    8.0236    0.2596    3.0632 H   0  0  0  0  0  0  0  0  0  0  0  0
    8.0368   -1.5427    1.3591 H   0  0  0  0  0  0  0  0  0  0  0  0
    6.0970   -1.8592   -0.1316 H   0  0  0  0  0  0  0  0  0  0  0  0
   -1.9985    1.0857    2.9583 H   0  0  0  0  0  0  0  0  0  0  0  0
   -3.1262    2.2755    3.6470 H   0  0  0  0  0  0  0  0  0  0  0  0
   -2.1428    2.6710    2.2194 H   0  0  0  0  0  0  0  0  0  0  0  0
   -5.3979   -0.1681    1.9113 H   0  0  0  0  0  0  0  0  0  0  0  0
   -3.8870   -0.6431    2.6703 H   0  0  0  0  0  0  0  0  0  0  0  0
   -4.9541    0.5366    3.4670 H   0  0  0  0  0  0  0  0  0  0  0  0
   -5.6036    2.1657    0.8161 H   0  0  0  0  0  0  0  0  0  0  0  0
   -4.2305    3.2609    0.8378 H   0  0  0  0  0  0  0  0  0  0  0  0
   -5.1688    2.9756    2.3223 H   0  0  0  0  0  0  0  0  0  0  0  0
  1  2  1  0
  2  3  1  0
  2  4  1  0
  4  5  1  0
  5  6  1  0
  6  7  1  0
  7  8  2  0
  7  9  1  0
  9 10  1  0
 10 11  1  0
 11 12  2  0
 12 13  1  0
 13 14  1  0
 14 15  2  0
 14 16  1  0
 16 17  1  0
 16 18  1  0
 18 19  1  0
 19 20  2  0
 20 21  1  0
 21 22  2  0
 22 23  1  0
 23 24  2  0
  5 25  1  0
 25 26  2  0
 25 27  1  0
 27 28  1  0
 28 29  1  0
 28 30  1  0
 28 31  1  0
 13  9  2  0
 24 19  1  0
  1 32  1  0
  1 33  1  0
  1 34  1  0
  2 35  1  0
  3 36  1  0
  3 37  1  0
  3 38  1  0
  4 39  1  0
  4 40  1  0
  5 41  1  0
  6 42  1  0
 10 43  1  0
 11 44  1  0
 17 45  1  0
 17 46  1  0
 17 47  1  0
 18 48  1  0
 18 49  1  0
 20 50  1  0
 21 51  1  0
 22 52  1  0
 23 53  1  0
 24 54  1  0
 29 55  1  0
 29 56  1  0
 29 57  1  0
 30 58  1  0
 30 59  1  0
 30 60  1  0
 31 61  1  0
 31 62  1  0
 31 63  1  0
M  END
$$$$
