
     RDKit          3D

 48 50  0  0  0  0  0  0  0  0999 V2000
    6.7665   -2.3459    1.0120 C   0  0  0  0  0  0  0  0  0  0  0  0
    7.0432   -0.8513    1.0594 C   0  0  0  0  0  0  0  0  0  0  0  0
    6.5906   -0.1066   -0.2005 C   0  0  0  0  0  0  0  0  0  0  0  0
    5.0847   -0.1577   -0.4611 C   0  0  0  0  0  0  0  0  0  0  0  0
    4.4009    0.3881    0.6656 O   0  0  0  0  0  0  0  0  0  0  0  0
    3.0365    0.4270    0.6073 C   0  0  0  0  0  0  0  0  0  0  0  0
    2.2438   -0.0157   -0.4477 C   0  0  0  0  0  0  0  0  0  0  0  0
    0.8464    0.0847   -0.3735 C   0  0  0  0  0  0  0  0  0  0  0  0
    0.2122    0.6440    0.7403 C   0  0  0  0  0  0  0  0  0  0  0  0
   -1.1877    0.7220    0.8837 N   0  0  0  0  0  0  0  0  0  0  0  0
   -2.1416    0.6997   -0.0998 C   0  0  0  0  0  0  0  0  0  0  0  0
   -1.9440    0.6899   -1.3735 N   0  0  0  0  0  0  0  0  0  0  0  0
   -3.0262    0.7517   -2.1904 C   0  0  0  0  0  0  0  0  0  0  0  0
   -2.7745    0.9963   -3.4997 N   0  0  0  0  0  0  0  0  0  0  0  0
   -4.2464    0.5645   -1.8272 N   0  0  0  0  0  0  0  0  0  0  0  0
   -4.4539    0.2818   -0.4200 C   0  0  0  0  0  0  0  0  0  0  0  0
   -4.7290   -1.2341   -0.2618 C   0  0  0  0  0  0  0  0  0  0  0  0
   -6.0718   -1.3402    0.4521 C   0  0  0  0  0  0  0  0  0  0  0  0
   -6.8236   -0.1104   -0.0198 C   0  0  0  0  0  0  0  0  0  0  0  0
   -5.7583    0.9763    0.0244 C   0  0  0  0  0  0  0  0  0  0  0  0
   -3.3845    0.6962    0.4503 N   0  0  0  0  0  0  0  0  0  0  0  0
    1.0240    1.0608    1.8057 C   0  0  0  0  0  0  0  0  0  0  0  0
    2.4179    0.9620    1.7357 C   0  0  0  0  0  0  0  0  0  0  0  0
    7.2022   -2.8362    1.8885 H   0  0  0  0  0  0  0  0  0  0  0  0
    5.6927   -2.5549    1.0163 H   0  0  0  0  0  0  0  0  0  0  0  0
    7.2051   -2.7990    0.1174 H   0  0  0  0  0  0  0  0  0  0  0  0
    6.5658   -0.4209    1.9471 H   0  0  0  0  0  0  0  0  0  0  0  0
    8.1226   -0.7001    1.1805 H   0  0  0  0  0  0  0  0  0  0  0  0
    6.8899    0.9431   -0.0890 H   0  0  0  0  0  0  0  0  0  0  0  0
    7.1214   -0.5026   -1.0741 H   0  0  0  0  0  0  0  0  0  0  0  0
    4.7712   -1.1931   -0.6366 H   0  0  0  0  0  0  0  0  0  0  0  0
    4.8678    0.4414   -1.3539 H   0  0  0  0  0  0  0  0  0  0  0  0
    2.6714   -0.4503   -1.3446 H   0  0  0  0  0  0  0  0  0  0  0  0
    0.2638   -0.2946   -1.2082 H   0  0  0  0  0  0  0  0  0  0  0  0
   -1.4690    1.2570    1.6936 H   0  0  0  0  0  0  0  0  0  0  0  0
   -1.8402    0.7196   -3.7658 H   0  0  0  0  0  0  0  0  0  0  0  0
   -3.5104    0.6532   -4.1003 H   0  0  0  0  0  0  0  0  0  0  0  0
   -4.8074   -1.7235   -1.2413 H   0  0  0  0  0  0  0  0  0  0  0  0
   -3.9488   -1.7625    0.2975 H   0  0  0  0  0  0  0  0  0  0  0  0
   -5.9247   -1.3022    1.5380 H   0  0  0  0  0  0  0  0  0  0  0  0
   -6.5969   -2.2689    0.2111 H   0  0  0  0  0  0  0  0  0  0  0  0
   -7.6815    0.1237    0.6168 H   0  0  0  0  0  0  0  0  0  0  0  0
   -7.1832   -0.2509   -1.0459 H   0  0  0  0  0  0  0  0  0  0  0  0
   -6.0306    1.8270   -0.6100 H   0  0  0  0  0  0  0  0  0  0  0  0
   -5.6776    1.3515    1.0532 H   0  0  0  0  0  0  0  0  0  0  0  0
   -3.4354    0.2780    1.3696 H   0  0  0  0  0  0  0  0  0  0  0  0
    0.5821    1.4763    2.7076 H   0  0  0  0  0  0  0  0  0  0  0  0
    3.0247    1.3032    2.5708 H   0  0  0  0  0  0  0  0  0  0  0  0
  1  2  1  0
  2  3  1  0
  3  4  1  0
  4  5  1  0
  5  6  1  0
  6  7  2  0
  7  8  1  0
  8  9  2  0
  9 10  1  0
 10 11  1  0
 11 12  2  0
 12 13  1  0
 13 14  1  0
 13 15  2  0
 15 16  1  0
 16 17  1  0
 17 18  1  0
 18 19  1  0
 19 20  1  0
 16 21  1  0
  9 22  1  0
 22 23  2  0
 23  6  1  0
 21 11  1  0
 20 16  1  0
  1 24  1  0
  1 25  1  0
  1 26  1  0
  2 27  1  0
  2 28  1  0
  3 29  1  0
  3 30  1  0
  4 31  1  0
  4 32  1  0
  7 33  1  0
  8 34  1  0
 10 35  1  0
 14 36  1  0
 14 37  1  0
 17 38  1  0
 17 39  1  0
 18 40  1  0
 18 41  1  0
 19 42  1  0
 19 43  1  0
 20 44  1  0
 20 45  1  0
 21 46  1  0
 22 47  1  0
 23 48  1  0
M  END
$$$$
