
     RDKit          3D

 63 68  0  0  0  0  0  0  0  0999 V2000
   -3.1377    3.9089    4.7754 C   0  0  0  0  0  0  0  0  0  0  0  0
   -2.8709    2.5165    4.6707 O   0  0  0  0  0  0  0  0  0  0  0  0
   -2.6048    2.0292    3.4211 C   0  0  0  0  0  0  0  0  0  0  0  0
   -2.3324    0.6614    3.3736 C   0  0  0  0  0  0  0  0  0  0  0  0
   -2.0422    0.0314    2.1610 C   0  0  0  0  0  0  0  0  0  0  0  0
   -2.0135    0.7656    0.9656 C   0  0  0  0  0  0  0  0  0  0  0  0
   -1.7058    0.0934   -0.3738 C   0  0  0  0  0  0  0  0  0  0  0  0
   -2.8511   -0.7968   -0.8162 C   0  0  0  0  0  0  0  0  0  0  0  0
   -4.1029   -0.2561   -1.1382 C   0  0  0  0  0  0  0  0  0  0  0  0
   -5.1568   -1.0880   -1.5173 C   0  0  0  0  0  0  0  0  0  0  0  0
   -4.9878   -2.4781   -1.5847 C   0  0  0  0  0  0  0  0  0  0  0  0
   -6.0525   -3.3136   -1.9621 C   0  0  0  0  0  0  0  0  0  0  0  0
   -5.8878   -4.6969   -2.0319 C   0  0  0  0  0  0  0  0  0  0  0  0
   -4.6563   -5.2634   -1.7259 C   0  0  0  0  0  0  0  0  0  0  0  0
   -3.5891   -4.4460   -1.3492 C   0  0  0  0  0  0  0  0  0  0  0  0
   -3.7302   -3.0434   -1.2693 C   0  0  0  0  0  0  0  0  0  0  0  0
   -2.6717   -2.1818   -0.8928 C   0  0  0  0  0  0  0  0  0  0  0  0
   -1.4578   -2.7641   -0.6014 O   0  0  0  0  0  0  0  0  0  0  0  0
   -0.3145   -1.9813   -0.4760 C   0  0  0  0  0  0  0  0  0  0  0  0
    0.8576   -2.7151   -0.4670 N   0  0  0  0  0  0  0  0  0  0  0  0
    1.9580   -2.0465   -0.3640 C   0  0  0  0  0  0  0  0  0  0  0  0
    2.0607   -0.6851   -0.2596 N   0  0  0  0  0  0  0  0  0  0  0  0
    3.3830   -0.0547   -0.1992 C   0  0  0  0  0  0  0  0  0  0  0  0
    3.8683    0.3185   -1.6170 C   0  0  0  0  0  0  0  0  0  0  0  0
    5.1440    1.0391   -1.7305 N   0  0  0  0  0  0  0  0  0  0  0  0
    6.3214    0.2526   -1.3336 C   0  0  0  0  0  0  0  0  0  0  0  0
    7.5493    1.1583   -1.1551 C   0  0  0  0  0  0  0  0  0  0  0  0
    7.3888    2.1048   -0.0892 O   0  0  0  0  0  0  0  0  0  0  0  0
    6.0236    2.4796    0.1397 C   0  0  0  0  0  0  0  0  0  0  0  0
    5.1386    2.3785   -1.1139 C   0  0  0  0  0  0  0  0  0  0  0  0
    0.9169    0.0961   -0.2756 C   0  0  0  0  0  0  0  0  0  0  0  0
    1.0081    1.3914   -0.2254 N   0  0  0  0  0  0  0  0  0  0  0  0
   -0.3917   -0.6358   -0.3648 C   0  0  0  0  0  0  0  0  0  0  0  0
   -2.3017    2.1393    1.0197 C   0  0  0  0  0  0  0  0  0  0  0  0
   -2.5909    2.7661    2.2378 C   0  0  0  0  0  0  0  0  0  0  0  0
   -4.0403    4.1805    4.2180 H   0  0  0  0  0  0  0  0  0  0  0  0
   -3.3174    4.1366    5.8306 H   0  0  0  0  0  0  0  0  0  0  0  0
   -2.2771    4.5021    4.4488 H   0  0  0  0  0  0  0  0  0  0  0  0
   -2.3487    0.0774    4.2909 H   0  0  0  0  0  0  0  0  0  0  0  0
   -1.8449   -1.0392    2.1622 H   0  0  0  0  0  0  0  0  0  0  0  0
   -1.6239    0.8689   -1.1498 H   0  0  0  0  0  0  0  0  0  0  0  0
   -4.2723    0.8171   -1.0846 H   0  0  0  0  0  0  0  0  0  0  0  0
   -6.1195   -0.6396   -1.7550 H   0  0  0  0  0  0  0  0  0  0  0  0
   -7.0245   -2.8900   -2.2057 H   0  0  0  0  0  0  0  0  0  0  0  0
   -6.7209   -5.3301   -2.3251 H   0  0  0  0  0  0  0  0  0  0  0  0
   -4.5212   -6.3405   -1.7790 H   0  0  0  0  0  0  0  0  0  0  0  0
   -2.6339   -4.9133   -1.1151 H   0  0  0  0  0  0  0  0  0  0  0  0
    2.9229   -2.5807   -0.3583 H   0  0  0  0  0  0  0  0  0  0  0  0
    4.0930   -0.7421    0.2752 H   0  0  0  0  0  0  0  0  0  0  0  0
    3.3534    0.8281    0.4497 H   0  0  0  0  0  0  0  0  0  0  0  0
    3.0977    0.9184   -2.1184 H   0  0  0  0  0  0  0  0  0  0  0  0
    3.9365   -0.5983   -2.2180 H   0  0  0  0  0  0  0  0  0  0  0  0
    6.1459   -0.2688   -0.3862 H   0  0  0  0  0  0  0  0  0  0  0  0
    6.5293   -0.5008   -2.1011 H   0  0  0  0  0  0  0  0  0  0  0  0
    7.7658    1.7122   -2.0763 H   0  0  0  0  0  0  0  0  0  0  0  0
    8.4325    0.5538   -0.9247 H   0  0  0  0  0  0  0  0  0  0  0  0
    5.6310    1.8439    0.9416 H   0  0  0  0  0  0  0  0  0  0  0  0
    6.0256    3.5080    0.5151 H   0  0  0  0  0  0  0  0  0  0  0  0
    4.1230    2.7228   -0.8865 H   0  0  0  0  0  0  0  0  0  0  0  0
    5.5354    3.0720   -1.8660 H   0  0  0  0  0  0  0  0  0  0  0  0
    0.0960    1.8479   -0.2164 H   0  0  0  0  0  0  0  0  0  0  0  0
   -2.3079    2.7395    0.1121 H   0  0  0  0  0  0  0  0  0  0  0  0
   -2.8035    3.8299    2.2262 H   0  0  0  0  0  0  0  0  0  0  0  0
  1  2  1  0
  2  3  1  0
  3  4  2  0
  4  5  1  0
  5  6  2  0
  6  7  1  0
  7  8  1  0
  8  9  2  0
  9 10  1  0
 10 11  2  0
 11 12  1  0
 12 13  2  0
 13 14  1  0
 14 15  2  0
 15 16  1  0
 16 17  2  0
 17 18  1  0
 18 19  1  0
 19 20  1  0
 20 21  2  0
 21 22  1  0
 22 23  1  0
 23 24  1  0
 24 25  1  0
 25 26  1  0
 26 27  1  0
 27 28  1  0
 28 29  1  0
 29 30  1  0
 22 31  1  0
 31 32  2  3
 31 33  1  0
  6 34  1  0
 34 35  2  0
 35  3  1  0
 33  7  1  0
 17  8  1  0
 33 19  2  0
 16 11  1  0
 30 25  1  0
  1 36  1  0
  1 37  1  0
  1 38  1  0
  4 39  1  0
  5 40  1  0
  7 41  1  0
  9 42  1  0
 10 43  1  0
 12 44  1  0
 13 45  1  0
 14 46  1  0
 15 47  1  0
 21 48  1  0
 23 49  1  0
 23 50  1  0
 24 51  1  0
 24 52  1  0
 26 53  1  0
 26 54  1  0
 27 55  1  0
 27 56  1  0
 29 57  1  0
 29 58  1  0
 30 59  1  0
 30 60  1  0
 32 61  1  0
 34 62  1  0
 35 63  1  0
M  END
$$$$
