
     RDKit          3D

 42 43  0  0  0  0  0  0  0  0999 V2000
   -4.0828   -0.7624   -0.8070 C   0  0  0  0  0  0  0  0  0  0  0  0
   -3.0089    0.2712   -0.4095 C   0  0  0  0  0  0  0  0  0  0  0  0
   -2.7247    0.1134    1.0936 C   0  0  0  0  0  0  0  0  0  0  0  0
   -3.5776    1.6759   -0.6661 C   0  0  0  0  0  0  0  0  0  0  0  0
   -1.7392   -0.0065   -1.2625 C   0  0  0  0  0  0  0  0  0  0  0  0
   -0.6382    0.8944   -0.9710 N   0  0  0  0  0  0  0  0  0  0  0  0
   -0.2166    1.9708   -1.6861 C   0  0  0  0  0  0  0  0  0  0  0  0
   -0.8943    2.3554   -2.7805 N   0  0  0  0  0  0  0  0  0  0  0  0
    0.8770    2.5673   -1.3025 N   0  0  0  0  0  0  0  0  0  0  0  0
    1.2655    1.8211   -0.0683 C   0  0  0  0  0  0  0  0  0  0  0  0
    0.4675    0.4968   -0.0957 C   0  0  0  0  0  0  0  0  0  0  0  0
    1.2971   -0.6530   -0.7037 C   0  0  0  0  0  0  0  0  0  0  0  0
    2.4136   -1.1334    0.1972 C   0  0  0  0  0  0  0  0  0  0  0  0
    2.1289   -1.8031    1.3972 C   0  0  0  0  0  0  0  0  0  0  0  0
    3.1630   -2.2428    2.2275 C   0  0  0  0  0  0  0  0  0  0  0  0
    4.4838   -2.0174    1.8545 C   0  0  0  0  0  0  0  0  0  0  0  0
    5.5223   -2.4303    2.6345 O   0  0  0  0  0  0  0  0  0  0  0  0
    4.7849   -1.3633    0.6663 C   0  0  0  0  0  0  0  0  0  0  0  0
    3.7523   -0.9220   -0.1620 C   0  0  0  0  0  0  0  0  0  0  0  0
   -5.0050   -0.6185   -0.2332 H   0  0  0  0  0  0  0  0  0  0  0  0
   -4.3351   -0.6819   -1.8703 H   0  0  0  0  0  0  0  0  0  0  0  0
   -3.7344   -1.7847   -0.6232 H   0  0  0  0  0  0  0  0  0  0  0  0
   -2.2711   -0.8598    1.3094 H   0  0  0  0  0  0  0  0  0  0  0  0
   -3.6487    0.1852    1.6795 H   0  0  0  0  0  0  0  0  0  0  0  0
   -2.0506    0.8930    1.4618 H   0  0  0  0  0  0  0  0  0  0  0  0
   -3.8280    1.8145   -1.7231 H   0  0  0  0  0  0  0  0  0  0  0  0
   -2.8698    2.4583   -0.3746 H   0  0  0  0  0  0  0  0  0  0  0  0
   -4.4951    1.8394   -0.0893 H   0  0  0  0  0  0  0  0  0  0  0  0
   -1.9941    0.0424   -2.3287 H   0  0  0  0  0  0  0  0  0  0  0  0
   -1.4302   -1.0440   -1.0907 H   0  0  0  0  0  0  0  0  0  0  0  0
   -1.8929    2.4022   -2.6511 H   0  0  0  0  0  0  0  0  0  0  0  0
   -0.5301    3.2404   -3.1189 H   0  0  0  0  0  0  0  0  0  0  0  0
    0.9781    2.4259    0.8004 H   0  0  0  0  0  0  0  0  0  0  0  0
    2.3490    1.6790   -0.0403 H   0  0  0  0  0  0  0  0  0  0  0  0
    0.1192    0.2426    0.9103 H   0  0  0  0  0  0  0  0  0  0  0  0
    1.7014   -0.3550   -1.6803 H   0  0  0  0  0  0  0  0  0  0  0  0
    0.6599   -1.5208   -0.9115 H   0  0  0  0  0  0  0  0  0  0  0  0
    1.0988   -1.9926    1.6911 H   0  0  0  0  0  0  0  0  0  0  0  0
    2.9200   -2.7586    3.1510 H   0  0  0  0  0  0  0  0  0  0  0  0
    5.1635   -2.8336    3.4416 H   0  0  0  0  0  0  0  0  0  0  0  0
    5.8208   -1.1966    0.3842 H   0  0  0  0  0  0  0  0  0  0  0  0
    4.0006   -0.4090   -1.0897 H   0  0  0  0  0  0  0  0  0  0  0  0
  1  2  1  0
  2  3  1  0
  2  4  1  0
  2  5  1  0
  5  6  1  0
  6  7  1  0
  7  8  1  0
  7  9  2  0
  9 10  1  0
 10 11  1  0
 11 12  1  0
 12 13  1  0
 13 14  2  0
 14 15  1  0
 15 16  2  0
 16 17  1  0
 16 18  1  0
 18 19  2  0
 11  6  1  0
 19 13  1  0
  1 20  1  0
  1 21  1  0
  1 22  1  0
  3 23  1  0
  3 24  1  0
  3 25  1  0
  4 26  1  0
  4 27  1  0
  4 28  1  0
  5 29  1  0
  5 30  1  0
  8 31  1  0
  8 32  1  0
 10 33  1  0
 10 34  1  0
 11 35  1  0
 12 36  1  0
 12 37  1  0
 14 38  1  0
 15 39  1  0
 17 40  1  0
 18 41  1  0
 19 42  1  0
M  END
$$$$
