
     RDKit          3D

 43 44  0  0  0  0  0  0  0  0999 V2000
   -5.3836    2.0915    3.2953 C   0  0  0  0  0  0  0  0  0  0  0  0
   -3.9281    2.0824    2.8639 C   0  0  0  0  0  0  0  0  0  0  0  0
   -3.7550    1.0373    1.8986 O   0  0  0  0  0  0  0  0  0  0  0  0
   -2.5122    0.9735    1.3446 C   0  0  0  0  0  0  0  0  0  0  0  0
   -1.5894    1.7253    1.6527 O   0  0  0  0  0  0  0  0  0  0  0  0
   -2.3687   -0.0769    0.3284 C   0  0  0  0  0  0  0  0  0  0  0  0
   -1.1636   -0.2607   -0.3402 C   0  0  0  0  0  0  0  0  0  0  0  0
    0.0017    0.4672   -0.1358 N   0  0  0  0  0  0  0  0  0  0  0  0
    1.1874    0.3889   -0.8495 C   0  0  0  0  0  0  0  0  0  0  0  0
    1.4211   -0.3064   -1.8330 O   0  0  0  0  0  0  0  0  0  0  0  0
    2.2412    1.3578   -0.2902 C   0  0  0  0  0  0  0  0  0  0  0  0
    3.5472    1.1406   -0.8225 O   0  0  0  0  0  0  0  0  0  0  0  0
    4.1767    0.0563   -0.3088 C   0  0  0  0  0  0  0  0  0  0  0  0
    3.7723   -0.6298    0.6167 O   0  0  0  0  0  0  0  0  0  0  0  0
    5.4595   -0.1871   -1.0171 C   0  0  0  0  0  0  0  0  0  0  0  0
    5.8839    0.6075   -2.0818 C   0  0  0  0  0  0  0  0  0  0  0  0
    7.0948    0.3002   -2.6761 C   0  0  0  0  0  0  0  0  0  0  0  0
    7.8874   -0.7204   -2.2833 N   0  0  0  0  0  0  0  0  0  0  0  0
    7.4500   -1.4765   -1.2554 C   0  0  0  0  0  0  0  0  0  0  0  0
    6.2573   -1.2525   -0.5936 C   0  0  0  0  0  0  0  0  0  0  0  0
   -1.2260   -1.5211   -1.4624 S   0  0  0  0  0  0  0  0  0  0  0  0
   -2.8581   -1.8695   -1.1105 C   0  0  0  0  0  0  0  0  0  0  0  0
   -3.5303   -2.9761   -1.8586 C   0  0  0  0  0  0  0  0  0  0  0  0
   -3.3778   -1.0226   -0.1414 C   0  0  0  0  0  0  0  0  0  0  0  0
   -4.7953   -1.0744    0.3448 C   0  0  0  0  0  0  0  0  0  0  0  0
   -6.0419    2.2391    2.4303 H   0  0  0  0  0  0  0  0  0  0  0  0
   -5.6586    1.1310    3.7455 H   0  0  0  0  0  0  0  0  0  0  0  0
   -5.5715    2.8884    4.0209 H   0  0  0  0  0  0  0  0  0  0  0  0
   -3.6723    3.0519    2.4153 H   0  0  0  0  0  0  0  0  0  0  0  0
   -3.2846    1.8924    3.7305 H   0  0  0  0  0  0  0  0  0  0  0  0
   -0.0621    1.1650    0.6041 H   0  0  0  0  0  0  0  0  0  0  0  0
    1.9405    2.3710   -0.5809 H   0  0  0  0  0  0  0  0  0  0  0  0
    2.2586    1.3219    0.8063 H   0  0  0  0  0  0  0  0  0  0  0  0
    5.2955    1.4385   -2.4539 H   0  0  0  0  0  0  0  0  0  0  0  0
    7.4710    0.8815   -3.5128 H   0  0  0  0  0  0  0  0  0  0  0  0
    8.1076   -2.2937   -0.9674 H   0  0  0  0  0  0  0  0  0  0  0  0
    5.9558   -1.8895    0.2307 H   0  0  0  0  0  0  0  0  0  0  0  0
   -2.8117   -3.7017   -2.2537 H   0  0  0  0  0  0  0  0  0  0  0  0
   -4.0975   -2.5672   -2.6999 H   0  0  0  0  0  0  0  0  0  0  0  0
   -4.2172   -3.5277   -1.2100 H   0  0  0  0  0  0  0  0  0  0  0  0
   -4.8268   -1.2531    1.4251 H   0  0  0  0  0  0  0  0  0  0  0  0
   -5.3060   -0.1295    0.1223 H   0  0  0  0  0  0  0  0  0  0  0  0
   -5.3709   -1.8725   -0.1355 H   0  0  0  0  0  0  0  0  0  0  0  0
  1  2  1  0
  2  3  1  0
  3  4  1  0
  4  5  2  0
  4  6  1  0
  6  7  2  0
  7  8  1  0
  8  9  1  0
  9 10  2  0
  9 11  1  0
 11 12  1  0
 12 13  1  0
 13 14  2  0
 13 15  1  0
 15 16  2  0
 16 17  1  0
 17 18  2  0
 18 19  1  0
 19 20  2  0
  7 21  1  0
 21 22  1  0
 22 23  1  0
 22 24  2  0
 24 25  1  0
 24  6  1  0
 20 15  1  0
  1 26  1  0
  1 27  1  0
  1 28  1  0
  2 29  1  0
  2 30  1  0
  8 31  1  0
 11 32  1  0
 11 33  1  0
 16 34  1  0
 17 35  1  0
 19 36  1  0
 20 37  1  0
 23 38  1  0
 23 39  1  0
 23 40  1  0
 25 41  1  0
 25 42  1  0
 25 43  1  0
M  END
$$$$
