
     RDKit          3D

 47 49  0  0  0  0  0  0  0  0999 V2000
    6.8690    0.1354   -2.0566 C   0  0  0  0  0  0  0  0  0  0  0  0
    6.1033   -0.2667   -0.8255 C   0  0  0  0  0  0  0  0  0  0  0  0
    4.7363    0.0414   -0.7430 C   0  0  0  0  0  0  0  0  0  0  0  0
    3.9763   -0.3182    0.3719 C   0  0  0  0  0  0  0  0  0  0  0  0
    2.6609    0.0503    0.3038 O   0  0  0  0  0  0  0  0  0  0  0  0
    1.8201   -0.3276    1.3926 C   0  0  0  0  0  0  0  0  0  0  0  0
    0.4498    0.1392    1.0800 C   0  0  0  0  0  0  0  0  0  0  0  0
   -0.1394    0.8256    0.0486 C   0  0  0  0  0  0  0  0  0  0  0  0
   -1.5170    0.9222    0.3983 C   0  0  0  0  0  0  0  0  0  0  0  0
   -2.5597    1.5579   -0.4324 C   0  0  0  0  0  0  0  0  0  0  0  0
   -2.2714    1.9036   -1.5815 O   0  0  0  0  0  0  0  0  0  0  0  0
   -3.8480    1.7893    0.0751 N   0  0  0  0  0  0  0  0  0  0  0  0
   -4.2652    1.5081    1.4398 C   0  0  0  0  0  0  0  0  0  0  0  0
   -4.9182    1.9829   -0.9048 C   0  0  0  0  0  0  0  0  0  0  0  0
   -5.7130    0.7166   -1.1837 C   0  0  0  0  0  0  0  0  0  0  0  0
   -7.0963    0.7859   -1.3547 C   0  0  0  0  0  0  0  0  0  0  0  0
   -7.8057   -0.3849   -1.6138 C   0  0  0  0  0  0  0  0  0  0  0  0
   -7.1210   -1.5898   -1.7077 C   0  0  0  0  0  0  0  0  0  0  0  0
   -5.7461   -1.5734   -1.5387 C   0  0  0  0  0  0  0  0  0  0  0  0
   -5.0324   -0.4553   -1.2855 N   0  0  0  0  0  0  0  0  0  0  0  0
   -1.7270    0.3046    1.5733 N   0  0  0  0  0  0  0  0  0  0  0  0
   -0.5033   -0.1671    1.9980 O   0  0  0  0  0  0  0  0  0  0  0  0
    4.5885   -0.9951    1.4265 C   0  0  0  0  0  0  0  0  0  0  0  0
    5.9579   -1.3154    1.3771 C   0  0  0  0  0  0  0  0  0  0  0  0
    6.5788   -2.0446    2.5382 C   0  0  0  0  0  0  0  0  0  0  0  0
    6.7081   -0.9536    0.2415 C   0  0  0  0  0  0  0  0  0  0  0  0
    8.3933   -1.3581    0.1565 Cl  0  0  0  0  0  0  0  0  0  0  0  0
    6.2516    0.7336   -2.7393 H   0  0  0  0  0  0  0  0  0  0  0  0
    7.2025   -0.7532   -2.6030 H   0  0  0  0  0  0  0  0  0  0  0  0
    7.7351    0.7501   -1.7865 H   0  0  0  0  0  0  0  0  0  0  0  0
    4.2485    0.5725   -1.5601 H   0  0  0  0  0  0  0  0  0  0  0  0
    1.8083   -1.4186    1.5054 H   0  0  0  0  0  0  0  0  0  0  0  0
    2.1611    0.1500    2.3185 H   0  0  0  0  0  0  0  0  0  0  0  0
    0.3387    1.2052   -0.8432 H   0  0  0  0  0  0  0  0  0  0  0  0
   -5.2041    2.0309    1.6543 H   0  0  0  0  0  0  0  0  0  0  0  0
   -4.4190    0.4324    1.5632 H   0  0  0  0  0  0  0  0  0  0  0  0
   -3.5188    1.8779    2.1479 H   0  0  0  0  0  0  0  0  0  0  0  0
   -5.5760    2.7682   -0.5087 H   0  0  0  0  0  0  0  0  0  0  0  0
   -4.5242    2.3483   -1.8589 H   0  0  0  0  0  0  0  0  0  0  0  0
   -7.6213    1.7321   -1.2818 H   0  0  0  0  0  0  0  0  0  0  0  0
   -8.8850   -0.3570   -1.7444 H   0  0  0  0  0  0  0  0  0  0  0  0
   -7.6444   -2.5179   -1.9057 H   0  0  0  0  0  0  0  0  0  0  0  0
   -5.1593   -2.4872   -1.6052 H   0  0  0  0  0  0  0  0  0  0  0  0
    4.0243   -1.2855    2.3076 H   0  0  0  0  0  0  0  0  0  0  0  0
    6.9205   -3.0366    2.2265 H   0  0  0  0  0  0  0  0  0  0  0  0
    7.4198   -1.4747    2.9444 H   0  0  0  0  0  0  0  0  0  0  0  0
    5.8629   -2.1836    3.3549 H   0  0  0  0  0  0  0  0  0  0  0  0
  1  2  1  0
  2  3  2  0
  3  4  1  0
  4  5  1  0
  5  6  1  0
  6  7  1  0
  7  8  2  0
  8  9  1  0
  9 10  1  0
 10 11  2  0
 10 12  1  0
 12 13  1  0
 12 14  1  0
 14 15  1  0
 15 16  2  0
 16 17  1  0
 17 18  2  0
 18 19  1  0
 19 20  2  0
  9 21  2  0
 21 22  1  0
  4 23  2  0
 23 24  1  0
 24 25  1  0
 24 26  2  0
 26 27  1  0
 26  2  1  0
 22  7  1  0
 20 15  1  0
  1 28  1  0
  1 29  1  0
  1 30  1  0
  3 31  1  0
  6 32  1  0
  6 33  1  0
  8 34  1  0
 13 35  1  0
 13 36  1  0
 13 37  1  0
 14 38  1  0
 14 39  1  0
 16 40  1  0
 17 41  1  0
 18 42  1  0
 19 43  1  0
 23 44  1  0
 25 45  1  0
 25 46  1  0
 25 47  1  0
M  END
$$$$
