
     RDKit          3D

 49 51  0  0  0  0  0  0  0  0999 V2000
   -4.6055   -1.2245   -3.9681 C   0  0  0  0  0  0  0  0  0  0  0  0
   -5.3214   -0.9587   -2.7694 O   0  0  0  0  0  0  0  0  0  0  0  0
   -4.5931   -0.7268   -1.6322 C   0  0  0  0  0  0  0  0  0  0  0  0
   -3.2013   -0.6675   -1.5742 C   0  0  0  0  0  0  0  0  0  0  0  0
   -2.5560   -0.4399   -0.3500 C   0  0  0  0  0  0  0  0  0  0  0  0
   -1.0704   -0.3868   -0.3462 C   0  0  0  0  0  0  0  0  0  0  0  0
   -0.4646    0.0343   -1.3278 O   0  0  0  0  0  0  0  0  0  0  0  0
   -0.4421   -0.8777    0.7907 N   0  0  0  0  0  0  0  0  0  0  0  0
    0.9105   -0.8872    1.1086 C   0  0  0  0  0  0  0  0  0  0  0  0
    1.2924   -1.5885    2.5729 S   0  0  0  0  0  0  0  0  0  0  0  0
    1.7230   -0.3152    0.1580 N   0  0  0  0  0  0  0  0  0  0  0  0
    3.1095   -0.0610    0.0782 C   0  0  0  0  0  0  0  0  0  0  0  0
    3.5592    0.4738   -1.1601 C   0  0  0  0  0  0  0  0  0  0  0  0
    4.9052    0.7831   -1.3928 C   0  0  0  0  0  0  0  0  0  0  0  0
    5.7848    0.5516   -0.3599 C   0  0  0  0  0  0  0  0  0  0  0  0
    5.3612    0.0386    0.8505 C   0  0  0  0  0  0  0  0  0  0  0  0
    4.0353   -0.2764    1.1020 C   0  0  0  0  0  0  0  0  0  0  0  0
    6.5372   -0.0765    1.7134 C   0  0  0  0  0  0  0  0  0  0  0  0
    6.5164   -0.5139    2.8475 O   0  0  0  0  0  0  0  0  0  0  0  0
    7.5989    0.3864    0.9854 N   0  0  0  0  0  0  0  0  0  0  0  0
    8.9571    0.4075    1.4681 C   0  0  0  0  0  0  0  0  0  0  0  0
    7.2287    0.7618   -0.2757 C   0  0  0  0  0  0  0  0  0  0  0  0
    7.9119    1.1836   -1.1887 O   0  0  0  0  0  0  0  0  0  0  0  0
   -3.2976   -0.2408    0.8239 C   0  0  0  0  0  0  0  0  0  0  0  0
   -4.6915   -0.2981    0.7833 C   0  0  0  0  0  0  0  0  0  0  0  0
   -5.5137   -0.1237    1.8657 O   0  0  0  0  0  0  0  0  0  0  0  0
   -4.9118   -0.0183    3.1484 C   0  0  0  0  0  0  0  0  0  0  0  0
   -5.3285   -0.5294   -0.4498 C   0  0  0  0  0  0  0  0  0  0  0  0
   -6.7019   -0.6370   -0.4838 O   0  0  0  0  0  0  0  0  0  0  0  0
   -7.2833    0.6364   -0.7596 C   0  0  0  0  0  0  0  0  0  0  0  0
   -5.3370   -1.4174   -4.7587 H   0  0  0  0  0  0  0  0  0  0  0  0
   -4.0096   -0.3572   -4.2708 H   0  0  0  0  0  0  0  0  0  0  0  0
   -3.9813   -2.1185   -3.8665 H   0  0  0  0  0  0  0  0  0  0  0  0
   -2.5921   -0.8000   -2.4636 H   0  0  0  0  0  0  0  0  0  0  0  0
   -1.0097   -1.3262    1.4976 H   0  0  0  0  0  0  0  0  0  0  0  0
    1.2036   -0.0453   -0.6808 H   0  0  0  0  0  0  0  0  0  0  0  0
    2.8477    0.6517   -1.9668 H   0  0  0  0  0  0  0  0  0  0  0  0
    5.2418    1.1877   -2.3415 H   0  0  0  0  0  0  0  0  0  0  0  0
    3.7823   -0.6610    2.0792 H   0  0  0  0  0  0  0  0  0  0  0  0
    9.4126   -0.5633    1.2508 H   0  0  0  0  0  0  0  0  0  0  0  0
    9.5273    1.1901    0.9604 H   0  0  0  0  0  0  0  0  0  0  0  0
    8.9697    0.5708    2.5492 H   0  0  0  0  0  0  0  0  0  0  0  0
   -2.7831   -0.0121    1.7503 H   0  0  0  0  0  0  0  0  0  0  0  0
   -5.7134    0.0371    3.8911 H   0  0  0  0  0  0  0  0  0  0  0  0
   -4.3197    0.8991    3.2285 H   0  0  0  0  0  0  0  0  0  0  0  0
   -4.3057   -0.9013    3.3766 H   0  0  0  0  0  0  0  0  0  0  0  0
   -8.3705    0.5134   -0.7648 H   0  0  0  0  0  0  0  0  0  0  0  0
   -6.9813    1.0093   -1.7442 H   0  0  0  0  0  0  0  0  0  0  0  0
   -7.0302    1.3678    0.0158 H   0  0  0  0  0  0  0  0  0  0  0  0
  1  2  1  0
  2  3  1  0
  3  4  2  0
  4  5  1  0
  5  6  1  0
  6  7  2  0
  6  8  1  0
  8  9  1  0
  9 10  2  0
  9 11  1  0
 11 12  1  0
 12 13  2  0
 13 14  1  0
 14 15  2  0
 15 16  1  0
 16 17  2  0
 16 18  1  0
 18 19  2  0
 18 20  1  0
 20 21  1  0
 20 22  1  0
 22 23  2  0
  5 24  2  0
 24 25  1  0
 25 26  1  0
 26 27  1  0
 25 28  2  0
 28 29  1  0
 29 30  1  0
 28  3  1  0
 17 12  1  0
 22 15  1  0
  1 31  1  0
  1 32  1  0
  1 33  1  0
  4 34  1  0
  8 35  1  0
 11 36  1  0
 13 37  1  0
 14 38  1  0
 17 39  1  0
 21 40  1  0
 21 41  1  0
 21 42  1  0
 24 43  1  0
 27 44  1  0
 27 45  1  0
 27 46  1  0
 30 47  1  0
 30 48  1  0
 30 49  1  0
M  END
$$$$
