
     RDKit          3D

 40 41  0  0  0  0  0  0  0  0999 V2000
   -2.5686   -2.6583    1.0114 O   0  0  0  0  0  0  0  0  0  0  0  0
   -1.8417   -1.7737    0.5650 C   0  0  0  0  0  0  0  0  0  0  0  0
   -0.3683   -2.0744    0.2502 C   0  0  0  0  0  0  0  0  0  0  0  0
    0.5832   -1.1680    0.8094 O   0  0  0  0  0  0  0  0  0  0  0  0
    0.8987   -0.1015    0.0291 C   0  0  0  0  0  0  0  0  0  0  0  0
    0.3435    0.1566   -1.0305 O   0  0  0  0  0  0  0  0  0  0  0  0
    1.9963    0.7241    0.6510 C   0  0  0  0  0  0  0  0  0  0  0  0
    3.4004    0.3971    0.1553 C   0  0  0  0  0  0  0  0  0  0  0  0
    3.6285    0.6012   -1.3409 C   0  0  0  0  0  0  0  0  0  0  0  0
    4.9473   -0.1184   -1.6137 C   0  0  0  0  0  0  0  0  0  0  0  0
    5.0998   -1.1635   -0.5065 C   0  0  0  0  0  0  0  0  0  0  0  0
    3.8469   -1.0489    0.3571 C   0  0  0  0  0  0  0  0  0  0  0  0
   -2.2286   -0.4783    0.2657 N   0  0  0  0  0  0  0  0  0  0  0  0
   -3.5103    0.1162    0.4211 C   0  0  0  0  0  0  0  0  0  0  0  0
   -4.6368   -0.6403    0.7723 C   0  0  0  0  0  0  0  0  0  0  0  0
   -5.9042   -0.0531    0.8921 C   0  0  0  0  0  0  0  0  0  0  0  0
   -6.0794    1.3072    0.6623 C   0  0  0  0  0  0  0  0  0  0  0  0
   -4.9831    2.0895    0.3159 C   0  0  0  0  0  0  0  0  0  0  0  0
   -3.7111    1.4972    0.2000 C   0  0  0  0  0  0  0  0  0  0  0  0
   -2.5978    2.3878   -0.1230 N   0  0  0  0  0  4  0  0  0  0  0  0
   -1.4958    2.1414    0.3901 O   0  0  0  0  0  0  0  0  0  0  0  0
   -2.8277    3.3438   -0.8769 O   0  0  0  0  0  1  0  0  0  0  0  0
   -0.1392   -3.0574    0.6776 H   0  0  0  0  0  0  0  0  0  0  0  0
   -0.2490   -2.1764   -0.8355 H   0  0  0  0  0  0  0  0  0  0  0  0
    1.9456    0.6067    1.7407 H   0  0  0  0  0  0  0  0  0  0  0  0
    1.7615    1.7776    0.4554 H   0  0  0  0  0  0  0  0  0  0  0  0
    4.0990    1.0503    0.6979 H   0  0  0  0  0  0  0  0  0  0  0  0
    3.6765    1.6598   -1.6141 H   0  0  0  0  0  0  0  0  0  0  0  0
    2.8357    0.1358   -1.9367 H   0  0  0  0  0  0  0  0  0  0  0  0
    4.9504   -0.5765   -2.6080 H   0  0  0  0  0  0  0  0  0  0  0  0
    5.7843    0.5882   -1.5755 H   0  0  0  0  0  0  0  0  0  0  0  0
    5.9934   -0.9438    0.0891 H   0  0  0  0  0  0  0  0  0  0  0  0
    5.2156   -2.1738   -0.9116 H   0  0  0  0  0  0  0  0  0  0  0  0
    3.0943   -1.7577   -0.0061 H   0  0  0  0  0  0  0  0  0  0  0  0
    4.0505   -1.2804    1.4070 H   0  0  0  0  0  0  0  0  0  0  0  0
   -1.4855    0.1372   -0.0675 H   0  0  0  0  0  0  0  0  0  0  0  0
   -4.5758   -1.7100    0.9507 H   0  0  0  0  0  0  0  0  0  0  0  0
   -6.7571   -0.6728    1.1632 H   0  0  0  0  0  0  0  0  0  0  0  0
   -7.0664    1.7544    0.7554 H   0  0  0  0  0  0  0  0  0  0  0  0
   -5.1250    3.1554    0.1458 H   0  0  0  0  0  0  0  0  0  0  0  0
  1  2  2  0
  2  3  1  0
  3  4  1  0
  4  5  1  0
  5  6  2  0
  5  7  1  0
  7  8  1  0
  8  9  1  0
  9 10  1  0
 10 11  1  0
 11 12  1  0
  2 13  1  0
 13 14  1  0
 14 15  2  0
 15 16  1  0
 16 17  2  0
 17 18  1  0
 18 19  2  0
 19 20  1  0
 20 21  2  0
 20 22  1  0
 12  8  1  0
 19 14  1  0
  3 23  1  0
  3 24  1  0
  7 25  1  0
  7 26  1  0
  8 27  1  0
  9 28  1  0
  9 29  1  0
 10 30  1  0
 10 31  1  0
 11 32  1  0
 11 33  1  0
 12 34  1  0
 12 35  1  0
 13 36  1  0
 15 37  1  0
 16 38  1  0
 17 39  1  0
 18 40  1  0
M  CHG  2  20   1  22  -1
M  END
$$$$
