
     RDKit          3D

 36 38  0  0  0  0  0  0  0  0999 V2000
    2.7483   -2.2103   -1.9689 C   0  0  0  0  0  0  0  0  0  0  0  0
    2.3024   -1.9480   -0.5318 C   0  0  0  0  0  0  0  0  0  0  0  0
    3.2913   -1.1677    0.1143 O   0  0  0  0  0  0  0  0  0  0  0  0
    3.0600    0.1797    0.0940 C   0  0  0  0  0  0  0  0  0  0  0  0
    4.1682    0.9657    0.4266 C   0  0  0  0  0  0  0  0  0  0  0  0
    4.0595    2.3519    0.4666 C   0  0  0  0  0  0  0  0  0  0  0  0
    2.8365    2.9502    0.1873 C   0  0  0  0  0  0  0  0  0  0  0  0
    1.7241    2.1639   -0.1349 C   0  0  0  0  0  0  0  0  0  0  0  0
    1.8182    0.7653   -0.1928 C   0  0  0  0  0  0  0  0  0  0  0  0
    0.7024   -0.0654   -0.4981 N   0  0  0  0  0  0  0  0  0  0  0  0
   -0.6467    0.4659   -0.6661 C   0  0  0  0  0  0  0  0  0  0  0  0
   -1.3616    0.6607    0.6711 C   0  0  0  0  0  0  0  0  0  0  0  0
   -0.8609    1.2954    1.5999 O   0  0  0  0  0  0  0  0  0  0  0  0
   -2.7462    0.1364    0.8440 C   0  0  0  0  0  0  0  0  0  0  0  0
   -3.1934   -1.0361    0.2219 C   0  0  0  0  0  0  0  0  0  0  0  0
   -4.5040   -1.4784    0.4252 C   0  0  0  0  0  0  0  0  0  0  0  0
   -5.3574   -0.7551    1.2509 C   0  0  0  0  0  0  0  0  0  0  0  0
   -6.6113   -1.1842    1.4418 F   0  0  0  0  0  0  0  0  0  0  0  0
   -4.9246    0.4014    1.8875 C   0  0  0  0  0  0  0  0  0  0  0  0
   -3.6156    0.8450    1.6897 C   0  0  0  0  0  0  0  0  0  0  0  0
    0.8581   -1.4428   -0.5392 C   0  0  0  0  0  0  0  0  0  0  0  0
   -0.0907   -2.2207   -0.6647 O   0  0  0  0  0  0  0  0  0  0  0  0
    2.7856   -1.2806   -2.5472 H   0  0  0  0  0  0  0  0  0  0  0  0
    3.7558   -2.6386   -1.9876 H   0  0  0  0  0  0  0  0  0  0  0  0
    2.0652   -2.8963   -2.4798 H   0  0  0  0  0  0  0  0  0  0  0  0
    2.2834   -2.9046    0.0047 H   0  0  0  0  0  0  0  0  0  0  0  0
    5.1179    0.4897    0.6581 H   0  0  0  0  0  0  0  0  0  0  0  0
    4.9211    2.9602    0.7279 H   0  0  0  0  0  0  0  0  0  0  0  0
    2.7378    4.0322    0.2342 H   0  0  0  0  0  0  0  0  0  0  0  0
    0.7896    2.6858   -0.3099 H   0  0  0  0  0  0  0  0  0  0  0  0
   -0.6262    1.4225   -1.1976 H   0  0  0  0  0  0  0  0  0  0  0  0
   -1.2131   -0.1992   -1.3236 H   0  0  0  0  0  0  0  0  0  0  0  0
   -2.5380   -1.6429   -0.3970 H   0  0  0  0  0  0  0  0  0  0  0  0
   -4.8592   -2.3904   -0.0457 H   0  0  0  0  0  0  0  0  0  0  0  0
   -5.6027    0.9450    2.5379 H   0  0  0  0  0  0  0  0  0  0  0  0
   -3.2736    1.7441    2.1999 H   0  0  0  0  0  0  0  0  0  0  0  0
  1  2  1  0
  2  3  1  0
  3  4  1  0
  4  5  2  0
  5  6  1  0
  6  7  2  0
  7  8  1  0
  8  9  2  0
  9 10  1  0
 10 11  1  0
 11 12  1  0
 12 13  2  0
 12 14  1  0
 14 15  2  0
 15 16  1  0
 16 17  2  0
 17 18  1  0
 17 19  1  0
 19 20  2  0
 10 21  1  0
 21 22  2  0
 21  2  1  0
  9  4  1  0
 20 14  1  0
  1 23  1  0
  1 24  1  0
  1 25  1  0
  2 26  1  0
  5 27  1  0
  6 28  1  0
  7 29  1  0
  8 30  1  0
 11 31  1  0
 11 32  1  0
 15 33  1  0
 16 34  1  0
 19 35  1  0
 20 36  1  0
M  END
$$$$
