
     RDKit          3D

 57 59  0  0  0  0  0  0  0  0999 V2000
   -4.1633    1.5523    2.9871 C   0  0  0  0  0  0  0  0  0  0  0  0
   -4.1544    0.0942    2.5597 C   0  0  0  0  0  0  0  0  0  0  0  0
   -4.2161   -0.0571    1.0981 N   0  0  0  0  0  0  0  0  0  0  0  0
   -3.0768   -0.1969    0.2936 C   0  0  0  0  0  0  0  0  0  0  0  0
   -3.1610   -0.2609   -0.9320 O   0  0  0  0  0  0  0  0  0  0  0  0
   -1.7164   -0.2639    0.9932 C   0  0  0  0  0  0  0  0  0  0  0  0
   -0.6570   -0.3654    0.0399 O   0  0  0  0  0  0  0  0  0  0  0  0
    0.5528    0.0029    0.5050 C   0  0  0  0  0  0  0  0  0  0  0  0
    0.8343    0.3458    1.6399 O   0  0  0  0  0  0  0  0  0  0  0  0
    1.5579   -0.1810   -0.5533 C   0  0  0  0  0  0  0  0  0  0  0  0
    2.6516   -1.0061   -0.2608 C   0  0  0  0  0  0  0  0  0  0  0  0
    3.6683   -1.2182   -1.2129 C   0  0  0  0  0  0  0  0  0  0  0  0
    4.9933   -2.3181   -0.7381 S   0  0  0  0  0  6  0  0  0  0  0  0
    4.5005   -3.0795    0.3952 O   0  0  0  0  0  0  0  0  0  0  0  0
    5.4830   -3.0059   -1.9117 O   0  0  0  0  0  0  0  0  0  0  0  0
    6.2023   -1.2939   -0.1460 N   0  0  0  0  0  0  0  0  0  0  0  0
    7.0763   -0.5551   -1.0940 C   0  0  0  0  0  0  0  0  0  0  0  0
    6.8323    0.9536   -0.9757 C   0  0  0  0  0  0  0  0  0  0  0  0
    7.0705    1.4805    0.3406 O   0  0  0  0  0  0  0  0  0  0  0  0
    7.0218    0.4876    1.3784 C   0  0  0  0  0  0  0  0  0  0  0  0
    5.9408   -0.5696    1.1297 C   0  0  0  0  0  0  0  0  0  0  0  0
    3.5599   -0.6265   -2.4739 C   0  0  0  0  0  0  0  0  0  0  0  0
    4.6941   -0.8066   -3.7590 Cl  0  0  0  0  0  0  0  0  0  0  0  0
    2.4705    0.2148   -2.7485 C   0  0  0  0  0  0  0  0  0  0  0  0
    1.4770    0.4497   -1.7924 C   0  0  0  0  0  0  0  0  0  0  0  0
    0.2291    1.5680   -2.1899 Cl  0  0  0  0  0  0  0  0  0  0  0  0
   -5.5376    0.1197    0.4729 C   0  0  0  0  0  0  0  0  0  0  0  0
   -5.6572    1.3841   -0.3901 C   0  0  0  0  0  0  0  0  0  0  0  0
   -7.0577    1.3456   -0.9869 C   0  0  0  0  0  0  0  0  0  0  0  0
   -7.4238   -0.3811   -1.2514 S   0  0  0  0  0  6  0  0  0  0  0  0
   -8.6068   -0.7089   -0.4784 O   0  0  0  0  0  0  0  0  0  0  0  0
   -7.3187   -0.6799   -2.6629 O   0  0  0  0  0  0  0  0  0  0  0  0
   -6.0028   -1.0421   -0.4055 C   0  0  0  0  0  0  0  0  0  0  0  0
   -4.0887    1.6260    4.0773 H   0  0  0  0  0  0  0  0  0  0  0  0
   -5.0871    2.0475    2.6785 H   0  0  0  0  0  0  0  0  0  0  0  0
   -3.3285    2.1035    2.5436 H   0  0  0  0  0  0  0  0  0  0  0  0
   -3.2596   -0.3867    2.9539 H   0  0  0  0  0  0  0  0  0  0  0  0
   -5.0036   -0.4393    2.9993 H   0  0  0  0  0  0  0  0  0  0  0  0
   -1.6010    0.6380    1.5963 H   0  0  0  0  0  0  0  0  0  0  0  0
   -1.6922   -1.1567    1.6184 H   0  0  0  0  0  0  0  0  0  0  0  0
    2.7030   -1.4827    0.7198 H   0  0  0  0  0  0  0  0  0  0  0  0
    6.9440   -0.8889   -2.1254 H   0  0  0  0  0  0  0  0  0  0  0  0
    8.1146   -0.7902   -0.8296 H   0  0  0  0  0  0  0  0  0  0  0  0
    5.7975    1.1974   -1.2371 H   0  0  0  0  0  0  0  0  0  0  0  0
    7.4825    1.4979   -1.6709 H   0  0  0  0  0  0  0  0  0  0  0  0
    8.0123    0.0275    1.4567 H   0  0  0  0  0  0  0  0  0  0  0  0
    6.8268    1.0076    2.3229 H   0  0  0  0  0  0  0  0  0  0  0  0
    5.9306   -1.2874    1.9574 H   0  0  0  0  0  0  0  0  0  0  0  0
    4.9720   -0.0653    1.0782 H   0  0  0  0  0  0  0  0  0  0  0  0
    2.3967    0.6984   -3.7207 H   0  0  0  0  0  0  0  0  0  0  0  0
   -6.2702    0.2134    1.2888 H   0  0  0  0  0  0  0  0  0  0  0  0
   -5.4973    2.2994    0.1903 H   0  0  0  0  0  0  0  0  0  0  0  0
   -4.9214    1.3896   -1.2022 H   0  0  0  0  0  0  0  0  0  0  0  0
   -7.1199    1.8867   -1.9322 H   0  0  0  0  0  0  0  0  0  0  0  0
   -7.7962    1.7379   -0.2793 H   0  0  0  0  0  0  0  0  0  0  0  0
   -6.3018   -1.9130    0.1779 H   0  0  0  0  0  0  0  0  0  0  0  0
   -5.2791   -1.3427   -1.1662 H   0  0  0  0  0  0  0  0  0  0  0  0
  1  2  1  0
  2  3  1  0
  3  4  1  0
  4  5  2  0
  4  6  1  0
  6  7  1  0
  7  8  1  0
  8  9  2  0
  8 10  1  0
 10 11  2  0
 11 12  1  0
 12 13  1  0
 13 14  2  0
 13 15  2  0
 13 16  1  0
 16 17  1  0
 17 18  1  0
 18 19  1  0
 19 20  1  0
 20 21  1  0
 12 22  2  0
 22 23  1  0
 22 24  1  0
 24 25  2  0
 25 26  1  0
  3 27  1  0
 27 28  1  0
 28 29  1  0
 29 30  1  0
 30 31  2  0
 30 32  2  0
 30 33  1  0
 25 10  1  0
 33 27  1  0
 21 16  1  0
  1 34  1  0
  1 35  1  0
  1 36  1  0
  2 37  1  0
  2 38  1  0
  6 39  1  0
  6 40  1  0
 11 41  1  0
 17 42  1  0
 17 43  1  0
 18 44  1  0
 18 45  1  0
 20 46  1  0
 20 47  1  0
 21 48  1  0
 21 49  1  0
 24 50  1  0
 27 51  1  0
 28 52  1  0
 28 53  1  0
 29 54  1  0
 29 55  1  0
 33 56  1  0
 33 57  1  0
M  END
$$$$
