
     RDKit          3D

 69 71  0  0  0  0  0  0  0  0999 V2000
    6.0904    1.1529   -2.9988 C   0  0  0  0  0  0  0  0  0  0  0  0
    5.4430   -0.0353   -2.3046 C   0  0  0  0  0  0  0  0  0  0  0  0
    6.4889   -0.9356   -1.6428 C   0  0  0  0  0  0  0  0  0  0  0  0
    5.8974   -2.2054   -1.0165 C   0  0  0  0  0  0  0  0  0  0  0  0
    5.5748   -2.1007    0.4793 C   0  0  0  0  0  0  0  0  0  0  0  0
    4.4890   -1.1023    0.8853 C   0  0  0  0  0  0  0  0  0  0  0  0
    3.1198   -1.4128    0.2780 C   0  0  0  0  0  0  0  0  0  0  0  0
    2.0353   -0.4085    0.6852 C   0  0  0  0  0  0  0  0  0  0  0  0
    1.6596   -0.4986    2.1685 C   0  0  0  0  0  0  0  0  0  0  0  0
    0.4766    0.4004    2.5294 C   0  0  0  0  0  0  0  0  0  0  0  0
   -0.6927    0.0811    1.7538 O   0  0  0  0  0  0  0  0  0  0  0  0
   -1.4006   -1.0113    2.1647 C   0  0  0  0  0  0  0  0  0  0  0  0
   -1.1348   -1.6895    3.1486 O   0  0  0  0  0  0  0  0  0  0  0  0
   -2.6075   -1.2633    1.2723 C   0  0  0  0  0  0  0  0  0  0  0  0
   -2.4887   -0.6356   -0.0666 N   0  0  0  0  0  0  0  0  0  0  0  0
   -2.9320    0.6061   -0.3764 C   0  0  0  0  0  0  0  0  0  0  0  0
   -3.5447    1.6090    0.5897 C   0  0  0  0  0  0  0  0  0  0  0  0
   -4.8939    1.2448    0.8355 O   0  0  0  0  0  0  0  0  0  0  0  0
   -5.5342    1.9027    1.8481 C   0  0  0  0  0  0  0  0  0  0  0  0
   -6.8127    1.4154    2.1410 C   0  0  0  0  0  0  0  0  0  0  0  0
   -7.5755    1.9863    3.1627 C   0  0  0  0  0  0  0  0  0  0  0  0
   -7.0603    3.0530    3.8915 C   0  0  0  0  0  0  0  0  0  0  0  0
   -7.9911    3.7587    5.1514 Cl  0  0  0  0  0  0  0  0  0  0  0  0
   -5.7914    3.5526    3.6019 C   0  0  0  0  0  0  0  0  0  0  0  0
   -5.0276    2.9812    2.5767 C   0  0  0  0  0  0  0  0  0  0  0  0
   -2.7591    0.7645   -1.7097 N   0  0  0  0  0  4  0  0  0  0  0  0
   -3.2638    1.8915   -2.4918 C   0  0  0  0  0  0  0  0  0  0  0  0
   -2.0334   -0.3073   -2.2232 C   0  0  0  0  0  0  0  0  0  0  0  0
   -1.5289   -0.5556   -3.4977 C   0  0  0  0  0  0  0  0  0  0  0  0
   -0.8411   -1.7657   -3.6647 C   0  0  0  0  0  0  0  0  0  0  0  0
   -0.6773   -2.6757   -2.6036 C   0  0  0  0  0  0  0  0  0  0  0  0
   -1.1914   -2.4184   -1.3257 C   0  0  0  0  0  0  0  0  0  0  0  0
   -1.8684   -1.2103   -1.1703 C   0  0  0  0  0  0  0  0  0  0  0  0
    6.7354    0.8245   -3.8189 H   0  0  0  0  0  0  0  0  0  0  0  0
    6.6949    1.7415   -2.3000 H   0  0  0  0  0  0  0  0  0  0  0  0
    5.3237    1.8102   -3.4178 H   0  0  0  0  0  0  0  0  0  0  0  0
    4.7326    0.3415   -1.5661 H   0  0  0  0  0  0  0  0  0  0  0  0
    4.8708   -0.6106   -3.0410 H   0  0  0  0  0  0  0  0  0  0  0  0
    7.0595   -0.3704   -0.8960 H   0  0  0  0  0  0  0  0  0  0  0  0
    7.2046   -1.2441   -2.4161 H   0  0  0  0  0  0  0  0  0  0  0  0
    5.0233   -2.5513   -1.5802 H   0  0  0  0  0  0  0  0  0  0  0  0
    6.6492   -3.0010   -1.1158 H   0  0  0  0  0  0  0  0  0  0  0  0
    5.2805   -3.0972    0.8346 H   0  0  0  0  0  0  0  0  0  0  0  0
    6.4943   -1.8443    1.0198 H   0  0  0  0  0  0  0  0  0  0  0  0
    4.7981   -0.0843    0.6268 H   0  0  0  0  0  0  0  0  0  0  0  0
    4.4161   -1.1317    1.9792 H   0  0  0  0  0  0  0  0  0  0  0  0
    3.1869   -1.4030   -0.8161 H   0  0  0  0  0  0  0  0  0  0  0  0
    2.8103   -2.4257    0.5645 H   0  0  0  0  0  0  0  0  0  0  0  0
    1.1521   -0.6085    0.0703 H   0  0  0  0  0  0  0  0  0  0  0  0
    2.3609    0.6117    0.4476 H   0  0  0  0  0  0  0  0  0  0  0  0
    1.4176   -1.5410    2.4069 H   0  0  0  0  0  0  0  0  0  0  0  0
    2.5112   -0.2110    2.7942 H   0  0  0  0  0  0  0  0  0  0  0  0
    0.7224    1.4470    2.3162 H   0  0  0  0  0  0  0  0  0  0  0  0
    0.2519    0.3391    3.6015 H   0  0  0  0  0  0  0  0  0  0  0  0
   -3.5006   -0.8783    1.7711 H   0  0  0  0  0  0  0  0  0  0  0  0
   -2.7279   -2.3419    1.1342 H   0  0  0  0  0  0  0  0  0  0  0  0
   -2.9268    1.5552    1.4904 H   0  0  0  0  0  0  0  0  0  0  0  0
   -3.4660    2.5930    0.1197 H   0  0  0  0  0  0  0  0  0  0  0  0
   -7.2258    0.5841    1.5744 H   0  0  0  0  0  0  0  0  0  0  0  0
   -8.5674    1.5977    3.3818 H   0  0  0  0  0  0  0  0  0  0  0  0
   -5.3939    4.3910    4.1705 H   0  0  0  0  0  0  0  0  0  0  0  0
   -4.0508    3.4141    2.3822 H   0  0  0  0  0  0  0  0  0  0  0  0
   -4.1999    2.2535   -2.0581 H   0  0  0  0  0  0  0  0  0  0  0  0
   -3.4725    1.5752   -3.5159 H   0  0  0  0  0  0  0  0  0  0  0  0
   -2.5143    2.6868   -2.4902 H   0  0  0  0  0  0  0  0  0  0  0  0
   -1.6533    0.1454   -4.3133 H   0  0  0  0  0  0  0  0  0  0  0  0
   -0.4228   -2.0109   -4.6420 H   0  0  0  0  0  0  0  0  0  0  0  0
   -0.1350   -3.6053   -2.7832 H   0  0  0  0  0  0  0  0  0  0  0  0
   -1.0629   -3.1193   -0.5103 H   0  0  0  0  0  0  0  0  0  0  0  0
  1  2  1  0
  2  3  1  0
  3  4  1  0
  4  5  1  0
  5  6  1  0
  6  7  1  0
  7  8  1  0
  8  9  1  0
  9 10  1  0
 10 11  1  0
 11 12  1  0
 12 13  2  0
 12 14  1  0
 14 15  1  0
 15 16  1  0
 16 17  1  0
 17 18  1  0
 18 19  1  0
 19 20  2  0
 20 21  1  0
 21 22  2  0
 22 23  1  0
 22 24  1  0
 24 25  2  0
 16 26  2  0
 26 27  1  0
 26 28  1  0
 28 29  2  0
 29 30  1  0
 30 31  2  0
 31 32  1  0
 32 33  2  0
 33 15  1  0
 25 19  1  0
 33 28  1  0
  1 34  1  0
  1 35  1  0
  1 36  1  0
  2 37  1  0
  2 38  1  0
  3 39  1  0
  3 40  1  0
  4 41  1  0
  4 42  1  0
  5 43  1  0
  5 44  1  0
  6 45  1  0
  6 46  1  0
  7 47  1  0
  7 48  1  0
  8 49  1  0
  8 50  1  0
  9 51  1  0
  9 52  1  0
 10 53  1  0
 10 54  1  0
 14 55  1  0
 14 56  1  0
 17 57  1  0
 17 58  1  0
 20 59  1  0
 21 60  1  0
 24 61  1  0
 25 62  1  0
 27 63  1  0
 27 64  1  0
 27 65  1  0
 29 66  1  0
 30 67  1  0
 31 68  1  0
 32 69  1  0
M  CHG  1  26   1
M  END
$$$$
