
     RDKit          3D

 42 43  0  0  0  0  0  0  0  0999 V2000
   -1.1144    3.0757   -1.1751 C   0  0  0  0  0  0  0  0  0  0  0  0
   -0.3388    2.0627   -0.3809 C   0  0  0  0  0  0  0  0  0  0  0  0
    0.8068    2.5043    0.3102 C   0  0  0  0  0  0  0  0  0  0  0  0
    1.5865    1.6225    1.0625 C   0  0  0  0  0  0  0  0  0  0  0  0
    1.2332    0.2759    1.1245 C   0  0  0  0  0  0  0  0  0  0  0  0
    2.2168   -0.8480    2.0892 S   0  0  0  0  0  6  0  0  0  0  0  0
    1.3834   -1.9898    2.4180 O   0  0  0  0  0  0  0  0  0  0  0  0
    2.8424   -0.0698    3.1431 O   0  0  0  0  0  0  0  0  0  0  0  0
    3.5046   -1.4275    1.0067 C   0  0  0  0  0  0  0  0  0  0  0  0
    4.7888   -0.8811    1.0974 C   0  0  0  0  0  0  0  0  0  0  0  0
    5.7938   -1.3462    0.2460 C   0  0  0  0  0  0  0  0  0  0  0  0
    5.5122   -2.3538   -0.6778 C   0  0  0  0  0  0  0  0  0  0  0  0
    6.7535   -2.9217   -1.7254 Cl  0  0  0  0  0  0  0  0  0  0  0  0
    4.2332   -2.9069   -0.7566 C   0  0  0  0  0  0  0  0  0  0  0  0
    3.2231   -2.4479    0.0917 C   0  0  0  0  0  0  0  0  0  0  0  0
    0.0945   -0.1888    0.4672 C   0  0  0  0  0  0  0  0  0  0  0  0
   -0.6914    0.7022   -0.2853 C   0  0  0  0  0  0  0  0  0  0  0  0
   -2.1109   -0.0239   -1.0983 S   0  0  0  0  0  6  0  0  0  0  0  0
   -1.6519   -1.2575   -1.7013 O   0  0  0  0  0  0  0  0  0  0  0  0
   -2.8072    0.9671   -1.8854 O   0  0  0  0  0  0  0  0  0  0  0  0
   -3.1155   -0.4314    0.2244 N   0  0  0  0  0  0  0  0  0  0  0  0
   -3.5987    0.7145    1.0313 C   0  0  0  0  0  0  0  0  0  0  0  0
   -4.2205   -1.3590   -0.1594 C   0  0  0  0  0  0  0  0  0  0  0  0
   -5.2043   -0.7887   -1.1559 C   0  0  0  0  0  0  0  0  0  0  0  0
   -5.9683    0.1440   -0.9560 O   0  0  0  0  0  0  0  0  0  0  0  0
   -5.1647   -1.3986   -2.3552 O   0  0  0  0  0  0  0  0  0  0  0  0
   -0.6642    4.0722   -1.1021 H   0  0  0  0  0  0  0  0  0  0  0  0
   -1.1181    2.8091   -2.2360 H   0  0  0  0  0  0  0  0  0  0  0  0
   -2.1362    3.1629   -0.7951 H   0  0  0  0  0  0  0  0  0  0  0  0
    1.1027    3.5528    0.2684 H   0  0  0  0  0  0  0  0  0  0  0  0
    2.4594    1.9976    1.5933 H   0  0  0  0  0  0  0  0  0  0  0  0
    5.0176   -0.1026    1.8224 H   0  0  0  0  0  0  0  0  0  0  0  0
    6.7937   -0.9242    0.3102 H   0  0  0  0  0  0  0  0  0  0  0  0
    4.0196   -3.6980   -1.4718 H   0  0  0  0  0  0  0  0  0  0  0  0
    2.2313   -2.8925    0.0355 H   0  0  0  0  0  0  0  0  0  0  0  0
   -0.1909   -1.2383    0.5380 H   0  0  0  0  0  0  0  0  0  0  0  0
   -4.2981    0.3684    1.8000 H   0  0  0  0  0  0  0  0  0  0  0  0
   -4.1037    1.4628    0.4154 H   0  0  0  0  0  0  0  0  0  0  0  0
   -2.7621    1.1834    1.5563 H   0  0  0  0  0  0  0  0  0  0  0  0
   -3.7937   -2.2907   -0.5487 H   0  0  0  0  0  0  0  0  0  0  0  0
   -4.7833   -1.6544    0.7339 H   0  0  0  0  0  0  0  0  0  0  0  0
   -5.7604   -0.8628   -2.9194 H   0  0  0  0  0  0  0  0  0  0  0  0
  1  2  1  0
  2  3  2  0
  3  4  1  0
  4  5  2  0
  5  6  1  0
  6  7  2  0
  6  8  2  0
  6  9  1  0
  9 10  2  0
 10 11  1  0
 11 12  2  0
 12 13  1  0
 12 14  1  0
 14 15  2  0
  5 16  1  0
 16 17  2  0
 17 18  1  0
 18 19  2  0
 18 20  2  0
 18 21  1  0
 21 22  1  0
 21 23  1  0
 23 24  1  0
 24 25  2  0
 24 26  1  0
 17  2  1  0
 15  9  1  0
  1 27  1  0
  1 28  1  0
  1 29  1  0
  3 30  1  0
  4 31  1  0
 10 32  1  0
 11 33  1  0
 14 34  1  0
 15 35  1  0
 16 36  1  0
 22 37  1  0
 22 38  1  0
 22 39  1  0
 23 40  1  0
 23 41  1  0
 26 42  1  0
M  END
$$$$
