
     RDKit          3D

 43 45  0  0  0  0  0  0  0  0999 V2000
    6.4980   -2.2465   -0.3812 C   0  0  0  0  0  0  0  0  0  0  0  0
    5.7030   -0.9765   -0.3228 C   0  0  0  0  0  0  0  0  0  0  0  0
    6.3401    0.2573   -0.1573 C   0  0  0  0  0  0  0  0  0  0  0  0
    5.5947    1.4401   -0.0961 C   0  0  0  0  0  0  0  0  0  0  0  0
    4.1969    1.4110   -0.1839 C   0  0  0  0  0  0  0  0  0  0  0  0
    3.4065    2.6859   -0.1301 C   0  0  0  0  0  0  0  0  0  0  0  0
    3.5645    0.1682   -0.2988 C   0  0  0  0  0  0  0  0  0  0  0  0
    2.1977    0.1031   -0.3948 O   0  0  0  0  0  0  0  0  0  0  0  0
    1.6338   -0.2501    0.8740 C   0  0  0  0  0  0  0  0  0  0  0  0
    0.1666   -0.3032    0.6849 C   0  0  0  0  0  0  0  0  0  0  0  0
   -0.6706   -1.0208   -0.1329 C   0  0  0  0  0  0  0  0  0  0  0  0
   -1.9842   -0.5976    0.2193 C   0  0  0  0  0  0  0  0  0  0  0  0
   -3.2324   -1.1200   -0.3647 C   0  0  0  0  0  0  0  0  0  0  0  0
   -3.1905   -2.1456   -1.0496 O   0  0  0  0  0  0  0  0  0  0  0  0
   -4.4572   -0.4680   -0.1464 N   0  0  0  0  0  0  0  0  0  0  0  0
   -5.6341   -1.0371   -0.8006 C   0  0  0  0  0  0  0  0  0  0  0  0
   -6.9259   -0.5832   -0.1321 C   0  0  0  0  0  0  0  0  0  0  0  0
   -7.0107    0.8561   -0.1024 N   0  0  0  0  0  0  0  0  0  0  0  0
   -5.9252    1.6282    0.2135 C   0  0  0  0  0  0  0  0  0  0  0  0
   -6.0733    2.8267    0.4417 O   0  0  0  0  0  0  0  0  0  0  0  0
   -4.5560    0.9305    0.3083 C   0  0  0  0  0  0  0  0  0  0  0  0
   -1.9219    0.3092    1.2085 N   0  0  0  0  0  0  0  0  0  0  0  0
   -0.5830    0.5011    1.4838 O   0  0  0  0  0  0  0  0  0  0  0  0
    4.3059   -1.0135   -0.3878 C   0  0  0  0  0  0  0  0  0  0  0  0
    7.5217   -2.0576   -0.7213 H   0  0  0  0  0  0  0  0  0  0  0  0
    6.5364   -2.7102    0.6095 H   0  0  0  0  0  0  0  0  0  0  0  0
    6.0470   -2.9502   -1.0881 H   0  0  0  0  0  0  0  0  0  0  0  0
    7.4251    0.3102   -0.0881 H   0  0  0  0  0  0  0  0  0  0  0  0
    6.1187    2.3872    0.0143 H   0  0  0  0  0  0  0  0  0  0  0  0
    4.0595    3.5636   -0.1948 H   0  0  0  0  0  0  0  0  0  0  0  0
    2.8526    2.7457    0.8118 H   0  0  0  0  0  0  0  0  0  0  0  0
    2.7037    2.7400   -0.9687 H   0  0  0  0  0  0  0  0  0  0  0  0
    1.8975    0.4976    1.6318 H   0  0  0  0  0  0  0  0  0  0  0  0
    1.9897   -1.2350    1.1996 H   0  0  0  0  0  0  0  0  0  0  0  0
   -0.3917   -1.7515   -0.8789 H   0  0  0  0  0  0  0  0  0  0  0  0
   -5.6088   -0.7113   -1.8477 H   0  0  0  0  0  0  0  0  0  0  0  0
   -5.5784   -2.1309   -0.7887 H   0  0  0  0  0  0  0  0  0  0  0  0
   -7.7994   -0.9629   -0.6699 H   0  0  0  0  0  0  0  0  0  0  0  0
   -6.9701   -0.9353    0.9044 H   0  0  0  0  0  0  0  0  0  0  0  0
   -7.9072    1.3238   -0.0393 H   0  0  0  0  0  0  0  0  0  0  0  0
   -3.8478    1.5279   -0.2761 H   0  0  0  0  0  0  0  0  0  0  0  0
   -4.2818    0.9545    1.3673 H   0  0  0  0  0  0  0  0  0  0  0  0
    3.7906   -1.9609   -0.5180 H   0  0  0  0  0  0  0  0  0  0  0  0
  1  2  1  0
  2  3  2  0
  3  4  1  0
  4  5  2  0
  5  6  1  0
  5  7  1  0
  7  8  1  0
  8  9  1  0
  9 10  1  0
 10 11  2  0
 11 12  1  0
 12 13  1  0
 13 14  2  0
 13 15  1  0
 15 16  1  0
 16 17  1  0
 17 18  1  0
 18 19  1  0
 19 20  2  0
 19 21  1  0
 12 22  2  0
 22 23  1  0
  7 24  2  0
 24  2  1  0
 23 10  1  0
 21 15  1  0
  1 25  1  0
  1 26  1  0
  1 27  1  0
  3 28  1  0
  4 29  1  0
  6 30  1  0
  6 31  1  0
  6 32  1  0
  9 33  1  0
  9 34  1  0
 11 35  1  0
 16 36  1  0
 16 37  1  0
 17 38  1  0
 17 39  1  0
 18 40  1  0
 21 41  1  0
 21 42  1  0
 24 43  1  0
M  END
$$$$
