
     RDKit          3D

 59 62  0  0  0  0  0  0  0  0999 V2000
    2.5951    1.2564   -3.1140 O   0  0  0  0  0  0  0  0  0  0  0  0
    1.6270    0.8373   -2.4822 C   0  0  0  0  0  0  0  0  0  0  0  0
    0.5203    0.4432   -3.1750 N   0  0  0  0  0  0  0  0  0  0  0  0
   -0.5343   -0.2661   -2.6824 C   0  0  0  0  0  0  0  0  0  0  0  0
   -1.3235   -0.8193   -3.4438 O   0  0  0  0  0  0  0  0  0  0  0  0
   -0.6920   -0.2362   -1.1782 C   0  0  0  0  0  0  0  0  0  0  0  0
   -1.4626    1.0823   -0.8582 C   0  0  0  0  0  0  0  0  0  0  0  0
   -1.8631    1.2638    0.6137 C   0  0  0  0  0  0  0  0  0  0  0  0
   -2.4135    2.6455    0.8633 C   0  0  0  0  0  0  0  0  0  0  0  0
   -1.6121    3.6426    1.4263 C   0  0  0  0  0  0  0  0  0  0  0  0
   -2.1574    4.9030    1.6188 C   0  0  0  0  0  0  0  0  0  0  0  0
   -3.4244    5.2325    1.2890 N   0  0  0  0  0  0  0  0  0  0  0  0
   -4.1824    4.2554    0.7467 C   0  0  0  0  0  0  0  0  0  0  0  0
   -3.7292    2.9654    0.5158 C   0  0  0  0  0  0  0  0  0  0  0  0
   -1.4930   -1.4742   -0.6969 C   0  0  0  0  0  0  0  0  0  0  0  0
   -0.8535   -2.8267   -1.0591 C   0  0  0  0  0  0  0  0  0  0  0  0
   -1.6531   -3.9737   -0.4952 C   0  0  0  0  0  0  0  0  0  0  0  0
   -2.6816   -4.5605   -1.2360 C   0  0  0  0  0  0  0  0  0  0  0  0
   -3.4008   -5.5992   -0.6649 C   0  0  0  0  0  0  0  0  0  0  0  0
   -3.1711   -6.0813    0.5754 N   0  0  0  0  0  0  0  0  0  0  0  0
   -2.1760   -5.4963    1.2760 C   0  0  0  0  0  0  0  0  0  0  0  0
   -1.4013   -4.4529    0.7929 C   0  0  0  0  0  0  0  0  0  0  0  0
    0.6681   -0.1532   -0.4962 C   0  0  0  0  0  0  0  0  0  0  0  0
    0.8845   -0.7474    0.5607 O   0  0  0  0  0  0  0  0  0  0  0  0
    1.6037    0.6741   -1.1073 N   0  0  0  0  0  0  0  0  0  0  0  0
    2.8378    1.0230   -0.3742 C   0  0  0  0  0  0  0  0  0  0  0  0
    3.7880   -0.1824   -0.2108 C   0  0  0  0  0  0  0  0  0  0  0  0
    4.2977   -0.3575    1.2180 C   0  0  0  0  0  0  0  0  0  0  0  0
    4.8291    0.9505    1.7951 C   0  0  0  0  0  0  0  0  0  0  0  0
    3.8501    2.1202    1.6671 C   0  0  0  0  0  0  0  0  0  0  0  0
    2.5525    1.7549    0.9501 C   0  0  0  0  0  0  0  0  0  0  0  0
    0.6174    0.4579   -4.1816 H   0  0  0  0  0  0  0  0  0  0  0  0
   -2.3700    1.1273   -1.4777 H   0  0  0  0  0  0  0  0  0  0  0  0
   -0.8602    1.9479   -1.1689 H   0  0  0  0  0  0  0  0  0  0  0  0
   -2.6244    0.5296    0.9019 H   0  0  0  0  0  0  0  0  0  0  0  0
   -1.0058    1.0950    1.2749 H   0  0  0  0  0  0  0  0  0  0  0  0
   -0.5843    3.4499    1.7157 H   0  0  0  0  0  0  0  0  0  0  0  0
   -1.5701    5.7054    2.0567 H   0  0  0  0  0  0  0  0  0  0  0  0
   -5.1987    4.5448    0.4923 H   0  0  0  0  0  0  0  0  0  0  0  0
   -4.3946    2.2296    0.0748 H   0  0  0  0  0  0  0  0  0  0  0  0
   -2.5086   -1.4379   -1.1151 H   0  0  0  0  0  0  0  0  0  0  0  0
   -1.6135   -1.4380    0.3935 H   0  0  0  0  0  0  0  0  0  0  0  0
    0.1730   -2.8921   -0.6807 H   0  0  0  0  0  0  0  0  0  0  0  0
   -0.7772   -2.9500   -2.1452 H   0  0  0  0  0  0  0  0  0  0  0  0
   -2.9227   -4.2192   -2.2377 H   0  0  0  0  0  0  0  0  0  0  0  0
   -4.2070   -6.0842   -1.2077 H   0  0  0  0  0  0  0  0  0  0  0  0
   -2.0117   -5.8996    2.2712 H   0  0  0  0  0  0  0  0  0  0  0  0
   -0.6196   -4.0241    1.4120 H   0  0  0  0  0  0  0  0  0  0  0  0
    3.3794    1.7558   -0.9884 H   0  0  0  0  0  0  0  0  0  0  0  0
    3.3194   -1.1179   -0.5416 H   0  0  0  0  0  0  0  0  0  0  0  0
    4.6490   -0.0364   -0.8777 H   0  0  0  0  0  0  0  0  0  0  0  0
    5.0877   -1.1171    1.2367 H   0  0  0  0  0  0  0  0  0  0  0  0
    3.4874   -0.7366    1.8537 H   0  0  0  0  0  0  0  0  0  0  0  0
    5.0893    0.8024    2.8508 H   0  0  0  0  0  0  0  0  0  0  0  0
    5.7663    1.2146    1.2871 H   0  0  0  0  0  0  0  0  0  0  0  0
    3.6141    2.5162    2.6627 H   0  0  0  0  0  0  0  0  0  0  0  0
    4.3448    2.9383    1.1267 H   0  0  0  0  0  0  0  0  0  0  0  0
    1.9739    2.6661    0.7527 H   0  0  0  0  0  0  0  0  0  0  0  0
    1.9376    1.1495    1.6247 H   0  0  0  0  0  0  0  0  0  0  0  0
  1  2  2  0
  2  3  1  0
  3  4  1  0
  4  5  2  0
  4  6  1  0
  6  7  1  0
  7  8  1  0
  8  9  1  0
  9 10  2  0
 10 11  1  0
 11 12  2  0
 12 13  1  0
 13 14  2  0
  6 15  1  0
 15 16  1  0
 16 17  1  0
 17 18  2  0
 18 19  1  0
 19 20  2  0
 20 21  1  0
 21 22  2  0
  6 23  1  0
 23 24  2  0
 23 25  1  0
 25 26  1  0
 26 27  1  0
 27 28  1  0
 28 29  1  0
 29 30  1  0
 30 31  1  0
 25  2  1  0
 31 26  1  0
 14  9  1  0
 22 17  1  0
  3 32  1  0
  7 33  1  0
  7 34  1  0
  8 35  1  0
  8 36  1  0
 10 37  1  0
 11 38  1  0
 13 39  1  0
 14 40  1  0
 15 41  1  0
 15 42  1  0
 16 43  1  0
 16 44  1  0
 18 45  1  0
 19 46  1  0
 21 47  1  0
 22 48  1  0
 26 49  1  0
 27 50  1  0
 27 51  1  0
 28 52  1  0
 28 53  1  0
 29 54  1  0
 29 55  1  0
 30 56  1  0
 30 57  1  0
 31 58  1  0
 31 59  1  0
M  END
$$$$
