
     RDKit          3D

 48 50  0  0  0  0  0  0  0  0999 V2000
   -4.1467   -3.0281   -0.2566 C   0  0  0  0  0  0  0  0  0  0  0  0
   -4.9963   -1.8179   -0.6258 C   0  0  0  0  0  0  0  0  0  0  0  0
   -4.4072   -0.4446   -0.2342 C   0  0  0  0  0  0  0  0  0  0  0  0
   -3.0781   -0.2069   -0.7783 N   0  0  0  0  0  0  0  0  0  0  0  0
   -2.8804    0.0030   -2.1342 C   0  0  0  0  0  0  0  0  0  0  0  0
   -3.7966   -0.0838   -2.9471 O   0  0  0  0  0  0  0  0  0  0  0  0
   -1.5026    0.3529   -2.5096 C   0  0  0  0  0  0  0  0  0  0  0  0
   -0.3135    0.2641   -1.7352 C   0  0  0  0  0  0  0  0  0  0  0  0
    0.6858    0.7128   -2.5648 C   0  0  0  0  0  0  0  0  0  0  0  0
    2.1511    0.8911   -2.4398 C   0  0  0  0  0  0  0  0  0  0  0  0
    2.4901    0.5823   -1.0896 O   0  0  0  0  0  0  0  0  0  0  0  0
    3.7985    0.7102   -0.7087 C   0  0  0  0  0  0  0  0  0  0  0  0
    4.8463    1.0573   -1.5632 C   0  0  0  0  0  0  0  0  0  0  0  0
    6.1518    1.1569   -1.0686 C   0  0  0  0  0  0  0  0  0  0  0  0
    6.4335    0.9133    0.2779 C   0  0  0  0  0  0  0  0  0  0  0  0
    7.7506    1.0466    0.6181 O   0  0  0  0  0  0  0  0  0  0  0  0
    8.0949    0.8020    1.9768 C   0  0  0  0  0  0  0  0  0  0  0  0
    5.3943    0.5654    1.1370 C   0  0  0  0  0  0  0  0  0  0  0  0
    4.0875    0.4642    0.6444 C   0  0  0  0  0  0  0  0  0  0  0  0
    2.8352    0.0251    1.7585 Cl  0  0  0  0  0  0  0  0  0  0  0  0
    0.1438    1.0496   -3.7634 O   0  0  0  0  0  0  0  0  0  0  0  0
   -1.2163    0.8223   -3.7367 N   0  0  0  0  0  0  0  0  0  0  0  0
   -4.4313   -0.2112    1.2676 C   0  0  0  0  0  0  0  0  0  0  0  0
   -3.4610   -0.7409    2.1277 C   0  0  0  0  0  0  0  0  0  0  0  0
   -3.5577   -0.4867    3.4880 C   0  0  0  0  0  0  0  0  0  0  0  0
   -4.5395    0.2504    4.0457 N   0  0  0  0  0  0  0  0  0  0  0  0
   -5.4705    0.7503    3.2075 C   0  0  0  0  0  0  0  0  0  0  0  0
   -5.4608    0.5496    1.8353 C   0  0  0  0  0  0  0  0  0  0  0  0
   -4.5957   -3.9362   -0.6728 H   0  0  0  0  0  0  0  0  0  0  0  0
   -3.1316   -2.9462   -0.6564 H   0  0  0  0  0  0  0  0  0  0  0  0
   -4.0881   -3.1641    0.8265 H   0  0  0  0  0  0  0  0  0  0  0  0
   -5.9886   -1.9347   -0.1717 H   0  0  0  0  0  0  0  0  0  0  0  0
   -5.1539   -1.8460   -1.7104 H   0  0  0  0  0  0  0  0  0  0  0  0
   -5.0504    0.3184   -0.6946 H   0  0  0  0  0  0  0  0  0  0  0  0
   -2.3754    0.1477   -0.1460 H   0  0  0  0  0  0  0  0  0  0  0  0
   -0.1873   -0.0874   -0.7219 H   0  0  0  0  0  0  0  0  0  0  0  0
    2.4113    1.9305   -2.6708 H   0  0  0  0  0  0  0  0  0  0  0  0
    2.6582    0.2044   -3.1271 H   0  0  0  0  0  0  0  0  0  0  0  0
    4.6937    1.2544   -2.6195 H   0  0  0  0  0  0  0  0  0  0  0  0
    6.9617    1.4278   -1.7434 H   0  0  0  0  0  0  0  0  0  0  0  0
    7.6026    1.5188    2.6424 H   0  0  0  0  0  0  0  0  0  0  0  0
    7.8628   -0.2295    2.2631 H   0  0  0  0  0  0  0  0  0  0  0  0
    9.1757    0.9407    2.0778 H   0  0  0  0  0  0  0  0  0  0  0  0
    5.5697    0.3682    2.1889 H   0  0  0  0  0  0  0  0  0  0  0  0
   -2.6442   -1.3521    1.7577 H   0  0  0  0  0  0  0  0  0  0  0  0
   -2.8255   -0.8841    4.1853 H   0  0  0  0  0  0  0  0  0  0  0  0
   -6.2525    1.3368    3.6813 H   0  0  0  0  0  0  0  0  0  0  0  0
   -6.2473    0.9833    1.2253 H   0  0  0  0  0  0  0  0  0  0  0  0
  1  2  1  0
  2  3  1  0
  3  4  1  0
  4  5  1  0
  5  6  2  0
  5  7  1  0
  7  8  1  0
  8  9  2  0
  9 10  1  0
 10 11  1  0
 11 12  1  0
 12 13  2  0
 13 14  1  0
 14 15  2  0
 15 16  1  0
 16 17  1  0
 15 18  1  0
 18 19  2  0
 19 20  1  0
  9 21  1  0
 21 22  1  0
  3 23  1  0
 23 24  2  0
 24 25  1  0
 25 26  2  0
 26 27  1  0
 27 28  2  0
 22  7  2  0
 28 23  1  0
 19 12  1  0
  1 29  1  0
  1 30  1  0
  1 31  1  0
  2 32  1  0
  2 33  1  0
  3 34  1  0
  4 35  1  0
  8 36  1  0
 10 37  1  0
 10 38  1  0
 13 39  1  0
 14 40  1  0
 17 41  1  0
 17 42  1  0
 17 43  1  0
 18 44  1  0
 24 45  1  0
 25 46  1  0
 27 47  1  0
 28 48  1  0
M  END
$$$$
