
     RDKit          3D

 39 40  0  0  0  0  0  0  0  0999 V2000
   -3.9041    1.5221    1.5964 C   0  0  0  0  0  0  0  0  0  0  0  0
   -3.3358    0.2561    2.2187 C   0  0  0  0  0  0  0  0  0  0  0  0
   -2.0748   -0.2533    1.5167 C   0  0  0  0  0  0  0  0  0  0  0  0
   -2.3266   -0.7100    0.0770 C   0  0  0  0  0  0  0  0  0  0  0  0
   -1.1399   -1.3454   -0.4907 N   0  0  0  0  0  0  0  0  0  0  0  0
   -1.1910   -2.2363   -1.5232 C   0  0  0  0  0  0  0  0  0  0  0  0
   -2.0551   -3.2644   -1.4545 N   0  0  0  0  0  0  0  0  0  0  0  0
   -0.3429   -2.1144   -2.5019 N   0  0  0  0  0  0  0  0  0  0  0  0
    0.3934   -0.8619   -2.1850 C   0  0  0  0  0  0  0  0  0  0  0  0
    0.0364   -0.4936   -0.7307 C   0  0  0  0  0  0  0  0  0  0  0  0
    1.1559   -0.8646    0.2584 C   0  0  0  0  0  0  0  0  0  0  0  0
    2.3037    0.1193    0.2435 C   0  0  0  0  0  0  0  0  0  0  0  0
    3.5103   -0.2027   -0.3926 C   0  0  0  0  0  0  0  0  0  0  0  0
    4.5632    0.7129   -0.4149 C   0  0  0  0  0  0  0  0  0  0  0  0
    4.4147    1.9494    0.2003 C   0  0  0  0  0  0  0  0  0  0  0  0
    5.4691    2.8125    0.1550 O   0  0  0  0  0  0  0  0  0  0  0  0
    3.2276    2.2881    0.8408 C   0  0  0  0  0  0  0  0  0  0  0  0
    2.1732    1.3722    0.8619 C   0  0  0  0  0  0  0  0  0  0  0  0
   -4.2733    1.3399    0.5829 H   0  0  0  0  0  0  0  0  0  0  0  0
   -3.1480    2.3124    1.5531 H   0  0  0  0  0  0  0  0  0  0  0  0
   -4.7445    1.8896    2.1939 H   0  0  0  0  0  0  0  0  0  0  0  0
   -3.0902    0.4627    3.2672 H   0  0  0  0  0  0  0  0  0  0  0  0
   -4.1039   -0.5259    2.2218 H   0  0  0  0  0  0  0  0  0  0  0  0
   -1.3094    0.5313    1.5389 H   0  0  0  0  0  0  0  0  0  0  0  0
   -1.6752   -1.0955    2.0958 H   0  0  0  0  0  0  0  0  0  0  0  0
   -3.1702   -1.4079    0.0866 H   0  0  0  0  0  0  0  0  0  0  0  0
   -2.6211    0.1359   -0.5547 H   0  0  0  0  0  0  0  0  0  0  0  0
   -2.0828   -3.7767   -2.3289 H   0  0  0  0  0  0  0  0  0  0  0  0
   -2.9740   -3.0585   -1.0988 H   0  0  0  0  0  0  0  0  0  0  0  0
    0.0525   -0.0790   -2.8725 H   0  0  0  0  0  0  0  0  0  0  0  0
    1.4649   -1.0083   -2.3450 H   0  0  0  0  0  0  0  0  0  0  0  0
   -0.2096    0.5735   -0.6682 H   0  0  0  0  0  0  0  0  0  0  0  0
    0.7616   -0.9029    1.2820 H   0  0  0  0  0  0  0  0  0  0  0  0
    1.5258   -1.8792    0.0585 H   0  0  0  0  0  0  0  0  0  0  0  0
    3.6401   -1.1692   -0.8758 H   0  0  0  0  0  0  0  0  0  0  0  0
    5.4968    0.4603   -0.9095 H   0  0  0  0  0  0  0  0  0  0  0  0
    5.2286    3.6209    0.6358 H   0  0  0  0  0  0  0  0  0  0  0  0
    3.1054    3.2505    1.3270 H   0  0  0  0  0  0  0  0  0  0  0  0
    1.2492    1.6398    1.3699 H   0  0  0  0  0  0  0  0  0  0  0  0
  1  2  1  0
  2  3  1  0
  3  4  1  0
  4  5  1  0
  5  6  1  0
  6  7  1  0
  6  8  2  0
  8  9  1  0
  9 10  1  0
 10 11  1  0
 11 12  1  0
 12 13  2  0
 13 14  1  0
 14 15  2  0
 15 16  1  0
 15 17  1  0
 17 18  2  0
 10  5  1  0
 18 12  1  0
  1 19  1  0
  1 20  1  0
  1 21  1  0
  2 22  1  0
  2 23  1  0
  3 24  1  0
  3 25  1  0
  4 26  1  0
  4 27  1  0
  7 28  1  0
  7 29  1  0
  9 30  1  0
  9 31  1  0
 10 32  1  0
 11 33  1  0
 11 34  1  0
 13 35  1  0
 14 36  1  0
 16 37  1  0
 17 38  1  0
 18 39  1  0
M  END
$$$$
