
     RDKit          3D

 41 43  0  0  0  0  0  0  0  0999 V2000
   -2.8956   -3.3505    3.6228 C   0  0  0  0  0  0  0  0  0  0  0  0
   -3.5905   -2.0205    3.3716 C   0  0  0  0  0  0  0  0  0  0  0  0
   -2.6302   -0.8306    3.2648 C   0  0  0  0  0  0  0  0  0  0  0  0
   -1.6623   -0.9506    2.0876 C   0  0  0  0  0  0  0  0  0  0  0  0
   -0.7753    0.6172    1.8560 S   0  0  0  0  0  0  0  0  0  0  0  0
    0.1481    0.2675    0.4241 C   0  0  0  0  0  0  0  0  0  0  0  0
    0.2950   -0.9572    0.0186 N   0  0  0  0  0  0  0  0  0  0  0  0
    0.9759   -0.8519   -1.1728 C   0  0  0  0  0  0  0  0  0  0  0  0
    1.3146   -1.9315   -1.8939 C   0  0  0  0  0  0  0  0  0  0  0  0
    2.0249   -2.0344   -3.1303 C   0  0  0  0  0  0  0  0  0  0  0  0
    1.6755   -2.9609   -4.1624 C   0  0  0  0  0  0  0  0  0  0  0  0
    2.5357   -2.9011   -5.2371 C   0  0  0  0  0  0  0  0  0  0  0  0
    3.7753   -1.7487   -5.0003 S   0  0  0  0  0  0  0  0  0  0  0  0
    3.1671   -1.3329   -3.4525 C   0  0  0  0  0  0  0  0  0  0  0  0
    1.2082    0.5960   -1.4760 C   0  0  0  0  0  0  0  0  0  0  0  0
    1.7550    1.0494   -2.4638 O   0  0  0  0  0  0  0  0  0  0  0  0
    0.6856    1.2410   -0.3751 N   0  0  0  0  0  0  0  0  0  0  0  0
    0.7440    2.6504   -0.1956 C   0  0  0  0  0  0  0  0  0  0  0  0
    0.8932    3.2364    1.0698 C   0  0  0  0  0  0  0  0  0  0  0  0
    0.9443    4.6279    1.2259 C   0  0  0  0  0  0  0  0  0  0  0  0
    0.8550    5.4605    0.1148 C   0  0  0  0  0  0  0  0  0  0  0  0
    0.7375    4.9018   -1.1526 C   0  0  0  0  0  0  0  0  0  0  0  0
    0.6925    3.5109   -1.3052 C   0  0  0  0  0  0  0  0  0  0  0  0
   -2.2748   -3.3059    4.5227 H   0  0  0  0  0  0  0  0  0  0  0  0
   -2.2617   -3.6380    2.7780 H   0  0  0  0  0  0  0  0  0  0  0  0
   -3.6430   -4.1400    3.7607 H   0  0  0  0  0  0  0  0  0  0  0  0
   -4.2908   -1.8309    4.1940 H   0  0  0  0  0  0  0  0  0  0  0  0
   -4.1915   -2.0921    2.4565 H   0  0  0  0  0  0  0  0  0  0  0  0
   -2.0700   -0.7270    4.2029 H   0  0  0  0  0  0  0  0  0  0  0  0
   -3.2417    0.0747    3.1562 H   0  0  0  0  0  0  0  0  0  0  0  0
   -2.2134   -1.1888    1.1718 H   0  0  0  0  0  0  0  0  0  0  0  0
   -0.9331   -1.7456    2.2774 H   0  0  0  0  0  0  0  0  0  0  0  0
    0.9796   -2.8855   -1.4868 H   0  0  0  0  0  0  0  0  0  0  0  0
    0.8309   -3.6371   -4.1282 H   0  0  0  0  0  0  0  0  0  0  0  0
    2.5006   -3.4813   -6.1495 H   0  0  0  0  0  0  0  0  0  0  0  0
    3.6901   -0.5866   -2.8683 H   0  0  0  0  0  0  0  0  0  0  0  0
    1.0260    2.6337    1.9646 H   0  0  0  0  0  0  0  0  0  0  0  0
    1.0608    5.0553    2.2184 H   0  0  0  0  0  0  0  0  0  0  0  0
    0.8902    6.5410    0.2342 H   0  0  0  0  0  0  0  0  0  0  0  0
    0.6845    5.5439   -2.0275 H   0  0  0  0  0  0  0  0  0  0  0  0
    0.5840    3.1222   -2.3157 H   0  0  0  0  0  0  0  0  0  0  0  0
  1  2  1  0
  2  3  1  0
  3  4  1  0
  4  5  1  0
  5  6  1  0
  6  7  2  0
  7  8  1  0
  8  9  2  3
  9 10  1  0
 10 11  1  0
 11 12  2  0
 12 13  1  0
 13 14  1  0
  8 15  1  0
 15 16  2  0
 15 17  1  0
 17 18  1  0
 18 19  2  0
 19 20  1  0
 20 21  2  0
 21 22  1  0
 22 23  2  0
 17  6  1  0
 23 18  1  0
 14 10  2  0
  1 24  1  0
  1 25  1  0
  1 26  1  0
  2 27  1  0
  2 28  1  0
  3 29  1  0
  3 30  1  0
  4 31  1  0
  4 32  1  0
  9 33  1  0
 11 34  1  0
 12 35  1  0
 14 36  1  0
 19 37  1  0
 20 38  1  0
 21 39  1  0
 22 40  1  0
 23 41  1  0
M  END
$$$$
