
     RDKit          3D

 41 42  0  0  0  0  0  0  0  0999 V2000
   -3.1075   -0.2765    2.0474 C   0  0  0  0  0  0  0  0  0  0  0  0
   -2.7508   -0.6998    0.7383 O   0  0  0  0  0  0  0  0  0  0  0  0
   -2.8794    0.2117   -0.2767 C   0  0  0  0  0  0  0  0  0  0  0  0
   -3.5032    1.4576   -0.1518 C   0  0  0  0  0  0  0  0  0  0  0  0
   -3.5714    2.3282   -1.2430 C   0  0  0  0  0  0  0  0  0  0  0  0
   -3.0158    1.9629   -2.4653 C   0  0  0  0  0  0  0  0  0  0  0  0
   -2.3980    0.7214   -2.6016 C   0  0  0  0  0  0  0  0  0  0  0  0
   -2.3350   -0.1709   -1.5175 C   0  0  0  0  0  0  0  0  0  0  0  0
   -1.6387   -1.4971   -1.6955 C   0  0  0  0  0  0  0  0  0  0  0  0
   -0.2762   -1.4299   -1.2298 N   0  0  0  0  0  0  0  0  0  0  0  0
    0.6238   -2.4354   -1.5005 C   0  0  0  0  0  0  0  0  0  0  0  0
    0.4174   -3.3332   -2.3135 O   0  0  0  0  0  0  0  0  0  0  0  0
    1.9444   -2.2931   -0.7495 C   0  0  0  0  0  0  0  0  0  0  0  0
    1.6851   -1.9664    0.6195 O   0  0  0  0  0  0  0  0  0  0  0  0
    2.5805   -1.0313    1.0711 C   0  0  0  0  0  0  0  0  0  0  0  0
    3.7736   -1.4760    1.6411 C   0  0  0  0  0  0  0  0  0  0  0  0
    4.6854   -0.5470    2.1348 C   0  0  0  0  0  0  0  0  0  0  0  0
    4.3931    0.8152    2.0681 C   0  0  0  0  0  0  0  0  0  0  0  0
    3.1860    1.2561    1.5122 C   0  0  0  0  0  0  0  0  0  0  0  0
    2.2641    0.3346    1.0111 C   0  0  0  0  0  0  0  0  0  0  0  0
    1.0528    0.6472    0.4529 O   0  0  0  0  0  0  0  0  0  0  0  0
    0.7448    2.0269    0.3001 C   0  0  0  0  0  0  0  0  0  0  0  0
   -2.5337    0.6058    2.3497 H   0  0  0  0  0  0  0  0  0  0  0  0
   -4.1843   -0.0942    2.1208 H   0  0  0  0  0  0  0  0  0  0  0  0
   -2.8601   -1.0872    2.7398 H   0  0  0  0  0  0  0  0  0  0  0  0
   -3.9511    1.7806    0.7820 H   0  0  0  0  0  0  0  0  0  0  0  0
   -4.0594    3.2935   -1.1364 H   0  0  0  0  0  0  0  0  0  0  0  0
   -3.0644    2.6419   -3.3128 H   0  0  0  0  0  0  0  0  0  0  0  0
   -1.9605    0.4465   -3.5597 H   0  0  0  0  0  0  0  0  0  0  0  0
   -1.6428   -1.7995   -2.7496 H   0  0  0  0  0  0  0  0  0  0  0  0
   -2.1558   -2.2930   -1.1472 H   0  0  0  0  0  0  0  0  0  0  0  0
   -0.0977   -0.8926   -0.3827 H   0  0  0  0  0  0  0  0  0  0  0  0
    2.4643   -3.2566   -0.7761 H   0  0  0  0  0  0  0  0  0  0  0  0
    2.5491   -1.5416   -1.2745 H   0  0  0  0  0  0  0  0  0  0  0  0
    3.9867   -2.5392    1.7037 H   0  0  0  0  0  0  0  0  0  0  0  0
    5.6191   -0.8835    2.5780 H   0  0  0  0  0  0  0  0  0  0  0  0
    5.1041    1.5398    2.4583 H   0  0  0  0  0  0  0  0  0  0  0  0
    2.9963    2.3242    1.4931 H   0  0  0  0  0  0  0  0  0  0  0  0
   -0.2208    2.1008   -0.2066 H   0  0  0  0  0  0  0  0  0  0  0  0
    0.6493    2.5179    1.2737 H   0  0  0  0  0  0  0  0  0  0  0  0
    1.4866    2.5312   -0.3277 H   0  0  0  0  0  0  0  0  0  0  0  0
  1  2  1  0
  2  3  1  0
  3  4  2  0
  4  5  1  0
  5  6  2  0
  6  7  1  0
  7  8  2  0
  8  9  1  0
  9 10  1  0
 10 11  1  0
 11 12  2  0
 11 13  1  0
 13 14  1  0
 14 15  1  0
 15 16  2  0
 16 17  1  0
 17 18  2  0
 18 19  1  0
 19 20  2  0
 20 21  1  0
 21 22  1  0
  8  3  1  0
 20 15  1  0
  1 23  1  0
  1 24  1  0
  1 25  1  0
  4 26  1  0
  5 27  1  0
  6 28  1  0
  7 29  1  0
  9 30  1  0
  9 31  1  0
 10 32  1  0
 13 33  1  0
 13 34  1  0
 16 35  1  0
 17 36  1  0
 18 37  1  0
 19 38  1  0
 22 39  1  0
 22 40  1  0
 22 41  1  0
M  END
$$$$
