
     RDKit          3D

 49 51  0  0  0  0  0  0  0  0999 V2000
   -8.2600    3.3774    4.1193 C   0  0  0  0  0  0  0  0  0  0  0  0
   -8.3037    2.6795    2.8814 O   0  0  0  0  0  0  0  0  0  0  0  0
   -7.1339    2.1300    2.4379 C   0  0  0  0  0  0  0  0  0  0  0  0
   -7.2313    1.4413    1.2285 C   0  0  0  0  0  0  0  0  0  0  0  0
   -6.1105    0.8282    0.6556 C   0  0  0  0  0  0  0  0  0  0  0  0
   -4.8712    0.8963    1.2892 C   0  0  0  0  0  0  0  0  0  0  0  0
   -3.6890    0.3147    0.7835 N   0  0  0  0  0  0  0  0  0  0  0  0
   -3.5536   -0.4412   -0.3684 C   0  0  0  0  0  0  0  0  0  0  0  0
   -4.4443   -0.7824   -1.1359 O   0  0  0  0  0  0  0  0  0  0  0  0
   -2.1503   -0.8797   -0.6259 C   0  0  0  0  0  0  0  0  0  0  0  0
   -1.9433   -2.2563   -0.9179 C   0  0  0  0  0  0  0  0  0  0  0  0
   -1.7360   -3.3821   -1.1113 N   0  0  0  0  0  0  0  0  0  0  0  0
   -1.1822    0.0579   -0.6529 C   0  0  0  0  0  0  0  0  0  0  0  0
    0.2436   -0.1700   -0.9255 C   0  0  0  0  0  0  0  0  0  0  0  0
    1.0029   -1.0965   -0.2016 C   0  0  0  0  0  0  0  0  0  0  0  0
    2.3674   -1.2676   -0.4700 C   0  0  0  0  0  0  0  0  0  0  0  0
    2.9902   -0.5039   -1.4562 C   0  0  0  0  0  0  0  0  0  0  0  0
    4.3074   -0.5677   -1.8156 O   0  0  0  0  0  0  0  0  0  0  0  0
    5.1139   -1.5530   -1.1655 C   0  0  0  0  0  0  0  0  0  0  0  0
    6.5317   -1.5101   -1.6812 C   0  0  0  0  0  0  0  0  0  0  0  0
    7.0739   -0.3879   -2.3238 C   0  0  0  0  0  0  0  0  0  0  0  0
    8.4039   -0.3902   -2.7555 C   0  0  0  0  0  0  0  0  0  0  0  0
    9.2107   -1.5075   -2.5411 C   0  0  0  0  0  0  0  0  0  0  0  0
    8.6887   -2.6227   -1.8899 C   0  0  0  0  0  0  0  0  0  0  0  0
    7.3633   -2.6131   -1.4638 C   0  0  0  0  0  0  0  0  0  0  0  0
    6.8838   -3.6906   -0.8249 F   0  0  0  0  0  0  0  0  0  0  0  0
    2.2380    0.4335   -2.1662 C   0  0  0  0  0  0  0  0  0  0  0  0
    0.8761    0.6042   -1.9027 C   0  0  0  0  0  0  0  0  0  0  0  0
   -4.7747    1.5897    2.5024 C   0  0  0  0  0  0  0  0  0  0  0  0
   -5.8976    2.2025    3.0747 C   0  0  0  0  0  0  0  0  0  0  0  0
   -7.9676    2.7115    4.9381 H   0  0  0  0  0  0  0  0  0  0  0  0
   -7.5956    4.2459    4.0592 H   0  0  0  0  0  0  0  0  0  0  0  0
   -9.2687    3.7440    4.3325 H   0  0  0  0  0  0  0  0  0  0  0  0
   -8.1913    1.3773    0.7208 H   0  0  0  0  0  0  0  0  0  0  0  0
   -6.2491    0.3083   -0.2870 H   0  0  0  0  0  0  0  0  0  0  0  0
   -2.8636    0.4446    1.3551 H   0  0  0  0  0  0  0  0  0  0  0  0
   -1.4385    1.1075   -0.5121 H   0  0  0  0  0  0  0  0  0  0  0  0
    0.5518   -1.7021    0.5817 H   0  0  0  0  0  0  0  0  0  0  0  0
    2.9088   -2.0067    0.1118 H   0  0  0  0  0  0  0  0  0  0  0  0
    4.6950   -2.5471   -1.3657 H   0  0  0  0  0  0  0  0  0  0  0  0
    5.1427   -1.3592   -0.0863 H   0  0  0  0  0  0  0  0  0  0  0  0
    6.4642    0.4970   -2.4960 H   0  0  0  0  0  0  0  0  0  0  0  0
    8.8099    0.4840   -3.2594 H   0  0  0  0  0  0  0  0  0  0  0  0
   10.2442   -1.5064   -2.8777 H   0  0  0  0  0  0  0  0  0  0  0  0
    9.3044   -3.4979   -1.7088 H   0  0  0  0  0  0  0  0  0  0  0  0
    2.7159    1.0341   -2.9369 H   0  0  0  0  0  0  0  0  0  0  0  0
    0.3193    1.3401   -2.4790 H   0  0  0  0  0  0  0  0  0  0  0  0
   -3.8256    1.6659    3.0268 H   0  0  0  0  0  0  0  0  0  0  0  0
   -5.7699    2.7265    4.0159 H   0  0  0  0  0  0  0  0  0  0  0  0
  1  2  1  0
  2  3  1  0
  3  4  2  0
  4  5  1  0
  5  6  2  0
  6  7  1  0
  7  8  1  0
  8  9  2  0
  8 10  1  0
 10 11  1  0
 11 12  3  0
 10 13  2  3
 13 14  1  0
 14 15  2  0
 15 16  1  0
 16 17  2  0
 17 18  1  0
 18 19  1  0
 19 20  1  0
 20 21  2  0
 21 22  1  0
 22 23  2  0
 23 24  1  0
 24 25  2  0
 25 26  1  0
 17 27  1  0
 27 28  2  0
  6 29  1  0
 29 30  2  0
 30  3  1  0
 28 14  1  0
 25 20  1  0
  1 31  1  0
  1 32  1  0
  1 33  1  0
  4 34  1  0
  5 35  1  0
  7 36  1  0
 13 37  1  0
 15 38  1  0
 16 39  1  0
 19 40  1  0
 19 41  1  0
 21 42  1  0
 22 43  1  0
 23 44  1  0
 24 45  1  0
 27 46  1  0
 28 47  1  0
 29 48  1  0
 30 49  1  0
M  END
$$$$
