
     RDKit          3D

 52 55  0  0  0  0  0  0  0  0999 V2000
    7.2855   -0.9267    3.1545 C   0  0  0  0  0  0  0  0  0  0  0  0
    6.9384   -1.4556    1.7763 C   0  0  0  0  0  0  0  0  0  0  0  0
    5.5952   -1.0610    1.4741 O   0  0  0  0  0  0  0  0  0  0  0  0
    5.1353   -1.5032    0.2674 C   0  0  0  0  0  0  0  0  0  0  0  0
    5.8084   -2.1788   -0.5052 O   0  0  0  0  0  0  0  0  0  0  0  0
    3.7715   -1.0391    0.0430 C   0  0  0  0  0  0  0  0  0  0  0  0
    3.1714   -1.1335   -1.5637 S   0  0  0  0  0  0  0  0  0  0  0  0
    1.6953   -0.4139   -1.1458 C   0  0  0  0  0  0  0  0  0  0  0  0
    0.7479   -0.1903   -2.0812 N   0  0  0  0  0  0  0  0  0  0  0  0
   -0.3564    0.3577   -1.6611 C   0  0  0  0  0  0  0  0  0  0  0  0
   -1.4832    0.6499   -2.6277 C   0  0  0  0  0  0  0  0  0  0  0  0
   -1.2599    0.3570   -4.3219 S   0  0  0  0  0  0  0  0  0  0  0  0
   -1.1606   -1.4573   -4.3447 C   0  0  0  0  0  0  0  0  0  0  0  0
   -1.1508   -1.9959   -5.7568 C   0  0  0  0  0  0  0  0  0  0  0  0
   -1.1872   -1.3886   -6.8144 O   0  0  0  0  0  0  0  0  0  0  0  0
   -1.0975   -3.3496   -5.7699 O   0  0  0  0  0  0  0  0  0  0  0  0
   -2.6212    1.1910   -2.1730 C   0  0  0  0  0  0  0  0  0  0  0  0
   -2.8164    1.4813   -0.7705 C   0  0  0  0  0  0  0  0  0  0  0  0
   -4.1161    2.0807   -0.3232 C   0  0  0  0  0  0  0  0  0  0  0  0
   -4.7908    2.7593   -1.0968 O   0  0  0  0  0  0  0  0  0  0  0  0
   -4.5863    1.9036    1.0708 C   0  0  0  0  0  0  0  0  0  0  0  0
   -5.0780    3.0365    1.7361 C   0  0  0  0  0  0  0  0  0  0  0  0
   -5.5383    2.9348    3.0504 C   0  0  0  0  0  0  0  0  0  0  0  0
   -5.5202    1.7001    3.7005 C   0  0  0  0  0  0  0  0  0  0  0  0
   -5.0601    0.5619    3.0347 C   0  0  0  0  0  0  0  0  0  0  0  0
   -4.6045    0.6621    1.7177 C   0  0  0  0  0  0  0  0  0  0  0  0
   -4.2001   -0.4668    1.0589 O   0  0  0  0  0  0  0  0  0  0  0  0
   -1.8029    1.2667    0.0818 C   0  0  0  0  0  0  0  0  0  0  0  0
   -0.5863    0.7121   -0.3170 N   0  0  0  0  0  0  0  0  0  0  0  0
    0.3986    0.5089    0.6704 C   0  0  0  0  0  0  0  0  0  0  0  0
    0.2543    0.8286    1.8501 O   0  0  0  0  0  0  0  0  0  0  0  0
    1.6220   -0.1211    0.1928 C   0  0  0  0  0  0  0  0  0  0  0  0
    2.8144   -0.5158    0.9154 C   0  0  0  0  0  0  0  0  0  0  0  0
    2.9876   -0.3680    2.3983 C   0  0  0  0  0  0  0  0  0  0  0  0
    6.5974   -1.3298    3.9038 H   0  0  0  0  0  0  0  0  0  0  0  0
    7.1886    0.1631    3.1876 H   0  0  0  0  0  0  0  0  0  0  0  0
    8.3061   -1.2023    3.4312 H   0  0  0  0  0  0  0  0  0  0  0  0
    7.0139   -2.5490    1.7722 H   0  0  0  0  0  0  0  0  0  0  0  0
    7.6238   -1.0335    1.0330 H   0  0  0  0  0  0  0  0  0  0  0  0
   -2.0322   -1.8702   -3.8264 H   0  0  0  0  0  0  0  0  0  0  0  0
   -0.2439   -1.7910   -3.8544 H   0  0  0  0  0  0  0  0  0  0  0  0
   -1.0757   -3.5659   -6.7280 H   0  0  0  0  0  0  0  0  0  0  0  0
   -3.4341    1.4426   -2.8502 H   0  0  0  0  0  0  0  0  0  0  0  0
   -5.1085    3.9986    1.2308 H   0  0  0  0  0  0  0  0  0  0  0  0
   -5.9173    3.8161    3.5637 H   0  0  0  0  0  0  0  0  0  0  0  0
   -5.8797    1.6252    4.7252 H   0  0  0  0  0  0  0  0  0  0  0  0
   -5.0754   -0.3895    3.5572 H   0  0  0  0  0  0  0  0  0  0  0  0
   -4.3827   -1.2418    1.6170 H   0  0  0  0  0  0  0  0  0  0  0  0
   -1.8857    1.5100    1.1374 H   0  0  0  0  0  0  0  0  0  0  0  0
    3.5377   -1.2169    2.8183 H   0  0  0  0  0  0  0  0  0  0  0  0
    2.0306   -0.3494    2.9252 H   0  0  0  0  0  0  0  0  0  0  0  0
    3.5279    0.5565    2.6265 H   0  0  0  0  0  0  0  0  0  0  0  0
  1  2  1  0
  2  3  1  0
  3  4  1  0
  4  5  2  0
  4  6  1  0
  6  7  1  0
  7  8  1  0
  8  9  1  0
  9 10  2  0
 10 11  1  0
 11 12  1  0
 12 13  1  0
 13 14  1  0
 14 15  2  0
 14 16  1  0
 11 17  2  0
 17 18  1  0
 18 19  1  0
 19 20  2  0
 19 21  1  0
 21 22  2  0
 22 23  1  0
 23 24  2  0
 24 25  1  0
 25 26  2  0
 26 27  1  0
 18 28  2  0
 28 29  1  0
 29 30  1  0
 30 31  2  0
 30 32  1  0
 32 33  1  0
 33 34  1  0
 33  6  2  0
 32  8  2  0
 29 10  1  0
 26 21  1  0
  1 35  1  0
  1 36  1  0
  1 37  1  0
  2 38  1  0
  2 39  1  0
 13 40  1  0
 13 41  1  0
 16 42  1  0
 17 43  1  0
 22 44  1  0
 23 45  1  0
 24 46  1  0
 25 47  1  0
 27 48  1  0
 28 49  1  0
 34 50  1  0
 34 51  1  0
 34 52  1  0
M  END
$$$$
