
     RDKit          3D

 28 29  0  0  0  0  0  0  0  0999 V2000
   -3.6021    1.6368    1.9085 O   0  0  0  0  0  0  0  0  0  0  0  0
   -3.6247    0.5312    1.3544 N   0  0  0  0  0  4  0  0  0  0  0  0
   -3.9885   -0.5353    1.8656 O   0  0  0  0  0  1  0  0  0  0  0  0
   -3.1440    0.4683   -0.0039 C   0  0  0  0  0  0  0  0  0  0  0  0
   -1.8926   -0.1198   -0.2256 C   0  0  0  0  0  0  0  0  0  0  0  0
   -1.4062   -0.1870   -1.5322 C   0  0  0  0  0  0  0  0  0  0  0  0
   -0.1110   -0.8236   -1.8499 C   0  0  0  0  0  0  0  0  0  0  0  0
    1.0054   -0.7805   -1.1855 N   0  0  0  0  0  0  0  0  0  0  0  0
    1.0698    0.0446   -0.1066 N   0  0  0  0  0  0  0  0  0  0  0  0
    2.2602    0.0687    0.6443 C   0  0  0  0  0  0  0  0  0  0  0  0
    3.0358   -1.0742    0.8217 C   0  0  0  0  0  0  0  0  0  0  0  0
    4.1865   -1.0035    1.6031 C   0  0  0  0  0  0  0  0  0  0  0  0
    4.5287    0.2044    2.1940 C   0  0  0  0  0  0  0  0  0  0  0  0
    3.6991    1.2909    1.9775 C   0  0  0  0  0  0  0  0  0  0  0  0
    2.5771    1.2479    1.2239 N   0  0  0  0  0  0  0  0  0  0  0  0
   -2.1786    0.2936   -2.5967 C   0  0  0  0  0  0  0  0  0  0  0  0
   -3.4297    0.8741   -2.3527 C   0  0  0  0  0  0  0  0  0  0  0  0
   -3.9228    0.9672   -1.0480 C   0  0  0  0  0  0  0  0  0  0  0  0
   -5.4835    1.6638   -0.8213 Cl  0  0  0  0  0  0  0  0  0  0  0  0
   -1.3220   -0.5329    0.6041 H   0  0  0  0  0  0  0  0  0  0  0  0
   -0.0979   -1.4152   -2.7823 H   0  0  0  0  0  0  0  0  0  0  0  0
    0.7854    1.0192   -0.2130 H   0  0  0  0  0  0  0  0  0  0  0  0
    2.7446   -2.0087    0.3541 H   0  0  0  0  0  0  0  0  0  0  0  0
    4.8041   -1.8848    1.7472 H   0  0  0  0  0  0  0  0  0  0  0  0
    5.4163    0.2972    2.8092 H   0  0  0  0  0  0  0  0  0  0  0  0
    3.9200    2.2579    2.4203 H   0  0  0  0  0  0  0  0  0  0  0  0
   -1.8125    0.2296   -3.6201 H   0  0  0  0  0  0  0  0  0  0  0  0
   -4.0168    1.2478   -3.1900 H   0  0  0  0  0  0  0  0  0  0  0  0
  1  2  2  0
  2  3  1  0
  2  4  1  0
  4  5  2  0
  5  6  1  0
  6  7  1  0
  7  8  2  3
  8  9  1  0
  9 10  1  0
 10 11  2  0
 11 12  1  0
 12 13  2  0
 13 14  1  0
 14 15  2  0
  6 16  2  0
 16 17  1  0
 17 18  2  0
 18 19  1  0
 18  4  1  0
 15 10  1  0
  5 20  1  0
  7 21  1  0
  9 22  1  0
 11 23  1  0
 12 24  1  0
 13 25  1  0
 14 26  1  0
 16 27  1  0
 17 28  1  0
M  CHG  2   2   1   3  -1
M  END
$$$$
