
     RDKit          3D

 38 40  0  0  0  0  0  0  0  0999 V2000
    0.1518    2.0743   -2.2014 C   0  0  0  0  0  0  0  0  0  0  0  0
   -0.3072    2.2497   -0.7783 C   0  0  0  0  0  0  0  0  0  0  0  0
    0.1001    3.1669   -0.0681 O   0  0  0  0  0  0  0  0  0  0  0  0
   -1.2332    1.2672   -0.2002 C   0  0  0  0  0  0  0  0  0  0  0  0
   -1.0122    0.6654    1.0321 C   0  0  0  0  0  0  0  0  0  0  0  0
    0.2450    0.9080    1.8357 C   0  0  0  0  0  0  0  0  0  0  0  0
    1.4268    0.6891    1.0476 O   0  0  0  0  0  0  0  0  0  0  0  0
    1.8827   -0.5835    0.9925 C   0  0  0  0  0  0  0  0  0  0  0  0
    1.3705   -1.5517    1.5275 O   0  0  0  0  0  0  0  0  0  0  0  0
    3.1017   -0.6566    0.1420 C   0  0  0  0  0  0  0  0  0  0  0  0
    3.6914    0.4814   -0.4273 C   0  0  0  0  0  0  0  0  0  0  0  0
    4.8308    0.3550   -1.2256 C   0  0  0  0  0  0  0  0  0  0  0  0
    5.3860   -0.9029   -1.4582 C   0  0  0  0  0  0  0  0  0  0  0  0
    4.8063   -2.0382   -0.8935 C   0  0  0  0  0  0  0  0  0  0  0  0
    3.6674   -1.9168   -0.0952 C   0  0  0  0  0  0  0  0  0  0  0  0
   -1.9074   -0.1996    1.5713 N   0  0  0  0  0  0  0  0  0  0  0  0
   -3.0233   -0.5024    0.8972 C   0  0  0  0  0  0  0  0  0  0  0  0
   -3.9302   -1.3990    1.4468 C   0  0  0  0  0  0  0  0  0  0  0  0
   -5.1116   -1.7495    0.7854 C   0  0  0  0  0  0  0  0  0  0  0  0
   -5.4026   -1.1954   -0.4551 C   0  0  0  0  0  0  0  0  0  0  0  0
   -4.5084   -0.2946   -1.0266 C   0  0  0  0  0  0  0  0  0  0  0  0
   -3.3133    0.0570   -0.3565 C   0  0  0  0  0  0  0  0  0  0  0  0
   -2.3853    0.9680   -0.9038 N   0  0  0  0  0  4  0  0  0  0  0  0
   -2.6300    1.5124   -2.0401 O   0  0  0  0  0  1  0  0  0  0  0  0
    1.2322    2.2408   -2.2455 H   0  0  0  0  0  0  0  0  0  0  0  0
   -0.3563    2.7963   -2.8451 H   0  0  0  0  0  0  0  0  0  0  0  0
   -0.0367    1.0580   -2.5583 H   0  0  0  0  0  0  0  0  0  0  0  0
    0.2611    1.9455    2.1862 H   0  0  0  0  0  0  0  0  0  0  0  0
    0.2620    0.2823    2.7370 H   0  0  0  0  0  0  0  0  0  0  0  0
    3.2801    1.4739   -0.2571 H   0  0  0  0  0  0  0  0  0  0  0  0
    5.2868    1.2395   -1.6646 H   0  0  0  0  0  0  0  0  0  0  0  0
    6.2738   -0.9982   -2.0791 H   0  0  0  0  0  0  0  0  0  0  0  0
    5.2413   -3.0184   -1.0737 H   0  0  0  0  0  0  0  0  0  0  0  0
    3.2231   -2.8098    0.3411 H   0  0  0  0  0  0  0  0  0  0  0  0
   -3.7123   -1.8409    2.4175 H   0  0  0  0  0  0  0  0  0  0  0  0
   -5.8002   -2.4556    1.2440 H   0  0  0  0  0  0  0  0  0  0  0  0
   -6.3195   -1.4618   -0.9756 H   0  0  0  0  0  0  0  0  0  0  0  0
   -4.7315    0.1443   -1.9985 H   0  0  0  0  0  0  0  0  0  0  0  0
  1  2  1  0
  2  3  2  0
  2  4  1  0
  4  5  2  0
  5  6  1  0
  6  7  1  0
  7  8  1  0
  8  9  2  0
  8 10  1  0
 10 11  2  0
 11 12  1  0
 12 13  2  0
 13 14  1  0
 14 15  2  0
  5 16  1  0
 16 17  2  0
 17 18  1  0
 18 19  2  0
 19 20  1  0
 20 21  2  0
 21 22  1  0
 22 23  2  0
 23 24  1  0
 23  4  1  0
 15 10  1  0
 22 17  1  0
  1 25  1  0
  1 26  1  0
  1 27  1  0
  6 28  1  0
  6 29  1  0
 11 30  1  0
 12 31  1  0
 13 32  1  0
 14 33  1  0
 15 34  1  0
 18 35  1  0
 19 36  1  0
 20 37  1  0
 21 38  1  0
M  CHG  2  23   1  24  -1
M  END
$$$$
