
     RDKit          3D

 42 44  0  0  0  0  0  0  0  0999 V2000
    5.7696    0.5597   -2.0520 C   0  0  0  0  0  0  0  0  0  0  0  0
    4.7628   -0.5752   -2.1731 C   0  0  0  0  0  0  0  0  0  0  0  0
    3.4431   -0.2129   -1.4962 C   0  0  0  0  0  0  0  0  0  0  0  0
    2.2647   -1.5955   -1.6622 S   0  0  0  0  0  0  0  0  0  0  0  0
    0.8407   -0.9205   -0.8151 C   0  0  0  0  0  0  0  0  0  0  0  0
   -0.3064   -1.6820   -0.7502 C   0  0  0  0  0  0  0  0  0  0  0  0
   -1.3910   -1.1461   -0.0887 C   0  0  0  0  0  0  0  0  0  0  0  0
   -2.5828   -1.8247    0.0161 N   0  0  0  0  0  0  0  0  0  0  0  0
   -3.6856   -1.2393    0.7697 C   0  0  0  0  0  0  0  0  0  0  0  0
   -4.7636   -2.3158    0.6933 C   0  0  0  0  0  0  0  0  0  0  0  0
   -3.9530   -3.6012    0.7428 C   0  0  0  0  0  0  0  0  0  0  0  0
   -2.7080   -3.2743   -0.0831 C   0  0  0  0  0  0  0  0  0  0  0  0
   -1.3145    0.0842    0.4467 N   0  0  0  0  0  0  0  0  0  0  0  0
   -0.1579    0.7643    0.3411 C   0  0  0  0  0  0  0  0  0  0  0  0
   -0.0932    2.1120    0.9446 C   0  0  0  0  0  0  0  0  0  0  0  0
    1.0836    2.8856    0.8968 C   0  0  0  0  0  0  0  0  0  0  0  0
    1.1461    4.1612    1.4679 C   0  0  0  0  0  0  0  0  0  0  0  0
    0.0294    4.6957    2.1026 C   0  0  0  0  0  0  0  0  0  0  0  0
   -1.1478    3.9569    2.1664 C   0  0  0  0  0  0  0  0  0  0  0  0
   -1.2061    2.6817    1.5941 C   0  0  0  0  0  0  0  0  0  0  0  0
    0.9399    0.3000   -0.2734 N   0  0  0  0  0  0  0  0  0  0  0  0
    6.7093    0.2863   -2.5420 H   0  0  0  0  0  0  0  0  0  0  0  0
    5.9859    0.7817   -1.0021 H   0  0  0  0  0  0  0  0  0  0  0  0
    5.3919    1.4715   -2.5257 H   0  0  0  0  0  0  0  0  0  0  0  0
    4.6008   -0.7893   -3.2366 H   0  0  0  0  0  0  0  0  0  0  0  0
    5.1917   -1.4758   -1.7172 H   0  0  0  0  0  0  0  0  0  0  0  0
    3.0189    0.6825   -1.9632 H   0  0  0  0  0  0  0  0  0  0  0  0
    3.6139   -0.0079   -0.4338 H   0  0  0  0  0  0  0  0  0  0  0  0
   -0.3499   -2.6565   -1.2162 H   0  0  0  0  0  0  0  0  0  0  0  0
   -3.3967   -1.0685    1.8141 H   0  0  0  0  0  0  0  0  0  0  0  0
   -4.0385   -0.2994    0.3320 H   0  0  0  0  0  0  0  0  0  0  0  0
   -5.4916   -2.2397    1.5055 H   0  0  0  0  0  0  0  0  0  0  0  0
   -5.3002   -2.2481   -0.2608 H   0  0  0  0  0  0  0  0  0  0  0  0
   -3.6661   -3.8196    1.7787 H   0  0  0  0  0  0  0  0  0  0  0  0
   -4.4987   -4.4647    0.3524 H   0  0  0  0  0  0  0  0  0  0  0  0
   -1.8420   -3.8106    0.3203 H   0  0  0  0  0  0  0  0  0  0  0  0
   -2.8517   -3.5619   -1.1303 H   0  0  0  0  0  0  0  0  0  0  0  0
    1.9727    2.4925    0.4065 H   0  0  0  0  0  0  0  0  0  0  0  0
    2.0686    4.7335    1.4144 H   0  0  0  0  0  0  0  0  0  0  0  0
    0.0762    5.6865    2.5465 H   0  0  0  0  0  0  0  0  0  0  0  0
   -2.0242    4.3687    2.6600 H   0  0  0  0  0  0  0  0  0  0  0  0
   -2.1403    2.1254    1.6573 H   0  0  0  0  0  0  0  0  0  0  0  0
  1  2  1  0
  2  3  1  0
  3  4  1  0
  4  5  1  0
  5  6  2  0
  6  7  1  0
  7  8  1  0
  8  9  1  0
  9 10  1  0
 10 11  1  0
 11 12  1  0
  7 13  2  0
 13 14  1  0
 14 15  1  0
 15 16  2  0
 16 17  1  0
 17 18  2  0
 18 19  1  0
 19 20  2  0
 14 21  2  0
 21  5  1  0
 12  8  1  0
 20 15  1  0
  1 22  1  0
  1 23  1  0
  1 24  1  0
  2 25  1  0
  2 26  1  0
  3 27  1  0
  3 28  1  0
  6 29  1  0
  9 30  1  0
  9 31  1  0
 10 32  1  0
 10 33  1  0
 11 34  1  0
 11 35  1  0
 12 36  1  0
 12 37  1  0
 16 38  1  0
 17 39  1  0
 18 40  1  0
 19 41  1  0
 20 42  1  0
M  END
$$$$
