
     RDKit          3D

 39 41  0  0  0  0  0  0  0  0999 V2000
    0.2058    2.2322    3.4193 S   0  0  0  0  0  0  0  0  0  0  0  0
    0.1025    0.9107    2.3967 C   0  0  0  0  0  0  0  0  0  0  0  0
    0.9180   -0.1528    2.6701 N   0  0  0  0  0  0  0  0  0  0  0  0
    1.5127   -1.0479    1.6777 C   0  0  0  0  0  0  0  0  0  0  0  0
    2.7670   -0.4632    1.0186 C   0  0  0  0  0  0  0  0  0  0  0  0
    2.4991    0.6504    0.0179 C   0  0  0  0  0  0  0  0  0  0  0  0
    3.7098    0.5548   -0.8750 C   0  0  0  0  0  0  0  0  0  0  0  0
    3.9135   -0.9423   -0.9584 C   0  0  0  0  0  0  0  0  0  0  0  0
    3.4637   -1.4942    0.2877 O   0  0  0  0  0  0  0  0  0  0  0  0
   -0.7235    0.7938    1.2915 N   0  0  0  0  0  0  0  0  0  0  0  0
   -1.2221    1.9835    0.5936 C   0  0  0  0  0  0  0  0  0  0  0  0
   -1.5262    1.6706   -0.8717 C   0  0  0  0  0  0  0  0  0  0  0  0
   -2.3301    0.4064   -1.0395 C   0  0  0  0  0  0  0  0  0  0  0  0
   -2.9888    0.1527   -2.2507 C   0  0  0  0  0  0  0  0  0  0  0  0
   -3.7029   -1.0315   -2.4315 C   0  0  0  0  0  0  0  0  0  0  0  0
   -3.7566   -1.9751   -1.4088 C   0  0  0  0  0  0  0  0  0  0  0  0
   -3.0964   -1.7361   -0.2031 C   0  0  0  0  0  0  0  0  0  0  0  0
   -2.3691   -0.5517   -0.0102 C   0  0  0  0  0  0  0  0  0  0  0  0
   -1.7004   -0.3010    1.3207 C   0  0  0  0  0  0  0  0  0  0  0  0
    1.4842    0.0007    3.4980 H   0  0  0  0  0  0  0  0  0  0  0  0
    0.7882   -1.3249    0.9073 H   0  0  0  0  0  0  0  0  0  0  0  0
    1.7747   -1.9699    2.2087 H   0  0  0  0  0  0  0  0  0  0  0  0
    3.4591   -0.1072    1.7930 H   0  0  0  0  0  0  0  0  0  0  0  0
    2.3883    1.6319    0.4868 H   0  0  0  0  0  0  0  0  0  0  0  0
    1.5979    0.4426   -0.5714 H   0  0  0  0  0  0  0  0  0  0  0  0
    3.5738    1.0228   -1.8532 H   0  0  0  0  0  0  0  0  0  0  0  0
    4.5719    1.0249   -0.3854 H   0  0  0  0  0  0  0  0  0  0  0  0
    3.3041   -1.3814   -1.7553 H   0  0  0  0  0  0  0  0  0  0  0  0
    4.9587   -1.2161   -1.1266 H   0  0  0  0  0  0  0  0  0  0  0  0
   -0.4758    2.7850    0.6344 H   0  0  0  0  0  0  0  0  0  0  0  0
   -2.1217    2.3349    1.1149 H   0  0  0  0  0  0  0  0  0  0  0  0
   -0.5831    1.5405   -1.4174 H   0  0  0  0  0  0  0  0  0  0  0  0
   -2.0563    2.5206   -1.3159 H   0  0  0  0  0  0  0  0  0  0  0  0
   -2.9478    0.8779   -3.0601 H   0  0  0  0  0  0  0  0  0  0  0  0
   -4.2169   -1.2198   -3.3712 H   0  0  0  0  0  0  0  0  0  0  0  0
   -4.3144   -2.8975   -1.5490 H   0  0  0  0  0  0  0  0  0  0  0  0
   -3.1519   -2.4806    0.5881 H   0  0  0  0  0  0  0  0  0  0  0  0
   -2.4719   -0.0231    2.0515 H   0  0  0  0  0  0  0  0  0  0  0  0
   -1.2369   -1.2206    1.6909 H   0  0  0  0  0  0  0  0  0  0  0  0
  1  2  2  0
  2  3  1  0
  3  4  1  0
  4  5  1  0
  5  6  1  0
  6  7  1  0
  7  8  1  0
  8  9  1  0
  2 10  1  0
 10 11  1  0
 11 12  1  0
 12 13  1  0
 13 14  2  0
 14 15  1  0
 15 16  2  0
 16 17  1  0
 17 18  2  0
 18 19  1  0
  9  5  1  0
 19 10  1  0
 18 13  1  0
  3 20  1  0
  4 21  1  0
  4 22  1  0
  5 23  1  0
  6 24  1  0
  6 25  1  0
  7 26  1  0
  7 27  1  0
  8 28  1  0
  8 29  1  0
 11 30  1  0
 11 31  1  0
 12 32  1  0
 12 33  1  0
 14 34  1  0
 15 35  1  0
 16 36  1  0
 17 37  1  0
 19 38  1  0
 19 39  1  0
M  END
$$$$
