
     RDKit          3D

 56 61  0  0  0  0  0  0  0  0999 V2000
    5.8733   -0.8732    3.2511 C   0  0  0  0  0  0  0  0  0  0  0  0
    4.7645   -0.8972    2.2408 C   0  0  0  0  0  0  0  0  0  0  0  0
    5.0002   -1.3340    0.9406 C   0  0  0  0  0  0  0  0  0  0  0  0
    3.9474   -1.4007    0.0275 C   0  0  0  0  0  0  0  0  0  0  0  0
    2.6359   -1.0222    0.3832 C   0  0  0  0  0  0  0  0  0  0  0  0
    2.3954   -0.5604    1.6824 C   0  0  0  0  0  0  0  0  0  0  0  0
    3.4608   -0.5357    2.6051 C   0  0  0  0  0  0  0  0  0  0  0  0
    1.1695   -0.1170    2.1964 N   0  0  0  0  0  0  0  0  0  0  0  0
    0.0661    0.3816    1.5711 C   0  0  0  0  0  0  0  0  0  0  0  0
   -0.8671    0.7273    2.3018 O   0  0  0  0  0  0  0  0  0  0  0  0
    0.0747    0.6348    0.0514 C   0  0  0  0  0  0  0  0  0  0  0  0
    1.0691    1.7481   -0.3246 C   0  0  0  0  0  0  0  0  0  0  0  0
   -1.3831    0.9604   -0.4432 C   0  0  0  0  0  0  0  0  0  0  0  0
   -1.8303    2.4158   -0.4355 C   0  0  0  0  0  0  0  0  0  0  0  0
   -2.5230    2.9076    0.6835 C   0  0  0  0  0  0  0  0  0  0  0  0
   -2.9570    4.2337    0.7401 C   0  0  0  0  0  0  0  0  0  0  0  0
   -2.7066    5.0947   -0.3229 C   0  0  0  0  0  0  0  0  0  0  0  0
   -2.0212    4.6288   -1.4405 C   0  0  0  0  0  0  0  0  0  0  0  0
   -1.5864    3.3014   -1.4972 C   0  0  0  0  0  0  0  0  0  0  0  0
   -1.4533    0.2623   -1.8224 C   0  0  0  0  0  0  0  0  0  0  0  0
   -2.8948    0.0203   -2.2797 C   0  0  0  0  0  0  0  0  0  0  0  0
   -3.1339   -1.3021   -2.7731 O   0  0  0  0  0  0  0  0  0  0  0  0
   -2.7843   -2.2364   -1.8335 C   0  0  0  0  0  0  0  0  0  0  0  0
   -3.6558   -3.2968   -1.6042 C   0  0  0  0  0  0  0  0  0  0  0  0
   -3.3182   -4.2668   -0.6619 C   0  0  0  0  0  0  0  0  0  0  0  0
   -2.1045   -4.1749    0.0198 C   0  0  0  0  0  0  0  0  0  0  0  0
   -1.6867   -5.3786    1.1777 Cl  0  0  0  0  0  0  0  0  0  0  0  0
   -1.2189   -3.1253   -0.2358 C   0  0  0  0  0  0  0  0  0  0  0  0
   -1.5549   -2.1378   -1.1691 C   0  0  0  0  0  0  0  0  0  0  0  0
   -0.6439   -1.0139   -1.6011 C   0  0  0  0  0  0  0  0  0  0  0  0
    0.3851   -0.6384   -0.6288 N   0  0  0  0  0  0  0  0  0  0  0  0
    1.5942   -1.3035   -0.6379 C   0  0  0  0  0  0  0  0  0  0  0  0
    1.8347   -2.1747   -1.4748 O   0  0  0  0  0  0  0  0  0  0  0  0
    5.9078   -1.8243    3.7912 H   0  0  0  0  0  0  0  0  0  0  0  0
    5.7270   -0.0610    3.9709 H   0  0  0  0  0  0  0  0  0  0  0  0
    6.8411   -0.7066    2.7666 H   0  0  0  0  0  0  0  0  0  0  0  0
    5.9950   -1.6475    0.6308 H   0  0  0  0  0  0  0  0  0  0  0  0
    4.1524   -1.7829   -0.9726 H   0  0  0  0  0  0  0  0  0  0  0  0
    3.2848   -0.2035    3.6278 H   0  0  0  0  0  0  0  0  0  0  0  0
    1.0830   -0.0423    3.2042 H   0  0  0  0  0  0  0  0  0  0  0  0
    2.1014    1.5213   -0.0498 H   0  0  0  0  0  0  0  0  0  0  0  0
    1.0726    1.9292   -1.4049 H   0  0  0  0  0  0  0  0  0  0  0  0
    0.8278    2.6851    0.1891 H   0  0  0  0  0  0  0  0  0  0  0  0
   -2.0918    0.4164    0.2014 H   0  0  0  0  0  0  0  0  0  0  0  0
   -2.7358    2.2572    1.5312 H   0  0  0  0  0  0  0  0  0  0  0  0
   -3.4908    4.5907    1.6172 H   0  0  0  0  0  0  0  0  0  0  0  0
   -3.0439    6.1267   -0.2795 H   0  0  0  0  0  0  0  0  0  0  0  0
   -1.8216    5.3009   -2.2716 H   0  0  0  0  0  0  0  0  0  0  0  0
   -1.0455    2.9878   -2.3856 H   0  0  0  0  0  0  0  0  0  0  0  0
   -0.9286    0.8555   -2.5813 H   0  0  0  0  0  0  0  0  0  0  0  0
   -3.6277    0.2309   -1.4895 H   0  0  0  0  0  0  0  0  0  0  0  0
   -3.1326    0.7129   -3.0956 H   0  0  0  0  0  0  0  0  0  0  0  0
   -4.5931   -3.3617   -2.1490 H   0  0  0  0  0  0  0  0  0  0  0  0
   -3.9978   -5.0922   -0.4693 H   0  0  0  0  0  0  0  0  0  0  0  0
   -0.2644   -3.1000    0.2813 H   0  0  0  0  0  0  0  0  0  0  0  0
   -0.1661   -1.3195   -2.5412 H   0  0  0  0  0  0  0  0  0  0  0  0
  1  2  1  0
  2  3  2  0
  3  4  1  0
  4  5  2  0
  5  6  1  0
  6  7  2  0
  6  8  1  0
  8  9  1  0
  9 10  2  0
  9 11  1  0
 11 12  1  0
 11 13  1  0
 13 14  1  0
 14 15  2  0
 15 16  1  0
 16 17  2  0
 17 18  1  0
 18 19  2  0
 13 20  1  0
 20 21  1  0
 21 22  1  0
 22 23  1  0
 23 24  2  0
 24 25  1  0
 25 26  2  0
 26 27  1  0
 26 28  1  0
 28 29  2  0
 29 30  1  0
 30 31  1  0
 31 32  1  0
 32 33  2  0
  7  2  1  0
 31 11  1  0
 32  5  1  0
 19 14  1  0
 30 20  1  0
 29 23  1  0
  1 34  1  0
  1 35  1  0
  1 36  1  0
  3 37  1  0
  4 38  1  0
  7 39  1  0
  8 40  1  0
 12 41  1  0
 12 42  1  0
 12 43  1  0
 13 44  1  0
 15 45  1  0
 16 46  1  0
 17 47  1  0
 18 48  1  0
 19 49  1  0
 20 50  1  0
 21 51  1  0
 21 52  1  0
 24 53  1  0
 25 54  1  0
 28 55  1  0
 30 56  1  0
M  END
$$$$
