
     RDKit          3D

 55 58  0  0  0  0  0  0  0  0999 V2000
    5.1942   -3.1058   -1.1207 C   0  0  0  0  0  0  0  0  0  0  0  0
    4.1793   -2.1178   -1.0095 O   0  0  0  0  0  0  0  0  0  0  0  0
    2.9355   -2.4278   -1.4972 C   0  0  0  0  0  0  0  0  0  0  0  0
    2.5857   -3.6654   -2.0407 C   0  0  0  0  0  0  0  0  0  0  0  0
    1.2979   -3.8780   -2.5304 C   0  0  0  0  0  0  0  0  0  0  0  0
    0.3568   -2.8497   -2.5021 C   0  0  0  0  0  0  0  0  0  0  0  0
    0.6781   -1.5831   -1.9808 C   0  0  0  0  0  0  0  0  0  0  0  0
   -0.4019   -0.5146   -1.9956 C   0  0  0  0  0  0  0  0  0  0  0  0
    0.0426    0.8975   -2.3903 C   0  0  0  0  0  0  0  0  0  0  0  0
   -0.1041    1.6684   -1.1037 C   0  0  0  0  0  0  0  0  0  0  0  0
    0.3899    3.0598   -0.9686 C   0  0  0  0  0  0  0  0  0  0  0  0
    0.9912    3.7315   -2.0388 C   0  0  0  0  0  0  0  0  0  0  0  0
    1.4456    5.0431   -1.8757 C   0  0  0  0  0  0  0  0  0  0  0  0
    1.3013    5.6877   -0.6480 C   0  0  0  0  0  0  0  0  0  0  0  0
    0.7022    5.0242    0.4210 C   0  0  0  0  0  0  0  0  0  0  0  0
    0.2471    3.7139    0.2624 C   0  0  0  0  0  0  0  0  0  0  0  0
   -0.7227    1.0471   -0.1455 N   0  0  0  0  0  0  0  0  0  0  0  0
   -1.0227   -0.3367   -0.6552 N   0  0  0  0  0  0  0  0  0  0  0  0
   -2.6509   -0.8677   -0.5629 S   0  0  0  0  0  6  0  0  0  0  0  0
   -2.6888   -2.2828   -0.8802 O   0  0  0  0  0  0  0  0  0  0  0  0
   -3.4727    0.0668   -1.3096 O   0  0  0  0  0  0  0  0  0  0  0  0
   -3.0072   -0.6881    1.1658 C   0  0  0  0  0  0  0  0  0  0  0  0
   -3.7125    0.4284    1.6196 C   0  0  0  0  0  0  0  0  0  0  0  0
   -4.0140    0.5454    2.9776 C   0  0  0  0  0  0  0  0  0  0  0  0
   -3.6117   -0.4462    3.8833 C   0  0  0  0  0  0  0  0  0  0  0  0
   -3.9663   -0.3327    5.3370 C   0  0  0  0  0  0  0  0  0  0  0  0
   -2.9259   -1.5731    3.4089 C   0  0  0  0  0  0  0  0  0  0  0  0
   -2.6214   -1.6967    2.0523 C   0  0  0  0  0  0  0  0  0  0  0  0
    1.9650   -1.4048   -1.4388 C   0  0  0  0  0  0  0  0  0  0  0  0
    2.2899   -0.1835   -0.8956 O   0  0  0  0  0  0  0  0  0  0  0  0
    2.3328   -0.2644    0.5319 C   0  0  0  0  0  0  0  0  0  0  0  0
    6.1183   -2.6822   -0.7153 H   0  0  0  0  0  0  0  0  0  0  0  0
    5.3800   -3.3676   -2.1676 H   0  0  0  0  0  0  0  0  0  0  0  0
    4.9477   -3.9922   -0.5271 H   0  0  0  0  0  0  0  0  0  0  0  0
    3.2894   -4.4889   -2.0941 H   0  0  0  0  0  0  0  0  0  0  0  0
    1.0250   -4.8484   -2.9389 H   0  0  0  0  0  0  0  0  0  0  0  0
   -0.6434   -3.0498   -2.8862 H   0  0  0  0  0  0  0  0  0  0  0  0
   -1.1558   -0.8133   -2.7363 H   0  0  0  0  0  0  0  0  0  0  0  0
    1.0502    0.9484   -2.8081 H   0  0  0  0  0  0  0  0  0  0  0  0
   -0.6595    1.3266   -3.1151 H   0  0  0  0  0  0  0  0  0  0  0  0
    1.1187    3.2590   -3.0079 H   0  0  0  0  0  0  0  0  0  0  0  0
    1.9139    5.5628   -2.7082 H   0  0  0  0  0  0  0  0  0  0  0  0
    1.6561    6.7080   -0.5241 H   0  0  0  0  0  0  0  0  0  0  0  0
    0.5887    5.5253    1.3791 H   0  0  0  0  0  0  0  0  0  0  0  0
   -0.2179    3.2090    1.1068 H   0  0  0  0  0  0  0  0  0  0  0  0
   -4.0239    1.2069    0.9273 H   0  0  0  0  0  0  0  0  0  0  0  0
   -4.5650    1.4165    3.3257 H   0  0  0  0  0  0  0  0  0  0  0  0
   -4.0168    0.7166    5.6461 H   0  0  0  0  0  0  0  0  0  0  0  0
   -3.2102   -0.8188    5.9623 H   0  0  0  0  0  0  0  0  0  0  0  0
   -4.9365   -0.8036    5.5232 H   0  0  0  0  0  0  0  0  0  0  0  0
   -2.6255   -2.3619    4.0950 H   0  0  0  0  0  0  0  0  0  0  0  0
   -2.0875   -2.5740    1.6944 H   0  0  0  0  0  0  0  0  0  0  0  0
    1.5018   -0.8515    0.9396 H   0  0  0  0  0  0  0  0  0  0  0  0
    3.2881   -0.6754    0.8710 H   0  0  0  0  0  0  0  0  0  0  0  0
    2.2519    0.7535    0.9252 H   0  0  0  0  0  0  0  0  0  0  0  0
  1  2  1  0
  2  3  1  0
  3  4  2  0
  4  5  1  0
  5  6  2  0
  6  7  1  0
  7  8  1  0
  8  9  1  0
  9 10  1  0
 10 11  1  0
 11 12  2  0
 12 13  1  0
 13 14  2  0
 14 15  1  0
 15 16  2  0
 10 17  2  0
 17 18  1  0
 18 19  1  0
 19 20  2  0
 19 21  2  0
 19 22  1  0
 22 23  2  0
 23 24  1  0
 24 25  2  0
 25 26  1  0
 25 27  1  0
 27 28  2  0
  7 29  2  0
 29 30  1  0
 30 31  1  0
 29  3  1  0
 18  8  1  0
 28 22  1  0
 16 11  1  0
  1 32  1  0
  1 33  1  0
  1 34  1  0
  4 35  1  0
  5 36  1  0
  6 37  1  0
  8 38  1  0
  9 39  1  0
  9 40  1  0
 12 41  1  0
 13 42  1  0
 14 43  1  0
 15 44  1  0
 16 45  1  0
 23 46  1  0
 24 47  1  0
 26 48  1  0
 26 49  1  0
 26 50  1  0
 27 51  1  0
 28 52  1  0
 31 53  1  0
 31 54  1  0
 31 55  1  0
M  END
$$$$
