
     RDKit          3D

 36 37  0  0  0  0  0  0  0  0999 V2000
    4.6175    1.1539   -1.3108 C   0  0  0  0  0  0  0  0  0  0  0  0
    3.9625    0.8009   -0.0754 N   0  0  0  0  0  0  0  0  0  0  0  0
    2.5949    0.9473    0.0396 C   0  0  0  0  0  0  0  0  0  0  0  0
    1.8888    1.4553   -0.8308 O   0  0  0  0  0  0  0  0  0  0  0  0
    2.0042    0.4178    1.3455 C   0  0  0  0  0  0  0  0  0  0  0  0
    0.8028   -0.3182    1.0980 O   0  0  0  0  0  0  0  0  0  0  0  0
    1.0202   -1.5460    0.5596 C   0  0  0  0  0  0  0  0  0  0  0  0
    2.1222   -2.0308    0.3473 O   0  0  0  0  0  0  0  0  0  0  0  0
   -0.2616   -2.2628    0.3122 C   0  0  0  0  0  0  0  0  0  0  0  0
   -0.1681   -3.6685    0.3196 C   0  0  0  0  0  0  0  0  0  0  0  0
   -1.2961   -4.4589    0.1178 C   0  0  0  0  0  0  0  0  0  0  0  0
   -2.5249   -3.8512   -0.1014 C   0  0  0  0  0  0  0  0  0  0  0  0
   -2.6284   -2.4562   -0.1240 C   0  0  0  0  0  0  0  0  0  0  0  0
   -1.5085   -1.6355    0.0811 C   0  0  0  0  0  0  0  0  0  0  0  0
   -1.6025   -0.2195    0.0172 N   0  0  0  0  0  0  0  0  0  0  0  0
   -2.7487    0.5661   -0.0030 C   0  0  0  0  0  0  0  0  0  0  0  0
   -3.8893    0.1229    0.0947 O   0  0  0  0  0  0  0  0  0  0  0  0
   -2.4828    1.9941   -0.1139 C   0  0  0  0  0  0  0  0  0  0  0  0
   -1.3767    2.7311   -0.5046 C   0  0  0  0  0  0  0  0  0  0  0  0
   -1.7319    4.0998   -0.4058 C   0  0  0  0  0  0  0  0  0  0  0  0
   -3.0326    4.1236    0.0324 C   0  0  0  0  0  0  0  0  0  0  0  0
   -3.4970    2.8617    0.2092 O   0  0  0  0  0  0  0  0  0  0  0  0
    5.6983    1.1138   -1.1568 H   0  0  0  0  0  0  0  0  0  0  0  0
    4.3226    2.1640   -1.6112 H   0  0  0  0  0  0  0  0  0  0  0  0
    4.3211    0.4429   -2.0866 H   0  0  0  0  0  0  0  0  0  0  0  0
    4.3876    0.0586    0.4702 H   0  0  0  0  0  0  0  0  0  0  0  0
    1.7424    1.2836    1.9635 H   0  0  0  0  0  0  0  0  0  0  0  0
    2.7225   -0.1840    1.9139 H   0  0  0  0  0  0  0  0  0  0  0  0
    0.7912   -4.1549    0.4897 H   0  0  0  0  0  0  0  0  0  0  0  0
   -1.2157   -5.5427    0.1306 H   0  0  0  0  0  0  0  0  0  0  0  0
   -3.4134   -4.4575   -0.2658 H   0  0  0  0  0  0  0  0  0  0  0  0
   -3.6124   -2.0420   -0.3263 H   0  0  0  0  0  0  0  0  0  0  0  0
   -0.7238    0.2807    0.1091 H   0  0  0  0  0  0  0  0  0  0  0  0
   -0.4292    2.3395   -0.8471 H   0  0  0  0  0  0  0  0  0  0  0  0
   -1.1169    4.9576   -0.6373 H   0  0  0  0  0  0  0  0  0  0  0  0
   -3.7381    4.9136    0.2477 H   0  0  0  0  0  0  0  0  0  0  0  0
  1  2  1  0
  2  3  1  0
  3  4  2  0
  3  5  1  0
  5  6  1  0
  6  7  1  0
  7  8  2  0
  7  9  1  0
  9 10  2  0
 10 11  1  0
 11 12  2  0
 12 13  1  0
 13 14  2  0
 14 15  1  0
 15 16  1  0
 16 17  2  0
 16 18  1  0
 18 19  2  0
 19 20  1  0
 20 21  2  0
 21 22  1  0
 14  9  1  0
 22 18  1  0
  1 23  1  0
  1 24  1  0
  1 25  1  0
  2 26  1  0
  5 27  1  0
  5 28  1  0
 10 29  1  0
 11 30  1  0
 12 31  1  0
 13 32  1  0
 15 33  1  0
 19 34  1  0
 20 35  1  0
 21 36  1  0
M  END
$$$$
