
     RDKit          3D

 48 49  0  0  0  0  0  0  0  0999 V2000
   -4.7913   -2.7307   -2.9165 C   0  0  0  0  0  0  0  0  0  0  0  0
   -3.9780   -1.7989   -2.0685 C   0  0  0  0  0  0  0  0  0  0  0  0
   -4.1261   -0.4124   -2.1938 C   0  0  0  0  0  0  0  0  0  0  0  0
   -3.3437    0.4556   -1.4287 C   0  0  0  0  0  0  0  0  0  0  0  0
   -2.3944   -0.0495   -0.5306 C   0  0  0  0  0  0  0  0  0  0  0  0
   -1.5230    0.8882    0.2759 C   0  0  0  0  0  0  0  0  0  0  0  0
   -0.2832    1.3576   -0.5067 C   0  0  0  0  0  0  0  0  0  0  0  0
    0.6702    0.3005   -0.8537 N   0  0  0  0  0  0  0  0  0  0  0  0
    1.2631   -0.5261    0.0712 C   0  0  0  0  0  0  0  0  0  0  0  0
    1.1327   -0.3757    1.2811 O   0  0  0  0  0  0  0  0  0  0  0  0
    2.1228   -1.6145   -0.4629 C   0  0  0  0  0  0  0  0  0  0  0  0
    1.8780   -2.2058   -1.7099 C   0  0  0  0  0  0  0  0  0  0  0  0
    2.7063   -3.2304   -2.1686 C   0  0  0  0  0  0  0  0  0  0  0  0
    3.7710   -3.6733   -1.3835 C   0  0  0  0  0  0  0  0  0  0  0  0
    4.0068   -3.0989   -0.1339 C   0  0  0  0  0  0  0  0  0  0  0  0
    3.1806   -2.0761    0.3300 C   0  0  0  0  0  0  0  0  0  0  0  0
    0.4330    2.5359    0.1827 C   0  0  0  0  0  0  0  0  0  0  0  0
    0.7314    3.5583   -0.4338 O   0  0  0  0  0  0  0  0  0  0  0  0
    0.7587    2.3427    1.5060 N   0  0  0  0  0  0  0  0  0  0  0  0
    1.5727    3.3074    2.2406 C   0  0  0  0  0  0  0  0  0  0  0  0
    0.7666    4.5399    2.6305 C   0  0  0  0  0  0  0  0  0  0  0  0
    2.1166    2.6539    3.5099 C   0  0  0  0  0  0  0  0  0  0  0  0
    1.6183    1.7212    4.1232 O   0  0  0  0  0  0  0  0  0  0  0  0
    3.2450    3.2397    3.9630 O   0  0  0  0  0  0  0  0  0  0  0  0
   -2.2407   -1.4371   -0.4119 C   0  0  0  0  0  0  0  0  0  0  0  0
   -3.0210   -2.3038   -1.1797 C   0  0  0  0  0  0  0  0  0  0  0  0
   -4.9838   -3.6719   -2.3910 H   0  0  0  0  0  0  0  0  0  0  0  0
   -4.2570   -2.9501   -3.8474 H   0  0  0  0  0  0  0  0  0  0  0  0
   -5.7618   -2.2881   -3.1642 H   0  0  0  0  0  0  0  0  0  0  0  0
   -4.8552    0.0013   -2.8873 H   0  0  0  0  0  0  0  0  0  0  0  0
   -3.4812    1.5290   -1.5420 H   0  0  0  0  0  0  0  0  0  0  0  0
   -2.1249    1.7574    0.5710 H   0  0  0  0  0  0  0  0  0  0  0  0
   -1.2503    0.4015    1.2192 H   0  0  0  0  0  0  0  0  0  0  0  0
   -0.6247    1.7511   -1.4741 H   0  0  0  0  0  0  0  0  0  0  0  0
    0.9461    0.2416   -1.8214 H   0  0  0  0  0  0  0  0  0  0  0  0
    1.0329   -1.9034   -2.3223 H   0  0  0  0  0  0  0  0  0  0  0  0
    2.5154   -3.6941   -3.1335 H   0  0  0  0  0  0  0  0  0  0  0  0
    4.4123   -4.4748   -1.7401 H   0  0  0  0  0  0  0  0  0  0  0  0
    4.8294   -3.4528    0.4828 H   0  0  0  0  0  0  0  0  0  0  0  0
    3.3640   -1.6401    1.3100 H   0  0  0  0  0  0  0  0  0  0  0  0
    0.8103    1.3662    1.8168 H   0  0  0  0  0  0  0  0  0  0  0  0
    2.4202    3.5817    1.6000 H   0  0  0  0  0  0  0  0  0  0  0  0
    0.3428    5.0473    1.7575 H   0  0  0  0  0  0  0  0  0  0  0  0
   -0.0682    4.2693    3.2873 H   0  0  0  0  0  0  0  0  0  0  0  0
    1.3909    5.2594    3.1716 H   0  0  0  0  0  0  0  0  0  0  0  0
    3.4553    2.7329    4.7768 H   0  0  0  0  0  0  0  0  0  0  0  0
   -1.5076   -1.8529    0.2795 H   0  0  0  0  0  0  0  0  0  0  0  0
   -2.8774   -3.3782   -1.0754 H   0  0  0  0  0  0  0  0  0  0  0  0
  1  2  1  0
  2  3  2  0
  3  4  1  0
  4  5  2  0
  5  6  1  0
  6  7  1  0
  7  8  1  0
  8  9  1  0
  9 10  2  0
  9 11  1  0
 11 12  2  0
 12 13  1  0
 13 14  2  0
 14 15  1  0
 15 16  2  0
  7 17  1  0
 17 18  2  0
 17 19  1  0
 19 20  1  0
 20 21  1  0
 20 22  1  0
 22 23  2  0
 22 24  1  0
  5 25  1  0
 25 26  2  0
 26  2  1  0
 16 11  1  0
  1 27  1  0
  1 28  1  0
  1 29  1  0
  3 30  1  0
  4 31  1  0
  6 32  1  0
  6 33  1  0
  7 34  1  0
  8 35  1  0
 12 36  1  0
 13 37  1  0
 14 38  1  0
 15 39  1  0
 16 40  1  0
 19 41  1  0
 20 42  1  0
 21 43  1  0
 21 44  1  0
 21 45  1  0
 24 46  1  0
 25 47  1  0
 26 48  1  0
M  END
$$$$
