
     RDKit          3D

 34 36  0  0  0  0  0  0  0  0999 V2000
   -3.8964    1.3463    1.7560 C   0  0  0  0  0  0  0  0  0  0  0  0
   -3.2289    0.5464    0.6915 C   0  0  0  0  0  0  0  0  0  0  0  0
   -1.8838    0.4345    0.4185 C   0  0  0  0  0  0  0  0  0  0  0  0
   -1.6003   -0.4389   -0.6919 C   0  0  0  0  0  0  0  0  0  0  0  0
   -0.2047   -0.7370   -1.2156 C   0  0  0  0  0  0  0  0  0  0  0  0
    0.4867    0.5214   -1.7026 C   0  0  0  0  0  0  0  0  0  0  0  0
    1.8432    0.2296   -2.2845 C   0  0  0  0  0  0  0  0  0  0  0  0
    2.0231    0.1734   -3.5007 O   0  0  0  0  0  0  0  0  0  0  0  0
    2.9042    0.1167   -1.4302 N   0  0  0  0  0  0  0  0  0  0  0  0
    2.8666    0.0927   -0.0254 C   0  0  0  0  0  0  0  0  0  0  0  0
    3.9176    0.7404    0.6382 C   0  0  0  0  0  0  0  0  0  0  0  0
    3.9460    0.8033    2.0316 C   0  0  0  0  0  0  0  0  0  0  0  0
    2.9411    0.1923    2.7741 C   0  0  0  0  0  0  0  0  0  0  0  0
    1.9222   -0.5049    2.1233 C   0  0  0  0  0  0  0  0  0  0  0  0
    1.8734   -0.5684    0.7219 C   0  0  0  0  0  0  0  0  0  0  0  0
    0.7036   -1.7340    0.0306 S   0  0  0  0  0  0  0  0  0  0  0  0
   -2.7790   -0.9562   -1.2145 C   0  0  0  0  0  0  0  0  0  0  0  0
   -2.9516   -1.9009   -2.3603 C   0  0  0  0  0  0  0  0  0  0  0  0
   -4.1627   -0.3915   -0.3815 S   0  0  0  0  0  0  0  0  0  0  0  0
   -3.1595    1.8895    2.3570 H   0  0  0  0  0  0  0  0  0  0  0  0
   -4.5792    2.0823    1.3188 H   0  0  0  0  0  0  0  0  0  0  0  0
   -4.4654    0.6980    2.4304 H   0  0  0  0  0  0  0  0  0  0  0  0
   -1.1244    0.9526    0.9933 H   0  0  0  0  0  0  0  0  0  0  0  0
   -0.2946   -1.4132   -2.0746 H   0  0  0  0  0  0  0  0  0  0  0  0
   -0.1130    0.9900   -2.4951 H   0  0  0  0  0  0  0  0  0  0  0  0
    0.5732    1.2916   -0.9263 H   0  0  0  0  0  0  0  0  0  0  0  0
    3.7999    0.2312   -1.8897 H   0  0  0  0  0  0  0  0  0  0  0  0
    4.7083    1.2328    0.0768 H   0  0  0  0  0  0  0  0  0  0  0  0
    4.7541    1.3270    2.5368 H   0  0  0  0  0  0  0  0  0  0  0  0
    2.9658    0.2285    3.8606 H   0  0  0  0  0  0  0  0  0  0  0  0
    1.1811   -1.0303    2.7236 H   0  0  0  0  0  0  0  0  0  0  0  0
   -2.4205   -2.8374   -2.1605 H   0  0  0  0  0  0  0  0  0  0  0  0
   -2.5438   -1.4608   -3.2763 H   0  0  0  0  0  0  0  0  0  0  0  0
   -4.0020   -2.1470   -2.5474 H   0  0  0  0  0  0  0  0  0  0  0  0
  1  2  1  0
  2  3  2  0
  3  4  1  0
  4  5  1  0
  5  6  1  0
  6  7  1  0
  7  8  2  0
  7  9  1  0
  9 10  1  0
 10 11  2  0
 11 12  1  0
 12 13  2  0
 13 14  1  0
 14 15  2  0
 15 16  1  0
  4 17  2  0
 17 18  1  0
 17 19  1  0
 19  2  1  0
 16  5  1  0
 15 10  1  0
  1 20  1  0
  1 21  1  0
  1 22  1  0
  3 23  1  0
  5 24  1  0
  6 25  1  0
  6 26  1  0
  9 27  1  0
 11 28  1  0
 12 29  1  0
 13 30  1  0
 14 31  1  0
 18 32  1  0
 18 33  1  0
 18 34  1  0
M  END
$$$$
