
     RDKit          3D

 43 46  0  0  0  0  0  0  0  0999 V2000
   -1.8304   -2.7906    0.4227 C   0  0  0  0  0  0  0  0  0  0  0  0
   -1.9461   -2.0766   -0.9107 C   0  0  0  0  0  0  0  0  0  0  0  0
   -1.9786   -0.6555   -0.7104 O   0  0  0  0  0  0  0  0  0  0  0  0
   -3.2058   -0.1185   -0.4635 C   0  0  0  0  0  0  0  0  0  0  0  0
   -4.2470   -0.7636   -0.4399 O   0  0  0  0  0  0  0  0  0  0  0  0
   -3.1170    1.3167   -0.2323 C   0  0  0  0  0  0  0  0  0  0  0  0
   -4.2093    2.1175    0.0886 C   0  0  0  0  0  0  0  0  0  0  0  0
   -3.7209    3.4368    0.2665 C   0  0  0  0  0  0  0  0  0  0  0  0
   -4.3183    5.0126    0.6636 S   0  0  0  0  0  0  0  0  0  0  0  0
   -2.7220    5.6402    0.5474 C   0  0  0  0  0  0  0  0  0  0  0  0
   -1.7670    4.7017    0.2196 C   0  0  0  0  0  0  0  0  0  0  0  0
   -2.3763    3.4246    0.0552 C   0  0  0  0  0  0  0  0  0  0  0  0
   -1.9970    2.1349   -0.2666 N   0  0  0  0  0  0  0  0  0  0  0  0
   -0.6291    1.7926   -0.6317 C   0  0  0  0  0  0  0  0  0  0  0  0
    0.1192    1.0710    0.4718 C   0  0  0  0  0  0  0  0  0  0  0  0
   -0.1711    1.1794    1.6623 O   0  0  0  0  0  0  0  0  0  0  0  0
    1.2734    0.2046    0.0935 C   0  0  0  0  0  0  0  0  0  0  0  0
    1.9060    0.3033   -1.1538 C   0  0  0  0  0  0  0  0  0  0  0  0
    2.9849   -0.5329   -1.4607 C   0  0  0  0  0  0  0  0  0  0  0  0
    3.4373   -1.4609   -0.5254 C   0  0  0  0  0  0  0  0  0  0  0  0
    2.7986   -1.5743    0.7128 C   0  0  0  0  0  0  0  0  0  0  0  0
    1.7335   -0.7323    1.0297 C   0  0  0  0  0  0  0  0  0  0  0  0
    3.1715   -2.4844    1.6684 O   0  0  0  0  0  0  0  0  0  0  0  0
    4.0336   -3.4941    1.1273 C   0  0  0  0  0  0  0  0  0  0  0  0
    5.1038   -2.8719    0.2453 C   0  0  0  0  0  0  0  0  0  0  0  0
    4.5120   -2.2301   -0.8914 O   0  0  0  0  0  0  0  0  0  0  0  0
   -0.9403   -2.4535    0.9631 H   0  0  0  0  0  0  0  0  0  0  0  0
   -1.7641   -3.8728    0.2781 H   0  0  0  0  0  0  0  0  0  0  0  0
   -2.6920   -2.5750    1.0622 H   0  0  0  0  0  0  0  0  0  0  0  0
   -1.0623   -2.2922   -1.5205 H   0  0  0  0  0  0  0  0  0  0  0  0
   -2.8196   -2.4196   -1.4779 H   0  0  0  0  0  0  0  0  0  0  0  0
   -5.2332    1.7816    0.1917 H   0  0  0  0  0  0  0  0  0  0  0  0
   -2.5644    6.6931    0.7354 H   0  0  0  0  0  0  0  0  0  0  0  0
   -0.7137    4.9253    0.1143 H   0  0  0  0  0  0  0  0  0  0  0  0
   -0.6897    1.1970   -1.5465 H   0  0  0  0  0  0  0  0  0  0  0  0
   -0.0907    2.7161   -0.8700 H   0  0  0  0  0  0  0  0  0  0  0  0
    1.5969    1.0284   -1.9005 H   0  0  0  0  0  0  0  0  0  0  0  0
    3.4837   -0.4516   -2.4242 H   0  0  0  0  0  0  0  0  0  0  0  0
    1.2558   -0.8203    2.0034 H   0  0  0  0  0  0  0  0  0  0  0  0
    3.4182   -4.2108    0.5696 H   0  0  0  0  0  0  0  0  0  0  0  0
    4.4956   -4.0212    1.9680 H   0  0  0  0  0  0  0  0  0  0  0  0
    5.6971   -2.1303    0.7945 H   0  0  0  0  0  0  0  0  0  0  0  0
    5.7847   -3.6444   -0.1269 H   0  0  0  0  0  0  0  0  0  0  0  0
  1  2  1  0
  2  3  1  0
  3  4  1  0
  4  5  2  0
  4  6  1  0
  6  7  2  0
  7  8  1  0
  8  9  1  0
  9 10  1  0
 10 11  2  0
 11 12  1  0
 12 13  1  0
 13 14  1  0
 14 15  1  0
 15 16  2  0
 15 17  1  0
 17 18  2  0
 18 19  1  0
 19 20  2  0
 20 21  1  0
 21 22  2  0
 21 23  1  0
 23 24  1  0
 24 25  1  0
 25 26  1  0
 13  6  1  0
 22 17  1  0
 12  8  2  0
 26 20  1  0
  1 27  1  0
  1 28  1  0
  1 29  1  0
  2 30  1  0
  2 31  1  0
  7 32  1  0
 10 33  1  0
 11 34  1  0
 14 35  1  0
 14 36  1  0
 18 37  1  0
 19 38  1  0
 22 39  1  0
 24 40  1  0
 24 41  1  0
 25 42  1  0
 25 43  1  0
M  END
$$$$
