
     RDKit          3D

 52 55  0  0  0  0  0  0  0  0999 V2000
   -5.6506    1.3340   -1.5644 C   0  0  0  0  0  0  0  0  0  0  0  0
   -4.7155    1.1699   -0.4072 C   0  0  0  0  0  0  0  0  0  0  0  0
   -3.5628    1.9584   -0.2882 C   0  0  0  0  0  0  0  0  0  0  0  0
   -2.7063    1.7742    0.8055 C   0  0  0  0  0  0  0  0  0  0  0  0
   -1.2472    2.7755    0.9739 S   0  0  0  0  0  6  0  0  0  0  0  0
   -1.2287    3.2874    2.3260 O   0  0  0  0  0  0  0  0  0  0  0  0
   -1.1351    3.6397   -0.1831 O   0  0  0  0  0  0  0  0  0  0  0  0
   -0.0417    1.6179    0.8829 N   0  0  0  0  0  0  0  0  0  0  0  0
    0.5209    1.2696   -0.4374 C   0  0  0  0  0  0  0  0  0  0  0  0
    1.0366   -0.2095   -0.4785 C   0  0  0  0  0  0  0  0  0  0  0  0
    1.9913   -0.4305    0.7014 C   0  0  0  0  0  0  0  0  0  0  0  0
    3.2792    0.1601    0.7166 C   0  0  0  0  0  0  0  0  0  0  0  0
    4.1322    0.0010    1.8128 C   0  0  0  0  0  0  0  0  0  0  0  0
    3.6775   -0.7502    2.8746 C   0  0  0  0  0  0  0  0  0  0  0  0
    2.4352   -1.3381    2.8675 C   0  0  0  0  0  0  0  0  0  0  0  0
    1.5712   -1.2000    1.8030 C   0  0  0  0  0  0  0  0  0  0  0  0
    2.1793   -2.0350    4.0091 O   0  0  0  0  0  0  0  0  0  0  0  0
    3.4013   -1.8060    4.7410 C   0  0  0  0  0  0  0  0  0  0  0  0
    4.3595   -0.9997    4.0237 O   0  0  0  0  0  0  0  0  0  0  0  0
    1.6926   -0.5890   -1.7545 N   0  0  0  0  0  0  0  0  0  0  0  0
    0.9731   -0.1274   -2.9627 C   0  0  0  0  0  0  0  0  0  0  0  0
    1.4589   -0.8660   -4.2191 C   0  0  0  0  0  0  0  0  0  0  0  0
    1.1582   -2.2702   -4.1809 O   0  0  0  0  0  0  0  0  0  0  0  0
    1.0936   -2.7978   -2.8496 C   0  0  0  0  0  0  0  0  0  0  0  0
    1.9900   -2.0420   -1.8498 C   0  0  0  0  0  0  0  0  0  0  0  0
   -2.9829    0.8131    1.7855 C   0  0  0  0  0  0  0  0  0  0  0  0
   -4.1201    0.0167    1.6576 C   0  0  0  0  0  0  0  0  0  0  0  0
   -4.9697    0.1959    0.5667 C   0  0  0  0  0  0  0  0  0  0  0  0
   -6.0537   -0.5870    0.4593 F   0  0  0  0  0  0  0  0  0  0  0  0
   -5.5274    0.5056   -2.2686 H   0  0  0  0  0  0  0  0  0  0  0  0
   -6.6863    1.3578   -1.2160 H   0  0  0  0  0  0  0  0  0  0  0  0
   -5.4629    2.2718   -2.0953 H   0  0  0  0  0  0  0  0  0  0  0  0
   -3.3385    2.7169   -1.0374 H   0  0  0  0  0  0  0  0  0  0  0  0
    0.6054    1.6560    1.6709 H   0  0  0  0  0  0  0  0  0  0  0  0
    1.3405    1.9654   -0.6526 H   0  0  0  0  0  0  0  0  0  0  0  0
   -0.2510    1.3997   -1.2021 H   0  0  0  0  0  0  0  0  0  0  0  0
    0.1584   -0.8533   -0.3401 H   0  0  0  0  0  0  0  0  0  0  0  0
    3.6202    0.7444   -0.1374 H   0  0  0  0  0  0  0  0  0  0  0  0
    5.1167    0.4539    1.8296 H   0  0  0  0  0  0  0  0  0  0  0  0
    0.5952   -1.6708    1.8347 H   0  0  0  0  0  0  0  0  0  0  0  0
    3.1521   -1.2997    5.6803 H   0  0  0  0  0  0  0  0  0  0  0  0
    3.8598   -2.7756    4.9703 H   0  0  0  0  0  0  0  0  0  0  0  0
    1.1404    0.9491   -3.1016 H   0  0  0  0  0  0  0  0  0  0  0  0
   -0.1080   -0.3033   -2.8523 H   0  0  0  0  0  0  0  0  0  0  0  0
    0.9744   -0.4491   -5.1110 H   0  0  0  0  0  0  0  0  0  0  0  0
    2.5446   -0.7478   -4.3499 H   0  0  0  0  0  0  0  0  0  0  0  0
    1.3904   -3.8529   -2.8995 H   0  0  0  0  0  0  0  0  0  0  0  0
    0.0444   -2.7707   -2.5258 H   0  0  0  0  0  0  0  0  0  0  0  0
    1.9416   -2.5481   -0.8808 H   0  0  0  0  0  0  0  0  0  0  0  0
    3.0299   -2.1260   -2.1893 H   0  0  0  0  0  0  0  0  0  0  0  0
   -2.3211    0.6861    2.6412 H   0  0  0  0  0  0  0  0  0  0  0  0
   -4.3549   -0.7395    2.4014 H   0  0  0  0  0  0  0  0  0  0  0  0
  1  2  1  0
  2  3  2  0
  3  4  1  0
  4  5  1  0
  5  6  2  0
  5  7  2  0
  5  8  1  0
  8  9  1  0
  9 10  1  0
 10 11  1  0
 11 12  2  0
 12 13  1  0
 13 14  2  0
 14 15  1  0
 15 16  2  0
 15 17  1  0
 17 18  1  0
 18 19  1  0
 10 20  1  0
 20 21  1  0
 21 22  1  0
 22 23  1  0
 23 24  1  0
 24 25  1  0
  4 26  2  0
 26 27  1  0
 27 28  2  0
 28 29  1  0
 28  2  1  0
 16 11  1  0
 25 20  1  0
 19 14  1  0
  1 30  1  0
  1 31  1  0
  1 32  1  0
  3 33  1  0
  8 34  1  0
  9 35  1  0
  9 36  1  0
 10 37  1  0
 12 38  1  0
 13 39  1  0
 16 40  1  0
 18 41  1  0
 18 42  1  0
 21 43  1  0
 21 44  1  0
 22 45  1  0
 22 46  1  0
 24 47  1  0
 24 48  1  0
 25 49  1  0
 25 50  1  0
 26 51  1  0
 27 52  1  0
M  END
$$$$
