
     RDKit          3D

 42 44  0  0  0  0  0  0  0  0999 V2000
    5.7313   -1.0492   -1.3088 C   0  0  0  0  0  0  0  0  0  0  0  0
    4.8833   -0.0339   -2.0630 C   0  0  0  0  0  0  0  0  0  0  0  0
    3.5022    0.1967   -1.4477 C   0  0  0  0  0  0  0  0  0  0  0  0
    2.4255   -1.2681   -1.6169 S   0  0  0  0  0  0  0  0  0  0  0  0
    0.9316   -0.6767   -0.8299 C   0  0  0  0  0  0  0  0  0  0  0  0
   -0.1523   -1.5253   -0.7590 C   0  0  0  0  0  0  0  0  0  0  0  0
   -1.2928   -1.0533   -0.1447 C   0  0  0  0  0  0  0  0  0  0  0  0
   -2.4286   -1.8216   -0.0376 N   0  0  0  0  0  0  0  0  0  0  0  0
   -2.4357   -3.2791   -0.0813 C   0  0  0  0  0  0  0  0  0  0  0  0
   -3.6709   -3.6731    0.7299 C   0  0  0  0  0  0  0  0  0  0  0  0
   -4.5799   -2.4603    0.6103 C   0  0  0  0  0  0  0  0  0  0  0  0
   -3.5938   -1.2980    0.6659 C   0  0  0  0  0  0  0  0  0  0  0  0
   -1.3287    0.1995    0.3404 N   0  0  0  0  0  0  0  0  0  0  0  0
   -0.2282    0.9665    0.2317 C   0  0  0  0  0  0  0  0  0  0  0  0
   -0.2876    2.3383    0.7791 C   0  0  0  0  0  0  0  0  0  0  0  0
   -1.4568    2.8388    1.3852 C   0  0  0  0  0  0  0  0  0  0  0  0
   -1.5161    4.1364    1.9045 C   0  0  0  0  0  0  0  0  0  0  0  0
   -0.4032    4.9679    1.8296 C   0  0  0  0  0  0  0  0  0  0  0  0
    0.7667    4.5034    1.2368 C   0  0  0  0  0  0  0  0  0  0  0  0
    0.8218    3.2050    0.7189 C   0  0  0  0  0  0  0  0  0  0  0  0
    0.9187    0.5687   -0.3382 N   0  0  0  0  0  0  0  0  0  0  0  0
    5.8344   -0.7687   -0.2558 H   0  0  0  0  0  0  0  0  0  0  0  0
    6.7345   -1.0962   -1.7449 H   0  0  0  0  0  0  0  0  0  0  0  0
    5.3023   -2.0542   -1.3579 H   0  0  0  0  0  0  0  0  0  0  0  0
    4.7911   -0.3359   -3.1133 H   0  0  0  0  0  0  0  0  0  0  0  0
    5.4202    0.9229   -2.0621 H   0  0  0  0  0  0  0  0  0  0  0  0
    3.0264    1.0393   -1.9611 H   0  0  0  0  0  0  0  0  0  0  0  0
    3.6075    0.4543   -0.3883 H   0  0  0  0  0  0  0  0  0  0  0  0
   -0.1057   -2.5178   -1.1847 H   0  0  0  0  0  0  0  0  0  0  0  0
   -1.5400   -3.7284    0.3620 H   0  0  0  0  0  0  0  0  0  0  0  0
   -2.5300   -3.6172   -1.1190 H   0  0  0  0  0  0  0  0  0  0  0  0
   -4.1359   -4.5925    0.3632 H   0  0  0  0  0  0  0  0  0  0  0  0
   -3.3936   -3.8273    1.7799 H   0  0  0  0  0  0  0  0  0  0  0  0
   -5.0963   -2.4736   -0.3571 H   0  0  0  0  0  0  0  0  0  0  0  0
   -5.3316   -2.4115    1.4027 H   0  0  0  0  0  0  0  0  0  0  0  0
   -3.3464   -1.0628    1.7084 H   0  0  0  0  0  0  0  0  0  0  0  0
   -4.0093   -0.4080    0.1815 H   0  0  0  0  0  0  0  0  0  0  0  0
   -2.3427    2.2092    1.4561 H   0  0  0  0  0  0  0  0  0  0  0  0
   -2.4333    4.4930    2.3656 H   0  0  0  0  0  0  0  0  0  0  0  0
   -0.4477    5.9763    2.2322 H   0  0  0  0  0  0  0  0  0  0  0  0
    1.6395    5.1482    1.1750 H   0  0  0  0  0  0  0  0  0  0  0  0
    1.7501    2.8682    0.2604 H   0  0  0  0  0  0  0  0  0  0  0  0
  1  2  1  0
  2  3  1  0
  3  4  1  0
  4  5  1  0
  5  6  2  0
  6  7  1  0
  7  8  1  0
  8  9  1  0
  9 10  1  0
 10 11  1  0
 11 12  1  0
  7 13  2  0
 13 14  1  0
 14 15  1  0
 15 16  2  0
 16 17  1  0
 17 18  2  0
 18 19  1  0
 19 20  2  0
 14 21  2  0
 21  5  1  0
 12  8  1  0
 20 15  1  0
  1 22  1  0
  1 23  1  0
  1 24  1  0
  2 25  1  0
  2 26  1  0
  3 27  1  0
  3 28  1  0
  6 29  1  0
  9 30  1  0
  9 31  1  0
 10 32  1  0
 10 33  1  0
 11 34  1  0
 11 35  1  0
 12 36  1  0
 12 37  1  0
 16 38  1  0
 17 39  1  0
 18 40  1  0
 19 41  1  0
 20 42  1  0
M  END
$$$$
