
     RDKit          3D

 55 57  0  0  0  0  0  0  0  0999 V2000
    7.5486    1.7862   -1.9058 C   0  0  0  0  0  0  0  0  0  0  0  0
    6.6555    1.9163   -0.8069 O   0  0  0  0  0  0  0  0  0  0  0  0
    5.4689    1.2424   -0.8922 C   0  0  0  0  0  0  0  0  0  0  0  0
    4.6361    1.3833    0.2182 C   0  0  0  0  0  0  0  0  0  0  0  0
    3.3930    0.7471    0.2651 C   0  0  0  0  0  0  0  0  0  0  0  0
    2.9551   -0.0488   -0.8038 C   0  0  0  0  0  0  0  0  0  0  0  0
    1.5979   -0.7449   -0.7943 C   0  0  0  0  0  0  0  0  0  0  0  0
    1.4637   -1.9269    0.6136 S   0  0  0  0  0  0  0  0  0  0  0  0
    0.2917   -1.1140    1.6949 C   0  0  0  0  0  0  0  0  0  0  0  0
    0.7267   -0.9263    3.0185 C   0  0  0  0  0  0  0  0  0  0  0  0
   -0.1374   -0.4376    3.9963 C   0  0  0  0  0  0  0  0  0  0  0  0
   -1.4564   -0.1549    3.6689 C   0  0  0  0  0  0  0  0  0  0  0  0
   -1.9074   -0.3494    2.3616 C   0  0  0  0  0  0  0  0  0  0  0  0
   -1.0447   -0.8108    1.3499 C   0  0  0  0  0  0  0  0  0  0  0  0
   -1.5565   -0.9595    0.0215 N   0  0  0  0  0  0  0  0  0  0  0  0
   -2.9000   -1.5293   -0.1574 C   0  0  0  0  0  0  0  0  0  0  0  0
   -3.9457   -0.4747   -0.5910 C   0  0  0  0  0  0  0  0  0  0  0  0
   -5.3429   -0.9267   -0.7246 N   0  0  0  0  0  0  0  0  0  0  0  0
   -5.9125   -1.4078    0.5288 C   0  0  0  0  0  0  0  0  0  0  0  0
   -5.5056   -1.9107   -1.7921 C   0  0  0  0  0  0  0  0  0  0  0  0
   -0.8520   -0.6249   -1.1360 C   0  0  0  0  0  0  0  0  0  0  0  0
   -1.2225   -0.9892   -2.2572 O   0  0  0  0  0  0  0  0  0  0  0  0
    0.4233    0.2251   -1.0001 C   0  0  0  0  0  0  0  0  0  0  0  0
    0.4048    1.2642   -0.0115 O   0  0  0  0  0  0  0  0  0  0  0  0
   -0.5197    2.2395   -0.2060 C   0  0  0  0  0  0  0  0  0  0  0  0
   -0.4126    3.2696    0.8754 C   0  0  0  0  0  0  0  0  0  0  0  0
   -1.3212    2.2802   -1.1260 O   0  0  0  0  0  0  0  0  0  0  0  0
    3.7987   -0.1813   -1.9186 C   0  0  0  0  0  0  0  0  0  0  0  0
    5.0444    0.4572   -1.9623 C   0  0  0  0  0  0  0  0  0  0  0  0
    8.4480    2.3651   -1.6755 H   0  0  0  0  0  0  0  0  0  0  0  0
    7.8520    0.7434   -2.0483 H   0  0  0  0  0  0  0  0  0  0  0  0
    7.1112    2.2002   -2.8201 H   0  0  0  0  0  0  0  0  0  0  0  0
    4.9592    1.9939    1.0580 H   0  0  0  0  0  0  0  0  0  0  0  0
    2.7739    0.8809    1.1493 H   0  0  0  0  0  0  0  0  0  0  0  0
    1.5894   -1.4274   -1.6556 H   0  0  0  0  0  0  0  0  0  0  0  0
    1.7464   -1.1811    3.3037 H   0  0  0  0  0  0  0  0  0  0  0  0
    0.2164   -0.2983    5.0148 H   0  0  0  0  0  0  0  0  0  0  0  0
   -2.1386    0.2173    4.4295 H   0  0  0  0  0  0  0  0  0  0  0  0
   -2.9417   -0.0971    2.1450 H   0  0  0  0  0  0  0  0  0  0  0  0
   -2.8276   -2.3088   -0.9258 H   0  0  0  0  0  0  0  0  0  0  0  0
   -3.2039   -2.0411    0.7622 H   0  0  0  0  0  0  0  0  0  0  0  0
   -3.6367   -0.0279   -1.5450 H   0  0  0  0  0  0  0  0  0  0  0  0
   -3.9276    0.3641    0.1161 H   0  0  0  0  0  0  0  0  0  0  0  0
   -6.9885   -1.5817    0.4147 H   0  0  0  0  0  0  0  0  0  0  0  0
   -5.4561   -2.3427    0.8703 H   0  0  0  0  0  0  0  0  0  0  0  0
   -5.7995   -0.6576    1.3191 H   0  0  0  0  0  0  0  0  0  0  0  0
   -6.5688   -2.1144   -1.9623 H   0  0  0  0  0  0  0  0  0  0  0  0
   -5.0118   -2.8620   -1.5658 H   0  0  0  0  0  0  0  0  0  0  0  0
   -5.1057   -1.5281   -2.7376 H   0  0  0  0  0  0  0  0  0  0  0  0
    0.5734    0.7237   -1.9694 H   0  0  0  0  0  0  0  0  0  0  0  0
   -1.2225    3.9959    0.7644 H   0  0  0  0  0  0  0  0  0  0  0  0
   -0.5096    2.7932    1.8548 H   0  0  0  0  0  0  0  0  0  0  0  0
    0.5448    3.7921    0.7946 H   0  0  0  0  0  0  0  0  0  0  0  0
    3.4965   -0.7883   -2.7706 H   0  0  0  0  0  0  0  0  0  0  0  0
    5.6560    0.3188   -2.8475 H   0  0  0  0  0  0  0  0  0  0  0  0
  1  2  1  0
  2  3  1  0
  3  4  2  0
  4  5  1  0
  5  6  2  0
  6  7  1  0
  7  8  1  0
  8  9  1  0
  9 10  2  0
 10 11  1  0
 11 12  2  0
 12 13  1  0
 13 14  2  0
 14 15  1  0
 15 16  1  0
 16 17  1  0
 17 18  1  0
 18 19  1  0
 18 20  1  0
 15 21  1  0
 21 22  2  0
 21 23  1  0
 23 24  1  0
 24 25  1  0
 25 26  1  0
 25 27  2  0
  6 28  1  0
 28 29  2  0
 29  3  1  0
 23  7  1  0
 14  9  1  0
  1 30  1  0
  1 31  1  0
  1 32  1  0
  4 33  1  0
  5 34  1  0
  7 35  1  0
 10 36  1  0
 11 37  1  0
 12 38  1  0
 13 39  1  0
 16 40  1  0
 16 41  1  0
 17 42  1  0
 17 43  1  0
 19 44  1  0
 19 45  1  0
 19 46  1  0
 20 47  1  0
 20 48  1  0
 20 49  1  0
 23 50  1  0
 26 51  1  0
 26 52  1  0
 26 53  1  0
 28 54  1  0
 29 55  1  0
M  END
$$$$
