
     RDKit          3D

 55 57  0  0  0  0  0  0  0  0999 V2000
    7.8452   -1.4792    2.3714 C   0  0  0  0  0  0  0  0  0  0  0  0
    6.6068   -1.5605    1.4969 C   0  0  0  0  0  0  0  0  0  0  0  0
    5.6861   -0.5742    1.9557 O   0  0  0  0  0  0  0  0  0  0  0  0
    4.6371   -0.2733    1.1293 C   0  0  0  0  0  0  0  0  0  0  0  0
    4.1412   -1.1378    0.1533 C   0  0  0  0  0  0  0  0  0  0  0  0
    3.0495   -0.7574   -0.6342 C   0  0  0  0  0  0  0  0  0  0  0  0
    2.4355    0.4856   -0.4504 C   0  0  0  0  0  0  0  0  0  0  0  0
    1.2670    0.8229   -1.3073 C   0  0  0  0  0  0  0  0  0  0  0  0
    1.2148    0.3562   -2.4449 O   0  0  0  0  0  0  0  0  0  0  0  0
    0.1444    1.6589   -0.7355 C   0  0  0  0  0  0  0  0  0  0  0  0
   -0.4015    2.5840   -1.7744 C   0  0  0  0  0  0  0  0  0  0  0  0
    0.0975    3.6356   -2.1269 O   0  0  0  0  0  0  0  0  0  0  0  0
   -1.7079    2.0153   -2.3198 C   0  0  0  0  0  0  0  0  0  0  0  0
   -2.3693    2.5193   -3.1998 O   0  0  0  0  0  0  0  0  0  0  0  0
   -1.9963    0.8979   -1.5530 N   0  0  0  0  0  0  0  0  0  0  0  0
   -3.3476    0.3360   -1.5580 C   0  0  0  0  0  0  0  0  0  0  0  0
   -4.3686    1.1976   -0.7869 C   0  0  0  0  0  0  0  0  0  0  0  0
   -5.7137    0.5921   -0.6978 N   0  0  0  0  0  0  0  0  0  0  0  0
   -6.3652    0.5401   -2.0100 C   0  0  0  0  0  0  0  0  0  0  0  0
   -6.5476    1.3660    0.2278 C   0  0  0  0  0  0  0  0  0  0  0  0
   -1.1229    0.8490   -0.3867 C   0  0  0  0  0  0  0  0  0  0  0  0
   -0.8511   -0.5278    0.1774 C   0  0  0  0  0  0  0  0  0  0  0  0
   -0.7005   -0.6917    1.5624 C   0  0  0  0  0  0  0  0  0  0  0  0
   -0.4002   -1.9421    2.1019 C   0  0  0  0  0  0  0  0  0  0  0  0
   -0.2468   -3.0455    1.2667 C   0  0  0  0  0  0  0  0  0  0  0  0
   -0.3871   -2.8983   -0.1104 C   0  0  0  0  0  0  0  0  0  0  0  0
   -0.6848   -1.6489   -0.6517 C   0  0  0  0  0  0  0  0  0  0  0  0
    2.9291    1.3576    0.5182 C   0  0  0  0  0  0  0  0  0  0  0  0
    4.0142    0.9719    1.3096 C   0  0  0  0  0  0  0  0  0  0  0  0
    4.5768    2.0901    2.5038 Cl  0  0  0  0  0  0  0  0  0  0  0  0
    8.2719   -0.4719    2.3396 H   0  0  0  0  0  0  0  0  0  0  0  0
    8.6009   -2.1967    2.0428 H   0  0  0  0  0  0  0  0  0  0  0  0
    7.5935   -1.6828    3.4173 H   0  0  0  0  0  0  0  0  0  0  0  0
    6.1622   -2.5555    1.5893 H   0  0  0  0  0  0  0  0  0  0  0  0
    6.8954   -1.3732    0.4549 H   0  0  0  0  0  0  0  0  0  0  0  0
    4.5849   -2.1127   -0.0262 H   0  0  0  0  0  0  0  0  0  0  0  0
    2.6763   -1.4445   -1.3917 H   0  0  0  0  0  0  0  0  0  0  0  0
    0.4543    2.2422    0.1326 H   0  0  0  0  0  0  0  0  0  0  0  0
   -3.3143   -0.6773   -1.1466 H   0  0  0  0  0  0  0  0  0  0  0  0
   -3.6516    0.2508   -2.6074 H   0  0  0  0  0  0  0  0  0  0  0  0
   -4.4221    2.2037   -1.2323 H   0  0  0  0  0  0  0  0  0  0  0  0
   -3.9793    1.3354    0.2317 H   0  0  0  0  0  0  0  0  0  0  0  0
   -6.4322    1.5280   -2.4771 H   0  0  0  0  0  0  0  0  0  0  0  0
   -5.8324   -0.1319   -2.6898 H   0  0  0  0  0  0  0  0  0  0  0  0
   -7.3794    0.1347   -1.9199 H   0  0  0  0  0  0  0  0  0  0  0  0
   -6.6881    2.3985   -0.1073 H   0  0  0  0  0  0  0  0  0  0  0  0
   -7.5310    0.8986    0.3411 H   0  0  0  0  0  0  0  0  0  0  0  0
   -6.0975    1.3870    1.2273 H   0  0  0  0  0  0  0  0  0  0  0  0
   -1.6640    1.4209    0.3827 H   0  0  0  0  0  0  0  0  0  0  0  0
   -0.8184    0.1523    2.2393 H   0  0  0  0  0  0  0  0  0  0  0  0
   -0.2972   -2.0600    3.1787 H   0  0  0  0  0  0  0  0  0  0  0  0
   -0.0285   -4.0218    1.6903 H   0  0  0  0  0  0  0  0  0  0  0  0
   -0.2708   -3.7591   -0.7647 H   0  0  0  0  0  0  0  0  0  0  0  0
   -0.7793   -1.5546   -1.7336 H   0  0  0  0  0  0  0  0  0  0  0  0
    2.5125    2.3505    0.6563 H   0  0  0  0  0  0  0  0  0  0  0  0
  1  2  1  0
  2  3  1  0
  3  4  1  0
  4  5  2  0
  5  6  1  0
  6  7  2  0
  7  8  1  0
  8  9  2  0
  8 10  1  0
 10 11  1  0
 11 12  2  0
 11 13  1  0
 13 14  2  0
 13 15  1  0
 15 16  1  0
 16 17  1  0
 17 18  1  0
 18 19  1  0
 18 20  1  0
 15 21  1  0
 21 22  1  0
 22 23  2  0
 23 24  1  0
 24 25  2  0
 25 26  1  0
 26 27  2  0
  7 28  1  0
 28 29  2  0
 29 30  1  0
 29  4  1  0
 21 10  1  0
 27 22  1  0
  1 31  1  0
  1 32  1  0
  1 33  1  0
  2 34  1  0
  2 35  1  0
  5 36  1  0
  6 37  1  0
 10 38  1  0
 16 39  1  0
 16 40  1  0
 17 41  1  0
 17 42  1  0
 19 43  1  0
 19 44  1  0
 19 45  1  0
 20 46  1  0
 20 47  1  0
 20 48  1  0
 21 49  1  0
 23 50  1  0
 24 51  1  0
 25 52  1  0
 26 53  1  0
 27 54  1  0
 28 55  1  0
M  END
$$$$
