
     RDKit          3D

 47 50  0  0  0  0  0  0  0  0999 V2000
    2.5367    0.2186   -1.9140 C   0  0  0  0  0  0  0  0  0  0  0  0
    2.9795    0.4620   -0.5834 O   0  0  0  0  0  0  0  0  0  0  0  0
    2.0133    0.5705    0.3826 C   0  0  0  0  0  0  0  0  0  0  0  0
    0.6645    0.8347    0.1152 C   0  0  0  0  0  0  0  0  0  0  0  0
   -0.2591    0.9806    1.1612 C   0  0  0  0  0  0  0  0  0  0  0  0
   -1.6685    1.2723    0.8922 C   0  0  0  0  0  0  0  0  0  0  0  0
   -2.5504    0.4599    0.2950 C   0  0  0  0  0  0  0  0  0  0  0  0
   -3.8630    0.8041    0.0873 N   0  0  0  0  0  0  0  0  0  0  0  0
   -4.3529   -0.2509   -0.4807 C   0  0  0  0  0  0  0  0  0  0  0  0
   -5.7393   -0.4470   -0.9331 C   0  0  0  0  0  0  0  0  0  0  0  0
   -6.6556    0.6001   -0.7762 C   0  0  0  0  0  0  0  0  0  0  0  0
   -7.9778    0.4431   -1.1966 C   0  0  0  0  0  0  0  0  0  0  0  0
   -8.3880   -0.7581   -1.7734 C   0  0  0  0  0  0  0  0  0  0  0  0
   -7.4793   -1.8046   -1.9311 C   0  0  0  0  0  0  0  0  0  0  0  0
   -6.1556   -1.6520   -1.5125 C   0  0  0  0  0  0  0  0  0  0  0  0
   -3.5194   -1.2938   -0.6931 O   0  0  0  0  0  0  0  0  0  0  0  0
   -2.2989   -0.9202   -0.2163 C   0  0  0  0  0  0  0  0  0  0  0  0
   -1.2836   -1.5845   -0.2334 O   0  0  0  0  0  0  0  0  0  0  0  0
    0.1785    0.8976    2.4856 C   0  0  0  0  0  0  0  0  0  0  0  0
    1.5207    0.6430    2.7628 C   0  0  0  0  0  0  0  0  0  0  0  0
    2.4301    0.4564    1.7193 C   0  0  0  0  0  0  0  0  0  0  0  0
    3.7259    0.2275    2.1086 O   0  0  0  0  0  0  0  0  0  0  0  0
    4.3173   -0.9412    1.5187 C   0  0  0  0  0  0  0  0  0  0  0  0
    5.4995   -0.5989    0.7205 C   0  0  0  0  0  0  0  0  0  0  0  0
    6.5330    0.3418    0.8893 C   0  0  0  0  0  0  0  0  0  0  0  0
    6.7184    1.3232    1.9837 C   0  0  0  0  0  0  0  0  0  0  0  0
    7.4153    0.2740   -0.1131 N   0  0  0  0  0  0  0  0  0  0  0  0
    6.9515   -0.7224   -0.9720 O   0  0  0  0  0  0  0  0  0  0  0  0
    5.7285   -1.2348   -0.4252 N   0  0  0  0  0  4  0  0  0  0  0  0
    5.1851   -2.1772   -1.0452 O   0  0  0  0  0  1  0  0  0  0  0  0
    2.0689    1.1128   -2.3381 H   0  0  0  0  0  0  0  0  0  0  0  0
    1.8616   -0.6423   -1.9609 H   0  0  0  0  0  0  0  0  0  0  0  0
    3.4174   -0.0138   -2.5208 H   0  0  0  0  0  0  0  0  0  0  0  0
    0.3107    0.9427   -0.9050 H   0  0  0  0  0  0  0  0  0  0  0  0
   -2.0097    2.2444    1.2405 H   0  0  0  0  0  0  0  0  0  0  0  0
   -6.3475    1.5422   -0.3276 H   0  0  0  0  0  0  0  0  0  0  0  0
   -8.6872    1.2578   -1.0742 H   0  0  0  0  0  0  0  0  0  0  0  0
   -9.4181   -0.8792   -2.1006 H   0  0  0  0  0  0  0  0  0  0  0  0
   -7.8026   -2.7407   -2.3806 H   0  0  0  0  0  0  0  0  0  0  0  0
   -5.4651   -2.4812   -1.6444 H   0  0  0  0  0  0  0  0  0  0  0  0
   -0.5188    1.0280    3.3105 H   0  0  0  0  0  0  0  0  0  0  0  0
    1.8581    0.5812    3.7942 H   0  0  0  0  0  0  0  0  0  0  0  0
    3.5880   -1.5509    0.9694 H   0  0  0  0  0  0  0  0  0  0  0  0
    4.6451   -1.5685    2.3577 H   0  0  0  0  0  0  0  0  0  0  0  0
    7.7396    1.7181    1.9998 H   0  0  0  0  0  0  0  0  0  0  0  0
    6.0296    2.1648    1.8585 H   0  0  0  0  0  0  0  0  0  0  0  0
    6.5238    0.8609    2.9566 H   0  0  0  0  0  0  0  0  0  0  0  0
  1  2  1  0
  2  3  1  0
  3  4  2  0
  4  5  1  0
  5  6  1  0
  6  7  2  3
  7  8  1  0
  8  9  2  0
  9 10  1  0
 10 11  2  0
 11 12  1  0
 12 13  2  0
 13 14  1  0
 14 15  2  0
  9 16  1  0
 16 17  1  0
 17 18  2  0
  5 19  2  0
 19 20  1  0
 20 21  2  0
 21 22  1  0
 22 23  1  0
 23 24  1  0
 24 25  1  0
 25 26  1  0
 25 27  2  0
 27 28  1  0
 28 29  1  0
 29 30  1  0
 21  3  1  0
 29 24  2  0
 17  7  1  0
 15 10  1  0
  1 31  1  0
  1 32  1  0
  1 33  1  0
  4 34  1  0
  6 35  1  0
 11 36  1  0
 12 37  1  0
 13 38  1  0
 14 39  1  0
 15 40  1  0
 19 41  1  0
 20 42  1  0
 23 43  1  0
 23 44  1  0
 26 45  1  0
 26 46  1  0
 26 47  1  0
M  CHG  2  29   1  30  -1
M  END
$$$$
