
     RDKit          3D

 41 42  0  0  0  0  0  0  0  0999 V2000
    2.8414   -2.8053   -2.2984 C   0  0  0  0  0  0  0  0  0  0  0  0
    2.2459   -1.5945   -1.6185 C   0  0  0  0  0  0  0  0  0  0  0  0
    1.1088   -1.1525   -2.0652 N   0  0  0  0  0  0  0  0  0  0  0  0
    0.5059   -0.1107   -1.4312 N   0  0  0  0  0  0  0  0  0  0  0  0
   -0.7300    0.3535   -1.8598 C   0  0  0  0  0  0  0  0  0  0  0  0
   -1.3183   -0.0271   -2.8697 O   0  0  0  0  0  0  0  0  0  0  0  0
   -1.2852    1.4790   -1.0004 C   0  0  0  0  0  0  0  0  0  0  0  0
   -0.9167    1.2670    0.7806 S   0  0  0  0  0  0  0  0  0  0  0  0
   -2.0594   -0.1082    1.1735 C   0  0  0  0  0  0  0  0  0  0  0  0
   -3.5160    0.2904    1.1504 C   0  0  0  0  0  0  0  0  0  0  0  0
   -3.9590    1.2756    2.0575 C   0  0  0  0  0  0  0  0  0  0  0  0
   -5.2929    1.6861    2.0910 C   0  0  0  0  0  0  0  0  0  0  0  0
   -6.2165    1.1141    1.2242 C   0  0  0  0  0  0  0  0  0  0  0  0
   -5.8061    0.1277    0.3296 C   0  0  0  0  0  0  0  0  0  0  0  0
   -4.4684   -0.2875    0.2937 C   0  0  0  0  0  0  0  0  0  0  0  0
   -4.0417   -1.6605   -0.9476 Br  0  0  0  0  0  0  0  0  0  0  0  0
    3.0231   -1.0181   -0.4982 C   0  0  0  0  0  0  0  0  0  0  0  0
    3.2628   -1.7913    0.6421 C   0  0  0  0  0  0  0  0  0  0  0  0
    3.9943   -1.2533    1.7022 C   0  0  0  0  0  0  0  0  0  0  0  0
    4.4870    0.0515    1.6218 C   0  0  0  0  0  0  0  0  0  0  0  0
    4.2430    0.8168    0.4713 C   0  0  0  0  0  0  0  0  0  0  0  0
    4.7567    2.1890    0.3902 N   0  0  0  0  0  4  0  0  0  0  0  0
    4.3788    2.8867   -0.5609 O   0  0  0  0  0  0  0  0  0  0  0  0
    5.5329    2.5664    1.2787 O   0  0  0  0  0  1  0  0  0  0  0  0
    3.5112    0.2876   -0.5982 C   0  0  0  0  0  0  0  0  0  0  0  0
    2.2353   -3.6842   -2.0605 H   0  0  0  0  0  0  0  0  0  0  0  0
    2.8360   -2.6522   -3.3818 H   0  0  0  0  0  0  0  0  0  0  0  0
    3.8715   -2.9826   -1.9781 H   0  0  0  0  0  0  0  0  0  0  0  0
    0.8311    0.1881   -0.5163 H   0  0  0  0  0  0  0  0  0  0  0  0
   -2.3643    1.5631   -1.1526 H   0  0  0  0  0  0  0  0  0  0  0  0
   -0.8226    2.4126   -1.3357 H   0  0  0  0  0  0  0  0  0  0  0  0
   -1.8215   -0.9497    0.5206 H   0  0  0  0  0  0  0  0  0  0  0  0
   -1.8199   -0.4499    2.1878 H   0  0  0  0  0  0  0  0  0  0  0  0
   -3.2560    1.7377    2.7497 H   0  0  0  0  0  0  0  0  0  0  0  0
   -5.6082    2.4528    2.7947 H   0  0  0  0  0  0  0  0  0  0  0  0
   -7.2560    1.4313    1.2460 H   0  0  0  0  0  0  0  0  0  0  0  0
   -6.5404   -0.3171   -0.3384 H   0  0  0  0  0  0  0  0  0  0  0  0
    2.8765   -2.8061    0.7150 H   0  0  0  0  0  0  0  0  0  0  0  0
    4.1802   -1.8501    2.5934 H   0  0  0  0  0  0  0  0  0  0  0  0
    5.0542    0.4560    2.4588 H   0  0  0  0  0  0  0  0  0  0  0  0
    3.3225    0.8679   -1.5000 H   0  0  0  0  0  0  0  0  0  0  0  0
  1  2  1  0
  2  3  2  3
  3  4  1  0
  4  5  1  0
  5  6  2  0
  5  7  1  0
  7  8  1  0
  8  9  1  0
  9 10  1  0
 10 11  2  0
 11 12  1  0
 12 13  2  0
 13 14  1  0
 14 15  2  0
 15 16  1  0
  2 17  1  0
 17 18  2  0
 18 19  1  0
 19 20  2  0
 20 21  1  0
 21 22  1  0
 22 23  2  0
 22 24  1  0
 21 25  2  0
 15 10  1  0
 25 17  1  0
  1 26  1  0
  1 27  1  0
  1 28  1  0
  4 29  1  0
  7 30  1  0
  7 31  1  0
  9 32  1  0
  9 33  1  0
 11 34  1  0
 12 35  1  0
 13 36  1  0
 14 37  1  0
 18 38  1  0
 19 39  1  0
 20 40  1  0
 25 41  1  0
M  CHG  2  22   1  24  -1
M  END
$$$$
