
     RDKit          3D

 46 48  0  0  0  0  0  0  0  0999 V2000
   -6.3573   -1.3915    2.8356 C   0  0  0  0  0  0  0  0  0  0  0  0
   -6.3673   -1.0807    1.3450 C   0  0  0  0  0  0  0  0  0  0  0  0
   -4.9432   -0.9658    0.8040 C   0  0  0  0  0  0  0  0  0  0  0  0
   -4.9887   -0.6424   -0.9915 S   0  0  0  0  0  0  0  0  0  0  0  0
   -3.2417   -0.6022   -1.3782 C   0  0  0  0  0  0  0  0  0  0  0  0
   -2.3892   -0.6211   -0.3232 N   0  0  0  0  0  0  0  0  0  0  0  0
   -1.0457   -0.5985   -0.5469 C   0  0  0  0  0  0  0  0  0  0  0  0
   -0.1989   -0.6251    0.6921 C   0  0  0  0  0  0  0  0  0  0  0  0
   -0.5012   -0.5544   -1.8335 C   0  0  0  0  0  0  0  0  0  0  0  0
    0.9338   -0.5510   -2.0824 C   0  0  0  0  0  0  0  0  0  0  0  0
    1.5428   -1.3760   -3.0059 C   0  0  0  0  0  0  0  0  0  0  0  0
    3.2239   -1.0800   -3.0384 S   0  0  0  0  0  0  0  0  0  0  0  0
    3.0472    0.1337   -1.7972 C   0  0  0  0  0  0  0  0  0  0  0  0
    4.2009    0.8438   -1.3152 C   0  0  0  0  0  0  0  0  0  0  0  0
    5.2634    1.1635   -2.2228 C   0  0  0  0  0  0  0  0  0  0  0  0
    6.1352    1.4163   -2.9482 N   0  0  0  0  0  0  0  0  0  0  0  0
    4.2922    1.2206   -0.0171 C   0  0  0  0  0  0  0  0  0  0  0  0
    3.2891    0.9361    1.0770 C   0  0  0  0  0  0  0  0  0  0  0  0
    4.0400    1.2634    2.3613 C   0  0  0  0  0  0  0  0  0  0  0  0
    4.9680    2.3946    1.9595 C   0  0  0  0  0  0  0  0  0  0  0  0
    5.4592    1.9848    0.5771 C   0  0  0  0  0  0  0  0  0  0  0  0
    1.7940    0.2811   -1.3900 N   0  0  0  0  0  0  0  0  0  0  0  0
   -1.3969   -0.5175   -2.9104 C   0  0  0  0  0  0  0  0  0  0  0  0
   -2.7809   -0.5435   -2.6904 C   0  0  0  0  0  0  0  0  0  0  0  0
   -3.6613   -0.5237   -3.8210 C   0  0  0  0  0  0  0  0  0  0  0  0
   -4.3291   -0.5159   -4.7707 N   0  0  0  0  0  0  0  0  0  0  0  0
   -7.3795   -1.4381    3.2272 H   0  0  0  0  0  0  0  0  0  0  0  0
   -5.8738   -2.3570    3.0295 H   0  0  0  0  0  0  0  0  0  0  0  0
   -5.8175   -0.6185    3.3950 H   0  0  0  0  0  0  0  0  0  0  0  0
   -6.9115   -0.1408    1.1837 H   0  0  0  0  0  0  0  0  0  0  0  0
   -6.9144   -1.8750    0.8213 H   0  0  0  0  0  0  0  0  0  0  0  0
   -4.3988   -1.8990    0.9889 H   0  0  0  0  0  0  0  0  0  0  0  0
   -4.4241   -0.1462    1.3149 H   0  0  0  0  0  0  0  0  0  0  0  0
    0.2790    0.3445    0.8421 H   0  0  0  0  0  0  0  0  0  0  0  0
   -0.8151   -0.8281    1.5734 H   0  0  0  0  0  0  0  0  0  0  0  0
    0.5601   -1.4118    0.6379 H   0  0  0  0  0  0  0  0  0  0  0  0
    1.1000   -2.1217   -3.6536 H   0  0  0  0  0  0  0  0  0  0  0  0
    2.4300    1.6055    0.9730 H   0  0  0  0  0  0  0  0  0  0  0  0
    2.9507   -0.1042    1.0872 H   0  0  0  0  0  0  0  0  0  0  0  0
    4.6194    0.3959    2.6993 H   0  0  0  0  0  0  0  0  0  0  0  0
    3.3605    1.5511    3.1696 H   0  0  0  0  0  0  0  0  0  0  0  0
    5.7918    2.5297    2.6672 H   0  0  0  0  0  0  0  0  0  0  0  0
    4.4114    3.3389    1.9031 H   0  0  0  0  0  0  0  0  0  0  0  0
    5.7377    2.8657   -0.0092 H   0  0  0  0  0  0  0  0  0  0  0  0
    6.3283    1.3215    0.6679 H   0  0  0  0  0  0  0  0  0  0  0  0
   -1.0223   -0.4612   -3.9311 H   0  0  0  0  0  0  0  0  0  0  0  0
  1  2  1  0
  2  3  1  0
  3  4  1  0
  4  5  1  0
  5  6  2  0
  6  7  1  0
  7  8  1  0
  7  9  2  0
  9 10  1  0
 10 11  2  0
 11 12  1  0
 12 13  1  0
 13 14  1  0
 14 15  1  0
 15 16  3  0
 14 17  2  3
 17 18  1  0
 18 19  1  0
 19 20  1  0
 20 21  1  0
 13 22  2  0
  9 23  1  0
 23 24  2  0
 24 25  1  0
 25 26  3  0
 24  5  1  0
 22 10  1  0
 21 17  1  0
  1 27  1  0
  1 28  1  0
  1 29  1  0
  2 30  1  0
  2 31  1  0
  3 32  1  0
  3 33  1  0
  8 34  1  0
  8 35  1  0
  8 36  1  0
 11 37  1  0
 18 38  1  0
 18 39  1  0
 19 40  1  0
 19 41  1  0
 20 42  1  0
 20 43  1  0
 21 44  1  0
 21 45  1  0
 23 46  1  0
M  END
$$$$
