
     RDKit          3D

 55 57  0  0  0  0  0  0  0  0999 V2000
    1.9325    1.0959   -0.9244 O   0  0  0  0  0  0  0  0  0  0  0  0
    2.4219    0.3476   -0.0812 C   0  0  0  0  0  0  0  0  0  0  0  0
    1.7759    0.1055    1.2861 C   0  0  0  0  0  0  0  0  0  0  0  0
    0.4243    0.5574    1.3321 O   0  0  0  0  0  0  0  0  0  0  0  0
   -0.4516   -0.2484    0.6720 C   0  0  0  0  0  0  0  0  0  0  0  0
   -0.1471   -1.3184    0.1508 O   0  0  0  0  0  0  0  0  0  0  0  0
   -1.8553    0.3707    0.5779 C   0  0  0  0  0  0  0  0  0  0  0  0
   -2.1317    1.4790    1.6113 C   0  0  0  0  0  0  0  0  0  0  0  0
   -3.4889    2.1254    1.4385 C   0  0  0  0  0  0  0  0  0  0  0  0
   -4.5553    1.7680    2.2746 C   0  0  0  0  0  0  0  0  0  0  0  0
   -5.8128    2.3481    2.1039 C   0  0  0  0  0  0  0  0  0  0  0  0
   -6.0159    3.2909    1.0979 C   0  0  0  0  0  0  0  0  0  0  0  0
   -4.9618    3.6547    0.2619 C   0  0  0  0  0  0  0  0  0  0  0  0
   -3.7033    3.0749    0.4298 C   0  0  0  0  0  0  0  0  0  0  0  0
   -2.8519   -0.7078    0.5555 N   0  0  0  0  0  0  0  0  0  0  0  0
   -3.1068   -1.4941    1.6635 C   0  0  0  0  0  0  0  0  0  0  0  0
   -2.5499   -1.2731    2.7368 O   0  0  0  0  0  0  0  0  0  0  0  0
   -4.0489   -2.5828    1.4352 C   0  0  0  0  0  0  0  0  0  0  0  0
   -4.9393   -2.7885    0.3943 C   0  0  0  0  0  0  0  0  0  0  0  0
   -5.6916   -3.9912    0.5433 C   0  0  0  0  0  0  0  0  0  0  0  0
   -5.3610   -4.6648    1.6962 C   0  0  0  0  0  0  0  0  0  0  0  0
   -4.1601   -3.8461    2.5941 S   0  0  0  0  0  0  0  0  0  0  0  0
    3.6047   -0.3410   -0.2691 N   0  0  0  0  0  0  0  0  0  0  0  0
    4.4055   -0.1769   -1.4740 C   0  0  0  0  0  0  0  0  0  0  0  0
    5.2920    1.0712   -1.3695 C   0  0  0  0  0  0  0  0  0  0  0  0
    6.1926    1.2268   -2.5924 C   0  0  0  0  0  0  0  0  0  0  0  0
    7.0246   -0.0273   -2.8433 C   0  0  0  0  0  0  0  0  0  0  0  0
    6.1480   -1.2716   -2.9480 C   0  0  0  0  0  0  0  0  0  0  0  0
    5.2505   -1.4310   -1.7237 C   0  0  0  0  0  0  0  0  0  0  0  0
    2.3392    0.6857    2.0246 H   0  0  0  0  0  0  0  0  0  0  0  0
    1.8462   -0.9512    1.5699 H   0  0  0  0  0  0  0  0  0  0  0  0
   -1.9011    0.8218   -0.4224 H   0  0  0  0  0  0  0  0  0  0  0  0
   -2.0245    1.1083    2.6373 H   0  0  0  0  0  0  0  0  0  0  0  0
   -1.3752    2.2703    1.5207 H   0  0  0  0  0  0  0  0  0  0  0  0
   -4.4112    1.0322    3.0640 H   0  0  0  0  0  0  0  0  0  0  0  0
   -6.6329    2.0642    2.7581 H   0  0  0  0  0  0  0  0  0  0  0  0
   -6.9950    3.7439    0.9678 H   0  0  0  0  0  0  0  0  0  0  0  0
   -5.1193    4.3929   -0.5202 H   0  0  0  0  0  0  0  0  0  0  0  0
   -2.8906    3.3729   -0.2290 H   0  0  0  0  0  0  0  0  0  0  0  0
   -3.0671   -1.1007   -0.3494 H   0  0  0  0  0  0  0  0  0  0  0  0
   -5.0663   -2.1057   -0.4367 H   0  0  0  0  0  0  0  0  0  0  0  0
   -6.4405   -4.3406   -0.1570 H   0  0  0  0  0  0  0  0  0  0  0  0
   -5.7710   -5.5964    2.0617 H   0  0  0  0  0  0  0  0  0  0  0  0
    4.0116   -0.8368    0.5137 H   0  0  0  0  0  0  0  0  0  0  0  0
    3.7163   -0.0446   -2.3183 H   0  0  0  0  0  0  0  0  0  0  0  0
    5.9126    1.0111   -0.4657 H   0  0  0  0  0  0  0  0  0  0  0  0
    4.6721    1.9690   -1.2587 H   0  0  0  0  0  0  0  0  0  0  0  0
    5.5755    1.4378   -3.4745 H   0  0  0  0  0  0  0  0  0  0  0  0
    6.8564    2.0877   -2.4539 H   0  0  0  0  0  0  0  0  0  0  0  0
    7.7448   -0.1564   -2.0260 H   0  0  0  0  0  0  0  0  0  0  0  0
    7.6052    0.0934   -3.7647 H   0  0  0  0  0  0  0  0  0  0  0  0
    6.7803   -2.1597   -3.0598 H   0  0  0  0  0  0  0  0  0  0  0  0
    5.5267   -1.2060   -3.8496 H   0  0  0  0  0  0  0  0  0  0  0  0
    4.5965   -2.3010   -1.8594 H   0  0  0  0  0  0  0  0  0  0  0  0
    5.8718   -1.6451   -0.8441 H   0  0  0  0  0  0  0  0  0  0  0  0
  1  2  2  0
  2  3  1  0
  3  4  1  0
  4  5  1  0
  5  6  2  0
  5  7  1  0
  7  8  1  0
  8  9  1  0
  9 10  2  0
 10 11  1  0
 11 12  2  0
 12 13  1  0
 13 14  2  0
  7 15  1  0
 15 16  1  0
 16 17  2  0
 16 18  1  0
 18 19  2  0
 19 20  1  0
 20 21  2  0
 21 22  1  0
  2 23  1  0
 23 24  1  0
 24 25  1  0
 25 26  1  0
 26 27  1  0
 27 28  1  0
 28 29  1  0
 14  9  1  0
 22 18  1  0
 29 24  1  0
  3 30  1  0
  3 31  1  0
  7 32  1  0
  8 33  1  0
  8 34  1  0
 10 35  1  0
 11 36  1  0
 12 37  1  0
 13 38  1  0
 14 39  1  0
 15 40  1  0
 19 41  1  0
 20 42  1  0
 21 43  1  0
 23 44  1  0
 24 45  1  0
 25 46  1  0
 25 47  1  0
 26 48  1  0
 26 49  1  0
 27 50  1  0
 27 51  1  0
 28 52  1  0
 28 53  1  0
 29 54  1  0
 29 55  1  0
M  END
$$$$
