
     RDKit          3D

 42 44  0  0  0  0  0  0  0  0999 V2000
   -6.9242   -1.0621   -0.6851 C   0  0  0  0  0  0  0  0  0  0  0  0
   -5.5288   -0.5984   -0.3867 C   0  0  0  0  0  0  0  0  0  0  0  0
   -4.9334    0.4019   -1.1620 C   0  0  0  0  0  0  0  0  0  0  0  0
   -3.6382    0.8655   -0.8791 C   0  0  0  0  0  0  0  0  0  0  0  0
   -3.0391    1.9330   -1.7567 C   0  0  0  0  0  0  0  0  0  0  0  0
   -2.9395    0.3288    0.2248 C   0  0  0  0  0  0  0  0  0  0  0  0
   -1.6071    0.8135    0.5500 C   0  0  0  0  0  0  0  0  0  0  0  0
   -1.3858    1.9407    1.3152 C   0  0  0  0  0  0  0  0  0  0  0  0
    0.3013    2.1881    1.4807 S   0  0  0  0  0  0  0  0  0  0  0  0
    0.5917    0.7975    0.5414 C   0  0  0  0  0  0  0  0  0  0  0  0
    1.8473    0.3412    0.2322 N   0  0  0  0  0  0  0  0  0  0  0  0
    3.0444    0.8987    0.6039 C   0  0  0  0  0  0  0  0  0  0  0  0
    3.2273    1.9018    1.2793 O   0  0  0  0  0  0  0  0  0  0  0  0
    4.1991    0.1158    0.0727 C   0  0  0  0  0  0  0  0  0  0  0  0
    5.4512    0.5240    0.3309 C   0  0  0  0  0  0  0  0  0  0  0  0
    6.6003   -0.1763   -0.1440 C   0  0  0  0  0  0  0  0  0  0  0  0
    6.7260   -1.3288   -0.9049 C   0  0  0  0  0  0  0  0  0  0  0  0
    8.0817   -1.6921   -1.1598 C   0  0  0  0  0  0  0  0  0  0  0  0
    8.9654   -0.8096   -0.5870 C   0  0  0  0  0  0  0  0  0  0  0  0
    8.1652    0.4450    0.2475 S   0  0  0  0  0  0  0  0  0  0  0  0
   -0.4713    0.1588    0.1116 N   0  0  0  0  0  0  0  0  0  0  0  0
   -3.5323   -0.6801    1.0155 C   0  0  0  0  0  0  0  0  0  0  0  0
   -2.8146   -1.2906    2.1906 C   0  0  0  0  0  0  0  0  0  0  0  0
   -4.8269   -1.1251    0.7024 C   0  0  0  0  0  0  0  0  0  0  0  0
   -7.0498   -2.1171   -0.4193 H   0  0  0  0  0  0  0  0  0  0  0  0
   -7.1484   -0.9684   -1.7529 H   0  0  0  0  0  0  0  0  0  0  0  0
   -7.6456   -0.4651   -0.1188 H   0  0  0  0  0  0  0  0  0  0  0  0
   -5.4839    0.8220   -2.0022 H   0  0  0  0  0  0  0  0  0  0  0  0
   -3.6663    2.1285   -2.6333 H   0  0  0  0  0  0  0  0  0  0  0  0
   -2.0575    1.6218   -2.1287 H   0  0  0  0  0  0  0  0  0  0  0  0
   -2.9422    2.8713   -1.2017 H   0  0  0  0  0  0  0  0  0  0  0  0
   -2.1065    2.6066    1.7678 H   0  0  0  0  0  0  0  0  0  0  0  0
    1.8188   -0.4943   -0.3328 H   0  0  0  0  0  0  0  0  0  0  0  0
    3.9870   -0.7692   -0.5111 H   0  0  0  0  0  0  0  0  0  0  0  0
    5.6093    1.4238    0.9258 H   0  0  0  0  0  0  0  0  0  0  0  0
    5.8852   -1.9029   -1.2728 H   0  0  0  0  0  0  0  0  0  0  0  0
    8.3900   -2.5574   -1.7336 H   0  0  0  0  0  0  0  0  0  0  0  0
   10.0459   -0.8390   -0.6178 H   0  0  0  0  0  0  0  0  0  0  0  0
   -2.6095   -0.5302    2.9509 H   0  0  0  0  0  0  0  0  0  0  0  0
   -1.8758   -1.7527    1.8687 H   0  0  0  0  0  0  0  0  0  0  0  0
   -3.4160   -2.0740    2.6645 H   0  0  0  0  0  0  0  0  0  0  0  0
   -5.2943   -1.8948    1.3142 H   0  0  0  0  0  0  0  0  0  0  0  0
  1  2  1  0
  2  3  2  0
  3  4  1  0
  4  5  1  0
  4  6  2  0
  6  7  1  0
  7  8  2  0
  8  9  1  0
  9 10  1  0
 10 11  1  0
 11 12  1  0
 12 13  2  0
 12 14  1  0
 14 15  2  3
 15 16  1  0
 16 17  2  0
 17 18  1  0
 18 19  2  0
 19 20  1  0
 10 21  2  0
  6 22  1  0
 22 23  1  0
 22 24  2  0
 24  2  1  0
 21  7  1  0
 20 16  1  0
  1 25  1  0
  1 26  1  0
  1 27  1  0
  3 28  1  0
  5 29  1  0
  5 30  1  0
  5 31  1  0
  8 32  1  0
 11 33  1  0
 14 34  1  0
 15 35  1  0
 17 36  1  0
 18 37  1  0
 19 38  1  0
 23 39  1  0
 23 40  1  0
 23 41  1  0
 24 42  1  0
M  END
$$$$
