
     RDKit          3D

 49 52  0  0  0  0  0  0  0  0999 V2000
   -0.5500    2.9915    3.9703 C   0  0  0  0  0  0  0  0  0  0  0  0
   -0.5446    2.4579    2.5469 C   0  0  0  0  0  0  0  0  0  0  0  0
   -0.3409    0.9447    2.5189 C   0  0  0  0  0  0  0  0  0  0  0  0
   -0.3264    0.4270    1.1069 C   0  0  0  0  0  0  0  0  0  0  0  0
    0.8666    0.3401    0.4880 N   0  0  0  0  0  0  0  0  0  0  0  0
    0.9017   -0.1001   -0.7869 C   0  0  0  0  0  0  0  0  0  0  0  0
    2.1495   -0.1998   -1.4413 N   0  0  0  0  0  0  0  0  0  0  0  0
    2.5569   -1.6232   -1.5851 C   0  0  0  0  0  0  0  0  0  0  0  0
    4.0932   -1.7638   -1.6799 C   0  0  0  0  0  0  0  0  0  0  0  0
    4.7957   -1.2869   -0.4681 N   0  0  0  0  0  0  0  0  0  0  0  0
    6.1995   -1.0158   -0.7647 C   0  0  0  0  0  0  0  0  0  0  0  0
    4.1165   -0.1073    0.1187 C   0  0  0  0  0  0  0  0  0  0  0  0
    3.2060    0.6639   -0.8621 C   0  0  0  0  0  0  0  0  0  0  0  0
   -0.2754   -0.4372   -1.4332 C   0  0  0  0  0  0  0  0  0  0  0  0
   -0.5702   -0.9324   -3.0976 S   0  0  0  0  0  0  0  0  0  0  0  0
   -2.3213   -1.0365   -2.8137 C   0  0  0  0  0  0  0  0  0  0  0  0
   -3.3328   -1.6241   -4.0104 S   0  0  0  0  0  0  0  0  0  0  0  0
   -2.6066   -0.6535   -1.4973 N   0  0  0  0  0  0  0  0  0  0  0  0
   -3.9005   -0.5411   -0.9085 C   0  0  0  0  0  0  0  0  0  0  0  0
   -4.9617    0.0533   -1.6070 C   0  0  0  0  0  0  0  0  0  0  0  0
   -6.2349    0.1553   -1.0364 C   0  0  0  0  0  0  0  0  0  0  0  0
   -6.4682   -0.3352    0.2445 C   0  0  0  0  0  0  0  0  0  0  0  0
   -5.4281   -0.9237    0.9567 C   0  0  0  0  0  0  0  0  0  0  0  0
   -4.1558   -1.0240    0.3852 C   0  0  0  0  0  0  0  0  0  0  0  0
   -1.4536   -0.3211   -0.7226 C   0  0  0  0  0  0  0  0  0  0  0  0
   -1.5034    0.1149    0.5462 N   0  0  0  0  0  0  0  0  0  0  0  0
    0.4040    2.7888    4.4673 H   0  0  0  0  0  0  0  0  0  0  0  0
   -1.3491    2.5304    4.5600 H   0  0  0  0  0  0  0  0  0  0  0  0
   -0.7102    4.0745    3.9692 H   0  0  0  0  0  0  0  0  0  0  0  0
   -1.4922    2.7203    2.0611 H   0  0  0  0  0  0  0  0  0  0  0  0
    0.2497    2.9563    1.9783 H   0  0  0  0  0  0  0  0  0  0  0  0
   -1.1402    0.4425    3.0773 H   0  0  0  0  0  0  0  0  0  0  0  0
    0.6043    0.6802    3.0085 H   0  0  0  0  0  0  0  0  0  0  0  0
    2.1185   -2.0400   -2.4977 H   0  0  0  0  0  0  0  0  0  0  0  0
    2.2030   -2.2264   -0.7368 H   0  0  0  0  0  0  0  0  0  0  0  0
    4.4330   -1.2115   -2.5672 H   0  0  0  0  0  0  0  0  0  0  0  0
    4.3455   -2.8187   -1.8396 H   0  0  0  0  0  0  0  0  0  0  0  0
    6.6836   -1.9070   -1.1795 H   0  0  0  0  0  0  0  0  0  0  0  0
    6.7438   -0.7609    0.1517 H   0  0  0  0  0  0  0  0  0  0  0  0
    6.3204   -0.1925   -1.4781 H   0  0  0  0  0  0  0  0  0  0  0  0
    3.5065   -0.4728    0.9542 H   0  0  0  0  0  0  0  0  0  0  0  0
    4.8417    0.5855    0.5629 H   0  0  0  0  0  0  0  0  0  0  0  0
    3.8191    1.0371   -1.6931 H   0  0  0  0  0  0  0  0  0  0  0  0
    2.7980    1.5633   -0.3838 H   0  0  0  0  0  0  0  0  0  0  0  0
   -4.8134    0.4849   -2.5932 H   0  0  0  0  0  0  0  0  0  0  0  0
   -7.0416    0.6243   -1.5945 H   0  0  0  0  0  0  0  0  0  0  0  0
   -7.4579   -0.2571    0.6873 H   0  0  0  0  0  0  0  0  0  0  0  0
   -5.6037   -1.3110    1.9570 H   0  0  0  0  0  0  0  0  0  0  0  0
   -3.3742   -1.5132    0.9612 H   0  0  0  0  0  0  0  0  0  0  0  0
  1  2  1  0
  2  3  1  0
  3  4  1  0
  4  5  2  0
  5  6  1  0
  6  7  1  0
  7  8  1  0
  8  9  1  0
  9 10  1  0
 10 11  1  0
 10 12  1  0
 12 13  1  0
  6 14  2  0
 14 15  1  0
 15 16  1  0
 16 17  2  0
 16 18  1  0
 18 19  1  0
 19 20  2  0
 20 21  1  0
 21 22  2  0
 22 23  1  0
 23 24  2  0
 18 25  1  0
 25 26  2  0
 26  4  1  0
 13  7  1  0
 25 14  1  0
 24 19  1  0
  1 27  1  0
  1 28  1  0
  1 29  1  0
  2 30  1  0
  2 31  1  0
  3 32  1  0
  3 33  1  0
  8 34  1  0
  8 35  1  0
  9 36  1  0
  9 37  1  0
 11 38  1  0
 11 39  1  0
 11 40  1  0
 12 41  1  0
 12 42  1  0
 13 43  1  0
 13 44  1  0
 20 45  1  0
 21 46  1  0
 22 47  1  0
 23 48  1  0
 24 49  1  0
M  END
$$$$
