
     RDKit          3D

 44 47  0  0  0  0  0  0  0  0999 V2000
    5.7070    2.0141   -2.4831 C   0  0  0  0  0  0  0  0  0  0  0  0
    4.5172    1.5005   -1.9018 O   0  0  0  0  0  0  0  0  0  0  0  0
    4.6922    0.5232   -1.0193 C   0  0  0  0  0  0  0  0  0  0  0  0
    5.7612   -0.1538   -0.4732 C   0  0  0  0  0  0  0  0  0  0  0  0
    5.2143   -1.0976    0.4306 C   0  0  0  0  0  0  0  0  0  0  0  0
    3.8423   -0.9447    0.3816 C   0  0  0  0  0  0  0  0  0  0  0  0
    2.7798   -1.6292    1.0853 C   0  0  0  0  0  0  0  0  0  0  0  0
    2.9744   -2.4998    1.9291 O   0  0  0  0  0  0  0  0  0  0  0  0
    1.5174   -1.2111    0.7323 N   0  0  0  0  0  0  0  0  0  0  0  0
    0.3281   -1.6893    1.4015 C   0  0  0  0  0  0  0  0  0  0  0  0
    0.1125   -0.9567    2.7470 C   0  0  0  0  0  0  0  0  0  0  0  0
   -0.4279    0.4732    2.5484 C   0  0  0  0  0  0  0  0  0  0  0  0
   -1.7920    0.4835    1.8303 C   0  0  0  0  0  0  0  0  0  0  0  0
   -1.7828   -0.4617    0.6765 C   0  0  0  0  0  0  0  0  0  0  0  0
   -0.8218   -1.4403    0.4870 C   0  0  0  0  0  0  0  0  0  0  0  0
   -1.1645   -2.0451   -0.7244 C   0  0  0  0  0  0  0  0  0  0  0  0
   -2.2426   -1.4940   -1.2740 N   0  0  0  0  0  0  0  0  0  0  0  0
   -2.6551   -0.5291   -0.4065 N   0  0  0  0  0  0  0  0  0  0  0  0
   -3.8466    0.2045   -0.6785 C   0  0  0  0  0  0  0  0  0  0  0  0
   -4.5576    0.8621    0.3365 C   0  0  0  0  0  0  0  0  0  0  0  0
   -5.7335    1.5657    0.0454 C   0  0  0  0  0  0  0  0  0  0  0  0
   -6.2175    1.6191   -1.2583 C   0  0  0  0  0  0  0  0  0  0  0  0
   -5.5269    0.9637   -2.2724 C   0  0  0  0  0  0  0  0  0  0  0  0
   -4.3553    0.2607   -1.9844 C   0  0  0  0  0  0  0  0  0  0  0  0
   -3.7254   -0.3063   -3.0235 F   0  0  0  0  0  0  0  0  0  0  0  0
    3.5257    0.0508   -0.5053 O   0  0  0  0  0  0  0  0  0  0  0  0
    6.3567    2.4562   -1.7201 H   0  0  0  0  0  0  0  0  0  0  0  0
    6.2411    1.2346   -3.0371 H   0  0  0  0  0  0  0  0  0  0  0  0
    5.4278    2.8018   -3.1892 H   0  0  0  0  0  0  0  0  0  0  0  0
    6.8060    0.0082   -0.6938 H   0  0  0  0  0  0  0  0  0  0  0  0
    5.7437   -1.8105    1.0484 H   0  0  0  0  0  0  0  0  0  0  0  0
    1.4515   -0.4340    0.0827 H   0  0  0  0  0  0  0  0  0  0  0  0
    0.4413   -2.7632    1.5914 H   0  0  0  0  0  0  0  0  0  0  0  0
    1.0447   -0.9194    3.3225 H   0  0  0  0  0  0  0  0  0  0  0  0
   -0.6126   -1.5195    3.3498 H   0  0  0  0  0  0  0  0  0  0  0  0
   -0.5278    0.9700    3.5203 H   0  0  0  0  0  0  0  0  0  0  0  0
    0.2973    1.0574    1.9674 H   0  0  0  0  0  0  0  0  0  0  0  0
   -2.0127    1.5062    1.5083 H   0  0  0  0  0  0  0  0  0  0  0  0
   -2.5564    0.1669    2.5489 H   0  0  0  0  0  0  0  0  0  0  0  0
   -0.6641   -2.8515   -1.2457 H   0  0  0  0  0  0  0  0  0  0  0  0
   -4.2627    0.8132    1.3767 H   0  0  0  0  0  0  0  0  0  0  0  0
   -6.2792    2.0626    0.8449 H   0  0  0  0  0  0  0  0  0  0  0  0
   -7.1308    2.1637   -1.4832 H   0  0  0  0  0  0  0  0  0  0  0  0
   -5.8864    0.9949   -3.2968 H   0  0  0  0  0  0  0  0  0  0  0  0
  1  2  1  0
  2  3  1  0
  3  4  2  0
  4  5  1  0
  5  6  2  0
  6  7  1  0
  7  8  2  0
  7  9  1  0
  9 10  1  0
 10 11  1  0
 11 12  1  0
 12 13  1  0
 13 14  1  0
 14 15  2  0
 15 16  1  0
 16 17  2  0
 17 18  1  0
 18 19  1  0
 19 20  2  0
 20 21  1  0
 21 22  2  0
 22 23  1  0
 23 24  2  0
 24 25  1  0
  6 26  1  0
 26  3  1  0
 15 10  1  0
 24 19  1  0
 18 14  1  0
  1 27  1  0
  1 28  1  0
  1 29  1  0
  4 30  1  0
  5 31  1  0
  9 32  1  0
 10 33  1  0
 11 34  1  0
 11 35  1  0
 12 36  1  0
 12 37  1  0
 13 38  1  0
 13 39  1  0
 16 40  1  0
 20 41  1  0
 21 42  1  0
 22 43  1  0
 23 44  1  0
M  END
$$$$
