
     RDKit          3D

 57 60  0  0  0  0  0  0  0  0999 V2000
   -1.4160    0.9986    2.1775 O   0  0  0  0  0  0  0  0  0  0  0  0
   -0.7040    1.4722    1.2993 C   0  0  0  0  0  0  0  0  0  0  0  0
    0.7401    1.8815    1.5161 C   0  0  0  0  0  0  0  0  0  0  0  0
    1.3858    1.2289    2.7380 C   0  0  0  0  0  0  0  0  0  0  0  0
    1.5352   -0.2969    2.6618 C   0  0  0  0  0  0  0  0  0  0  0  0
    2.2183   -0.8423    1.4054 C   0  0  0  0  0  0  0  0  0  0  0  0
    3.6383   -0.3071    1.1982 C   0  0  0  0  0  0  0  0  0  0  0  0
    4.2325   -0.8375   -0.0245 N   0  0  0  0  0  0  0  0  0  0  0  0
    3.9519   -0.1835   -1.2149 C   0  0  0  0  0  0  0  0  0  0  0  0
    3.2408    0.8178   -1.3032 O   0  0  0  0  0  0  0  0  0  0  0  0
    4.5056   -0.7063   -2.3488 N   0  0  0  0  0  0  0  0  0  0  0  0
    5.2947   -1.8525   -2.3703 C   0  0  0  0  0  0  0  0  0  0  0  0
    5.8226   -2.3140   -3.5763 C   0  0  0  0  0  0  0  0  0  0  0  0
    6.6081   -3.4692   -3.5888 C   0  0  0  0  0  0  0  0  0  0  0  0
    6.8624   -4.1592   -2.4020 C   0  0  0  0  0  0  0  0  0  0  0  0
    6.3315   -3.6952   -1.1977 C   0  0  0  0  0  0  0  0  0  0  0  0
    5.5469   -2.5375   -1.1875 C   0  0  0  0  0  0  0  0  0  0  0  0
    4.9672   -2.0188    0.0664 C   0  0  0  0  0  0  0  0  0  0  0  0
    5.1490   -2.6389    1.1116 O   0  0  0  0  0  0  0  0  0  0  0  0
   -1.1490    1.7320    0.0210 N   0  0  0  0  0  0  0  0  0  0  0  0
   -2.5096    1.4358   -0.3879 C   0  0  0  0  0  0  0  0  0  0  0  0
   -3.5037    2.5009    0.0816 C   0  0  0  0  0  0  0  0  0  0  0  0
   -4.9029    2.2000   -0.3535 C   0  0  0  0  0  0  0  0  0  0  0  0
   -5.5762    2.7634   -1.4199 C   0  0  0  0  0  0  0  0  0  0  0  0
   -6.8308    2.2174   -1.4721 N   0  0  0  0  0  0  0  0  0  0  0  0
   -6.9949    1.3006   -0.4605 C   0  0  0  0  0  0  0  0  0  0  0  0
   -8.0997    0.5057   -0.1319 C   0  0  0  0  0  0  0  0  0  0  0  0
   -7.9791   -0.3474    0.9694 C   0  0  0  0  0  0  0  0  0  0  0  0
   -6.8008   -0.4008    1.7102 C   0  0  0  0  0  0  0  0  0  0  0  0
   -5.7062    0.4013    1.3681 C   0  0  0  0  0  0  0  0  0  0  0  0
   -5.8019    1.2699    0.2612 C   0  0  0  0  0  0  0  0  0  0  0  0
    0.7435    2.9696    1.6556 H   0  0  0  0  0  0  0  0  0  0  0  0
    1.3230    1.6733    0.6137 H   0  0  0  0  0  0  0  0  0  0  0  0
    0.8024    1.4724    3.6350 H   0  0  0  0  0  0  0  0  0  0  0  0
    2.3743    1.6783    2.8907 H   0  0  0  0  0  0  0  0  0  0  0  0
    0.5444   -0.7603    2.7401 H   0  0  0  0  0  0  0  0  0  0  0  0
    2.0943   -0.6317    3.5446 H   0  0  0  0  0  0  0  0  0  0  0  0
    2.2561   -1.9366    1.4812 H   0  0  0  0  0  0  0  0  0  0  0  0
    1.6004   -0.6306    0.5249 H   0  0  0  0  0  0  0  0  0  0  0  0
    4.2637   -0.5731    2.0582 H   0  0  0  0  0  0  0  0  0  0  0  0
    3.6331    0.7860    1.1324 H   0  0  0  0  0  0  0  0  0  0  0  0
    4.2970   -0.2088   -3.2045 H   0  0  0  0  0  0  0  0  0  0  0  0
    5.6328   -1.7896   -4.5087 H   0  0  0  0  0  0  0  0  0  0  0  0
    7.0227   -3.8342   -4.5260 H   0  0  0  0  0  0  0  0  0  0  0  0
    7.4732   -5.0593   -2.4146 H   0  0  0  0  0  0  0  0  0  0  0  0
    6.5287   -4.2342   -0.2733 H   0  0  0  0  0  0  0  0  0  0  0  0
   -0.5136    2.1379   -0.6547 H   0  0  0  0  0  0  0  0  0  0  0  0
   -2.7824    0.4500    0.0067 H   0  0  0  0  0  0  0  0  0  0  0  0
   -2.5079    1.3661   -1.4815 H   0  0  0  0  0  0  0  0  0  0  0  0
   -3.1989    3.4803   -0.3091 H   0  0  0  0  0  0  0  0  0  0  0  0
   -3.4758    2.5922    1.1743 H   0  0  0  0  0  0  0  0  0  0  0  0
   -5.2707    3.5084   -2.1424 H   0  0  0  0  0  0  0  0  0  0  0  0
   -7.5407    2.4506   -2.1520 H   0  0  0  0  0  0  0  0  0  0  0  0
   -9.0195    0.5454   -0.7057 H   0  0  0  0  0  0  0  0  0  0  0  0
   -8.8188   -0.9779    1.2521 H   0  0  0  0  0  0  0  0  0  0  0  0
   -6.7265   -1.0699    2.5638 H   0  0  0  0  0  0  0  0  0  0  0  0
   -4.7910    0.3528    1.9532 H   0  0  0  0  0  0  0  0  0  0  0  0
  1  2  2  0
  2  3  1  0
  3  4  1  0
  4  5  1  0
  5  6  1  0
  6  7  1  0
  7  8  1  0
  8  9  1  0
  9 10  2  0
  9 11  1  0
 11 12  1  0
 12 13  2  0
 13 14  1  0
 14 15  2  0
 15 16  1  0
 16 17  2  0
 17 18  1  0
 18 19  2  0
  2 20  1  0
 20 21  1  0
 21 22  1  0
 22 23  1  0
 23 24  2  0
 24 25  1  0
 25 26  1  0
 26 27  2  0
 27 28  1  0
 28 29  2  0
 29 30  1  0
 30 31  2  0
 18  8  1  0
 31 23  1  0
 17 12  1  0
 31 26  1  0
  3 32  1  0
  3 33  1  0
  4 34  1  0
  4 35  1  0
  5 36  1  0
  5 37  1  0
  6 38  1  0
  6 39  1  0
  7 40  1  0
  7 41  1  0
 11 42  1  0
 13 43  1  0
 14 44  1  0
 15 45  1  0
 16 46  1  0
 20 47  1  0
 21 48  1  0
 21 49  1  0
 22 50  1  0
 22 51  1  0
 24 52  1  0
 25 53  1  0
 27 54  1  0
 28 55  1  0
 29 56  1  0
 30 57  1  0
M  END
$$$$
