
     RDKit          3D

 45 47  0  0  0  0  0  0  0  0999 V2000
    0.6070   -0.9472   -2.0184 O   0  0  0  0  0  0  0  0  0  0  0  0
    0.7726   -0.7120   -0.8292 C   0  0  0  0  0  0  0  0  0  0  0  0
    2.1194   -0.5549   -0.2230 C   0  0  0  0  0  0  0  0  0  0  0  0
    3.2087   -0.5913   -1.0058 C   0  0  0  0  0  0  0  0  0  0  0  0
    4.5802   -0.4352   -0.5045 C   0  0  0  0  0  0  0  0  0  0  0  0
    5.0108   -1.0451    0.6958 C   0  0  0  0  0  0  0  0  0  0  0  0
    6.3294   -0.9053    1.1444 C   0  0  0  0  0  0  0  0  0  0  0  0
    7.1934   -0.1630    0.3709 C   0  0  0  0  0  0  0  0  0  0  0  0
    6.7887    0.4211   -0.8053 C   0  0  0  0  0  0  0  0  0  0  0  0
    5.4961    0.2996   -1.2723 C   0  0  0  0  0  0  0  0  0  0  0  0
    7.7939    1.1023   -1.4183 O   0  0  0  0  0  0  0  0  0  0  0  0
    8.8780    0.8768   -0.4937 C   0  0  0  0  0  0  0  0  0  0  0  0
    8.5028    0.0764    0.6468 O   0  0  0  0  0  0  0  0  0  0  0  0
   -0.2421   -0.5559    0.0851 N   0  0  0  0  0  0  0  0  0  0  0  0
   -1.6307   -0.5039   -0.3379 C   0  0  0  0  0  0  0  0  0  0  0  0
   -2.5559   -1.0176    0.7620 C   0  0  0  0  0  0  0  0  0  0  0  0
   -4.0266   -1.0409    0.3273 C   0  0  0  0  0  0  0  0  0  0  0  0
   -4.5484    0.2884   -0.0113 N   0  0  0  0  0  0  0  0  0  0  0  0
   -4.8042    1.1419    1.1701 C   0  0  0  0  0  0  0  0  0  0  0  0
   -6.2922    1.2549    1.5422 C   0  0  0  0  0  0  0  0  0  0  0  0
   -7.1018    1.7803    0.4830 O   0  0  0  0  0  0  0  0  0  0  0  0
   -6.5919    1.4698   -0.8213 C   0  0  0  0  0  0  0  0  0  0  0  0
   -5.7679    0.1745   -0.8426 C   0  0  0  0  0  0  0  0  0  0  0  0
    2.1853   -0.4066    0.8463 H   0  0  0  0  0  0  0  0  0  0  0  0
    3.1059   -0.7168   -2.0830 H   0  0  0  0  0  0  0  0  0  0  0  0
    4.3232   -1.6488    1.2841 H   0  0  0  0  0  0  0  0  0  0  0  0
    6.6635   -1.3716    2.0642 H   0  0  0  0  0  0  0  0  0  0  0  0
    5.2081    0.7709   -2.2064 H   0  0  0  0  0  0  0  0  0  0  0  0
    9.2415    1.8472   -0.1363 H   0  0  0  0  0  0  0  0  0  0  0  0
    9.6923    0.3703   -1.0247 H   0  0  0  0  0  0  0  0  0  0  0  0
   -0.0200   -0.1826    0.9972 H   0  0  0  0  0  0  0  0  0  0  0  0
   -1.8467    0.5419   -0.5811 H   0  0  0  0  0  0  0  0  0  0  0  0
   -1.7570   -1.0949   -1.2517 H   0  0  0  0  0  0  0  0  0  0  0  0
   -2.2588   -2.0397    1.0304 H   0  0  0  0  0  0  0  0  0  0  0  0
   -2.4231   -0.4191    1.6707 H   0  0  0  0  0  0  0  0  0  0  0  0
   -4.0939   -1.6967   -0.5511 H   0  0  0  0  0  0  0  0  0  0  0  0
   -4.6365   -1.5074    1.1115 H   0  0  0  0  0  0  0  0  0  0  0  0
   -4.2345    0.8172    2.0470 H   0  0  0  0  0  0  0  0  0  0  0  0
   -4.4378    2.1449    0.9180 H   0  0  0  0  0  0  0  0  0  0  0  0
   -6.4130    1.9184    2.4047 H   0  0  0  0  0  0  0  0  0  0  0  0
   -6.6950    0.2760    1.8279 H   0  0  0  0  0  0  0  0  0  0  0  0
   -7.4502    1.3816   -1.4952 H   0  0  0  0  0  0  0  0  0  0  0  0
   -5.9929    2.3206   -1.1668 H   0  0  0  0  0  0  0  0  0  0  0  0
   -5.4770   -0.0581   -1.8729 H   0  0  0  0  0  0  0  0  0  0  0  0
   -6.4026   -0.6437   -0.4768 H   0  0  0  0  0  0  0  0  0  0  0  0
  1  2  2  0
  2  3  1  0
  3  4  2  3
  4  5  1  0
  5  6  2  0
  6  7  1  0
  7  8  2  0
  8  9  1  0
  9 10  2  0
  9 11  1  0
 11 12  1  0
 12 13  1  0
  2 14  1  0
 14 15  1  0
 15 16  1  0
 16 17  1  0
 17 18  1  0
 18 19  1  0
 19 20  1  0
 20 21  1  0
 21 22  1  0
 22 23  1  0
 10  5  1  0
 23 18  1  0
 13  8  1  0
  3 24  1  0
  4 25  1  0
  6 26  1  0
  7 27  1  0
 10 28  1  0
 12 29  1  0
 12 30  1  0
 14 31  1  0
 15 32  1  0
 15 33  1  0
 16 34  1  0
 16 35  1  0
 17 36  1  0
 17 37  1  0
 19 38  1  0
 19 39  1  0
 20 40  1  0
 20 41  1  0
 22 42  1  0
 22 43  1  0
 23 44  1  0
 23 45  1  0
M  END
$$$$
