
     RDKit          3D

 60 64  0  0  0  0  0  0  0  0999 V2000
    8.3192   -0.2305    1.2176 C   0  0  0  0  0  0  0  0  0  0  0  0
    6.9839   -0.0417    0.7678 O   0  0  0  0  0  0  0  0  0  0  0  0
    6.6582   -0.5547   -0.4630 C   0  0  0  0  0  0  0  0  0  0  0  0
    7.6157   -0.8177   -1.4556 C   0  0  0  0  0  0  0  0  0  0  0  0
    7.2320   -1.3025   -2.7074 C   0  0  0  0  0  0  0  0  0  0  0  0
    5.8885   -1.5194   -2.9857 C   0  0  0  0  0  0  0  0  0  0  0  0
    4.9271   -1.2514   -2.0096 C   0  0  0  0  0  0  0  0  0  0  0  0
    5.2902   -0.7664   -0.7365 C   0  0  0  0  0  0  0  0  0  0  0  0
    4.2488   -0.5224    0.2677 C   0  0  0  0  0  0  0  0  0  0  0  0
    4.3265   -0.4494    1.5821 N   0  0  0  0  0  0  0  0  0  0  0  0
    3.0275   -0.2281    1.9753 C   0  0  0  0  0  0  0  0  0  0  0  0
    2.6924   -0.1100    3.3547 C   0  0  0  0  0  0  0  0  0  0  0  0
    2.3859   -0.0053    4.4713 N   0  0  0  0  0  0  0  0  0  0  0  0
    2.1814   -0.1731    0.8831 C   0  0  0  0  0  0  0  0  0  0  0  0
    0.8523    0.0081    0.6658 N   0  0  0  0  0  0  0  0  0  0  0  0
   -0.0536    0.4432    1.7341 C   0  0  0  0  0  0  0  0  0  0  0  0
   -1.3681    1.0283    1.1677 C   0  0  0  0  0  0  0  0  0  0  0  0
   -2.1026    0.0737    0.3096 N   0  0  0  0  0  0  0  0  0  0  0  0
   -3.2814    0.6939   -0.3621 C   0  0  0  0  0  0  0  0  0  0  0  0
   -4.0875   -0.2972   -1.2168 C   0  0  0  0  0  0  0  0  0  0  0  0
   -4.6081    0.1129   -2.4568 C   0  0  0  0  0  0  0  0  0  0  0  0
   -5.3524   -0.7673   -3.2450 C   0  0  0  0  0  0  0  0  0  0  0  0
   -5.5953   -2.0660   -2.8024 C   0  0  0  0  0  0  0  0  0  0  0  0
   -5.0969   -2.4860   -1.5711 C   0  0  0  0  0  0  0  0  0  0  0  0
   -4.3513   -1.6078   -0.7825 C   0  0  0  0  0  0  0  0  0  0  0  0
   -4.2310    1.4143    0.6044 C   0  0  0  0  0  0  0  0  0  0  0  0
   -4.7246    0.7804    1.7591 C   0  0  0  0  0  0  0  0  0  0  0  0
   -5.5978    1.4448    2.6217 C   0  0  0  0  0  0  0  0  0  0  0  0
   -5.9978    2.7494    2.3393 C   0  0  0  0  0  0  0  0  0  0  0  0
   -5.5261    3.3907    1.1947 C   0  0  0  0  0  0  0  0  0  0  0  0
   -4.6497    2.7287    0.3317 C   0  0  0  0  0  0  0  0  0  0  0  0
   -1.1768   -0.5810   -0.6522 C   0  0  0  0  0  0  0  0  0  0  0  0
    0.2856   -0.0708   -0.6824 C   0  0  0  0  0  0  0  0  0  0  0  0
    2.9744   -0.3652   -0.2183 O   0  0  0  0  0  0  0  0  0  0  0  0
    8.3501    0.0164    2.2835 H   0  0  0  0  0  0  0  0  0  0  0  0
    8.6412   -1.2722    1.1083 H   0  0  0  0  0  0  0  0  0  0  0  0
    9.0013    0.4503    0.6979 H   0  0  0  0  0  0  0  0  0  0  0  0
    8.6732   -0.6391   -1.2855 H   0  0  0  0  0  0  0  0  0  0  0  0
    7.9851   -1.5040   -3.4664 H   0  0  0  0  0  0  0  0  0  0  0  0
    5.5864   -1.8961   -3.9597 H   0  0  0  0  0  0  0  0  0  0  0  0
    3.8811   -1.4352   -2.2496 H   0  0  0  0  0  0  0  0  0  0  0  0
    0.4185    1.2235    2.3427 H   0  0  0  0  0  0  0  0  0  0  0  0
   -0.2811   -0.4091    2.3870 H   0  0  0  0  0  0  0  0  0  0  0  0
   -1.1352    1.9430    0.6052 H   0  0  0  0  0  0  0  0  0  0  0  0
   -1.9805    1.3220    2.0270 H   0  0  0  0  0  0  0  0  0  0  0  0
   -2.8728    1.4523   -1.0480 H   0  0  0  0  0  0  0  0  0  0  0  0
   -4.4403    1.1256   -2.8150 H   0  0  0  0  0  0  0  0  0  0  0  0
   -5.7479   -0.4371   -4.2022 H   0  0  0  0  0  0  0  0  0  0  0  0
   -6.1780   -2.7500   -3.4140 H   0  0  0  0  0  0  0  0  0  0  0  0
   -5.2910   -3.4966   -1.2207 H   0  0  0  0  0  0  0  0  0  0  0  0
   -3.9687   -1.9511    0.1764 H   0  0  0  0  0  0  0  0  0  0  0  0
   -4.4190   -0.2373    1.9940 H   0  0  0  0  0  0  0  0  0  0  0  0
   -5.9664    0.9416    3.5124 H   0  0  0  0  0  0  0  0  0  0  0  0
   -6.6805    3.2643    3.0101 H   0  0  0  0  0  0  0  0  0  0  0  0
   -5.8451    4.4063    0.9723 H   0  0  0  0  0  0  0  0  0  0  0  0
   -4.3003    3.2456   -0.5595 H   0  0  0  0  0  0  0  0  0  0  0  0
   -1.5483   -0.5395   -1.6852 H   0  0  0  0  0  0  0  0  0  0  0  0
   -1.1540   -1.6462   -0.3797 H   0  0  0  0  0  0  0  0  0  0  0  0
    0.3240    0.9226   -1.1483 H   0  0  0  0  0  0  0  0  0  0  0  0
    0.8596   -0.7544   -1.3201 H   0  0  0  0  0  0  0  0  0  0  0  0
  1  2  1  0
  2  3  1  0
  3  4  2  0
  4  5  1  0
  5  6  2  0
  6  7  1  0
  7  8  2  0
  8  9  1  0
  9 10  2  0
 10 11  1  0
 11 12  1  0
 12 13  3  0
 11 14  2  0
 14 15  1  0
 15 16  1  0
 16 17  1  0
 17 18  1  0
 18 19  1  0
 19 20  1  0
 20 21  2  0
 21 22  1  0
 22 23  2  0
 23 24  1  0
 24 25  2  0
 19 26  1  0
 26 27  2  0
 27 28  1  0
 28 29  2  0
 29 30  1  0
 30 31  2  0
 18 32  1  0
 32 33  1  0
 14 34  1  0
  8  3  1  0
 34  9  1  0
 33 15  1  0
 25 20  1  0
 31 26  1  0
  1 35  1  0
  1 36  1  0
  1 37  1  0
  4 38  1  0
  5 39  1  0
  6 40  1  0
  7 41  1  0
 16 42  1  0
 16 43  1  0
 17 44  1  0
 17 45  1  0
 19 46  1  0
 21 47  1  0
 22 48  1  0
 23 49  1  0
 24 50  1  0
 25 51  1  0
 27 52  1  0
 28 53  1  0
 29 54  1  0
 30 55  1  0
 31 56  1  0
 32 57  1  0
 32 58  1  0
 33 59  1  0
 33 60  1  0
M  END
$$$$
