
     RDKit          3D

 42 43  0  0  0  0  0  0  0  0999 V2000
   -3.1374   -0.5926    4.7016 C   0  0  0  0  0  0  0  0  0  0  0  0
   -3.7990   -0.6159    3.3215 C   0  0  0  0  0  0  0  0  0  0  0  0
   -4.7883    0.5424    3.1712 C   0  0  0  0  0  0  0  0  0  0  0  0
   -2.7668   -0.6162    2.2080 C   0  0  0  0  0  0  0  0  0  0  0  0
   -2.6925   -1.7021    1.3244 C   0  0  0  0  0  0  0  0  0  0  0  0
   -1.7498   -1.7272    0.2894 C   0  0  0  0  0  0  0  0  0  0  0  0
   -0.8647   -0.6639    0.1215 C   0  0  0  0  0  0  0  0  0  0  0  0
    0.0992   -0.5616   -0.8428 O   0  0  0  0  0  0  0  0  0  0  0  0
    0.2073   -1.6465   -1.7628 C   0  0  0  0  0  0  0  0  0  0  0  0
    1.3212   -1.3862   -2.7775 C   0  0  0  0  0  0  0  0  0  0  0  0
    1.7666   -2.2741   -3.4999 O   0  0  0  0  0  0  0  0  0  0  0  0
    1.7475   -0.0756   -2.8289 N   0  0  0  0  0  0  0  0  0  0  0  0
    2.8861    0.3331   -3.6317 C   0  0  0  0  0  0  0  0  0  0  0  0
    4.2094    0.0605   -2.9204 C   0  0  0  0  0  0  0  0  0  0  0  0
    4.3673    1.2275   -1.9499 C   0  0  0  0  0  0  0  0  0  0  0  0
    3.5788    2.3893   -2.5548 C   0  0  0  0  0  0  0  0  0  0  0  0
    2.9189    1.8461   -3.8212 C   0  0  0  0  0  0  0  0  0  0  0  0
   -0.9319    0.4206    0.9972 C   0  0  0  0  0  0  0  0  0  0  0  0
   -1.8722    0.4472    2.0307 C   0  0  0  0  0  0  0  0  0  0  0  0
   -2.5796    0.3345    4.8733 H   0  0  0  0  0  0  0  0  0  0  0  0
   -3.8917   -0.6774    5.4914 H   0  0  0  0  0  0  0  0  0  0  0  0
   -2.4381   -1.4286    4.8147 H   0  0  0  0  0  0  0  0  0  0  0  0
   -4.3801   -1.5456    3.2588 H   0  0  0  0  0  0  0  0  0  0  0  0
   -5.5737    0.4787    3.9322 H   0  0  0  0  0  0  0  0  0  0  0  0
   -5.2715    0.5195    2.1881 H   0  0  0  0  0  0  0  0  0  0  0  0
   -4.2988    1.5164    3.2799 H   0  0  0  0  0  0  0  0  0  0  0  0
   -3.3719   -2.5453    1.4336 H   0  0  0  0  0  0  0  0  0  0  0  0
   -1.7389   -2.5942   -0.3627 H   0  0  0  0  0  0  0  0  0  0  0  0
    0.4673   -2.5670   -1.2275 H   0  0  0  0  0  0  0  0  0  0  0  0
   -0.7234   -1.7647   -2.3293 H   0  0  0  0  0  0  0  0  0  0  0  0
    1.4438    0.5124   -2.0577 H   0  0  0  0  0  0  0  0  0  0  0  0
    2.8371   -0.1919   -4.5916 H   0  0  0  0  0  0  0  0  0  0  0  0
    5.0304    0.0820   -3.6477 H   0  0  0  0  0  0  0  0  0  0  0  0
    4.2410   -0.9046   -2.4053 H   0  0  0  0  0  0  0  0  0  0  0  0
    3.9489    0.9665   -0.9707 H   0  0  0  0  0  0  0  0  0  0  0  0
    5.4207    1.4833   -1.7982 H   0  0  0  0  0  0  0  0  0  0  0  0
    4.2261    3.2423   -2.7833 H   0  0  0  0  0  0  0  0  0  0  0  0
    2.8205    2.7360   -1.8434 H   0  0  0  0  0  0  0  0  0  0  0  0
    3.5457    2.0949   -4.6865 H   0  0  0  0  0  0  0  0  0  0  0  0
    1.9295    2.2844   -3.9867 H   0  0  0  0  0  0  0  0  0  0  0  0
   -0.2465    1.2559    0.8779 H   0  0  0  0  0  0  0  0  0  0  0  0
   -1.8966    1.3079    2.6948 H   0  0  0  0  0  0  0  0  0  0  0  0
  1  2  1  0
  2  3  1  0
  2  4  1  0
  4  5  2  0
  5  6  1  0
  6  7  2  0
  7  8  1  0
  8  9  1  0
  9 10  1  0
 10 11  2  0
 10 12  1  0
 12 13  1  0
 13 14  1  0
 14 15  1  0
 15 16  1  0
 16 17  1  0
  7 18  1  0
 18 19  2  0
 19  4  1  0
 17 13  1  0
  1 20  1  0
  1 21  1  0
  1 22  1  0
  2 23  1  0
  3 24  1  0
  3 25  1  0
  3 26  1  0
  5 27  1  0
  6 28  1  0
  9 29  1  0
  9 30  1  0
 12 31  1  0
 13 32  1  0
 14 33  1  0
 14 34  1  0
 15 35  1  0
 15 36  1  0
 16 37  1  0
 16 38  1  0
 17 39  1  0
 17 40  1  0
 18 41  1  0
 19 42  1  0
M  END
$$$$
