
     RDKit          3D

 37 38  0  0  0  0  0  0  0  0999 V2000
   -3.1490    2.8701   -0.3170 C   0  0  0  0  0  0  0  0  0  0  0  0
   -2.1475    1.9329   -0.6898 O   0  0  0  0  0  0  0  0  0  0  0  0
   -2.2751    0.6489   -0.2261 C   0  0  0  0  0  0  0  0  0  0  0  0
   -3.3147    0.2063    0.6045 C   0  0  0  0  0  0  0  0  0  0  0  0
   -3.3611   -1.1127    1.0704 C   0  0  0  0  0  0  0  0  0  0  0  0
   -4.4675   -1.5632    1.8046 N   0  0  0  0  0  0  0  0  0  0  0  0
   -2.4089   -2.0201    0.6113 C   0  0  0  0  0  0  0  0  0  0  0  0
   -1.3678   -1.5959   -0.2148 C   0  0  0  0  0  0  0  0  0  0  0  0
   -1.2839   -0.2594   -0.6384 C   0  0  0  0  0  0  0  0  0  0  0  0
   -0.1262    0.1557   -1.5251 C   0  0  0  0  0  0  0  0  0  0  0  0
    1.1633    0.3981   -0.7653 C   0  0  0  0  0  0  0  0  0  0  0  0
    1.3328    1.6193   -0.0925 C   0  0  0  0  0  0  0  0  0  0  0  0
    2.4977    1.8822    0.6291 C   0  0  0  0  0  0  0  0  0  0  0  0
    3.4959    0.9164    0.7354 C   0  0  0  0  0  0  0  0  0  0  0  0
    4.7081    1.2248    1.3679 N   0  0  0  0  0  0  0  0  0  0  0  0
    3.3569   -0.2785    0.0198 C   0  0  0  0  0  0  0  0  0  0  0  0
    2.1942   -0.5571   -0.7136 C   0  0  0  0  0  0  0  0  0  0  0  0
    1.9740   -1.7200   -1.4063 O   0  0  0  0  0  0  0  0  0  0  0  0
    3.0367   -2.6631   -1.4590 C   0  0  0  0  0  0  0  0  0  0  0  0
   -2.8979    3.8290   -0.7815 H   0  0  0  0  0  0  0  0  0  0  0  0
   -4.1325    2.5689   -0.6921 H   0  0  0  0  0  0  0  0  0  0  0  0
   -3.1653    3.0188    0.7673 H   0  0  0  0  0  0  0  0  0  0  0  0
   -4.1083    0.8783    0.9098 H   0  0  0  0  0  0  0  0  0  0  0  0
   -4.2783   -2.3987    2.3502 H   0  0  0  0  0  0  0  0  0  0  0  0
   -4.9154   -0.8379    2.3562 H   0  0  0  0  0  0  0  0  0  0  0  0
   -2.4635   -3.0673    0.8959 H   0  0  0  0  0  0  0  0  0  0  0  0
   -0.6193   -2.3169   -0.5381 H   0  0  0  0  0  0  0  0  0  0  0  0
    0.0135   -0.6055   -2.3034 H   0  0  0  0  0  0  0  0  0  0  0  0
   -0.3743    1.0598   -2.0961 H   0  0  0  0  0  0  0  0  0  0  0  0
    0.5537    2.3776   -0.1373 H   0  0  0  0  0  0  0  0  0  0  0  0
    2.6124    2.8488    1.1111 H   0  0  0  0  0  0  0  0  0  0  0  0
    5.2274    0.4108    1.6810 H   0  0  0  0  0  0  0  0  0  0  0  0
    4.6188    1.9276    2.0951 H   0  0  0  0  0  0  0  0  0  0  0  0
    4.1747   -0.9883    0.0571 H   0  0  0  0  0  0  0  0  0  0  0  0
    3.2573   -3.0601   -0.4632 H   0  0  0  0  0  0  0  0  0  0  0  0
    2.7101   -3.4996   -2.0838 H   0  0  0  0  0  0  0  0  0  0  0  0
    3.9291   -2.2301   -1.9232 H   0  0  0  0  0  0  0  0  0  0  0  0
  1  2  1  0
  2  3  1  0
  3  4  2  0
  4  5  1  0
  5  6  1  0
  5  7  2  0
  7  8  1  0
  8  9  2  0
  9 10  1  0
 10 11  1  0
 11 12  2  0
 12 13  1  0
 13 14  2  0
 14 15  1  0
 14 16  1  0
 16 17  2  0
 17 18  1  0
 18 19  1  0
  9  3  1  0
 17 11  1  0
  1 20  1  0
  1 21  1  0
  1 22  1  0
  4 23  1  0
  6 24  1  0
  6 25  1  0
  7 26  1  0
  8 27  1  0
 10 28  1  0
 10 29  1  0
 12 30  1  0
 13 31  1  0
 15 32  1  0
 15 33  1  0
 16 34  1  0
 19 35  1  0
 19 36  1  0
 19 37  1  0
M  END
$$$$
