
     RDKit          3D

 36 38  0  0  0  0  0  0  0  0999 V2000
   -2.0147    2.6880    1.6798 C   0  0  0  0  0  0  0  0  0  0  0  0
   -2.0387    1.3422    1.0150 C   0  0  0  0  0  0  0  0  0  0  0  0
   -2.6480    1.1825   -0.2369 C   0  0  0  0  0  0  0  0  0  0  0  0
   -2.7017   -0.0737   -0.8416 C   0  0  0  0  0  0  0  0  0  0  0  0
   -2.1330   -1.1743   -0.1939 C   0  0  0  0  0  0  0  0  0  0  0  0
   -2.1760   -2.7708   -0.9741 S   0  0  0  0  0  6  0  0  0  0  0  0
   -2.1221   -3.7721    0.0693 O   0  0  0  0  0  0  0  0  0  0  0  0
   -3.2436   -2.7524   -1.9483 O   0  0  0  0  0  0  0  0  0  0  0  0
   -0.6897   -2.8749   -1.8048 N   0  0  0  0  0  0  0  0  0  0  0  0
   -0.0198   -1.5807   -2.2012 N   0  0  0  0  0  0  0  0  0  0  0  0
    0.9608   -1.0783   -1.3590 C   0  0  0  0  0  0  0  0  0  0  0  0
    1.3394   -1.6420   -0.3420 O   0  0  0  0  0  0  0  0  0  0  0  0
    1.4903    0.1982   -1.9218 C   0  0  0  0  0  0  0  0  0  0  0  0
    2.4003    1.0460   -1.4208 C   0  0  0  0  0  0  0  0  0  0  0  0
    3.0473    0.9214   -0.1602 C   0  0  0  0  0  0  0  0  0  0  0  0
    2.5475    0.6292    1.0968 C   0  0  0  0  0  0  0  0  0  0  0  0
    3.5479    0.6273    2.1123 C   0  0  0  0  0  0  0  0  0  0  0  0
    4.7884    0.9415    1.6105 C   0  0  0  0  0  0  0  0  0  0  0  0
    4.7405    1.2434   -0.0688 S   0  0  0  0  0  0  0  0  0  0  0  0
    0.7599    0.4865   -3.4765 S   0  0  0  0  0  0  0  0  0  0  0  0
   -0.2348   -0.9632   -3.4126 C   0  0  0  0  0  0  0  0  0  0  0  0
   -1.2312   -1.4361   -4.6570 S   0  0  0  0  0  0  0  0  0  0  0  0
   -1.5595   -1.0379    1.0720 C   0  0  0  0  0  0  0  0  0  0  0  0
   -1.5155    0.2208    1.6729 C   0  0  0  0  0  0  0  0  0  0  0  0
   -1.1305    2.7915    2.3175 H   0  0  0  0  0  0  0  0  0  0  0  0
   -1.9734    3.4902    0.9356 H   0  0  0  0  0  0  0  0  0  0  0  0
   -2.9118    2.8187    2.2926 H   0  0  0  0  0  0  0  0  0  0  0  0
   -3.0956    2.0366   -0.7423 H   0  0  0  0  0  0  0  0  0  0  0  0
   -3.1915   -0.1843   -1.8076 H   0  0  0  0  0  0  0  0  0  0  0  0
   -0.0695   -3.4910   -1.2647 H   0  0  0  0  0  0  0  0  0  0  0  0
    2.6993    1.9044   -2.0218 H   0  0  0  0  0  0  0  0  0  0  0  0
    1.5038    0.4158    1.2899 H   0  0  0  0  0  0  0  0  0  0  0  0
    3.3636    0.4078    3.1568 H   0  0  0  0  0  0  0  0  0  0  0  0
    5.7224    1.0143    2.1506 H   0  0  0  0  0  0  0  0  0  0  0  0
   -1.1402   -1.8971    1.5921 H   0  0  0  0  0  0  0  0  0  0  0  0
   -1.0706    0.3223    2.6614 H   0  0  0  0  0  0  0  0  0  0  0  0
  1  2  1  0
  2  3  2  0
  3  4  1  0
  4  5  2  0
  5  6  1  0
  6  7  2  0
  6  8  2  0
  6  9  1  0
  9 10  1  0
 10 11  1  0
 11 12  2  0
 11 13  1  0
 13 14  2  3
 14 15  1  0
 15 16  2  0
 16 17  1  0
 17 18  2  0
 18 19  1  0
 13 20  1  0
 20 21  1  0
 21 22  2  0
  5 23  1  0
 23 24  2  0
 24  2  1  0
 21 10  1  0
 19 15  1  0
  1 25  1  0
  1 26  1  0
  1 27  1  0
  3 28  1  0
  4 29  1  0
  9 30  1  0
 14 31  1  0
 16 32  1  0
 17 33  1  0
 18 34  1  0
 23 35  1  0
 24 36  1  0
M  END
$$$$
