
     RDKit          3D

 42 44  0  0  0  0  0  0  0  0999 V2000
    1.8947    2.0051    2.1734 C   0  0  0  0  0  0  0  0  0  0  0  0
    2.1559    1.4577    0.8878 O   0  0  0  0  0  0  0  0  0  0  0  0
    1.1010    0.9089    0.2059 C   0  0  0  0  0  0  0  0  0  0  0  0
   -0.1960    0.7510    0.7204 C   0  0  0  0  0  0  0  0  0  0  0  0
   -1.2540    0.1671   -0.0133 C   0  0  0  0  0  0  0  0  0  0  0  0
   -2.5139    0.0660    0.5564 N   0  0  0  0  0  0  0  0  0  0  0  0
   -2.9401    0.8995    1.6852 C   0  0  0  0  0  0  0  0  0  0  0  0
   -4.4647    0.9146    1.6022 C   0  0  0  0  0  0  0  0  0  0  0  0
   -4.7875   -0.4051    0.9303 C   0  0  0  0  0  0  0  0  0  0  0  0
   -3.6726   -0.5331   -0.1043 C   0  0  0  0  0  0  0  0  0  0  0  0
   -0.9101   -0.3128   -1.2956 C   0  0  0  0  0  0  0  0  0  0  0  0
   -1.8461   -0.9219   -2.1018 O   0  0  0  0  0  0  0  0  0  0  0  0
   -1.5367   -2.3066   -2.2779 C   0  0  0  0  0  0  0  0  0  0  0  0
    0.3735   -0.1307   -1.8366 C   0  0  0  0  0  0  0  0  0  0  0  0
    1.3878    0.4780   -1.0938 C   0  0  0  0  0  0  0  0  0  0  0  0
    2.7640    0.6440   -1.6922 C   0  0  0  0  0  0  0  0  0  0  0  0
    3.7717   -0.2352   -1.0380 C   0  0  0  0  0  0  0  0  0  0  0  0
    3.7930   -1.5350   -1.0014 N   0  0  0  0  0  0  0  0  0  0  0  0
    4.9112   -1.8727   -0.2665 C   0  0  0  0  0  0  0  0  0  0  0  0
    5.4463   -3.4038    0.1001 S   0  0  0  0  0  0  0  0  0  0  0  0
    5.5803   -0.7670    0.1491 N   0  0  0  0  0  0  0  0  0  0  0  0
    4.9665    0.3347   -0.3182 C   0  0  0  0  0  0  0  0  0  0  0  0
    5.2836    1.4981   -0.2518 O   0  0  0  0  0  0  0  0  0  0  0  0
    2.8261    2.4435    2.5443 H   0  0  0  0  0  0  0  0  0  0  0  0
    1.5917    1.2241    2.8777 H   0  0  0  0  0  0  0  0  0  0  0  0
    1.1484    2.8041    2.1201 H   0  0  0  0  0  0  0  0  0  0  0  0
   -0.3991    1.0730    1.7345 H   0  0  0  0  0  0  0  0  0  0  0  0
   -2.5606    1.9257    1.6278 H   0  0  0  0  0  0  0  0  0  0  0  0
   -2.6115    0.4440    2.6262 H   0  0  0  0  0  0  0  0  0  0  0  0
   -4.9365    1.0220    2.5830 H   0  0  0  0  0  0  0  0  0  0  0  0
   -4.7974    1.7469    0.9701 H   0  0  0  0  0  0  0  0  0  0  0  0
   -5.7831   -0.4217    0.4779 H   0  0  0  0  0  0  0  0  0  0  0  0
   -4.7249   -1.2229    1.6586 H   0  0  0  0  0  0  0  0  0  0  0  0
   -3.9397    0.0296   -1.0062 H   0  0  0  0  0  0  0  0  0  0  0  0
   -3.5189   -1.5884   -0.3472 H   0  0  0  0  0  0  0  0  0  0  0  0
   -0.7448   -2.4342   -3.0231 H   0  0  0  0  0  0  0  0  0  0  0  0
   -2.4363   -2.8022   -2.6556 H   0  0  0  0  0  0  0  0  0  0  0  0
   -1.2578   -2.7877   -1.3329 H   0  0  0  0  0  0  0  0  0  0  0  0
    0.5731   -0.4693   -2.8500 H   0  0  0  0  0  0  0  0  0  0  0  0
    3.0671    1.6947   -1.6282 H   0  0  0  0  0  0  0  0  0  0  0  0
    2.7518    0.3926   -2.7597 H   0  0  0  0  0  0  0  0  0  0  0  0
    6.4444   -0.7744    0.6632 H   0  0  0  0  0  0  0  0  0  0  0  0
  1  2  1  0
  2  3  1  0
  3  4  2  0
  4  5  1  0
  5  6  1  0
  6  7  1  0
  7  8  1  0
  8  9  1  0
  9 10  1  0
  5 11  2  0
 11 12  1  0
 12 13  1  0
 11 14  1  0
 14 15  2  0
 15 16  1  0
 16 17  1  0
 17 18  2  0
 18 19  1  0
 19 20  2  0
 19 21  1  0
 21 22  1  0
 22 23  2  0
 15  3  1  0
 22 17  1  0
 10  6  1  0
  1 24  1  0
  1 25  1  0
  1 26  1  0
  4 27  1  0
  7 28  1  0
  7 29  1  0
  8 30  1  0
  8 31  1  0
  9 32  1  0
  9 33  1  0
 10 34  1  0
 10 35  1  0
 13 36  1  0
 13 37  1  0
 13 38  1  0
 14 39  1  0
 16 40  1  0
 16 41  1  0
 21 42  1  0
M  END
$$$$
