
     RDKit          3D

 46 49  0  0  0  0  0  0  0  0999 V2000
   -3.3050   -0.5042   -2.7699 C   0  0  0  0  0  0  0  0  0  0  0  0
   -3.9857   -1.3575   -1.7061 C   0  0  0  0  0  0  0  0  0  0  0  0
   -3.9914   -0.7528   -0.2770 C   0  0  0  0  0  0  0  0  0  0  0  0
   -4.9127    0.4865   -0.2578 C   0  0  0  0  0  0  0  0  0  0  0  0
   -4.9325    1.1721    1.1015 C   0  0  0  0  0  0  0  0  0  0  0  0
   -3.5125    1.5311    1.5102 C   0  0  0  0  0  0  0  0  0  0  0  0
   -2.6393    0.2866    1.5240 C   0  0  0  0  0  0  0  0  0  0  0  0
   -2.6435   -0.4356    0.2462 N   0  0  0  0  0  0  0  0  0  0  0  0
   -1.6837   -1.4752    0.2024 C   0  0  0  0  0  0  0  0  0  0  0  0
   -2.0241   -2.6576    0.1669 O   0  0  0  0  0  0  0  0  0  0  0  0
   -0.2747   -1.0898    0.2101 C   0  0  0  0  0  0  0  0  0  0  0  0
    0.7926   -1.8778    0.6036 C   0  0  0  0  0  0  0  0  0  0  0  0
    2.0432   -1.2112    0.4491 C   0  0  0  0  0  0  0  0  0  0  0  0
    3.3764   -1.6828    0.7604 C   0  0  0  0  0  0  0  0  0  0  0  0
    3.5604   -2.7993    1.2424 O   0  0  0  0  0  0  0  0  0  0  0  0
    4.3970   -0.7601    0.4687 N   0  0  0  0  0  0  0  0  0  0  0  0
    5.7118   -1.1299    0.7329 C   0  0  0  0  0  0  0  0  0  0  0  0
    6.7414   -0.3136    0.4888 C   0  0  0  0  0  0  0  0  0  0  0  0
    6.5090    0.9912   -0.0632 C   0  0  0  0  0  0  0  0  0  0  0  0
    5.2679    1.4170   -0.3437 C   0  0  0  0  0  0  0  0  0  0  0  0
    4.9743    2.7668   -0.9206 C   0  0  0  0  0  0  0  0  0  0  0  0
    4.0990    0.5052   -0.0727 C   0  0  0  0  0  0  0  0  0  0  0  0
    2.8951    0.9243   -0.3466 N   0  0  0  0  0  0  0  0  0  0  0  0
    1.9019    0.0469   -0.0790 C   0  0  0  0  0  0  0  0  0  0  0  0
    0.2702    0.4203   -0.3983 S   0  0  0  0  0  0  0  0  0  0  0  0
   -2.2636   -0.2932   -2.5133 H   0  0  0  0  0  0  0  0  0  0  0  0
   -3.8241    0.4455   -2.9233 H   0  0  0  0  0  0  0  0  0  0  0  0
   -3.3088   -1.0353   -3.7276 H   0  0  0  0  0  0  0  0  0  0  0  0
   -5.0219   -1.5415   -2.0175 H   0  0  0  0  0  0  0  0  0  0  0  0
   -3.5050   -2.3412   -1.7019 H   0  0  0  0  0  0  0  0  0  0  0  0
   -4.4189   -1.5085    0.3971 H   0  0  0  0  0  0  0  0  0  0  0  0
   -4.5780    1.2222   -0.9984 H   0  0  0  0  0  0  0  0  0  0  0  0
   -5.9337    0.1971   -0.5337 H   0  0  0  0  0  0  0  0  0  0  0  0
   -5.5482    2.0771    1.0548 H   0  0  0  0  0  0  0  0  0  0  0  0
   -5.3846    0.5092    1.8488 H   0  0  0  0  0  0  0  0  0  0  0  0
   -3.0997    2.2656    0.8079 H   0  0  0  0  0  0  0  0  0  0  0  0
   -3.5164    1.9950    2.5026 H   0  0  0  0  0  0  0  0  0  0  0  0
   -1.6205    0.5633    1.8107 H   0  0  0  0  0  0  0  0  0  0  0  0
   -2.9919   -0.4122    2.2948 H   0  0  0  0  0  0  0  0  0  0  0  0
    0.6770   -2.8861    0.9874 H   0  0  0  0  0  0  0  0  0  0  0  0
    5.8736   -2.1211    1.1507 H   0  0  0  0  0  0  0  0  0  0  0  0
    7.7616   -0.6181    0.7004 H   0  0  0  0  0  0  0  0  0  0  0  0
    7.3754    1.6204   -0.2459 H   0  0  0  0  0  0  0  0  0  0  0  0
    4.4723    2.6711   -1.8890 H   0  0  0  0  0  0  0  0  0  0  0  0
    4.3313    3.3423   -0.2467 H   0  0  0  0  0  0  0  0  0  0  0  0
    5.8889    3.3481   -1.0797 H   0  0  0  0  0  0  0  0  0  0  0  0
  1  2  1  0
  2  3  1  0
  3  4  1  0
  4  5  1  0
  5  6  1  0
  6  7  1  0
  7  8  1  0
  8  9  1  0
  9 10  2  0
  9 11  1  0
 11 12  2  0
 12 13  1  0
 13 14  1  0
 14 15  2  0
 14 16  1  0
 16 17  1  0
 17 18  2  0
 18 19  1  0
 19 20  2  0
 20 21  1  0
 20 22  1  0
 22 23  2  0
 23 24  1  0
 24 25  1  0
  8  3  1  0
 25 11  1  0
 24 13  2  0
 22 16  1  0
  1 26  1  0
  1 27  1  0
  1 28  1  0
  2 29  1  0
  2 30  1  0
  3 31  1  0
  4 32  1  0
  4 33  1  0
  5 34  1  0
  5 35  1  0
  6 36  1  0
  6 37  1  0
  7 38  1  0
  7 39  1  0
 12 40  1  0
 17 41  1  0
 18 42  1  0
 19 43  1  0
 21 44  1  0
 21 45  1  0
 21 46  1  0
M  END
$$$$
