
     RDKit          3D

 55 59  0  0  0  0  0  0  0  0999 V2000
    3.4618   -1.8549   -1.1358 C   0  0  0  0  0  0  0  0  0  0  0  0
    3.9036   -0.7184   -0.3664 N   0  0  0  0  0  0  0  0  0  0  0  0
    3.0729    0.2231    0.1965 C   0  0  0  0  0  0  0  0  0  0  0  0
    1.7235    0.1164    0.0745 N   0  0  0  0  0  0  0  0  0  0  0  0
    1.0719    1.3106   -0.5190 C   0  0  0  0  0  0  0  0  0  0  0  0
   -0.4035    1.4828   -0.0730 C   0  0  0  0  0  0  0  0  0  0  0  0
   -1.1229    0.1942    0.0120 N   0  0  0  0  0  0  0  0  0  0  0  0
   -2.5713    0.3623    0.3150 C   0  0  0  0  0  0  0  0  0  0  0  0
   -3.3149    1.2160   -0.7217 C   0  0  0  0  0  0  0  0  0  0  0  0
   -3.1375    1.0213   -2.1032 C   0  0  0  0  0  0  0  0  0  0  0  0
   -3.8363    1.7976   -3.0296 C   0  0  0  0  0  0  0  0  0  0  0  0
   -4.7273    2.7748   -2.5908 C   0  0  0  0  0  0  0  0  0  0  0  0
   -4.9206    2.9773   -1.2261 C   0  0  0  0  0  0  0  0  0  0  0  0
   -4.2225    2.2023   -0.2969 C   0  0  0  0  0  0  0  0  0  0  0  0
   -3.3153   -0.9675    0.5077 C   0  0  0  0  0  0  0  0  0  0  0  0
   -4.1918   -1.1277    1.5951 C   0  0  0  0  0  0  0  0  0  0  0  0
   -4.8891   -2.3239    1.7789 C   0  0  0  0  0  0  0  0  0  0  0  0
   -4.7251   -3.3737    0.8775 C   0  0  0  0  0  0  0  0  0  0  0  0
   -3.8676   -3.2289   -0.2108 C   0  0  0  0  0  0  0  0  0  0  0  0
   -3.1711   -2.0336   -0.3968 C   0  0  0  0  0  0  0  0  0  0  0  0
   -0.4385   -0.6724    1.0114 C   0  0  0  0  0  0  0  0  0  0  0  0
    1.0461   -0.3298    1.3028 C   0  0  0  0  0  0  0  0  0  0  0  0
    3.7578    1.1462    0.8289 N   0  0  0  0  0  0  0  0  0  0  0  0
    5.0754    0.7897    0.6797 C   0  0  0  0  0  0  0  0  0  0  0  0
    6.2283    1.4264    1.1618 C   0  0  0  0  0  0  0  0  0  0  0  0
    7.4794    0.8641    0.8802 C   0  0  0  0  0  0  0  0  0  0  0  0
    7.5807   -0.3110    0.1337 C   0  0  0  0  0  0  0  0  0  0  0  0
    6.4420   -0.9622   -0.3548 C   0  0  0  0  0  0  0  0  0  0  0  0
    5.2007   -0.3819   -0.0644 C   0  0  0  0  0  0  0  0  0  0  0  0
    4.3127   -2.3244   -1.6379 H   0  0  0  0  0  0  0  0  0  0  0  0
    2.9936   -2.5698   -0.4538 H   0  0  0  0  0  0  0  0  0  0  0  0
    2.7457   -1.5172   -1.8906 H   0  0  0  0  0  0  0  0  0  0  0  0
    1.6118    2.2345   -0.2710 H   0  0  0  0  0  0  0  0  0  0  0  0
    1.1022    1.1958   -1.6098 H   0  0  0  0  0  0  0  0  0  0  0  0
   -0.8722    2.1666   -0.7891 H   0  0  0  0  0  0  0  0  0  0  0  0
   -0.4307    1.9885    0.9023 H   0  0  0  0  0  0  0  0  0  0  0  0
   -2.6196    0.9024    1.2738 H   0  0  0  0  0  0  0  0  0  0  0  0
   -2.4425    0.2629   -2.4602 H   0  0  0  0  0  0  0  0  0  0  0  0
   -3.6882    1.6344   -4.0926 H   0  0  0  0  0  0  0  0  0  0  0  0
   -5.2742    3.3755   -3.3125 H   0  0  0  0  0  0  0  0  0  0  0  0
   -5.6213    3.7369   -0.8844 H   0  0  0  0  0  0  0  0  0  0  0  0
   -4.3981    2.3684    0.7630 H   0  0  0  0  0  0  0  0  0  0  0  0
   -4.3420   -0.3177    2.3054 H   0  0  0  0  0  0  0  0  0  0  0  0
   -5.5649   -2.4340    2.6235 H   0  0  0  0  0  0  0  0  0  0  0  0
   -5.2706   -4.3027    1.0198 H   0  0  0  0  0  0  0  0  0  0  0  0
   -3.7425   -4.0437   -0.9186 H   0  0  0  0  0  0  0  0  0  0  0  0
   -2.5050   -1.9348   -1.2510 H   0  0  0  0  0  0  0  0  0  0  0  0
   -0.9583   -0.6637    1.9780 H   0  0  0  0  0  0  0  0  0  0  0  0
   -0.4752   -1.7006    0.6311 H   0  0  0  0  0  0  0  0  0  0  0  0
    1.1003    0.4575    2.0660 H   0  0  0  0  0  0  0  0  0  0  0  0
    1.5351   -1.2203    1.7157 H   0  0  0  0  0  0  0  0  0  0  0  0
    6.1414    2.3400    1.7399 H   0  0  0  0  0  0  0  0  0  0  0  0
    8.3799    1.3507    1.2473 H   0  0  0  0  0  0  0  0  0  0  0  0
    8.5637   -0.7297   -0.0732 H   0  0  0  0  0  0  0  0  0  0  0  0
    6.5300   -1.8748   -0.9340 H   0  0  0  0  0  0  0  0  0  0  0  0
  1  2  1  0
  2  3  1  0
  3  4  1  0
  4  5  1  0
  5  6  1  0
  6  7  1  0
  7  8  1  0
  8  9  1  0
  9 10  2  0
 10 11  1  0
 11 12  2  0
 12 13  1  0
 13 14  2  0
  8 15  1  0
 15 16  2  0
 16 17  1  0
 17 18  2  0
 18 19  1  0
 19 20  2  0
  7 21  1  0
 21 22  1  0
  3 23  2  0
 23 24  1  0
 24 25  2  0
 25 26  1  0
 26 27  2  0
 27 28  1  0
 28 29  2  0
 29  2  1  0
 22  4  1  0
 29 24  1  0
 14  9  1  0
 20 15  1  0
  1 30  1  0
  1 31  1  0
  1 32  1  0
  5 33  1  0
  5 34  1  0
  6 35  1  0
  6 36  1  0
  8 37  1  0
 10 38  1  0
 11 39  1  0
 12 40  1  0
 13 41  1  0
 14 42  1  0
 16 43  1  0
 17 44  1  0
 18 45  1  0
 19 46  1  0
 20 47  1  0
 21 48  1  0
 21 49  1  0
 22 50  1  0
 22 51  1  0
 25 52  1  0
 26 53  1  0
 27 54  1  0
 28 55  1  0
M  END
$$$$
