
     RDKit          3D

 40 42  0  0  0  0  0  0  0  0999 V2000
    4.3604   -3.1269   -1.7700 C   0  0  0  0  0  0  0  0  0  0  0  0
    3.8964   -1.8351   -1.1711 C   0  0  0  0  0  0  0  0  0  0  0  0
    4.5250   -1.1855   -0.3496 O   0  0  0  0  0  0  0  0  0  0  0  0
    2.6697   -1.5063   -1.6586 O   0  0  0  0  0  0  0  0  0  0  0  0
    2.1390   -0.2452   -1.2064 C   0  0  0  0  0  0  0  0  0  0  0  0
    1.6846   -0.3062    0.2572 C   0  0  0  0  0  0  0  0  0  0  0  0
    0.5635    0.6086    0.5114 N   0  0  0  0  0  0  0  0  0  0  0  0
    0.8072    1.9372    0.8372 C   0  0  0  0  0  0  0  0  0  0  0  0
    1.9954    2.4593    0.8678 N   0  0  0  0  0  0  0  0  0  0  0  0
    2.1896    3.7734    1.1913 C   0  0  0  0  0  0  0  0  0  0  0  0
    3.1943    4.3892    0.8525 O   0  0  0  0  0  0  0  0  0  0  0  0
    1.2298    4.4322    1.9020 N   0  0  0  0  0  0  0  0  0  0  0  0
   -0.0900    4.2113    1.6555 C   0  0  0  0  0  0  0  0  0  0  0  0
   -0.9525    5.0677    1.7554 O   0  0  0  0  0  0  0  0  0  0  0  0
   -0.3755    2.8165    1.1674 C   0  0  0  0  0  0  0  0  0  0  0  0
   -1.6004    2.4038    1.0503 N   0  0  0  0  0  0  0  0  0  0  0  0
   -1.8211    1.0913    0.5923 C   0  0  0  0  0  0  0  0  0  0  0  0
   -3.1542    0.7045    0.4128 C   0  0  0  0  0  0  0  0  0  0  0  0
   -3.4923   -0.5744   -0.0461 C   0  0  0  0  0  0  0  0  0  0  0  0
   -4.9414   -0.9352   -0.2228 C   0  0  0  0  0  0  0  0  0  0  0  0
   -2.4629   -1.4834   -0.3366 C   0  0  0  0  0  0  0  0  0  0  0  0
   -2.7651   -2.8690   -0.8423 C   0  0  0  0  0  0  0  0  0  0  0  0
   -1.1214   -1.0932   -0.1525 C   0  0  0  0  0  0  0  0  0  0  0  0
   -0.7704    0.1850    0.3170 C   0  0  0  0  0  0  0  0  0  0  0  0
    3.6874   -3.9352   -1.4734 H   0  0  0  0  0  0  0  0  0  0  0  0
    5.3658   -3.3551   -1.4049 H   0  0  0  0  0  0  0  0  0  0  0  0
    4.3998   -3.0383   -2.8586 H   0  0  0  0  0  0  0  0  0  0  0  0
    2.8742    0.5532   -1.3657 H   0  0  0  0  0  0  0  0  0  0  0  0
    1.2938   -0.0242   -1.8674 H   0  0  0  0  0  0  0  0  0  0  0  0
    1.4449   -1.3325    0.5586 H   0  0  0  0  0  0  0  0  0  0  0  0
    2.5298   -0.0439    0.9067 H   0  0  0  0  0  0  0  0  0  0  0  0
    1.4545    5.4047    2.0559 H   0  0  0  0  0  0  0  0  0  0  0  0
   -3.9351    1.4288    0.6386 H   0  0  0  0  0  0  0  0  0  0  0  0
   -5.1505   -1.1637   -1.2726 H   0  0  0  0  0  0  0  0  0  0  0  0
   -5.6003   -0.1122    0.0738 H   0  0  0  0  0  0  0  0  0  0  0  0
   -5.1972   -1.7998    0.3978 H   0  0  0  0  0  0  0  0  0  0  0  0
   -3.3522   -3.4232   -0.1033 H   0  0  0  0  0  0  0  0  0  0  0  0
   -3.3182   -2.8173   -1.7855 H   0  0  0  0  0  0  0  0  0  0  0  0
   -1.8490   -3.4391   -1.0298 H   0  0  0  0  0  0  0  0  0  0  0  0
   -0.3553   -1.8219   -0.4010 H   0  0  0  0  0  0  0  0  0  0  0  0
  1  2  1  0
  2  3  2  0
  2  4  1  0
  4  5  1  0
  5  6  1  0
  6  7  1  0
  7  8  1  0
  8  9  2  0
  9 10  1  0
 10 11  2  0
 10 12  1  0
 12 13  1  0
 13 14  2  0
 13 15  1  0
 15 16  2  0
 16 17  1  0
 17 18  2  0
 18 19  1  0
 19 20  1  0
 19 21  2  0
 21 22  1  0
 21 23  1  0
 23 24  2  0
 24  7  1  0
 15  8  1  0
 24 17  1  0
  1 25  1  0
  1 26  1  0
  1 27  1  0
  5 28  1  0
  5 29  1  0
  6 30  1  0
  6 31  1  0
 12 32  1  0
 18 33  1  0
 20 34  1  0
 20 35  1  0
 20 36  1  0
 22 37  1  0
 22 38  1  0
 22 39  1  0
 23 40  1  0
M  END
$$$$
