
     RDKit          3D

 31 32  0  0  0  0  0  0  0  0999 V2000
    0.8666    0.6114    2.4089 S   0  0  0  0  0  0  0  0  0  0  0  0
    0.1891    0.2280    0.9162 C   0  0  0  0  0  0  0  0  0  0  0  0
    0.9116    0.0723   -0.2569 N   0  0  0  0  0  0  0  0  0  0  0  0
    2.2803   -0.2109   -0.4873 C   0  0  0  0  0  0  0  0  0  0  0  0
    3.0764   -0.9160    0.4196 C   0  0  0  0  0  0  0  0  0  0  0  0
    4.4155   -1.1952    0.1236 C   0  0  0  0  0  0  0  0  0  0  0  0
    4.9614   -0.7880   -1.0910 C   0  0  0  0  0  0  0  0  0  0  0  0
    6.6068   -1.1386   -1.4489 Cl  0  0  0  0  0  0  0  0  0  0  0  0
    4.1800   -0.1140   -2.0231 C   0  0  0  0  0  0  0  0  0  0  0  0
    2.8443    0.1625   -1.7236 C   0  0  0  0  0  0  0  0  0  0  0  0
    1.8980    0.9869   -2.9186 Cl  0  0  0  0  0  0  0  0  0  0  0  0
   -1.2030    0.1121    0.7052 N   0  0  0  0  0  0  0  0  0  0  0  0
   -1.7878   -0.6076   -0.4331 C   0  0  0  0  0  0  0  0  0  0  0  0
   -2.8335    0.2553   -1.1348 C   0  0  0  0  0  0  0  0  0  0  0  0
   -3.7577    0.9887   -0.1569 C   0  0  0  0  0  0  0  0  0  0  0  0
   -3.6271    0.4565    1.2657 C   0  0  0  0  0  0  0  0  0  0  0  0
   -2.1733    0.5079    1.7418 C   0  0  0  0  0  0  0  0  0  0  0  0
    0.4422    0.4779   -1.0604 H   0  0  0  0  0  0  0  0  0  0  0  0
    2.6745   -1.2919    1.3555 H   0  0  0  0  0  0  0  0  0  0  0  0
    5.0203   -1.7394    0.8452 H   0  0  0  0  0  0  0  0  0  0  0  0
    4.6049    0.1911   -2.9751 H   0  0  0  0  0  0  0  0  0  0  0  0
   -2.2481   -1.5200   -0.0332 H   0  0  0  0  0  0  0  0  0  0  0  0
   -1.0394   -0.9482   -1.1530 H   0  0  0  0  0  0  0  0  0  0  0  0
   -3.4261   -0.3760   -1.8072 H   0  0  0  0  0  0  0  0  0  0  0  0
   -2.3336    0.9984   -1.7684 H   0  0  0  0  0  0  0  0  0  0  0  0
   -4.7968    0.9103   -0.4962 H   0  0  0  0  0  0  0  0  0  0  0  0
   -3.5098    2.0576   -0.1632 H   0  0  0  0  0  0  0  0  0  0  0  0
   -3.9895   -0.5787    1.2977 H   0  0  0  0  0  0  0  0  0  0  0  0
   -4.2623    1.0302    1.9498 H   0  0  0  0  0  0  0  0  0  0  0  0
   -1.9318    1.5300    2.0562 H   0  0  0  0  0  0  0  0  0  0  0  0
   -2.0516   -0.1526    2.6079 H   0  0  0  0  0  0  0  0  0  0  0  0
  1  2  2  0
  2  3  1  0
  3  4  1  0
  4  5  2  0
  5  6  1  0
  6  7  2  0
  7  8  1  0
  7  9  1  0
  9 10  2  0
 10 11  1  0
  2 12  1  0
 12 13  1  0
 13 14  1  0
 14 15  1  0
 15 16  1  0
 16 17  1  0
 10  4  1  0
 17 12  1  0
  3 18  1  0
  5 19  1  0
  6 20  1  0
  9 21  1  0
 13 22  1  0
 13 23  1  0
 14 24  1  0
 14 25  1  0
 15 26  1  0
 15 27  1  0
 16 28  1  0
 16 29  1  0
 17 30  1  0
 17 31  1  0
M  END
$$$$
