
     RDKit          3D

 54 59  0  0  0  0  0  0  0  0999 V2000
    4.6327   -2.0883    2.0020 C   0  0  0  0  0  0  0  0  0  0  0  0
    5.4150   -1.7860    0.7532 C   0  0  0  0  0  0  0  0  0  0  0  0
    6.6509   -2.4144    0.5376 C   0  0  0  0  0  0  0  0  0  0  0  0
    7.3892   -2.1471   -0.6135 C   0  0  0  0  0  0  0  0  0  0  0  0
    6.8993   -1.2502   -1.5577 C   0  0  0  0  0  0  0  0  0  0  0  0
    5.6698   -0.6177   -1.3549 C   0  0  0  0  0  0  0  0  0  0  0  0
    4.9206   -0.8797   -0.2033 C   0  0  0  0  0  0  0  0  0  0  0  0
    3.7079   -0.3146    0.0920 O   0  0  0  0  0  0  0  0  0  0  0  0
    3.1472    0.5916   -0.8626 C   0  0  0  0  0  0  0  0  0  0  0  0
    1.8144    1.0949   -0.4044 C   0  0  0  0  0  0  0  0  0  0  0  0
    0.6360    0.4606   -0.7382 N   0  0  0  0  0  0  0  0  0  0  0  0
   -0.2861    1.1864   -0.1417 C   0  0  0  0  0  0  0  0  0  0  0  0
   -1.7131    1.1034   -0.0407 C   0  0  0  0  0  0  0  0  0  0  0  0
   -2.3054    2.0529    0.7452 C   0  0  0  0  0  0  0  0  0  0  0  0
   -1.6310    3.0864    1.3945 N   0  0  0  0  0  0  0  0  0  0  0  0
   -0.3400    3.1474    1.2708 C   0  0  0  0  0  0  0  0  0  0  0  0
    0.3286    2.2101    0.5166 N   0  0  0  0  0  0  0  0  0  0  0  0
    1.6634    2.1997    0.3460 N   0  0  0  0  0  0  0  0  0  0  0  0
   -3.7752    1.9911    0.9856 C   0  0  0  0  0  0  0  0  0  0  0  0
   -4.3713    2.7090    2.0358 C   0  0  0  0  0  0  0  0  0  0  0  0
   -5.7500    2.6566    2.2549 C   0  0  0  0  0  0  0  0  0  0  0  0
   -6.5572    1.8901    1.4212 C   0  0  0  0  0  0  0  0  0  0  0  0
   -5.9862    1.1755    0.3708 C   0  0  0  0  0  0  0  0  0  0  0  0
   -4.5996    1.2149    0.1578 C   0  0  0  0  0  0  0  0  0  0  0  0
   -3.9911    0.4811   -1.0021 C   0  0  0  0  0  0  0  0  0  0  0  0
   -2.5479   -0.0068   -0.7168 C   0  0  0  0  0  0  0  0  0  0  0  0
   -2.5532   -1.2675    0.1951 C   0  0  0  0  0  0  0  0  0  0  0  0
   -2.3986   -2.4548   -0.7451 C   0  0  0  0  0  0  0  0  0  0  0  0
   -1.4522   -1.9301   -1.8069 C   0  0  0  0  0  0  0  0  0  0  0  0
   -1.9711   -0.5219   -2.0735 C   0  0  0  0  0  0  0  0  0  0  0  0
    4.4861   -1.1751    2.5879 H   0  0  0  0  0  0  0  0  0  0  0  0
    3.6586   -2.5168    1.7447 H   0  0  0  0  0  0  0  0  0  0  0  0
    5.1549   -2.8104    2.6386 H   0  0  0  0  0  0  0  0  0  0  0  0
    7.0448   -3.1173    1.2681 H   0  0  0  0  0  0  0  0  0  0  0  0
    8.3456   -2.6383   -0.7723 H   0  0  0  0  0  0  0  0  0  0  0  0
    7.4752   -1.0409   -2.4556 H   0  0  0  0  0  0  0  0  0  0  0  0
    5.3307    0.0740   -2.1183 H   0  0  0  0  0  0  0  0  0  0  0  0
    3.8182    1.4483   -1.0021 H   0  0  0  0  0  0  0  0  0  0  0  0
    3.0079    0.0804   -1.8232 H   0  0  0  0  0  0  0  0  0  0  0  0
    0.2429    3.9412    1.7629 H   0  0  0  0  0  0  0  0  0  0  0  0
   -3.7611    3.3199    2.6980 H   0  0  0  0  0  0  0  0  0  0  0  0
   -6.1893    3.2195    3.0741 H   0  0  0  0  0  0  0  0  0  0  0  0
   -7.6308    1.8536    1.5856 H   0  0  0  0  0  0  0  0  0  0  0  0
   -6.6270    0.5885   -0.2831 H   0  0  0  0  0  0  0  0  0  0  0  0
   -4.6238   -0.3733   -1.2764 H   0  0  0  0  0  0  0  0  0  0  0  0
   -3.9936    1.1705   -1.8580 H   0  0  0  0  0  0  0  0  0  0  0  0
   -3.4617   -1.3606    0.7997 H   0  0  0  0  0  0  0  0  0  0  0  0
   -1.7051   -1.2591    0.8922 H   0  0  0  0  0  0  0  0  0  0  0  0
   -3.3656   -2.7187   -1.1890 H   0  0  0  0  0  0  0  0  0  0  0  0
   -2.0031   -3.3377   -0.2349 H   0  0  0  0  0  0  0  0  0  0  0  0
   -0.4271   -1.9006   -1.4224 H   0  0  0  0  0  0  0  0  0  0  0  0
   -1.4578   -2.5487   -2.7091 H   0  0  0  0  0  0  0  0  0  0  0  0
   -1.2016    0.1222   -2.5087 H   0  0  0  0  0  0  0  0  0  0  0  0
   -2.7629   -0.5933   -2.8312 H   0  0  0  0  0  0  0  0  0  0  0  0
  1  2  1  0
  2  3  2  0
  3  4  1  0
  4  5  2  0
  5  6  1  0
  6  7  2  0
  7  8  1  0
  8  9  1  0
  9 10  1  0
 10 11  1  0
 11 12  2  0
 12 13  1  0
 13 14  2  0
 14 15  1  0
 15 16  2  0
 16 17  1  0
 17 18  1  0
 14 19  1  0
 19 20  2  0
 20 21  1  0
 21 22  2  0
 22 23  1  0
 23 24  2  0
 24 25  1  0
 25 26  1  0
 26 27  1  0
 27 28  1  0
 28 29  1  0
 29 30  1  0
  7  2  1  0
 18 10  2  0
 24 19  1  0
 30 26  1  0
 17 12  1  0
 26 13  1  0
  1 31  1  0
  1 32  1  0
  1 33  1  0
  3 34  1  0
  4 35  1  0
  5 36  1  0
  6 37  1  0
  9 38  1  0
  9 39  1  0
 16 40  1  0
 20 41  1  0
 21 42  1  0
 22 43  1  0
 23 44  1  0
 25 45  1  0
 25 46  1  0
 27 47  1  0
 27 48  1  0
 28 49  1  0
 28 50  1  0
 29 51  1  0
 29 52  1  0
 30 53  1  0
 30 54  1  0
M  END
$$$$
