
     RDKit          3D

 46 49  0  0  0  0  0  0  0  0999 V2000
   -0.1184    1.0580   -2.2961 O   0  0  0  0  0  0  0  0  0  0  0  0
    0.4327    0.8071   -1.2270 C   0  0  0  0  0  0  0  0  0  0  0  0
    1.9500    0.7788   -1.1086 C   0  0  0  0  0  0  0  0  0  0  0  0
    2.5109   -0.5678   -0.0090 S   0  0  0  0  0  0  0  0  0  0  0  0
    4.2801   -0.4547   -0.2418 C   0  0  0  0  0  0  0  0  0  0  0  0
    4.7231    0.7585   -0.6719 N   0  0  0  0  0  0  0  0  0  0  0  0
    6.0541    0.9433   -0.8118 C   0  0  0  0  0  0  0  0  0  0  0  0
    6.9945   -0.0283   -0.5328 C   0  0  0  0  0  0  0  0  0  0  0  0
    6.5406   -1.2641   -0.0873 C   0  0  0  0  0  0  0  0  0  0  0  0
    5.1638   -1.4915    0.0656 C   0  0  0  0  0  0  0  0  0  0  0  0
    4.7066   -2.8233    0.5115 C   0  0  0  0  0  0  0  0  0  0  0  0
    3.7231   -3.4356    0.1479 O   0  0  0  0  0  0  0  0  0  0  0  0
    5.5502   -3.3468    1.4233 O   0  0  0  0  0  0  0  0  0  0  0  0
   -0.2470    0.6154   -0.0399 N   0  0  0  0  0  0  0  0  0  0  0  0
   -1.7042    0.5238    0.0882 C   0  0  0  0  0  0  0  0  0  0  0  0
   -2.0476    0.3166    1.5885 C   0  0  0  0  0  0  0  0  0  0  0  0
   -3.5660    0.2014    1.7968 C   0  0  0  0  0  0  0  0  0  0  0  0
   -4.2407    1.4911    1.3053 C   0  0  0  0  0  0  0  0  0  0  0  0
   -3.9351    1.7067   -0.1849 C   0  0  0  0  0  0  0  0  0  0  0  0
   -4.4614    0.5064   -0.9903 C   0  0  0  0  0  0  0  0  0  0  0  0
   -3.7916   -0.7910   -0.5062 C   0  0  0  0  0  0  0  0  0  0  0  0
   -4.0968   -0.9919    0.9868 C   0  0  0  0  0  0  0  0  0  0  0  0
   -2.2695   -0.6805   -0.7038 C   0  0  0  0  0  0  0  0  0  0  0  0
   -2.4127    1.8195   -0.3820 C   0  0  0  0  0  0  0  0  0  0  0  0
    2.2756    1.7504   -0.7241 H   0  0  0  0  0  0  0  0  0  0  0  0
    2.3645    0.6211   -2.1096 H   0  0  0  0  0  0  0  0  0  0  0  0
    6.3512    1.9280   -1.1632 H   0  0  0  0  0  0  0  0  0  0  0  0
    8.0535    0.1690   -0.6597 H   0  0  0  0  0  0  0  0  0  0  0  0
    7.2591   -2.0499    0.1349 H   0  0  0  0  0  0  0  0  0  0  0  0
    5.1427   -4.2101    1.6503 H   0  0  0  0  0  0  0  0  0  0  0  0
    0.3071    0.1824    0.6925 H   0  0  0  0  0  0  0  0  0  0  0  0
   -1.5551   -0.5893    1.9669 H   0  0  0  0  0  0  0  0  0  0  0  0
   -1.6530    1.1504    2.1845 H   0  0  0  0  0  0  0  0  0  0  0  0
   -3.7835    0.0525    2.8602 H   0  0  0  0  0  0  0  0  0  0  0  0
   -3.8830    2.3480    1.8893 H   0  0  0  0  0  0  0  0  0  0  0  0
   -5.3248    1.4300    1.4609 H   0  0  0  0  0  0  0  0  0  0  0  0
   -4.4208    2.6257   -0.5317 H   0  0  0  0  0  0  0  0  0  0  0  0
   -4.2618    0.6551   -2.0586 H   0  0  0  0  0  0  0  0  0  0  0  0
   -5.5499    0.4294   -0.8777 H   0  0  0  0  0  0  0  0  0  0  0  0
   -4.1768   -1.6418   -1.0793 H   0  0  0  0  0  0  0  0  0  0  0  0
   -5.1784   -1.0956    1.1375 H   0  0  0  0  0  0  0  0  0  0  0  0
   -3.6354   -1.9215    1.3420 H   0  0  0  0  0  0  0  0  0  0  0  0
   -1.7823   -1.6089   -0.3778 H   0  0  0  0  0  0  0  0  0  0  0  0
   -2.0521   -0.5798   -1.7740 H   0  0  0  0  0  0  0  0  0  0  0  0
   -2.0264    2.6837    0.1742 H   0  0  0  0  0  0  0  0  0  0  0  0
   -2.2091    2.0202   -1.4398 H   0  0  0  0  0  0  0  0  0  0  0  0
  1  2  2  0
  2  3  1  0
  3  4  1  0
  4  5  1  0
  5  6  2  0
  6  7  1  0
  7  8  2  0
  8  9  1  0
  9 10  2  0
 10 11  1  0
 11 12  2  0
 11 13  1  0
  2 14  1  0
 14 15  1  0
 15 16  1  0
 16 17  1  0
 17 18  1  0
 18 19  1  0
 19 20  1  0
 20 21  1  0
 21 22  1  0
 21 23  1  0
 19 24  1  0
 10  5  1  0
 23 15  1  0
 24 15  1  0
 22 17  1  0
  3 25  1  0
  3 26  1  0
  7 27  1  0
  8 28  1  0
  9 29  1  0
 13 30  1  0
 14 31  1  0
 16 32  1  0
 16 33  1  0
 17 34  1  0
 18 35  1  0
 18 36  1  0
 19 37  1  0
 20 38  1  0
 20 39  1  0
 21 40  1  0
 22 41  1  0
 22 42  1  0
 23 43  1  0
 23 44  1  0
 24 45  1  0
 24 46  1  0
M  END
$$$$
