
     RDKit          3D

 44 47  0  0  0  0  0  0  0  0999 V2000
    6.5294   -0.7958   -0.2633 C   0  0  0  0  0  0  0  0  0  0  0  0
    5.4767   -0.6223    0.8230 C   0  0  0  0  0  0  0  0  0  0  0  0
    4.1043   -0.4409    0.2469 C   0  0  0  0  0  0  0  0  0  0  0  0
    3.2821   -1.3940   -0.3249 C   0  0  0  0  0  0  0  0  0  0  0  0
    2.0335   -0.8426   -0.7375 C   0  0  0  0  0  0  0  0  0  0  0  0
    0.9018   -1.4986   -1.3557 C   0  0  0  0  0  0  0  0  0  0  0  0
    0.9459   -2.6911   -1.6479 O   0  0  0  0  0  0  0  0  0  0  0  0
   -0.2080   -0.6721   -1.5716 N   0  0  0  0  0  0  0  0  0  0  0  0
   -1.4173   -1.3390   -2.0678 C   0  0  0  0  0  0  0  0  0  0  0  0
   -2.3405   -1.7592   -0.9391 C   0  0  0  0  0  0  0  0  0  0  0  0
   -2.0065   -2.8380   -0.1048 C   0  0  0  0  0  0  0  0  0  0  0  0
   -2.8414   -3.2093    0.9512 C   0  0  0  0  0  0  0  0  0  0  0  0
   -4.0212   -2.5098    1.1880 C   0  0  0  0  0  0  0  0  0  0  0  0
   -4.3722   -1.4440    0.3618 C   0  0  0  0  0  0  0  0  0  0  0  0
   -3.5424   -1.0768   -0.7001 C   0  0  0  0  0  0  0  0  0  0  0  0
   -0.1385    0.6872   -1.2694 C   0  0  0  0  0  0  0  0  0  0  0  0
   -1.5097    1.7114   -1.6457 S   0  0  0  0  0  0  0  0  0  0  0  0
   -1.8031    2.3902    0.0090 C   0  0  0  0  0  0  0  0  0  0  0  0
   -1.0466    3.6762    0.2641 C   0  0  0  0  0  0  0  0  0  0  0  0
   -1.9174    4.3383    1.3018 C   0  0  0  0  0  0  0  0  0  0  0  0
   -3.2543    3.9948    0.9398 O   0  0  0  0  0  0  0  0  0  0  0  0
   -3.2318    2.8495    0.1837 C   0  0  0  0  0  0  0  0  0  0  0  0
   -4.2401    2.2923   -0.2222 O   0  0  0  0  0  0  0  0  0  0  0  0
    0.8806    1.2929   -0.7392 N   0  0  0  0  0  0  0  0  0  0  0  0
    1.9402    0.4992   -0.4723 C   0  0  0  0  0  0  0  0  0  0  0  0
    3.3556    1.1024    0.2594 S   0  0  0  0  0  0  0  0  0  0  0  0
    6.5627    0.0739   -0.9304 H   0  0  0  0  0  0  0  0  0  0  0  0
    6.3277   -1.6810   -0.8775 H   0  0  0  0  0  0  0  0  0  0  0  0
    7.5204   -0.9185    0.1856 H   0  0  0  0  0  0  0  0  0  0  0  0
    5.7490    0.2299    1.4596 H   0  0  0  0  0  0  0  0  0  0  0  0
    5.4759   -1.5063    1.4740 H   0  0  0  0  0  0  0  0  0  0  0  0
    3.5546   -2.4363   -0.4358 H   0  0  0  0  0  0  0  0  0  0  0  0
   -1.1497   -2.2320   -2.6470 H   0  0  0  0  0  0  0  0  0  0  0  0
   -1.9467   -0.6905   -2.7744 H   0  0  0  0  0  0  0  0  0  0  0  0
   -1.0952   -3.4104   -0.2732 H   0  0  0  0  0  0  0  0  0  0  0  0
   -2.5704   -4.0501    1.5869 H   0  0  0  0  0  0  0  0  0  0  0  0
   -4.6711   -2.7994    2.0098 H   0  0  0  0  0  0  0  0  0  0  0  0
   -5.2950   -0.8963    0.5387 H   0  0  0  0  0  0  0  0  0  0  0  0
   -3.8535   -0.2473   -1.3343 H   0  0  0  0  0  0  0  0  0  0  0  0
   -1.6071    1.6415    0.7855 H   0  0  0  0  0  0  0  0  0  0  0  0
   -1.0139    4.3079   -0.6343 H   0  0  0  0  0  0  0  0  0  0  0  0
   -0.0226    3.5289    0.6194 H   0  0  0  0  0  0  0  0  0  0  0  0
   -1.8024    5.4259    1.3041 H   0  0  0  0  0  0  0  0  0  0  0  0
   -1.7216    3.9596    2.3111 H   0  0  0  0  0  0  0  0  0  0  0  0
  1  2  1  0
  2  3  1  0
  3  4  2  0
  4  5  1  0
  5  6  1  0
  6  7  2  0
  6  8  1  0
  8  9  1  0
  9 10  1  0
 10 11  2  0
 11 12  1  0
 12 13  2  0
 13 14  1  0
 14 15  2  0
  8 16  1  0
 16 17  1  0
 17 18  1  0
 18 19  1  0
 19 20  1  0
 20 21  1  0
 21 22  1  0
 22 23  2  0
 16 24  2  0
 24 25  1  0
 25 26  1  0
 26  3  1  0
 25  5  2  0
 15 10  1  0
 22 18  1  0
  1 27  1  0
  1 28  1  0
  1 29  1  0
  2 30  1  0
  2 31  1  0
  4 32  1  0
  9 33  1  0
  9 34  1  0
 11 35  1  0
 12 36  1  0
 13 37  1  0
 14 38  1  0
 15 39  1  0
 18 40  1  0
 19 41  1  0
 19 42  1  0
 20 43  1  0
 20 44  1  0
M  END
$$$$
