
     RDKit          3D

 55 57  0  0  0  0  0  0  0  0999 V2000
   -7.3626   -2.3522   -3.0863 C   0  0  0  0  0  0  0  0  0  0  0  0
   -7.4070   -1.6904   -1.8310 O   0  0  0  0  0  0  0  0  0  0  0  0
   -6.2117   -1.3772   -1.2320 C   0  0  0  0  0  0  0  0  0  0  0  0
   -4.9560   -1.6368   -1.7903 C   0  0  0  0  0  0  0  0  0  0  0  0
   -3.7906   -1.2782   -1.1073 C   0  0  0  0  0  0  0  0  0  0  0  0
   -3.8701   -0.6568    0.1396 C   0  0  0  0  0  0  0  0  0  0  0  0
   -2.6450   -0.2742    0.8457 C   0  0  0  0  0  0  0  0  0  0  0  0
   -2.0903    0.9443    0.8128 C   0  0  0  0  0  0  0  0  0  0  0  0
   -2.6373    2.3283   -0.0417 S   0  0  0  0  0  0  0  0  0  0  0  0
   -1.3211    3.3329    0.5534 C   0  0  0  0  0  0  0  0  0  0  0  0
   -1.1793    4.9401    0.1321 S   0  0  0  0  0  0  0  0  0  0  0  0
   -0.4994    2.5891    1.3785 N   0  0  0  0  0  0  0  0  0  0  0  0
    0.6886    3.1122    2.0563 C   0  0  0  0  0  0  0  0  0  0  0  0
    1.9582    3.0363    1.2030 C   0  0  0  0  0  0  0  0  0  0  0  0
    2.4719    1.6074    1.0155 C   0  0  0  0  0  0  0  0  0  0  0  0
    3.8226    1.5687    0.3173 C   0  0  0  0  0  0  0  0  0  0  0  0
    4.3393    2.5766   -0.1500 O   0  0  0  0  0  0  0  0  0  0  0  0
    4.3396    0.2835    0.2861 N   0  0  0  0  0  0  0  0  0  0  0  0
    5.5661   -0.1365   -0.2693 C   0  0  0  0  0  0  0  0  0  0  0  0
    6.4597    0.7135   -0.9252 C   0  0  0  0  0  0  0  0  0  0  0  0
    7.6602    0.2197   -1.4464 C   0  0  0  0  0  0  0  0  0  0  0  0
    7.9819   -1.1301   -1.3160 C   0  0  0  0  0  0  0  0  0  0  0  0
    7.0952   -1.9922   -0.6649 C   0  0  0  0  0  0  0  0  0  0  0  0
    7.3806   -3.4359   -0.4961 C   0  0  0  0  0  0  0  0  0  0  0  0
    6.6850   -4.2299    0.1113 O   0  0  0  0  0  0  0  0  0  0  0  0
    8.5224   -3.8182   -1.0936 O   0  0  0  0  0  0  0  0  0  0  0  0
    5.8922   -1.4925   -0.1440 C   0  0  0  0  0  0  0  0  0  0  0  0
   -0.8474    1.2617    1.5617 C   0  0  0  0  0  0  0  0  0  0  0  0
   -0.2313    0.4408    2.2277 O   0  0  0  0  0  0  0  0  0  0  0  0
   -5.1235   -0.3951    0.7059 C   0  0  0  0  0  0  0  0  0  0  0  0
   -6.2965   -0.7494    0.0279 C   0  0  0  0  0  0  0  0  0  0  0  0
   -7.5651   -0.5275    0.5050 O   0  0  0  0  0  0  0  0  0  0  0  0
   -7.6956    0.1040    1.7702 C   0  0  0  0  0  0  0  0  0  0  0  0
   -6.8682   -3.3257   -3.0021 H   0  0  0  0  0  0  0  0  0  0  0  0
   -6.8809   -1.7276   -3.8458 H   0  0  0  0  0  0  0  0  0  0  0  0
   -8.3941   -2.5298   -3.4071 H   0  0  0  0  0  0  0  0  0  0  0  0
   -4.8491   -2.1135   -2.7586 H   0  0  0  0  0  0  0  0  0  0  0  0
   -2.8245   -1.4840   -1.5622 H   0  0  0  0  0  0  0  0  0  0  0  0
   -2.1855   -1.0703    1.4286 H   0  0  0  0  0  0  0  0  0  0  0  0
    0.5072    4.1564    2.3345 H   0  0  0  0  0  0  0  0  0  0  0  0
    0.8391    2.5638    2.9948 H   0  0  0  0  0  0  0  0  0  0  0  0
    2.7360    3.6287    1.7023 H   0  0  0  0  0  0  0  0  0  0  0  0
    1.7928    3.5008    0.2233 H   0  0  0  0  0  0  0  0  0  0  0  0
    1.7687    1.0280    0.4074 H   0  0  0  0  0  0  0  0  0  0  0  0
    2.5761    1.1211    1.9930 H   0  0  0  0  0  0  0  0  0  0  0  0
    3.7848   -0.4374    0.7327 H   0  0  0  0  0  0  0  0  0  0  0  0
    6.2504    1.7732   -1.0552 H   0  0  0  0  0  0  0  0  0  0  0  0
    8.3442    0.8966   -1.9549 H   0  0  0  0  0  0  0  0  0  0  0  0
    8.9200   -1.4969   -1.7248 H   0  0  0  0  0  0  0  0  0  0  0  0
    8.5814   -4.7780   -0.9014 H   0  0  0  0  0  0  0  0  0  0  0  0
    5.2116   -2.1780    0.3585 H   0  0  0  0  0  0  0  0  0  0  0  0
   -5.1618    0.0894    1.6758 H   0  0  0  0  0  0  0  0  0  0  0  0
   -8.7639    0.2082    1.9836 H   0  0  0  0  0  0  0  0  0  0  0  0
   -7.2627    1.1090    1.7574 H   0  0  0  0  0  0  0  0  0  0  0  0
   -7.2554   -0.5079    2.5647 H   0  0  0  0  0  0  0  0  0  0  0  0
  1  2  1  0
  2  3  1  0
  3  4  2  0
  4  5  1  0
  5  6  2  0
  6  7  1  0
  7  8  2  3
  8  9  1  0
  9 10  1  0
 10 11  2  0
 10 12  1  0
 12 13  1  0
 13 14  1  0
 14 15  1  0
 15 16  1  0
 16 17  2  0
 16 18  1  0
 18 19  1  0
 19 20  2  0
 20 21  1  0
 21 22  2  0
 22 23  1  0
 23 24  1  0
 24 25  2  0
 24 26  1  0
 23 27  2  0
 12 28  1  0
 28 29  2  0
  6 30  1  0
 30 31  2  0
 31 32  1  0
 32 33  1  0
 31  3  1  0
 28  8  1  0
 27 19  1  0
  1 34  1  0
  1 35  1  0
  1 36  1  0
  4 37  1  0
  5 38  1  0
  7 39  1  0
 13 40  1  0
 13 41  1  0
 14 42  1  0
 14 43  1  0
 15 44  1  0
 15 45  1  0
 18 46  1  0
 20 47  1  0
 21 48  1  0
 22 49  1  0
 26 50  1  0
 27 51  1  0
 30 52  1  0
 33 53  1  0
 33 54  1  0
 33 55  1  0
M  END
$$$$
