
     RDKit          3D

 47 48  0  0  0  0  0  0  0  0999 V2000
    4.0305    0.4811    0.1173 C   0  0  0  0  0  0  0  0  0  0  0  0
    2.7180    0.5239    0.6864 O   0  0  0  0  0  0  0  0  0  0  0  0
    1.9791    1.5074    0.0790 C   0  0  0  0  0  0  0  0  0  0  0  0
    1.9053    2.7483    0.7145 C   0  0  0  0  0  0  0  0  0  0  0  0
    1.1494    3.7763    0.1486 C   0  0  0  0  0  0  0  0  0  0  0  0
    0.4594    3.5634   -1.0455 C   0  0  0  0  0  0  0  0  0  0  0  0
    0.5107    2.3157   -1.6691 C   0  0  0  0  0  0  0  0  0  0  0  0
    1.2528    1.2756   -1.0955 C   0  0  0  0  0  0  0  0  0  0  0  0
    1.2506   -0.0347   -1.7889 C   0  0  0  0  0  0  0  0  0  0  0  0
    1.6150   -0.0386   -2.9632 O   0  0  0  0  0  0  0  0  0  0  0  0
    0.8405   -1.1702   -1.0800 N   0  0  0  0  0  0  0  0  0  0  0  0
    0.2939   -1.0389    0.2173 N   0  0  0  0  0  0  0  0  0  0  0  0
   -0.9832   -0.5455    0.3826 C   0  0  0  0  0  0  0  0  0  0  0  0
   -1.8193   -0.4422   -0.5060 O   0  0  0  0  0  0  0  0  0  0  0  0
   -1.1477   -0.1698    1.7078 O   0  0  0  0  0  0  0  0  0  0  0  0
   -2.3694    0.4514    1.9773 C   0  0  0  0  0  0  0  0  0  0  0  0
   -3.3223   -0.2511    2.7118 C   0  0  0  0  0  0  0  0  0  0  0  0
   -4.5263    0.3731    3.0356 C   0  0  0  0  0  0  0  0  0  0  0  0
   -4.7596    1.6916    2.6362 C   0  0  0  0  0  0  0  0  0  0  0  0
   -3.7883    2.3921    1.9162 C   0  0  0  0  0  0  0  0  0  0  0  0
   -2.5819    1.7742    1.5899 C   0  0  0  0  0  0  0  0  0  0  0  0
    0.7669   -2.5393   -1.6649 C   0  0  0  0  0  0  0  0  0  0  0  0
    2.1577   -2.9584   -2.1870 C   0  0  0  0  0  0  0  0  0  0  0  0
    0.3374   -3.6143   -0.6357 C   0  0  0  0  0  0  0  0  0  0  0  0
   -0.2452   -2.5731   -2.8258 C   0  0  0  0  0  0  0  0  0  0  0  0
    4.5966   -0.2924    0.6446 H   0  0  0  0  0  0  0  0  0  0  0  0
    3.9984    0.2116   -0.9434 H   0  0  0  0  0  0  0  0  0  0  0  0
    4.5511    1.4355    0.2527 H   0  0  0  0  0  0  0  0  0  0  0  0
    2.4389    2.9172    1.6458 H   0  0  0  0  0  0  0  0  0  0  0  0
    1.1000    4.7464    0.6380 H   0  0  0  0  0  0  0  0  0  0  0  0
   -0.1245    4.3666   -1.4893 H   0  0  0  0  0  0  0  0  0  0  0  0
   -0.0368    2.1469   -2.5944 H   0  0  0  0  0  0  0  0  0  0  0  0
    0.9598   -0.8494    0.9610 H   0  0  0  0  0  0  0  0  0  0  0  0
   -3.1340   -1.2730    3.0251 H   0  0  0  0  0  0  0  0  0  0  0  0
   -5.2841   -0.1661    3.5986 H   0  0  0  0  0  0  0  0  0  0  0  0
   -5.7009    2.1748    2.8871 H   0  0  0  0  0  0  0  0  0  0  0  0
   -3.9738    3.4178    1.6086 H   0  0  0  0  0  0  0  0  0  0  0  0
   -1.8233    2.3162    1.0338 H   0  0  0  0  0  0  0  0  0  0  0  0
    2.4978   -2.3313   -3.0165 H   0  0  0  0  0  0  0  0  0  0  0  0
    2.1501   -3.9921   -2.5520 H   0  0  0  0  0  0  0  0  0  0  0  0
    2.9096   -2.8871   -1.3924 H   0  0  0  0  0  0  0  0  0  0  0  0
   -0.6761   -3.4344   -0.2602 H   0  0  0  0  0  0  0  0  0  0  0  0
    0.3395   -4.6148   -1.0840 H   0  0  0  0  0  0  0  0  0  0  0  0
    1.0177   -3.6377    0.2236 H   0  0  0  0  0  0  0  0  0  0  0  0
   -0.3317   -3.5819   -3.2463 H   0  0  0  0  0  0  0  0  0  0  0  0
    0.0429   -1.9050   -3.6438 H   0  0  0  0  0  0  0  0  0  0  0  0
   -1.2412   -2.2658   -2.4886 H   0  0  0  0  0  0  0  0  0  0  0  0
  1  2  1  0
  2  3  1  0
  3  4  2  0
  4  5  1  0
  5  6  2  0
  6  7  1  0
  7  8  2  0
  8  9  1  0
  9 10  2  0
  9 11  1  0
 11 12  1  0
 12 13  1  0
 13 14  2  0
 13 15  1  0
 15 16  1  0
 16 17  2  0
 17 18  1  0
 18 19  2  0
 19 20  1  0
 20 21  2  0
 11 22  1  0
 22 23  1  0
 22 24  1  0
 22 25  1  0
  8  3  1  0
 21 16  1  0
  1 26  1  0
  1 27  1  0
  1 28  1  0
  4 29  1  0
  5 30  1  0
  6 31  1  0
  7 32  1  0
 12 33  1  0
 17 34  1  0
 18 35  1  0
 19 36  1  0
 20 37  1  0
 21 38  1  0
 23 39  1  0
 23 40  1  0
 23 41  1  0
 24 42  1  0
 24 43  1  0
 24 44  1  0
 25 45  1  0
 25 46  1  0
 25 47  1  0
M  END
$$$$
