
     RDKit          3D

 39 41  0  0  0  0  0  0  0  0999 V2000
   -7.4052    1.5293   -1.1168 C   0  0  0  0  0  0  0  0  0  0  0  0
   -6.6387    0.3594   -1.3724 O   0  0  0  0  0  0  0  0  0  0  0  0
   -5.3253    0.3889   -0.9945 C   0  0  0  0  0  0  0  0  0  0  0  0
   -4.6678    1.4544   -0.3864 C   0  0  0  0  0  0  0  0  0  0  0  0
   -3.3101    1.3500   -0.0475 C   0  0  0  0  0  0  0  0  0  0  0  0
   -2.5849    0.1792   -0.3119 C   0  0  0  0  0  0  0  0  0  0  0  0
   -1.1917    0.0786    0.0374 N   0  0  0  0  0  0  0  0  0  0  0  0
   -0.5260    0.8137    1.0311 C   0  0  0  0  0  0  0  0  0  0  0  0
   -1.1462    1.6798    1.8317 O   0  0  0  0  0  0  0  0  0  0  0  0
    0.8007    0.4388    1.0479 C   0  0  0  0  0  0  0  0  0  0  0  0
    0.9810   -0.5410    0.0585 C   0  0  0  0  0  0  0  0  0  0  0  0
    2.1377   -1.1647   -0.2758 N   0  0  0  0  0  0  0  0  0  0  0  0
    3.3754   -0.7407    0.2386 N   0  0  0  0  0  0  0  0  0  0  0  0
    4.5001   -0.9499   -0.5471 C   0  0  0  0  0  0  0  0  0  0  0  0
    4.4127   -1.2903   -1.7276 O   0  0  0  0  0  0  0  0  0  0  0  0
    5.7511   -0.7573    0.1523 C   0  0  0  0  0  0  0  0  0  0  0  0
    7.0598   -0.8532   -0.2816 C   0  0  0  0  0  0  0  0  0  0  0  0
    7.8821   -0.5649    0.8337 C   0  0  0  0  0  0  0  0  0  0  0  0
    7.0299   -0.3121    1.8821 C   0  0  0  0  0  0  0  0  0  0  0  0
    5.7364   -0.4264    1.4842 O   0  0  0  0  0  0  0  0  0  0  0  0
   -0.2403   -0.7775   -0.5402 C   0  0  0  0  0  0  0  0  0  0  0  0
   -0.5360   -1.6225   -1.5300 O   0  0  0  0  0  0  0  0  0  0  0  0
   -3.2556   -0.8854   -0.9266 C   0  0  0  0  0  0  0  0  0  0  0  0
   -4.6114   -0.7781   -1.2614 C   0  0  0  0  0  0  0  0  0  0  0  0
   -7.4598    1.7394   -0.0435 H   0  0  0  0  0  0  0  0  0  0  0  0
   -7.0106    2.3885   -1.6691 H   0  0  0  0  0  0  0  0  0  0  0  0
   -8.4239    1.3455   -1.4718 H   0  0  0  0  0  0  0  0  0  0  0  0
   -5.1737    2.3877   -0.1638 H   0  0  0  0  0  0  0  0  0  0  0  0
   -2.8395    2.2243    0.3918 H   0  0  0  0  0  0  0  0  0  0  0  0
   -0.4889    2.0239    2.4617 H   0  0  0  0  0  0  0  0  0  0  0  0
    1.5548    0.8420    1.7081 H   0  0  0  0  0  0  0  0  0  0  0  0
    2.2501   -1.5211   -1.2321 H   0  0  0  0  0  0  0  0  0  0  0  0
    3.4778   -0.7243    1.2492 H   0  0  0  0  0  0  0  0  0  0  0  0
    7.3703   -1.1023   -1.2878 H   0  0  0  0  0  0  0  0  0  0  0  0
    8.9625   -0.5443    0.8694 H   0  0  0  0  0  0  0  0  0  0  0  0
    7.1795   -0.0506    2.9209 H   0  0  0  0  0  0  0  0  0  0  0  0
    0.2550   -2.1636   -1.6924 H   0  0  0  0  0  0  0  0  0  0  0  0
   -2.7675   -1.8327   -1.1302 H   0  0  0  0  0  0  0  0  0  0  0  0
   -5.1136   -1.6204   -1.7311 H   0  0  0  0  0  0  0  0  0  0  0  0
  1  2  1  0
  2  3  1  0
  3  4  2  0
  4  5  1  0
  5  6  2  0
  6  7  1  0
  7  8  1  0
  8  9  1  0
  8 10  2  0
 10 11  1  0
 11 12  1  0
 12 13  1  0
 13 14  1  0
 14 15  2  0
 14 16  1  0
 16 17  2  0
 17 18  1  0
 18 19  2  0
 19 20  1  0
 11 21  2  0
 21 22  1  0
  6 23  1  0
 23 24  2  0
 24  3  1  0
 21  7  1  0
 20 16  1  0
  1 25  1  0
  1 26  1  0
  1 27  1  0
  4 28  1  0
  5 29  1  0
  9 30  1  0
 10 31  1  0
 12 32  1  0
 13 33  1  0
 17 34  1  0
 18 35  1  0
 19 36  1  0
 22 37  1  0
 23 38  1  0
 24 39  1  0
M  END
$$$$
