
     RDKit          3D

 43 44  0  0  0  0  0  0  0  0999 V2000
   -4.6510    3.6706   -0.8379 C   0  0  0  0  0  0  0  0  0  0  0  0
   -4.9227    2.1979   -0.6006 C   0  0  0  0  0  0  0  0  0  0  0  0
   -3.6660    1.5288   -0.4604 O   0  0  0  0  0  0  0  0  0  0  0  0
   -3.7574    0.1815   -0.2465 C   0  0  0  0  0  0  0  0  0  0  0  0
   -4.8216   -0.4223   -0.1631 O   0  0  0  0  0  0  0  0  0  0  0  0
   -2.4459   -0.4775   -0.1246 C   0  0  0  0  0  0  0  0  0  0  0  0
   -1.3052    0.1888   -0.3555 N   0  0  0  0  0  0  0  0  0  0  0  0
   -0.2971   -0.6982   -0.1722 N   0  0  0  0  0  0  0  0  0  0  0  0
    1.0477   -0.2086   -0.1951 C   0  0  0  0  0  0  0  0  0  0  0  0
    2.1258   -0.9306    0.3276 C   0  0  0  0  0  0  0  0  0  0  0  0
    3.4270   -0.4042    0.2882 C   0  0  0  0  0  0  0  0  0  0  0  0
    3.6665    0.8532   -0.2628 C   0  0  0  0  0  0  0  0  0  0  0  0
    4.8799    1.4739   -0.3609 O   0  0  0  0  0  0  0  0  0  0  0  0
    6.0177    0.7596    0.1180 C   0  0  0  0  0  0  0  0  0  0  0  0
    7.2442    1.6245   -0.1113 C   0  0  0  0  0  0  0  0  0  0  0  0
    2.5923    1.5868   -0.7635 C   0  0  0  0  0  0  0  0  0  0  0  0
    1.2941    1.0685   -0.7256 C   0  0  0  0  0  0  0  0  0  0  0  0
   -0.7986   -1.9797    0.0245 C   0  0  0  0  0  0  0  0  0  0  0  0
    0.0151   -3.2269    0.0355 C   0  0  0  0  0  0  0  0  0  0  0  0
   -2.1777   -1.8420    0.1712 C   0  0  0  0  0  0  0  0  0  0  0  0
   -3.1121   -2.9177    0.4941 C   0  0  0  0  0  0  0  0  0  0  0  0
   -4.1801   -2.6795    1.5320 C   0  0  0  0  0  0  0  0  0  0  0  0
   -3.0073   -4.0288   -0.0258 O   0  0  0  0  0  0  0  0  0  0  0  0
   -4.0443    3.8103   -1.7388 H   0  0  0  0  0  0  0  0  0  0  0  0
   -5.5858    4.2265   -0.9517 H   0  0  0  0  0  0  0  0  0  0  0  0
   -4.0848    4.0975   -0.0035 H   0  0  0  0  0  0  0  0  0  0  0  0
   -5.4712    1.7813   -1.4527 H   0  0  0  0  0  0  0  0  0  0  0  0
   -5.5121    2.0737    0.3148 H   0  0  0  0  0  0  0  0  0  0  0  0
    2.0016   -1.8883    0.8173 H   0  0  0  0  0  0  0  0  0  0  0  0
    4.2287   -1.0018    0.7101 H   0  0  0  0  0  0  0  0  0  0  0  0
    5.9167    0.5597    1.1910 H   0  0  0  0  0  0  0  0  0  0  0  0
    6.1359   -0.1815   -0.4314 H   0  0  0  0  0  0  0  0  0  0  0  0
    7.1452    2.5807    0.4132 H   0  0  0  0  0  0  0  0  0  0  0  0
    7.3597    1.8553   -1.1755 H   0  0  0  0  0  0  0  0  0  0  0  0
    8.1484    1.1202    0.2410 H   0  0  0  0  0  0  0  0  0  0  0  0
    2.7634    2.5734   -1.1878 H   0  0  0  0  0  0  0  0  0  0  0  0
    0.4854    1.6756   -1.1297 H   0  0  0  0  0  0  0  0  0  0  0  0
    0.8470   -3.1728   -0.6731 H   0  0  0  0  0  0  0  0  0  0  0  0
   -0.5746   -4.0955   -0.2695 H   0  0  0  0  0  0  0  0  0  0  0  0
    0.3974   -3.4288    1.0406 H   0  0  0  0  0  0  0  0  0  0  0  0
   -5.1624   -2.6715    1.0541 H   0  0  0  0  0  0  0  0  0  0  0  0
   -4.0180   -1.7412    2.0684 H   0  0  0  0  0  0  0  0  0  0  0  0
   -4.1440   -3.4910    2.2652 H   0  0  0  0  0  0  0  0  0  0  0  0
  1  2  1  0
  2  3  1  0
  3  4  1  0
  4  5  2  0
  4  6  1  0
  6  7  2  0
  7  8  1  0
  8  9  1  0
  9 10  2  0
 10 11  1  0
 11 12  2  0
 12 13  1  0
 13 14  1  0
 14 15  1  0
 12 16  1  0
 16 17  2  0
  8 18  1  0
 18 19  1  0
 18 20  2  0
 20 21  1  0
 21 22  1  0
 21 23  2  0
 20  6  1  0
 17  9  1  0
  1 24  1  0
  1 25  1  0
  1 26  1  0
  2 27  1  0
  2 28  1  0
 10 29  1  0
 11 30  1  0
 14 31  1  0
 14 32  1  0
 15 33  1  0
 15 34  1  0
 15 35  1  0
 16 36  1  0
 17 37  1  0
 19 38  1  0
 19 39  1  0
 19 40  1  0
 22 41  1  0
 22 42  1  0
 22 43  1  0
M  END
$$$$
