
     RDKit          3D

 69 73  0  0  0  0  0  0  0  0999 V2000
   -1.9017    4.8410    4.9898 C   0  0  0  0  0  0  0  0  0  0  0  0
   -1.5686    3.6091    4.2020 C   0  0  0  0  0  0  0  0  0  0  0  0
   -0.5773    3.6295    3.2154 C   0  0  0  0  0  0  0  0  0  0  0  0
   -0.2857    2.4768    2.4797 C   0  0  0  0  0  0  0  0  0  0  0  0
   -0.9827    1.2837    2.7127 C   0  0  0  0  0  0  0  0  0  0  0  0
   -0.6853    0.0392    1.8989 C   0  0  0  0  0  0  0  0  0  0  0  0
   -1.4860   -0.0377    0.6765 N   0  0  0  0  0  0  0  0  0  0  0  0
   -2.7812   -0.5602    0.7974 C   0  0  0  0  0  0  0  0  0  0  0  0
   -3.1755   -1.1731    1.7940 O   0  0  0  0  0  0  0  0  0  0  0  0
   -3.6922   -0.4147   -0.4384 C   0  0  0  0  0  0  0  0  0  0  0  0
   -3.4572   -1.5911   -1.4024 C   0  0  0  0  0  0  0  0  0  0  0  0
   -4.3275   -1.5901   -2.6750 C   0  0  0  0  0  0  0  0  0  0  0  0
   -3.9612   -2.7934   -3.5476 C   0  0  0  0  0  0  0  0  0  0  0  0
   -5.8228   -1.6140   -2.3606 C   0  0  0  0  0  0  0  0  0  0  0  0
   -3.4869    0.8839   -1.0735 N   0  0  0  0  0  0  0  0  0  0  0  0
   -2.1546    1.2025   -1.3238 C   0  0  0  0  0  0  0  0  0  0  0  0
   -1.9523    1.9972   -2.3817 N   0  0  0  0  0  0  0  0  0  0  0  0
   -0.6835    2.3347   -2.6146 C   0  0  0  0  0  0  0  0  0  0  0  0
    0.3857    1.8970   -1.9414 N   0  0  0  0  0  0  0  0  0  0  0  0
    0.1700    1.0581   -0.9057 C   0  0  0  0  0  0  0  0  0  0  0  0
    1.3028    0.4376   -0.3493 N   0  0  0  0  0  0  0  0  0  0  0  0
    1.3838   -1.0126   -0.6809 C   0  0  0  0  0  0  0  0  0  0  0  0
    2.7421   -1.4362   -1.2916 C   0  0  0  0  0  0  0  0  0  0  0  0
    3.8726   -0.9645   -0.4747 N   0  0  0  0  0  0  0  0  0  0  0  0
    5.1093   -1.5923   -0.4948 C   0  0  0  0  0  0  0  0  0  0  0  0
    5.4623   -2.5275   -1.4806 C   0  0  0  0  0  0  0  0  0  0  0  0
    6.7082   -3.1685   -1.4819 C   0  0  0  0  0  0  0  0  0  0  0  0
    7.6374   -2.8934   -0.4869 C   0  0  0  0  0  0  0  0  0  0  0  0
    7.3198   -1.9743    0.5050 C   0  0  0  0  0  0  0  0  0  0  0  0
    6.0730   -1.3371    0.4962 C   0  0  0  0  0  0  0  0  0  0  0  0
    3.7469    0.3962    0.0903 C   0  0  0  0  0  0  0  0  0  0  0  0
    2.5694    1.1730   -0.5419 C   0  0  0  0  0  0  0  0  0  0  0  0
   -1.1314    0.7338   -0.4906 C   0  0  0  0  0  0  0  0  0  0  0  0
   -1.9808    1.2699    3.6968 C   0  0  0  0  0  0  0  0  0  0  0  0
   -2.2696    2.4201    4.4351 C   0  0  0  0  0  0  0  0  0  0  0  0
   -1.2140    5.6626    4.7623 H   0  0  0  0  0  0  0  0  0  0  0  0
   -1.8300    4.6344    6.0630 H   0  0  0  0  0  0  0  0  0  0  0  0
   -2.9186    5.1729    4.7549 H   0  0  0  0  0  0  0  0  0  0  0  0
   -0.0236    4.5419    3.0084 H   0  0  0  0  0  0  0  0  0  0  0  0
    0.4899    2.5193    1.7178 H   0  0  0  0  0  0  0  0  0  0  0  0
    0.3851   -0.0262    1.7176 H   0  0  0  0  0  0  0  0  0  0  0  0
   -0.9015   -0.8412    2.5179 H   0  0  0  0  0  0  0  0  0  0  0  0
   -4.7215   -0.4364   -0.0633 H   0  0  0  0  0  0  0  0  0  0  0  0
   -3.6266   -2.5270   -0.8529 H   0  0  0  0  0  0  0  0  0  0  0  0
   -2.4025   -1.6213   -1.7044 H   0  0  0  0  0  0  0  0  0  0  0  0
   -4.1125   -0.6873   -3.2587 H   0  0  0  0  0  0  0  0  0  0  0  0
   -4.1636   -3.7367   -3.0286 H   0  0  0  0  0  0  0  0  0  0  0  0
   -4.5372   -2.7884   -4.4789 H   0  0  0  0  0  0  0  0  0  0  0  0
   -2.8994   -2.7718   -3.8143 H   0  0  0  0  0  0  0  0  0  0  0  0
   -6.1393   -0.6915   -1.8642 H   0  0  0  0  0  0  0  0  0  0  0  0
   -6.4123   -1.7049   -3.2791 H   0  0  0  0  0  0  0  0  0  0  0  0
   -6.0789   -2.4575   -1.7105 H   0  0  0  0  0  0  0  0  0  0  0  0
   -4.0675    1.1337   -1.8661 H   0  0  0  0  0  0  0  0  0  0  0  0
   -0.4983    3.0144   -3.4392 H   0  0  0  0  0  0  0  0  0  0  0  0
    1.2395   -1.5737    0.2502 H   0  0  0  0  0  0  0  0  0  0  0  0
    0.5881   -1.3273   -1.3692 H   0  0  0  0  0  0  0  0  0  0  0  0
    2.7360   -2.5311   -1.3567 H   0  0  0  0  0  0  0  0  0  0  0  0
    2.8353   -1.0377   -2.3097 H   0  0  0  0  0  0  0  0  0  0  0  0
    4.7797   -2.7630   -2.2914 H   0  0  0  0  0  0  0  0  0  0  0  0
    6.9461   -3.8823   -2.2664 H   0  0  0  0  0  0  0  0  0  0  0  0
    8.6023   -3.3922   -0.4836 H   0  0  0  0  0  0  0  0  0  0  0  0
    8.0331   -1.7559    1.2945 H   0  0  0  0  0  0  0  0  0  0  0  0
    5.8548   -0.6473    1.3070 H   0  0  0  0  0  0  0  0  0  0  0  0
    3.5906    0.3160    1.1731 H   0  0  0  0  0  0  0  0  0  0  0  0
    4.6605    0.9777   -0.0842 H   0  0  0  0  0  0  0  0  0  0  0  0
    2.7833    1.3242   -1.6085 H   0  0  0  0  0  0  0  0  0  0  0  0
    2.5012    2.1589   -0.0659 H   0  0  0  0  0  0  0  0  0  0  0  0
   -2.5464    0.3605    3.8928 H   0  0  0  0  0  0  0  0  0  0  0  0
   -3.0509    2.3813    5.1920 H   0  0  0  0  0  0  0  0  0  0  0  0
  1  2  1  0
  2  3  2  0
  3  4  1  0
  4  5  2  0
  5  6  1  0
  6  7  1  0
  7  8  1  0
  8  9  2  0
  8 10  1  0
 10 11  1  0
 11 12  1  0
 12 13  1  0
 12 14  1  0
 10 15  1  0
 15 16  1  0
 16 17  2  0
 17 18  1  0
 18 19  2  0
 19 20  1  0
 20 21  1  0
 21 22  1  0
 22 23  1  0
 23 24  1  0
 24 25  1  0
 25 26  2  0
 26 27  1  0
 27 28  2  0
 28 29  1  0
 29 30  2  0
 24 31  1  0
 31 32  1  0
 20 33  2  0
  5 34  1  0
 34 35  2  0
 35  2  1  0
 33  7  1  0
 33 16  1  0
 32 21  1  0
 30 25  1  0
  1 36  1  0
  1 37  1  0
  1 38  1  0
  3 39  1  0
  4 40  1  0
  6 41  1  0
  6 42  1  0
 10 43  1  0
 11 44  1  0
 11 45  1  0
 12 46  1  0
 13 47  1  0
 13 48  1  0
 13 49  1  0
 14 50  1  0
 14 51  1  0
 14 52  1  0
 15 53  1  0
 18 54  1  0
 22 55  1  0
 22 56  1  0
 23 57  1  0
 23 58  1  0
 26 59  1  0
 27 60  1  0
 28 61  1  0
 29 62  1  0
 30 63  1  0
 31 64  1  0
 31 65  1  0
 32 66  1  0
 32 67  1  0
 34 68  1  0
 35 69  1  0
M  END
$$$$
