
     RDKit          3D

 40 41  0  0  0  0  0  0  0  0999 V2000
   -1.4417    0.9802    1.8108 O   0  0  0  0  0  0  0  0  0  0  0  0
   -1.7199   -0.1354    1.3798 C   0  0  0  0  0  0  0  0  0  0  0  0
   -0.8390   -1.3539    1.6975 C   0  0  0  0  0  0  0  0  0  0  0  0
    0.5187   -1.0056    1.9616 O   0  0  0  0  0  0  0  0  0  0  0  0
    1.2071   -0.6161    0.8502 C   0  0  0  0  0  0  0  0  0  0  0  0
    0.7599   -0.6420   -0.2876 O   0  0  0  0  0  0  0  0  0  0  0  0
    2.5876   -0.1478    1.2486 C   0  0  0  0  0  0  0  0  0  0  0  0
    3.4965    0.0978    0.0460 C   0  0  0  0  0  0  0  0  0  0  0  0
    4.8333    0.7218    0.4414 C   0  0  0  0  0  0  0  0  0  0  0  0
    5.7055    0.5062   -0.7883 C   0  0  0  0  0  0  0  0  0  0  0  0
    5.1993   -0.7832   -1.4340 C   0  0  0  0  0  0  0  0  0  0  0  0
    3.9398   -1.1812   -0.6667 C   0  0  0  0  0  0  0  0  0  0  0  0
   -2.8162   -0.4625    0.5976 N   0  0  0  0  0  0  0  0  0  0  0  0
   -3.8502    0.3863    0.1174 C   0  0  0  0  0  0  0  0  0  0  0  0
   -3.9061    1.7425    0.4683 C   0  0  0  0  0  0  0  0  0  0  0  0
   -4.9253    2.5788   -0.0053 C   0  0  0  0  0  0  0  0  0  0  0  0
   -5.9153    2.0804   -0.8436 C   0  0  0  0  0  0  0  0  0  0  0  0
   -5.8905    0.7388   -1.2126 C   0  0  0  0  0  0  0  0  0  0  0  0
   -4.8668   -0.1058   -0.7370 C   0  0  0  0  0  0  0  0  0  0  0  0
   -4.8999   -1.5120   -1.1726 N   0  0  0  0  0  4  0  0  0  0  0  0
   -5.6766   -1.8184   -2.0882 O   0  0  0  0  0  0  0  0  0  0  0  0
   -4.1499   -2.3200   -0.5997 O   0  0  0  0  0  1  0  0  0  0  0  0
   -1.2408   -1.8146    2.6061 H   0  0  0  0  0  0  0  0  0  0  0  0
   -0.8895   -2.1054    0.9010 H   0  0  0  0  0  0  0  0  0  0  0  0
    2.4656    0.7845    1.8127 H   0  0  0  0  0  0  0  0  0  0  0  0
    3.0334   -0.8993    1.9111 H   0  0  0  0  0  0  0  0  0  0  0  0
    2.9943    0.7560   -0.6763 H   0  0  0  0  0  0  0  0  0  0  0  0
    5.2691    0.2008    1.3025 H   0  0  0  0  0  0  0  0  0  0  0  0
    4.7408    1.7819    0.6964 H   0  0  0  0  0  0  0  0  0  0  0  0
    5.5818    1.3418   -1.4877 H   0  0  0  0  0  0  0  0  0  0  0  0
    6.7672    0.4475   -0.5296 H   0  0  0  0  0  0  0  0  0  0  0  0
    4.9735   -0.6109   -2.4923 H   0  0  0  0  0  0  0  0  0  0  0  0
    5.9505   -1.5786   -1.3848 H   0  0  0  0  0  0  0  0  0  0  0  0
    4.1862   -1.9668    0.0584 H   0  0  0  0  0  0  0  0  0  0  0  0
    3.1695   -1.5772   -1.3356 H   0  0  0  0  0  0  0  0  0  0  0  0
   -2.8787   -1.4366    0.2982 H   0  0  0  0  0  0  0  0  0  0  0  0
   -3.1643    2.1973    1.1188 H   0  0  0  0  0  0  0  0  0  0  0  0
   -4.9361    3.6275    0.2865 H   0  0  0  0  0  0  0  0  0  0  0  0
   -6.7011    2.7365   -1.2112 H   0  0  0  0  0  0  0  0  0  0  0  0
   -6.6716    0.3665   -1.8730 H   0  0  0  0  0  0  0  0  0  0  0  0
  1  2  2  0
  2  3  1  0
  3  4  1  0
  4  5  1  0
  5  6  2  0
  5  7  1  0
  7  8  1  0
  8  9  1  0
  9 10  1  0
 10 11  1  0
 11 12  1  0
  2 13  1  0
 13 14  1  0
 14 15  2  0
 15 16  1  0
 16 17  2  0
 17 18  1  0
 18 19  2  0
 19 20  1  0
 20 21  2  0
 20 22  1  0
 12  8  1  0
 19 14  1  0
  3 23  1  0
  3 24  1  0
  7 25  1  0
  7 26  1  0
  8 27  1  0
  9 28  1  0
  9 29  1  0
 10 30  1  0
 10 31  1  0
 11 32  1  0
 11 33  1  0
 12 34  1  0
 12 35  1  0
 13 36  1  0
 15 37  1  0
 16 38  1  0
 17 39  1  0
 18 40  1  0
M  CHG  2  20   1  22  -1
M  END
$$$$
