
     RDKit          3D

 37 39  0  0  0  0  0  0  0  0999 V2000
    5.7447    0.9533    0.9899 N   0  0  0  0  0  0  0  0  0  0  0  0
    5.1119    0.5166   -0.1379 C   0  0  0  0  0  0  0  0  0  0  0  0
    5.5953    0.7273   -1.2435 O   0  0  0  0  0  0  0  0  0  0  0  0
    3.8103   -0.2303    0.1062 C   0  0  0  0  0  0  0  0  0  0  0  0
    3.2712   -0.8268   -1.1959 C   0  0  0  0  0  0  0  0  0  0  0  0
    1.9381   -1.5351   -0.9676 C   0  0  0  0  0  0  0  0  0  0  0  0
    1.0204   -0.7262   -0.1646 N   0  0  0  0  0  0  0  0  0  0  0  0
   -0.3070   -1.0521   -0.0888 C   0  0  0  0  0  0  0  0  0  0  0  0
   -1.2413   -0.2075    0.2959 N   0  0  0  0  0  0  0  0  0  0  0  0
   -2.5039   -0.7859    0.2880 C   0  0  0  0  0  0  0  0  0  0  0  0
   -3.6782   -0.0103    0.6806 C   0  0  0  0  0  0  0  0  0  0  0  0
   -3.4964    1.1827    1.4012 C   0  0  0  0  0  0  0  0  0  0  0  0
   -4.5892    1.9599    1.7999 C   0  0  0  0  0  0  0  0  0  0  0  0
   -5.8841    1.5590    1.4809 C   0  0  0  0  0  0  0  0  0  0  0  0
   -6.0835    0.3834    0.7613 C   0  0  0  0  0  0  0  0  0  0  0  0
   -4.9893   -0.3885    0.3660 C   0  0  0  0  0  0  0  0  0  0  0  0
   -5.2433   -1.5012   -0.3398 F   0  0  0  0  0  0  0  0  0  0  0  0
   -2.5121   -2.1131   -0.0822 C   0  0  0  0  0  0  0  0  0  0  0  0
   -0.9253   -2.6339   -0.4461 S   0  0  0  0  0  0  0  0  0  0  0  0
    1.4058    0.6549    0.1074 C   0  0  0  0  0  0  0  0  0  0  0  0
    2.7739    0.6778    0.7898 C   0  0  0  0  0  0  0  0  0  0  0  0
    6.6517    1.3853    0.8672 H   0  0  0  0  0  0  0  0  0  0  0  0
    5.4916    0.6274    1.9123 H   0  0  0  0  0  0  0  0  0  0  0  0
    4.0496   -1.0619    0.7839 H   0  0  0  0  0  0  0  0  0  0  0  0
    3.9937   -1.5340   -1.6217 H   0  0  0  0  0  0  0  0  0  0  0  0
    3.1424   -0.0365   -1.9477 H   0  0  0  0  0  0  0  0  0  0  0  0
    2.1268   -2.4845   -0.4513 H   0  0  0  0  0  0  0  0  0  0  0  0
    1.5034   -1.7644   -1.9486 H   0  0  0  0  0  0  0  0  0  0  0  0
   -2.4918    1.5150    1.6595 H   0  0  0  0  0  0  0  0  0  0  0  0
   -4.4239    2.8786    2.3577 H   0  0  0  0  0  0  0  0  0  0  0  0
   -6.7343    2.1626    1.7881 H   0  0  0  0  0  0  0  0  0  0  0  0
   -7.0862    0.0605    0.4983 H   0  0  0  0  0  0  0  0  0  0  0  0
   -3.3408   -2.8016   -0.1533 H   0  0  0  0  0  0  0  0  0  0  0  0
    1.4296    1.2278   -0.8280 H   0  0  0  0  0  0  0  0  0  0  0  0
    0.6981    1.1644    0.7731 H   0  0  0  0  0  0  0  0  0  0  0  0
    3.1160    1.7181    0.8481 H   0  0  0  0  0  0  0  0  0  0  0  0
    2.6560    0.3391    1.8279 H   0  0  0  0  0  0  0  0  0  0  0  0
  1  2  1  0
  2  3  2  0
  2  4  1  0
  4  5  1  0
  5  6  1  0
  6  7  1  0
  7  8  1  0
  8  9  2  0
  9 10  1  0
 10 11  1  0
 11 12  2  0
 12 13  1  0
 13 14  2  0
 14 15  1  0
 15 16  2  0
 16 17  1  0
 10 18  2  0
 18 19  1  0
  7 20  1  0
 20 21  1  0
 21  4  1  0
 19  8  1  0
 16 11  1  0
  1 22  1  0
  1 23  1  0
  4 24  1  0
  5 25  1  0
  5 26  1  0
  6 27  1  0
  6 28  1  0
 12 29  1  0
 13 30  1  0
 14 31  1  0
 15 32  1  0
 18 33  1  0
 20 34  1  0
 20 35  1  0
 21 36  1  0
 21 37  1  0
M  END
$$$$
