
     RDKit          3D

 61 63  0  0  0  0  0  0  0  0999 V2000
   -3.3955    1.4802    3.6159 C   0  0  0  0  0  0  0  0  0  0  0  0
   -2.2679    1.1405    2.6521 C   0  0  0  0  0  0  0  0  0  0  0  0
   -1.0077    1.9562    2.9536 C   0  0  0  0  0  0  0  0  0  0  0  0
    0.1427    1.6061    2.0143 C   0  0  0  0  0  0  0  0  0  0  0  0
   -0.1250    2.0219    0.6514 N   0  0  0  0  0  0  0  0  0  0  0  0
    0.5017    1.4045   -0.4128 C   0  0  0  0  0  0  0  0  0  0  0  0
    1.2251    0.4185   -0.2822 O   0  0  0  0  0  0  0  0  0  0  0  0
    0.1951    2.0176   -1.7836 C   0  0  0  0  0  0  0  0  0  0  0  0
    0.9539    3.3389   -1.9990 C   0  0  0  0  0  0  0  0  0  0  0  0
    2.4614    3.2255   -2.0074 C   0  0  0  0  0  0  0  0  0  0  0  0
    3.1419    2.9478   -3.2013 C   0  0  0  0  0  0  0  0  0  0  0  0
    4.5314    2.8228   -3.2130 C   0  0  0  0  0  0  0  0  0  0  0  0
    5.2552    2.9753   -2.0322 C   0  0  0  0  0  0  0  0  0  0  0  0
    4.5898    3.2544   -0.8404 C   0  0  0  0  0  0  0  0  0  0  0  0
    3.1992    3.3803   -0.8264 C   0  0  0  0  0  0  0  0  0  0  0  0
    0.5190    1.0532   -2.8611 N   0  0  0  0  0  0  0  0  0  0  0  0
   -0.6849    0.0270   -3.4160 S   0  0  0  0  0  6  0  0  0  0  0  0
   -0.0951   -0.8151   -4.4309 O   0  0  0  0  0  0  0  0  0  0  0  0
   -1.8538    0.8357   -3.6873 O   0  0  0  0  0  0  0  0  0  0  0  0
   -1.0524   -0.9994   -2.0167 C   0  0  0  0  0  0  0  0  0  0  0  0
   -2.2023   -0.7733   -1.2618 C   0  0  0  0  0  0  0  0  0  0  0  0
   -2.4776   -1.5912   -0.1608 C   0  0  0  0  0  0  0  0  0  0  0  0
   -1.6152   -2.6428    0.1941 C   0  0  0  0  0  0  0  0  0  0  0  0
   -0.4825   -2.8614   -0.5899 C   0  0  0  0  0  0  0  0  0  0  0  0
   -0.1989   -2.0553   -1.7013 C   0  0  0  0  0  0  0  0  0  0  0  0
    0.4291   -3.9625   -0.2456 C   0  0  0  0  0  0  0  0  0  0  0  0
    1.3727   -4.2165   -0.9909 O   0  0  0  0  0  0  0  0  0  0  0  0
    0.1457   -4.6663    0.9150 N   0  0  0  0  0  0  0  0  0  0  0  0
    1.0481   -5.7438    1.2765 C   0  0  0  0  0  0  0  0  0  0  0  0
   -1.0072   -4.5165    1.6743 C   0  0  0  0  0  0  0  0  0  0  0  0
   -1.2556   -5.2642    2.6240 O   0  0  0  0  0  0  0  0  0  0  0  0
   -1.8712   -3.4881    1.3062 N   0  0  0  0  0  0  0  0  0  0  0  0
   -3.0819   -3.2975    2.0946 C   0  0  0  0  0  0  0  0  0  0  0  0
   -3.6709    2.5385    3.5397 H   0  0  0  0  0  0  0  0  0  0  0  0
   -4.2830    0.8795    3.3866 H   0  0  0  0  0  0  0  0  0  0  0  0
   -3.1030    1.2747    4.6504 H   0  0  0  0  0  0  0  0  0  0  0  0
   -2.0423    0.0696    2.7275 H   0  0  0  0  0  0  0  0  0  0  0  0
   -2.6080    1.3306    1.6278 H   0  0  0  0  0  0  0  0  0  0  0  0
   -0.6905    1.7599    3.9850 H   0  0  0  0  0  0  0  0  0  0  0  0
   -1.2336    3.0277    2.8837 H   0  0  0  0  0  0  0  0  0  0  0  0
    0.3492    0.5307    2.0421 H   0  0  0  0  0  0  0  0  0  0  0  0
    1.0527    2.1264    2.3306 H   0  0  0  0  0  0  0  0  0  0  0  0
   -0.5335    2.9379    0.5118 H   0  0  0  0  0  0  0  0  0  0  0  0
   -0.8758    2.2524   -1.8134 H   0  0  0  0  0  0  0  0  0  0  0  0
    0.6358    3.7843   -2.9509 H   0  0  0  0  0  0  0  0  0  0  0  0
    0.6639    4.0645   -1.2287 H   0  0  0  0  0  0  0  0  0  0  0  0
    2.5914    2.8199   -4.1320 H   0  0  0  0  0  0  0  0  0  0  0  0
    5.0483    2.6031   -4.1434 H   0  0  0  0  0  0  0  0  0  0  0  0
    6.3376    2.8739   -2.0413 H   0  0  0  0  0  0  0  0  0  0  0  0
    5.1548    3.3699    0.0810 H   0  0  0  0  0  0  0  0  0  0  0  0
    2.7026    3.5949    0.1164 H   0  0  0  0  0  0  0  0  0  0  0  0
    1.4163    0.5750   -2.7232 H   0  0  0  0  0  0  0  0  0  0  0  0
   -2.8888    0.0311   -1.5180 H   0  0  0  0  0  0  0  0  0  0  0  0
   -3.3805   -1.3804    0.4041 H   0  0  0  0  0  0  0  0  0  0  0  0
    0.6905   -2.2433   -2.3002 H   0  0  0  0  0  0  0  0  0  0  0  0
    2.0644   -5.5464    0.9222 H   0  0  0  0  0  0  0  0  0  0  0  0
    0.6838   -6.6669    0.8135 H   0  0  0  0  0  0  0  0  0  0  0  0
    1.0780   -5.8805    2.3620 H   0  0  0  0  0  0  0  0  0  0  0  0
   -3.9587   -3.4165    1.4493 H   0  0  0  0  0  0  0  0  0  0  0  0
   -3.1678   -4.0238    2.9079 H   0  0  0  0  0  0  0  0  0  0  0  0
   -3.0699   -2.2992    2.5426 H   0  0  0  0  0  0  0  0  0  0  0  0
  1  2  1  0
  2  3  1  0
  3  4  1  0
  4  5  1  0
  5  6  1  0
  6  7  2  0
  6  8  1  0
  8  9  1  0
  9 10  1  0
 10 11  2  0
 11 12  1  0
 12 13  2  0
 13 14  1  0
 14 15  2  0
  8 16  1  0
 16 17  1  0
 17 18  2  0
 17 19  2  0
 17 20  1  0
 20 21  2  0
 21 22  1  0
 22 23  2  0
 23 24  1  0
 24 25  2  0
 24 26  1  0
 26 27  2  0
 26 28  1  0
 28 29  1  0
 28 30  1  0
 30 31  2  0
 30 32  1  0
 32 33  1  0
 15 10  1  0
 25 20  1  0
 32 23  1  0
  1 34  1  0
  1 35  1  0
  1 36  1  0
  2 37  1  0
  2 38  1  0
  3 39  1  0
  3 40  1  0
  4 41  1  0
  4 42  1  0
  5 43  1  0
  8 44  1  0
  9 45  1  0
  9 46  1  0
 11 47  1  0
 12 48  1  0
 13 49  1  0
 14 50  1  0
 15 51  1  0
 16 52  1  0
 21 53  1  0
 22 54  1  0
 25 55  1  0
 29 56  1  0
 29 57  1  0
 29 58  1  0
 33 59  1  0
 33 60  1  0
 33 61  1  0
M  END
$$$$
