
     RDKit          3D

 52 55  0  0  0  0  0  0  0  0999 V2000
    7.2261   -1.0938   -1.5157 C   0  0  0  0  0  0  0  0  0  0  0  0
    5.9140   -0.3329   -1.6557 C   0  0  0  0  0  0  0  0  0  0  0  0
    5.3103    0.0897   -0.3008 C   0  0  0  0  0  0  0  0  0  0  0  0
    6.2048    1.0240    0.5242 C   0  0  0  0  0  0  0  0  0  0  0  0
    3.8962    0.5682   -0.4388 N   0  0  0  0  0  0  0  0  0  0  0  0
    2.9307   -0.3724   -0.0387 C   0  0  0  0  0  0  0  0  0  0  0  0
    3.2150   -1.5200    0.3108 O   0  0  0  0  0  0  0  0  0  0  0  0
    1.5046    0.0590   -0.0629 C   0  0  0  0  0  0  0  0  0  0  0  0
    0.5988   -0.8125    0.4279 C   0  0  0  0  0  0  0  0  0  0  0  0
   -0.8525   -0.6348    0.5124 C   0  0  0  0  0  0  0  0  0  0  0  0
   -1.4325   -0.1565    1.6870 C   0  0  0  0  0  0  0  0  0  0  0  0
   -2.8248    0.0077    1.7799 C   0  0  0  0  0  0  0  0  0  0  0  0
   -3.6636   -0.3390    0.7015 C   0  0  0  0  0  0  0  0  0  0  0  0
   -3.0654   -0.8339   -0.4752 C   0  0  0  0  0  0  0  0  0  0  0  0
   -1.6695   -0.9664   -0.5682 C   0  0  0  0  0  0  0  0  0  0  0  0
   -3.9133   -1.1919   -1.6690 C   0  0  0  0  0  0  0  0  0  0  0  0
   -5.3431   -1.5085   -1.2550 C   0  0  0  0  0  0  0  0  0  0  0  0
   -5.8813   -0.3880   -0.3793 C   0  0  0  0  0  0  0  0  0  0  0  0
   -5.0424   -0.2018    0.7971 N   0  0  0  0  0  0  0  0  0  0  0  0
   -5.6629    0.2147    2.0480 C   0  0  0  0  0  0  0  0  0  0  0  0
   -4.7706    1.1819    2.8096 C   0  0  0  0  0  0  0  0  0  0  0  0
   -3.4156    0.5369    3.0614 C   0  0  0  0  0  0  0  0  0  0  0  0
    1.1522    1.3788   -0.6079 C   0  0  0  0  0  0  0  0  0  0  0  0
    0.0260    1.8530   -0.6661 O   0  0  0  0  0  0  0  0  0  0  0  0
    2.2171    2.0912   -1.0742 N   0  0  0  0  0  0  0  0  0  0  0  0
    3.5504    1.7862   -1.0216 C   0  0  0  0  0  0  0  0  0  0  0  0
    4.5503    2.9601   -1.6807 S   0  0  0  0  0  0  0  0  0  0  0  0
    7.5687   -1.4345   -2.4981 H   0  0  0  0  0  0  0  0  0  0  0  0
    8.0112   -0.4611   -1.0912 H   0  0  0  0  0  0  0  0  0  0  0  0
    7.1049   -1.9740   -0.8765 H   0  0  0  0  0  0  0  0  0  0  0  0
    5.1969   -0.9755   -2.1820 H   0  0  0  0  0  0  0  0  0  0  0  0
    6.0861    0.5319   -2.3024 H   0  0  0  0  0  0  0  0  0  0  0  0
    5.2860   -0.8247    0.3042 H   0  0  0  0  0  0  0  0  0  0  0  0
    7.0586    0.4704    0.9311 H   0  0  0  0  0  0  0  0  0  0  0  0
    5.6555    1.4457    1.3728 H   0  0  0  0  0  0  0  0  0  0  0  0
    6.6218    1.8441   -0.0639 H   0  0  0  0  0  0  0  0  0  0  0  0
    0.9203   -1.7764    0.8226 H   0  0  0  0  0  0  0  0  0  0  0  0
   -0.8048    0.1034    2.5359 H   0  0  0  0  0  0  0  0  0  0  0  0
   -1.2271   -1.3357   -1.4902 H   0  0  0  0  0  0  0  0  0  0  0  0
   -3.4930   -2.0628   -2.1856 H   0  0  0  0  0  0  0  0  0  0  0  0
   -3.9022   -0.3485   -2.3702 H   0  0  0  0  0  0  0  0  0  0  0  0
   -5.3693   -2.4557   -0.7006 H   0  0  0  0  0  0  0  0  0  0  0  0
   -5.9722   -1.6335   -2.1430 H   0  0  0  0  0  0  0  0  0  0  0  0
   -5.9298    0.5514   -0.9436 H   0  0  0  0  0  0  0  0  0  0  0  0
   -6.9060   -0.6374   -0.0792 H   0  0  0  0  0  0  0  0  0  0  0  0
   -6.6256    0.7022    1.8531 H   0  0  0  0  0  0  0  0  0  0  0  0
   -5.8707   -0.6729    2.6581 H   0  0  0  0  0  0  0  0  0  0  0  0
   -5.2370    1.4600    3.7610 H   0  0  0  0  0  0  0  0  0  0  0  0
   -4.6428    2.1038    2.2272 H   0  0  0  0  0  0  0  0  0  0  0  0
   -3.5165   -0.2935    3.7707 H   0  0  0  0  0  0  0  0  0  0  0  0
   -2.7468    1.2814    3.5092 H   0  0  0  0  0  0  0  0  0  0  0  0
    1.9749    2.9933   -1.4655 H   0  0  0  0  0  0  0  0  0  0  0  0
  1  2  1  0
  2  3  1  0
  3  4  1  0
  3  5  1  0
  5  6  1  0
  6  7  2  0
  6  8  1  0
  8  9  2  3
  9 10  1  0
 10 11  2  0
 11 12  1  0
 12 13  2  0
 13 14  1  0
 14 15  2  0
 14 16  1  0
 16 17  1  0
 17 18  1  0
 18 19  1  0
 19 20  1  0
 20 21  1  0
 21 22  1  0
  8 23  1  0
 23 24  2  0
 23 25  1  0
 25 26  1  0
 26 27  2  0
 26  5  1  0
 15 10  1  0
 22 12  1  0
 19 13  1  0
  1 28  1  0
  1 29  1  0
  1 30  1  0
  2 31  1  0
  2 32  1  0
  3 33  1  0
  4 34  1  0
  4 35  1  0
  4 36  1  0
  9 37  1  0
 11 38  1  0
 15 39  1  0
 16 40  1  0
 16 41  1  0
 17 42  1  0
 17 43  1  0
 18 44  1  0
 18 45  1  0
 20 46  1  0
 20 47  1  0
 21 48  1  0
 21 49  1  0
 22 50  1  0
 22 51  1  0
 25 52  1  0
M  END
$$$$
