
     RDKit          3D

 68 71  0  0  0  0  0  0  0  0999 V2000
    6.4425    1.8885   -6.3100 C   0  0  0  0  0  0  0  0  0  0  0  0
    6.6245    1.3053   -5.0259 O   0  0  0  0  0  0  0  0  0  0  0  0
    5.4964    0.9531   -4.3390 C   0  0  0  0  0  0  0  0  0  0  0  0
    4.1819    1.1620   -4.7545 C   0  0  0  0  0  0  0  0  0  0  0  0
    3.1142    0.7521   -3.9462 C   0  0  0  0  0  0  0  0  0  0  0  0
    3.3511    0.1236   -2.7191 C   0  0  0  0  0  0  0  0  0  0  0  0
    2.2123   -0.2680   -1.8804 C   0  0  0  0  0  0  0  0  0  0  0  0
    1.9220   -1.5248   -1.4885 C   0  0  0  0  0  0  0  0  0  0  0  0
    2.6549   -2.6734   -1.8983 C   0  0  0  0  0  0  0  0  0  0  0  0
    3.2876   -3.5918   -2.2223 N   0  0  0  0  0  0  0  0  0  0  0  0
    0.7103   -1.7557   -0.6479 C   0  0  0  0  0  0  0  0  0  0  0  0
   -0.0894   -2.6327   -0.9519 O   0  0  0  0  0  0  0  0  0  0  0  0
    0.6217   -0.9105    0.4343 N   0  0  0  0  0  0  0  0  0  0  0  0
   -0.3663   -0.8774    1.4394 C   0  0  0  0  0  0  0  0  0  0  0  0
   -1.3722   -1.8307    1.5802 C   0  0  0  0  0  0  0  0  0  0  0  0
   -2.3074   -1.6931    2.6105 C   0  0  0  0  0  0  0  0  0  0  0  0
   -3.5650   -2.9392    2.8185 S   0  0  0  0  0  6  0  0  0  0  0  0
   -4.1825   -2.7164    4.1102 O   0  0  0  0  0  0  0  0  0  0  0  0
   -2.9659   -4.2140    2.4894 O   0  0  0  0  0  0  0  0  0  0  0  0
   -4.7038   -2.5430    1.6290 N   0  0  0  0  0  0  0  0  0  0  0  0
   -5.5583   -1.3560    1.8557 C   0  0  0  0  0  0  0  0  0  0  0  0
   -5.7373   -0.5315    0.5866 C   0  0  0  0  0  0  0  0  0  0  0  0
   -6.2655   -1.3715   -0.5725 C   0  0  0  0  0  0  0  0  0  0  0  0
   -5.6645   -2.7769   -0.6076 C   0  0  0  0  0  0  0  0  0  0  0  0
   -4.3908   -2.8768    0.2238 C   0  0  0  0  0  0  0  0  0  0  0  0
   -2.2240   -0.6334    3.5187 C   0  0  0  0  0  0  0  0  0  0  0  0
   -1.2060    0.3122    3.3859 C   0  0  0  0  0  0  0  0  0  0  0  0
   -0.2659    0.2034    2.3516 C   0  0  0  0  0  0  0  0  0  0  0  0
    0.7771    1.1497    2.1633 N   0  0  0  0  0  0  0  0  0  0  0  0
    0.2696    2.3852    1.5341 C   0  0  0  0  0  0  0  0  0  0  0  0
    1.3849    3.4239    1.4889 C   0  0  0  0  0  0  0  0  0  0  0  0
    1.8367    3.8154    2.8965 C   0  0  0  0  0  0  0  0  0  0  0  0
    1.5484    2.7285    3.9338 C   0  0  0  0  0  0  0  0  0  0  0  0
    1.6567    1.3272    3.3397 C   0  0  0  0  0  0  0  0  0  0  0  0
    4.6690   -0.0770   -2.3001 C   0  0  0  0  0  0  0  0  0  0  0  0
    5.7318    0.3338   -3.1093 C   0  0  0  0  0  0  0  0  0  0  0  0
    5.9255    2.8513   -6.2344 H   0  0  0  0  0  0  0  0  0  0  0  0
    5.9128    1.2066   -6.9837 H   0  0  0  0  0  0  0  0  0  0  0  0
    7.4333    2.0744   -6.7357 H   0  0  0  0  0  0  0  0  0  0  0  0
    3.9512    1.6390   -5.7010 H   0  0  0  0  0  0  0  0  0  0  0  0
    2.0975    0.9223   -4.2937 H   0  0  0  0  0  0  0  0  0  0  0  0
    1.5625    0.5613   -1.6055 H   0  0  0  0  0  0  0  0  0  0  0  0
    1.3254   -0.1898    0.5825 H   0  0  0  0  0  0  0  0  0  0  0  0
   -1.4303   -2.6920    0.9222 H   0  0  0  0  0  0  0  0  0  0  0  0
   -6.5327   -1.7058    2.2147 H   0  0  0  0  0  0  0  0  0  0  0  0
   -5.1410   -0.7103    2.6351 H   0  0  0  0  0  0  0  0  0  0  0  0
   -4.7727   -0.0902    0.3039 H   0  0  0  0  0  0  0  0  0  0  0  0
   -6.4202    0.3055    0.7763 H   0  0  0  0  0  0  0  0  0  0  0  0
   -6.0535   -0.8515   -1.5138 H   0  0  0  0  0  0  0  0  0  0  0  0
   -7.3568   -1.4546   -0.5074 H   0  0  0  0  0  0  0  0  0  0  0  0
   -5.4651   -3.0678   -1.6455 H   0  0  0  0  0  0  0  0  0  0  0  0
   -6.4044   -3.4895   -0.2203 H   0  0  0  0  0  0  0  0  0  0  0  0
   -3.6269   -2.2012   -0.1740 H   0  0  0  0  0  0  0  0  0  0  0  0
   -4.0128   -3.9018    0.1561 H   0  0  0  0  0  0  0  0  0  0  0  0
   -2.9359   -0.5448    4.3370 H   0  0  0  0  0  0  0  0  0  0  0  0
   -1.1531    1.1322    4.0955 H   0  0  0  0  0  0  0  0  0  0  0  0
   -0.0550    2.1661    0.5092 H   0  0  0  0  0  0  0  0  0  0  0  0
   -0.5942    2.7923    2.0760 H   0  0  0  0  0  0  0  0  0  0  0  0
    1.0576    4.3147    0.9424 H   0  0  0  0  0  0  0  0  0  0  0  0
    2.2407    3.0121    0.9393 H   0  0  0  0  0  0  0  0  0  0  0  0
    2.9094    4.0438    2.8773 H   0  0  0  0  0  0  0  0  0  0  0  0
    1.3306    4.7382    3.2065 H   0  0  0  0  0  0  0  0  0  0  0  0
    2.2378    2.8355    4.7796 H   0  0  0  0  0  0  0  0  0  0  0  0
    0.5388    2.8779    4.3360 H   0  0  0  0  0  0  0  0  0  0  0  0
    2.6881    1.1619    3.0036 H   0  0  0  0  0  0  0  0  0  0  0  0
    1.4687    0.5760    4.1171 H   0  0  0  0  0  0  0  0  0  0  0  0
    4.8917   -0.5505   -1.3469 H   0  0  0  0  0  0  0  0  0  0  0  0
    6.7544    0.1687   -2.7785 H   0  0  0  0  0  0  0  0  0  0  0  0
  1  2  1  0
  2  3  1  0
  3  4  2  0
  4  5  1  0
  5  6  2  0
  6  7  1  0
  7  8  2  3
  8  9  1  0
  9 10  3  0
  8 11  1  0
 11 12  2  0
 11 13  1  0
 13 14  1  0
 14 15  2  0
 15 16  1  0
 16 17  1  0
 17 18  2  0
 17 19  2  0
 17 20  1  0
 20 21  1  0
 21 22  1  0
 22 23  1  0
 23 24  1  0
 24 25  1  0
 16 26  2  0
 26 27  1  0
 27 28  2  0
 28 29  1  0
 29 30  1  0
 30 31  1  0
 31 32  1  0
 32 33  1  0
 33 34  1  0
  6 35  1  0
 35 36  2  0
 36  3  1  0
 28 14  1  0
 34 29  1  0
 25 20  1  0
  1 37  1  0
  1 38  1  0
  1 39  1  0
  4 40  1  0
  5 41  1  0
  7 42  1  0
 13 43  1  0
 15 44  1  0
 21 45  1  0
 21 46  1  0
 22 47  1  0
 22 48  1  0
 23 49  1  0
 23 50  1  0
 24 51  1  0
 24 52  1  0
 25 53  1  0
 25 54  1  0
 26 55  1  0
 27 56  1  0
 30 57  1  0
 30 58  1  0
 31 59  1  0
 31 60  1  0
 32 61  1  0
 32 62  1  0
 33 63  1  0
 33 64  1  0
 34 65  1  0
 34 66  1  0
 35 67  1  0
 36 68  1  0
M  END
$$$$
