
     RDKit          3D

 35 37  0  0  0  0  0  0  0  0999 V2000
    0.1070   -1.8863    0.0740 O   0  0  0  0  0  0  0  0  0  0  0  0
    0.1061   -0.8326    0.7046 C   0  0  0  0  0  0  0  0  0  0  0  0
    1.1562   -0.4217    1.4960 N   0  0  0  0  0  0  0  0  0  0  0  0
    2.4147   -1.1187    1.5391 C   0  0  0  0  0  0  0  0  0  0  0  0
    3.4016   -0.5067    0.5776 C   0  0  0  0  0  0  0  0  0  0  0  0
    3.4241   -0.9142   -0.7664 C   0  0  0  0  0  0  0  0  0  0  0  0
    4.3194   -0.3342   -1.6658 C   0  0  0  0  0  0  0  0  0  0  0  0
    5.1869    0.6573   -1.2247 C   0  0  0  0  0  0  0  0  0  0  0  0
    6.0459    1.2149   -2.0882 F   0  0  0  0  0  0  0  0  0  0  0  0
    5.1742    1.0827    0.0984 C   0  0  0  0  0  0  0  0  0  0  0  0
    4.2793    0.5044    1.0002 C   0  0  0  0  0  0  0  0  0  0  0  0
   -1.0175    0.1090    0.6728 C   0  0  0  0  0  0  0  0  0  0  0  0
   -0.9823    1.2732    1.3593 N   0  0  0  0  0  0  0  0  0  0  0  0
   -2.1864    1.9152    1.0961 O   0  0  0  0  0  0  0  0  0  0  0  0
   -2.9138    1.1411    0.2660 C   0  0  0  0  0  0  0  0  0  0  0  0
   -2.2402   -0.0132   -0.0318 C   0  0  0  0  0  0  0  0  0  0  0  0
   -2.7962   -1.0500   -0.9348 C   0  0  0  0  0  0  0  0  0  0  0  0
   -4.3134   -0.8298   -1.1432 C   0  0  0  0  0  0  0  0  0  0  0  0
   -4.6788    0.6562   -1.3655 C   0  0  0  0  0  0  0  0  0  0  0  0
   -4.2566    1.5555   -0.1832 C   0  0  0  0  0  0  0  0  0  0  0  0
    1.0916    0.5172    1.8754 H   0  0  0  0  0  0  0  0  0  0  0  0
    2.7926   -1.0526    2.5653 H   0  0  0  0  0  0  0  0  0  0  0  0
    2.2734   -2.1819    1.3141 H   0  0  0  0  0  0  0  0  0  0  0  0
    2.7370   -1.6836   -1.1165 H   0  0  0  0  0  0  0  0  0  0  0  0
    4.3418   -0.6463   -2.7049 H   0  0  0  0  0  0  0  0  0  0  0  0
    5.8579    1.8628    0.4173 H   0  0  0  0  0  0  0  0  0  0  0  0
    4.2700    0.8472    2.0325 H   0  0  0  0  0  0  0  0  0  0  0  0
   -2.2856   -0.9900   -1.9033 H   0  0  0  0  0  0  0  0  0  0  0  0
   -2.6264   -2.0537   -0.5309 H   0  0  0  0  0  0  0  0  0  0  0  0
   -4.6530   -1.4283   -1.9960 H   0  0  0  0  0  0  0  0  0  0  0  0
   -4.8553   -1.1948   -0.2609 H   0  0  0  0  0  0  0  0  0  0  0  0
   -4.1821    1.0046   -2.2806 H   0  0  0  0  0  0  0  0  0  0  0  0
   -5.7575    0.7551   -1.5314 H   0  0  0  0  0  0  0  0  0  0  0  0
   -4.9674    1.4352    0.6421 H   0  0  0  0  0  0  0  0  0  0  0  0
   -4.2674    2.6069   -0.4878 H   0  0  0  0  0  0  0  0  0  0  0  0
  1  2  2  0
  2  3  1  0
  3  4  1  0
  4  5  1  0
  5  6  2  0
  6  7  1  0
  7  8  2  0
  8  9  1  0
  8 10  1  0
 10 11  2  0
  2 12  1  0
 12 13  2  0
 13 14  1  0
 14 15  1  0
 15 16  2  0
 16 17  1  0
 17 18  1  0
 18 19  1  0
 19 20  1  0
 11  5  1  0
 16 12  1  0
 20 15  1  0
  3 21  1  0
  4 22  1  0
  4 23  1  0
  6 24  1  0
  7 25  1  0
 10 26  1  0
 11 27  1  0
 17 28  1  0
 17 29  1  0
 18 30  1  0
 18 31  1  0
 19 32  1  0
 19 33  1  0
 20 34  1  0
 20 35  1  0
M  END
$$$$
