
     RDKit          3D

 54 55  0  0  0  0  0  0  0  0999 V2000
    0.1011   -3.4633   -1.3900 C   0  0  0  0  0  0  0  0  0  0  0  0
   -0.8378   -2.5688   -0.8056 O   0  0  0  0  0  0  0  0  0  0  0  0
   -0.3474   -1.5218   -0.0708 C   0  0  0  0  0  0  0  0  0  0  0  0
    1.0139   -1.2576    0.1177 C   0  0  0  0  0  0  0  0  0  0  0  0
    1.4448   -0.1790    0.9118 C   0  0  0  0  0  0  0  0  0  0  0  0
    2.9234    0.0778    1.1024 C   0  0  0  0  0  0  0  0  0  0  0  0
    3.5267    0.3704   -0.1899 N   0  0  0  0  0  0  0  0  0  0  0  0
    4.8865    0.6797   -0.2746 C   0  0  0  0  0  0  0  0  0  0  0  0
    5.3625    1.2637   -1.4583 C   0  0  0  0  0  0  0  0  0  0  0  0
    6.7228    1.5338   -1.6454 C   0  0  0  0  0  0  0  0  0  0  0  0
    7.6453    1.1973   -0.6535 C   0  0  0  0  0  0  0  0  0  0  0  0
    9.0785    1.4936   -0.8903 C   0  0  0  0  0  0  0  0  0  0  0  0
    9.5441    2.0181   -1.8844 O   0  0  0  0  0  0  0  0  0  0  0  0
    9.8656    1.1177    0.1328 O   0  0  0  0  0  0  0  0  0  0  0  0
    7.1944    0.5814    0.5164 C   0  0  0  0  0  0  0  0  0  0  0  0
    5.8294    0.3144    0.6931 C   0  0  0  0  0  0  0  0  0  0  0  0
    0.4898    0.6370    1.5279 C   0  0  0  0  0  0  0  0  0  0  0  0
   -0.8707    0.3825    1.3459 C   0  0  0  0  0  0  0  0  0  0  0  0
   -2.1171    1.5243    2.2119 Br  0  0  0  0  0  0  0  0  0  0  0  0
   -1.2946   -0.6780    0.5345 C   0  0  0  0  0  0  0  0  0  0  0  0
   -2.6468   -0.8965    0.4184 O   0  0  0  0  0  0  0  0  0  0  0  0
   -3.1071   -0.8182   -0.9353 C   0  0  0  0  0  0  0  0  0  0  0  0
   -4.4803   -0.1455   -1.0029 C   0  0  0  0  0  0  0  0  0  0  0  0
   -4.9900    0.1713   -2.0739 O   0  0  0  0  0  0  0  0  0  0  0  0
   -5.0718    0.0480    0.2280 N   0  0  0  0  0  0  0  0  0  0  0  0
   -6.3269    0.7691    0.4701 C   0  0  0  0  0  0  0  0  0  0  0  0
   -6.1956    2.2394    0.0454 C   0  0  0  0  0  0  0  0  0  0  0  0
   -7.5020    0.1075   -0.2698 C   0  0  0  0  0  0  0  0  0  0  0  0
   -6.6200    0.7193    1.9807 C   0  0  0  0  0  0  0  0  0  0  0  0
    0.7069   -3.9568   -0.6227 H   0  0  0  0  0  0  0  0  0  0  0  0
   -0.4613   -4.2388   -1.9192 H   0  0  0  0  0  0  0  0  0  0  0  0
    0.7300   -2.9497   -2.1247 H   0  0  0  0  0  0  0  0  0  0  0  0
    1.7786   -1.8768   -0.3445 H   0  0  0  0  0  0  0  0  0  0  0  0
    3.3636   -0.8183    1.5555 H   0  0  0  0  0  0  0  0  0  0  0  0
    3.0767    0.9180    1.7904 H   0  0  0  0  0  0  0  0  0  0  0  0
    2.9592    1.0060   -0.7466 H   0  0  0  0  0  0  0  0  0  0  0  0
    4.6694    1.5136   -2.2584 H   0  0  0  0  0  0  0  0  0  0  0  0
    7.0552    1.9971   -2.5720 H   0  0  0  0  0  0  0  0  0  0  0  0
   10.7663    1.3674   -0.1618 H   0  0  0  0  0  0  0  0  0  0  0  0
    7.8947    0.2920    1.2958 H   0  0  0  0  0  0  0  0  0  0  0  0
    5.5303   -0.1904    1.6065 H   0  0  0  0  0  0  0  0  0  0  0  0
    0.8062    1.4702    2.1511 H   0  0  0  0  0  0  0  0  0  0  0  0
   -2.4313   -0.2310   -1.5678 H   0  0  0  0  0  0  0  0  0  0  0  0
   -3.2223   -1.8301   -1.3342 H   0  0  0  0  0  0  0  0  0  0  0  0
   -4.4591   -0.1295    1.0196 H   0  0  0  0  0  0  0  0  0  0  0  0
   -7.0994    2.8058    0.2944 H   0  0  0  0  0  0  0  0  0  0  0  0
   -5.3480    2.7198    0.5470 H   0  0  0  0  0  0  0  0  0  0  0  0
   -6.0334    2.3379   -1.0333 H   0  0  0  0  0  0  0  0  0  0  0  0
   -7.3951    0.1714   -1.3563 H   0  0  0  0  0  0  0  0  0  0  0  0
   -8.4517    0.5885   -0.0111 H   0  0  0  0  0  0  0  0  0  0  0  0
   -7.5809   -0.9532   -0.0131 H   0  0  0  0  0  0  0  0  0  0  0  0
   -5.8118    1.1851    2.5564 H   0  0  0  0  0  0  0  0  0  0  0  0
   -6.7131   -0.3153    2.3302 H   0  0  0  0  0  0  0  0  0  0  0  0
   -7.5504    1.2430    2.2264 H   0  0  0  0  0  0  0  0  0  0  0  0
  1  2  1  0
  2  3  1  0
  3  4  2  0
  4  5  1  0
  5  6  1  0
  6  7  1  0
  7  8  1  0
  8  9  2  0
  9 10  1  0
 10 11  2  0
 11 12  1  0
 12 13  2  0
 12 14  1  0
 11 15  1  0
 15 16  2  0
  5 17  2  0
 17 18  1  0
 18 19  1  0
 18 20  2  0
 20 21  1  0
 21 22  1  0
 22 23  1  0
 23 24  2  0
 23 25  1  0
 25 26  1  0
 26 27  1  0
 26 28  1  0
 26 29  1  0
 20  3  1  0
 16  8  1  0
  1 30  1  0
  1 31  1  0
  1 32  1  0
  4 33  1  0
  6 34  1  0
  6 35  1  0
  7 36  1  0
  9 37  1  0
 10 38  1  0
 14 39  1  0
 15 40  1  0
 16 41  1  0
 17 42  1  0
 22 43  1  0
 22 44  1  0
 25 45  1  0
 27 46  1  0
 27 47  1  0
 27 48  1  0
 28 49  1  0
 28 50  1  0
 28 51  1  0
 29 52  1  0
 29 53  1  0
 29 54  1  0
M  END
$$$$
