
     RDKit          3D

 64 67  0  0  0  0  0  0  0  0999 V2000
   10.5728   -2.5292    0.7874 C   0  0  0  0  0  0  0  0  0  0  0  0
   10.2529   -1.4061   -0.1860 C   0  0  0  0  0  0  0  0  0  0  0  0
    8.7820   -1.0833   -0.2165 C   0  0  0  0  0  0  0  0  0  0  0  0
    8.2345   -0.1741    0.6944 C   0  0  0  0  0  0  0  0  0  0  0  0
    6.8688    0.1273    0.6621 C   0  0  0  0  0  0  0  0  0  0  0  0
    6.0197   -0.4696   -0.2814 C   0  0  0  0  0  0  0  0  0  0  0  0
    4.5904   -0.1300   -0.3197 C   0  0  0  0  0  0  0  0  0  0  0  0
    3.5773   -0.6799   -1.1594 C   0  0  0  0  0  0  0  0  0  0  0  0
    2.4192   -0.0286   -0.8127 C   0  0  0  0  0  0  0  0  0  0  0  0
    1.0662   -0.1017   -1.2691 C   0  0  0  0  0  0  0  0  0  0  0  0
    0.7130   -0.8421   -2.1846 O   0  0  0  0  0  0  0  0  0  0  0  0
    0.1904    0.7690   -0.5944 N   0  0  0  0  0  0  0  0  0  0  0  0
   -1.2308    0.7040   -0.9048 C   0  0  0  0  0  0  0  0  0  0  0  0
   -1.9084   -0.4316   -0.1327 C   0  0  0  0  0  0  0  0  0  0  0  0
   -1.3066   -1.2780    0.5221 O   0  0  0  0  0  0  0  0  0  0  0  0
   -3.2801   -0.4357   -0.2683 N   0  0  0  0  0  0  0  0  0  0  0  0
   -4.1211   -1.3739    0.4516 C   0  0  0  0  0  0  0  0  0  0  0  0
   -5.5283   -1.4296   -0.1668 C   0  0  0  0  0  0  0  0  0  0  0  0
   -6.1520   -0.0902   -0.2913 N   0  0  0  0  0  0  0  0  0  0  0  0
   -7.2146   -0.1279   -1.3095 C   0  0  0  0  0  0  0  0  0  0  0  0
   -7.9866    1.1875   -1.3627 C   0  0  0  0  0  0  0  0  0  0  0  0
   -8.6838    1.4875   -0.0377 C   0  0  0  0  0  0  0  0  0  0  0  0
   -8.1197    0.6569    1.1121 C   0  0  0  0  0  0  0  0  0  0  0  0
   -6.5983    0.4418    1.0160 C   0  0  0  0  0  0  0  0  0  0  0  0
   -5.8417    1.7468    1.2924 C   0  0  0  0  0  0  0  0  0  0  0  0
    0.5708    1.6681    0.4105 N   0  0  0  0  0  0  0  0  0  0  0  0
    1.8217    1.6826    0.7673 C   0  0  0  0  0  0  0  0  0  0  0  0
    2.3545    2.5985    1.8205 C   0  0  0  0  0  0  0  0  0  0  0  0
    2.7542    0.8385    0.1746 N   0  0  0  0  0  0  0  0  0  0  0  0
    4.0667    0.8098    0.4922 N   0  0  0  0  0  0  0  0  0  0  0  0
    6.5734   -1.3899   -1.1830 C   0  0  0  0  0  0  0  0  0  0  0  0
    7.9378   -1.6985   -1.1468 C   0  0  0  0  0  0  0  0  0  0  0  0
   10.2960   -2.2546    1.8096 H   0  0  0  0  0  0  0  0  0  0  0  0
   10.0390   -3.4488    0.5262 H   0  0  0  0  0  0  0  0  0  0  0  0
   11.6445   -2.7459    0.7757 H   0  0  0  0  0  0  0  0  0  0  0  0
   10.8150   -0.5043    0.0875 H   0  0  0  0  0  0  0  0  0  0  0  0
   10.5934   -1.6823   -1.1925 H   0  0  0  0  0  0  0  0  0  0  0  0
    8.8665    0.3137    1.4340 H   0  0  0  0  0  0  0  0  0  0  0  0
    6.4746    0.8381    1.3860 H   0  0  0  0  0  0  0  0  0  0  0  0
    3.6695   -1.4465   -1.9158 H   0  0  0  0  0  0  0  0  0  0  0  0
   -1.3694    0.5256   -1.9769 H   0  0  0  0  0  0  0  0  0  0  0  0
   -1.6969    1.6596   -0.6395 H   0  0  0  0  0  0  0  0  0  0  0  0
   -3.7559    0.3742   -0.6465 H   0  0  0  0  0  0  0  0  0  0  0  0
   -4.1526   -1.0496    1.4978 H   0  0  0  0  0  0  0  0  0  0  0  0
   -3.6593   -2.3662    0.4254 H   0  0  0  0  0  0  0  0  0  0  0  0
   -6.1718   -2.1112    0.4023 H   0  0  0  0  0  0  0  0  0  0  0  0
   -5.4114   -1.8652   -1.1674 H   0  0  0  0  0  0  0  0  0  0  0  0
   -7.9128   -0.9556   -1.1249 H   0  0  0  0  0  0  0  0  0  0  0  0
   -6.7600   -0.3035   -2.2926 H   0  0  0  0  0  0  0  0  0  0  0  0
   -8.7252    1.1596   -2.1739 H   0  0  0  0  0  0  0  0  0  0  0  0
   -7.2992    2.0071   -1.6048 H   0  0  0  0  0  0  0  0  0  0  0  0
   -8.5991    2.5586    0.1889 H   0  0  0  0  0  0  0  0  0  0  0  0
   -9.7584    1.2803   -0.1255 H   0  0  0  0  0  0  0  0  0  0  0  0
   -8.3829    1.1276    2.0667 H   0  0  0  0  0  0  0  0  0  0  0  0
   -8.6152   -0.3235    1.1146 H   0  0  0  0  0  0  0  0  0  0  0  0
   -6.3332   -0.2488    1.8266 H   0  0  0  0  0  0  0  0  0  0  0  0
   -6.1231    2.1489    2.2712 H   0  0  0  0  0  0  0  0  0  0  0  0
   -6.0536    2.5186    0.5444 H   0  0  0  0  0  0  0  0  0  0  0  0
   -4.7603    1.5794    1.3112 H   0  0  0  0  0  0  0  0  0  0  0  0
    2.7894    2.0218    2.6419 H   0  0  0  0  0  0  0  0  0  0  0  0
    1.5453    3.2157    2.2220 H   0  0  0  0  0  0  0  0  0  0  0  0
    3.1142    3.2595    1.3945 H   0  0  0  0  0  0  0  0  0  0  0  0
    5.9593   -1.8819   -1.9318 H   0  0  0  0  0  0  0  0  0  0  0  0
    8.3391   -2.4188   -1.8571 H   0  0  0  0  0  0  0  0  0  0  0  0
  1  2  1  0
  2  3  1  0
  3  4  2  0
  4  5  1  0
  5  6  2  0
  6  7  1  0
  7  8  1  0
  8  9  2  0
  9 10  1  0
 10 11  2  0
 10 12  1  0
 12 13  1  0
 13 14  1  0
 14 15  2  0
 14 16  1  0
 16 17  1  0
 17 18  1  0
 18 19  1  0
 19 20  1  0
 20 21  1  0
 21 22  1  0
 22 23  1  0
 23 24  1  0
 24 25  1  0
 12 26  1  0
 26 27  2  0
 27 28  1  0
 27 29  1  0
 29 30  1  0
  6 31  1  0
 31 32  2  0
 32  3  1  0
 30  7  2  0
 29  9  1  0
 24 19  1  0
  1 33  1  0
  1 34  1  0
  1 35  1  0
  2 36  1  0
  2 37  1  0
  4 38  1  0
  5 39  1  0
  8 40  1  0
 13 41  1  0
 13 42  1  0
 16 43  1  0
 17 44  1  0
 17 45  1  0
 18 46  1  0
 18 47  1  0
 20 48  1  0
 20 49  1  0
 21 50  1  0
 21 51  1  0
 22 52  1  0
 22 53  1  0
 23 54  1  0
 23 55  1  0
 24 56  1  0
 25 57  1  0
 25 58  1  0
 25 59  1  0
 28 60  1  0
 28 61  1  0
 28 62  1  0
 31 63  1  0
 32 64  1  0
M  END
$$$$
