
     RDKit          3D

 33 33  0  0  0  0  0  0  0  0999 V2000
    3.0388    1.9591   -2.5633 C   0  0  0  0  0  0  0  0  0  0  0  0
    3.4903    1.0508   -1.6880 C   0  0  0  0  0  0  0  0  0  0  0  0
    3.8977    1.3616   -0.2835 C   0  0  0  0  0  0  0  0  0  0  0  0
    2.9016    0.7909    0.6005 N   0  0  0  0  0  0  0  0  0  0  0  0
    2.8708    0.9560    1.9644 C   0  0  0  0  0  0  0  0  0  0  0  0
    3.8854    1.9130    2.8757 S   0  0  0  0  0  0  0  0  0  0  0  0
    1.8658    0.2542    2.5862 N   0  0  0  0  0  0  0  0  0  0  0  0
    0.7680   -0.2383    1.8599 N   0  0  0  0  0  0  0  0  0  0  0  0
   -0.3111   -0.7055    2.5930 C   0  0  0  0  0  0  0  0  0  0  0  0
   -0.2694   -0.9095    3.8054 O   0  0  0  0  0  0  0  0  0  0  0  0
   -1.5639   -0.9698    1.7621 C   0  0  0  0  0  0  0  0  0  0  0  0
   -1.4140   -0.4247    0.4544 O   0  0  0  0  0  0  0  0  0  0  0  0
   -2.3765   -0.7221   -0.4728 C   0  0  0  0  0  0  0  0  0  0  0  0
   -3.6282   -1.2649   -0.1670 C   0  0  0  0  0  0  0  0  0  0  0  0
   -4.5513   -1.5215   -1.1868 C   0  0  0  0  0  0  0  0  0  0  0  0
   -4.2286   -1.2334   -2.5115 C   0  0  0  0  0  0  0  0  0  0  0  0
   -5.3713   -1.5534   -3.7564 Cl  0  0  0  0  0  0  0  0  0  0  0  0
   -2.9905   -0.6876   -2.8327 C   0  0  0  0  0  0  0  0  0  0  0  0
   -2.0705   -0.4316   -1.8143 C   0  0  0  0  0  0  0  0  0  0  0  0
   -0.5368    0.2395   -2.2523 Cl  0  0  0  0  0  0  0  0  0  0  0  0
    2.7645    1.6704   -3.5733 H   0  0  0  0  0  0  0  0  0  0  0  0
    2.9222    3.0040   -2.2914 H   0  0  0  0  0  0  0  0  0  0  0  0
    3.5930    0.0178   -2.0120 H   0  0  0  0  0  0  0  0  0  0  0  0
    3.9654    2.4401   -0.1065 H   0  0  0  0  0  0  0  0  0  0  0  0
    4.8702    0.9100   -0.0617 H   0  0  0  0  0  0  0  0  0  0  0  0
    2.4935   -0.0853    0.3030 H   0  0  0  0  0  0  0  0  0  0  0  0
    1.7325    0.3652    3.5927 H   0  0  0  0  0  0  0  0  0  0  0  0
    0.5457    0.2515    0.9911 H   0  0  0  0  0  0  0  0  0  0  0  0
   -2.4016   -0.4833    2.2738 H   0  0  0  0  0  0  0  0  0  0  0  0
   -1.7012   -2.0563    1.7178 H   0  0  0  0  0  0  0  0  0  0  0  0
   -3.9250   -1.4912    0.8525 H   0  0  0  0  0  0  0  0  0  0  0  0
   -5.5231   -1.9431   -0.9390 H   0  0  0  0  0  0  0  0  0  0  0  0
   -2.7423   -0.4627   -3.8663 H   0  0  0  0  0  0  0  0  0  0  0  0
  1  2  2  0
  2  3  1  0
  3  4  1  0
  4  5  1  0
  5  6  2  0
  5  7  1  0
  7  8  1  0
  8  9  1  0
  9 10  2  0
  9 11  1  0
 11 12  1  0
 12 13  1  0
 13 14  2  0
 14 15  1  0
 15 16  2  0
 16 17  1  0
 16 18  1  0
 18 19  2  0
 19 20  1  0
 19 13  1  0
  1 21  1  0
  1 22  1  0
  2 23  1  0
  3 24  1  0
  3 25  1  0
  4 26  1  0
  7 27  1  0
  8 28  1  0
 11 29  1  0
 11 30  1  0
 14 31  1  0
 15 32  1  0
 18 33  1  0
M  END
$$$$
