
     RDKit          3D

 46 49  0  0  0  0  0  0  0  0999 V2000
    6.5241   -0.8972    1.2733 N   0  0  0  0  0  0  0  0  0  0  0  0
    5.8544    0.6388    1.4568 S   0  0  0  0  0  6  0  0  0  0  0  0
    6.4945    1.4568    0.4518 O   0  0  0  0  0  0  0  0  0  0  0  0
    5.8772    0.9710    2.8609 O   0  0  0  0  0  0  0  0  0  0  0  0
    4.1764    0.3507    0.9710 C   0  0  0  0  0  0  0  0  0  0  0  0
    3.7453    0.7026   -0.3060 C   0  0  0  0  0  0  0  0  0  0  0  0
    2.4161    0.4617   -0.6767 C   0  0  0  0  0  0  0  0  0  0  0  0
    1.4948   -0.1236    0.2088 C   0  0  0  0  0  0  0  0  0  0  0  0
    0.1701   -0.3719   -0.1453 N   0  0  0  0  0  0  0  0  0  0  0  0
   -0.6838   -0.9830    0.7282 N   0  0  0  0  0  0  0  0  0  0  0  0
   -1.7877   -1.2198    0.0862 C   0  0  0  0  0  0  0  0  0  0  0  0
   -2.9693   -1.8563    0.7141 C   0  0  0  0  0  0  0  0  0  0  0  0
   -4.1066   -2.1858   -0.0319 C   0  0  0  0  0  0  0  0  0  0  0  0
   -5.2037   -2.7850    0.5931 C   0  0  0  0  0  0  0  0  0  0  0  0
   -5.1692   -3.0574    1.9602 C   0  0  0  0  0  0  0  0  0  0  0  0
   -4.0384   -2.7327    2.7071 C   0  0  0  0  0  0  0  0  0  0  0  0
   -2.9404   -2.1341    2.0866 C   0  0  0  0  0  0  0  0  0  0  0  0
   -1.7753   -0.8315   -1.3665 C   0  0  0  0  0  0  0  0  0  0  0  0
   -0.4511   -0.0685   -1.4372 C   0  0  0  0  0  0  0  0  0  0  0  0
   -0.6921    1.4164   -1.6660 C   0  0  0  0  0  0  0  0  0  0  0  0
   -0.6334    1.9322   -2.9720 C   0  0  0  0  0  0  0  0  0  0  0  0
   -0.8738    3.2859   -3.2153 C   0  0  0  0  0  0  0  0  0  0  0  0
   -1.1817    4.1410   -2.1597 C   0  0  0  0  0  0  0  0  0  0  0  0
   -1.2520    3.6441   -0.8605 C   0  0  0  0  0  0  0  0  0  0  0  0
   -1.0131    2.2910   -0.6150 C   0  0  0  0  0  0  0  0  0  0  0  0
    1.9670   -0.4517    1.4944 C   0  0  0  0  0  0  0  0  0  0  0  0
    3.2899   -0.2168    1.8825 C   0  0  0  0  0  0  0  0  0  0  0  0
    7.2249   -0.8617    0.5313 H   0  0  0  0  0  0  0  0  0  0  0  0
    5.8248   -1.6194    1.1034 H   0  0  0  0  0  0  0  0  0  0  0  0
    4.4233    1.1682   -1.0178 H   0  0  0  0  0  0  0  0  0  0  0  0
    2.1138    0.7558   -1.6777 H   0  0  0  0  0  0  0  0  0  0  0  0
   -4.1639   -1.9900   -1.0981 H   0  0  0  0  0  0  0  0  0  0  0  0
   -6.0874   -3.0403    0.0130 H   0  0  0  0  0  0  0  0  0  0  0  0
   -6.0241   -3.5233    2.4443 H   0  0  0  0  0  0  0  0  0  0  0  0
   -4.0093   -2.9443    3.7732 H   0  0  0  0  0  0  0  0  0  0  0  0
   -2.0638   -1.8846    2.6811 H   0  0  0  0  0  0  0  0  0  0  0  0
   -2.6510   -0.2372   -1.6412 H   0  0  0  0  0  0  0  0  0  0  0  0
   -1.7358   -1.7425   -1.9733 H   0  0  0  0  0  0  0  0  0  0  0  0
    0.1578   -0.4761   -2.2544 H   0  0  0  0  0  0  0  0  0  0  0  0
   -0.3971    1.2828   -3.8122 H   0  0  0  0  0  0  0  0  0  0  0  0
   -0.8201    3.6750   -4.2290 H   0  0  0  0  0  0  0  0  0  0  0  0
   -1.3656    5.1955   -2.3481 H   0  0  0  0  0  0  0  0  0  0  0  0
   -1.4893    4.3094   -0.0343 H   0  0  0  0  0  0  0  0  0  0  0  0
   -1.0686    1.9228    0.4087 H   0  0  0  0  0  0  0  0  0  0  0  0
    1.2843   -0.8944    2.2178 H   0  0  0  0  0  0  0  0  0  0  0  0
    3.6089   -0.4727    2.8905 H   0  0  0  0  0  0  0  0  0  0  0  0
  1  2  1  0
  2  3  2  0
  2  4  2  0
  2  5  1  0
  5  6  2  0
  6  7  1  0
  7  8  2  0
  8  9  1  0
  9 10  1  0
 10 11  2  0
 11 12  1  0
 12 13  2  0
 13 14  1  0
 14 15  2  0
 15 16  1  0
 16 17  2  0
 11 18  1  0
 18 19  1  0
 19 20  1  0
 20 21  2  0
 21 22  1  0
 22 23  2  0
 23 24  1  0
 24 25  2  0
  8 26  1  0
 26 27  2  0
 27  5  1  0
 19  9  1  0
 25 20  1  0
 17 12  1  0
  1 28  1  0
  1 29  1  0
  6 30  1  0
  7 31  1  0
 13 32  1  0
 14 33  1  0
 15 34  1  0
 16 35  1  0
 17 36  1  0
 18 37  1  0
 18 38  1  0
 19 39  1  0
 21 40  1  0
 22 41  1  0
 23 42  1  0
 24 43  1  0
 25 44  1  0
 26 45  1  0
 27 46  1  0
M  END
$$$$
