
     RDKit          3D

 33 34  0  0  0  0  0  0  0  0999 V2000
    6.8510   -0.9643    0.7889 C   0  0  0  0  0  0  0  0  0  0  0  0
    5.7204   -0.5667   -0.1495 C   0  0  0  0  0  0  0  0  0  0  0  0
    5.4971    0.9450   -0.1297 C   0  0  0  0  0  0  0  0  0  0  0  0
    4.1856    1.4471   -1.2837 S   0  0  0  0  0  0  0  0  0  0  0  0
    2.7441    0.9966   -0.4020 C   0  0  0  0  0  0  0  0  0  0  0  0
    2.7594    0.6113    0.8564 N   0  0  0  0  0  0  0  0  0  0  0  0
    1.4920    0.3131    1.3179 N   0  0  0  0  0  0  0  0  0  0  0  0
    0.5766    0.4760    0.3871 C   0  0  0  0  0  0  0  0  0  0  0  0
   -0.7534    0.2424    0.6362 N   0  0  0  0  0  0  0  0  0  0  0  0
   -1.7833    0.2536   -0.2831 C   0  0  0  0  0  0  0  0  0  0  0  0
   -1.6495    0.4368   -1.4852 O   0  0  0  0  0  0  0  0  0  0  0  0
   -2.9975    0.0264    0.3530 N   0  0  0  0  0  0  0  0  0  0  0  0
   -4.2743   -0.0930   -0.2374 C   0  0  0  0  0  0  0  0  0  0  0  0
   -4.5071   -0.0886   -1.6144 C   0  0  0  0  0  0  0  0  0  0  0  0
   -5.8072   -0.2171   -2.1149 C   0  0  0  0  0  0  0  0  0  0  0  0
   -6.8849   -0.3549   -1.2438 C   0  0  0  0  0  0  0  0  0  0  0  0
   -6.6647   -0.3643    0.1314 C   0  0  0  0  0  0  0  0  0  0  0  0
   -5.3662   -0.2356    0.6313 C   0  0  0  0  0  0  0  0  0  0  0  0
    1.1821    1.0333   -1.1036 S   0  0  0  0  0  0  0  0  0  0  0  0
    6.6225   -0.6805    1.8214 H   0  0  0  0  0  0  0  0  0  0  0  0
    7.7895   -0.4812    0.4986 H   0  0  0  0  0  0  0  0  0  0  0  0
    7.0026   -2.0482    0.7596 H   0  0  0  0  0  0  0  0  0  0  0  0
    5.9712   -0.8996   -1.1638 H   0  0  0  0  0  0  0  0  0  0  0  0
    4.8131   -1.1005    0.1542 H   0  0  0  0  0  0  0  0  0  0  0  0
    5.2733    1.3031    0.8812 H   0  0  0  0  0  0  0  0  0  0  0  0
    6.4148    1.4514   -0.4485 H   0  0  0  0  0  0  0  0  0  0  0  0
   -0.9286   -0.0934    1.5688 H   0  0  0  0  0  0  0  0  0  0  0  0
   -2.9843    0.0196    1.3614 H   0  0  0  0  0  0  0  0  0  0  0  0
   -3.6993    0.0090   -2.3333 H   0  0  0  0  0  0  0  0  0  0  0  0
   -5.9726   -0.2070   -3.1894 H   0  0  0  0  0  0  0  0  0  0  0  0
   -7.8934   -0.4530   -1.6368 H   0  0  0  0  0  0  0  0  0  0  0  0
   -7.5031   -0.4705    0.8157 H   0  0  0  0  0  0  0  0  0  0  0  0
   -5.2257   -0.2465    1.7098 H   0  0  0  0  0  0  0  0  0  0  0  0
  1  2  1  0
  2  3  1  0
  3  4  1  0
  4  5  1  0
  5  6  2  0
  6  7  1  0
  7  8  2  0
  8  9  1  0
  9 10  1  0
 10 11  2  0
 10 12  1  0
 12 13  1  0
 13 14  2  0
 14 15  1  0
 15 16  2  0
 16 17  1  0
 17 18  2  0
  8 19  1  0
 19  5  1  0
 18 13  1  0
  1 20  1  0
  1 21  1  0
  1 22  1  0
  2 23  1  0
  2 24  1  0
  3 25  1  0
  3 26  1  0
  9 27  1  0
 12 28  1  0
 14 29  1  0
 15 30  1  0
 16 31  1  0
 17 32  1  0
 18 33  1  0
M  END
$$$$
