
     RDKit          3D

 39 42  0  0  0  0  0  0  0  0999 V2000
    4.4779   -3.2988   -1.8798 C   0  0  0  0  0  0  0  0  0  0  0  0
    3.7791   -2.1234   -1.4678 O   0  0  0  0  0  0  0  0  0  0  0  0
    4.3774   -1.4570   -0.4484 C   0  0  0  0  0  0  0  0  0  0  0  0
    5.4203   -1.7791    0.0990 O   0  0  0  0  0  0  0  0  0  0  0  0
    3.5876   -0.2531   -0.0710 C   0  0  0  0  0  0  0  0  0  0  0  0
    4.0476    0.5332    0.9925 C   0  0  0  0  0  0  0  0  0  0  0  0
    3.3415    1.6729    1.3866 C   0  0  0  0  0  0  0  0  0  0  0  0
    2.1650    2.0474    0.7216 C   0  0  0  0  0  0  0  0  0  0  0  0
    1.3922    3.2694    1.1575 C   0  0  0  0  0  0  0  0  0  0  0  0
    0.4479    3.0115    2.6862 S   0  0  0  0  0  0  0  0  0  0  0  0
   -0.7747    1.8775    2.0706 C   0  0  0  0  0  0  0  0  0  0  0  0
   -0.9308    0.7176    2.7649 N   0  0  0  0  0  0  0  0  0  0  0  0
   -1.8263   -0.1966    2.3844 N   0  0  0  0  0  0  0  0  0  0  0  0
   -2.5648    0.1081    1.2901 C   0  0  0  0  0  0  0  0  0  0  0  0
   -2.3640    1.3102    0.6363 C   0  0  0  0  0  0  0  0  0  0  0  0
   -1.4719    2.2569    0.9735 N   0  0  0  0  0  0  0  0  0  0  0  0
   -3.2357    1.3644   -0.4132 N   0  0  0  0  0  0  0  0  0  0  0  0
   -3.9938    0.2127   -0.4623 C   0  0  0  0  0  0  0  0  0  0  0  0
   -4.9984   -0.1700   -1.3585 C   0  0  0  0  0  0  0  0  0  0  0  0
   -5.6039   -1.4146   -1.1577 C   0  0  0  0  0  0  0  0  0  0  0  0
   -5.2208   -2.2418   -0.1036 C   0  0  0  0  0  0  0  0  0  0  0  0
   -4.2154   -1.8463    0.7855 C   0  0  0  0  0  0  0  0  0  0  0  0
   -3.5884   -0.5974    0.6057 C   0  0  0  0  0  0  0  0  0  0  0  0
    1.7083    1.2576   -0.3436 C   0  0  0  0  0  0  0  0  0  0  0  0
    2.4124    0.1156   -0.7375 C   0  0  0  0  0  0  0  0  0  0  0  0
    5.4752   -3.0419   -2.2502 H   0  0  0  0  0  0  0  0  0  0  0  0
    4.5422   -4.0160   -1.0554 H   0  0  0  0  0  0  0  0  0  0  0  0
    3.9139   -3.7594   -2.6956 H   0  0  0  0  0  0  0  0  0  0  0  0
    4.9568    0.2581    1.5246 H   0  0  0  0  0  0  0  0  0  0  0  0
    3.7130    2.2625    2.2230 H   0  0  0  0  0  0  0  0  0  0  0  0
    2.1024    4.0854    1.3365 H   0  0  0  0  0  0  0  0  0  0  0  0
    0.7336    3.6232    0.3561 H   0  0  0  0  0  0  0  0  0  0  0  0
   -3.3074    2.1416   -1.0526 H   0  0  0  0  0  0  0  0  0  0  0  0
   -5.3042    0.4687   -2.1814 H   0  0  0  0  0  0  0  0  0  0  0  0
   -6.3890   -1.7424   -1.8363 H   0  0  0  0  0  0  0  0  0  0  0  0
   -5.7074   -3.2051    0.0322 H   0  0  0  0  0  0  0  0  0  0  0  0
   -3.9208   -2.4947    1.6067 H   0  0  0  0  0  0  0  0  0  0  0  0
    0.7941    1.5215   -0.8723 H   0  0  0  0  0  0  0  0  0  0  0  0
    2.0291   -0.4781   -1.5637 H   0  0  0  0  0  0  0  0  0  0  0  0
  1  2  1  0
  2  3  1  0
  3  4  2  0
  3  5  1  0
  5  6  2  0
  6  7  1  0
  7  8  2  0
  8  9  1  0
  9 10  1  0
 10 11  1  0
 11 12  2  0
 12 13  1  0
 13 14  2  0
 14 15  1  0
 15 16  2  0
 15 17  1  0
 17 18  1  0
 18 19  2  0
 19 20  1  0
 20 21  2  0
 21 22  1  0
 22 23  2  0
  8 24  1  0
 24 25  2  0
 25  5  1  0
 16 11  1  0
 23 18  1  0
 23 14  1  0
  1 26  1  0
  1 27  1  0
  1 28  1  0
  6 29  1  0
  7 30  1  0
  9 31  1  0
  9 32  1  0
 17 33  1  0
 19 34  1  0
 20 35  1  0
 21 36  1  0
 22 37  1  0
 24 38  1  0
 25 39  1  0
M  END
$$$$
