
     RDKit          3D

 58 62  0  0  0  0  0  0  0  0999 V2000
   -5.7469   -3.4893   -0.9072 C   0  0  0  0  0  0  0  0  0  0  0  0
   -4.4783   -3.2698   -0.0819 C   0  0  0  0  0  0  0  0  0  0  0  0
   -4.7849   -3.0360    1.4131 C   0  0  0  0  0  0  0  0  0  0  0  0
   -4.7417   -1.5465    1.5145 C   0  0  0  0  0  0  0  0  0  0  0  0
   -5.1514   -0.7559    2.5777 C   0  0  0  0  0  0  0  0  0  0  0  0
   -4.9913    0.6272    2.4720 C   0  0  0  0  0  0  0  0  0  0  0  0
   -4.4323    1.1948    1.3157 C   0  0  0  0  0  0  0  0  0  0  0  0
   -4.0139    0.3846    0.2570 C   0  0  0  0  0  0  0  0  0  0  0  0
   -4.1563   -0.9859    0.3822 C   0  0  0  0  0  0  0  0  0  0  0  0
   -3.8065   -1.9999   -0.5789 N   0  0  0  0  0  0  0  0  0  0  0  0
   -2.1254   -2.2314   -0.8509 S   0  0  0  0  0  6  0  0  0  0  0  0
   -1.9774   -3.2867   -1.8341 O   0  0  0  0  0  0  0  0  0  0  0  0
   -1.4586   -2.3327    0.4317 O   0  0  0  0  0  0  0  0  0  0  0  0
   -1.5916   -0.7371   -1.6424 C   0  0  0  0  0  0  0  0  0  0  0  0
   -2.0367   -0.4611   -2.9411 C   0  0  0  0  0  0  0  0  0  0  0  0
   -1.6297    0.7121   -3.5760 C   0  0  0  0  0  0  0  0  0  0  0  0
   -0.7704    1.5944   -2.9198 C   0  0  0  0  0  0  0  0  0  0  0  0
   -0.3006    1.2915   -1.6354 C   0  0  0  0  0  0  0  0  0  0  0  0
    0.5961    2.2565   -0.9626 C   0  0  0  0  0  0  0  0  0  0  0  0
    0.2088    3.4186   -0.8637 O   0  0  0  0  0  0  0  0  0  0  0  0
    1.8214    1.8122   -0.4823 N   0  0  0  0  0  0  0  0  0  0  0  0
    2.6684    2.7686    0.2362 C   0  0  0  0  0  0  0  0  0  0  0  0
    3.7468    2.1040    1.1104 C   0  0  0  0  0  0  0  0  0  0  0  0
    4.5240    1.1197    0.3561 N   0  0  0  0  0  0  0  0  0  0  0  0
    5.8793    1.0192    0.5802 C   0  0  0  0  0  0  0  0  0  0  0  0
    6.4009    1.5836    1.6839 N   0  0  0  0  0  0  0  0  0  0  0  0
    7.7253    1.4543    1.8916 C   0  0  0  0  0  0  0  0  0  0  0  0
    8.5630    0.7819    1.0413 C   0  0  0  0  0  0  0  0  0  0  0  0
    7.9520    0.2372   -0.0579 C   0  0  0  0  0  0  0  0  0  0  0  0
    6.6320    0.3416   -0.3053 N   0  0  0  0  0  0  0  0  0  0  0  0
    3.9849    0.6054   -0.8993 C   0  0  0  0  0  0  0  0  0  0  0  0
    2.4481    0.5296   -0.8417 C   0  0  0  0  0  0  0  0  0  0  0  0
   -0.7172    0.1294   -0.9823 C   0  0  0  0  0  0  0  0  0  0  0  0
   -6.2725   -4.3923   -0.5808 H   0  0  0  0  0  0  0  0  0  0  0  0
   -6.4374   -2.6438   -0.8218 H   0  0  0  0  0  0  0  0  0  0  0  0
   -5.4992   -3.6085   -1.9667 H   0  0  0  0  0  0  0  0  0  0  0  0
   -3.8417   -4.1555   -0.1978 H   0  0  0  0  0  0  0  0  0  0  0  0
   -3.9936   -3.4622    2.0382 H   0  0  0  0  0  0  0  0  0  0  0  0
   -5.7517   -3.4511    1.7144 H   0  0  0  0  0  0  0  0  0  0  0  0
   -5.5830   -1.1952    3.4731 H   0  0  0  0  0  0  0  0  0  0  0  0
   -5.3050    1.2721    3.2895 H   0  0  0  0  0  0  0  0  0  0  0  0
   -4.3272    2.2762    1.2413 H   0  0  0  0  0  0  0  0  0  0  0  0
   -3.6168    0.8441   -0.6406 H   0  0  0  0  0  0  0  0  0  0  0  0
   -2.7061   -1.1502   -3.4514 H   0  0  0  0  0  0  0  0  0  0  0  0
   -1.9830    0.9420   -4.5790 H   0  0  0  0  0  0  0  0  0  0  0  0
   -0.4623    2.5176   -3.4068 H   0  0  0  0  0  0  0  0  0  0  0  0
    3.1461    3.3993   -0.5251 H   0  0  0  0  0  0  0  0  0  0  0  0
    2.0393    3.4216    0.8528 H   0  0  0  0  0  0  0  0  0  0  0  0
    4.3686    2.9055    1.5255 H   0  0  0  0  0  0  0  0  0  0  0  0
    3.2665    1.5899    1.9509 H   0  0  0  0  0  0  0  0  0  0  0  0
    8.0987    1.9237    2.7968 H   0  0  0  0  0  0  0  0  0  0  0  0
    9.6236    0.6862    1.2257 H   0  0  0  0  0  0  0  0  0  0  0  0
    8.5176   -0.3201   -0.7989 H   0  0  0  0  0  0  0  0  0  0  0  0
    4.3612   -0.4030   -1.1107 H   0  0  0  0  0  0  0  0  0  0  0  0
    4.2867    1.2621   -1.7248 H   0  0  0  0  0  0  0  0  0  0  0  0
    2.1467   -0.1910   -0.0711 H   0  0  0  0  0  0  0  0  0  0  0  0
    2.0663    0.1796   -1.8063 H   0  0  0  0  0  0  0  0  0  0  0  0
   -0.3819   -0.0812    0.0305 H   0  0  0  0  0  0  0  0  0  0  0  0
  1  2  1  0
  2  3  1  0
  3  4  1  0
  4  5  2  0
  5  6  1  0
  6  7  2  0
  7  8  1  0
  8  9  2  0
  9 10  1  0
 10 11  1  0
 11 12  2  0
 11 13  2  0
 11 14  1  0
 14 15  2  0
 15 16  1  0
 16 17  2  0
 17 18  1  0
 18 19  1  0
 19 20  2  0
 19 21  1  0
 21 22  1  0
 22 23  1  0
 23 24  1  0
 24 25  1  0
 25 26  2  0
 26 27  1  0
 27 28  2  0
 28 29  1  0
 29 30  2  0
 24 31  1  0
 31 32  1  0
 18 33  2  0
 10  2  1  0
 33 14  1  0
  9  4  1  0
 32 21  1  0
 30 25  1  0
  1 34  1  0
  1 35  1  0
  1 36  1  0
  2 37  1  0
  3 38  1  0
  3 39  1  0
  5 40  1  0
  6 41  1  0
  7 42  1  0
  8 43  1  0
 15 44  1  0
 16 45  1  0
 17 46  1  0
 22 47  1  0
 22 48  1  0
 23 49  1  0
 23 50  1  0
 27 51  1  0
 28 52  1  0
 29 53  1  0
 31 54  1  0
 31 55  1  0
 32 56  1  0
 32 57  1  0
 33 58  1  0
M  END
$$$$
