
     RDKit          3D

 52 55  0  0  0  0  0  0  0  0999 V2000
    6.4217    2.2188   -3.1502 C   0  0  0  0  0  0  0  0  0  0  0  0
    6.1957    2.5549   -1.6843 C   0  0  0  0  0  0  0  0  0  0  0  0
    4.9455    1.9058   -1.1468 C   0  0  0  0  0  0  0  0  0  0  0  0
    4.9931    0.6187   -0.5964 C   0  0  0  0  0  0  0  0  0  0  0  0
    3.8323    0.0078   -0.1115 C   0  0  0  0  0  0  0  0  0  0  0  0
    2.6072    0.6783   -0.1776 C   0  0  0  0  0  0  0  0  0  0  0  0
    1.3574    0.0611    0.3248 C   0  0  0  0  0  0  0  0  0  0  0  0
    0.2212    0.6889    0.3654 N   0  0  0  0  0  0  0  0  0  0  0  0
   -0.7074   -0.1837    0.8574 N   0  0  0  0  0  0  0  0  0  0  0  0
   -1.9808    0.2561    1.2157 C   0  0  0  0  0  0  0  0  0  0  0  0
   -2.9475   -0.6008    1.7691 C   0  0  0  0  0  0  0  0  0  0  0  0
   -4.2242   -0.1433    2.1206 C   0  0  0  0  0  0  0  0  0  0  0  0
   -4.5586    1.1936    1.9133 C   0  0  0  0  0  0  0  0  0  0  0  0
   -6.1555    1.7841    2.3833 S   0  0  0  0  0  6  0  0  0  0  0  0
   -7.0315    1.5882    0.9647 N   0  0  0  0  0  0  0  0  0  0  0  0
   -6.0911    3.2080    2.6164 O   0  0  0  0  0  0  0  0  0  0  0  0
   -6.7405    0.8706    3.3376 O   0  0  0  0  0  0  0  0  0  0  0  0
   -3.6234    2.0756    1.3787 C   0  0  0  0  0  0  0  0  0  0  0  0
   -2.3535    1.6014    1.0316 C   0  0  0  0  0  0  0  0  0  0  0  0
   -0.1783   -1.5352    1.0507 C   0  0  0  0  0  0  0  0  0  0  0  0
   -0.7302   -2.5466    0.0538 C   0  0  0  0  0  0  0  0  0  0  0  0
   -1.0451   -2.1910   -1.2706 C   0  0  0  0  0  0  0  0  0  0  0  0
   -1.5277   -3.1443   -2.1685 C   0  0  0  0  0  0  0  0  0  0  0  0
   -1.6910   -4.4581   -1.7502 C   0  0  0  0  0  0  0  0  0  0  0  0
   -2.1523   -5.3737   -2.6119 F   0  0  0  0  0  0  0  0  0  0  0  0
   -1.3798   -4.8380   -0.4506 C   0  0  0  0  0  0  0  0  0  0  0  0
   -0.8976   -3.8862    0.4501 C   0  0  0  0  0  0  0  0  0  0  0  0
    1.3275   -1.3438    0.8601 C   0  0  0  0  0  0  0  0  0  0  0  0
    2.5546    1.9626   -0.7303 C   0  0  0  0  0  0  0  0  0  0  0  0
    3.7154    2.5708   -1.2143 C   0  0  0  0  0  0  0  0  0  0  0  0
    5.5873    2.5641   -3.7699 H   0  0  0  0  0  0  0  0  0  0  0  0
    7.3353    2.7011   -3.5122 H   0  0  0  0  0  0  0  0  0  0  0  0
    6.5261    1.1387   -3.2995 H   0  0  0  0  0  0  0  0  0  0  0  0
    6.1306    3.6427   -1.5590 H   0  0  0  0  0  0  0  0  0  0  0  0
    7.0613    2.2331   -1.0925 H   0  0  0  0  0  0  0  0  0  0  0  0
    5.9387    0.0828   -0.5421 H   0  0  0  0  0  0  0  0  0  0  0  0
    3.9137   -0.9874    0.3138 H   0  0  0  0  0  0  0  0  0  0  0  0
   -2.7294   -1.6511    1.9369 H   0  0  0  0  0  0  0  0  0  0  0  0
   -4.9432   -0.8371    2.5500 H   0  0  0  0  0  0  0  0  0  0  0  0
   -7.3426    2.4969    0.6216 H   0  0  0  0  0  0  0  0  0  0  0  0
   -7.7869    0.9191    1.1129 H   0  0  0  0  0  0  0  0  0  0  0  0
   -3.8641    3.1247    1.2265 H   0  0  0  0  0  0  0  0  0  0  0  0
   -1.6356    2.3026    0.6098 H   0  0  0  0  0  0  0  0  0  0  0  0
   -0.3714   -1.8784    2.0752 H   0  0  0  0  0  0  0  0  0  0  0  0
   -0.9247   -1.1615   -1.6067 H   0  0  0  0  0  0  0  0  0  0  0  0
   -1.7777   -2.8672   -3.1875 H   0  0  0  0  0  0  0  0  0  0  0  0
   -1.5146   -5.8717   -0.1482 H   0  0  0  0  0  0  0  0  0  0  0  0
   -0.6557   -4.1974    1.4643 H   0  0  0  0  0  0  0  0  0  0  0  0
    1.8503   -1.3647    1.8222 H   0  0  0  0  0  0  0  0  0  0  0  0
    1.7863   -2.0567    0.1696 H   0  0  0  0  0  0  0  0  0  0  0  0
    1.6094    2.4987   -0.7901 H   0  0  0  0  0  0  0  0  0  0  0  0
    3.6512    3.5681   -1.6443 H   0  0  0  0  0  0  0  0  0  0  0  0
  1  2  1  0
  2  3  1  0
  3  4  2  0
  4  5  1  0
  5  6  2  0
  6  7  1  0
  7  8  2  0
  8  9  1  0
  9 10  1  0
 10 11  2  0
 11 12  1  0
 12 13  2  0
 13 14  1  0
 14 15  1  0
 14 16  2  0
 14 17  2  0
 13 18  1  0
 18 19  2  0
  9 20  1  0
 20 21  1  0
 21 22  2  0
 22 23  1  0
 23 24  2  0
 24 25  1  0
 24 26  1  0
 26 27  2  0
 20 28  1  0
  6 29  1  0
 29 30  2  0
 30  3  1  0
 28  7  1  0
 19 10  1  0
 27 21  1  0
  1 31  1  0
  1 32  1  0
  1 33  1  0
  2 34  1  0
  2 35  1  0
  4 36  1  0
  5 37  1  0
 11 38  1  0
 12 39  1  0
 15 40  1  0
 15 41  1  0
 18 42  1  0
 19 43  1  0
 20 44  1  0
 22 45  1  0
 23 46  1  0
 26 47  1  0
 27 48  1  0
 28 49  1  0
 28 50  1  0
 29 51  1  0
 30 52  1  0
M  END
$$$$
