
     RDKit          3D

 52 55  0  0  0  0  0  0  0  0999 V2000
    8.6146    1.0085    0.8363 C   0  0  0  0  0  0  0  0  0  0  0  0
    8.2492    0.0587   -0.2912 C   0  0  0  0  0  0  0  0  0  0  0  0
    7.2323    0.6201   -1.1195 O   0  0  0  0  0  0  0  0  0  0  0  0
    5.9235    0.4057   -0.7941 C   0  0  0  0  0  0  0  0  0  0  0  0
    5.4451   -0.2391    0.3439 C   0  0  0  0  0  0  0  0  0  0  0  0
    4.0654   -0.3843    0.5511 C   0  0  0  0  0  0  0  0  0  0  0  0
    3.1487    0.1217   -0.3708 C   0  0  0  0  0  0  0  0  0  0  0  0
    1.7517   -0.0019   -0.2354 N   0  0  0  0  0  0  0  0  0  0  0  0
    1.0499   -0.3862    0.8864 C   0  0  0  0  0  0  0  0  0  0  0  0
    1.5347   -0.5212    2.0060 O   0  0  0  0  0  0  0  0  0  0  0  0
   -0.3236   -0.5735    0.6473 N   0  0  0  0  0  0  0  0  0  0  0  0
   -1.1331   -0.8839    1.8262 C   0  0  0  0  0  0  0  0  0  0  0  0
   -2.6043   -0.5460    1.6148 C   0  0  0  0  0  0  0  0  0  0  0  0
   -3.1307   -1.1979    0.3332 C   0  0  0  0  0  0  0  0  0  0  0  0
   -4.5413   -0.9526    0.1042 N   0  0  0  0  0  0  0  0  0  0  0  0
   -5.5143   -1.9793    0.0543 C   0  0  0  0  0  0  0  0  0  0  0  0
   -5.3437   -3.1792    0.1909 O   0  0  0  0  0  0  0  0  0  0  0  0
   -6.7443   -1.3569   -0.1911 N   0  0  0  0  0  0  0  0  0  0  0  0
   -6.5463    0.0128   -0.2967 C   0  0  0  0  0  0  0  0  0  0  0  0
   -7.4779    0.9977   -0.5371 C   0  0  0  0  0  0  0  0  0  0  0  0
   -7.0050    2.3102   -0.5987 C   0  0  0  0  0  0  0  0  0  0  0  0
   -5.6354    2.5934   -0.4216 C   0  0  0  0  0  0  0  0  0  0  0  0
   -4.7088    1.5705   -0.1787 C   0  0  0  0  0  0  0  0  0  0  0  0
   -5.1865    0.2785   -0.1180 C   0  0  0  0  0  0  0  0  0  0  0  0
   -2.2601   -0.8346   -0.8735 C   0  0  0  0  0  0  0  0  0  0  0  0
   -0.7999   -1.1756   -0.6025 C   0  0  0  0  0  0  0  0  0  0  0  0
    3.6313    0.7633   -1.5150 C   0  0  0  0  0  0  0  0  0  0  0  0
    5.0071    0.9066   -1.7200 C   0  0  0  0  0  0  0  0  0  0  0  0
    9.4453    0.6083    1.4245 H   0  0  0  0  0  0  0  0  0  0  0  0
    7.7666    1.1820    1.5052 H   0  0  0  0  0  0  0  0  0  0  0  0
    8.9063    1.9848    0.4349 H   0  0  0  0  0  0  0  0  0  0  0  0
    7.9923   -0.9429    0.0706 H   0  0  0  0  0  0  0  0  0  0  0  0
    9.1301   -0.0719   -0.9303 H   0  0  0  0  0  0  0  0  0  0  0  0
    6.1091   -0.6401    1.1016 H   0  0  0  0  0  0  0  0  0  0  0  0
    3.7382   -0.9048    1.4465 H   0  0  0  0  0  0  0  0  0  0  0  0
    1.1969    0.4518   -0.9438 H   0  0  0  0  0  0  0  0  0  0  0  0
   -0.7612   -0.3241    2.6921 H   0  0  0  0  0  0  0  0  0  0  0  0
   -1.0063   -1.9509    2.0478 H   0  0  0  0  0  0  0  0  0  0  0  0
   -3.1891   -0.8814    2.4796 H   0  0  0  0  0  0  0  0  0  0  0  0
   -2.7101    0.5427    1.5688 H   0  0  0  0  0  0  0  0  0  0  0  0
   -3.0297   -2.2833    0.4736 H   0  0  0  0  0  0  0  0  0  0  0  0
   -7.6139   -1.8564   -0.2750 H   0  0  0  0  0  0  0  0  0  0  0  0
   -8.5286    0.7722   -0.6726 H   0  0  0  0  0  0  0  0  0  0  0  0
   -7.7003    3.1261   -0.7852 H   0  0  0  0  0  0  0  0  0  0  0  0
   -5.2936    3.6255   -0.4738 H   0  0  0  0  0  0  0  0  0  0  0  0
   -3.6625    1.8120   -0.0460 H   0  0  0  0  0  0  0  0  0  0  0  0
   -2.3374    0.2341   -1.1003 H   0  0  0  0  0  0  0  0  0  0  0  0
   -2.6057   -1.3716   -1.7650 H   0  0  0  0  0  0  0  0  0  0  0  0
   -0.1959   -0.8639   -1.4583 H   0  0  0  0  0  0  0  0  0  0  0  0
   -0.6682   -2.2610   -0.5093 H   0  0  0  0  0  0  0  0  0  0  0  0
    2.9512    1.1641   -2.2612 H   0  0  0  0  0  0  0  0  0  0  0  0
    5.3682    1.4131   -2.6119 H   0  0  0  0  0  0  0  0  0  0  0  0
  1  2  1  0
  2  3  1  0
  3  4  1  0
  4  5  2  0
  5  6  1  0
  6  7  2  0
  7  8  1  0
  8  9  1  0
  9 10  2  0
  9 11  1  0
 11 12  1  0
 12 13  1  0
 13 14  1  0
 14 15  1  0
 15 16  1  0
 16 17  2  0
 16 18  1  0
 18 19  1  0
 19 20  2  0
 20 21  1  0
 21 22  2  0
 22 23  1  0
 23 24  2  0
 14 25  1  0
 25 26  1  0
  7 27  1  0
 27 28  2  0
 28  4  1  0
 26 11  1  0
 24 15  1  0
 24 19  1  0
  1 29  1  0
  1 30  1  0
  1 31  1  0
  2 32  1  0
  2 33  1  0
  5 34  1  0
  6 35  1  0
  8 36  1  0
 12 37  1  0
 12 38  1  0
 13 39  1  0
 13 40  1  0
 14 41  1  0
 18 42  1  0
 20 43  1  0
 21 44  1  0
 22 45  1  0
 23 46  1  0
 25 47  1  0
 25 48  1  0
 26 49  1  0
 26 50  1  0
 27 51  1  0
 28 52  1  0
M  END
$$$$
