
     RDKit          3D

 42 44  0  0  0  0  0  0  0  0999 V2000
   -3.5362   -1.2686    2.3813 C   0  0  0  0  0  0  0  0  0  0  0  0
   -3.3404   -1.5037    0.8929 C   0  0  0  0  0  0  0  0  0  0  0  0
   -2.6343   -0.4157    0.2483 N   0  0  0  0  0  0  0  0  0  0  0  0
   -1.2819   -0.2760    0.0915 C   0  0  0  0  0  0  0  0  0  0  0  0
   -0.1191   -1.4495    0.5964 S   0  0  0  0  0  0  0  0  0  0  0  0
    1.4151   -0.6108    0.0992 C   0  0  0  0  0  0  0  0  0  0  0  0
    2.6509   -1.4325    0.4243 C   0  0  0  0  0  0  0  0  0  0  0  0
    2.6165   -2.5467    0.9452 O   0  0  0  0  0  0  0  0  0  0  0  0
    3.9870   -0.8448    0.0862 C   0  0  0  0  0  0  0  0  0  0  0  0
    4.1263    0.4058   -0.5282 C   0  0  0  0  0  0  0  0  0  0  0  0
    5.3988    0.9083   -0.8225 C   0  0  0  0  0  0  0  0  0  0  0  0
    6.5475    0.1772   -0.4998 C   0  0  0  0  0  0  0  0  0  0  0  0
    7.9081    0.7051   -0.8478 C   0  0  0  0  0  0  0  0  0  0  0  0
    6.4070   -1.0782    0.0998 C   0  0  0  0  0  0  0  0  0  0  0  0
    5.1378   -1.5827    0.3950 C   0  0  0  0  0  0  0  0  0  0  0  0
   -1.0143    0.8769   -0.4728 N   0  0  0  0  0  0  0  0  0  0  0  0
   -2.2071    1.5188   -0.6909 N   0  0  0  0  0  0  0  0  0  0  0  0
   -3.1871    0.7353   -0.2783 C   0  0  0  0  0  0  0  0  0  0  0  0
   -4.6041    1.0711   -0.3237 C   0  0  0  0  0  0  0  0  0  0  0  0
   -5.4981    0.3413   -1.1081 C   0  0  0  0  0  0  0  0  0  0  0  0
   -6.8305    0.7179   -1.1073 C   0  0  0  0  0  0  0  0  0  0  0  0
   -7.3158    1.7543   -0.3923 N   0  0  0  0  0  0  0  0  0  0  0  0
   -6.4271    2.4632    0.3358 C   0  0  0  0  0  0  0  0  0  0  0  0
   -5.0769    2.1667    0.3991 C   0  0  0  0  0  0  0  0  0  0  0  0
   -4.0702   -2.1116    2.8307 H   0  0  0  0  0  0  0  0  0  0  0  0
   -4.1187   -0.3600    2.5660 H   0  0  0  0  0  0  0  0  0  0  0  0
   -2.5766   -1.1595    2.8970 H   0  0  0  0  0  0  0  0  0  0  0  0
   -4.3084   -1.6318    0.4010 H   0  0  0  0  0  0  0  0  0  0  0  0
   -2.7879   -2.4324    0.7193 H   0  0  0  0  0  0  0  0  0  0  0  0
    1.3824   -0.4422   -0.9818 H   0  0  0  0  0  0  0  0  0  0  0  0
    1.4766    0.3412    0.6357 H   0  0  0  0  0  0  0  0  0  0  0  0
    3.2681    1.0156   -0.7956 H   0  0  0  0  0  0  0  0  0  0  0  0
    5.4873    1.8792   -1.3070 H   0  0  0  0  0  0  0  0  0  0  0  0
    8.6602    0.3449   -0.1379 H   0  0  0  0  0  0  0  0  0  0  0  0
    8.1883    0.3820   -1.8550 H   0  0  0  0  0  0  0  0  0  0  0  0
    7.9238    1.7994   -0.8094 H   0  0  0  0  0  0  0  0  0  0  0  0
    7.2842   -1.6742    0.3433 H   0  0  0  0  0  0  0  0  0  0  0  0
    5.0539   -2.5604    0.8671 H   0  0  0  0  0  0  0  0  0  0  0  0
   -5.1700   -0.4910   -1.7211 H   0  0  0  0  0  0  0  0  0  0  0  0
   -7.5650    0.1831   -1.7031 H   0  0  0  0  0  0  0  0  0  0  0  0
   -6.8419    3.3052    0.8829 H   0  0  0  0  0  0  0  0  0  0  0  0
   -4.4083    2.7799    0.9950 H   0  0  0  0  0  0  0  0  0  0  0  0
  1  2  1  0
  2  3  1  0
  3  4  1  0
  4  5  1  0
  5  6  1  0
  6  7  1  0
  7  8  2  0
  7  9  1  0
  9 10  2  0
 10 11  1  0
 11 12  2  0
 12 13  1  0
 12 14  1  0
 14 15  2  0
  4 16  2  0
 16 17  1  0
 17 18  2  0
 18 19  1  0
 19 20  2  0
 20 21  1  0
 21 22  2  0
 22 23  1  0
 23 24  2  0
 18  3  1  0
 24 19  1  0
 15  9  1  0
  1 25  1  0
  1 26  1  0
  1 27  1  0
  2 28  1  0
  2 29  1  0
  6 30  1  0
  6 31  1  0
 10 32  1  0
 11 33  1  0
 13 34  1  0
 13 35  1  0
 13 36  1  0
 14 37  1  0
 15 38  1  0
 20 39  1  0
 21 40  1  0
 23 41  1  0
 24 42  1  0
M  END
$$$$
