
     RDKit          3D

 42 43  0  0  0  0  0  0  0  0999 V2000
   -6.9423    1.6226    0.9735 C   0  0  0  0  0  0  0  0  0  0  0  0
   -5.5720    1.7348    0.3736 C   0  0  0  0  0  0  0  0  0  0  0  0
   -5.3421    1.3155   -0.9394 C   0  0  0  0  0  0  0  0  0  0  0  0
   -4.0714    1.4347   -1.5056 C   0  0  0  0  0  0  0  0  0  0  0  0
   -3.0143    1.9847   -0.7771 C   0  0  0  0  0  0  0  0  0  0  0  0
   -1.8248    2.0268   -1.4517 O   0  0  0  0  0  0  0  0  0  0  0  0
   -0.6943    2.5666   -0.7792 C   0  0  0  0  0  0  0  0  0  0  0  0
   -0.0648    1.6418    0.2597 C   0  0  0  0  0  0  0  0  0  0  0  0
    0.5422    2.0618    1.2441 O   0  0  0  0  0  0  0  0  0  0  0  0
   -0.1920    0.3001   -0.0311 N   0  0  0  0  0  0  0  0  0  0  0  0
    0.2856   -0.6388    0.8919 N   0  0  0  0  0  0  0  0  0  0  0  0
    0.4608   -1.9361    0.4488 C   0  0  0  0  0  0  0  0  0  0  0  0
   -0.0089   -2.3376   -0.6185 O   0  0  0  0  0  0  0  0  0  0  0  0
    1.1565   -2.8733    1.4208 C   0  0  0  0  0  0  0  0  0  0  0  0
    2.4898   -2.0884    2.3770 S   0  0  0  0  0  0  0  0  0  0  0  0
    3.7326   -1.9693    1.1184 C   0  0  0  0  0  0  0  0  0  0  0  0
    3.3446   -1.7306   -0.1405 N   0  0  0  0  0  0  0  0  0  0  0  0
    4.3260   -1.6140   -1.0567 C   0  0  0  0  0  0  0  0  0  0  0  0
    5.6644   -1.7320   -0.7569 C   0  0  0  0  0  0  0  0  0  0  0  0
    6.6505   -1.5918   -1.7728 C   0  0  0  0  0  0  0  0  0  0  0  0
    7.4255   -1.4912   -2.6303 N   0  0  0  0  0  0  0  0  0  0  0  0
    5.9618   -1.9894    0.5688 C   0  0  0  0  0  0  0  0  0  0  0  0
    7.2693   -2.0958    1.0427 N   0  0  0  0  0  0  0  0  0  0  0  0
    5.0097   -2.1001    1.5109 N   0  0  0  0  0  0  0  0  0  0  0  0
   -3.2423    2.4199    0.5281 C   0  0  0  0  0  0  0  0  0  0  0  0
   -4.5159    2.2983    1.0973 C   0  0  0  0  0  0  0  0  0  0  0  0
   -7.5796    2.4347    0.6083 H   0  0  0  0  0  0  0  0  0  0  0  0
   -6.9020    1.6763    2.0667 H   0  0  0  0  0  0  0  0  0  0  0  0
   -7.3994    0.6625    0.7112 H   0  0  0  0  0  0  0  0  0  0  0  0
   -6.1492    0.8861   -1.5290 H   0  0  0  0  0  0  0  0  0  0  0  0
   -3.9049    1.0929   -2.5254 H   0  0  0  0  0  0  0  0  0  0  0  0
   -0.9223    3.5417   -0.3343 H   0  0  0  0  0  0  0  0  0  0  0  0
    0.0734    2.7465   -1.5410 H   0  0  0  0  0  0  0  0  0  0  0  0
   -0.8210   -0.0375   -0.7609 H   0  0  0  0  0  0  0  0  0  0  0  0
    0.8968   -0.2674    1.6218 H   0  0  0  0  0  0  0  0  0  0  0  0
    0.3998   -3.2411    2.1217 H   0  0  0  0  0  0  0  0  0  0  0  0
    1.5558   -3.7321    0.8725 H   0  0  0  0  0  0  0  0  0  0  0  0
    3.9813   -1.4146   -2.0705 H   0  0  0  0  0  0  0  0  0  0  0  0
    7.2321   -2.3138    2.0373 H   0  0  0  0  0  0  0  0  0  0  0  0
    7.8413   -2.7607    0.5331 H   0  0  0  0  0  0  0  0  0  0  0  0
   -2.4623    2.8613    1.1406 H   0  0  0  0  0  0  0  0  0  0  0  0
   -4.6739    2.6459    2.1163 H   0  0  0  0  0  0  0  0  0  0  0  0
  1  2  1  0
  2  3  2  0
  3  4  1  0
  4  5  2  0
  5  6  1  0
  6  7  1  0
  7  8  1  0
  8  9  2  0
  8 10  1  0
 10 11  1  0
 11 12  1  0
 12 13  2  0
 12 14  1  0
 14 15  1  0
 15 16  1  0
 16 17  2  0
 17 18  1  0
 18 19  2  0
 19 20  1  0
 20 21  3  0
 19 22  1  0
 22 23  1  0
 22 24  2  0
  5 25  1  0
 25 26  2  0
 26  2  1  0
 24 16  1  0
  1 27  1  0
  1 28  1  0
  1 29  1  0
  3 30  1  0
  4 31  1  0
  7 32  1  0
  7 33  1  0
 10 34  1  0
 11 35  1  0
 14 36  1  0
 14 37  1  0
 18 38  1  0
 23 39  1  0
 23 40  1  0
 25 41  1  0
 26 42  1  0
M  END
$$$$
