
     RDKit          3D

 46 50  0  0  0  0  0  0  0  0999 V2000
    0.9823    1.5243    0.7934 O   0  0  0  0  0  0  0  0  0  0  0  0
    0.5703    0.4428    0.4011 C   0  0  0  0  0  0  0  0  0  0  0  0
    1.2437   -0.7666    0.4471 N   0  0  0  0  0  0  0  0  0  0  0  0
    2.5326   -1.0122    0.9864 C   0  0  0  0  0  0  0  0  0  0  0  0
    2.6512   -2.2445    1.6535 C   0  0  0  0  0  0  0  0  0  0  0  0
    3.8281   -2.5986    2.3030 C   0  0  0  0  0  0  0  0  0  0  0  0
    4.9148   -1.7338    2.2757 C   0  0  0  0  0  0  0  0  0  0  0  0
    4.8571   -0.5272    1.5653 C   0  0  0  0  0  0  0  0  0  0  0  0
    5.9991    0.2908    1.5158 C   0  0  0  0  0  0  0  0  0  0  0  0
    6.0120    1.4645    0.7678 C   0  0  0  0  0  0  0  0  0  0  0  0
    4.8862    1.8234    0.0447 C   0  0  0  0  0  0  0  0  0  0  0  0
    3.7419    1.0215    0.0932 C   0  0  0  0  0  0  0  0  0  0  0  0
    3.6673   -0.1524    0.8821 C   0  0  0  0  0  0  0  0  0  0  0  0
   -0.7947    0.2962   -0.0789 C   0  0  0  0  0  0  0  0  0  0  0  0
   -1.7315   -0.5812    0.4426 C   0  0  0  0  0  0  0  0  0  0  0  0
   -2.9136   -0.3694   -0.2266 N   0  0  0  0  0  0  0  0  0  0  0  0
   -4.1642   -1.0198   -0.0244 C   0  0  0  0  0  0  0  0  0  0  0  0
   -4.3250   -2.0021    0.9633 C   0  0  0  0  0  0  0  0  0  0  0  0
   -5.5656   -2.6239    1.1365 C   0  0  0  0  0  0  0  0  0  0  0  0
   -6.6474   -2.2723    0.3311 C   0  0  0  0  0  0  0  0  0  0  0  0
   -6.4953   -1.2966   -0.6512 C   0  0  0  0  0  0  0  0  0  0  0  0
   -5.2598   -0.6708   -0.8302 C   0  0  0  0  0  0  0  0  0  0  0  0
   -2.7720    0.5790   -1.1779 N   0  0  0  0  0  0  0  0  0  0  0  0
   -1.5004    0.9938   -1.0890 C   0  0  0  0  0  0  0  0  0  0  0  0
   -0.9815    2.1011   -2.0916 C   0  0  0  0  0  0  0  0  0  0  0  0
   -1.8049    2.7073   -3.0214 C   0  0  0  0  0  0  0  0  0  0  0  0
   -1.1144    3.6646   -3.8208 C   0  0  0  0  0  0  0  0  0  0  0  0
    0.2155    3.7515   -3.4772 C   0  0  0  0  0  0  0  0  0  0  0  0
    0.6158    2.6816   -2.2057 S   0  0  0  0  0  0  0  0  0  0  0  0
    0.6576   -1.5830    0.3394 H   0  0  0  0  0  0  0  0  0  0  0  0
    1.8082   -2.9282    1.7158 H   0  0  0  0  0  0  0  0  0  0  0  0
    3.8956   -3.5407    2.8402 H   0  0  0  0  0  0  0  0  0  0  0  0
    5.8254   -2.0232    2.7968 H   0  0  0  0  0  0  0  0  0  0  0  0
    6.9018    0.0103    2.0547 H   0  0  0  0  0  0  0  0  0  0  0  0
    6.9030    2.0850    0.7373 H   0  0  0  0  0  0  0  0  0  0  0  0
    4.8868    2.7249   -0.5622 H   0  0  0  0  0  0  0  0  0  0  0  0
    2.9025    1.3277   -0.5214 H   0  0  0  0  0  0  0  0  0  0  0  0
   -1.6509   -1.2892    1.2527 H   0  0  0  0  0  0  0  0  0  0  0  0
   -3.5151   -2.3068    1.6176 H   0  0  0  0  0  0  0  0  0  0  0  0
   -5.6896   -3.3840    1.9043 H   0  0  0  0  0  0  0  0  0  0  0  0
   -7.6104   -2.7574    0.4700 H   0  0  0  0  0  0  0  0  0  0  0  0
   -7.3382   -1.0195   -1.2793 H   0  0  0  0  0  0  0  0  0  0  0  0
   -5.1673    0.0896   -1.6039 H   0  0  0  0  0  0  0  0  0  0  0  0
   -2.8591    2.4762   -3.1199 H   0  0  0  0  0  0  0  0  0  0  0  0
   -1.5709    4.2569   -4.6041 H   0  0  0  0  0  0  0  0  0  0  0  0
    0.9731    4.3900   -3.9103 H   0  0  0  0  0  0  0  0  0  0  0  0
  1  2  2  0
  2  3  1  0
  3  4  1  0
  4  5  2  0
  5  6  1  0
  6  7  2  0
  7  8  1  0
  8  9  2  0
  9 10  1  0
 10 11  2  0
 11 12  1  0
 12 13  2  0
  2 14  1  0
 14 15  2  0
 15 16  1  0
 16 17  1  0
 17 18  2  0
 18 19  1  0
 19 20  2  0
 20 21  1  0
 21 22  2  0
 16 23  1  0
 23 24  2  0
 24 25  1  0
 25 26  2  0
 26 27  1  0
 27 28  2  0
 28 29  1  0
 13  4  1  0
 24 14  1  0
 29 25  1  0
 13  8  1  0
 22 17  1  0
  3 30  1  0
  5 31  1  0
  6 32  1  0
  7 33  1  0
  9 34  1  0
 10 35  1  0
 11 36  1  0
 12 37  1  0
 15 38  1  0
 18 39  1  0
 19 40  1  0
 20 41  1  0
 21 42  1  0
 22 43  1  0
 26 44  1  0
 27 45  1  0
 28 46  1  0
M  END
$$$$
