
     RDKit          3D

 49 52  0  0  0  0  0  0  0  0999 V2000
   -1.2413    5.4804    0.5918 C   0  0  0  0  0  0  0  0  0  0  0  0
   -0.9371    4.1902   -0.1108 C   0  0  0  0  0  0  0  0  0  0  0  0
   -0.6468    4.1821   -1.4788 C   0  0  0  0  0  0  0  0  0  0  0  0
   -0.3954    2.9804   -2.1389 C   0  0  0  0  0  0  0  0  0  0  0  0
   -0.4409    1.7745   -1.4402 C   0  0  0  0  0  0  0  0  0  0  0  0
   -0.7353    1.7528   -0.0684 C   0  0  0  0  0  0  0  0  0  0  0  0
   -0.8262    0.4535    0.7181 C   0  0  0  0  0  0  0  0  0  0  0  0
   -2.1968   -0.2008    0.5342 C   0  0  0  0  0  0  0  0  0  0  0  0
   -1.8134   -1.4137   -0.2677 C   0  0  0  0  0  0  0  0  0  0  0  0
   -2.8322   -2.3176   -0.8515 C   0  0  0  0  0  0  0  0  0  0  0  0
   -2.4101   -3.3942   -1.6418 C   0  0  0  0  0  0  0  0  0  0  0  0
   -3.3460   -4.2629   -2.2061 C   0  0  0  0  0  0  0  0  0  0  0  0
   -4.7068   -4.0612   -1.9832 C   0  0  0  0  0  0  0  0  0  0  0  0
   -5.1335   -2.9922   -1.1960 C   0  0  0  0  0  0  0  0  0  0  0  0
   -4.1998   -2.1202   -0.6293 C   0  0  0  0  0  0  0  0  0  0  0  0
   -0.5357   -1.6180   -0.3794 N   0  0  0  0  0  0  0  0  0  0  0  0
    0.0968   -0.5840    0.2503 N   0  0  0  0  0  0  0  0  0  0  0  0
    1.4788   -0.5962    0.4287 C   0  0  0  0  0  0  0  0  0  0  0  0
    2.1612    0.4265    1.1099 C   0  0  0  0  0  0  0  0  0  0  0  0
    3.5510    0.3982    1.2829 C   0  0  0  0  0  0  0  0  0  0  0  0
    4.2844   -0.6713    0.7744 C   0  0  0  0  0  0  0  0  0  0  0  0
    6.0407   -0.7308    0.9897 S   0  0  0  0  0  6  0  0  0  0  0  0
    6.1829   -1.8035    2.2823 N   0  0  0  0  0  0  0  0  0  0  0  0
    6.6270   -1.3526   -0.1730 O   0  0  0  0  0  0  0  0  0  0  0  0
    6.4891    0.5445    1.5011 O   0  0  0  0  0  0  0  0  0  0  0  0
    3.6469   -1.6959    0.0796 C   0  0  0  0  0  0  0  0  0  0  0  0
    2.2585   -1.6519   -0.0819 C   0  0  0  0  0  0  0  0  0  0  0  0
   -0.9949    2.9728    0.5820 C   0  0  0  0  0  0  0  0  0  0  0  0
   -0.9332    5.4349    1.6416 H   0  0  0  0  0  0  0  0  0  0  0  0
   -2.3150    5.6869    0.5462 H   0  0  0  0  0  0  0  0  0  0  0  0
   -0.7005    6.3137    0.1311 H   0  0  0  0  0  0  0  0  0  0  0  0
   -0.6117    5.1131   -2.0400 H   0  0  0  0  0  0  0  0  0  0  0  0
   -0.1620    2.9811   -3.2007 H   0  0  0  0  0  0  0  0  0  0  0  0
   -0.2375    0.8470   -1.9739 H   0  0  0  0  0  0  0  0  0  0  0  0
   -0.6609    0.6525    1.7848 H   0  0  0  0  0  0  0  0  0  0  0  0
   -2.6063   -0.5300    1.4953 H   0  0  0  0  0  0  0  0  0  0  0  0
   -2.9261    0.4242    0.0118 H   0  0  0  0  0  0  0  0  0  0  0  0
   -1.3505   -3.5620   -1.8243 H   0  0  0  0  0  0  0  0  0  0  0  0
   -3.0111   -5.0958   -2.8195 H   0  0  0  0  0  0  0  0  0  0  0  0
   -5.4351   -4.7380   -2.4233 H   0  0  0  0  0  0  0  0  0  0  0  0
   -6.1960   -2.8381   -1.0235 H   0  0  0  0  0  0  0  0  0  0  0  0
   -4.5643   -1.2998   -0.0191 H   0  0  0  0  0  0  0  0  0  0  0  0
    1.6232    1.2797    1.5131 H   0  0  0  0  0  0  0  0  0  0  0  0
    4.0416    1.2158    1.8063 H   0  0  0  0  0  0  0  0  0  0  0  0
    5.3052   -2.2679    2.5133 H   0  0  0  0  0  0  0  0  0  0  0  0
    6.5717   -1.3017    3.0821 H   0  0  0  0  0  0  0  0  0  0  0  0
    4.2124   -2.5233   -0.3434 H   0  0  0  0  0  0  0  0  0  0  0  0
    1.7734   -2.4588   -0.6288 H   0  0  0  0  0  0  0  0  0  0  0  0
   -1.2423    2.9781    1.6422 H   0  0  0  0  0  0  0  0  0  0  0  0
  1  2  1  0
  2  3  2  0
  3  4  1  0
  4  5  2  0
  5  6  1  0
  6  7  1  0
  7  8  1  0
  8  9  1  0
  9 10  1  0
 10 11  2  0
 11 12  1  0
 12 13  2  0
 13 14  1  0
 14 15  2  0
  9 16  2  0
 16 17  1  0
 17 18  1  0
 18 19  2  0
 19 20  1  0
 20 21  2  0
 21 22  1  0
 22 23  1  0
 22 24  2  0
 22 25  2  0
 21 26  1  0
 26 27  2  0
  6 28  2  0
 28  2  1  0
 17  7  1  0
 27 18  1  0
 15 10  1  0
  1 29  1  0
  1 30  1  0
  1 31  1  0
  3 32  1  0
  4 33  1  0
  5 34  1  0
  7 35  1  0
  8 36  1  0
  8 37  1  0
 11 38  1  0
 12 39  1  0
 13 40  1  0
 14 41  1  0
 15 42  1  0
 19 43  1  0
 20 44  1  0
 23 45  1  0
 23 46  1  0
 26 47  1  0
 27 48  1  0
 28 49  1  0
M  END
$$$$
