
     RDKit          3D

 55 57  0  0  0  0  0  0  0  0999 V2000
    0.1052    1.7671   -0.2525 O   0  0  0  0  0  0  0  0  0  0  0  0
   -0.1384    1.2063    0.8104 C   0  0  0  0  0  0  0  0  0  0  0  0
   -1.3352    1.3475    1.4810 N   0  0  0  0  0  0  0  0  0  0  0  0
   -2.4257    2.1358    0.9421 C   0  0  0  0  0  0  0  0  0  0  0  0
   -3.2360    1.3781   -0.1133 C   0  0  0  0  0  0  0  0  0  0  0  0
   -3.9738    0.1706    0.4781 C   0  0  0  0  0  0  0  0  0  0  0  0
   -4.8326   -0.6412   -0.4969 C   0  0  0  0  0  0  0  0  0  0  0  0
   -4.0831   -1.2650   -1.6720 C   0  0  0  0  0  0  0  0  0  0  0  0
   -5.1960   -1.7116   -2.6170 C   0  0  0  0  0  0  0  0  0  0  0  0
   -6.3979   -0.8153   -2.3104 C   0  0  0  0  0  0  0  0  0  0  0  0
   -5.9477    0.1298   -1.1990 C   0  0  0  0  0  0  0  0  0  0  0  0
    0.8427    0.2662    1.4972 C   0  0  0  0  0  0  0  0  0  0  0  0
    1.2373    0.7594    2.9011 C   0  0  0  0  0  0  0  0  0  0  0  0
    2.7385    0.9715    3.0680 C   0  0  0  0  0  0  0  0  0  0  0  0
    3.5311   -0.2142    2.5567 C   0  0  0  0  0  0  0  0  0  0  0  0
    4.4925   -0.6627    3.1741 O   0  0  0  0  0  0  0  0  0  0  0  0
    3.0974   -0.6980    1.3298 N   0  0  0  0  0  0  0  0  0  0  0  0
    3.9133   -1.6682    0.6104 C   0  0  0  0  0  0  0  0  0  0  0  0
    4.8751   -1.0132   -0.3546 C   0  0  0  0  0  0  0  0  0  0  0  0
    4.5702   -0.9220   -1.7211 C   0  0  0  0  0  0  0  0  0  0  0  0
    5.4555   -0.2988   -2.6043 C   0  0  0  0  0  0  0  0  0  0  0  0
    6.6483    0.2389   -2.1258 C   0  0  0  0  0  0  0  0  0  0  0  0
    7.7371    1.0064   -3.2148 Cl  0  0  0  0  0  0  0  0  0  0  0  0
    6.9636    0.1607   -0.7717 C   0  0  0  0  0  0  0  0  0  0  0  0
    6.0786   -0.4618    0.1112 C   0  0  0  0  0  0  0  0  0  0  0  0
    2.0645    0.0338    0.6050 C   0  0  0  0  0  0  0  0  0  0  0  0
   -1.5227    0.7655    2.2875 H   0  0  0  0  0  0  0  0  0  0  0  0
   -2.0094    3.0465    0.4972 H   0  0  0  0  0  0  0  0  0  0  0  0
   -3.0626    2.4314    1.7824 H   0  0  0  0  0  0  0  0  0  0  0  0
   -2.5692    1.0563   -0.9198 H   0  0  0  0  0  0  0  0  0  0  0  0
   -3.9579    2.0781   -0.5463 H   0  0  0  0  0  0  0  0  0  0  0  0
   -3.2427   -0.5115    0.9300 H   0  0  0  0  0  0  0  0  0  0  0  0
   -4.6183    0.5192    1.2954 H   0  0  0  0  0  0  0  0  0  0  0  0
   -5.2945   -1.4551    0.0812 H   0  0  0  0  0  0  0  0  0  0  0  0
   -3.4478   -2.1013   -1.3645 H   0  0  0  0  0  0  0  0  0  0  0  0
   -3.4513   -0.5324   -2.1851 H   0  0  0  0  0  0  0  0  0  0  0  0
   -5.4576   -2.7595   -2.4303 H   0  0  0  0  0  0  0  0  0  0  0  0
   -4.8854   -1.6326   -3.6636 H   0  0  0  0  0  0  0  0  0  0  0  0
   -6.7290   -0.2616   -3.1947 H   0  0  0  0  0  0  0  0  0  0  0  0
   -7.2411   -1.4283   -1.9719 H   0  0  0  0  0  0  0  0  0  0  0  0
   -5.5790    1.0579   -1.6480 H   0  0  0  0  0  0  0  0  0  0  0  0
   -6.7685    0.3852   -0.5218 H   0  0  0  0  0  0  0  0  0  0  0  0
    0.3229   -0.6960    1.6114 H   0  0  0  0  0  0  0  0  0  0  0  0
    0.9125    0.0044    3.6297 H   0  0  0  0  0  0  0  0  0  0  0  0
    0.7188    1.6862    3.1722 H   0  0  0  0  0  0  0  0  0  0  0  0
    2.9703    1.1187    4.1287 H   0  0  0  0  0  0  0  0  0  0  0  0
    3.0702    1.8663    2.5289 H   0  0  0  0  0  0  0  0  0  0  0  0
    3.2405   -2.3543    0.0819 H   0  0  0  0  0  0  0  0  0  0  0  0
    4.4794   -2.2822    1.3211 H   0  0  0  0  0  0  0  0  0  0  0  0
    3.6399   -1.3325   -2.1073 H   0  0  0  0  0  0  0  0  0  0  0  0
    5.2078   -0.2339   -3.6603 H   0  0  0  0  0  0  0  0  0  0  0  0
    7.8914    0.5820   -0.3949 H   0  0  0  0  0  0  0  0  0  0  0  0
    6.3299   -0.5139    1.1701 H   0  0  0  0  0  0  0  0  0  0  0  0
    2.5041    0.9773    0.2581 H   0  0  0  0  0  0  0  0  0  0  0  0
    1.7647   -0.5411   -0.2792 H   0  0  0  0  0  0  0  0  0  0  0  0
  1  2  2  0
  2  3  1  0
  3  4  1  0
  4  5  1  0
  5  6  1  0
  6  7  1  0
  7  8  1  0
  8  9  1  0
  9 10  1  0
 10 11  1  0
  2 12  1  0
 12 13  1  0
 13 14  1  0
 14 15  1  0
 15 16  2  0
 15 17  1  0
 17 18  1  0
 18 19  1  0
 19 20  2  0
 20 21  1  0
 21 22  2  0
 22 23  1  0
 22 24  1  0
 24 25  2  0
 17 26  1  0
 11  7  1  0
 26 12  1  0
 25 19  1  0
  3 27  1  0
  4 28  1  0
  4 29  1  0
  5 30  1  0
  5 31  1  0
  6 32  1  0
  6 33  1  0
  7 34  1  0
  8 35  1  0
  8 36  1  0
  9 37  1  0
  9 38  1  0
 10 39  1  0
 10 40  1  0
 11 41  1  0
 11 42  1  0
 12 43  1  0
 13 44  1  0
 13 45  1  0
 14 46  1  0
 14 47  1  0
 18 48  1  0
 18 49  1  0
 20 50  1  0
 21 51  1  0
 24 52  1  0
 25 53  1  0
 26 54  1  0
 26 55  1  0
M  END
$$$$
