
     RDKit          3D

 35 37  0  0  0  0  0  0  0  0999 V2000
   -5.6882    0.4856   -0.1380 C   0  0  0  0  0  0  0  0  0  0  0  0
   -4.2583    0.0388   -0.0108 C   0  0  0  0  0  0  0  0  0  0  0  0
   -3.2341    0.9990   -0.0689 C   0  0  0  0  0  0  0  0  0  0  0  0
   -1.8925    0.6492    0.0045 C   0  0  0  0  0  0  0  0  0  0  0  0
   -0.9493    1.6065   -0.0551 N   0  0  0  0  0  0  0  0  0  0  0  0
    0.3361    1.2118    0.0038 C   0  0  0  0  0  0  0  0  0  0  0  0
    1.3476    2.1530   -0.0488 C   0  0  0  0  0  0  0  0  0  0  0  0
    2.6958    1.7769    0.0069 C   0  0  0  0  0  0  0  0  0  0  0  0
    3.0852    0.4348    0.1080 C   0  0  0  0  0  0  0  0  0  0  0  0
    4.4297    0.0549    0.1813 N   0  0  0  0  0  0  0  0  0  0  0  0
    5.4595    1.0033   -0.2423 C   0  0  0  0  0  0  0  0  0  0  0  0
    4.7802   -1.3588    0.0441 C   0  0  0  0  0  0  0  0  0  0  0  0
    2.0342   -0.4980    0.1761 C   0  0  0  0  0  0  0  0  0  0  0  0
    0.6855   -0.1447    0.1216 C   0  0  0  0  0  0  0  0  0  0  0  0
   -0.2613   -1.1015    0.1826 N   0  0  0  0  0  0  0  0  0  0  0  0
   -1.5488   -0.7101    0.1270 C   0  0  0  0  0  0  0  0  0  0  0  0
   -2.5624   -1.6589    0.1882 C   0  0  0  0  0  0  0  0  0  0  0  0
   -3.9181   -1.3071    0.1751 C   0  0  0  0  0  0  0  0  0  0  0  0
   -4.8838   -2.3222    0.1289 N   0  0  0  0  0  0  0  0  0  0  0  0
   -6.2333    0.2771    0.7882 H   0  0  0  0  0  0  0  0  0  0  0  0
   -6.1758   -0.0280   -0.9728 H   0  0  0  0  0  0  0  0  0  0  0  0
   -5.7591    1.5616   -0.3300 H   0  0  0  0  0  0  0  0  0  0  0  0
   -3.4805    2.0522   -0.1877 H   0  0  0  0  0  0  0  0  0  0  0  0
    1.0874    3.2051   -0.1310 H   0  0  0  0  0  0  0  0  0  0  0  0
    3.4296    2.5764   -0.0259 H   0  0  0  0  0  0  0  0  0  0  0  0
    5.4654    1.8930    0.3963 H   0  0  0  0  0  0  0  0  0  0  0  0
    6.4615    0.5675   -0.1588 H   0  0  0  0  0  0  0  0  0  0  0  0
    5.3151    1.3003   -1.2870 H   0  0  0  0  0  0  0  0  0  0  0  0
    5.8613   -1.5107    0.1392 H   0  0  0  0  0  0  0  0  0  0  0  0
    4.3229   -1.9595    0.8376 H   0  0  0  0  0  0  0  0  0  0  0  0
    4.4761   -1.7462   -0.9346 H   0  0  0  0  0  0  0  0  0  0  0  0
    2.2404   -1.5594    0.2758 H   0  0  0  0  0  0  0  0  0  0  0  0
   -2.2755   -2.7054    0.2542 H   0  0  0  0  0  0  0  0  0  0  0  0
   -5.8056   -2.0407    0.4461 H   0  0  0  0  0  0  0  0  0  0  0  0
   -4.5871   -3.1961    0.5536 H   0  0  0  0  0  0  0  0  0  0  0  0
  1  2  1  0
  2  3  2  0
  3  4  1  0
  4  5  2  0
  5  6  1  0
  6  7  2  0
  7  8  1  0
  8  9  2  0
  9 10  1  0
 10 11  1  0
 10 12  1  0
  9 13  1  0
 13 14  2  0
 14 15  1  0
 15 16  2  0
 16 17  1  0
 17 18  2  0
 18 19  1  0
 18  2  1  0
 16  4  1  0
 14  6  1  0
  1 20  1  0
  1 21  1  0
  1 22  1  0
  3 23  1  0
  7 24  1  0
  8 25  1  0
 11 26  1  0
 11 27  1  0
 11 28  1  0
 12 29  1  0
 12 30  1  0
 12 31  1  0
 13 32  1  0
 17 33  1  0
 19 34  1  0
 19 35  1  0
M  END
$$$$
