
     RDKit          3D

 54 55  0  0  0  0  0  0  0  0999 V2000
   -1.4808   -1.2620    1.8478 C   0  0  0  0  0  0  0  0  0  0  0  0
   -1.9011   -0.4175    0.7797 O   0  0  0  0  0  0  0  0  0  0  0  0
   -0.9088    0.1556    0.0244 C   0  0  0  0  0  0  0  0  0  0  0  0
    0.4167   -0.2917   -0.0142 C   0  0  0  0  0  0  0  0  0  0  0  0
    1.3726    0.3604   -0.8110 C   0  0  0  0  0  0  0  0  0  0  0  0
    2.8035   -0.1287   -0.8562 C   0  0  0  0  0  0  0  0  0  0  0  0
    3.6875    0.9022   -0.3335 N   0  0  0  0  0  0  0  0  0  0  0  0
    5.0475    0.6333   -0.1638 C   0  0  0  0  0  0  0  0  0  0  0  0
    5.7232   -0.4021   -0.8214 C   0  0  0  0  0  0  0  0  0  0  0  0
    7.1041   -0.5839   -0.6654 C   0  0  0  0  0  0  0  0  0  0  0  0
    7.8431    0.2940    0.1300 C   0  0  0  0  0  0  0  0  0  0  0  0
    9.3056    0.1474    0.3215 C   0  0  0  0  0  0  0  0  0  0  0  0
   10.0156    0.8784    0.9866 O   0  0  0  0  0  0  0  0  0  0  0  0
    9.8109   -0.9148   -0.3297 O   0  0  0  0  0  0  0  0  0  0  0  0
    7.1917    1.3551    0.7611 C   0  0  0  0  0  0  0  0  0  0  0  0
    5.8115    1.5265    0.6017 C   0  0  0  0  0  0  0  0  0  0  0  0
    0.9852    1.4765   -1.5672 C   0  0  0  0  0  0  0  0  0  0  0  0
   -0.3360    1.9259   -1.5401 C   0  0  0  0  0  0  0  0  0  0  0  0
   -0.7684    3.4740   -2.5433 Br  0  0  0  0  0  0  0  0  0  0  0  0
   -1.2882    1.2483   -0.7719 C   0  0  0  0  0  0  0  0  0  0  0  0
   -2.5942    1.6700   -0.7223 O   0  0  0  0  0  0  0  0  0  0  0  0
   -3.3483    1.1114   -1.8028 C   0  0  0  0  0  0  0  0  0  0  0  0
   -4.7277    0.6356   -1.3426 C   0  0  0  0  0  0  0  0  0  0  0  0
   -5.6796    0.5813   -2.1163 O   0  0  0  0  0  0  0  0  0  0  0  0
   -4.7702    0.2291   -0.0269 N   0  0  0  0  0  0  0  0  0  0  0  0
   -5.9521   -0.2989    0.6638 C   0  0  0  0  0  0  0  0  0  0  0  0
   -6.4366   -1.5974   -0.0010 C   0  0  0  0  0  0  0  0  0  0  0  0
   -7.0850    0.7393    0.6862 C   0  0  0  0  0  0  0  0  0  0  0  0
   -5.5587   -0.6182    2.1166 C   0  0  0  0  0  0  0  0  0  0  0  0
   -2.3518   -1.4623    2.4799 H   0  0  0  0  0  0  0  0  0  0  0  0
   -0.7252   -0.7727    2.4749 H   0  0  0  0  0  0  0  0  0  0  0  0
   -1.1169   -2.2226    1.4653 H   0  0  0  0  0  0  0  0  0  0  0  0
    0.7307   -1.1530    0.5688 H   0  0  0  0  0  0  0  0  0  0  0  0
    2.9002   -1.0452   -0.2649 H   0  0  0  0  0  0  0  0  0  0  0  0
    3.0479   -0.3712   -1.8975 H   0  0  0  0  0  0  0  0  0  0  0  0
    3.2937    1.3941    0.4638 H   0  0  0  0  0  0  0  0  0  0  0  0
    5.1983   -1.0937   -1.4724 H   0  0  0  0  0  0  0  0  0  0  0  0
    7.5875   -1.4111   -1.1789 H   0  0  0  0  0  0  0  0  0  0  0  0
   10.7678   -0.8797   -0.1196 H   0  0  0  0  0  0  0  0  0  0  0  0
    7.7531    2.0599    1.3716 H   0  0  0  0  0  0  0  0  0  0  0  0
    5.3362    2.3748    1.0864 H   0  0  0  0  0  0  0  0  0  0  0  0
    1.7294    2.0016   -2.1638 H   0  0  0  0  0  0  0  0  0  0  0  0
   -2.8527    0.2547   -2.2807 H   0  0  0  0  0  0  0  0  0  0  0  0
   -3.5042    1.8971   -2.5490 H   0  0  0  0  0  0  0  0  0  0  0  0
   -3.8959    0.3237    0.4881 H   0  0  0  0  0  0  0  0  0  0  0  0
   -5.6236   -2.3297   -0.0674 H   0  0  0  0  0  0  0  0  0  0  0  0
   -7.2543   -2.0539    0.5680 H   0  0  0  0  0  0  0  0  0  0  0  0
   -6.8013   -1.4247   -1.0184 H   0  0  0  0  0  0  0  0  0  0  0  0
   -7.4491    0.9713   -0.3196 H   0  0  0  0  0  0  0  0  0  0  0  0
   -7.9426    0.3755    1.2652 H   0  0  0  0  0  0  0  0  0  0  0  0
   -6.7503    1.6802    1.1383 H   0  0  0  0  0  0  0  0  0  0  0  0
   -6.4134   -0.9856    2.6935 H   0  0  0  0  0  0  0  0  0  0  0  0
   -4.7766   -1.3834    2.1547 H   0  0  0  0  0  0  0  0  0  0  0  0
   -5.1696    0.2704    2.6241 H   0  0  0  0  0  0  0  0  0  0  0  0
  1  2  1  0
  2  3  1  0
  3  4  2  0
  4  5  1  0
  5  6  1  0
  6  7  1  0
  7  8  1  0
  8  9  2  0
  9 10  1  0
 10 11  2  0
 11 12  1  0
 12 13  2  0
 12 14  1  0
 11 15  1  0
 15 16  2  0
  5 17  2  0
 17 18  1  0
 18 19  1  0
 18 20  2  0
 20 21  1  0
 21 22  1  0
 22 23  1  0
 23 24  2  0
 23 25  1  0
 25 26  1  0
 26 27  1  0
 26 28  1  0
 26 29  1  0
 20  3  1  0
 16  8  1  0
  1 30  1  0
  1 31  1  0
  1 32  1  0
  4 33  1  0
  6 34  1  0
  6 35  1  0
  7 36  1  0
  9 37  1  0
 10 38  1  0
 14 39  1  0
 15 40  1  0
 16 41  1  0
 17 42  1  0
 22 43  1  0
 22 44  1  0
 25 45  1  0
 27 46  1  0
 27 47  1  0
 27 48  1  0
 28 49  1  0
 28 50  1  0
 28 51  1  0
 29 52  1  0
 29 53  1  0
 29 54  1  0
M  END
$$$$
