
     RDKit          3D

 53 56  0  0  0  0  0  0  0  0999 V2000
   -5.7418   -2.4316    2.1788 C   0  0  0  0  0  0  0  0  0  0  0  0
   -5.6254   -1.4267    1.1802 O   0  0  0  0  0  0  0  0  0  0  0  0
   -6.2004   -1.8361   -0.0568 C   0  0  0  0  0  0  0  0  0  0  0  0
   -6.0202   -0.7669   -1.1408 C   0  0  0  0  0  0  0  0  0  0  0  0
   -6.5898    0.6001   -0.7478 C   0  0  0  0  0  0  0  0  0  0  0  0
   -5.4234    1.3254   -0.0981 C   0  0  0  0  0  0  0  0  0  0  0  0
   -4.2456    0.7904   -0.7503 N   0  0  0  0  0  0  0  0  0  0  0  0
   -3.0030    1.3707   -0.5268 C   0  0  0  0  0  0  0  0  0  0  0  0
   -2.9016    2.3601    0.2046 O   0  0  0  0  0  0  0  0  0  0  0  0
   -1.7939    0.8125   -1.1591 C   0  0  0  0  0  0  0  0  0  0  0  0
   -0.4638    1.2465   -0.8994 C   0  0  0  0  0  0  0  0  0  0  0  0
    0.3338    0.4665   -1.6983 C   0  0  0  0  0  0  0  0  0  0  0  0
    1.7916    0.3524   -1.9317 C   0  0  0  0  0  0  0  0  0  0  0  0
    2.4456    1.2978   -1.0736 O   0  0  0  0  0  0  0  0  0  0  0  0
    3.4253    0.7146   -0.3063 C   0  0  0  0  0  0  0  0  0  0  0  0
    3.0552   -0.1426    0.7306 C   0  0  0  0  0  0  0  0  0  0  0  0
    4.0326   -0.7103    1.5454 C   0  0  0  0  0  0  0  0  0  0  0  0
    5.3851   -0.4107    1.3413 C   0  0  0  0  0  0  0  0  0  0  0  0
    6.4075   -0.9290    2.1038 O   0  0  0  0  0  0  0  0  0  0  0  0
    6.0536   -1.7398    3.2171 C   0  0  0  0  0  0  0  0  0  0  0  0
    5.7704    0.4783    0.3019 C   0  0  0  0  0  0  0  0  0  0  0  0
    7.1205    0.8222    0.0614 C   0  0  0  0  0  0  0  0  0  0  0  0
    7.4842    1.7095   -0.9537 C   0  0  0  0  0  0  0  0  0  0  0  0
    6.5048    2.2789   -1.7559 C   0  0  0  0  0  0  0  0  0  0  0  0
    5.1637    1.9558   -1.5439 C   0  0  0  0  0  0  0  0  0  0  0  0
    4.7743    1.0576   -0.5261 C   0  0  0  0  0  0  0  0  0  0  0  0
   -0.4563   -0.3867   -2.4034 O   0  0  0  0  0  0  0  0  0  0  0  0
   -1.7808   -0.1646   -2.0842 N   0  0  0  0  0  0  0  0  0  0  0  0
   -4.5454   -0.4626   -1.4326 C   0  0  0  0  0  0  0  0  0  0  0  0
   -5.1839   -3.3271    1.8846 H   0  0  0  0  0  0  0  0  0  0  0  0
   -5.3137   -2.0428    3.1070 H   0  0  0  0  0  0  0  0  0  0  0  0
   -6.7929   -2.6803    2.3530 H   0  0  0  0  0  0  0  0  0  0  0  0
   -7.2699   -2.0224    0.0925 H   0  0  0  0  0  0  0  0  0  0  0  0
   -5.7313   -2.7730   -0.3835 H   0  0  0  0  0  0  0  0  0  0  0  0
   -6.5124   -1.1393   -2.0474 H   0  0  0  0  0  0  0  0  0  0  0  0
   -6.8864    1.1386   -1.6576 H   0  0  0  0  0  0  0  0  0  0  0  0
   -7.4656    0.5445   -0.0946 H   0  0  0  0  0  0  0  0  0  0  0  0
   -5.3512    1.1147    0.9743 H   0  0  0  0  0  0  0  0  0  0  0  0
   -5.4815    2.4119   -0.2325 H   0  0  0  0  0  0  0  0  0  0  0  0
   -0.1483    2.0226   -0.2159 H   0  0  0  0  0  0  0  0  0  0  0  0
    2.1233   -0.6827   -1.7797 H   0  0  0  0  0  0  0  0  0  0  0  0
    2.0247    0.6302   -2.9659 H   0  0  0  0  0  0  0  0  0  0  0  0
    2.0074   -0.3639    0.9155 H   0  0  0  0  0  0  0  0  0  0  0  0
    3.7048   -1.3770    2.3357 H   0  0  0  0  0  0  0  0  0  0  0  0
    5.4307   -1.1868    3.9305 H   0  0  0  0  0  0  0  0  0  0  0  0
    5.5607   -2.6635    2.8911 H   0  0  0  0  0  0  0  0  0  0  0  0
    6.9780   -2.0199    3.7333 H   0  0  0  0  0  0  0  0  0  0  0  0
    7.9086    0.3952    0.6801 H   0  0  0  0  0  0  0  0  0  0  0  0
    8.5322    1.9556   -1.1095 H   0  0  0  0  0  0  0  0  0  0  0  0
    6.7788    2.9755   -2.5446 H   0  0  0  0  0  0  0  0  0  0  0  0
    4.4118    2.4186   -2.1807 H   0  0  0  0  0  0  0  0  0  0  0  0
   -4.4034   -0.2982   -2.5059 H   0  0  0  0  0  0  0  0  0  0  0  0
   -3.8773   -1.2620   -1.0959 H   0  0  0  0  0  0  0  0  0  0  0  0
  1  2  1  0
  2  3  1  0
  3  4  1  0
  4  5  1  0
  5  6  1  0
  6  7  1  0
  7  8  1  0
  8  9  2  0
  8 10  1  0
 10 11  1  0
 11 12  2  0
 12 13  1  0
 13 14  1  0
 14 15  1  0
 15 16  2  0
 16 17  1  0
 17 18  2  0
 18 19  1  0
 19 20  1  0
 18 21  1  0
 21 22  2  0
 22 23  1  0
 23 24  2  0
 24 25  1  0
 25 26  2  0
 12 27  1  0
 27 28  1  0
  7 29  1  0
 29  4  1  0
 28 10  2  0
 26 15  1  0
 26 21  1  0
  1 30  1  0
  1 31  1  0
  1 32  1  0
  3 33  1  0
  3 34  1  0
  4 35  1  0
  5 36  1  0
  5 37  1  0
  6 38  1  0
  6 39  1  0
 11 40  1  0
 13 41  1  0
 13 42  1  0
 16 43  1  0
 17 44  1  0
 20 45  1  0
 20 46  1  0
 20 47  1  0
 22 48  1  0
 23 49  1  0
 24 50  1  0
 25 51  1  0
 29 52  1  0
 29 53  1  0
M  END
$$$$
