
     RDKit          3D

 54 57  0  0  0  0  0  0  0  0999 V2000
   -8.1209    0.4925    0.7101 C   0  0  0  0  0  0  0  0  0  0  0  0
   -7.2914    0.4700    1.8642 O   0  0  0  0  0  0  0  0  0  0  0  0
   -5.9740    0.1620    1.6682 C   0  0  0  0  0  0  0  0  0  0  0  0
   -5.4160   -0.3501    0.4979 C   0  0  0  0  0  0  0  0  0  0  0  0
   -4.0430   -0.6366    0.4266 C   0  0  0  0  0  0  0  0  0  0  0  0
   -3.2091   -0.4154    1.5268 C   0  0  0  0  0  0  0  0  0  0  0  0
   -1.8074   -0.7023    1.5140 N   0  0  0  0  0  0  0  0  0  0  0  0
   -1.1274   -0.6969    2.7001 N   0  0  0  0  0  0  0  0  0  0  0  0
    0.1031   -1.1083    2.4086 C   0  0  0  0  0  0  0  0  0  0  0  0
    0.2835   -1.3154    1.0382 C   0  0  0  0  0  0  0  0  0  0  0  0
   -0.9429   -1.0162    0.4700 C   0  0  0  0  0  0  0  0  0  0  0  0
   -1.2204   -1.0427   -0.9969 C   0  0  0  0  0  0  0  0  0  0  0  0
    0.0992   -1.0486   -1.8317 C   0  0  0  0  0  0  0  0  0  0  0  0
    0.6491    0.3862   -1.9553 C   0  0  0  0  0  0  0  0  0  0  0  0
   -0.2185   -1.5480   -3.2562 C   0  0  0  0  0  0  0  0  0  0  0  0
    1.1525   -2.0113   -1.1976 C   0  0  0  0  0  0  0  0  0  0  0  0
    1.4978   -1.7271    0.2840 C   0  0  0  0  0  0  0  0  0  0  0  0
    2.4865   -0.6851    0.4289 N   0  0  0  0  0  0  0  0  0  0  0  0
    3.8220   -0.8880    0.1579 C   0  0  0  0  0  0  0  0  0  0  0  0
    4.3078   -1.9759   -0.1229 O   0  0  0  0  0  0  0  0  0  0  0  0
    4.6514    0.3474    0.2109 C   0  0  0  0  0  0  0  0  0  0  0  0
    6.0220    0.2759    0.0248 C   0  0  0  0  0  0  0  0  0  0  0  0
    6.8103    1.3802    0.0382 N   0  0  0  0  0  0  0  0  0  0  0  0
    6.1734    2.5615    0.2461 C   0  0  0  0  0  0  0  0  0  0  0  0
    6.9965    3.8147    0.2359 C   0  0  0  0  0  0  0  0  0  0  0  0
    4.7918    2.6219    0.4274 C   0  0  0  0  0  0  0  0  0  0  0  0
    3.9946    1.5262    0.4150 N   0  0  0  0  0  0  0  0  0  0  0  0
   -3.7858    0.0775    2.7103 C   0  0  0  0  0  0  0  0  0  0  0  0
   -5.1528    0.3648    2.7747 C   0  0  0  0  0  0  0  0  0  0  0  0
   -7.7467    1.2088   -0.0291 H   0  0  0  0  0  0  0  0  0  0  0  0
   -9.1162    0.8236    1.0214 H   0  0  0  0  0  0  0  0  0  0  0  0
   -8.2239   -0.5081    0.2756 H   0  0  0  0  0  0  0  0  0  0  0  0
   -6.0238   -0.5559   -0.3765 H   0  0  0  0  0  0  0  0  0  0  0  0
   -3.6846   -1.0651   -0.5010 H   0  0  0  0  0  0  0  0  0  0  0  0
    0.8240   -1.2176    3.2093 H   0  0  0  0  0  0  0  0  0  0  0  0
   -1.7884   -1.9562   -1.2160 H   0  0  0  0  0  0  0  0  0  0  0  0
   -1.8284   -0.1813   -1.2955 H   0  0  0  0  0  0  0  0  0  0  0  0
    1.6276    0.3948   -2.4493 H   0  0  0  0  0  0  0  0  0  0  0  0
   -0.0261    1.0133   -2.5497 H   0  0  0  0  0  0  0  0  0  0  0  0
    0.7556    0.8770   -0.9855 H   0  0  0  0  0  0  0  0  0  0  0  0
   -0.9809   -0.9213   -3.7346 H   0  0  0  0  0  0  0  0  0  0  0  0
   -0.5957   -2.5768   -3.2445 H   0  0  0  0  0  0  0  0  0  0  0  0
    0.6755   -1.5285   -3.8880 H   0  0  0  0  0  0  0  0  0  0  0  0
    2.0652   -2.0235   -1.8071 H   0  0  0  0  0  0  0  0  0  0  0  0
    0.7414   -3.0304   -1.2466 H   0  0  0  0  0  0  0  0  0  0  0  0
    1.9151   -2.6420    0.7204 H   0  0  0  0  0  0  0  0  0  0  0  0
    2.1945    0.2800    0.5675 H   0  0  0  0  0  0  0  0  0  0  0  0
    6.5282   -0.6666   -0.1543 H   0  0  0  0  0  0  0  0  0  0  0  0
    8.0633    3.5725    0.2228 H   0  0  0  0  0  0  0  0  0  0  0  0
    6.8001    4.4151    1.1300 H   0  0  0  0  0  0  0  0  0  0  0  0
    6.7671    4.4054   -0.6577 H   0  0  0  0  0  0  0  0  0  0  0  0
    4.2833    3.5682    0.5841 H   0  0  0  0  0  0  0  0  0  0  0  0
   -3.1812    0.2517    3.5970 H   0  0  0  0  0  0  0  0  0  0  0  0
   -5.5764    0.7502    3.7000 H   0  0  0  0  0  0  0  0  0  0  0  0
  1  2  1  0
  2  3  1  0
  3  4  2  0
  4  5  1  0
  5  6  2  0
  6  7  1  0
  7  8  1  0
  8  9  2  0
  9 10  1  0
 10 11  2  0
 11 12  1  0
 12 13  1  0
 13 14  1  0
 13 15  1  0
 13 16  1  0
 16 17  1  0
 17 18  1  0
 18 19  1  0
 19 20  2  0
 19 21  1  0
 21 22  2  0
 22 23  1  0
 23 24  2  0
 24 25  1  0
 24 26  1  0
 26 27  2  0
  6 28  1  0
 28 29  2  0
 29  3  1  0
 11  7  1  0
 27 21  1  0
 17 10  1  0
  1 30  1  0
  1 31  1  0
  1 32  1  0
  4 33  1  0
  5 34  1  0
  9 35  1  0
 12 36  1  0
 12 37  1  0
 14 38  1  0
 14 39  1  0
 14 40  1  0
 15 41  1  0
 15 42  1  0
 15 43  1  0
 16 44  1  0
 16 45  1  0
 17 46  1  0
 18 47  1  0
 22 48  1  0
 25 49  1  0
 25 50  1  0
 25 51  1  0
 26 52  1  0
 28 53  1  0
 29 54  1  0
M  END
$$$$
