
     RDKit          3D

 67 71  0  0  0  0  0  0  0  0999 V2000
    8.6512   -3.3002    1.1749 O   0  0  0  0  0  0  0  0  0  0  0  0
    8.3586   -2.8378    0.0845 C   0  0  0  0  0  0  0  0  0  0  0  0
    9.3380   -2.4636   -1.0026 C   0  0  0  0  0  0  0  0  0  0  0  0
    8.4434   -2.2753   -2.2216 C   0  0  0  0  0  0  0  0  0  0  0  0
    7.1147   -1.8369   -1.6332 C   0  0  0  0  0  0  0  0  0  0  0  0
    7.0843   -2.4994   -0.3549 N   0  0  0  0  0  0  0  0  0  0  0  0
    5.9034   -2.5615    0.4945 C   0  0  0  0  0  0  0  0  0  0  0  0
    5.8365   -1.4437    1.5416 C   0  0  0  0  0  0  0  0  0  0  0  0
    5.2728   -0.1358    0.9929 C   0  0  0  0  0  0  0  0  0  0  0  0
    3.8273   -0.2394    0.8434 N   0  0  0  0  0  0  0  0  0  0  0  0
    3.0942    0.6803    0.1321 C   0  0  0  0  0  0  0  0  0  0  0  0
    3.4729    1.0545   -1.2674 C   0  0  0  0  0  0  0  0  0  0  0  0
    2.7048    1.9283   -1.9291 C   0  0  0  0  0  0  0  0  0  0  0  0
    1.5801    2.4700   -1.2810 C   0  0  0  0  0  0  0  0  0  0  0  0
    0.6524    3.3168   -1.6655 N   0  0  0  0  0  0  0  0  0  0  0  0
   -0.2048    3.5049   -0.6040 N   0  0  0  0  0  0  0  0  0  0  0  0
    0.2216    2.7712    0.4060 C   0  0  0  0  0  0  0  0  0  0  0  0
   -0.3735    2.6780    1.7684 C   0  0  0  0  0  0  0  0  0  0  0  0
   -1.6108    1.7826    1.7846 C   0  0  0  0  0  0  0  0  0  0  0  0
   -2.8786    2.5189    1.3788 C   0  0  0  0  0  0  0  0  0  0  0  0
   -2.9561    3.7466    1.4302 O   0  0  0  0  0  0  0  0  0  0  0  0
   -3.9623    1.7364    1.0104 N   0  0  0  0  0  0  0  0  0  0  0  0
   -5.1753    2.3979    0.5250 C   0  0  0  0  0  0  0  0  0  0  0  0
   -5.9569    1.5496   -0.4951 C   0  0  0  0  0  0  0  0  0  0  0  0
   -6.2640    0.2027    0.0244 N   0  0  0  0  0  0  0  0  0  0  0  0
   -7.4159   -0.4586   -0.3799 C   0  0  0  0  0  0  0  0  0  0  0  0
   -8.0041   -0.2097   -1.6321 C   0  0  0  0  0  0  0  0  0  0  0  0
   -9.1668   -0.8682   -2.0543 C   0  0  0  0  0  0  0  0  0  0  0  0
   -9.7762   -1.8026   -1.2258 C   0  0  0  0  0  0  0  0  0  0  0  0
   -9.2172   -2.0777    0.0161 C   0  0  0  0  0  0  0  0  0  0  0  0
   -8.0516   -1.4168    0.4266 C   0  0  0  0  0  0  0  0  0  0  0  0
   -5.4406   -0.2921    1.1364 C   0  0  0  0  0  0  0  0  0  0  0  0
   -4.0074    0.2713    1.0741 C   0  0  0  0  0  0  0  0  0  0  0  0
    1.3384    2.0695    0.0142 N   0  0  0  0  0  0  0  0  0  0  0  0
    2.0503    1.1654    0.7528 N   0  0  0  0  0  0  0  0  0  0  0  0
    9.8386   -1.5311   -0.7220 H   0  0  0  0  0  0  0  0  0  0  0  0
   10.0726   -3.2563   -1.1601 H   0  0  0  0  0  0  0  0  0  0  0  0
    8.3234   -3.2362   -2.7384 H   0  0  0  0  0  0  0  0  0  0  0  0
    8.8491   -1.5568   -2.9386 H   0  0  0  0  0  0  0  0  0  0  0  0
    6.2665   -2.1469   -2.2529 H   0  0  0  0  0  0  0  0  0  0  0  0
    7.0907   -0.7549   -1.4749 H   0  0  0  0  0  0  0  0  0  0  0  0
    5.9613   -3.5172    1.0311 H   0  0  0  0  0  0  0  0  0  0  0  0
    5.0109   -2.5971   -0.1394 H   0  0  0  0  0  0  0  0  0  0  0  0
    5.2053   -1.7867    2.3719 H   0  0  0  0  0  0  0  0  0  0  0  0
    6.8346   -1.2575    1.9582 H   0  0  0  0  0  0  0  0  0  0  0  0
    5.7501    0.1198    0.0475 H   0  0  0  0  0  0  0  0  0  0  0  0
    5.4920    0.6762    1.6947 H   0  0  0  0  0  0  0  0  0  0  0  0
    3.3772   -0.3884    1.7469 H   0  0  0  0  0  0  0  0  0  0  0  0
    4.3340    0.5856   -1.7208 H   0  0  0  0  0  0  0  0  0  0  0  0
    2.9155    2.2217   -2.9497 H   0  0  0  0  0  0  0  0  0  0  0  0
    0.3663    2.2664    2.4658 H   0  0  0  0  0  0  0  0  0  0  0  0
   -0.5986    3.6862    2.1326 H   0  0  0  0  0  0  0  0  0  0  0  0
   -1.7739    1.4297    2.8106 H   0  0  0  0  0  0  0  0  0  0  0  0
   -1.4540    0.9106    1.1407 H   0  0  0  0  0  0  0  0  0  0  0  0
   -4.9251    3.3682    0.0795 H   0  0  0  0  0  0  0  0  0  0  0  0
   -5.8005    2.5920    1.4059 H   0  0  0  0  0  0  0  0  0  0  0  0
   -5.3658    1.4423   -1.4126 H   0  0  0  0  0  0  0  0  0  0  0  0
   -6.8740    2.0979   -0.7412 H   0  0  0  0  0  0  0  0  0  0  0  0
   -7.5465    0.4941   -2.3219 H   0  0  0  0  0  0  0  0  0  0  0  0
   -9.5870   -0.6478   -3.0326 H   0  0  0  0  0  0  0  0  0  0  0  0
  -10.6810   -2.3144   -1.5464 H   0  0  0  0  0  0  0  0  0  0  0  0
   -9.6836   -2.8047    0.6733 H   0  0  0  0  0  0  0  0  0  0  0  0
   -7.6656   -1.6552    1.4133 H   0  0  0  0  0  0  0  0  0  0  0  0
   -5.3662   -1.3858    1.1079 H   0  0  0  0  0  0  0  0  0  0  0  0
   -5.9047   -0.0035    2.0866 H   0  0  0  0  0  0  0  0  0  0  0  0
   -3.4425   -0.0770    1.9445 H   0  0  0  0  0  0  0  0  0  0  0  0
   -3.5018   -0.0987    0.1743 H   0  0  0  0  0  0  0  0  0  0  0  0
  1  2  2  0
  2  3  1  0
  3  4  1  0
  4  5  1  0
  5  6  1  0
  6  7  1  0
  7  8  1  0
  8  9  1  0
  9 10  1  0
 10 11  1  0
 11 12  1  0
 12 13  2  0
 13 14  1  0
 14 15  2  0
 15 16  1  0
 16 17  2  0
 17 18  1  0
 18 19  1  0
 19 20  1  0
 20 21  2  0
 20 22  1  0
 22 23  1  0
 23 24  1  0
 24 25  1  0
 25 26  1  0
 26 27  2  0
 27 28  1  0
 28 29  2  0
 29 30  1  0
 30 31  2  0
 25 32  1  0
 32 33  1  0
 17 34  1  0
 34 35  1  0
  6  2  1  0
 35 11  2  0
 34 14  1  0
 33 22  1  0
 31 26  1  0
  3 36  1  0
  3 37  1  0
  4 38  1  0
  4 39  1  0
  5 40  1  0
  5 41  1  0
  7 42  1  0
  7 43  1  0
  8 44  1  0
  8 45  1  0
  9 46  1  0
  9 47  1  0
 10 48  1  0
 12 49  1  0
 13 50  1  0
 18 51  1  0
 18 52  1  0
 19 53  1  0
 19 54  1  0
 23 55  1  0
 23 56  1  0
 24 57  1  0
 24 58  1  0
 27 59  1  0
 28 60  1  0
 29 61  1  0
 30 62  1  0
 31 63  1  0
 32 64  1  0
 32 65  1  0
 33 66  1  0
 33 67  1  0
M  END
$$$$
