
     RDKit          3D

 58 61  0  0  0  0  0  0  0  0999 V2000
    2.0535   -1.1284    1.4128 O   0  0  0  0  0  0  0  0  0  0  0  0
    2.0776   -0.0158    0.8970 C   0  0  0  0  0  0  0  0  0  0  0  0
    3.2214    0.5316    0.3476 N   0  0  0  0  0  0  0  0  0  0  0  0
    4.5052   -0.1380    0.4774 C   0  0  0  0  0  0  0  0  0  0  0  0
    5.4456    0.2282   -0.6708 C   0  0  0  0  0  0  0  0  0  0  0  0
    6.8132   -0.3845   -0.5009 C   0  0  0  0  0  0  0  0  0  0  0  0
    7.0337   -1.7300   -0.8309 C   0  0  0  0  0  0  0  0  0  0  0  0
    8.2958   -2.3039   -0.6571 C   0  0  0  0  0  0  0  0  0  0  0  0
    9.3423   -1.5346   -0.1533 C   0  0  0  0  0  0  0  0  0  0  0  0
   10.8983   -2.2376    0.0557 Cl  0  0  0  0  0  0  0  0  0  0  0  0
    9.1371   -0.1979    0.1811 C   0  0  0  0  0  0  0  0  0  0  0  0
    7.8747    0.3757    0.0105 C   0  0  0  0  0  0  0  0  0  0  0  0
    0.8533    0.9055    0.8186 C   0  0  0  0  0  0  0  0  0  0  0  0
   -0.3575    0.3276    1.5680 C   0  0  0  0  0  0  0  0  0  0  0  0
   -1.0734   -0.7896    0.8043 C   0  0  0  0  0  0  0  0  0  0  0  0
   -1.4379   -0.4073   -0.6387 C   0  0  0  0  0  0  0  0  0  0  0  0
   -2.5988    0.6050   -0.7150 C   0  0  0  0  0  0  0  0  0  0  0  0
   -3.8324    0.0128   -0.2166 N   0  0  0  0  0  0  0  0  0  0  0  0
   -5.0622    0.6484   -0.1031 C   0  0  0  0  0  0  0  0  0  0  0  0
   -5.1128    2.0154   -0.1704 N   0  0  0  0  0  0  0  0  0  0  0  0
   -6.2423    2.7842   -0.0768 C   0  0  0  0  0  0  0  0  0  0  0  0
   -6.0585    4.4493   -0.1617 S   0  0  0  0  0  0  0  0  0  0  0  0
   -7.4485    2.1607    0.0732 N   0  0  0  0  0  0  0  0  0  0  0  0
   -7.4465    0.8687    0.1478 C   0  0  0  0  0  0  0  0  0  0  0  0
   -8.7520    0.1660    0.3052 C   0  0  0  0  0  0  0  0  0  0  0  0
   -8.8069   -1.1686    0.4003 C   0  0  0  0  0  0  0  0  0  0  0  0
   -7.6210   -1.9878    0.3687 C   0  0  0  0  0  0  0  0  0  0  0  0
   -6.4024   -1.4470    0.2200 C   0  0  0  0  0  0  0  0  0  0  0  0
   -6.2301   -0.0099    0.0811 C   0  0  0  0  0  0  0  0  0  0  0  0
   -0.1912    0.1180   -1.3693 C   0  0  0  0  0  0  0  0  0  0  0  0
    0.4952    1.2660   -0.6296 C   0  0  0  0  0  0  0  0  0  0  0  0
    3.2335    1.5351    0.2170 H   0  0  0  0  0  0  0  0  0  0  0  0
    4.9287    0.1682    1.4425 H   0  0  0  0  0  0  0  0  0  0  0  0
    4.3510   -1.2229    0.5180 H   0  0  0  0  0  0  0  0  0  0  0  0
    5.5364    1.3195   -0.7485 H   0  0  0  0  0  0  0  0  0  0  0  0
    5.0166   -0.0989   -1.6276 H   0  0  0  0  0  0  0  0  0  0  0  0
    6.2229   -2.3410   -1.2238 H   0  0  0  0  0  0  0  0  0  0  0  0
    8.4545   -3.3475   -0.9155 H   0  0  0  0  0  0  0  0  0  0  0  0
    9.9538    0.4019    0.5748 H   0  0  0  0  0  0  0  0  0  0  0  0
    7.7287    1.4199    0.2791 H   0  0  0  0  0  0  0  0  0  0  0  0
    1.1492    1.8268    1.3403 H   0  0  0  0  0  0  0  0  0  0  0  0
   -1.0703    1.1386    1.7640 H   0  0  0  0  0  0  0  0  0  0  0  0
   -0.0523   -0.0512    2.5518 H   0  0  0  0  0  0  0  0  0  0  0  0
   -1.9670   -1.0950    1.3610 H   0  0  0  0  0  0  0  0  0  0  0  0
   -0.4254   -1.6734    0.7749 H   0  0  0  0  0  0  0  0  0  0  0  0
   -1.7607   -1.3220   -1.1544 H   0  0  0  0  0  0  0  0  0  0  0  0
   -2.7512    0.9061   -1.7579 H   0  0  0  0  0  0  0  0  0  0  0  0
   -2.3602    1.5059   -0.1417 H   0  0  0  0  0  0  0  0  0  0  0  0
   -3.9088   -0.9814   -0.4052 H   0  0  0  0  0  0  0  0  0  0  0  0
   -4.2511    2.5291   -0.2693 H   0  0  0  0  0  0  0  0  0  0  0  0
   -9.6407    0.7846    0.3350 H   0  0  0  0  0  0  0  0  0  0  0  0
   -9.7651   -1.6711    0.5114 H   0  0  0  0  0  0  0  0  0  0  0  0
   -7.7430   -3.0634    0.4772 H   0  0  0  0  0  0  0  0  0  0  0  0
   -5.5340   -2.0949    0.2204 H   0  0  0  0  0  0  0  0  0  0  0  0
    0.5234   -0.7059   -1.4893 H   0  0  0  0  0  0  0  0  0  0  0  0
   -0.4584    0.4420   -2.3825 H   0  0  0  0  0  0  0  0  0  0  0  0
   -0.1672    2.1396   -0.6241 H   0  0  0  0  0  0  0  0  0  0  0  0
    1.3840    1.5689   -1.1939 H   0  0  0  0  0  0  0  0  0  0  0  0
  1  2  2  0
  2  3  1  0
  3  4  1  0
  4  5  1  0
  5  6  1  0
  6  7  2  0
  7  8  1  0
  8  9  2  0
  9 10  1  0
  9 11  1  0
 11 12  2  0
  2 13  1  0
 13 14  1  0
 14 15  1  0
 15 16  1  0
 16 17  1  0
 17 18  1  0
 18 19  1  0
 19 20  1  0
 20 21  1  0
 21 22  2  0
 21 23  1  0
 23 24  2  0
 24 25  1  0
 25 26  2  0
 26 27  1  0
 27 28  2  0
 28 29  1  0
 16 30  1  0
 30 31  1  0
 12  6  1  0
 31 13  1  0
 29 19  2  0
 29 24  1  0
  3 32  1  0
  4 33  1  0
  4 34  1  0
  5 35  1  0
  5 36  1  0
  7 37  1  0
  8 38  1  0
 11 39  1  0
 12 40  1  0
 13 41  1  0
 14 42  1  0
 14 43  1  0
 15 44  1  0
 15 45  1  0
 16 46  1  0
 17 47  1  0
 17 48  1  0
 18 49  1  0
 20 50  1  0
 25 51  1  0
 26 52  1  0
 27 53  1  0
 28 54  1  0
 30 55  1  0
 30 56  1  0
 31 57  1  0
 31 58  1  0
M  END
$$$$
