
     RDKit          3D

 45 46  0  0  0  0  0  0  0  0999 V2000
   -4.0580   -1.5667    3.4313 C   0  0  0  0  0  0  0  0  0  0  0  0
   -3.6306   -0.3391    2.8398 O   0  0  0  0  0  0  0  0  0  0  0  0
   -2.6388   -0.4886    1.9136 C   0  0  0  0  0  0  0  0  0  0  0  0
   -2.1593   -1.5629    1.5696 O   0  0  0  0  0  0  0  0  0  0  0  0
   -2.2276    0.8755    1.3477 C   0  0  0  0  0  0  0  0  0  0  0  0
   -3.3321    1.4701    0.4597 C   0  0  0  0  0  0  0  0  0  0  0  0
   -3.5911    0.7212   -0.8289 C   0  0  0  0  0  0  0  0  0  0  0  0
   -4.4916   -0.3518   -0.8646 C   0  0  0  0  0  0  0  0  0  0  0  0
   -4.7085   -1.0531   -2.0516 C   0  0  0  0  0  0  0  0  0  0  0  0
   -4.0317   -0.6879   -3.2135 C   0  0  0  0  0  0  0  0  0  0  0  0
   -3.1382    0.3807   -3.1911 C   0  0  0  0  0  0  0  0  0  0  0  0
   -2.9188    1.0827   -2.0054 C   0  0  0  0  0  0  0  0  0  0  0  0
   -0.9490    0.7482    0.6374 N   0  0  0  0  0  0  0  0  0  0  0  0
    0.2432    0.8856    1.3170 C   0  0  0  0  0  0  0  0  0  0  0  0
    0.3157    1.3081    2.4656 O   0  0  0  0  0  0  0  0  0  0  0  0
    1.4487    0.5192    0.4801 C   0  0  0  0  0  0  0  0  0  0  0  0
    2.7248    0.5519    1.3120 C   0  0  0  0  0  0  0  0  0  0  0  0
    3.9178    0.3606    0.5055 N   0  0  0  0  0  0  0  0  0  0  0  0
    4.2776   -0.8813    0.0103 C   0  0  0  0  0  0  0  0  0  0  0  0
    3.5671   -1.8670    0.1944 O   0  0  0  0  0  0  0  0  0  0  0  0
    5.5268   -0.9116   -0.7308 C   0  0  0  0  0  0  0  0  0  0  0  0
    6.4726    0.0507   -1.0487 C   0  0  0  0  0  0  0  0  0  0  0  0
    7.4846   -0.5949   -1.8027 C   0  0  0  0  0  0  0  0  0  0  0  0
    7.1030   -1.9096   -1.9039 C   0  0  0  0  0  0  0  0  0  0  0  0
    5.9258   -2.1118   -1.2631 O   0  0  0  0  0  0  0  0  0  0  0  0
   -4.4868   -2.2279    2.6718 H   0  0  0  0  0  0  0  0  0  0  0  0
   -4.8336   -1.3360    4.1668 H   0  0  0  0  0  0  0  0  0  0  0  0
   -3.2257   -2.0552    3.9476 H   0  0  0  0  0  0  0  0  0  0  0  0
   -2.0728    1.5409    2.2060 H   0  0  0  0  0  0  0  0  0  0  0  0
   -4.2732    1.5379    1.0209 H   0  0  0  0  0  0  0  0  0  0  0  0
   -3.0668    2.5062    0.2095 H   0  0  0  0  0  0  0  0  0  0  0  0
   -5.0317   -0.6540    0.0299 H   0  0  0  0  0  0  0  0  0  0  0  0
   -5.4051   -1.8875   -2.0693 H   0  0  0  0  0  0  0  0  0  0  0  0
   -4.2013   -1.2364   -4.1364 H   0  0  0  0  0  0  0  0  0  0  0  0
   -2.6122    0.6669   -4.0982 H   0  0  0  0  0  0  0  0  0  0  0  0
   -2.2176    1.9148   -2.0054 H   0  0  0  0  0  0  0  0  0  0  0  0
   -0.9498    0.0776   -0.1262 H   0  0  0  0  0  0  0  0  0  0  0  0
    1.5199    1.2339   -0.3484 H   0  0  0  0  0  0  0  0  0  0  0  0
    1.2950   -0.4773    0.0515 H   0  0  0  0  0  0  0  0  0  0  0  0
    2.8393    1.5187    1.8147 H   0  0  0  0  0  0  0  0  0  0  0  0
    2.6974   -0.2246    2.0855 H   0  0  0  0  0  0  0  0  0  0  0  0
    4.5299    1.1502    0.3666 H   0  0  0  0  0  0  0  0  0  0  0  0
    6.4475    1.0950   -0.7743 H   0  0  0  0  0  0  0  0  0  0  0  0
    8.3808   -0.1572   -2.2196 H   0  0  0  0  0  0  0  0  0  0  0  0
    7.5343   -2.7835   -2.3725 H   0  0  0  0  0  0  0  0  0  0  0  0
  1  2  1  0
  2  3  1  0
  3  4  2  0
  3  5  1  0
  5  6  1  0
  6  7  1  0
  7  8  2  0
  8  9  1  0
  9 10  2  0
 10 11  1  0
 11 12  2  0
  5 13  1  0
 13 14  1  0
 14 15  2  0
 14 16  1  0
 16 17  1  0
 17 18  1  0
 18 19  1  0
 19 20  2  0
 19 21  1  0
 21 22  2  0
 22 23  1  0
 23 24  2  0
 24 25  1  0
 12  7  1  0
 25 21  1  0
  1 26  1  0
  1 27  1  0
  1 28  1  0
  5 29  1  0
  6 30  1  0
  6 31  1  0
  8 32  1  0
  9 33  1  0
 10 34  1  0
 11 35  1  0
 12 36  1  0
 13 37  1  0
 16 38  1  0
 16 39  1  0
 17 40  1  0
 17 41  1  0
 18 42  1  0
 22 43  1  0
 23 44  1  0
 24 45  1  0
M  END
$$$$
