
     RDKit          3D

 45 47  0  0  0  0  0  0  0  0999 V2000
    4.8557    1.0484   -2.6033 C   0  0  0  0  0  0  0  0  0  0  0  0
    4.5213   -0.3435   -3.0814 C   0  0  0  0  0  0  0  0  0  0  0  0
    4.6968   -0.6723   -4.3226 N   0  0  0  0  0  0  0  0  0  0  0  0
    3.9772   -1.3337   -2.0693 C   0  0  0  0  0  0  0  0  0  0  0  0
    4.3818   -2.7075   -2.3821 C   0  0  0  0  0  0  0  0  0  0  0  0
    4.6602   -3.8255   -2.5208 N   0  0  0  0  0  0  0  0  0  0  0  0
    2.4741   -1.2229   -1.9215 C   0  0  0  0  0  0  0  0  0  0  0  0
    1.8645   -0.1992   -2.2560 O   0  0  0  0  0  0  0  0  0  0  0  0
    1.7339   -2.3784   -1.2446 C   0  0  0  0  0  0  0  0  0  0  0  0
    0.5835   -1.9094   -0.5383 O   0  0  0  0  0  0  0  0  0  0  0  0
    0.8970   -1.1787    0.5623 C   0  0  0  0  0  0  0  0  0  0  0  0
    2.0167   -0.9990    1.0103 O   0  0  0  0  0  0  0  0  0  0  0  0
   -0.3443   -0.6219    1.1246 C   0  0  0  0  0  0  0  0  0  0  0  0
   -1.1126    0.1949    0.2900 C   0  0  0  0  0  0  0  0  0  0  0  0
   -2.2747    0.7514    0.7943 C   0  0  0  0  0  0  0  0  0  0  0  0
   -3.1606    1.6445    0.0116 C   0  0  0  0  0  0  0  0  0  0  0  0
   -3.1910    1.6355   -1.3979 C   0  0  0  0  0  0  0  0  0  0  0  0
   -4.0260    2.4980   -2.1198 C   0  0  0  0  0  0  0  0  0  0  0  0
   -4.8600    3.3864   -1.4480 C   0  0  0  0  0  0  0  0  0  0  0  0
   -4.8558    3.4067   -0.0573 C   0  0  0  0  0  0  0  0  0  0  0  0
   -5.9894    4.6077    0.8647 Br  0  0  0  0  0  0  0  0  0  0  0  0
   -4.0200    2.5509    0.6644 C   0  0  0  0  0  0  0  0  0  0  0  0
   -2.6607    0.5149    2.0730 N   0  0  0  0  0  0  0  0  0  0  0  0
   -1.9167   -0.2657    2.8762 C   0  0  0  0  0  0  0  0  0  0  0  0
   -2.3531   -0.4803    4.1763 C   0  0  0  0  0  0  0  0  0  0  0  0
   -1.6385   -1.2754    5.0752 C   0  0  0  0  0  0  0  0  0  0  0  0
   -0.4551   -1.8760    4.6718 C   0  0  0  0  0  0  0  0  0  0  0  0
    0.0033   -1.6794    3.3713 C   0  0  0  0  0  0  0  0  0  0  0  0
   -0.7206   -0.8720    2.4571 C   0  0  0  0  0  0  0  0  0  0  0  0
    5.8973    1.0749   -2.2741 H   0  0  0  0  0  0  0  0  0  0  0  0
    4.7191    1.7722   -3.4113 H   0  0  0  0  0  0  0  0  0  0  0  0
    4.2089    1.3297   -1.7674 H   0  0  0  0  0  0  0  0  0  0  0  0
    5.0632    0.1149   -4.8733 H   0  0  0  0  0  0  0  0  0  0  0  0
    4.4000   -1.0678   -1.0919 H   0  0  0  0  0  0  0  0  0  0  0  0
    1.3936   -3.0678   -2.0225 H   0  0  0  0  0  0  0  0  0  0  0  0
    2.3850   -2.9294   -0.5581 H   0  0  0  0  0  0  0  0  0  0  0  0
   -0.7768    0.4000   -0.7212 H   0  0  0  0  0  0  0  0  0  0  0  0
   -2.5733    0.9434   -1.9660 H   0  0  0  0  0  0  0  0  0  0  0  0
   -4.0237    2.4717   -3.2074 H   0  0  0  0  0  0  0  0  0  0  0  0
   -5.5060    4.0532   -2.0136 H   0  0  0  0  0  0  0  0  0  0  0  0
   -4.0317    2.5880    1.7533 H   0  0  0  0  0  0  0  0  0  0  0  0
   -3.2798   -0.0120    4.5015 H   0  0  0  0  0  0  0  0  0  0  0  0
   -2.0102   -1.4192    6.0862 H   0  0  0  0  0  0  0  0  0  0  0  0
    0.1111   -2.4935    5.3642 H   0  0  0  0  0  0  0  0  0  0  0  0
    0.9363   -2.1569    3.0789 H   0  0  0  0  0  0  0  0  0  0  0  0
  1  2  1  0
  2  3  2  3
  2  4  1  0
  4  5  1  0
  5  6  3  0
  4  7  1  0
  7  8  2  0
  7  9  1  0
  9 10  1  0
 10 11  1  0
 11 12  2  0
 11 13  1  0
 13 14  2  0
 14 15  1  0
 15 16  1  0
 16 17  2  0
 17 18  1  0
 18 19  2  0
 19 20  1  0
 20 21  1  0
 20 22  2  0
 15 23  2  0
 23 24  1  0
 24 25  2  0
 25 26  1  0
 26 27  2  0
 27 28  1  0
 28 29  2  0
 29 13  1  0
 22 16  1  0
 29 24  1  0
  1 30  1  0
  1 31  1  0
  1 32  1  0
  3 33  1  0
  4 34  1  0
  9 35  1  0
  9 36  1  0
 14 37  1  0
 17 38  1  0
 18 39  1  0
 19 40  1  0
 22 41  1  0
 25 42  1  0
 26 43  1  0
 27 44  1  0
 28 45  1  0
M  END
$$$$
