
     RDKit          3D

 42 44  0  0  0  0  0  0  0  0999 V2000
   -5.6565    1.8276   -0.2731 C   0  0  0  0  0  0  0  0  0  0  0  0
   -5.2968    0.4523   -0.6110 N   0  0  0  0  0  0  0  0  0  0  0  0
   -6.4040   -0.4124   -1.0130 C   0  0  0  0  0  0  0  0  0  0  0  0
   -4.1676   -0.1229   -0.0154 C   0  0  0  0  0  0  0  0  0  0  0  0
   -3.9016   -1.5019   -0.0941 C   0  0  0  0  0  0  0  0  0  0  0  0
   -2.7648   -2.0836    0.4888 C   0  0  0  0  0  0  0  0  0  0  0  0
   -1.8357   -1.2956    1.1620 C   0  0  0  0  0  0  0  0  0  0  0  0
   -0.6738   -1.9193    1.7978 C   0  0  0  0  0  0  0  0  0  0  0  0
    0.6215   -1.7114    1.5115 C   0  0  0  0  0  0  0  0  0  0  0  0
    1.1382   -0.8444    0.4164 C   0  0  0  0  0  0  0  0  0  0  0  0
    0.4784   -0.6337   -0.6020 O   0  0  0  0  0  0  0  0  0  0  0  0
    2.5330   -0.3143    0.5247 C   0  0  0  0  0  0  0  0  0  0  0  0
    3.1565    0.0303   -0.6217 C   0  0  0  0  0  0  0  0  0  0  0  0
    2.5933   -0.0560   -1.8844 O   0  0  0  0  0  0  0  0  0  0  0  0
    4.5337    0.5247   -0.6062 C   0  0  0  0  0  0  0  0  0  0  0  0
    5.2365    0.8823   -1.7634 C   0  0  0  0  0  0  0  0  0  0  0  0
    6.5561    1.3405   -1.6827 C   0  0  0  0  0  0  0  0  0  0  0  0
    7.1879    1.4457   -0.4436 C   0  0  0  0  0  0  0  0  0  0  0  0
    6.5007    1.0941    0.7151 C   0  0  0  0  0  0  0  0  0  0  0  0
    5.1858    0.6401    0.6150 C   0  0  0  0  0  0  0  0  0  0  0  0
    4.5329    0.3063    1.8106 O   0  0  0  0  0  0  0  0  0  0  0  0
    3.2140   -0.1279    1.8262 C   0  0  0  0  0  0  0  0  0  0  0  0
    2.6544   -0.3398    2.8970 O   0  0  0  0  0  0  0  0  0  0  0  0
   -2.0649    0.0751    1.2514 C   0  0  0  0  0  0  0  0  0  0  0  0
   -3.2053    0.6453    0.6643 C   0  0  0  0  0  0  0  0  0  0  0  0
   -6.5539    2.1483   -0.8143 H   0  0  0  0  0  0  0  0  0  0  0  0
   -5.8630    1.9290    0.7980 H   0  0  0  0  0  0  0  0  0  0  0  0
   -4.8659    2.5276   -0.5644 H   0  0  0  0  0  0  0  0  0  0  0  0
   -6.0939   -1.1175   -1.7916 H   0  0  0  0  0  0  0  0  0  0  0  0
   -7.2265    0.1684   -1.4455 H   0  0  0  0  0  0  0  0  0  0  0  0
   -6.8053   -0.9632   -0.1551 H   0  0  0  0  0  0  0  0  0  0  0  0
   -4.5737   -2.1710   -0.6218 H   0  0  0  0  0  0  0  0  0  0  0  0
   -2.6149   -3.1561    0.3953 H   0  0  0  0  0  0  0  0  0  0  0  0
   -0.9251   -2.6092    2.6015 H   0  0  0  0  0  0  0  0  0  0  0  0
    1.3642   -2.2337    2.1066 H   0  0  0  0  0  0  0  0  0  0  0  0
    1.6342   -0.2640   -1.7921 H   0  0  0  0  0  0  0  0  0  0  0  0
    4.7631    0.8065   -2.7405 H   0  0  0  0  0  0  0  0  0  0  0  0
    7.0888    1.6146   -2.5904 H   0  0  0  0  0  0  0  0  0  0  0  0
    8.2131    1.8024   -0.3835 H   0  0  0  0  0  0  0  0  0  0  0  0
    6.9828    1.1750    1.6851 H   0  0  0  0  0  0  0  0  0  0  0  0
   -1.3632    0.7203    1.7734 H   0  0  0  0  0  0  0  0  0  0  0  0
   -3.3127    1.7213    0.7576 H   0  0  0  0  0  0  0  0  0  0  0  0
  1  2  1  0
  2  3  1  0
  2  4  1  0
  4  5  2  0
  5  6  1  0
  6  7  2  0
  7  8  1  0
  8  9  2  3
  9 10  1  0
 10 11  2  0
 10 12  1  0
 12 13  2  0
 13 14  1  0
 13 15  1  0
 15 16  2  0
 16 17  1  0
 17 18  2  0
 18 19  1  0
 19 20  2  0
 20 21  1  0
 21 22  1  0
 22 23  2  0
  7 24  1  0
 24 25  2  0
 25  4  1  0
 22 12  1  0
 20 15  1  0
  1 26  1  0
  1 27  1  0
  1 28  1  0
  3 29  1  0
  3 30  1  0
  3 31  1  0
  5 32  1  0
  6 33  1  0
  8 34  1  0
  9 35  1  0
 14 36  1  0
 16 37  1  0
 17 38  1  0
 18 39  1  0
 19 40  1  0
 24 41  1  0
 25 42  1  0
M  END
$$$$
