
     RDKit          3D

 73 76  0  0  0  0  0  0  0  0999 V2000
    8.1173    0.7315    1.8939 C   0  0  0  0  0  0  0  0  0  0  0  0
    7.1019    0.1238    0.9251 C   0  0  0  0  0  0  0  0  0  0  0  0
    7.8126   -0.4254   -0.3190 C   0  0  0  0  0  0  0  0  0  0  0  0
    6.8207   -0.9337   -1.3737 C   0  0  0  0  0  0  0  0  0  0  0  0
    6.2678   -2.3143   -1.0160 C   0  0  0  0  0  0  0  0  0  0  0  0
    5.7243    0.1161   -1.6351 C   0  0  0  0  0  0  0  0  0  0  0  0
    5.0628    0.6924   -0.4570 N   0  0  0  0  0  0  0  0  0  0  0  0
    4.0108   -0.1578    0.1124 C   0  0  0  0  0  0  0  0  0  0  0  0
    2.9469    0.6905    0.8241 C   0  0  0  0  0  0  0  0  0  0  0  0
    1.7780   -0.1541    1.3243 C   0  0  0  0  0  0  0  0  0  0  0  0
    0.9560   -0.6615    0.2427 N   0  0  0  0  0  0  0  0  0  0  0  0
   -0.0417   -1.5866    0.4993 C   0  0  0  0  0  0  0  0  0  0  0  0
   -0.2051   -2.1006    1.6030 O   0  0  0  0  0  0  0  0  0  0  0  0
   -0.9128   -1.9010   -0.7246 C   0  0  0  0  0  0  0  0  0  0  0  0
   -2.0838   -2.7035   -0.3648 N   0  0  0  0  0  0  0  0  0  0  0  0
   -1.9204   -4.0895   -0.4290 C   0  0  0  0  0  0  0  0  0  0  0  0
   -0.9172   -4.6122   -0.9265 O   0  0  0  0  0  0  0  0  0  0  0  0
   -2.9665   -4.9568    0.2316 C   0  0  0  0  0  0  0  0  0  0  0  0
   -4.6264   -4.5004   -0.2819 S   0  0  0  0  0  0  0  0  0  0  0  0
   -4.5106   -2.7778    0.1514 C   0  0  0  0  0  0  0  0  0  0  0  0
   -5.7017   -2.1335    0.5263 C   0  0  0  0  0  0  0  0  0  0  0  0
   -5.7045   -0.7782    0.8407 C   0  0  0  0  0  0  0  0  0  0  0  0
   -4.5087   -0.0693    0.7725 C   0  0  0  0  0  0  0  0  0  0  0  0
   -4.5152    1.6680    1.1410 S   0  0  0  0  0  6  0  0  0  0  0  0
   -3.2165    2.2104    0.7983 O   0  0  0  0  0  0  0  0  0  0  0  0
   -5.0776    1.8196    2.4647 O   0  0  0  0  0  0  0  0  0  0  0  0
   -5.6315    2.2850    0.0059 N   0  0  0  0  0  0  0  0  0  0  0  0
   -5.2239    2.2038   -1.4149 C   0  0  0  0  0  0  0  0  0  0  0  0
   -6.4680    2.3382   -2.2917 C   0  0  0  0  0  0  0  0  0  0  0  0
   -7.4301    3.4251   -1.8057 C   0  0  0  0  0  0  0  0  0  0  0  0
   -6.7598    4.3702   -0.8181 C   0  0  0  0  0  0  0  0  0  0  0  0
   -6.1843    3.6188    0.3843 C   0  0  0  0  0  0  0  0  0  0  0  0
   -3.3139   -0.7000    0.4031 C   0  0  0  0  0  0  0  0  0  0  0  0
   -3.2936   -2.0665    0.0780 C   0  0  0  0  0  0  0  0  0  0  0  0
    6.0471    1.1710    0.5244 C   0  0  0  0  0  0  0  0  0  0  0  0
    8.8736   -0.0070    2.1775 H   0  0  0  0  0  0  0  0  0  0  0  0
    7.6212    1.0718    2.8082 H   0  0  0  0  0  0  0  0  0  0  0  0
    8.6310    1.5897    1.4485 H   0  0  0  0  0  0  0  0  0  0  0  0
    6.6089   -0.7044    1.4481 H   0  0  0  0  0  0  0  0  0  0  0  0
    8.4188    0.3728   -0.7683 H   0  0  0  0  0  0  0  0  0  0  0  0
    8.5112   -1.2224   -0.0367 H   0  0  0  0  0  0  0  0  0  0  0  0
    7.3771   -1.0612   -2.3124 H   0  0  0  0  0  0  0  0  0  0  0  0
    5.5245   -2.6376   -1.7521 H   0  0  0  0  0  0  0  0  0  0  0  0
    5.8057   -2.3461   -0.0275 H   0  0  0  0  0  0  0  0  0  0  0  0
    7.0759   -3.0546   -1.0163 H   0  0  0  0  0  0  0  0  0  0  0  0
    4.9802   -0.2804   -2.3378 H   0  0  0  0  0  0  0  0  0  0  0  0
    6.1916    0.9524   -2.1747 H   0  0  0  0  0  0  0  0  0  0  0  0
    3.5130   -0.7115   -0.6930 H   0  0  0  0  0  0  0  0  0  0  0  0
    4.4106   -0.9014    0.8085 H   0  0  0  0  0  0  0  0  0  0  0  0
    3.3896    1.1985    1.6879 H   0  0  0  0  0  0  0  0  0  0  0  0
    2.5753    1.4690    0.1456 H   0  0  0  0  0  0  0  0  0  0  0  0
    1.1257    0.4569    1.9595 H   0  0  0  0  0  0  0  0  0  0  0  0
    2.1318   -0.9962    1.9303 H   0  0  0  0  0  0  0  0  0  0  0  0
    0.8839   -0.0997   -0.5965 H   0  0  0  0  0  0  0  0  0  0  0  0
   -0.2838   -2.4413   -1.4408 H   0  0  0  0  0  0  0  0  0  0  0  0
   -1.2247   -0.9779   -1.2248 H   0  0  0  0  0  0  0  0  0  0  0  0
   -2.7932   -5.9997   -0.0524 H   0  0  0  0  0  0  0  0  0  0  0  0
   -2.8600   -4.8787    1.3188 H   0  0  0  0  0  0  0  0  0  0  0  0
   -6.6371   -2.6887    0.5739 H   0  0  0  0  0  0  0  0  0  0  0  0
   -6.6286   -0.2845    1.1329 H   0  0  0  0  0  0  0  0  0  0  0  0
   -4.5023    2.9966   -1.6440 H   0  0  0  0  0  0  0  0  0  0  0  0
   -4.7439    1.2471   -1.6399 H   0  0  0  0  0  0  0  0  0  0  0  0
   -7.0060    1.3825   -2.3225 H   0  0  0  0  0  0  0  0  0  0  0  0
   -6.1551    2.5482   -3.3215 H   0  0  0  0  0  0  0  0  0  0  0  0
   -7.8209    3.9856   -2.6632 H   0  0  0  0  0  0  0  0  0  0  0  0
   -8.2953    2.9529   -1.3216 H   0  0  0  0  0  0  0  0  0  0  0  0
   -5.9550    4.9130   -1.3301 H   0  0  0  0  0  0  0  0  0  0  0  0
   -7.4710    5.1289   -0.4720 H   0  0  0  0  0  0  0  0  0  0  0  0
   -5.4167    4.2411    0.8585 H   0  0  0  0  0  0  0  0  0  0  0  0
   -6.9840    3.4479    1.1146 H   0  0  0  0  0  0  0  0  0  0  0  0
   -2.4084   -0.1017    0.3968 H   0  0  0  0  0  0  0  0  0  0  0  0
    5.5479    1.5569    1.4206 H   0  0  0  0  0  0  0  0  0  0  0  0
    6.5559    2.0418    0.0878 H   0  0  0  0  0  0  0  0  0  0  0  0
  1  2  1  0
  2  3  1  0
  3  4  1  0
  4  5  1  0
  4  6  1  0
  6  7  1  0
  7  8  1  0
  8  9  1  0
  9 10  1  0
 10 11  1  0
 11 12  1  0
 12 13  2  0
 12 14  1  0
 14 15  1  0
 15 16  1  0
 16 17  2  0
 16 18  1  0
 18 19  1  0
 19 20  1  0
 20 21  2  0
 21 22  1  0
 22 23  2  0
 23 24  1  0
 24 25  2  0
 24 26  2  0
 24 27  1  0
 27 28  1  0
 28 29  1  0
 29 30  1  0
 30 31  1  0
 31 32  1  0
 23 33  1  0
 33 34  2  0
  7 35  1  0
 35  2  1  0
 34 15  1  0
 34 20  1  0
 32 27  1  0
  1 36  1  0
  1 37  1  0
  1 38  1  0
  2 39  1  0
  3 40  1  0
  3 41  1  0
  4 42  1  0
  5 43  1  0
  5 44  1  0
  5 45  1  0
  6 46  1  0
  6 47  1  0
  8 48  1  0
  8 49  1  0
  9 50  1  0
  9 51  1  0
 10 52  1  0
 10 53  1  0
 11 54  1  0
 14 55  1  0
 14 56  1  0
 18 57  1  0
 18 58  1  0
 21 59  1  0
 22 60  1  0
 28 61  1  0
 28 62  1  0
 29 63  1  0
 29 64  1  0
 30 65  1  0
 30 66  1  0
 31 67  1  0
 31 68  1  0
 32 69  1  0
 32 70  1  0
 33 71  1  0
 35 72  1  0
 35 73  1  0
M  END
$$$$
