
     RDKit          3D

 48 48  0  0  0  0  0  0  0  0999 V2000
    3.1108   -0.8536   -1.4360 C   0  0  0  0  0  0  0  0  0  0  0  0
    3.2417   -0.7278    0.0839 C   0  0  0  0  0  0  0  0  0  0  0  0
    2.6267    0.5889    0.5898 C   0  0  0  0  0  0  0  0  0  0  0  0
    1.1902    0.6524    0.3827 N   0  0  0  0  0  0  0  0  0  0  0  0
    0.3109    0.0024    1.2243 C   0  0  0  0  0  0  0  0  0  0  0  0
    0.6631   -0.6327    2.2120 O   0  0  0  0  0  0  0  0  0  0  0  0
   -1.1289    0.0681    0.8506 C   0  0  0  0  0  0  0  0  0  0  0  0
   -1.9694   -0.9739    1.2476 C   0  0  0  0  0  0  0  0  0  0  0  0
   -3.3299   -0.9554    0.9169 C   0  0  0  0  0  0  0  0  0  0  0  0
   -3.8893    0.1083    0.1895 C   0  0  0  0  0  0  0  0  0  0  0  0
   -5.3808    0.1618   -0.1884 C   0  0  0  0  0  0  0  0  0  0  0  0
   -6.0330    1.4066    0.4509 C   0  0  0  0  0  0  0  0  0  0  0  0
   -6.1888   -1.0696    0.2799 C   0  0  0  0  0  0  0  0  0  0  0  0
   -5.5254    0.2441   -1.7235 C   0  0  0  0  0  0  0  0  0  0  0  0
   -3.0272    1.1587   -0.1849 C   0  0  0  0  0  0  0  0  0  0  0  0
   -1.6660    1.1444    0.1420 C   0  0  0  0  0  0  0  0  0  0  0  0
    4.6996   -0.8741    0.5745 C   0  0  0  0  0  0  0  0  0  0  0  0
    5.5855    0.2077    0.1050 N   0  0  0  0  0  0  0  0  0  0  0  0
    6.4202    0.7082    1.2010 C   0  0  0  0  0  0  0  0  0  0  0  0
    6.4469   -0.2439   -0.9917 C   0  0  0  0  0  0  0  0  0  0  0  0
    3.6078   -1.7608   -1.7952 H   0  0  0  0  0  0  0  0  0  0  0  0
    3.5450    0.0077   -1.9537 H   0  0  0  0  0  0  0  0  0  0  0  0
    2.0583   -0.9197   -1.7319 H   0  0  0  0  0  0  0  0  0  0  0  0
    2.6810   -1.5649    0.5213 H   0  0  0  0  0  0  0  0  0  0  0  0
    3.0590    1.4536    0.0748 H   0  0  0  0  0  0  0  0  0  0  0  0
    2.8164    0.7067    1.6632 H   0  0  0  0  0  0  0  0  0  0  0  0
    0.8647    0.9774   -0.5167 H   0  0  0  0  0  0  0  0  0  0  0  0
   -1.5677   -1.8102    1.8170 H   0  0  0  0  0  0  0  0  0  0  0  0
   -3.9327   -1.7959    1.2504 H   0  0  0  0  0  0  0  0  0  0  0  0
   -5.5900    2.3399    0.0863 H   0  0  0  0  0  0  0  0  0  0  0  0
   -5.9218    1.3939    1.5416 H   0  0  0  0  0  0  0  0  0  0  0  0
   -7.1049    1.4511    0.2253 H   0  0  0  0  0  0  0  0  0  0  0  0
   -6.1706   -1.1734    1.3711 H   0  0  0  0  0  0  0  0  0  0  0  0
   -7.2413   -0.9878   -0.0173 H   0  0  0  0  0  0  0  0  0  0  0  0
   -5.8013   -1.9967   -0.1583 H   0  0  0  0  0  0  0  0  0  0  0  0
   -6.5804    0.2470   -2.0216 H   0  0  0  0  0  0  0  0  0  0  0  0
   -5.0432   -0.6113   -2.2114 H   0  0  0  0  0  0  0  0  0  0  0  0
   -5.0748    1.1541   -2.1346 H   0  0  0  0  0  0  0  0  0  0  0  0
   -3.4108    2.0167   -0.7339 H   0  0  0  0  0  0  0  0  0  0  0  0
   -1.0519    1.9945   -0.1399 H   0  0  0  0  0  0  0  0  0  0  0  0
    5.0891   -1.8608    0.2896 H   0  0  0  0  0  0  0  0  0  0  0  0
    4.6638   -0.8901    1.6730 H   0  0  0  0  0  0  0  0  0  0  0  0
    5.7949    1.1166    2.0030 H   0  0  0  0  0  0  0  0  0  0  0  0
    7.0580    1.5300    0.8561 H   0  0  0  0  0  0  0  0  0  0  0  0
    7.0612   -0.0742    1.6235 H   0  0  0  0  0  0  0  0  0  0  0  0
    7.1253   -1.0469   -0.6802 H   0  0  0  0  0  0  0  0  0  0  0  0
    5.8579   -0.6057   -1.8394 H   0  0  0  0  0  0  0  0  0  0  0  0
    7.0521    0.5886   -1.3684 H   0  0  0  0  0  0  0  0  0  0  0  0
  1  2  1  0
  2  3  1  0
  3  4  1  0
  4  5  1  0
  5  6  2  0
  5  7  1  0
  7  8  2  0
  8  9  1  0
  9 10  2  0
 10 11  1  0
 11 12  1  0
 11 13  1  0
 11 14  1  0
 10 15  1  0
 15 16  2  0
  2 17  1  0
 17 18  1  0
 18 19  1  0
 18 20  1  0
 16  7  1  0
  1 21  1  0
  1 22  1  0
  1 23  1  0
  2 24  1  0
  3 25  1  0
  3 26  1  0
  4 27  1  0
  8 28  1  0
  9 29  1  0
 12 30  1  0
 12 31  1  0
 12 32  1  0
 13 33  1  0
 13 34  1  0
 13 35  1  0
 14 36  1  0
 14 37  1  0
 14 38  1  0
 15 39  1  0
 16 40  1  0
 17 41  1  0
 17 42  1  0
 19 43  1  0
 19 44  1  0
 19 45  1  0
 20 46  1  0
 20 47  1  0
 20 48  1  0
M  END
$$$$
