
     RDKit          3D

 49 52  0  0  0  0  0  0  0  0999 V2000
   -3.2891    3.7257   -1.6271 C   0  0  0  0  0  0  0  0  0  0  0  0
   -4.2820    2.7226   -1.0659 C   0  0  0  0  0  0  0  0  0  0  0  0
   -3.8279    2.2057    0.1839 O   0  0  0  0  0  0  0  0  0  0  0  0
   -3.0431    1.0881    0.1921 C   0  0  0  0  0  0  0  0  0  0  0  0
   -2.5060    0.4438   -0.9213 C   0  0  0  0  0  0  0  0  0  0  0  0
   -1.7065   -0.6942   -0.7610 C   0  0  0  0  0  0  0  0  0  0  0  0
   -1.4379   -1.1978    0.5160 C   0  0  0  0  0  0  0  0  0  0  0  0
   -0.5638   -2.3517    0.6811 C   0  0  0  0  0  0  0  0  0  0  0  0
    0.8232   -2.4601    0.5974 C   0  0  0  0  0  0  0  0  0  0  0  0
    1.8624   -1.4563    0.3287 C   0  0  0  0  0  0  0  0  0  0  0  0
    3.0038   -1.8045    0.0329 O   0  0  0  0  0  0  0  0  0  0  0  0
    1.4638   -0.1251    0.4572 N   0  0  0  0  0  0  0  0  0  0  0  0
    2.2875    0.9733    0.3797 N   0  0  0  0  0  0  0  0  0  0  0  0
    3.2743    0.9469   -0.4600 C   0  0  0  0  0  0  0  0  0  0  0  0
    4.2281    2.0705   -0.5701 C   0  0  0  0  0  0  0  0  0  0  0  0
    5.2805    1.9710   -1.4851 C   0  0  0  0  0  0  0  0  0  0  0  0
    6.1927    3.0206   -1.6085 C   0  0  0  0  0  0  0  0  0  0  0  0
    6.0531    4.1639   -0.8205 C   0  0  0  0  0  0  0  0  0  0  0  0
    5.0032    4.2614    0.0934 C   0  0  0  0  0  0  0  0  0  0  0  0
    4.0887    3.2148    0.2209 C   0  0  0  0  0  0  0  0  0  0  0  0
    1.1746   -3.7721    0.7929 N   0  0  0  0  0  0  0  0  0  0  0  0
    0.0815   -4.4800    1.0006 N   0  0  0  0  0  0  0  0  0  0  0  0
   -1.0032   -3.6638    0.9080 N   0  0  0  0  0  0  0  0  0  0  0  0
   -2.3199   -4.1764    1.0395 C   0  0  0  0  0  0  0  0  0  0  0  0
   -3.3864   -3.3794    0.9700 N   0  0  0  0  0  0  0  0  0  0  0  0
   -4.4673   -4.2388    1.1554 O   0  0  0  0  0  0  0  0  0  0  0  0
   -4.0434   -5.5509    1.3361 N   0  0  0  0  0  0  0  0  0  0  0  0
   -2.7143   -5.5110    1.2538 C   0  0  0  0  0  0  0  0  0  0  0  0
   -1.9148   -6.5879    1.3608 N   0  0  0  0  0  0  0  0  0  0  0  0
   -1.9693   -0.5475    1.6336 C   0  0  0  0  0  0  0  0  0  0  0  0
   -2.7663    0.5872    1.4669 C   0  0  0  0  0  0  0  0  0  0  0  0
   -3.6719    4.1739   -2.5484 H   0  0  0  0  0  0  0  0  0  0  0  0
   -3.0987    4.5229   -0.9008 H   0  0  0  0  0  0  0  0  0  0  0  0
   -2.3243    3.2572   -1.8425 H   0  0  0  0  0  0  0  0  0  0  0  0
   -5.2224    3.2465   -0.8600 H   0  0  0  0  0  0  0  0  0  0  0  0
   -4.5304    1.9327   -1.7831 H   0  0  0  0  0  0  0  0  0  0  0  0
   -2.6787    0.8027   -1.9303 H   0  0  0  0  0  0  0  0  0  0  0  0
   -1.2956   -1.1761   -1.6461 H   0  0  0  0  0  0  0  0  0  0  0  0
    0.6095    0.0710    0.9664 H   0  0  0  0  0  0  0  0  0  0  0  0
    3.4424    0.1100   -1.1588 H   0  0  0  0  0  0  0  0  0  0  0  0
    5.4021    1.0830   -2.1001 H   0  0  0  0  0  0  0  0  0  0  0  0
    7.0142    2.9467   -2.3168 H   0  0  0  0  0  0  0  0  0  0  0  0
    6.7655    4.9798   -0.9169 H   0  0  0  0  0  0  0  0  0  0  0  0
    4.8973    5.1518    0.7081 H   0  0  0  0  0  0  0  0  0  0  0  0
    3.2738    3.2963    0.9360 H   0  0  0  0  0  0  0  0  0  0  0  0
   -2.2977   -7.4694    1.6853 H   0  0  0  0  0  0  0  0  0  0  0  0
   -0.9030   -6.5006    1.4461 H   0  0  0  0  0  0  0  0  0  0  0  0
   -1.7769   -0.9124    2.6402 H   0  0  0  0  0  0  0  0  0  0  0  0
   -3.1812    1.0863    2.3401 H   0  0  0  0  0  0  0  0  0  0  0  0
  1  2  1  0
  2  3  1  0
  3  4  1  0
  4  5  2  0
  5  6  1  0
  6  7  2  0
  7  8  1  0
  8  9  2  0
  9 10  1  0
 10 11  2  0
 10 12  1  0
 12 13  1  0
 13 14  2  3
 14 15  1  0
 15 16  2  0
 16 17  1  0
 17 18  2  0
 18 19  1  0
 19 20  2  0
  9 21  1  0
 21 22  2  0
 22 23  1  0
 23 24  1  0
 24 25  2  0
 25 26  1  0
 26 27  1  0
 27 28  2  0
 28 29  1  0
  7 30  1  0
 30 31  2  0
 31  4  1  0
 23  8  1  0
 28 24  1  0
 20 15  1  0
  1 32  1  0
  1 33  1  0
  1 34  1  0
  2 35  1  0
  2 36  1  0
  5 37  1  0
  6 38  1  0
 12 39  1  0
 14 40  1  0
 16 41  1  0
 17 42  1  0
 18 43  1  0
 19 44  1  0
 20 45  1  0
 29 46  1  0
 29 47  1  0
 30 48  1  0
 31 49  1  0
M  END
$$$$
