
     RDKit          3D

 46 49  0  0  0  0  0  0  0  0999 V2000
    5.5250   -4.5357   -0.2529 O   0  0  0  0  0  0  0  0  0  0  0  0
    6.0038   -3.4764    0.1768 N   0  0  0  0  0  4  0  0  0  0  0  0
    6.9826   -3.4050    0.9343 O   0  0  0  0  0  1  0  0  0  0  0  0
    5.3742   -2.2194   -0.2457 C   0  0  0  0  0  0  0  0  0  0  0  0
    5.9626   -0.9982    0.1074 C   0  0  0  0  0  0  0  0  0  0  0  0
    5.3619    0.1939   -0.2962 C   0  0  0  0  0  0  0  0  0  0  0  0
    4.1846    0.1662   -1.0470 C   0  0  0  0  0  0  0  0  0  0  0  0
    3.5913   -1.0538   -1.4094 C   0  0  0  0  0  0  0  0  0  0  0  0
    2.3027   -1.0669   -2.2037 C   0  0  0  0  0  0  0  0  0  0  0  0
    1.0864   -0.8665   -1.3549 C   0  0  0  0  0  0  0  0  0  0  0  0
    0.4295   -2.1569   -0.3716 S   0  0  0  0  0  0  0  0  0  0  0  0
   -0.9195   -1.0988    0.2068 C   0  0  0  0  0  0  0  0  0  0  0  0
   -1.7510   -1.6944    0.9895 N   0  0  0  0  0  0  0  0  0  0  0  0
   -2.8989   -1.0586    1.4629 C   0  0  0  0  0  0  0  0  0  0  0  0
   -2.9712   -0.6684    2.8024 C   0  0  0  0  0  0  0  0  0  0  0  0
   -4.1268   -0.0665    3.3046 C   0  0  0  0  0  0  0  0  0  0  0  0
   -5.2271    0.1293    2.4713 C   0  0  0  0  0  0  0  0  0  0  0  0
   -5.1770   -0.2892    1.1424 C   0  0  0  0  0  0  0  0  0  0  0  0
   -4.0202   -0.8923    0.6446 C   0  0  0  0  0  0  0  0  0  0  0  0
   -0.7538    0.1636   -0.3790 N   0  0  0  0  0  0  0  0  0  0  0  0
   -1.5437    1.2927   -0.0556 C   0  0  0  0  0  0  0  0  0  0  0  0
   -1.4239    1.9168    1.1937 C   0  0  0  0  0  0  0  0  0  0  0  0
   -2.1735    3.0559    1.4928 C   0  0  0  0  0  0  0  0  0  0  0  0
   -3.0438    3.5877    0.5429 C   0  0  0  0  0  0  0  0  0  0  0  0
   -3.1651    2.9844   -0.7073 C   0  0  0  0  0  0  0  0  0  0  0  0
   -2.4161    1.8456   -1.0071 C   0  0  0  0  0  0  0  0  0  0  0  0
    0.3506    0.2526   -1.2361 C   0  0  0  0  0  0  0  0  0  0  0  0
    0.6943    1.4147   -1.8870 O   0  0  0  0  0  0  0  0  0  0  0  0
    4.1921   -2.2535   -0.9992 C   0  0  0  0  0  0  0  0  0  0  0  0
    6.8793   -0.9596    0.6919 H   0  0  0  0  0  0  0  0  0  0  0  0
    5.8091    1.1476   -0.0244 H   0  0  0  0  0  0  0  0  0  0  0  0
    3.7251    1.1067   -1.3490 H   0  0  0  0  0  0  0  0  0  0  0  0
    2.3663   -0.2931   -2.9801 H   0  0  0  0  0  0  0  0  0  0  0  0
    2.2183   -2.0099   -2.7599 H   0  0  0  0  0  0  0  0  0  0  0  0
   -2.1203   -0.8378    3.4562 H   0  0  0  0  0  0  0  0  0  0  0  0
   -4.1696    0.2406    4.3458 H   0  0  0  0  0  0  0  0  0  0  0  0
   -6.1283    0.5952    2.8609 H   0  0  0  0  0  0  0  0  0  0  0  0
   -6.0395   -0.1542    0.4956 H   0  0  0  0  0  0  0  0  0  0  0  0
   -3.9915   -1.2361   -0.3852 H   0  0  0  0  0  0  0  0  0  0  0  0
   -0.7473    1.5126    1.9434 H   0  0  0  0  0  0  0  0  0  0  0  0
   -2.0833    3.5232    2.4701 H   0  0  0  0  0  0  0  0  0  0  0  0
   -3.6330    4.4701    0.7805 H   0  0  0  0  0  0  0  0  0  0  0  0
   -3.8491    3.3961   -1.4453 H   0  0  0  0  0  0  0  0  0  0  0  0
   -2.5259    1.3768   -1.9827 H   0  0  0  0  0  0  0  0  0  0  0  0
    0.1294    2.1224   -1.5329 H   0  0  0  0  0  0  0  0  0  0  0  0
    3.7301   -3.2036   -1.2635 H   0  0  0  0  0  0  0  0  0  0  0  0
  1  2  2  0
  2  3  1  0
  2  4  1  0
  4  5  2  0
  5  6  1  0
  6  7  2  0
  7  8  1  0
  8  9  1  0
  9 10  1  0
 10 11  1  0
 11 12  1  0
 12 13  2  3
 13 14  1  0
 14 15  2  0
 15 16  1  0
 16 17  2  0
 17 18  1  0
 18 19  2  0
 12 20  1  0
 20 21  1  0
 21 22  2  0
 22 23  1  0
 23 24  2  0
 24 25  1  0
 25 26  2  0
 20 27  1  0
 27 28  1  0
  8 29  2  0
 29  4  1  0
 27 10  2  0
 19 14  1  0
 26 21  1  0
  5 30  1  0
  6 31  1  0
  7 32  1  0
  9 33  1  0
  9 34  1  0
 15 35  1  0
 16 36  1  0
 17 37  1  0
 18 38  1  0
 19 39  1  0
 22 40  1  0
 23 41  1  0
 24 42  1  0
 25 43  1  0
 26 44  1  0
 28 45  1  0
 29 46  1  0
M  CHG  2   2   1   3  -1
M  END
$$$$
