
     RDKit          3D

 23 25  0  0  0  0  0  0  0  0999 V2000
    1.6957    2.1536    1.6489 O   0  0  0  0  0  0  0  0  0  0  0  0
    1.3450    1.0016    1.4651 C   0  0  0  0  0  0  0  0  0  0  0  0
    2.1975   -0.0105    1.6831 O   0  0  0  0  0  0  0  0  0  0  0  0
   -0.0397    0.5673    1.0554 C   0  0  0  0  0  0  0  0  0  0  0  0
   -0.2528   -0.9461    0.7686 C   0  0  0  0  0  0  0  0  0  0  0  0
   -1.6821   -0.9027    0.2084 C   0  0  0  0  0  0  0  0  0  0  0  0
   -1.3161    0.0544   -0.9127 C   0  0  0  0  0  0  0  0  0  0  0  0
   -0.1324   -0.6111   -1.6109 C   0  0  0  0  0  0  0  0  0  0  0  0
    0.6848    0.4728   -2.0549 O   0  0  0  0  0  0  0  0  0  0  0  0
    0.4622    1.5574   -1.2532 C   0  0  0  0  0  0  0  0  0  0  0  0
    1.0534    2.6160   -1.3566 O   0  0  0  0  0  0  0  0  0  0  0  0
   -0.5880    1.2175   -0.2297 C   0  0  0  0  0  0  0  0  0  0  0  0
    0.5631   -1.3923   -0.4719 C   0  0  0  0  0  0  0  0  0  0  0  0
    0.4218   -3.1555   -0.7234 Cl  0  0  0  0  0  0  0  0  0  0  0  0
    3.0280    0.4341    1.9636 H   0  0  0  0  0  0  0  0  0  0  0  0
   -0.6916    0.8351    1.8995 H   0  0  0  0  0  0  0  0  0  0  0  0
   -0.1230   -1.5793    1.6499 H   0  0  0  0  0  0  0  0  0  0  0  0
   -2.4075   -0.4791    0.9110 H   0  0  0  0  0  0  0  0  0  0  0  0
   -2.0513   -1.8671   -0.1518 H   0  0  0  0  0  0  0  0  0  0  0  0
   -2.1203    0.3641   -1.5838 H   0  0  0  0  0  0  0  0  0  0  0  0
   -0.4263   -1.2278   -2.4655 H   0  0  0  0  0  0  0  0  0  0  0  0
   -1.2500    2.0655   -0.0361 H   0  0  0  0  0  0  0  0  0  0  0  0
    1.6296   -1.1677   -0.4031 H   0  0  0  0  0  0  0  0  0  0  0  0
  1  2  2  0
  2  3  1  0
  2  4  1  0
  4  5  1  0
  5  6  1  0
  6  7  1  0
  7  8  1  0
  8  9  1  0
  9 10  1  0
 10 11  2  0
 10 12  1  0
  8 13  1  0
 13 14  1  0
 12  4  1  0
 13  5  1  0
 12  7  1  0
  3 15  1  0
  4 16  1  0
  5 17  1  0
  6 18  1  0
  6 19  1  0
  7 20  1  0
  8 21  1  0
 12 22  1  0
 13 23  1  0
M  END
$$$$
