
     RDKit          3D

 51 55  0  0  0  0  0  0  0  0999 V2000
    1.9997   -1.9637    1.0833 C   0  0  0  0  0  0  0  0  0  0  0  0
    1.5105   -0.5331    0.8815 C   0  0  0  0  0  0  0  0  0  0  0  0
    2.0610    0.1003   -0.3336 N   0  0  0  0  0  0  0  0  0  0  0  0
    1.6187   -0.2399   -1.6225 C   0  0  0  0  0  0  0  0  0  0  0  0
    0.3678   -0.1984   -2.1214 C   0  0  0  0  0  0  0  0  0  0  0  0
   -0.8241    0.3004   -1.4238 C   0  0  0  0  0  0  0  0  0  0  0  0
   -0.7961    1.6071   -0.9276 C   0  0  0  0  0  0  0  0  0  0  0  0
   -1.8979    2.1358   -0.2846 C   0  0  0  0  0  0  0  0  0  0  0  0
   -3.0360    1.3565   -0.1335 C   0  0  0  0  0  0  0  0  0  0  0  0
   -4.1516    1.8891    0.5318 C   0  0  0  0  0  0  0  0  0  0  0  0
   -5.3155    1.1365    0.7058 C   0  0  0  0  0  0  0  0  0  0  0  0
   -6.4895    1.7083    1.4483 C   0  0  0  0  0  0  0  0  0  0  0  0
   -5.3460   -0.1729    0.2323 C   0  0  0  0  0  0  0  0  0  0  0  0
   -4.2408   -0.7151   -0.4354 C   0  0  0  0  0  0  0  0  0  0  0  0
   -3.0642    0.0310   -0.6463 C   0  0  0  0  0  0  0  0  0  0  0  0
   -1.9562   -0.4622   -1.3038 N   0  0  0  0  0  4  0  0  0  0  0  0
   -1.9831   -1.8389   -1.8873 C   0  0  0  0  0  0  0  0  0  0  0  0
   -1.5660   -2.8544   -0.8413 C   0  0  0  0  0  0  0  0  0  0  0  0
    2.9064   -0.6621   -2.7707 S   0  0  0  0  0  0  0  0  0  0  0  0
    4.1075   -0.1650   -1.5459 C   0  0  0  0  0  0  0  0  0  0  0  0
    5.4727   -0.1699   -1.7525 C   0  0  0  0  0  0  0  0  0  0  0  0
    6.3071    0.2493   -0.7217 C   0  0  0  0  0  0  0  0  0  0  0  0
    5.7405    0.7058    0.4894 C   0  0  0  0  0  0  0  0  0  0  0  0
    6.6230    1.2940    1.8499 S   0  0  0  0  0  0  0  0  0  0  0  0
    5.2022    1.6637    2.7049 C   0  0  0  0  0  0  0  0  0  0  0  0
    4.0741    1.3322    1.9922 C   0  0  0  0  0  0  0  0  0  0  0  0
    4.3546    0.7292    0.7134 C   0  0  0  0  0  0  0  0  0  0  0  0
    3.5071    0.2335   -0.3187 C   0  0  0  0  0  0  0  0  0  0  0  0
    3.0738   -2.0005    1.2890 H   0  0  0  0  0  0  0  0  0  0  0  0
    1.4844   -2.4179    1.9357 H   0  0  0  0  0  0  0  0  0  0  0  0
    1.8057   -2.5825    0.2017 H   0  0  0  0  0  0  0  0  0  0  0  0
    1.7171    0.0613    1.7729 H   0  0  0  0  0  0  0  0  0  0  0  0
    0.4175   -0.5584    0.8195 H   0  0  0  0  0  0  0  0  0  0  0  0
    0.2079   -0.4454   -3.1694 H   0  0  0  0  0  0  0  0  0  0  0  0
    0.0960    2.2239   -1.0422 H   0  0  0  0  0  0  0  0  0  0  0  0
   -1.8542    3.1560    0.0963 H   0  0  0  0  0  0  0  0  0  0  0  0
   -4.1222    2.9067    0.9247 H   0  0  0  0  0  0  0  0  0  0  0  0
   -7.4271    1.2630    1.0994 H   0  0  0  0  0  0  0  0  0  0  0  0
   -6.3834    1.5156    2.5203 H   0  0  0  0  0  0  0  0  0  0  0  0
   -6.5637    2.7889    1.2871 H   0  0  0  0  0  0  0  0  0  0  0  0
   -6.2362   -0.7849    0.3808 H   0  0  0  0  0  0  0  0  0  0  0  0
   -4.3500   -1.7442   -0.7628 H   0  0  0  0  0  0  0  0  0  0  0  0
   -2.9823   -2.0385   -2.2833 H   0  0  0  0  0  0  0  0  0  0  0  0
   -1.3285   -1.8879   -2.7598 H   0  0  0  0  0  0  0  0  0  0  0  0
   -2.2177   -2.8238    0.0366 H   0  0  0  0  0  0  0  0  0  0  0  0
   -0.5447   -2.6696   -0.4992 H   0  0  0  0  0  0  0  0  0  0  0  0
   -1.6051   -3.8650   -1.2591 H   0  0  0  0  0  0  0  0  0  0  0  0
    5.8973   -0.4960   -2.6976 H   0  0  0  0  0  0  0  0  0  0  0  0
    7.3865    0.2499   -0.8574 H   0  0  0  0  0  0  0  0  0  0  0  0
    5.2583    2.1176    3.6854 H   0  0  0  0  0  0  0  0  0  0  0  0
    3.0851    1.5342    2.3781 H   0  0  0  0  0  0  0  0  0  0  0  0
  1  2  1  0
  2  3  1  0
  3  4  1  0
  4  5  2  3
  5  6  1  0
  6  7  2  0
  7  8  1  0
  8  9  2  0
  9 10  1  0
 10 11  2  0
 11 12  1  0
 11 13  1  0
 13 14  2  0
 14 15  1  0
 15 16  2  0
 16 17  1  0
 17 18  1  0
  4 19  1  0
 19 20  1  0
 20 21  2  0
 21 22  1  0
 22 23  2  0
 23 24  1  0
 24 25  1  0
 25 26  2  0
 26 27  1  0
 27 28  2  0
 28  3  1  0
 16  6  1  0
 28 20  1  0
 15  9  1  0
 27 23  1  0
  1 29  1  0
  1 30  1  0
  1 31  1  0
  2 32  1  0
  2 33  1  0
  5 34  1  0
  7 35  1  0
  8 36  1  0
 10 37  1  0
 12 38  1  0
 12 39  1  0
 12 40  1  0
 13 41  1  0
 14 42  1  0
 17 43  1  0
 17 44  1  0
 18 45  1  0
 18 46  1  0
 18 47  1  0
 21 48  1  0
 22 49  1  0
 25 50  1  0
 26 51  1  0
M  CHG  1  16   1
M  END
$$$$
