
     RDKit          3D

 61 64  0  0  0  0  0  0  0  0999 V2000
    6.7401   -2.7782   -2.6742 C   0  0  0  0  0  0  0  0  0  0  0  0
    6.4798   -1.5035   -1.9277 C   0  0  0  0  0  0  0  0  0  0  0  0
    6.1439   -0.3386   -2.6257 C   0  0  0  0  0  0  0  0  0  0  0  0
    5.8817    0.8482   -1.9382 C   0  0  0  0  0  0  0  0  0  0  0  0
    5.9489    0.8924   -0.5396 C   0  0  0  0  0  0  0  0  0  0  0  0
    5.6514    2.1752    0.1989 C   0  0  0  0  0  0  0  0  0  0  0  0
    4.2274    2.4300    0.3259 N   0  0  0  0  0  0  0  0  0  0  0  0
    3.3791    1.6342    1.1798 C   0  0  0  0  0  0  0  0  0  0  0  0
    2.0339    2.3423    1.0946 C   0  0  0  0  0  0  0  0  0  0  0  0
    0.8830    1.3963    1.3873 C   0  0  0  0  0  0  0  0  0  0  0  0
    1.0777    0.2877    1.8744 O   0  0  0  0  0  0  0  0  0  0  0  0
   -0.3538    1.9590    1.1117 N   0  0  0  0  0  0  0  0  0  0  0  0
   -1.6260    1.3854    1.3199 C   0  0  0  0  0  0  0  0  0  0  0  0
   -2.7362    2.1396    0.9129 C   0  0  0  0  0  0  0  0  0  0  0  0
   -4.0355    1.6564    1.0945 C   0  0  0  0  0  0  0  0  0  0  0  0
   -4.2303    0.4063    1.6862 C   0  0  0  0  0  0  0  0  0  0  0  0
   -5.8863   -0.1874    1.9769 S   0  0  0  0  0  6  0  0  0  0  0  0
   -5.8614   -0.9368    3.2150 O   0  0  0  0  0  0  0  0  0  0  0  0
   -6.7838    0.9368    1.8008 O   0  0  0  0  0  0  0  0  0  0  0  0
   -6.1434   -1.2661    0.6939 N   0  0  0  0  0  0  0  0  0  0  0  0
   -5.5525   -2.6174    0.8050 C   0  0  0  0  0  0  0  0  0  0  0  0
   -5.9811   -3.4730   -0.3814 C   0  0  0  0  0  0  0  0  0  0  0  0
   -5.5040   -2.8819   -1.7083 C   0  0  0  0  0  0  0  0  0  0  0  0
   -5.2966   -1.3695   -1.6335 C   0  0  0  0  0  0  0  0  0  0  0  0
   -6.2782   -0.7104   -0.6722 C   0  0  0  0  0  0  0  0  0  0  0  0
   -3.1355   -0.3435    2.1194 C   0  0  0  0  0  0  0  0  0  0  0  0
   -1.8372    0.1410    1.9200 C   0  0  0  0  0  0  0  0  0  0  0  0
    2.0294    2.9071   -0.3267 C   0  0  0  0  0  0  0  0  0  0  0  0
    3.4920    3.0935   -0.6403 C   0  0  0  0  0  0  0  0  0  0  0  0
    3.9226    3.7060   -1.6022 O   0  0  0  0  0  0  0  0  0  0  0  0
    6.2656   -0.2811    0.1588 C   0  0  0  0  0  0  0  0  0  0  0  0
    6.5239   -1.4695   -0.5290 C   0  0  0  0  0  0  0  0  0  0  0  0
    7.3602   -2.5851   -3.5572 H   0  0  0  0  0  0  0  0  0  0  0  0
    7.2773   -3.4985   -2.0496 H   0  0  0  0  0  0  0  0  0  0  0  0
    5.7947   -3.2280   -2.9905 H   0  0  0  0  0  0  0  0  0  0  0  0
    6.0846   -0.3461   -3.7118 H   0  0  0  0  0  0  0  0  0  0  0  0
    5.6210    1.7426   -2.5024 H   0  0  0  0  0  0  0  0  0  0  0  0
    6.1192    3.0138   -0.3312 H   0  0  0  0  0  0  0  0  0  0  0  0
    6.0846    2.1536    1.2067 H   0  0  0  0  0  0  0  0  0  0  0  0
    3.3423    0.6124    0.7830 H   0  0  0  0  0  0  0  0  0  0  0  0
    3.7771    1.6165    2.1999 H   0  0  0  0  0  0  0  0  0  0  0  0
    2.0029    3.1637    1.8222 H   0  0  0  0  0  0  0  0  0  0  0  0
   -0.3608    2.8994    0.7397 H   0  0  0  0  0  0  0  0  0  0  0  0
   -2.6095    3.1183    0.4557 H   0  0  0  0  0  0  0  0  0  0  0  0
   -4.8834    2.2657    0.7885 H   0  0  0  0  0  0  0  0  0  0  0  0
   -5.9101   -3.0949    1.7232 H   0  0  0  0  0  0  0  0  0  0  0  0
   -4.4611   -2.5601    0.8470 H   0  0  0  0  0  0  0  0  0  0  0  0
   -5.6014   -4.4953   -0.2721 H   0  0  0  0  0  0  0  0  0  0  0  0
   -7.0764   -3.5462   -0.3991 H   0  0  0  0  0  0  0  0  0  0  0  0
   -6.2408   -3.1218   -2.4857 H   0  0  0  0  0  0  0  0  0  0  0  0
   -4.5636   -3.3552   -2.0156 H   0  0  0  0  0  0  0  0  0  0  0  0
   -4.2721   -1.1646   -1.2986 H   0  0  0  0  0  0  0  0  0  0  0  0
   -5.3919   -0.9342   -2.6347 H   0  0  0  0  0  0  0  0  0  0  0  0
   -7.3096   -0.8751   -1.0055 H   0  0  0  0  0  0  0  0  0  0  0  0
   -6.1126    0.3716   -0.6830 H   0  0  0  0  0  0  0  0  0  0  0  0
   -3.2780   -1.2981    2.6213 H   0  0  0  0  0  0  0  0  0  0  0  0
   -1.0123   -0.4735    2.2686 H   0  0  0  0  0  0  0  0  0  0  0  0
    1.5107    3.8700   -0.3734 H   0  0  0  0  0  0  0  0  0  0  0  0
    1.5936    2.2142   -1.0542 H   0  0  0  0  0  0  0  0  0  0  0  0
    6.3114   -0.2788    1.2452 H   0  0  0  0  0  0  0  0  0  0  0  0
    6.7656   -2.3668    0.0353 H   0  0  0  0  0  0  0  0  0  0  0  0
  1  2  1  0
  2  3  2  0
  3  4  1  0
  4  5  2  0
  5  6  1  0
  6  7  1  0
  7  8  1  0
  8  9  1  0
  9 10  1  0
 10 11  2  0
 10 12  1  0
 12 13  1  0
 13 14  2  0
 14 15  1  0
 15 16  2  0
 16 17  1  0
 17 18  2  0
 17 19  2  0
 17 20  1  0
 20 21  1  0
 21 22  1  0
 22 23  1  0
 23 24  1  0
 24 25  1  0
 16 26  1  0
 26 27  2  0
  9 28  1  0
 28 29  1  0
 29 30  2  0
  5 31  1  0
 31 32  2  0
 32  2  1  0
 29  7  1  0
 27 13  1  0
 25 20  1  0
  1 33  1  0
  1 34  1  0
  1 35  1  0
  3 36  1  0
  4 37  1  0
  6 38  1  0
  6 39  1  0
  8 40  1  0
  8 41  1  0
  9 42  1  0
 12 43  1  0
 14 44  1  0
 15 45  1  0
 21 46  1  0
 21 47  1  0
 22 48  1  0
 22 49  1  0
 23 50  1  0
 23 51  1  0
 24 52  1  0
 24 53  1  0
 25 54  1  0
 25 55  1  0
 26 56  1  0
 27 57  1  0
 28 58  1  0
 28 59  1  0
 31 60  1  0
 32 61  1  0
M  END
$$$$
