
     RDKit          3D

 41 44  0  0  0  0  0  0  0  0999 V2000
   -6.7543   -1.0590   -0.7591 C   0  0  0  0  0  0  0  0  0  0  0  0
   -5.7910   -0.9838    0.4281 C   0  0  0  0  0  0  0  0  0  0  0  0
   -5.5667   -2.3700    1.0374 C   0  0  0  0  0  0  0  0  0  0  0  0
   -4.4783   -0.3254    0.0409 C   0  0  0  0  0  0  0  0  0  0  0  0
   -3.6299   -0.8850   -0.9256 C   0  0  0  0  0  0  0  0  0  0  0  0
   -2.4252   -0.2631   -1.2662 C   0  0  0  0  0  0  0  0  0  0  0  0
   -2.0448    0.9277   -0.6414 C   0  0  0  0  0  0  0  0  0  0  0  0
   -0.7900    1.5991   -0.9892 C   0  0  0  0  0  0  0  0  0  0  0  0
    0.4402    1.1553   -0.6954 C   0  0  0  0  0  0  0  0  0  0  0  0
    0.8600   -0.3105    0.1733 S   0  0  0  0  0  0  0  0  0  0  0  0
    2.5210    0.0821    0.0153 C   0  0  0  0  0  0  0  0  0  0  0  0
    3.6438   -0.4668    0.3777 N   0  0  0  0  0  0  0  0  0  0  0  0
    4.5780    0.4437   -0.1086 C   0  0  0  0  0  0  0  0  0  0  0  0
    6.0121    0.2422    0.0671 C   0  0  0  0  0  0  0  0  0  0  0  0
    6.9344    1.1666   -0.4297 C   0  0  0  0  0  0  0  0  0  0  0  0
    8.2830    0.9241   -0.2338 C   0  0  0  0  0  0  0  0  0  0  0  0
    8.7642   -0.1587    0.4124 N   0  0  0  0  0  0  0  0  0  0  0  0
    7.8568   -1.0390    0.8844 C   0  0  0  0  0  0  0  0  0  0  0  0
    6.4888   -0.8857    0.7393 C   0  0  0  0  0  0  0  0  0  0  0  0
    4.0437    1.5095   -0.7460 N   0  0  0  0  0  0  0  0  0  0  0  0
    2.7316    1.2373   -0.6431 N   0  0  0  0  0  0  0  0  0  0  0  0
    1.6424    1.9472   -1.0993 C   0  0  0  0  0  0  0  0  0  0  0  0
    1.7145    3.0017   -1.7034 O   0  0  0  0  0  0  0  0  0  0  0  0
   -2.8878    1.4971    0.3161 C   0  0  0  0  0  0  0  0  0  0  0  0
   -4.0923    0.8743    0.6557 C   0  0  0  0  0  0  0  0  0  0  0  0
   -6.9250   -0.0654   -1.1882 H   0  0  0  0  0  0  0  0  0  0  0  0
   -6.3725   -1.7058   -1.5566 H   0  0  0  0  0  0  0  0  0  0  0  0
   -7.7240   -1.4586   -0.4430 H   0  0  0  0  0  0  0  0  0  0  0  0
   -6.2761   -0.3689    1.1978 H   0  0  0  0  0  0  0  0  0  0  0  0
   -6.5140   -2.7941    1.3877 H   0  0  0  0  0  0  0  0  0  0  0  0
   -4.8865   -2.3154    1.8947 H   0  0  0  0  0  0  0  0  0  0  0  0
   -5.1364   -3.0712    0.3141 H   0  0  0  0  0  0  0  0  0  0  0  0
   -3.8997   -1.8128   -1.4254 H   0  0  0  0  0  0  0  0  0  0  0  0
   -1.7933   -0.7194   -2.0245 H   0  0  0  0  0  0  0  0  0  0  0  0
   -0.9166    2.5451   -1.5152 H   0  0  0  0  0  0  0  0  0  0  0  0
    6.6156    2.0590   -0.9590 H   0  0  0  0  0  0  0  0  0  0  0  0
    9.0348    1.6159   -0.6031 H   0  0  0  0  0  0  0  0  0  0  0  0
    8.2716   -1.9006    1.4000 H   0  0  0  0  0  0  0  0  0  0  0  0
    5.8134   -1.6329    1.1439 H   0  0  0  0  0  0  0  0  0  0  0  0
   -2.6168    2.4272    0.8106 H   0  0  0  0  0  0  0  0  0  0  0  0
   -4.7286    1.3367    1.4076 H   0  0  0  0  0  0  0  0  0  0  0  0
  1  2  1  0
  2  3  1  0
  2  4  1  0
  4  5  2  0
  5  6  1  0
  6  7  2  0
  7  8  1  0
  8  9  2  3
  9 10  1  0
 10 11  1  0
 11 12  2  0
 12 13  1  0
 13 14  1  0
 14 15  2  0
 15 16  1  0
 16 17  2  0
 17 18  1  0
 18 19  2  0
 13 20  2  0
 20 21  1  0
 21 22  1  0
 22 23  2  0
  7 24  1  0
 24 25  2  0
 25  4  1  0
 22  9  1  0
 21 11  1  0
 19 14  1  0
  1 26  1  0
  1 27  1  0
  1 28  1  0
  2 29  1  0
  3 30  1  0
  3 31  1  0
  3 32  1  0
  5 33  1  0
  6 34  1  0
  8 35  1  0
 15 36  1  0
 16 37  1  0
 18 38  1  0
 19 39  1  0
 24 40  1  0
 25 41  1  0
M  END
$$$$
