
     RDKit          3D

 48 50  0  0  0  0  0  0  0  0999 V2000
    4.3220    2.7722    0.7450 C   0  0  0  0  0  0  0  0  0  0  0  0
    3.2329    1.9174    0.1911 C   0  0  0  0  0  0  0  0  0  0  0  0
    1.8749    2.1409    0.2939 C   0  0  0  0  0  0  0  0  0  0  0  0
    1.1899    1.0376   -0.2682 C   0  0  0  0  0  0  0  0  0  0  0  0
   -0.2488    0.8445   -0.3576 C   0  0  0  0  0  0  0  0  0  0  0  0
   -1.0248    1.7729    0.1037 N   0  0  0  0  0  0  0  0  0  0  0  0
   -2.3843    1.5838    0.0581 N   0  0  0  0  0  0  0  0  0  0  0  0
   -3.0398    0.3554    0.1913 C   0  0  0  0  0  0  0  0  0  0  0  0
   -2.4860   -0.7365    0.2318 O   0  0  0  0  0  0  0  0  0  0  0  0
   -4.5423    0.5515    0.2416 C   0  0  0  0  0  0  0  0  0  0  0  0
   -5.3698   -0.7087    0.4859 C   0  0  0  0  0  0  0  0  0  0  0  0
   -5.1765   -1.8049   -0.5601 C   0  0  0  0  0  0  0  0  0  0  0  0
   -5.1115   -1.2201    1.8030 O   0  0  0  0  0  0  0  0  0  0  0  0
   -6.3960   -1.5090    2.3487 C   0  0  0  0  0  0  0  0  0  0  0  0
   -7.2636   -0.4423    1.7439 C   0  0  0  0  0  0  0  0  0  0  0  0
   -6.7652   -0.3162    0.4115 O   0  0  0  0  0  0  0  0  0  0  0  0
    2.1617    0.1625   -0.7432 C   0  0  0  0  0  0  0  0  0  0  0  0
    1.9574   -1.0974   -1.5243 C   0  0  0  0  0  0  0  0  0  0  0  0
    3.4185    0.6884   -0.4342 N   0  0  0  0  0  0  0  0  0  0  0  0
    4.6754    0.0683   -0.6986 C   0  0  0  0  0  0  0  0  0  0  0  0
    5.7262    0.8114   -1.2478 C   0  0  0  0  0  0  0  0  0  0  0  0
    6.9557    0.1983   -1.5046 C   0  0  0  0  0  0  0  0  0  0  0  0
    7.1437   -1.1555   -1.2122 C   0  0  0  0  0  0  0  0  0  0  0  0
    8.6895   -1.8449   -1.5579 Cl  0  0  0  0  0  0  0  0  0  0  0  0
    6.0951   -1.8994   -0.6603 C   0  0  0  0  0  0  0  0  0  0  0  0
    6.2575   -3.5740   -0.2648 Cl  0  0  0  0  0  0  0  0  0  0  0  0
    4.8623   -1.2887   -0.4042 C   0  0  0  0  0  0  0  0  0  0  0  0
    4.7622    3.3960   -0.0383 H   0  0  0  0  0  0  0  0  0  0  0  0
    3.9252    3.4452    1.5135 H   0  0  0  0  0  0  0  0  0  0  0  0
    5.1067    2.1750    1.2190 H   0  0  0  0  0  0  0  0  0  0  0  0
    1.4138    3.0051    0.7579 H   0  0  0  0  0  0  0  0  0  0  0  0
   -0.6059   -0.0750   -0.8448 H   0  0  0  0  0  0  0  0  0  0  0  0
   -2.9048    2.4237    0.2953 H   0  0  0  0  0  0  0  0  0  0  0  0
   -4.7538    1.2728    1.0427 H   0  0  0  0  0  0  0  0  0  0  0  0
   -4.8551    1.0219   -0.6995 H   0  0  0  0  0  0  0  0  0  0  0  0
   -5.2945   -1.4084   -1.5741 H   0  0  0  0  0  0  0  0  0  0  0  0
   -5.9342   -2.5881   -0.4372 H   0  0  0  0  0  0  0  0  0  0  0  0
   -4.2060   -2.2997   -0.4751 H   0  0  0  0  0  0  0  0  0  0  0  0
   -6.3693   -1.4788    3.4407 H   0  0  0  0  0  0  0  0  0  0  0  0
   -6.6944   -2.5107    2.0213 H   0  0  0  0  0  0  0  0  0  0  0  0
   -8.3261   -0.6974    1.7370 H   0  0  0  0  0  0  0  0  0  0  0  0
   -7.1258    0.5206    2.2472 H   0  0  0  0  0  0  0  0  0  0  0  0
    1.0315   -1.0503   -2.1065 H   0  0  0  0  0  0  0  0  0  0  0  0
    1.8859   -1.9574   -0.8517 H   0  0  0  0  0  0  0  0  0  0  0  0
    2.7613   -1.2694   -2.2461 H   0  0  0  0  0  0  0  0  0  0  0  0
    5.5965    1.8550   -1.5237 H   0  0  0  0  0  0  0  0  0  0  0  0
    7.7623    0.7823   -1.9424 H   0  0  0  0  0  0  0  0  0  0  0  0
    4.0705   -1.8699    0.0622 H   0  0  0  0  0  0  0  0  0  0  0  0
  1  2  1  0
  2  3  2  0
  3  4  1  0
  4  5  1  0
  5  6  2  3
  6  7  1  0
  7  8  1  0
  8  9  2  0
  8 10  1  0
 10 11  1  0
 11 12  1  0
 11 13  1  0
 13 14  1  0
 14 15  1  0
 15 16  1  0
  4 17  2  0
 17 18  1  0
 17 19  1  0
 19 20  1  0
 20 21  2  0
 21 22  1  0
 22 23  2  0
 23 24  1  0
 23 25  1  0
 25 26  1  0
 25 27  2  0
 19  2  1  0
 27 20  1  0
 16 11  1  0
  1 28  1  0
  1 29  1  0
  1 30  1  0
  3 31  1  0
  5 32  1  0
  7 33  1  0
 10 34  1  0
 10 35  1  0
 12 36  1  0
 12 37  1  0
 12 38  1  0
 14 39  1  0
 14 40  1  0
 15 41  1  0
 15 42  1  0
 18 43  1  0
 18 44  1  0
 18 45  1  0
 21 46  1  0
 22 47  1  0
 27 48  1  0
M  END
$$$$
