
     RDKit          3D

 39 40  0  0  0  0  0  0  0  0999 V2000
    0.5568    3.0375   -0.1402 C   0  0  0  0  0  0  0  0  0  0  0  0
    0.3511    1.8688    0.8181 C   0  0  0  0  0  0  0  0  0  0  0  0
    0.9256    0.5216    0.3437 C   0  0  0  0  0  0  0  0  0  0  0  0
    2.7367    0.5517    0.0600 S   0  0  0  0  0  0  0  0  0  0  0  0
    3.3323    0.5392    1.6791 C   0  0  0  0  0  0  0  0  0  0  0  0
    2.6309    0.3919    2.7796 N   0  0  0  0  0  0  0  0  0  0  0  0
    3.5045    0.4429    3.8429 N   0  0  0  0  0  0  0  0  0  0  0  0
    4.7124    0.6143    3.3552 C   0  0  0  0  0  0  0  0  0  0  0  0
    4.6522    0.6787    1.9953 N   0  0  0  0  0  0  0  0  0  0  0  0
    5.7679    0.8576    1.1061 C   0  0  0  0  0  0  0  0  0  0  0  0
    0.1921    0.0400   -0.9224 C   0  0  0  0  0  0  0  0  0  0  0  0
    0.6597    0.1591   -2.0517 O   0  0  0  0  0  0  0  0  0  0  0  0
   -1.0521   -0.4962   -0.6262 N   0  0  0  0  0  0  0  0  0  0  0  0
   -2.0241   -1.0118   -1.5128 C   0  0  0  0  0  0  0  0  0  0  0  0
   -1.8630   -1.0616   -2.8983 C   0  0  0  0  0  0  0  0  0  0  0  0
   -2.8746   -1.5866   -3.7052 C   0  0  0  0  0  0  0  0  0  0  0  0
   -4.0513   -2.0631   -3.1331 C   0  0  0  0  0  0  0  0  0  0  0  0
   -4.2253   -2.0189   -1.7487 C   0  0  0  0  0  0  0  0  0  0  0  0
   -3.2180   -1.4958   -0.9325 C   0  0  0  0  0  0  0  0  0  0  0  0
   -3.2840   -1.4033    0.4399 O   0  0  0  0  0  0  0  0  0  0  0  0
   -4.4658   -1.8914    1.0635 C   0  0  0  0  0  0  0  0  0  0  0  0
    0.1139    2.8352   -1.1198 H   0  0  0  0  0  0  0  0  0  0  0  0
    0.0758    3.9354    0.2617 H   0  0  0  0  0  0  0  0  0  0  0  0
    1.6165    3.2685   -0.2786 H   0  0  0  0  0  0  0  0  0  0  0  0
    0.7796    2.1363    1.7912 H   0  0  0  0  0  0  0  0  0  0  0  0
   -0.7277    1.7604    0.9869 H   0  0  0  0  0  0  0  0  0  0  0  0
    0.7370   -0.2354    1.1156 H   0  0  0  0  0  0  0  0  0  0  0  0
    5.6254    0.6936    3.9284 H   0  0  0  0  0  0  0  0  0  0  0  0
    6.6884    0.9479    1.6889 H   0  0  0  0  0  0  0  0  0  0  0  0
    5.6143    1.7712    0.5263 H   0  0  0  0  0  0  0  0  0  0  0  0
    5.8373   -0.0125    0.4485 H   0  0  0  0  0  0  0  0  0  0  0  0
   -1.3381   -0.5458    0.3480 H   0  0  0  0  0  0  0  0  0  0  0  0
   -0.9611   -0.7009   -3.3820 H   0  0  0  0  0  0  0  0  0  0  0  0
   -2.7386   -1.6218   -4.7835 H   0  0  0  0  0  0  0  0  0  0  0  0
   -4.8350   -2.4703   -3.7670 H   0  0  0  0  0  0  0  0  0  0  0  0
   -5.1556   -2.4003   -1.3425 H   0  0  0  0  0  0  0  0  0  0  0  0
   -5.3449   -1.3235    0.7418 H   0  0  0  0  0  0  0  0  0  0  0  0
   -4.3559   -1.7496    2.1430 H   0  0  0  0  0  0  0  0  0  0  0  0
   -4.5953   -2.9631    0.8804 H   0  0  0  0  0  0  0  0  0  0  0  0
  1  2  1  0
  2  3  1  0
  3  4  1  0
  4  5  1  0
  5  6  2  0
  6  7  1  0
  7  8  2  0
  8  9  1  0
  9 10  1  0
  3 11  1  0
 11 12  2  0
 11 13  1  0
 13 14  1  0
 14 15  2  0
 15 16  1  0
 16 17  2  0
 17 18  1  0
 18 19  2  0
 19 20  1  0
 20 21  1  0
  9  5  1  0
 19 14  1  0
  1 22  1  0
  1 23  1  0
  1 24  1  0
  2 25  1  0
  2 26  1  0
  3 27  1  0
  8 28  1  0
 10 29  1  0
 10 30  1  0
 10 31  1  0
 13 32  1  0
 15 33  1  0
 16 34  1  0
 17 35  1  0
 18 36  1  0
 21 37  1  0
 21 38  1  0
 21 39  1  0
M  END
$$$$
