
     RDKit          3D

 39 41  0  0  0  0  0  0  0  0999 V2000
   -4.3428   -2.4725   -1.8488 C   0  0  0  0  0  0  0  0  0  0  0  0
   -3.5309   -1.5349   -1.1547 O   0  0  0  0  0  0  0  0  0  0  0  0
   -4.1586   -0.6571   -0.3101 C   0  0  0  0  0  0  0  0  0  0  0  0
   -5.5316   -0.6597   -0.0392 C   0  0  0  0  0  0  0  0  0  0  0  0
   -6.0849    0.2780    0.8366 C   0  0  0  0  0  0  0  0  0  0  0  0
   -5.2734    1.2273    1.4484 C   0  0  0  0  0  0  0  0  0  0  0  0
   -3.9049    1.2385    1.1878 C   0  0  0  0  0  0  0  0  0  0  0  0
   -3.3314    0.2962    0.3142 C   0  0  0  0  0  0  0  0  0  0  0  0
   -1.8434    0.3517    0.0483 C   0  0  0  0  0  0  0  0  0  0  0  0
   -1.4550    1.4763   -1.3291 S   0  0  0  0  0  0  0  0  0  0  0  0
    0.2613    1.3595   -1.3429 C   0  0  0  0  0  0  0  0  0  0  0  0
    1.0349    0.7298   -0.4948 N   0  0  0  0  0  0  0  0  0  0  0  0
    2.3211    0.9446   -0.9472 C   0  0  0  0  0  0  0  0  0  0  0  0
    3.4946    0.4020   -0.2766 C   0  0  0  0  0  0  0  0  0  0  0  0
    3.3226   -0.3997    0.8645 C   0  0  0  0  0  0  0  0  0  0  0  0
    4.4211   -0.9417    1.5401 C   0  0  0  0  0  0  0  0  0  0  0  0
    5.7122   -0.6803    1.0709 C   0  0  0  0  0  0  0  0  0  0  0  0
    6.8719   -1.2442    1.7725 N   0  0  0  0  0  4  0  0  0  0  0  0
    6.6583   -1.9421    2.7741 O   0  0  0  0  0  0  0  0  0  0  0  0
    7.9981   -0.9890    1.3216 O   0  0  0  0  0  1  0  0  0  0  0  0
    5.9064    0.1161   -0.0642 C   0  0  0  0  0  0  0  0  0  0  0  0
    4.7984    0.6528   -0.7316 C   0  0  0  0  0  0  0  0  0  0  0  0
    2.3007    1.7223   -2.0882 C   0  0  0  0  0  0  0  0  0  0  0  0
    0.9754    1.9776   -2.3237 N   0  0  0  0  0  0  0  0  0  0  0  0
   -3.6888   -3.0667   -2.4944 H   0  0  0  0  0  0  0  0  0  0  0  0
   -4.8348   -3.1593   -1.1524 H   0  0  0  0  0  0  0  0  0  0  0  0
   -5.0720   -1.9667   -2.4903 H   0  0  0  0  0  0  0  0  0  0  0  0
   -6.2026   -1.3805   -0.4940 H   0  0  0  0  0  0  0  0  0  0  0  0
   -7.1530    0.2666    1.0383 H   0  0  0  0  0  0  0  0  0  0  0  0
   -5.7046    1.9594    2.1260 H   0  0  0  0  0  0  0  0  0  0  0  0
   -3.2802    1.9897    1.6673 H   0  0  0  0  0  0  0  0  0  0  0  0
   -1.3310    0.6985    0.9540 H   0  0  0  0  0  0  0  0  0  0  0  0
   -1.4500   -0.6489   -0.1631 H   0  0  0  0  0  0  0  0  0  0  0  0
    2.3191   -0.6078    1.2355 H   0  0  0  0  0  0  0  0  0  0  0  0
    4.2486   -1.5580    2.4199 H   0  0  0  0  0  0  0  0  0  0  0  0
    6.9047    0.3289   -0.4414 H   0  0  0  0  0  0  0  0  0  0  0  0
    4.9751    1.2687   -1.6097 H   0  0  0  0  0  0  0  0  0  0  0  0
    3.0725    2.1073   -2.7382 H   0  0  0  0  0  0  0  0  0  0  0  0
    0.5771    2.5174   -3.0784 H   0  0  0  0  0  0  0  0  0  0  0  0
  1  2  1  0
  2  3  1  0
  3  4  2  0
  4  5  1  0
  5  6  2  0
  6  7  1  0
  7  8  2  0
  8  9  1  0
  9 10  1  0
 10 11  1  0
 11 12  2  0
 12 13  1  0
 13 14  1  0
 14 15  2  0
 15 16  1  0
 16 17  2  0
 17 18  1  0
 18 19  2  0
 18 20  1  0
 17 21  1  0
 21 22  2  0
 13 23  2  0
 23 24  1  0
  8  3  1  0
 24 11  1  0
 22 14  1  0
  1 25  1  0
  1 26  1  0
  1 27  1  0
  4 28  1  0
  5 29  1  0
  6 30  1  0
  7 31  1  0
  9 32  1  0
  9 33  1  0
 15 34  1  0
 16 35  1  0
 21 36  1  0
 22 37  1  0
 23 38  1  0
 24 39  1  0
M  CHG  2  18   1  20  -1
M  END
$$$$
