
     RDKit          3D

 44 46  0  0  0  0  0  0  0  0999 V2000
    0.8476   -2.8131    3.6010 N   0  0  0  0  0  0  0  0  0  0  0  0
    0.3459   -2.0068    2.9325 C   0  0  0  0  0  0  0  0  0  0  0  0
   -0.2246   -1.0202    2.0865 C   0  0  0  0  0  0  0  0  0  0  0  0
    0.4153    0.0441    1.5701 C   0  0  0  0  0  0  0  0  0  0  0  0
    1.7919    0.3744    1.7276 C   0  0  0  0  0  0  0  0  0  0  0  0
    2.7665   -0.0109    2.6401 C   0  0  0  0  0  0  0  0  0  0  0  0
    3.9725    0.6555    2.3064 C   0  0  0  0  0  0  0  0  0  0  0  0
    3.6969    1.4364    1.2079 C   0  0  0  0  0  0  0  0  0  0  0  0
    4.4755    2.3562    0.3811 C   0  0  0  0  0  0  0  0  0  0  0  0
    5.8404    2.5641    0.6360 C   0  0  0  0  0  0  0  0  0  0  0  0
    6.5943    3.4430   -0.1500 C   0  0  0  0  0  0  0  0  0  0  0  0
    5.9877    4.1240   -1.2013 C   0  0  0  0  0  0  0  0  0  0  0  0
    7.0038    5.3111   -2.2637 Br  0  0  0  0  0  0  0  0  0  0  0  0
    4.6362    3.9348   -1.4735 C   0  0  0  0  0  0  0  0  0  0  0  0
    3.8866    3.0551   -0.6851 C   0  0  0  0  0  0  0  0  0  0  0  0
    2.3877    1.2721    0.8659 O   0  0  0  0  0  0  0  0  0  0  0  0
   -1.6771   -1.1601    1.7882 C   0  0  0  0  0  0  0  0  0  0  0  0
   -2.4857   -1.3962    2.6775 O   0  0  0  0  0  0  0  0  0  0  0  0
   -2.0123   -1.0449    0.4545 N   0  0  0  0  0  0  0  0  0  0  0  0
   -3.3705   -1.2995   -0.0109 C   0  0  0  0  0  0  0  0  0  0  0  0
   -3.6260   -0.5531   -1.3250 C   0  0  0  0  0  0  0  0  0  0  0  0
   -5.0189   -0.8436   -1.8772 C   0  0  0  0  0  0  0  0  0  0  0  0
   -5.2581   -2.3419   -2.0375 C   0  0  0  0  0  0  0  0  0  0  0  0
   -5.0057   -3.0935   -0.7340 C   0  0  0  0  0  0  0  0  0  0  0  0
   -3.6137   -2.8056   -0.1774 C   0  0  0  0  0  0  0  0  0  0  0  0
   -0.1397    0.7451    0.9489 H   0  0  0  0  0  0  0  0  0  0  0  0
    2.6441   -0.6892    3.4734 H   0  0  0  0  0  0  0  0  0  0  0  0
    4.9202    0.5732    2.8191 H   0  0  0  0  0  0  0  0  0  0  0  0
    6.3387    2.0443    1.4507 H   0  0  0  0  0  0  0  0  0  0  0  0
    7.6494    3.5861    0.0683 H   0  0  0  0  0  0  0  0  0  0  0  0
    4.1545    4.4631   -2.2919 H   0  0  0  0  0  0  0  0  0  0  0  0
    2.8311    2.9223   -0.9136 H   0  0  0  0  0  0  0  0  0  0  0  0
   -1.2747   -1.0510   -0.2395 H   0  0  0  0  0  0  0  0  0  0  0  0
   -4.0625   -0.9167    0.7507 H   0  0  0  0  0  0  0  0  0  0  0  0
   -3.5110    0.5266   -1.1697 H   0  0  0  0  0  0  0  0  0  0  0  0
   -2.8732   -0.8403   -2.0710 H   0  0  0  0  0  0  0  0  0  0  0  0
   -5.1430   -0.3450   -2.8451 H   0  0  0  0  0  0  0  0  0  0  0  0
   -5.7741   -0.4232   -1.2018 H   0  0  0  0  0  0  0  0  0  0  0  0
   -6.2869   -2.5176   -2.3713 H   0  0  0  0  0  0  0  0  0  0  0  0
   -4.5966   -2.7353   -2.8191 H   0  0  0  0  0  0  0  0  0  0  0  0
   -5.1199   -4.1703   -0.9015 H   0  0  0  0  0  0  0  0  0  0  0  0
   -5.7610   -2.8034    0.0066 H   0  0  0  0  0  0  0  0  0  0  0  0
   -3.4942   -3.3184    0.7845 H   0  0  0  0  0  0  0  0  0  0  0  0
   -2.8575   -3.2314   -0.8501 H   0  0  0  0  0  0  0  0  0  0  0  0
  1  2  3  0
  2  3  1  0
  3  4  2  3
  4  5  1  0
  5  6  2  0
  6  7  1  0
  7  8  2  0
  8  9  1  0
  9 10  2  0
 10 11  1  0
 11 12  2  0
 12 13  1  0
 12 14  1  0
 14 15  2  0
  8 16  1  0
  3 17  1  0
 17 18  2  0
 17 19  1  0
 19 20  1  0
 20 21  1  0
 21 22  1  0
 22 23  1  0
 23 24  1  0
 24 25  1  0
 16  5  1  0
 25 20  1  0
 15  9  1  0
  4 26  1  0
  6 27  1  0
  7 28  1  0
 10 29  1  0
 11 30  1  0
 14 31  1  0
 15 32  1  0
 19 33  1  0
 20 34  1  0
 21 35  1  0
 21 36  1  0
 22 37  1  0
 22 38  1  0
 23 39  1  0
 23 40  1  0
 24 41  1  0
 24 42  1  0
 25 43  1  0
 25 44  1  0
M  END
$$$$
