
     RDKit          3D

 44 47  0  0  0  0  0  0  0  0999 V2000
   -6.5931    0.1614   -2.3636 C   0  0  0  0  0  0  0  0  0  0  0  0
   -5.6865   -0.8185   -1.8744 O   0  0  0  0  0  0  0  0  0  0  0  0
   -4.5973   -0.3633   -1.1847 C   0  0  0  0  0  0  0  0  0  0  0  0
   -4.2792    0.9701   -0.9377 C   0  0  0  0  0  0  0  0  0  0  0  0
   -3.1254    1.2969   -0.2143 C   0  0  0  0  0  0  0  0  0  0  0  0
   -2.2703    0.2981    0.2797 C   0  0  0  0  0  0  0  0  0  0  0  0
   -1.0169    0.6944    1.0486 C   0  0  0  0  0  0  0  0  0  0  0  0
    0.2188    0.4906    0.2060 C   0  0  0  0  0  0  0  0  0  0  0  0
    1.1805   -0.4028    0.4956 C   0  0  0  0  0  0  0  0  0  0  0  0
    2.3481   -0.5235   -0.3982 C   0  0  0  0  0  0  0  0  0  0  0  0
    2.2402   -1.3881   -1.4886 C   0  0  0  0  0  0  0  0  0  0  0  0
    3.3228   -1.5104   -2.3337 C   0  0  0  0  0  0  0  0  0  0  0  0
    4.4813   -0.8404   -2.1691 N   0  0  0  0  0  0  0  0  0  0  0  0
    4.5892   -0.0013   -1.1277 C   0  0  0  0  0  0  0  0  0  0  0  0
    5.7820    0.6915   -0.9651 C   0  0  0  0  0  0  0  0  0  0  0  0
    5.9787    1.5880    0.0884 C   0  0  0  0  0  0  0  0  0  0  0  0
    4.9572    1.7987    1.0020 C   0  0  0  0  0  0  0  0  0  0  0  0
    5.1799    2.9009    2.3025 Cl  0  0  0  0  0  0  0  0  0  0  0  0
    3.7497    1.1186    0.8674 C   0  0  0  0  0  0  0  0  0  0  0  0
    3.5458    0.2063   -0.1969 C   0  0  0  0  0  0  0  0  0  0  0  0
    1.1381   -1.3370    1.6721 C   0  0  0  0  0  0  0  0  0  0  0  0
   -0.2116   -1.2968    2.3652 C   0  0  0  0  0  0  0  0  0  0  0  0
   -0.6635   -2.2877    2.9416 O   0  0  0  0  0  0  0  0  0  0  0  0
   -0.9163    0.0373    2.4317 C   0  0  0  0  0  0  0  0  0  0  0  0
   -2.5965   -1.0394    0.0169 C   0  0  0  0  0  0  0  0  0  0  0  0
   -3.7497   -1.3621   -0.7049 C   0  0  0  0  0  0  0  0  0  0  0  0
   -7.0325    0.7383   -1.5431 H   0  0  0  0  0  0  0  0  0  0  0  0
   -7.4066   -0.3616   -2.8756 H   0  0  0  0  0  0  0  0  0  0  0  0
   -6.1079    0.8177   -3.0938 H   0  0  0  0  0  0  0  0  0  0  0  0
   -4.9041    1.7822   -1.2936 H   0  0  0  0  0  0  0  0  0  0  0  0
   -2.9020    2.3480   -0.0412 H   0  0  0  0  0  0  0  0  0  0  0  0
   -1.0832    1.7744    1.2435 H   0  0  0  0  0  0  0  0  0  0  0  0
    0.3039    1.1209   -0.6792 H   0  0  0  0  0  0  0  0  0  0  0  0
    1.3343   -1.9544   -1.6793 H   0  0  0  0  0  0  0  0  0  0  0  0
    3.2890   -2.1715   -3.1953 H   0  0  0  0  0  0  0  0  0  0  0  0
    6.5837    0.5287   -1.6828 H   0  0  0  0  0  0  0  0  0  0  0  0
    6.9263    2.1115    0.1812 H   0  0  0  0  0  0  0  0  0  0  0  0
    2.9617    1.3026    1.5928 H   0  0  0  0  0  0  0  0  0  0  0  0
    1.3107   -2.3677    1.3417 H   0  0  0  0  0  0  0  0  0  0  0  0
    1.9039   -1.0669    2.4068 H   0  0  0  0  0  0  0  0  0  0  0  0
   -0.3241    0.6687    3.1065 H   0  0  0  0  0  0  0  0  0  0  0  0
   -1.9040   -0.0923    2.8886 H   0  0  0  0  0  0  0  0  0  0  0  0
   -1.9661   -1.8542    0.3632 H   0  0  0  0  0  0  0  0  0  0  0  0
   -3.9889   -2.4061   -0.8941 H   0  0  0  0  0  0  0  0  0  0  0  0
  1  2  1  0
  2  3  1  0
  3  4  2  0
  4  5  1  0
  5  6  2  0
  6  7  1  0
  7  8  1  0
  8  9  2  0
  9 10  1  0
 10 11  2  0
 11 12  1  0
 12 13  2  0
 13 14  1  0
 14 15  2  0
 15 16  1  0
 16 17  2  0
 17 18  1  0
 17 19  1  0
 19 20  2  0
  9 21  1  0
 21 22  1  0
 22 23  2  0
 22 24  1  0
  6 25  1  0
 25 26  2  0
 26  3  1  0
 24  7  1  0
 20 10  1  0
 20 14  1  0
  1 27  1  0
  1 28  1  0
  1 29  1  0
  4 30  1  0
  5 31  1  0
  7 32  1  0
  8 33  1  0
 11 34  1  0
 12 35  1  0
 15 36  1  0
 16 37  1  0
 19 38  1  0
 21 39  1  0
 21 40  1  0
 24 41  1  0
 24 42  1  0
 25 43  1  0
 26 44  1  0
M  END
$$$$
