
     RDKit          3D

 66 72  0  0  0  0  0  0  0  0999 V2000
    1.6887    0.8556   -2.9368 O   0  0  0  0  0  0  0  0  0  0  0  0
    1.7713    0.9063   -1.7150 C   0  0  0  0  0  0  0  0  0  0  0  0
    2.9194    0.6729   -0.9455 N   0  0  0  0  0  0  0  0  0  0  0  0
    4.1734    0.2230   -1.4998 C   0  0  0  0  0  0  0  0  0  0  0  0
    4.3598   -1.2741   -1.3970 C   0  0  0  0  0  0  0  0  0  0  0  0
    3.5162   -2.1461   -2.1036 C   0  0  0  0  0  0  0  0  0  0  0  0
    3.6866   -3.5286   -2.0144 C   0  0  0  0  0  0  0  0  0  0  0  0
    4.7032   -4.0561   -1.2207 C   0  0  0  0  0  0  0  0  0  0  0  0
    5.5509   -3.2018   -0.5173 C   0  0  0  0  0  0  0  0  0  0  0  0
    5.3820   -1.8181   -0.6059 C   0  0  0  0  0  0  0  0  0  0  0  0
    2.6659    0.8917    0.4181 C   0  0  0  0  0  0  0  0  0  0  0  0
    3.5379    0.7779    1.4868 C   0  0  0  0  0  0  0  0  0  0  0  0
    3.0538    1.0683    2.7658 C   0  0  0  0  0  0  0  0  0  0  0  0
    1.7203    1.4624    2.9555 C   0  0  0  0  0  0  0  0  0  0  0  0
    0.8499    1.5696    1.8694 C   0  0  0  0  0  0  0  0  0  0  0  0
    1.3334    1.2821    0.6009 C   0  0  0  0  0  0  0  0  0  0  0  0
    0.6413    1.3010   -0.7286 C   0  0  0  0  0  0  0  0  0  0  0  0
    0.0141    2.6215   -1.1029 N   0  0  0  0  0  0  0  0  0  0  0  0
   -1.4340    2.3918   -1.4622 C   0  0  2  0  0  0  0  0  0  0  0  0
   -2.3966    3.4178   -0.8413 C   0  0  0  0  0  0  0  0  0  0  0  0
   -2.3982    3.5362    0.6671 C   0  0  0  0  0  0  0  0  0  0  0  0
   -1.5393    4.4377    1.3107 C   0  0  0  0  0  0  0  0  0  0  0  0
   -1.5488    4.5568    2.7016 C   0  0  0  0  0  0  0  0  0  0  0  0
   -2.4141    3.7732    3.4633 C   0  0  0  0  0  0  0  0  0  0  0  0
   -3.2697    2.8705    2.8344 C   0  0  0  0  0  0  0  0  0  0  0  0
   -3.2634    2.7532    1.4436 C   0  0  0  0  0  0  0  0  0  0  0  0
   -1.6629    0.9805   -1.0948 C   0  0  0  0  0  0  0  0  0  0  0  0
   -0.4826    0.3543   -0.7114 C   0  0  0  0  0  0  0  0  0  0  0  0
   -0.7465   -0.9608   -0.4354 C   0  0  0  0  0  0  0  0  0  0  0  0
    0.0912   -1.8887    0.0231 O   0  0  0  0  0  0  0  0  0  0  0  0
   -2.1202   -1.1577   -0.6612 N   0  0  0  0  0  0  0  0  0  0  0  0
   -2.8278   -2.3841   -0.5007 C   0  0  0  0  0  0  0  0  0  0  0  0
   -4.1200   -2.3816    0.0411 C   0  0  0  0  0  0  0  0  0  0  0  0
   -4.8133   -3.5835    0.1928 C   0  0  0  0  0  0  0  0  0  0  0  0
   -4.2241   -4.7851   -0.2007 C   0  0  0  0  0  0  0  0  0  0  0  0
   -2.9385   -4.7900   -0.7414 C   0  0  0  0  0  0  0  0  0  0  0  0
   -2.2364   -3.5930   -0.8912 C   0  0  0  0  0  0  0  0  0  0  0  0
   -2.6752    0.0603   -1.0978 C   0  0  0  0  0  0  0  0  0  0  0  0
   -3.9329    0.2206   -1.5078 O   0  0  0  0  0  0  0  0  0  0  0  0
    4.9930    0.7609   -1.0086 H   0  0  0  0  0  0  0  0  0  0  0  0
    4.2187    0.5018   -2.5604 H   0  0  0  0  0  0  0  0  0  0  0  0
    2.7160   -1.7499   -2.7273 H   0  0  0  0  0  0  0  0  0  0  0  0
    3.0232   -4.1910   -2.5646 H   0  0  0  0  0  0  0  0  0  0  0  0
    4.8347   -5.1327   -1.1506 H   0  0  0  0  0  0  0  0  0  0  0  0
    6.3442   -3.6132    0.1017 H   0  0  0  0  0  0  0  0  0  0  0  0
    6.0547   -1.1694   -0.0502 H   0  0  0  0  0  0  0  0  0  0  0  0
    4.5689    0.4744    1.3567 H   0  0  0  0  0  0  0  0  0  0  0  0
    3.7149    0.9877    3.6254 H   0  0  0  0  0  0  0  0  0  0  0  0
    1.3582    1.6840    3.9564 H   0  0  0  0  0  0  0  0  0  0  0  0
   -0.1845    1.8630    2.0143 H   0  0  0  0  0  0  0  0  0  0  0  0
    0.4809    2.9262   -1.9567 H   0  0  0  0  0  0  0  0  0  0  0  0
   -1.5170    2.4704   -2.5549 H   0  0  0  0  0  0  0  0  0  0  0  0
   -3.4216    3.1955   -1.1698 H   0  0  0  0  0  0  0  0  0  0  0  0
   -2.1746    4.4086   -1.2622 H   0  0  0  0  0  0  0  0  0  0  0  0
   -0.8471    5.0426    0.7286 H   0  0  0  0  0  0  0  0  0  0  0  0
   -0.8740    5.2559    3.1885 H   0  0  0  0  0  0  0  0  0  0  0  0
   -2.4185    3.8644    4.5457 H   0  0  0  0  0  0  0  0  0  0  0  0
   -3.9445    2.2575    3.4255 H   0  0  0  0  0  0  0  0  0  0  0  0
   -3.9377    2.0458    0.9652 H   0  0  0  0  0  0  0  0  0  0  0  0
   -0.4146   -2.5588    0.5152 H   0  0  0  0  0  0  0  0  0  0  0  0
   -4.5846   -1.4616    0.3929 H   0  0  0  0  0  0  0  0  0  0  0  0
   -5.8114   -3.5849    0.6244 H   0  0  0  0  0  0  0  0  0  0  0  0
   -4.7681   -5.7195   -0.0854 H   0  0  0  0  0  0  0  0  0  0  0  0
   -2.4865   -5.7272   -1.0577 H   0  0  0  0  0  0  0  0  0  0  0  0
   -1.2526   -3.6193   -1.3568 H   0  0  0  0  0  0  0  0  0  0  0  0
   -4.2853   -0.6472   -1.7759 H   0  0  0  0  0  0  0  0  0  0  0  0
  1  2  2  0
  2  3  1  0
  3  4  1  0
  4  5  1  0
  5  6  2  0
  6  7  1  0
  7  8  2  0
  8  9  1  0
  9 10  2  0
  3 11  1  0
 11 12  2  0
 12 13  1  0
 13 14  2  0
 14 15  1  0
 15 16  2  0
 16 17  1  0
 17 18  1  0
 18 19  1  0
 19 20  1  0
 20 21  1  0
 21 22  2  0
 22 23  1  0
 23 24  2  0
 24 25  1  0
 25 26  2  0
 19 27  1  0
 27 28  1  0
 28 29  2  0
 29 30  1  0
 29 31  1  0
 31 32  1  0
 32 33  2  0
 33 34  1  0
 34 35  2  0
 35 36  1  0
 36 37  2  0
 31 38  1  0
 38 39  1  0
 17  2  1  0
 26 21  1  0
 38 27  2  0
 10  5  1  0
 16 11  1  0
 28 17  1  0
 37 32  1  0
  4 40  1  0
  4 41  1  0
  6 42  1  0
  7 43  1  0
  8 44  1  0
  9 45  1  0
 10 46  1  0
 12 47  1  0
 13 48  1  0
 14 49  1  0
 15 50  1  0
 18 51  1  0
 19 52  1  6
 20 53  1  0
 20 54  1  0
 22 55  1  0
 23 56  1  0
 24 57  1  0
 25 58  1  0
 26 59  1  0
 30 60  1  0
 33 61  1  0
 34 62  1  0
 35 63  1  0
 36 64  1  0
 37 65  1  0
 39 66  1  0
M  END
$$$$
