
     RDKit          3D

 32 34  0  0  0  0  0  0  0  0999 V2000
    6.6447   -0.6604   -0.7780 C   0  0  0  0  0  0  0  0  0  0  0  0
    5.6513   -0.3883    0.2027 O   0  0  0  0  0  0  0  0  0  0  0  0
    4.3453   -0.4158   -0.2076 C   0  0  0  0  0  0  0  0  0  0  0  0
    3.9045   -0.6821   -1.5018 C   0  0  0  0  0  0  0  0  0  0  0  0
    2.5349   -0.6820   -1.8035 C   0  0  0  0  0  0  0  0  0  0  0  0
    1.5915   -0.4115   -0.7933 C   0  0  0  0  0  0  0  0  0  0  0  0
    0.2156   -0.3775   -0.9493 N   0  0  0  0  0  0  0  0  0  0  0  0
   -0.3506   -0.1039    0.2014 C   0  0  0  0  0  0  0  0  0  0  0  0
   -1.7141   -0.0044    0.2951 N   0  0  0  0  0  0  0  0  0  0  0  0
   -2.4598    0.1905    1.4313 C   0  0  0  0  0  0  0  0  0  0  0  0
   -2.0357    0.2296    2.5794 O   0  0  0  0  0  0  0  0  0  0  0  0
   -3.8976    0.2973    1.1858 C   0  0  0  0  0  0  0  0  0  0  0  0
   -4.9293   -0.0352    2.1179 C   0  0  0  0  0  0  0  0  0  0  0  0
   -6.1262    0.2117    1.4945 C   0  0  0  0  0  0  0  0  0  0  0  0
   -5.9133    0.6982    0.2486 O   0  0  0  0  0  0  0  0  0  0  0  0
   -4.5637    0.7746    0.0645 C   0  0  0  0  0  0  0  0  0  0  0  0
   -4.1463    1.3597   -1.2297 C   0  0  0  0  0  0  0  0  0  0  0  0
    0.6976    0.1483    1.5149 S   0  0  0  0  0  0  0  0  0  0  0  0
    2.0517   -0.1468    0.4964 C   0  0  0  0  0  0  0  0  0  0  0  0
    3.4206   -0.1441    0.8085 C   0  0  0  0  0  0  0  0  0  0  0  0
    6.6258    0.0883   -1.5768 H   0  0  0  0  0  0  0  0  0  0  0  0
    6.5347   -1.6726   -1.1808 H   0  0  0  0  0  0  0  0  0  0  0  0
    7.6219   -0.6010   -0.2893 H   0  0  0  0  0  0  0  0  0  0  0  0
    4.5973   -0.8958   -2.3095 H   0  0  0  0  0  0  0  0  0  0  0  0
    2.1931   -0.8899   -2.8127 H   0  0  0  0  0  0  0  0  0  0  0  0
   -2.1782   -0.1845   -0.5808 H   0  0  0  0  0  0  0  0  0  0  0  0
   -4.7960   -0.4172    3.1214 H   0  0  0  0  0  0  0  0  0  0  0  0
   -7.1615    0.1081    1.7885 H   0  0  0  0  0  0  0  0  0  0  0  0
   -4.9435    1.9757   -1.6583 H   0  0  0  0  0  0  0  0  0  0  0  0
   -3.2665    1.9981   -1.1049 H   0  0  0  0  0  0  0  0  0  0  0  0
   -3.9072    0.5684   -1.9464 H   0  0  0  0  0  0  0  0  0  0  0  0
    3.7590    0.0644    1.8194 H   0  0  0  0  0  0  0  0  0  0  0  0
  1  2  1  0
  2  3  1  0
  3  4  2  0
  4  5  1  0
  5  6  2  0
  6  7  1  0
  7  8  2  0
  8  9  1  0
  9 10  1  0
 10 11  2  0
 10 12  1  0
 12 13  1  0
 13 14  2  0
 14 15  1  0
 15 16  1  0
 16 17  1  0
  8 18  1  0
 18 19  1  0
 19 20  2  0
 20  3  1  0
 19  6  1  0
 16 12  2  0
  1 21  1  0
  1 22  1  0
  1 23  1  0
  4 24  1  0
  5 25  1  0
  9 26  1  0
 13 27  1  0
 14 28  1  0
 17 29  1  0
 17 30  1  0
 17 31  1  0
 20 32  1  0
M  END
$$$$
