
     RDKit          3D

 35 37  0  0  0  0  0  0  0  0999 V2000
   -4.4278   -2.3045   -1.0388 C   0  0  0  0  0  0  0  0  0  0  0  0
   -4.0261   -1.1019   -0.3972 O   0  0  0  0  0  0  0  0  0  0  0  0
   -3.5229   -0.1454   -1.3309 C   0  0  0  0  0  0  0  0  0  0  0  0
   -3.0957    1.1307   -0.5915 C   0  0  0  0  0  0  0  0  0  0  0  0
   -1.9507    0.9055    0.3080 N   0  0  0  0  0  0  0  0  0  0  0  0
   -2.1185    0.7691    1.7005 C   0  0  0  0  0  0  0  0  0  0  0  0
   -3.5462    0.9242    2.5734 S   0  0  0  0  0  0  0  0  0  0  0  0
   -0.9937    0.5001    2.4451 N   0  0  0  0  0  0  0  0  0  0  0  0
    0.2142    0.3862    1.8359 C   0  0  0  0  0  0  0  0  0  0  0  0
    1.5782    0.0595    2.7562 S   0  0  0  0  0  0  0  0  0  0  0  0
    2.5480    0.0754    1.3485 C   0  0  0  0  0  0  0  0  0  0  0  0
    1.8183    0.3441    0.1979 C   0  0  0  0  0  0  0  0  0  0  0  0
    0.4275    0.5172    0.4984 C   0  0  0  0  0  0  0  0  0  0  0  0
   -0.7081    0.7860   -0.3595 C   0  0  0  0  0  0  0  0  0  0  0  0
   -0.5804    0.8943   -1.5779 O   0  0  0  0  0  0  0  0  0  0  0  0
    2.4642    0.3962   -1.1558 C   0  0  0  0  0  0  0  0  0  0  0  0
    3.9943    0.5092   -1.0557 C   0  0  0  0  0  0  0  0  0  0  0  0
    4.5716   -0.4500   -0.0048 C   0  0  0  0  0  0  0  0  0  0  0  0
    4.0272   -0.1490    1.4002 C   0  0  0  0  0  0  0  0  0  0  0  0
   -5.2267   -2.1059   -1.7596 H   0  0  0  0  0  0  0  0  0  0  0  0
   -3.5758   -2.7741   -1.5397 H   0  0  0  0  0  0  0  0  0  0  0  0
   -4.8068   -2.9911   -0.2772 H   0  0  0  0  0  0  0  0  0  0  0  0
   -2.6841   -0.5841   -1.8817 H   0  0  0  0  0  0  0  0  0  0  0  0
   -4.3154    0.1056   -2.0454 H   0  0  0  0  0  0  0  0  0  0  0  0
   -3.9488    1.5375   -0.0437 H   0  0  0  0  0  0  0  0  0  0  0  0
   -2.8085    1.8889   -1.3304 H   0  0  0  0  0  0  0  0  0  0  0  0
   -1.0711    0.3912    3.4490 H   0  0  0  0  0  0  0  0  0  0  0  0
    2.0808    1.2456   -1.7317 H   0  0  0  0  0  0  0  0  0  0  0  0
    2.2027   -0.5188   -1.7014 H   0  0  0  0  0  0  0  0  0  0  0  0
    4.2687    1.5381   -0.7891 H   0  0  0  0  0  0  0  0  0  0  0  0
    4.4397    0.3035   -2.0356 H   0  0  0  0  0  0  0  0  0  0  0  0
    5.6652   -0.3804    0.0053 H   0  0  0  0  0  0  0  0  0  0  0  0
    4.3188   -1.4810   -0.2842 H   0  0  0  0  0  0  0  0  0  0  0  0
    4.2778   -0.9769    2.0730 H   0  0  0  0  0  0  0  0  0  0  0  0
    4.5100    0.7552    1.7909 H   0  0  0  0  0  0  0  0  0  0  0  0
  1  2  1  0
  2  3  1  0
  3  4  1  0
  4  5  1  0
  5  6  1  0
  6  7  2  0
  6  8  1  0
  8  9  1  0
  9 10  1  0
 10 11  1  0
 11 12  2  0
 12 13  1  0
 13 14  1  0
 14 15  2  0
 12 16  1  0
 16 17  1  0
 17 18  1  0
 18 19  1  0
 14  5  1  0
 13  9  2  0
 19 11  1  0
  1 20  1  0
  1 21  1  0
  1 22  1  0
  3 23  1  0
  3 24  1  0
  4 25  1  0
  4 26  1  0
  8 27  1  0
 16 28  1  0
 16 29  1  0
 17 30  1  0
 17 31  1  0
 18 32  1  0
 18 33  1  0
 19 34  1  0
 19 35  1  0
M  END
$$$$
