
     RDKit          3D

 47 49  0  0  0  0  0  0  0  0999 V2000
   -5.6682   -3.3655    1.1442 C   0  0  0  0  0  0  0  0  0  0  0  0
   -4.9056   -2.0606    1.2876 C   0  0  0  0  0  0  0  0  0  0  0  0
   -4.2980   -1.7659    0.0308 O   0  0  0  0  0  0  0  0  0  0  0  0
   -3.5634   -0.6157   -0.0532 C   0  0  0  0  0  0  0  0  0  0  0  0
   -3.0138   -0.3691   -1.3159 C   0  0  0  0  0  0  0  0  0  0  0  0
   -2.2364    0.7671   -1.5467 C   0  0  0  0  0  0  0  0  0  0  0  0
   -1.9939    1.6547   -0.4967 C   0  0  0  0  0  0  0  0  0  0  0  0
   -1.0206    3.1176   -0.7836 S   0  0  0  0  0  6  0  0  0  0  0  0
   -1.4335    4.1135    0.1824 O   0  0  0  0  0  0  0  0  0  0  0  0
   -1.0583    3.3948   -2.2042 O   0  0  0  0  0  0  0  0  0  0  0  0
    0.5583    2.6285   -0.3925 N   0  0  0  0  0  0  0  0  0  0  0  0
    0.8325    2.3468    1.0533 C   0  0  0  0  0  0  0  0  0  0  0  0
    2.3510    2.2576    1.2811 C   0  0  0  0  0  0  0  0  0  0  0  0
    2.9530    1.2527    0.3986 N   0  0  0  0  0  0  0  0  0  0  0  0
    2.9829   -0.0603    0.8771 C   0  0  0  0  0  0  0  0  0  0  0  0
    2.4746   -0.3971    1.9434 O   0  0  0  0  0  0  0  0  0  0  0  0
    3.6715   -1.0947    0.0721 C   0  0  0  0  0  0  0  0  0  0  0  0
    4.9109   -0.8394   -0.5134 C   0  0  0  0  0  0  0  0  0  0  0  0
    5.5018   -1.8610   -1.2321 C   0  0  0  0  0  0  0  0  0  0  0  0
    4.9488   -3.0836   -1.3874 N   0  0  0  0  0  0  0  0  0  0  0  0
    3.7634   -3.3087   -0.7790 C   0  0  0  0  0  0  0  0  0  0  0  0
    3.0904   -2.3561   -0.0390 C   0  0  0  0  0  0  0  0  0  0  0  0
    2.7066    1.5379   -1.0238 C   0  0  0  0  0  0  0  0  0  0  0  0
    1.1921    1.6264   -1.3031 C   0  0  0  0  0  0  0  0  0  0  0  0
   -2.5602    1.4341    0.7618 C   0  0  0  0  0  0  0  0  0  0  0  0
   -3.3380    0.2927    0.9835 C   0  0  0  0  0  0  0  0  0  0  0  0
   -4.9937   -4.1755    0.8473 H   0  0  0  0  0  0  0  0  0  0  0  0
   -6.4304   -3.2827    0.3623 H   0  0  0  0  0  0  0  0  0  0  0  0
   -6.1551   -3.6381    2.0847 H   0  0  0  0  0  0  0  0  0  0  0  0
   -4.1391   -2.1776    2.0623 H   0  0  0  0  0  0  0  0  0  0  0  0
   -5.6064   -1.2656    1.5673 H   0  0  0  0  0  0  0  0  0  0  0  0
   -3.2030   -1.0674   -2.1286 H   0  0  0  0  0  0  0  0  0  0  0  0
   -1.8339    0.9506   -2.5401 H   0  0  0  0  0  0  0  0  0  0  0  0
    0.4342    3.1514    1.6788 H   0  0  0  0  0  0  0  0  0  0  0  0
    0.3541    1.4043    1.3399 H   0  0  0  0  0  0  0  0  0  0  0  0
    2.8265    3.2192    1.0538 H   0  0  0  0  0  0  0  0  0  0  0  0
    2.5651    2.0202    2.3288 H   0  0  0  0  0  0  0  0  0  0  0  0
    5.4062    0.1186   -0.4044 H   0  0  0  0  0  0  0  0  0  0  0  0
    6.4662   -1.7251   -1.7139 H   0  0  0  0  0  0  0  0  0  0  0  0
    3.3604   -4.3099   -0.9051 H   0  0  0  0  0  0  0  0  0  0  0  0
    2.1461   -2.5886    0.4412 H   0  0  0  0  0  0  0  0  0  0  0  0
    3.1922    2.4935   -1.2540 H   0  0  0  0  0  0  0  0  0  0  0  0
    3.1425    0.7741   -1.6708 H   0  0  0  0  0  0  0  0  0  0  0  0
    1.0498    1.9181   -2.3482 H   0  0  0  0  0  0  0  0  0  0  0  0
    0.7321    0.6449   -1.1434 H   0  0  0  0  0  0  0  0  0  0  0  0
   -2.4045    2.1426    1.5728 H   0  0  0  0  0  0  0  0  0  0  0  0
   -3.7574    0.1462    1.9737 H   0  0  0  0  0  0  0  0  0  0  0  0
  1  2  1  0
  2  3  1  0
  3  4  1  0
  4  5  2  0
  5  6  1  0
  6  7  2  0
  7  8  1  0
  8  9  2  0
  8 10  2  0
  8 11  1  0
 11 12  1  0
 12 13  1  0
 13 14  1  0
 14 15  1  0
 15 16  2  0
 15 17  1  0
 17 18  2  0
 18 19  1  0
 19 20  2  0
 20 21  1  0
 21 22  2  0
 14 23  1  0
 23 24  1  0
  7 25  1  0
 25 26  2  0
 26  4  1  0
 24 11  1  0
 22 17  1  0
  1 27  1  0
  1 28  1  0
  1 29  1  0
  2 30  1  0
  2 31  1  0
  5 32  1  0
  6 33  1  0
 12 34  1  0
 12 35  1  0
 13 36  1  0
 13 37  1  0
 18 38  1  0
 19 39  1  0
 21 40  1  0
 22 41  1  0
 23 42  1  0
 23 43  1  0
 24 44  1  0
 24 45  1  0
 25 46  1  0
 26 47  1  0
M  END
$$$$
