
     RDKit          3D

 48 50  0  0  0  0  0  0  0  0999 V2000
   -4.1388   -3.0281   -0.2414 C   0  0  0  0  0  0  0  0  0  0  0  0
   -4.9929   -1.8234   -0.6184 C   0  0  0  0  0  0  0  0  0  0  0  0
   -4.4091   -0.4452   -0.2352 C   0  0  0  0  0  0  0  0  0  0  0  0
   -3.0796   -0.2070   -0.7783 N   0  0  0  0  0  0  0  0  0  0  0  0
   -2.8798   -0.0052   -2.1352 C   0  0  0  0  0  0  0  0  0  0  0  0
   -3.7939   -0.1016   -2.9495 O   0  0  0  0  0  0  0  0  0  0  0  0
   -1.5027    0.3480   -2.5099 C   0  0  0  0  0  0  0  0  0  0  0  0
   -0.3149    0.2681   -1.7325 C   0  0  0  0  0  0  0  0  0  0  0  0
    0.6844    0.7156   -2.5627 C   0  0  0  0  0  0  0  0  0  0  0  0
    2.1488    0.8984   -2.4362 C   0  0  0  0  0  0  0  0  0  0  0  0
    2.4838    0.6173   -1.0790 O   0  0  0  0  0  0  0  0  0  0  0  0
    3.7961    0.7218   -0.7042 C   0  0  0  0  0  0  0  0  0  0  0  0
    4.8448    1.0592   -1.5611 C   0  0  0  0  0  0  0  0  0  0  0  0
    6.1539    1.1360   -1.0720 C   0  0  0  0  0  0  0  0  0  0  0  0
    6.4382    0.8802    0.2715 C   0  0  0  0  0  0  0  0  0  0  0  0
    7.7586    0.9927    0.6062 O   0  0  0  0  0  0  0  0  0  0  0  0
    8.1009    0.7728    1.9696 C   0  0  0  0  0  0  0  0  0  0  0  0
    5.3981    0.5421    1.1330 C   0  0  0  0  0  0  0  0  0  0  0  0
    4.0876    0.4640    0.6459 C   0  0  0  0  0  0  0  0  0  0  0  0
    2.8333    0.0401    1.7642 Cl  0  0  0  0  0  0  0  0  0  0  0  0
    0.1438    1.0437   -3.7641 O   0  0  0  0  0  0  0  0  0  0  0  0
   -1.2155    0.8114   -3.7391 N   0  0  0  0  0  0  0  0  0  0  0  0
   -4.4364   -0.1997    1.2647 C   0  0  0  0  0  0  0  0  0  0  0  0
   -5.4667    0.5667    1.8236 C   0  0  0  0  0  0  0  0  0  0  0  0
   -5.4774    0.7816    3.1935 C   0  0  0  0  0  0  0  0  0  0  0  0
   -4.5469    0.2904    4.0374 N   0  0  0  0  0  0  0  0  0  0  0  0
   -3.5647   -0.4527    3.4881 C   0  0  0  0  0  0  0  0  0  0  0  0
   -3.4671   -0.7214    2.1309 C   0  0  0  0  0  0  0  0  0  0  0  0
   -4.5851   -3.9407   -0.6509 H   0  0  0  0  0  0  0  0  0  0  0  0
   -4.0783   -3.1564    0.8426 H   0  0  0  0  0  0  0  0  0  0  0  0
   -3.1245   -2.9457   -0.6431 H   0  0  0  0  0  0  0  0  0  0  0  0
   -5.1501   -1.8585   -1.7033 H   0  0  0  0  0  0  0  0  0  0  0  0
   -5.9851   -1.9411   -0.1642 H   0  0  0  0  0  0  0  0  0  0  0  0
   -5.0540    0.3121   -0.7028 H   0  0  0  0  0  0  0  0  0  0  0  0
   -2.3797    0.1547   -0.1472 H   0  0  0  0  0  0  0  0  0  0  0  0
   -0.1896   -0.0775   -0.7172 H   0  0  0  0  0  0  0  0  0  0  0  0
    2.6586    0.1998   -3.1092 H   0  0  0  0  0  0  0  0  0  0  0  0
    2.4094    1.9331   -2.6861 H   0  0  0  0  0  0  0  0  0  0  0  0
    4.6899    1.2696   -2.6143 H   0  0  0  0  0  0  0  0  0  0  0  0
    6.9647    1.3998   -1.7490 H   0  0  0  0  0  0  0  0  0  0  0  0
    7.8669   -0.2528    2.2744 H   0  0  0  0  0  0  0  0  0  0  0  0
    9.1816    0.9120    2.0696 H   0  0  0  0  0  0  0  0  0  0  0  0
    7.6093    1.5021    2.6222 H   0  0  0  0  0  0  0  0  0  0  0  0
    5.5756    0.3354    2.1828 H   0  0  0  0  0  0  0  0  0  0  0  0
   -6.2526    0.9944    1.2087 H   0  0  0  0  0  0  0  0  0  0  0  0
   -6.2598    1.3732    3.6608 H   0  0  0  0  0  0  0  0  0  0  0  0
   -2.8331   -0.8428    4.1902 H   0  0  0  0  0  0  0  0  0  0  0  0
   -2.6500   -1.3363    1.7684 H   0  0  0  0  0  0  0  0  0  0  0  0
  1  2  1  0
  2  3  1  0
  3  4  1  0
  4  5  1  0
  5  6  2  0
  5  7  1  0
  7  8  1  0
  8  9  2  0
  9 10  1  0
 10 11  1  0
 11 12  1  0
 12 13  2  0
 13 14  1  0
 14 15  2  0
 15 16  1  0
 16 17  1  0
 15 18  1  0
 18 19  2  0
 19 20  1  0
  9 21  1  0
 21 22  1  0
  3 23  1  0
 23 24  2  0
 24 25  1  0
 25 26  2  0
 26 27  1  0
 27 28  2  0
 22  7  2  0
 28 23  1  0
 19 12  1  0
  1 29  1  0
  1 30  1  0
  1 31  1  0
  2 32  1  0
  2 33  1  0
  3 34  1  0
  4 35  1  0
  8 36  1  0
 10 37  1  0
 10 38  1  0
 13 39  1  0
 14 40  1  0
 17 41  1  0
 17 42  1  0
 17 43  1  0
 18 44  1  0
 24 45  1  0
 25 46  1  0
 27 47  1  0
 28 48  1  0
M  END
$$$$
