
     RDKit          3D

 39 41  0  0  0  0  0  0  0  0999 V2000
    2.5208    2.7569   -1.2366 C   0  0  0  0  0  0  0  0  0  0  0  0
    1.8319    2.4326    0.0633 C   0  0  0  0  0  0  0  0  0  0  0  0
    2.3321    2.7304    1.1476 O   0  0  0  0  0  0  0  0  0  0  0  0
    0.5291    1.7273   -0.0149 C   0  0  0  0  0  0  0  0  0  0  0  0
    0.4949    0.3865    0.1590 C   0  0  0  0  0  0  0  0  0  0  0  0
    1.5785   -0.4293    0.4682 N   0  0  0  0  0  0  0  0  0  0  0  0
    2.3565   -1.0898   -0.6018 C   0  0  0  0  0  0  0  0  0  0  0  0
    3.3771   -2.0664   -0.0015 C   0  0  0  0  0  0  0  0  0  0  0  0
    4.3306   -1.4361    0.8651 O   0  0  0  0  0  0  0  0  0  0  0  0
    3.8126   -0.2798    1.5456 C   0  0  0  0  0  0  0  0  0  0  0  0
    2.2938   -0.3283    1.7644 C   0  0  0  0  0  0  0  0  0  0  0  0
   -0.7121   -0.2451    0.0037 N   0  0  0  0  0  0  0  0  0  0  0  0
   -1.8832    0.4232   -0.2253 C   0  0  0  0  0  0  0  0  0  0  0  0
   -3.1737   -0.3341   -0.2771 C   0  0  0  0  0  0  0  0  0  0  0  0
   -4.3778    0.3431   -0.0439 C   0  0  0  0  0  0  0  0  0  0  0  0
   -5.5914   -0.3461   -0.0806 C   0  0  0  0  0  0  0  0  0  0  0  0
   -5.6092   -1.7123   -0.3563 C   0  0  0  0  0  0  0  0  0  0  0  0
   -4.4157   -2.3906   -0.6012 C   0  0  0  0  0  0  0  0  0  0  0  0
   -3.1984   -1.7050   -0.5645 C   0  0  0  0  0  0  0  0  0  0  0  0
   -1.9170    1.7107   -0.3967 N   0  0  0  0  0  0  0  0  0  0  0  0
   -0.7479    2.4506   -0.3511 C   0  0  0  0  0  0  0  0  0  0  0  0
   -0.8147    4.1156   -0.6658 S   0  0  0  0  0  0  0  0  0  0  0  0
    2.6221    3.8408   -1.3338 H   0  0  0  0  0  0  0  0  0  0  0  0
    1.9537    2.3765   -2.0909 H   0  0  0  0  0  0  0  0  0  0  0  0
    3.5082    2.2875   -1.2437 H   0  0  0  0  0  0  0  0  0  0  0  0
    1.6802   -1.6331   -1.2712 H   0  0  0  0  0  0  0  0  0  0  0  0
    2.8802   -0.3250   -1.1869 H   0  0  0  0  0  0  0  0  0  0  0  0
    2.8669   -2.8471    0.5750 H   0  0  0  0  0  0  0  0  0  0  0  0
    3.9375   -2.5636   -0.7995 H   0  0  0  0  0  0  0  0  0  0  0  0
    4.3304   -0.2078    2.5071 H   0  0  0  0  0  0  0  0  0  0  0  0
    4.0931    0.5991    0.9554 H   0  0  0  0  0  0  0  0  0  0  0  0
    1.9610    0.5387    2.3437 H   0  0  0  0  0  0  0  0  0  0  0  0
    2.0390   -1.2202    2.3496 H   0  0  0  0  0  0  0  0  0  0  0  0
   -0.7100   -1.2027    0.3273 H   0  0  0  0  0  0  0  0  0  0  0  0
   -4.3773    1.4100    0.1707 H   0  0  0  0  0  0  0  0  0  0  0  0
   -6.5217    0.1858    0.1034 H   0  0  0  0  0  0  0  0  0  0  0  0
   -6.5557   -2.2467   -0.3878 H   0  0  0  0  0  0  0  0  0  0  0  0
   -4.4355   -3.4536   -0.8294 H   0  0  0  0  0  0  0  0  0  0  0  0
   -2.2888   -2.2527   -0.7887 H   0  0  0  0  0  0  0  0  0  0  0  0
  1  2  1  0
  2  3  2  0
  2  4  1  0
  4  5  2  0
  5  6  1  0
  6  7  1  0
  7  8  1  0
  8  9  1  0
  9 10  1  0
 10 11  1  0
  5 12  1  0
 12 13  1  0
 13 14  1  0
 14 15  2  0
 15 16  1  0
 16 17  2  0
 17 18  1  0
 18 19  2  0
 13 20  2  0
 20 21  1  0
 21 22  2  0
 21  4  1  0
 11  6  1  0
 19 14  1  0
  1 23  1  0
  1 24  1  0
  1 25  1  0
  7 26  1  0
  7 27  1  0
  8 28  1  0
  8 29  1  0
 10 30  1  0
 10 31  1  0
 11 32  1  0
 11 33  1  0
 12 34  1  0
 15 35  1  0
 16 36  1  0
 17 37  1  0
 18 38  1  0
 19 39  1  0
M  END
$$$$
