
     RDKit          3D

 45 47  0  0  0  0  0  0  0  0999 V2000
   -3.7077   -0.9302    3.1062 C   0  0  0  0  0  0  0  0  0  0  0  0
   -3.6955   -1.9823    1.6303 S   0  0  0  0  0  0  0  0  0  0  0  0
   -4.1754   -0.7720    0.4030 C   0  0  0  0  0  0  0  0  0  0  0  0
   -5.3735   -0.9944   -0.2893 C   0  0  0  0  0  0  0  0  0  0  0  0
   -5.8282   -0.0787   -1.2422 C   0  0  0  0  0  0  0  0  0  0  0  0
   -5.0908    1.0719   -1.5123 C   0  0  0  0  0  0  0  0  0  0  0  0
   -3.8900    1.2995   -0.8424 C   0  0  0  0  0  0  0  0  0  0  0  0
   -3.4205    0.3692    0.0894 C   0  0  0  0  0  0  0  0  0  0  0  0
   -2.2330    0.6506    0.7178 O   0  0  0  0  0  0  0  0  0  0  0  0
   -1.1210    0.0264    0.0465 C   0  0  0  0  0  0  0  0  0  0  0  0
   -0.1151   -0.4169    1.1049 C   0  0  0  0  0  0  0  0  0  0  0  0
    1.1064   -1.0791    0.4602 C   0  0  0  0  0  0  0  0  0  0  0  0
    1.4039   -0.5575   -0.8772 N   0  0  0  0  0  0  0  0  0  0  0  0
    2.7331   -0.9227   -1.3809 C   0  0  0  0  0  0  0  0  0  0  0  0
    3.9245   -0.2838   -0.6973 C   0  0  0  0  0  0  0  0  0  0  0  0
    4.5925   -0.9471    0.3433 C   0  0  0  0  0  0  0  0  0  0  0  0
    5.6932   -0.3612    0.9713 C   0  0  0  0  0  0  0  0  0  0  0  0
    6.1431    0.8927    0.5640 C   0  0  0  0  0  0  0  0  0  0  0  0
    5.4952    1.5602   -0.4730 C   0  0  0  0  0  0  0  0  0  0  0  0
    4.3943    0.9750   -1.1015 C   0  0  0  0  0  0  0  0  0  0  0  0
    1.0551    0.8486   -1.0260 C   0  0  0  0  0  0  0  0  0  0  0  0
   -0.4620    1.0313   -0.9116 C   0  0  0  0  0  0  0  0  0  0  0  0
   -2.8953   -0.2005    3.0807 H   0  0  0  0  0  0  0  0  0  0  0  0
   -3.5711   -1.5595    3.9900 H   0  0  0  0  0  0  0  0  0  0  0  0
   -4.6641   -0.4081    3.1990 H   0  0  0  0  0  0  0  0  0  0  0  0
   -5.9700   -1.8807   -0.0840 H   0  0  0  0  0  0  0  0  0  0  0  0
   -6.7629   -0.2620   -1.7663 H   0  0  0  0  0  0  0  0  0  0  0  0
   -5.4502    1.7907   -2.2442 H   0  0  0  0  0  0  0  0  0  0  0  0
   -3.3170    2.1989   -1.0488 H   0  0  0  0  0  0  0  0  0  0  0  0
   -1.4415   -0.8624   -0.5172 H   0  0  0  0  0  0  0  0  0  0  0  0
    0.1974    0.4556    1.6949 H   0  0  0  0  0  0  0  0  0  0  0  0
   -0.5808   -1.1035    1.8207 H   0  0  0  0  0  0  0  0  0  0  0  0
    0.9228   -2.1569    0.3745 H   0  0  0  0  0  0  0  0  0  0  0  0
    1.9444   -0.9518    1.1531 H   0  0  0  0  0  0  0  0  0  0  0  0
    2.8422   -2.0151   -1.3416 H   0  0  0  0  0  0  0  0  0  0  0  0
    2.7827   -0.6909   -2.4535 H   0  0  0  0  0  0  0  0  0  0  0  0
    4.2560   -1.9282    0.6713 H   0  0  0  0  0  0  0  0  0  0  0  0
    6.1997   -0.8846    1.7780 H   0  0  0  0  0  0  0  0  0  0  0  0
    7.0000    1.3483    1.0528 H   0  0  0  0  0  0  0  0  0  0  0  0
    5.8479    2.5366   -0.7945 H   0  0  0  0  0  0  0  0  0  0  0  0
    3.9045    1.5070   -1.9136 H   0  0  0  0  0  0  0  0  0  0  0  0
    1.3638    1.2322   -2.0060 H   0  0  0  0  0  0  0  0  0  0  0  0
    1.5602    1.4612   -0.2684 H   0  0  0  0  0  0  0  0  0  0  0  0
   -0.6759    2.0626   -0.6044 H   0  0  0  0  0  0  0  0  0  0  0  0
   -0.9211    0.9115   -1.9016 H   0  0  0  0  0  0  0  0  0  0  0  0
  1  2  1  0
  2  3  1  0
  3  4  2  0
  4  5  1  0
  5  6  2  0
  6  7  1  0
  7  8  2  0
  8  9  1  0
  9 10  1  0
 10 11  1  0
 11 12  1  0
 12 13  1  0
 13 14  1  0
 14 15  1  0
 15 16  2  0
 16 17  1  0
 17 18  2  0
 18 19  1  0
 19 20  2  0
 13 21  1  0
 21 22  1  0
  8  3  1  0
 22 10  1  0
 20 15  1  0
  1 23  1  0
  1 24  1  0
  1 25  1  0
  4 26  1  0
  5 27  1  0
  6 28  1  0
  7 29  1  0
 10 30  1  0
 11 31  1  0
 11 32  1  0
 12 33  1  0
 12 34  1  0
 14 35  1  0
 14 36  1  0
 16 37  1  0
 17 38  1  0
 18 39  1  0
 19 40  1  0
 20 41  1  0
 21 42  1  0
 21 43  1  0
 22 44  1  0
 22 45  1  0
M  END
$$$$
