
     RDKit          3D

 50 52  0  0  0  0  0  0  0  0999 V2000
   -4.4416   -0.5368    0.3368 O   0  0  0  0  0  0  0  0  0  0  0  0
   -4.5725   -0.9129   -0.8248 C   0  0  0  0  0  0  0  0  0  0  0  0
   -3.4065   -1.3516   -1.7087 C   0  0  0  0  0  0  0  0  0  0  0  0
   -2.1813   -1.3159   -0.9808 O   0  0  0  0  0  0  0  0  0  0  0  0
   -1.0959   -1.6534   -1.7126 C   0  0  0  0  0  0  0  0  0  0  0  0
   -1.1032   -1.9642   -2.8930 O   0  0  0  0  0  0  0  0  0  0  0  0
    0.1361   -1.5918   -0.8791 C   0  0  0  0  0  0  0  0  0  0  0  0
    1.3616   -1.9061   -1.4867 C   0  0  0  0  0  0  0  0  0  0  0  0
    2.5465   -1.8625   -0.7488 C   0  0  0  0  0  0  0  0  0  0  0  0
    2.5038   -1.4981    0.6003 C   0  0  0  0  0  0  0  0  0  0  0  0
    4.0218   -1.4533    1.5266 S   0  0  0  0  0  6  0  0  0  0  0  0
    4.7131   -2.6943    1.2492 O   0  0  0  0  0  0  0  0  0  0  0  0
    3.7131   -1.0558    2.8832 O   0  0  0  0  0  0  0  0  0  0  0  0
    4.8716   -0.1814    0.7782 N   0  0  0  0  0  0  0  0  0  0  0  0
    4.2956    1.1853    0.8545 C   0  0  0  0  0  0  0  0  0  0  0  0
    4.6931    1.9079    2.1377 C   0  0  0  0  0  0  0  0  0  0  0  0
    6.2025    1.8896    2.3548 C   0  0  0  0  0  0  0  0  0  0  0  0
    6.7483    0.4680    2.2699 C   0  0  0  0  0  0  0  0  0  0  0  0
    6.3454   -0.1924    0.9579 C   0  0  0  0  0  0  0  0  0  0  0  0
    1.2904   -1.1913    1.2216 C   0  0  0  0  0  0  0  0  0  0  0  0
    0.1068   -1.2356    0.4790 C   0  0  0  0  0  0  0  0  0  0  0  0
   -5.7967   -0.9871   -1.4593 N   0  0  0  0  0  0  0  0  0  0  0  0
   -6.9960   -0.4721   -0.8374 C   0  0  0  0  0  0  0  0  0  0  0  0
   -7.1956    0.9228   -1.2987 C   0  0  0  0  0  0  0  0  0  0  0  0
   -6.8862    2.1525   -0.7555 C   0  0  0  0  0  0  0  0  0  0  0  0
   -7.3230    3.1222   -1.6893 C   0  0  0  0  0  0  0  0  0  0  0  0
   -7.8652    2.4239   -2.7425 C   0  0  0  0  0  0  0  0  0  0  0  0
   -7.7885    1.0866   -2.5177 O   0  0  0  0  0  0  0  0  0  0  0  0
   -3.6020   -2.3744   -2.0511 H   0  0  0  0  0  0  0  0  0  0  0  0
   -3.3535   -0.6649   -2.5617 H   0  0  0  0  0  0  0  0  0  0  0  0
    1.3965   -2.1904   -2.5374 H   0  0  0  0  0  0  0  0  0  0  0  0
    3.4935   -2.1135   -1.2227 H   0  0  0  0  0  0  0  0  0  0  0  0
    4.6557    1.7487   -0.0156 H   0  0  0  0  0  0  0  0  0  0  0  0
    3.2060    1.1575    0.7611 H   0  0  0  0  0  0  0  0  0  0  0  0
    4.1995    1.4472    3.0002 H   0  0  0  0  0  0  0  0  0  0  0  0
    4.3417    2.9453    2.0966 H   0  0  0  0  0  0  0  0  0  0  0  0
    6.6886    2.5145    1.5956 H   0  0  0  0  0  0  0  0  0  0  0  0
    6.4440    2.3247    3.3309 H   0  0  0  0  0  0  0  0  0  0  0  0
    6.3754   -0.1189    3.1176 H   0  0  0  0  0  0  0  0  0  0  0  0
    7.8408    0.4889    2.3517 H   0  0  0  0  0  0  0  0  0  0  0  0
    6.7377   -1.2131    0.9073 H   0  0  0  0  0  0  0  0  0  0  0  0
    6.7953    0.3426    0.1121 H   0  0  0  0  0  0  0  0  0  0  0  0
    1.2548   -0.9209    2.2751 H   0  0  0  0  0  0  0  0  0  0  0  0
   -0.8324   -0.9939    0.9739 H   0  0  0  0  0  0  0  0  0  0  0  0
   -5.8220   -1.0881   -2.4658 H   0  0  0  0  0  0  0  0  0  0  0  0
   -6.9181   -0.5197    0.2532 H   0  0  0  0  0  0  0  0  0  0  0  0
   -7.8301   -1.1059   -1.1543 H   0  0  0  0  0  0  0  0  0  0  0  0
   -6.3988    2.3197    0.1958 H   0  0  0  0  0  0  0  0  0  0  0  0
   -7.2491    4.1974   -1.6071 H   0  0  0  0  0  0  0  0  0  0  0  0
   -8.3211    2.7153   -3.6785 H   0  0  0  0  0  0  0  0  0  0  0  0
  1  2  2  0
  2  3  1  0
  3  4  1  0
  4  5  1  0
  5  6  2  0
  5  7  1  0
  7  8  2  0
  8  9  1  0
  9 10  2  0
 10 11  1  0
 11 12  2  0
 11 13  2  0
 11 14  1  0
 14 15  1  0
 15 16  1  0
 16 17  1  0
 17 18  1  0
 18 19  1  0
 10 20  1  0
 20 21  2  0
  2 22  1  0
 22 23  1  0
 23 24  1  0
 24 25  2  0
 25 26  1  0
 26 27  2  0
 27 28  1  0
 21  7  1  0
 28 24  1  0
 19 14  1  0
  3 29  1  0
  3 30  1  0
  8 31  1  0
  9 32  1  0
 15 33  1  0
 15 34  1  0
 16 35  1  0
 16 36  1  0
 17 37  1  0
 17 38  1  0
 18 39  1  0
 18 40  1  0
 19 41  1  0
 19 42  1  0
 20 43  1  0
 21 44  1  0
 22 45  1  0
 23 46  1  0
 23 47  1  0
 25 48  1  0
 26 49  1  0
 27 50  1  0
M  END
$$$$
