
     RDKit          3D

 45 46  0  0  0  0  0  0  0  0999 V2000
   -8.5238   -0.4304    0.1591 C   0  0  0  0  0  0  0  0  0  0  0  0
   -7.2477    0.3132   -0.1925 C   0  0  0  0  0  0  0  0  0  0  0  0
   -6.1876   -0.2408    0.5840 O   0  0  0  0  0  0  0  0  0  0  0  0
   -4.9436    0.3022    0.4200 C   0  0  0  0  0  0  0  0  0  0  0  0
   -4.6074    1.3395   -0.4494 C   0  0  0  0  0  0  0  0  0  0  0  0
   -3.2874    1.8013   -0.5194 C   0  0  0  0  0  0  0  0  0  0  0  0
   -2.2882    1.2359    0.2838 C   0  0  0  0  0  0  0  0  0  0  0  0
   -0.8622    1.7131    0.1959 C   0  0  0  0  0  0  0  0  0  0  0  0
   -0.0719    0.8083   -0.6067 N   0  0  0  0  0  0  0  0  0  0  0  0
    0.7716   -0.0976   -0.0375 C   0  0  0  0  0  0  0  0  0  0  0  0
    1.0331   -0.1367    1.1526 O   0  0  0  0  0  0  0  0  0  0  0  0
    1.3132   -0.9630   -0.9702 N   0  0  0  0  0  0  0  0  0  0  0  0
    2.3359   -2.2241   -0.6217 S   0  0  0  0  0  6  0  0  0  0  0  0
    1.7567   -3.0527    0.4109 O   0  0  0  0  0  0  0  0  0  0  0  0
    2.6874   -2.7893   -1.9101 O   0  0  0  0  0  0  0  0  0  0  0  0
    3.7868   -1.4221    0.0122 C   0  0  0  0  0  0  0  0  0  0  0  0
    4.7842   -0.9976   -0.8708 C   0  0  0  0  0  0  0  0  0  0  0  0
    5.9456   -0.3977   -0.3717 C   0  0  0  0  0  0  0  0  0  0  0  0
    6.1145   -0.2311    1.0050 C   0  0  0  0  0  0  0  0  0  0  0  0
    7.1959    0.3382    1.6186 O   0  0  0  0  0  0  0  0  0  0  0  0
    8.2579    0.7748    0.7800 C   0  0  0  0  0  0  0  0  0  0  0  0
    5.1152   -0.6732    1.8783 C   0  0  0  0  0  0  0  0  0  0  0  0
    3.9547   -1.2763    1.3893 C   0  0  0  0  0  0  0  0  0  0  0  0
   -2.6313    0.1908    1.1505 C   0  0  0  0  0  0  0  0  0  0  0  0
   -3.9487   -0.2683    1.2160 C   0  0  0  0  0  0  0  0  0  0  0  0
   -8.4167   -1.5001   -0.0498 H   0  0  0  0  0  0  0  0  0  0  0  0
   -8.7438   -0.3348    1.2276 H   0  0  0  0  0  0  0  0  0  0  0  0
   -9.3715   -0.0420   -0.4123 H   0  0  0  0  0  0  0  0  0  0  0  0
   -7.3768    1.3760    0.0426 H   0  0  0  0  0  0  0  0  0  0  0  0
   -7.0427    0.1857   -1.2617 H   0  0  0  0  0  0  0  0  0  0  0  0
   -5.3471    1.8113   -1.0874 H   0  0  0  0  0  0  0  0  0  0  0  0
   -3.0498    2.6109   -1.2061 H   0  0  0  0  0  0  0  0  0  0  0  0
   -0.4387    1.8276    1.2000 H   0  0  0  0  0  0  0  0  0  0  0  0
   -0.8172    2.6948   -0.2885 H   0  0  0  0  0  0  0  0  0  0  0  0
   -0.3662    0.6566   -1.5570 H   0  0  0  0  0  0  0  0  0  0  0  0
    1.1297   -0.8658   -1.9584 H   0  0  0  0  0  0  0  0  0  0  0  0
    4.6720   -1.1356   -1.9438 H   0  0  0  0  0  0  0  0  0  0  0  0
    6.7006   -0.0777   -1.0824 H   0  0  0  0  0  0  0  0  0  0  0  0
    9.0413    1.1900    1.4213 H   0  0  0  0  0  0  0  0  0  0  0  0
    7.9252    1.5693    0.1040 H   0  0  0  0  0  0  0  0  0  0  0  0
    8.6919   -0.0626    0.2237 H   0  0  0  0  0  0  0  0  0  0  0  0
    5.2433   -0.5488    2.9514 H   0  0  0  0  0  0  0  0  0  0  0  0
    3.1883   -1.6156    2.0837 H   0  0  0  0  0  0  0  0  0  0  0  0
   -1.8741   -0.2753    1.7797 H   0  0  0  0  0  0  0  0  0  0  0  0
   -4.2007   -1.0803    1.8944 H   0  0  0  0  0  0  0  0  0  0  0  0
  1  2  1  0
  2  3  1  0
  3  4  1  0
  4  5  2  0
  5  6  1  0
  6  7  2  0
  7  8  1  0
  8  9  1  0
  9 10  1  0
 10 11  2  0
 10 12  1  0
 12 13  1  0
 13 14  2  0
 13 15  2  0
 13 16  1  0
 16 17  2  0
 17 18  1  0
 18 19  2  0
 19 20  1  0
 20 21  1  0
 19 22  1  0
 22 23  2  0
  7 24  1  0
 24 25  2  0
 25  4  1  0
 23 16  1  0
  1 26  1  0
  1 27  1  0
  1 28  1  0
  2 29  1  0
  2 30  1  0
  5 31  1  0
  6 32  1  0
  8 33  1  0
  8 34  1  0
  9 35  1  0
 12 36  1  0
 17 37  1  0
 18 38  1  0
 21 39  1  0
 21 40  1  0
 21 41  1  0
 22 42  1  0
 23 43  1  0
 24 44  1  0
 25 45  1  0
M  END
$$$$
