
     RDKit          3D

 41 43  0  0  0  0  0  0  0  0999 V2000
   -3.3143   -0.4468    3.5075 C   0  0  0  0  0  0  0  0  0  0  0  0
   -2.7842   -0.4839    2.0827 C   0  0  0  0  0  0  0  0  0  0  0  0
   -1.8682   -1.6796    1.8011 C   0  0  0  0  0  0  0  0  0  0  0  0
   -0.6091   -1.7903    2.6670 C   0  0  0  0  0  0  0  0  0  0  0  0
    0.4887   -0.3427    2.5864 S   0  0  0  0  0  0  0  0  0  0  0  0
    0.9690   -0.4199    0.9201 C   0  0  0  0  0  0  0  0  0  0  0  0
    1.4359   -1.5310    0.4398 N   0  0  0  0  0  0  0  0  0  0  0  0
    1.6061   -1.2840   -0.9035 C   0  0  0  0  0  0  0  0  0  0  0  0
    2.0982   -2.2119   -1.7375 C   0  0  0  0  0  0  0  0  0  0  0  0
    2.3295   -2.1533   -3.1470 C   0  0  0  0  0  0  0  0  0  0  0  0
    1.4690   -1.5987   -4.1404 C   0  0  0  0  0  0  0  0  0  0  0  0
    1.9808   -1.7334   -5.4133 C   0  0  0  0  0  0  0  0  0  0  0  0
    3.4806   -2.5527   -5.4191 S   0  0  0  0  0  0  0  0  0  0  0  0
    3.4488   -2.7275   -3.7162 C   0  0  0  0  0  0  0  0  0  0  0  0
    1.1858    0.1233   -1.1980 C   0  0  0  0  0  0  0  0  0  0  0  0
    1.2211    0.6790   -2.2806 O   0  0  0  0  0  0  0  0  0  0  0  0
    0.8127    0.6116    0.0367 N   0  0  0  0  0  0  0  0  0  0  0  0
    0.3761    1.9489    0.2487 C   0  0  0  0  0  0  0  0  0  0  0  0
    0.6471    2.6470    1.4340 C   0  0  0  0  0  0  0  0  0  0  0  0
    0.2054    3.9624    1.6210 C   0  0  0  0  0  0  0  0  0  0  0  0
   -0.5073    4.6108    0.6188 C   0  0  0  0  0  0  0  0  0  0  0  0
   -0.7680    3.9480   -0.5745 C   0  0  0  0  0  0  0  0  0  0  0  0
   -0.3247    2.6338   -0.7585 C   0  0  0  0  0  0  0  0  0  0  0  0
   -2.5119   -0.2739    4.2305 H   0  0  0  0  0  0  0  0  0  0  0  0
   -3.8166   -1.3847    3.7644 H   0  0  0  0  0  0  0  0  0  0  0  0
   -4.0391    0.3664    3.6171 H   0  0  0  0  0  0  0  0  0  0  0  0
   -3.6383   -0.5390    1.3966 H   0  0  0  0  0  0  0  0  0  0  0  0
   -2.2728    0.4582    1.8578 H   0  0  0  0  0  0  0  0  0  0  0  0
   -1.5862   -1.6588    0.7412 H   0  0  0  0  0  0  0  0  0  0  0  0
   -2.4500   -2.6008    1.9343 H   0  0  0  0  0  0  0  0  0  0  0  0
   -0.0449   -2.6846    2.3811 H   0  0  0  0  0  0  0  0  0  0  0  0
   -0.8909   -1.9304    3.7156 H   0  0  0  0  0  0  0  0  0  0  0  0
    2.3853   -3.1525   -1.2667 H   0  0  0  0  0  0  0  0  0  0  0  0
    0.5193   -1.1148   -3.9472 H   0  0  0  0  0  0  0  0  0  0  0  0
    1.5425   -1.3920   -6.3408 H   0  0  0  0  0  0  0  0  0  0  0  0
    4.2650   -3.2364   -3.2213 H   0  0  0  0  0  0  0  0  0  0  0  0
    1.2538    2.2156    2.2242 H   0  0  0  0  0  0  0  0  0  0  0  0
    0.4340    4.4828    2.5481 H   0  0  0  0  0  0  0  0  0  0  0  0
   -0.8470    5.6331    0.7623 H   0  0  0  0  0  0  0  0  0  0  0  0
   -1.3156    4.4499   -1.3685 H   0  0  0  0  0  0  0  0  0  0  0  0
   -0.5656    2.1525   -1.7040 H   0  0  0  0  0  0  0  0  0  0  0  0
  1  2  1  0
  2  3  1  0
  3  4  1  0
  4  5  1  0
  5  6  1  0
  6  7  2  0
  7  8  1  0
  8  9  2  3
  9 10  1  0
 10 11  1  0
 11 12  2  0
 12 13  1  0
 13 14  1  0
  8 15  1  0
 15 16  2  0
 15 17  1  0
 17 18  1  0
 18 19  2  0
 19 20  1  0
 20 21  2  0
 21 22  1  0
 22 23  2  0
 17  6  1  0
 23 18  1  0
 14 10  2  0
  1 24  1  0
  1 25  1  0
  1 26  1  0
  2 27  1  0
  2 28  1  0
  3 29  1  0
  3 30  1  0
  4 31  1  0
  4 32  1  0
  9 33  1  0
 11 34  1  0
 12 35  1  0
 14 36  1  0
 19 37  1  0
 20 38  1  0
 21 39  1  0
 22 40  1  0
 23 41  1  0
M  END
$$$$
