
     RDKit          3D

 59 62  0  0  0  0  0  0  0  0999 V2000
    6.4054   -0.4076   -7.0068 C   0  0  0  0  0  0  0  0  0  0  0  0
    5.7497   -0.6722   -5.6840 C   0  0  0  0  0  0  0  0  0  0  0  0
    5.9824    0.1774   -4.5972 C   0  0  0  0  0  0  0  0  0  0  0  0
    5.4003   -0.0860   -3.3555 C   0  0  0  0  0  0  0  0  0  0  0  0
    4.5859   -1.2117   -3.1736 C   0  0  0  0  0  0  0  0  0  0  0  0
    3.9456   -1.4755   -1.8356 C   0  0  0  0  0  0  0  0  0  0  0  0
    2.7774   -0.6440   -1.6542 N   0  0  0  0  0  0  0  0  0  0  0  0
    2.8130    0.5006   -0.8890 C   0  0  0  0  0  0  0  0  0  0  0  0
    3.7908    0.8546   -0.2396 O   0  0  0  0  0  0  0  0  0  0  0  0
    1.5226    1.2953   -0.9629 C   0  0  0  0  0  0  0  0  0  0  0  0
    1.4680    2.4498    0.0371 C   0  0  0  0  0  0  0  0  0  0  0  0
    1.3874    2.0021    1.4999 C   0  0  0  0  0  0  0  0  0  0  0  0
    0.1458    1.2991    1.8103 N   0  0  0  0  0  0  0  0  0  0  0  0
    0.2201   -0.0986    1.8018 N   0  0  0  0  0  0  0  0  0  0  0  0
   -0.8232   -0.8303    2.0764 C   0  0  0  0  0  0  0  0  0  0  0  0
   -0.6718   -2.3246    2.0518 C   0  0  0  0  0  0  0  0  0  0  0  0
   -2.0764   -0.1888    2.3893 C   0  0  0  0  0  0  0  0  0  0  0  0
   -3.3248   -0.6458    2.7793 C   0  0  0  0  0  0  0  0  0  0  0  0
   -3.7631   -2.0146    3.1557 C   0  0  0  0  0  0  0  0  0  0  0  0
   -4.1398    0.4928    2.8223 N   0  0  0  0  0  0  0  0  0  0  0  0
   -5.5577    0.6192    2.9564 C   0  0  0  0  0  0  0  0  0  0  0  0
   -6.0951    1.8691    3.3122 C   0  0  0  0  0  0  0  0  0  0  0  0
   -7.4747    2.0397    3.4487 C   0  0  0  0  0  0  0  0  0  0  0  0
   -8.3344    0.9706    3.2162 C   0  0  0  0  0  0  0  0  0  0  0  0
   -7.8160   -0.2653    2.8365 C   0  0  0  0  0  0  0  0  0  0  0  0
   -6.4344   -0.4419    2.7007 C   0  0  0  0  0  0  0  0  0  0  0  0
   -3.3960    1.6258    2.7017 N   0  0  0  0  0  0  0  0  0  0  0  0
   -2.1707    1.2065    2.3789 C   0  0  0  0  0  0  0  0  0  0  0  0
   -1.0207    2.0485    2.0741 C   0  0  0  0  0  0  0  0  0  0  0  0
   -1.0631    3.2766    2.0457 O   0  0  0  0  0  0  0  0  0  0  0  0
    4.3590   -2.0648   -4.2612 C   0  0  0  0  0  0  0  0  0  0  0  0
    4.9430   -1.8012   -5.5031 C   0  0  0  0  0  0  0  0  0  0  0  0
    5.8041   -0.8092   -7.8295 H   0  0  0  0  0  0  0  0  0  0  0  0
    7.3958   -0.8729   -7.0333 H   0  0  0  0  0  0  0  0  0  0  0  0
    6.5136    0.6684   -7.1799 H   0  0  0  0  0  0  0  0  0  0  0  0
    6.6178    1.0531   -4.7093 H   0  0  0  0  0  0  0  0  0  0  0  0
    5.5845    0.5929   -2.5236 H   0  0  0  0  0  0  0  0  0  0  0  0
    4.6712   -1.3159   -1.0302 H   0  0  0  0  0  0  0  0  0  0  0  0
    3.6125   -2.5173   -1.7699 H   0  0  0  0  0  0  0  0  0  0  0  0
    2.0140   -0.7677   -2.3045 H   0  0  0  0  0  0  0  0  0  0  0  0
    1.4586    1.7081   -1.9772 H   0  0  0  0  0  0  0  0  0  0  0  0
    0.6699    0.6213   -0.8297 H   0  0  0  0  0  0  0  0  0  0  0  0
    0.5993    3.0748   -0.2027 H   0  0  0  0  0  0  0  0  0  0  0  0
    2.3549    3.0833   -0.0858 H   0  0  0  0  0  0  0  0  0  0  0  0
    1.4434    2.8895    2.1416 H   0  0  0  0  0  0  0  0  0  0  0  0
    2.2314    1.3608    1.7750 H   0  0  0  0  0  0  0  0  0  0  0  0
   -0.6798   -2.7085    3.0752 H   0  0  0  0  0  0  0  0  0  0  0  0
   -1.4852   -2.7787    1.4804 H   0  0  0  0  0  0  0  0  0  0  0  0
    0.2780   -2.6026    1.5850 H   0  0  0  0  0  0  0  0  0  0  0  0
   -2.9353   -2.5861    3.5846 H   0  0  0  0  0  0  0  0  0  0  0  0
   -4.1284   -2.5600    2.2806 H   0  0  0  0  0  0  0  0  0  0  0  0
   -4.5371   -1.9989    3.9288 H   0  0  0  0  0  0  0  0  0  0  0  0
   -5.4466    2.7245    3.4990 H   0  0  0  0  0  0  0  0  0  0  0  0
   -7.8735    3.0102    3.7333 H   0  0  0  0  0  0  0  0  0  0  0  0
   -9.4083    1.1043    3.3180 H   0  0  0  0  0  0  0  0  0  0  0  0
   -8.4910   -1.0926    2.6310 H   0  0  0  0  0  0  0  0  0  0  0  0
   -6.0926   -1.4068    2.3476 H   0  0  0  0  0  0  0  0  0  0  0  0
    3.7306   -2.9451   -4.1496 H   0  0  0  0  0  0  0  0  0  0  0  0
    4.7636   -2.4839   -6.3307 H   0  0  0  0  0  0  0  0  0  0  0  0
  1  2  1  0
  2  3  2  0
  3  4  1  0
  4  5  2  0
  5  6  1  0
  6  7  1  0
  7  8  1  0
  8  9  2  0
  8 10  1  0
 10 11  1  0
 11 12  1  0
 12 13  1  0
 13 14  1  0
 14 15  2  0
 15 16  1  0
 15 17  1  0
 17 18  2  0
 18 19  1  0
 18 20  1  0
 20 21  1  0
 21 22  2  0
 22 23  1  0
 23 24  2  0
 24 25  1  0
 25 26  2  0
 20 27  1  0
 27 28  2  0
 28 29  1  0
 29 30  2  0
  5 31  1  0
 31 32  2  0
 32  2  1  0
 29 13  1  0
 28 17  1  0
 26 21  1  0
  1 33  1  0
  1 34  1  0
  1 35  1  0
  3 36  1  0
  4 37  1  0
  6 38  1  0
  6 39  1  0
  7 40  1  0
 10 41  1  0
 10 42  1  0
 11 43  1  0
 11 44  1  0
 12 45  1  0
 12 46  1  0
 16 47  1  0
 16 48  1  0
 16 49  1  0
 19 50  1  0
 19 51  1  0
 19 52  1  0
 22 53  1  0
 23 54  1  0
 24 55  1  0
 25 56  1  0
 26 57  1  0
 31 58  1  0
 32 59  1  0
M  END
$$$$
