
     RDKit          3D

 64 64  0  0  0  0  0  0  0  0999 V2000
   -9.8430    0.3768    1.1334 C   0  0  0  0  0  0  0  0  0  0  0  0
   -8.5885   -0.1975    1.7728 C   0  0  0  0  0  0  0  0  0  0  0  0
   -7.5239   -0.6289    0.7604 C   0  0  0  0  0  0  0  0  0  0  0  0
   -6.9257    0.5422   -0.0240 C   0  0  0  0  0  0  0  0  0  0  0  0
   -5.8515    0.1176   -1.0330 C   0  0  0  0  0  0  0  0  0  0  0  0
   -4.5746   -0.4098   -0.3732 C   0  0  0  0  0  0  0  0  0  0  0  0
   -3.4854   -0.7982   -1.3795 C   0  0  0  0  0  0  0  0  0  0  0  0
   -2.9490    0.3380   -2.2563 C   0  0  0  0  0  0  0  0  0  0  0  0
   -2.4050    1.5576   -1.5053 C   0  0  0  0  0  0  0  0  0  0  0  0
   -1.3048    1.2698   -0.4795 C   0  0  0  0  0  0  0  0  0  0  0  0
   -0.0425    0.6609   -1.0941 C   0  0  0  0  0  0  0  0  0  0  0  0
    1.0450    0.4630   -0.0343 C   0  0  0  0  0  0  0  0  0  0  0  0
    2.3169   -0.1279   -0.6465 C   0  0  0  0  0  0  0  0  0  0  0  0
    3.3856   -0.4848    0.3920 C   0  0  0  0  0  0  0  0  0  0  0  0
    3.9648    0.7346    1.1144 C   0  0  0  0  0  0  0  0  0  0  0  0
    5.0267    0.3667    2.1481 C   0  0  0  0  0  0  0  0  0  0  0  0
    6.2520   -0.1540    1.4898 N   0  0  0  0  0  4  0  0  0  0  0  0
    7.1207    0.7129    0.9171 C   0  0  0  0  0  0  0  0  0  0  0  0
    8.2786    0.2563    0.3046 C   0  0  0  0  0  0  0  0  0  0  0  0
    8.5356   -1.1097    0.2743 C   0  0  0  0  0  0  0  0  0  0  0  0
    9.7503   -1.6653   -0.3559 C   0  0  0  0  0  0  0  0  0  0  0  0
   10.3450   -1.2780   -1.4430 N   0  0  0  0  0  0  0  0  0  0  0  0
    9.6722   -0.2508   -2.1082 O   0  0  0  0  0  0  0  0  0  0  0  0
    7.6559   -1.9894    0.8957 C   0  0  0  0  0  0  0  0  0  0  0  0
    6.5100   -1.4836    1.4974 C   0  0  0  0  0  0  0  0  0  0  0  0
   -9.6393    1.3264    0.6309 H   0  0  0  0  0  0  0  0  0  0  0  0
  -10.2666   -0.3190    0.4026 H   0  0  0  0  0  0  0  0  0  0  0  0
  -10.6017    0.5656    1.8997 H   0  0  0  0  0  0  0  0  0  0  0  0
   -8.8735   -1.0723    2.3694 H   0  0  0  0  0  0  0  0  0  0  0  0
   -8.1646    0.5353    2.4691 H   0  0  0  0  0  0  0  0  0  0  0  0
   -7.9530   -1.3602    0.0649 H   0  0  0  0  0  0  0  0  0  0  0  0
   -6.7325   -1.1447    1.3148 H   0  0  0  0  0  0  0  0  0  0  0  0
   -7.7208    1.0498   -0.5818 H   0  0  0  0  0  0  0  0  0  0  0  0
   -6.5057    1.2799    0.6700 H   0  0  0  0  0  0  0  0  0  0  0  0
   -5.6113    0.9940   -1.6460 H   0  0  0  0  0  0  0  0  0  0  0  0
   -6.2604   -0.6420   -1.7107 H   0  0  0  0  0  0  0  0  0  0  0  0
   -4.1883    0.3320    0.3349 H   0  0  0  0  0  0  0  0  0  0  0  0
   -4.8098   -1.3045    0.2149 H   0  0  0  0  0  0  0  0  0  0  0  0
   -3.8749   -1.5854   -2.0374 H   0  0  0  0  0  0  0  0  0  0  0  0
   -2.6518   -1.2529   -0.8311 H   0  0  0  0  0  0  0  0  0  0  0  0
   -3.7396    0.6756   -2.9372 H   0  0  0  0  0  0  0  0  0  0  0  0
   -2.1631   -0.0686   -2.9042 H   0  0  0  0  0  0  0  0  0  0  0  0
   -2.0221    2.2741   -2.2431 H   0  0  0  0  0  0  0  0  0  0  0  0
   -3.2317    2.0665   -0.9952 H   0  0  0  0  0  0  0  0  0  0  0  0
   -1.6873    0.6141    0.3108 H   0  0  0  0  0  0  0  0  0  0  0  0
   -1.0422    2.2170    0.0090 H   0  0  0  0  0  0  0  0  0  0  0  0
    0.3331    1.3165   -1.8891 H   0  0  0  0  0  0  0  0  0  0  0  0
   -0.2752   -0.3069   -1.5521 H   0  0  0  0  0  0  0  0  0  0  0  0
    1.2674    1.4280    0.4341 H   0  0  0  0  0  0  0  0  0  0  0  0
    0.6704   -0.2030    0.7522 H   0  0  0  0  0  0  0  0  0  0  0  0
    2.7353    0.5724   -1.3795 H   0  0  0  0  0  0  0  0  0  0  0  0
    2.0587   -1.0419   -1.1957 H   0  0  0  0  0  0  0  0  0  0  0  0
    4.1901   -1.0149   -0.1301 H   0  0  0  0  0  0  0  0  0  0  0  0
    2.9659   -1.1852    1.1240 H   0  0  0  0  0  0  0  0  0  0  0  0
    4.3775    1.4339    0.3782 H   0  0  0  0  0  0  0  0  0  0  0  0
    3.1625    1.2624    1.6412 H   0  0  0  0  0  0  0  0  0  0  0  0
    4.6612   -0.3853    2.8556 H   0  0  0  0  0  0  0  0  0  0  0  0
    5.3293    1.2477    2.7263 H   0  0  0  0  0  0  0  0  0  0  0  0
    6.8776    1.7714    0.9581 H   0  0  0  0  0  0  0  0  0  0  0  0
    8.9729    0.9674   -0.1369 H   0  0  0  0  0  0  0  0  0  0  0  0
   10.1952   -2.5358    0.1585 H   0  0  0  0  0  0  0  0  0  0  0  0
   10.2235   -0.1291   -2.9075 H   0  0  0  0  0  0  0  0  0  0  0  0
    7.8423   -3.0611    0.8984 H   0  0  0  0  0  0  0  0  0  0  0  0
    5.7870   -2.1354    1.9807 H   0  0  0  0  0  0  0  0  0  0  0  0
  1  2  1  0
  2  3  1  0
  3  4  1  0
  4  5  1  0
  5  6  1  0
  6  7  1  0
  7  8  1  0
  8  9  1  0
  9 10  1  0
 10 11  1  0
 11 12  1  0
 12 13  1  0
 13 14  1  0
 14 15  1  0
 15 16  1  0
 16 17  1  0
 17 18  2  0
 18 19  1  0
 19 20  2  0
 20 21  1  0
 21 22  2  3
 22 23  1  0
 20 24  1  0
 24 25  2  0
 25 17  1  0
  1 26  1  0
  1 27  1  0
  1 28  1  0
  2 29  1  0
  2 30  1  0
  3 31  1  0
  3 32  1  0
  4 33  1  0
  4 34  1  0
  5 35  1  0
  5 36  1  0
  6 37  1  0
  6 38  1  0
  7 39  1  0
  7 40  1  0
  8 41  1  0
  8 42  1  0
  9 43  1  0
  9 44  1  0
 10 45  1  0
 10 46  1  0
 11 47  1  0
 11 48  1  0
 12 49  1  0
 12 50  1  0
 13 51  1  0
 13 52  1  0
 14 53  1  0
 14 54  1  0
 15 55  1  0
 15 56  1  0
 16 57  1  0
 16 58  1  0
 18 59  1  0
 19 60  1  0
 21 61  1  0
 23 62  1  0
 24 63  1  0
 25 64  1  0
M  CHG  1  17   1
M  END
$$$$
