
     RDKit          3D

 48 51  0  0  0  0  0  0  0  0999 V2000
   10.2688   -1.0252    2.1796 C   0  0  0  0  0  0  0  0  0  0  0  0
    8.9369   -0.4586    1.8524 C   0  0  0  0  0  0  0  0  0  0  0  0
    8.3153    0.4640    2.5563 N   0  0  0  0  0  0  0  0  0  0  0  0
    7.0914    0.7948    2.0088 N   0  0  0  0  0  0  0  0  0  0  0  0
    6.8337    0.1097    0.9158 C   0  0  0  0  0  0  0  0  0  0  0  0
    5.3668    0.3089   -0.0096 S   0  0  0  0  0  0  0  0  0  0  0  0
    4.4439    1.4284    1.0879 C   0  0  0  0  0  0  0  0  0  0  0  0
    3.0871    1.7329    0.4916 C   0  0  0  0  0  0  0  0  0  0  0  0
    2.8551    2.9110   -0.1060 C   0  0  0  0  0  0  0  0  0  0  0  0
    1.5174    3.1578   -0.6540 C   0  0  0  0  0  0  0  0  0  0  0  0
    1.2417    4.2114   -1.2145 O   0  0  0  0  0  0  0  0  0  0  0  0
    0.6345    2.1381   -0.4839 N   0  0  0  0  0  0  0  0  0  0  0  0
    0.9389    0.9672    0.1556 C   0  0  0  0  0  0  0  0  0  0  0  0
   -0.0098    0.0056    0.2908 N   0  0  0  0  0  0  0  0  0  0  0  0
   -1.3238   -0.0019   -0.1416 C   0  0  0  0  0  0  0  0  0  0  0  0
   -1.8288    1.0589   -0.7918 N   0  0  0  0  0  0  0  0  0  0  0  0
   -3.1189    0.9979   -1.1919 C   0  0  0  0  0  0  0  0  0  0  0  0
   -3.6279    2.2130   -1.9140 C   0  0  0  0  0  0  0  0  0  0  0  0
   -3.9309   -0.1158   -0.9540 C   0  0  0  0  0  0  0  0  0  0  0  0
   -5.2870   -0.2443   -1.3451 C   0  0  0  0  0  0  0  0  0  0  0  0
   -6.0225   -1.4030   -1.0605 C   0  0  0  0  0  0  0  0  0  0  0  0
   -7.4589   -1.4981   -1.4959 C   0  0  0  0  0  0  0  0  0  0  0  0
   -5.3902   -2.4512   -0.3763 C   0  0  0  0  0  0  0  0  0  0  0  0
   -6.1166   -3.7242   -0.0375 C   0  0  0  0  0  0  0  0  0  0  0  0
   -4.0440   -2.3044    0.0047 C   0  0  0  0  0  0  0  0  0  0  0  0
   -3.3055   -1.1602   -0.2708 C   0  0  0  0  0  0  0  0  0  0  0  0
   -2.0283   -1.1068    0.1286 N   0  0  0  0  0  0  0  0  0  0  0  0
    2.1275    0.7539    0.6430 N   0  0  0  0  0  0  0  0  0  0  0  0
    8.0704   -0.9897    0.4672 S   0  0  0  0  0  0  0  0  0  0  0  0
   10.6703   -0.5613    3.0862 H   0  0  0  0  0  0  0  0  0  0  0  0
   10.9795   -0.8454    1.3668 H   0  0  0  0  0  0  0  0  0  0  0  0
   10.2009   -2.1035    2.3550 H   0  0  0  0  0  0  0  0  0  0  0  0
    5.0200    2.3505    1.2269 H   0  0  0  0  0  0  0  0  0  0  0  0
    4.3165    0.9661    2.0735 H   0  0  0  0  0  0  0  0  0  0  0  0
    3.5942    3.6914   -0.2202 H   0  0  0  0  0  0  0  0  0  0  0  0
   -0.3050    2.2588   -0.8437 H   0  0  0  0  0  0  0  0  0  0  0  0
    0.2537   -0.8454    0.7604 H   0  0  0  0  0  0  0  0  0  0  0  0
   -4.4647    2.6597   -1.3683 H   0  0  0  0  0  0  0  0  0  0  0  0
   -3.9483    1.9498   -2.9269 H   0  0  0  0  0  0  0  0  0  0  0  0
   -2.8422    2.9715   -1.9992 H   0  0  0  0  0  0  0  0  0  0  0  0
   -5.7748    0.5697   -1.8779 H   0  0  0  0  0  0  0  0  0  0  0  0
   -7.7909   -0.5794   -1.9913 H   0  0  0  0  0  0  0  0  0  0  0  0
   -7.5865   -2.3212   -2.2061 H   0  0  0  0  0  0  0  0  0  0  0  0
   -8.1097   -1.6575   -0.6303 H   0  0  0  0  0  0  0  0  0  0  0  0
   -5.4626   -4.4364    0.4768 H   0  0  0  0  0  0  0  0  0  0  0  0
   -6.9618   -3.5139    0.6254 H   0  0  0  0  0  0  0  0  0  0  0  0
   -6.4786   -4.2101   -0.9491 H   0  0  0  0  0  0  0  0  0  0  0  0
   -3.5467   -3.1134    0.5380 H   0  0  0  0  0  0  0  0  0  0  0  0
  1  2  1  0
  2  3  2  0
  3  4  1  0
  4  5  2  0
  5  6  1  0
  6  7  1  0
  7  8  1  0
  8  9  2  0
  9 10  1  0
 10 11  2  0
 10 12  1  0
 12 13  1  0
 13 14  1  0
 14 15  1  0
 15 16  2  0
 16 17  1  0
 17 18  1  0
 17 19  2  0
 19 20  1  0
 20 21  2  0
 21 22  1  0
 21 23  1  0
 23 24  1  0
 23 25  2  0
 25 26  1  0
 26 27  2  0
 13 28  2  0
  5 29  1  0
 29  2  1  0
 28  8  1  0
 27 15  1  0
 26 19  1  0
  1 30  1  0
  1 31  1  0
  1 32  1  0
  7 33  1  0
  7 34  1  0
  9 35  1  0
 12 36  1  0
 14 37  1  0
 18 38  1  0
 18 39  1  0
 18 40  1  0
 20 41  1  0
 22 42  1  0
 22 43  1  0
 22 44  1  0
 24 45  1  0
 24 46  1  0
 24 47  1  0
 25 48  1  0
M  END
$$$$
