
     RDKit          3D

 24 25  0  0  0  0  0  0  0  0999 V2000
    2.2177    1.2856   -2.8824 C   0  0  0  0  0  0  0  0  0  0  0  0
    1.9357    1.1406   -1.4760 N   0  0  0  0  0  0  0  0  0  0  0  0
    2.7791    1.6653   -0.5600 N   0  0  0  0  0  0  0  0  0  0  0  0
    2.1616    1.3134    0.5813 C   0  0  0  0  0  0  0  0  0  0  0  0
    2.7102    1.6673    1.8835 N   0  0  0  0  0  4  0  0  0  0  0  0
    2.0723    1.3003    2.8826 O   0  0  0  0  0  0  0  0  0  0  0  0
    3.7728    2.3085    1.9138 O   0  0  0  0  0  1  0  0  0  0  0  0
    0.9931    0.6064    0.4353 N   0  0  0  0  0  0  0  0  0  0  0  0
    0.8788    0.5143   -0.8701 C   0  0  0  0  0  0  0  0  0  0  0  0
   -0.3851   -0.2635   -1.7638 S   0  0  0  0  0  0  0  0  0  0  0  0
   -1.3916   -0.8460   -0.4132 C   0  0  0  0  0  0  0  0  0  0  0  0
   -2.4253   -0.0481    0.0915 C   0  0  0  0  0  0  0  0  0  0  0  0
   -3.2272   -0.5126    1.1378 C   0  0  0  0  0  0  0  0  0  0  0  0
   -2.9998   -1.7780    1.6753 C   0  0  0  0  0  0  0  0  0  0  0  0
   -3.9893   -2.3515    2.9602 Cl  0  0  0  0  0  0  0  0  0  0  0  0
   -1.9788   -2.5836    1.1750 C   0  0  0  0  0  0  0  0  0  0  0  0
   -1.1770   -2.1189    0.1286 C   0  0  0  0  0  0  0  0  0  0  0  0
    2.3245    0.2907   -3.3215 H   0  0  0  0  0  0  0  0  0  0  0  0
    3.1486    1.8444   -3.0112 H   0  0  0  0  0  0  0  0  0  0  0  0
    1.3950    1.8326   -3.3490 H   0  0  0  0  0  0  0  0  0  0  0  0
   -2.6108    0.9418   -0.3182 H   0  0  0  0  0  0  0  0  0  0  0  0
   -4.0224    0.1167    1.5284 H   0  0  0  0  0  0  0  0  0  0  0  0
   -1.8001   -3.5700    1.5945 H   0  0  0  0  0  0  0  0  0  0  0  0
   -0.3820   -2.7556   -0.2518 H   0  0  0  0  0  0  0  0  0  0  0  0
  1  2  1  0
  2  3  1  0
  3  4  2  0
  4  5  1  0
  5  6  2  0
  5  7  1  0
  4  8  1  0
  8  9  2  0
  9 10  1  0
 10 11  1  0
 11 12  2  0
 12 13  1  0
 13 14  2  0
 14 15  1  0
 14 16  1  0
 16 17  2  0
  9  2  1  0
 17 11  1  0
  1 18  1  0
  1 19  1  0
  1 20  1  0
 12 21  1  0
 13 22  1  0
 16 23  1  0
 17 24  1  0
M  CHG  2   5   1   7  -1
M  END
$$$$
