
     RDKit          3D

 49 52  0  0  0  0  0  0  0  0999 V2000
    5.6289   -3.9678   -3.6077 C   0  0  0  0  0  0  0  0  0  0  0  0
    4.8332   -2.8865   -2.9385 C   0  0  0  0  0  0  0  0  0  0  0  0
    5.3527   -2.2059   -1.8311 C   0  0  0  0  0  0  0  0  0  0  0  0
    4.6260   -1.1765   -1.2269 C   0  0  0  0  0  0  0  0  0  0  0  0
    3.3729   -0.8107   -1.7260 C   0  0  0  0  0  0  0  0  0  0  0  0
    2.6272    0.2737   -1.0843 C   0  0  0  0  0  0  0  0  0  0  0  0
    1.4976    0.0886   -0.3851 C   0  0  0  0  0  0  0  0  0  0  0  0
    0.7867   -1.2179   -0.1046 C   0  0  0  0  0  0  0  0  0  0  0  0
   -0.3824   -0.8616    0.8326 C   0  0  0  0  0  0  0  0  0  0  0  0
   -0.3063    0.6275    0.9442 C   0  0  0  0  0  0  0  0  0  0  0  0
    0.7385    1.1120    0.2811 C   0  0  0  0  0  0  0  0  0  0  0  0
    1.1653    2.4275    0.2877 O   0  0  0  0  0  0  0  0  0  0  0  0
    0.4192    3.3283    0.9673 C   0  0  0  0  0  0  0  0  0  0  0  0
    0.9264    4.5096    1.1030 N   0  0  0  0  0  0  0  0  0  0  0  0
   -0.9899    2.9875    1.4140 C   0  0  0  0  0  0  0  0  0  0  0  0
   -1.3756    3.8076    2.5787 C   0  0  0  0  0  0  0  0  0  0  0  0
   -1.7173    4.3992    3.5183 N   0  0  0  0  0  0  0  0  0  0  0  0
   -1.2010    1.4948    1.7610 C   0  0  0  0  0  0  0  0  0  0  0  0
   -2.6730    1.1124    1.6300 C   0  0  0  0  0  0  0  0  0  0  0  0
   -3.4279    0.8410    2.7801 C   0  0  0  0  0  0  0  0  0  0  0  0
   -4.7803    0.5044    2.6823 C   0  0  0  0  0  0  0  0  0  0  0  0
   -5.4046    0.4227    1.4337 C   0  0  0  0  0  0  0  0  0  0  0  0
   -6.8653    0.0967    1.3345 C   0  0  0  0  0  0  0  0  0  0  0  0
   -4.6618    0.7094    0.2844 C   0  0  0  0  0  0  0  0  0  0  0  0
   -3.3099    1.0479    0.3798 C   0  0  0  0  0  0  0  0  0  0  0  0
    2.8604   -1.4745   -2.8447 C   0  0  0  0  0  0  0  0  0  0  0  0
    3.5874   -2.5035   -3.4489 C   0  0  0  0  0  0  0  0  0  0  0  0
    6.2682   -3.5361   -4.3838 H   0  0  0  0  0  0  0  0  0  0  0  0
    4.9687   -4.7118   -4.0657 H   0  0  0  0  0  0  0  0  0  0  0  0
    6.2581   -4.4950   -2.8829 H   0  0  0  0  0  0  0  0  0  0  0  0
    6.3280   -2.4730   -1.4303 H   0  0  0  0  0  0  0  0  0  0  0  0
    5.0451   -0.6656   -0.3632 H   0  0  0  0  0  0  0  0  0  0  0  0
    3.0649    1.2630   -1.1922 H   0  0  0  0  0  0  0  0  0  0  0  0
    1.4527   -1.9438    0.3751 H   0  0  0  0  0  0  0  0  0  0  0  0
    0.3987   -1.6576   -1.0306 H   0  0  0  0  0  0  0  0  0  0  0  0
   -1.3307   -1.1986    0.4030 H   0  0  0  0  0  0  0  0  0  0  0  0
   -0.2549   -1.3344    1.8124 H   0  0  0  0  0  0  0  0  0  0  0  0
    1.8648    4.4938    0.6838 H   0  0  0  0  0  0  0  0  0  0  0  0
   -1.6282    3.2783    0.5679 H   0  0  0  0  0  0  0  0  0  0  0  0
   -0.8992    1.3212    2.8053 H   0  0  0  0  0  0  0  0  0  0  0  0
   -2.9758    0.8994    3.7688 H   0  0  0  0  0  0  0  0  0  0  0  0
   -5.3454    0.3105    3.5918 H   0  0  0  0  0  0  0  0  0  0  0  0
   -7.4580    1.0151    1.3861 H   0  0  0  0  0  0  0  0  0  0  0  0
   -7.1728   -0.5697    2.1472 H   0  0  0  0  0  0  0  0  0  0  0  0
   -7.0879   -0.4162    0.3929 H   0  0  0  0  0  0  0  0  0  0  0  0
   -5.1331    0.6716   -0.6955 H   0  0  0  0  0  0  0  0  0  0  0  0
   -2.7604    1.2571   -0.5359 H   0  0  0  0  0  0  0  0  0  0  0  0
    1.8956   -1.1910   -3.2583 H   0  0  0  0  0  0  0  0  0  0  0  0
    3.1748   -3.0029   -4.3227 H   0  0  0  0  0  0  0  0  0  0  0  0
  1  2  1  0
  2  3  2  0
  3  4  1  0
  4  5  2  0
  5  6  1  0
  6  7  2  3
  7  8  1  0
  8  9  1  0
  9 10  1  0
 10 11  2  0
 11 12  1  0
 12 13  1  0
 13 14  2  3
 13 15  1  0
 15 16  1  0
 16 17  3  0
 15 18  1  0
 18 19  1  0
 19 20  2  0
 20 21  1  0
 21 22  2  0
 22 23  1  0
 22 24  1  0
 24 25  2  0
  5 26  1  0
 26 27  2  0
 27  2  1  0
 11  7  1  0
 25 19  1  0
 18 10  1  0
  1 28  1  0
  1 29  1  0
  1 30  1  0
  3 31  1  0
  4 32  1  0
  6 33  1  0
  8 34  1  0
  8 35  1  0
  9 36  1  0
  9 37  1  0
 14 38  1  0
 15 39  1  0
 18 40  1  0
 20 41  1  0
 21 42  1  0
 23 43  1  0
 23 44  1  0
 23 45  1  0
 24 46  1  0
 25 47  1  0
 26 48  1  0
 27 49  1  0
M  END
$$$$
