
     RDKit          3D

 46 46  0  0  0  0  0  0  0  0999 V2000
   -1.3575   -1.3853    0.7633 O   0  0  0  0  0  0  0  0  0  0  0  0
   -1.4885   -0.2777    0.2554 C   0  0  0  0  0  0  0  0  0  0  0  0
   -0.3492    0.7023    0.0890 C   0  0  0  0  0  0  0  0  0  0  0  0
    0.9689    0.1167    0.5786 C   0  0  0  0  0  0  0  0  0  0  0  0
    2.0934    1.1034    0.4120 C   0  0  0  0  0  0  0  0  0  0  0  0
    1.9692    2.2560    0.0228 O   0  0  0  0  0  0  0  0  0  0  0  0
    3.2713    0.5191    0.7714 O   0  0  0  0  0  0  0  0  0  0  0  0
    4.4169    1.3649    0.6235 C   0  0  0  0  0  0  0  0  0  0  0  0
    5.6619    0.5908    1.0493 C   0  0  0  0  0  0  0  0  0  0  0  0
    5.8505   -0.7730    0.3689 C   0  0  0  0  0  0  0  0  0  0  0  0
    5.9955   -0.6990   -1.1491 C   0  0  0  0  0  0  0  0  0  0  0  0
    6.9556    0.2206   -1.4507 F   0  0  0  0  0  0  0  0  0  0  0  0
    4.8383   -0.2308   -1.6928 F   0  0  0  0  0  0  0  0  0  0  0  0
    6.3486   -2.0600   -1.7557 C   0  0  0  0  0  0  0  0  0  0  0  0
    7.5161   -2.5393   -1.2583 F   0  0  0  0  0  0  0  0  0  0  0  0
    5.3976   -2.9882   -1.4861 F   0  0  0  0  0  0  0  0  0  0  0  0
    6.4816   -2.0006   -3.1015 F   0  0  0  0  0  0  0  0  0  0  0  0
   -2.6862    0.2094   -0.2263 N   0  0  0  0  0  0  0  0  0  0  0  0
   -3.9354   -0.5272   -0.0654 C   0  0  0  0  0  0  0  0  0  0  0  0
   -4.5274   -0.3118    1.3404 C   0  0  0  0  0  0  0  0  0  0  0  0
   -5.5414    0.8268    1.3600 C   0  0  0  0  0  0  0  0  0  0  0  0
   -6.7227    0.5520    0.4268 C   0  0  0  0  0  0  0  0  0  0  0  0
   -6.3632   -0.3320   -0.7688 C   0  0  0  0  0  0  0  0  0  0  0  0
   -4.9119   -0.1426   -1.1899 C   0  0  0  0  0  0  0  0  0  0  0  0
   -0.5921    1.6116    0.6521 H   0  0  0  0  0  0  0  0  0  0  0  0
   -0.2726    0.9719   -0.9713 H   0  0  0  0  0  0  0  0  0  0  0  0
    0.8961   -0.1472    1.6397 H   0  0  0  0  0  0  0  0  0  0  0  0
    1.2110   -0.7863    0.0063 H   0  0  0  0  0  0  0  0  0  0  0  0
    4.5065    1.7008   -0.4152 H   0  0  0  0  0  0  0  0  0  0  0  0
    4.3054    2.2453    1.2676 H   0  0  0  0  0  0  0  0  0  0  0  0
    5.5993    0.4069    2.1296 H   0  0  0  0  0  0  0  0  0  0  0  0
    6.5479    1.2150    0.8854 H   0  0  0  0  0  0  0  0  0  0  0  0
    5.0104   -1.4285    0.6263 H   0  0  0  0  0  0  0  0  0  0  0  0
    6.7548   -1.2255    0.7940 H   0  0  0  0  0  0  0  0  0  0  0  0
   -2.7416    1.1967   -0.4444 H   0  0  0  0  0  0  0  0  0  0  0  0
   -3.6955   -1.5943   -0.1598 H   0  0  0  0  0  0  0  0  0  0  0  0
   -5.0349   -1.2323    1.6577 H   0  0  0  0  0  0  0  0  0  0  0  0
   -3.7396   -0.1220    2.0787 H   0  0  0  0  0  0  0  0  0  0  0  0
   -5.0452    1.7571    1.0564 H   0  0  0  0  0  0  0  0  0  0  0  0
   -5.9101    0.9893    2.3792 H   0  0  0  0  0  0  0  0  0  0  0  0
   -7.1215    1.5109    0.0739 H   0  0  0  0  0  0  0  0  0  0  0  0
   -7.5347    0.0720    0.9864 H   0  0  0  0  0  0  0  0  0  0  0  0
   -7.0348   -0.1097   -1.6057 H   0  0  0  0  0  0  0  0  0  0  0  0
   -6.5286   -1.3848   -0.5075 H   0  0  0  0  0  0  0  0  0  0  0  0
   -4.7665    0.9038   -1.4897 H   0  0  0  0  0  0  0  0  0  0  0  0
   -4.6960   -0.7451   -2.0806 H   0  0  0  0  0  0  0  0  0  0  0  0
  1  2  2  0
  2  3  1  0
  3  4  1  0
  4  5  1  0
  5  6  2  0
  5  7  1  0
  7  8  1  0
  8  9  1  0
  9 10  1  0
 10 11  1  0
 11 12  1  0
 11 13  1  0
 11 14  1  0
 14 15  1  0
 14 16  1  0
 14 17  1  0
  2 18  1  0
 18 19  1  0
 19 20  1  0
 20 21  1  0
 21 22  1  0
 22 23  1  0
 23 24  1  0
 24 19  1  0
  3 25  1  0
  3 26  1  0
  4 27  1  0
  4 28  1  0
  8 29  1  0
  8 30  1  0
  9 31  1  0
  9 32  1  0
 10 33  1  0
 10 34  1  0
 18 35  1  0
 19 36  1  0
 20 37  1  0
 20 38  1  0
 21 39  1  0
 21 40  1  0
 22 41  1  0
 22 42  1  0
 23 43  1  0
 23 44  1  0
 24 45  1  0
 24 46  1  0
M  END
$$$$
