
     RDKit          3D

 46 49  0  0  0  0  0  0  0  0999 V2000
   -0.1305   -0.8681    2.5280 O   0  0  0  0  0  0  0  0  0  0  0  0
    0.4496   -0.3939    1.5550 C   0  0  0  0  0  0  0  0  0  0  0  0
    1.9677   -0.3971    1.4551 C   0  0  0  0  0  0  0  0  0  0  0  0
    2.5077   -0.9302   -0.2076 S   0  0  0  0  0  0  0  0  0  0  0  0
    4.2787   -0.7162   -0.0598 C   0  0  0  0  0  0  0  0  0  0  0  0
    4.7440   -0.5221    1.2029 N   0  0  0  0  0  0  0  0  0  0  0  0
    6.0816   -0.4461    1.3877 C   0  0  0  0  0  0  0  0  0  0  0  0
    7.0052   -0.5596    0.3665 C   0  0  0  0  0  0  0  0  0  0  0  0
    6.5272   -0.7521   -0.9249 C   0  0  0  0  0  0  0  0  0  0  0  0
    5.1460   -0.8158   -1.1480 C   0  0  0  0  0  0  0  0  0  0  0  0
    4.7031   -1.0158   -2.5326 C   0  0  0  0  0  0  0  0  0  0  0  0
    5.1350   -1.8569   -3.2980 O   0  0  0  0  0  0  0  0  0  0  0  0
    3.8408   -0.0652   -2.9293 O   0  0  0  0  0  0  0  0  0  0  0  0
   -0.1929    0.2478    0.5120 N   0  0  0  0  0  0  0  0  0  0  0  0
   -1.6475    0.3217    0.3434 C   0  0  0  0  0  0  0  0  0  0  0  0
   -1.9460    1.1379   -0.9434 C   0  0  0  0  0  0  0  0  0  0  0  0
   -3.4594    1.2481   -1.1883 C   0  0  0  0  0  0  0  0  0  0  0  0
   -4.0518   -0.1625   -1.3343 C   0  0  0  0  0  0  0  0  0  0  0  0
   -3.7908   -0.9772   -0.0574 C   0  0  0  0  0  0  0  0  0  0  0  0
   -4.4396   -0.2622    1.1407 C   0  0  0  0  0  0  0  0  0  0  0  0
   -3.8524    1.1514    1.2949 C   0  0  0  0  0  0  0  0  0  0  0  0
   -4.1133    1.9529    0.0104 C   0  0  0  0  0  0  0  0  0  0  0  0
   -2.3348    1.0456    1.5297 C   0  0  0  0  0  0  0  0  0  0  0  0
   -2.2732   -1.0847    0.1752 C   0  0  0  0  0  0  0  0  0  0  0  0
    2.3583   -1.0920    2.2063 H   0  0  0  0  0  0  0  0  0  0  0  0
    2.3235    0.6156    1.6701 H   0  0  0  0  0  0  0  0  0  0  0  0
    6.3996   -0.2964    2.4169 H   0  0  0  0  0  0  0  0  0  0  0  0
    8.0692   -0.5035    0.5701 H   0  0  0  0  0  0  0  0  0  0  0  0
    7.2239   -0.8541   -1.7545 H   0  0  0  0  0  0  0  0  0  0  0  0
    3.6573   -0.2833   -3.8670 H   0  0  0  0  0  0  0  0  0  0  0  0
    0.3733    0.3640   -0.3223 H   0  0  0  0  0  0  0  0  0  0  0  0
   -1.5089    2.1425   -0.8625 H   0  0  0  0  0  0  0  0  0  0  0  0
   -1.4663    0.6650   -1.8111 H   0  0  0  0  0  0  0  0  0  0  0  0
   -3.6453    1.8239   -2.1016 H   0  0  0  0  0  0  0  0  0  0  0  0
   -3.6064   -0.6691   -2.1993 H   0  0  0  0  0  0  0  0  0  0  0  0
   -5.1304   -0.0980   -1.5236 H   0  0  0  0  0  0  0  0  0  0  0  0
   -4.2193   -1.9802   -0.1651 H   0  0  0  0  0  0  0  0  0  0  0  0
   -5.5256   -0.2022    0.9970 H   0  0  0  0  0  0  0  0  0  0  0  0
   -4.2722   -0.8399    2.0577 H   0  0  0  0  0  0  0  0  0  0  0  0
   -4.3232    1.6560    2.1462 H   0  0  0  0  0  0  0  0  0  0  0  0
   -5.1930    2.0531   -0.1562 H   0  0  0  0  0  0  0  0  0  0  0  0
   -3.7113    2.9685    0.1137 H   0  0  0  0  0  0  0  0  0  0  0  0
   -1.9051    2.0479    1.6597 H   0  0  0  0  0  0  0  0  0  0  0  0
   -2.1614    0.5131    2.4714 H   0  0  0  0  0  0  0  0  0  0  0  0
   -2.0887   -1.7025    1.0616 H   0  0  0  0  0  0  0  0  0  0  0  0
   -1.8023   -1.6084   -0.6672 H   0  0  0  0  0  0  0  0  0  0  0  0
  1  2  2  0
  2  3  1  0
  3  4  1  0
  4  5  1  0
  5  6  2  0
  6  7  1  0
  7  8  2  0
  8  9  1  0
  9 10  2  0
 10 11  1  0
 11 12  2  0
 11 13  1  0
  2 14  1  0
 14 15  1  0
 15 16  1  0
 16 17  1  0
 17 18  1  0
 18 19  1  0
 19 20  1  0
 20 21  1  0
 21 22  1  0
 21 23  1  0
 19 24  1  0
 10  5  1  0
 23 15  1  0
 24 15  1  0
 22 17  1  0
  3 25  1  0
  3 26  1  0
  7 27  1  0
  8 28  1  0
  9 29  1  0
 13 30  1  0
 14 31  1  0
 16 32  1  0
 16 33  1  0
 17 34  1  0
 18 35  1  0
 18 36  1  0
 19 37  1  0
 20 38  1  0
 20 39  1  0
 21 40  1  0
 22 41  1  0
 22 42  1  0
 23 43  1  0
 23 44  1  0
 24 45  1  0
 24 46  1  0
M  END
$$$$
