
     RDKit          3D

 56 59  0  0  0  0  0  0  0  0999 V2000
    7.6164   -1.1937   -1.1557 C   0  0  0  0  0  0  0  0  0  0  0  0
    6.5708   -1.8694   -0.4685 O   0  0  0  0  0  0  0  0  0  0  0  0
    5.5213   -1.1077   -0.0335 C   0  0  0  0  0  0  0  0  0  0  0  0
    5.3706    0.2654   -0.2252 C   0  0  0  0  0  0  0  0  0  0  0  0
    4.2444    0.9224    0.2780 C   0  0  0  0  0  0  0  0  0  0  0  0
    3.2561    0.2021    0.9600 C   0  0  0  0  0  0  0  0  0  0  0  0
    2.0938    0.9388    1.5043 C   0  0  0  0  0  0  0  0  0  0  0  0
    2.0038    1.0115    2.7299 O   0  0  0  0  0  0  0  0  0  0  0  0
    1.1339    1.6680    0.5551 C   0  0  0  0  0  0  0  0  0  0  0  0
    1.1036    1.2088   -0.9101 C   0  0  0  0  0  0  0  0  0  0  0  0
    0.3487   -0.1034   -1.0937 C   0  0  0  0  0  0  0  0  0  0  0  0
   -1.0365   -0.0568   -0.4502 C   0  0  0  0  0  0  0  0  0  0  0  0
   -0.9366    0.3312    0.9536 N   0  0  0  0  0  0  0  0  0  0  0  0
   -2.2043    0.1840    1.6913 C   0  0  0  0  0  0  0  0  0  0  0  0
   -3.2873    1.1632    1.3273 C   0  0  0  0  0  0  0  0  0  0  0  0
   -3.4307    2.4428    1.8502 C   0  0  0  0  0  0  0  0  0  0  0  0
   -4.5297    3.0567    1.2348 C   0  0  0  0  0  0  0  0  0  0  0  0
   -5.0628    2.1349    0.3679 C   0  0  0  0  0  0  0  0  0  0  0  0
   -4.3466    0.9441    0.4354 N   0  0  0  0  0  0  0  0  0  0  0  0
   -4.6843   -0.2624   -0.2803 C   0  0  0  0  0  0  0  0  0  0  0  0
   -5.6994   -0.2547   -1.2394 C   0  0  0  0  0  0  0  0  0  0  0  0
   -6.0209   -1.4388   -1.9064 C   0  0  0  0  0  0  0  0  0  0  0  0
   -5.3312   -2.6033   -1.6058 C   0  0  0  0  0  0  0  0  0  0  0  0
   -4.3409   -2.5339   -0.6471 C   0  0  0  0  0  0  0  0  0  0  0  0
   -4.0097   -1.4000    0.0092 N   0  0  0  0  0  0  0  0  0  0  0  0
   -0.2940    1.6395    1.1334 C   0  0  0  0  0  0  0  0  0  0  0  0
    3.3960   -1.1777    1.1748 C   0  0  0  0  0  0  0  0  0  0  0  0
    2.3911   -1.9677    1.9650 C   0  0  0  0  0  0  0  0  0  0  0  0
    4.5393   -1.8166    0.6690 C   0  0  0  0  0  0  0  0  0  0  0  0
    7.2509   -0.7429   -2.0843 H   0  0  0  0  0  0  0  0  0  0  0  0
    8.3755   -1.9355   -1.4223 H   0  0  0  0  0  0  0  0  0  0  0  0
    8.0929   -0.4458   -0.5131 H   0  0  0  0  0  0  0  0  0  0  0  0
    6.1139    0.8549   -0.7513 H   0  0  0  0  0  0  0  0  0  0  0  0
    4.1498    1.9972    0.1448 H   0  0  0  0  0  0  0  0  0  0  0  0
    1.4814    2.7107    0.5632 H   0  0  0  0  0  0  0  0  0  0  0  0
    0.5940    1.9819   -1.5013 H   0  0  0  0  0  0  0  0  0  0  0  0
    2.1043    1.1196   -1.3407 H   0  0  0  0  0  0  0  0  0  0  0  0
    0.9264   -0.9295   -0.6642 H   0  0  0  0  0  0  0  0  0  0  0  0
    0.2460   -0.3188   -2.1637 H   0  0  0  0  0  0  0  0  0  0  0  0
   -1.6772    0.6337   -1.0119 H   0  0  0  0  0  0  0  0  0  0  0  0
   -1.4664   -1.0598   -0.5372 H   0  0  0  0  0  0  0  0  0  0  0  0
   -1.9774    0.3314    2.7574 H   0  0  0  0  0  0  0  0  0  0  0  0
   -2.5356   -0.8553    1.6623 H   0  0  0  0  0  0  0  0  0  0  0  0
   -2.7766    2.8843    2.5924 H   0  0  0  0  0  0  0  0  0  0  0  0
   -4.9021    4.0583    1.4059 H   0  0  0  0  0  0  0  0  0  0  0  0
   -5.9297    2.2418   -0.2649 H   0  0  0  0  0  0  0  0  0  0  0  0
   -6.2519    0.6373   -1.5055 H   0  0  0  0  0  0  0  0  0  0  0  0
   -6.8072   -1.4465   -2.6564 H   0  0  0  0  0  0  0  0  0  0  0  0
   -5.5585   -3.5382   -2.1048 H   0  0  0  0  0  0  0  0  0  0  0  0
   -3.7647   -3.4121   -0.3701 H   0  0  0  0  0  0  0  0  0  0  0  0
   -0.8762    2.4231    0.6317 H   0  0  0  0  0  0  0  0  0  0  0  0
   -0.2654    1.8991    2.1985 H   0  0  0  0  0  0  0  0  0  0  0  0
    2.5232   -1.7802    3.0350 H   0  0  0  0  0  0  0  0  0  0  0  0
    1.3685   -1.7091    1.6752 H   0  0  0  0  0  0  0  0  0  0  0  0
    2.5077   -3.0425    1.7897 H   0  0  0  0  0  0  0  0  0  0  0  0
    4.6793   -2.8846    0.8277 H   0  0  0  0  0  0  0  0  0  0  0  0
  1  2  1  0
  2  3  1  0
  3  4  2  0
  4  5  1  0
  5  6  2  0
  6  7  1  0
  7  8  2  0
  7  9  1  0
  9 10  1  0
 10 11  1  0
 11 12  1  0
 12 13  1  0
 13 14  1  0
 14 15  1  0
 15 16  2  0
 16 17  1  0
 17 18  2  0
 18 19  1  0
 19 20  1  0
 20 21  2  0
 21 22  1  0
 22 23  2  0
 23 24  1  0
 24 25  2  0
 13 26  1  0
  6 27  1  0
 27 28  1  0
 27 29  2  0
 29  3  1  0
 26  9  1  0
 19 15  1  0
 25 20  1  0
  1 30  1  0
  1 31  1  0
  1 32  1  0
  4 33  1  0
  5 34  1  0
  9 35  1  0
 10 36  1  0
 10 37  1  0
 11 38  1  0
 11 39  1  0
 12 40  1  0
 12 41  1  0
 14 42  1  0
 14 43  1  0
 16 44  1  0
 17 45  1  0
 18 46  1  0
 21 47  1  0
 22 48  1  0
 23 49  1  0
 24 50  1  0
 26 51  1  0
 26 52  1  0
 28 53  1  0
 28 54  1  0
 28 55  1  0
 29 56  1  0
M  END
$$$$
