
     RDKit          3D

 36 38  0  0  0  0  0  0  0  0999 V2000
    2.4023    1.7662    2.8015 N   0  0  0  0  0  0  0  0  0  0  0  0
    1.7244    1.2319    2.0248 C   0  0  0  0  0  0  0  0  0  0  0  0
    0.8756    0.5815    1.0680 C   0  0  0  0  0  0  0  0  0  0  0  0
   -0.2793    1.2231    0.5821 C   0  0  0  0  0  0  0  0  0  0  0  0
   -0.6894    2.5645    1.0244 C   0  0  0  0  0  0  0  0  0  0  0  0
   -1.2847    2.7580    2.2808 C   0  0  0  0  0  0  0  0  0  0  0  0
   -1.6776    4.0327    2.6946 C   0  0  0  0  0  0  0  0  0  0  0  0
   -1.4843    5.1289    1.8571 C   0  0  0  0  0  0  0  0  0  0  0  0
   -0.8989    4.9529    0.6054 C   0  0  0  0  0  0  0  0  0  0  0  0
   -0.5049    3.6788    0.1907 C   0  0  0  0  0  0  0  0  0  0  0  0
   -1.0721    0.5550   -0.3645 C   0  0  0  0  0  0  0  0  0  0  0  0
   -0.7068   -0.7118   -0.7959 C   0  0  0  0  0  0  0  0  0  0  0  0
   -1.4630   -1.5075   -1.7779 C   0  0  0  0  0  0  0  0  0  0  0  0
   -1.3302   -2.8581   -2.0645 C   0  0  0  0  0  0  0  0  0  0  0  0
   -2.2195   -3.3077   -3.0826 C   0  0  0  0  0  0  0  0  0  0  0  0
   -3.0094   -2.2873   -3.5567 C   0  0  0  0  0  0  0  0  0  0  0  0
   -2.6744   -0.8055   -2.7779 S   0  0  0  0  0  0  0  0  0  0  0  0
    0.3993   -1.3329   -0.3236 N   0  0  0  0  0  0  0  0  0  0  0  0
    1.1759   -0.6944    0.5863 C   0  0  0  0  0  0  0  0  0  0  0  0
    2.6151   -1.6037    1.1475 S   0  0  0  0  0  0  0  0  0  0  0  0
    2.5870   -3.0186    0.0047 C   0  0  0  0  0  0  0  0  0  0  0  0
    3.7660   -3.9102    0.2828 C   0  0  0  0  0  0  0  0  0  0  0  0
    3.7836   -4.8782    1.0270 O   0  0  0  0  0  0  0  0  0  0  0  0
    4.8837   -3.5384   -0.3755 O   0  0  0  0  0  0  0  0  0  0  0  0
   -1.4467    1.9163    2.9514 H   0  0  0  0  0  0  0  0  0  0  0  0
   -2.1313    4.1701    3.6730 H   0  0  0  0  0  0  0  0  0  0  0  0
   -1.7866    6.1213    2.1819 H   0  0  0  0  0  0  0  0  0  0  0  0
   -0.7448    5.8088   -0.0469 H   0  0  0  0  0  0  0  0  0  0  0  0
   -0.0453    3.5641   -0.7890 H   0  0  0  0  0  0  0  0  0  0  0  0
   -1.9720    1.0364   -0.7380 H   0  0  0  0  0  0  0  0  0  0  0  0
   -0.6201   -3.4994   -1.5554 H   0  0  0  0  0  0  0  0  0  0  0  0
   -2.2743   -4.3262   -3.4472 H   0  0  0  0  0  0  0  0  0  0  0  0
   -3.7676   -2.3396   -4.3262 H   0  0  0  0  0  0  0  0  0  0  0  0
    1.6769   -3.6123    0.1396 H   0  0  0  0  0  0  0  0  0  0  0  0
    2.6280   -2.6889   -1.0388 H   0  0  0  0  0  0  0  0  0  0  0  0
    5.5656   -4.1696   -0.0629 H   0  0  0  0  0  0  0  0  0  0  0  0
  1  2  3  0
  2  3  1  0
  3  4  2  0
  4  5  1  0
  5  6  2  0
  6  7  1  0
  7  8  2  0
  8  9  1  0
  9 10  2  0
  4 11  1  0
 11 12  2  0
 12 13  1  0
 13 14  2  0
 14 15  1  0
 15 16  2  0
 16 17  1  0
 12 18  1  0
 18 19  2  0
 19 20  1  0
 20 21  1  0
 21 22  1  0
 22 23  2  0
 22 24  1  0
 19  3  1  0
 10  5  1  0
 17 13  1  0
  6 25  1  0
  7 26  1  0
  8 27  1  0
  9 28  1  0
 10 29  1  0
 11 30  1  0
 14 31  1  0
 15 32  1  0
 16 33  1  0
 21 34  1  0
 21 35  1  0
 24 36  1  0
M  END
$$$$
