
     RDKit          3D

 80 86  0  0  0  0  0  0  0  0999 V2000
   -5.6862   -0.5088    0.2968 C   0  0  0  0  0  0  0  0  0  0  0  0
   -4.4098    0.1177    0.7755 C   0  0  0  0  0  0  0  0  0  0  0  0
   -4.3759    0.8023    2.0179 C   0  0  0  0  0  0  0  0  0  0  0  0
   -5.7673    0.9273    3.0452 Cl  0  0  0  0  0  0  0  0  0  0  0  0
   -3.2080    1.4157    2.5012 C   0  0  0  0  0  0  0  0  0  0  0  0
   -2.0320    1.3622    1.7699 C   0  0  0  0  0  0  0  0  0  0  0  0
   -2.0449    0.6798    0.5613 C   0  0  0  0  0  0  0  0  0  0  0  0
   -3.2019    0.0398    0.0667 C   0  0  0  0  0  0  0  0  0  0  0  0
   -2.8583   -0.6083   -1.1506 N   0  0  0  0  0  0  0  0  0  0  0  0
   -3.6832   -1.4628   -1.9763 C   0  0  0  0  0  0  0  0  0  0  0  0
   -3.9279   -2.8508   -1.4248 C   0  0  0  0  0  0  0  0  0  0  0  0
   -5.1659   -3.4766   -1.6458 C   0  0  0  0  0  0  0  0  0  0  0  0
   -5.4059   -4.7709   -1.1796 C   0  0  0  0  0  0  0  0  0  0  0  0
   -4.4049   -5.4654   -0.5047 C   0  0  0  0  0  0  0  0  0  0  0  0
   -3.1638   -4.8694   -0.3014 C   0  0  0  0  0  0  0  0  0  0  0  0
   -2.9236   -3.5745   -0.7655 C   0  0  0  0  0  0  0  0  0  0  0  0
   -1.4964   -0.4198   -1.4781 C   0  0  0  0  0  0  0  0  0  0  0  0
   -0.9111   -0.8985   -2.4406 O   0  0  0  0  0  0  0  0  0  0  0  0
   -0.9018    0.4776   -0.3840 C   0  0  1  0  0  0  0  0  0  0  0  0
   -0.4498    1.8030   -0.8926 C   0  0  0  0  0  0  0  0  0  0  0  0
    0.9536    1.8294   -0.9504 C   0  0  0  0  0  0  0  0  0  0  0  0
    1.3576    3.0342   -1.4458 C   0  0  0  0  0  0  0  0  0  0  0  0
    2.5891    3.4049   -1.7899 O   0  0  0  0  0  0  0  0  0  0  0  0
    0.2006    3.8266   -1.5993 N   0  0  0  0  0  0  0  0  0  0  0  0
    0.1785    5.2180   -1.9331 C   0  0  0  0  0  0  0  0  0  0  0  0
    1.2183    6.0614   -1.5082 C   0  0  0  0  0  0  0  0  0  0  0  0
    1.1941    7.4227   -1.8213 C   0  0  0  0  0  0  0  0  0  0  0  0
    0.1344    7.9538   -2.5533 C   0  0  0  0  0  0  0  0  0  0  0  0
   -0.9063    7.1257   -2.9687 C   0  0  0  0  0  0  0  0  0  0  0  0
   -0.8897    5.7642   -2.6542 C   0  0  0  0  0  0  0  0  0  0  0  0
   -0.9232    3.0181   -1.3202 C   0  0  0  0  0  0  0  0  0  0  0  0
   -2.1710    3.4727   -1.3993 O   0  0  0  0  0  0  0  0  0  0  0  0
    1.5096    0.5193   -0.5573 C   0  0  1  0  0  0  0  0  0  0  0  0
    2.7662    0.4731    0.3073 C   0  0  0  0  0  0  0  0  0  0  0  0
    2.9964   -0.8916    0.8228 N   0  0  0  0  0  0  0  0  0  0  0  0
    4.2865   -1.2373    1.1902 C   0  0  0  0  0  0  0  0  0  0  0  0
    5.2724   -0.5618    0.9257 O   0  0  0  0  0  0  0  0  0  0  0  0
    4.3237   -2.4113    1.8729 O   0  0  0  0  0  0  0  0  0  0  0  0
    5.5792   -2.9796    2.3240 C   0  0  0  0  0  0  0  0  0  0  0  0
    5.1784   -4.2699    3.0562 C   0  0  0  0  0  0  0  0  0  0  0  0
    6.4753   -3.3482    1.1368 C   0  0  0  0  0  0  0  0  0  0  0  0
    6.2925   -2.0558    3.3175 C   0  0  0  0  0  0  0  0  0  0  0  0
    1.8241   -1.6079    1.3578 C   0  0  0  0  0  0  0  0  0  0  0  0
    0.5357   -1.4263    0.5154 C   0  0  0  0  0  0  0  0  0  0  0  0
    0.3501   -0.0150    0.2327 N   0  0  0  0  0  0  0  0  0  0  0  0
   -6.5740   -0.1311    0.8102 H   0  0  0  0  0  0  0  0  0  0  0  0
   -5.6580   -1.5885    0.4552 H   0  0  0  0  0  0  0  0  0  0  0  0
   -5.8685   -0.2711   -0.7519 H   0  0  0  0  0  0  0  0  0  0  0  0
   -3.2157    1.9370    3.4565 H   0  0  0  0  0  0  0  0  0  0  0  0
   -1.1233    1.8320    2.1366 H   0  0  0  0  0  0  0  0  0  0  0  0
   -3.1948   -1.5962   -2.9497 H   0  0  0  0  0  0  0  0  0  0  0  0
   -4.6162   -0.9403   -2.1986 H   0  0  0  0  0  0  0  0  0  0  0  0
   -5.9574   -2.9579   -2.1823 H   0  0  0  0  0  0  0  0  0  0  0  0
   -6.3704   -5.2402   -1.3508 H   0  0  0  0  0  0  0  0  0  0  0  0
   -4.5896   -6.4759   -0.1473 H   0  0  0  0  0  0  0  0  0  0  0  0
   -2.3742   -5.4166    0.2084 H   0  0  0  0  0  0  0  0  0  0  0  0
   -1.9377   -3.1435   -0.6162 H   0  0  0  0  0  0  0  0  0  0  0  0
    2.5263    4.1352   -2.4327 H   0  0  0  0  0  0  0  0  0  0  0  0
    2.0313    5.6935   -0.8859 H   0  0  0  0  0  0  0  0  0  0  0  0
    1.9953    8.0739   -1.4767 H   0  0  0  0  0  0  0  0  0  0  0  0
    0.1150    9.0131   -2.7941 H   0  0  0  0  0  0  0  0  0  0  0  0
   -1.7358    7.5383   -3.5368 H   0  0  0  0  0  0  0  0  0  0  0  0
   -1.7089    5.1463   -3.0130 H   0  0  0  0  0  0  0  0  0  0  0  0
   -2.7677    2.7907   -1.0441 H   0  0  0  0  0  0  0  0  0  0  0  0
    1.6595   -0.0899   -1.4611 H   0  0  0  0  0  0  0  0  0  0  0  0
    2.6816    1.1385    1.1772 H   0  0  0  0  0  0  0  0  0  0  0  0
    3.6370    0.8069   -0.2685 H   0  0  0  0  0  0  0  0  0  0  0  0
    6.0528   -4.8175    3.4275 H   0  0  0  0  0  0  0  0  0  0  0  0
    4.5249   -4.0464    3.9090 H   0  0  0  0  0  0  0  0  0  0  0  0
    4.6067   -4.9333    2.3942 H   0  0  0  0  0  0  0  0  0  0  0  0
    6.8505   -2.4609    0.6187 H   0  0  0  0  0  0  0  0  0  0  0  0
    5.9170   -3.9342    0.3955 H   0  0  0  0  0  0  0  0  0  0  0  0
    7.3456   -3.9310    1.4578 H   0  0  0  0  0  0  0  0  0  0  0  0
    7.1333   -2.5642    3.8007 H   0  0  0  0  0  0  0  0  0  0  0  0
    6.6917   -1.1610    2.8302 H   0  0  0  0  0  0  0  0  0  0  0  0
    5.6001   -1.7080    4.0923 H   0  0  0  0  0  0  0  0  0  0  0  0
    2.0432   -2.6781    1.4438 H   0  0  0  0  0  0  0  0  0  0  0  0
    1.6606   -1.2227    2.3732 H   0  0  0  0  0  0  0  0  0  0  0  0
   -0.3112   -1.8267    1.0838 H   0  0  0  0  0  0  0  0  0  0  0  0
    0.6230   -2.0091   -0.4097 H   0  0  0  0  0  0  0  0  0  0  0  0
  1  2  1  0
  2  3  2  0
  3  4  1  0
  3  5  1  0
  5  6  2  0
  6  7  1  0
  7  8  2  0
  8  9  1  0
  9 10  1  0
 10 11  1  0
 11 12  2  0
 12 13  1  0
 13 14  2  0
 14 15  1  0
 15 16  2  0
  9 17  1  0
 17 18  2  0
 17 19  1  0
 19 20  1  0
 20 21  1  0
 21 22  2  0
 22 23  1  0
 22 24  1  0
 24 25  1  0
 25 26  2  0
 26 27  1  0
 27 28  2  0
 28 29  1  0
 29 30  2  0
 24 31  1  0
 31 32  1  0
 21 33  1  0
 33 34  1  0
 34 35  1  0
 35 36  1  0
 36 37  2  0
 36 38  1  0
 38 39  1  0
 39 40  1  0
 39 41  1  0
 39 42  1  0
 35 43  1  0
 43 44  1  0
 44 45  1  0
  8  2  1  0
 16 11  1  0
 19 45  1  1
 19  7  1  0
 31 20  2  0
 45 33  1  0
 30 25  1  0
  1 46  1  0
  1 47  1  0
  1 48  1  0
  5 49  1  0
  6 50  1  0
 10 51  1  0
 10 52  1  0
 12 53  1  0
 13 54  1  0
 14 55  1  0
 15 56  1  0
 16 57  1  0
 23 58  1  0
 26 59  1  0
 27 60  1  0
 28 61  1  0
 29 62  1  0
 30 63  1  0
 32 64  1  0
 33 65  1  6
 34 66  1  0
 34 67  1  0
 40 68  1  0
 40 69  1  0
 40 70  1  0
 41 71  1  0
 41 72  1  0
 41 73  1  0
 42 74  1  0
 42 75  1  0
 42 76  1  0
 43 77  1  0
 43 78  1  0
 44 79  1  0
 44 80  1  0
M  END
$$$$
