
     RDKit          3D

 30 32  0  0  0  0  0  0  0  0999 V2000
    1.6597   -2.6187   -1.5539 O   0  0  0  0  0  0  0  0  0  0  0  0
    1.6261   -1.5533   -0.9785 C   0  0  0  0  0  0  0  0  0  0  0  0
    0.4639   -0.8435   -0.3793 C   0  0  0  0  0  0  0  0  0  0  0  0
   -0.7827   -1.3334   -0.4134 C   0  0  0  0  0  0  0  0  0  0  0  0
   -1.9722   -0.6771    0.1440 C   0  0  0  0  0  0  0  0  0  0  0  0
   -1.9637   -0.0675    1.4097 C   0  0  0  0  0  0  0  0  0  0  0  0
   -3.1212    0.5215    1.9261 C   0  0  0  0  0  0  0  0  0  0  0  0
   -4.2877    0.4888    1.1793 C   0  0  0  0  0  0  0  0  0  0  0  0
   -5.4191    1.0628    1.6832 O   0  0  0  0  0  0  0  0  0  0  0  0
   -4.3156   -0.1252   -0.0692 C   0  0  0  0  0  0  0  0  0  0  0  0
   -5.5026   -0.1258   -0.7497 O   0  0  0  0  0  0  0  0  0  0  0  0
   -3.1679   -0.7146   -0.5909 C   0  0  0  0  0  0  0  0  0  0  0  0
    0.8590    0.3671    0.1788 O   0  0  0  0  0  0  0  0  0  0  0  0
    2.2154    0.4521   -0.0325 C   0  0  0  0  0  0  0  0  0  0  0  0
    3.0264    1.4929    0.3624 C   0  0  0  0  0  0  0  0  0  0  0  0
    4.3840    1.3943    0.0545 C   0  0  0  0  0  0  0  0  0  0  0  0
    5.1898    2.4245    0.4454 O   0  0  0  0  0  0  0  0  0  0  0  0
    4.9139    0.2845   -0.6300 C   0  0  0  0  0  0  0  0  0  0  0  0
    4.0760   -0.7630   -1.0239 C   0  0  0  0  0  0  0  0  0  0  0  0
    2.7358   -0.6479   -0.7101 C   0  0  0  0  0  0  0  0  0  0  0  0
   -0.9585   -2.2865   -0.9096 H   0  0  0  0  0  0  0  0  0  0  0  0
   -1.0585   -0.0502    2.0125 H   0  0  0  0  0  0  0  0  0  0  0  0
   -3.1113    0.9957    2.9026 H   0  0  0  0  0  0  0  0  0  0  0  0
   -6.0963    0.9147    0.9935 H   0  0  0  0  0  0  0  0  0  0  0  0
   -5.3663   -0.5820   -1.5979 H   0  0  0  0  0  0  0  0  0  0  0  0
   -3.1899   -1.1954   -1.5644 H   0  0  0  0  0  0  0  0  0  0  0  0
    2.6306    2.3532    0.8894 H   0  0  0  0  0  0  0  0  0  0  0  0
    6.1031    2.2354    0.1727 H   0  0  0  0  0  0  0  0  0  0  0  0
    5.9743    0.2271   -0.8603 H   0  0  0  0  0  0  0  0  0  0  0  0
    4.4555   -1.6308   -1.5529 H   0  0  0  0  0  0  0  0  0  0  0  0
  1  2  2  0
  2  3  1  0
  3  4  2  3
  4  5  1  0
  5  6  2  0
  6  7  1  0
  7  8  2  0
  8  9  1  0
  8 10  1  0
 10 11  1  0
 10 12  2  0
  3 13  1  0
 13 14  1  0
 14 15  2  0
 15 16  1  0
 16 17  1  0
 16 18  2  0
 18 19  1  0
 19 20  2  0
 20  2  1  0
 12  5  1  0
 20 14  1  0
  4 21  1  0
  6 22  1  0
  7 23  1  0
  9 24  1  0
 11 25  1  0
 12 26  1  0
 15 27  1  0
 17 28  1  0
 18 29  1  0
 19 30  1  0
M  END
$$$$
