
     RDKit          3D

 51 54  0  0  0  0  0  0  0  0999 V2000
    2.4386   -1.9795   -1.4732 C   0  0  0  0  0  0  0  0  0  0  0  0
    2.5767   -0.4611   -1.2988 C   0  0  0  0  0  0  0  0  0  0  0  0
    1.3913    0.2592   -1.9765 C   0  0  0  0  0  0  0  0  0  0  0  0
    0.5230    0.5772   -0.7999 C   0  0  0  0  0  0  0  0  0  0  0  0
   -0.7760    1.0615   -0.8213 C   0  0  0  0  0  0  0  0  0  0  0  0
   -1.3730    1.3786    0.4029 C   0  0  0  0  0  0  0  0  0  0  0  0
   -3.0374    2.0013    0.4029 S   0  0  0  0  0  6  0  0  0  0  0  0
   -3.4388    2.2638    1.7689 O   0  0  0  0  0  0  0  0  0  0  0  0
   -3.1064    3.0309   -0.6125 O   0  0  0  0  0  0  0  0  0  0  0  0
   -3.9338    0.6513   -0.1419 N   0  0  0  0  0  0  0  0  0  0  0  0
   -3.9231   -0.5468    0.7466 C   0  0  0  0  0  0  0  0  0  0  0  0
   -5.2902   -0.8055    1.3649 C   0  0  0  0  0  0  0  0  0  0  0  0
   -6.3587   -1.0334    0.2981 C   0  0  0  0  0  0  0  0  0  0  0  0
   -6.0841   -0.2393   -0.9772 C   0  0  0  0  0  0  0  0  0  0  0  0
   -5.2709    1.0155   -0.6870 C   0  0  0  0  0  0  0  0  0  0  0  0
   -0.6728    1.2394    1.6124 C   0  0  0  0  0  0  0  0  0  0  0  0
    0.6405    0.7552    1.6106 C   0  0  0  0  0  0  0  0  0  0  0  0
    1.2248    0.4166    0.3997 C   0  0  0  0  0  0  0  0  0  0  0  0
    2.5195   -0.0827    0.1366 N   0  0  0  0  0  0  0  0  0  0  0  0
    3.5425   -0.2073    1.0745 C   0  0  0  0  0  0  0  0  0  0  0  0
    3.3702   -0.0101    2.2839 O   0  0  0  0  0  0  0  0  0  0  0  0
    4.9485   -0.5756    0.5153 C   0  0  0  0  0  0  0  0  0  0  0  0
    6.1081   -0.7540    1.5413 C   0  0  0  0  0  0  0  0  0  0  0  0
    7.0427   -0.1100    0.5017 C   0  0  0  0  0  0  0  0  0  0  0  0
    5.7984    0.5844   -0.0801 C   0  0  0  0  0  0  0  0  0  0  0  0
    1.4844   -2.3427   -1.0747 H   0  0  0  0  0  0  0  0  0  0  0  0
    2.4869   -2.2491   -2.5335 H   0  0  0  0  0  0  0  0  0  0  0  0
    3.2294   -2.5253   -0.9526 H   0  0  0  0  0  0  0  0  0  0  0  0
    3.5250   -0.1344   -1.7366 H   0  0  0  0  0  0  0  0  0  0  0  0
    0.8812   -0.3564   -2.7231 H   0  0  0  0  0  0  0  0  0  0  0  0
    1.7258    1.1943   -2.4393 H   0  0  0  0  0  0  0  0  0  0  0  0
   -1.3098    1.2046   -1.7566 H   0  0  0  0  0  0  0  0  0  0  0  0
   -3.1835   -0.4457    1.5466 H   0  0  0  0  0  0  0  0  0  0  0  0
   -3.6085   -1.4068    0.1431 H   0  0  0  0  0  0  0  0  0  0  0  0
   -5.5763    0.0535    1.9851 H   0  0  0  0  0  0  0  0  0  0  0  0
   -5.2474   -1.6730    2.0331 H   0  0  0  0  0  0  0  0  0  0  0  0
   -6.4201   -2.0992    0.0476 H   0  0  0  0  0  0  0  0  0  0  0  0
   -7.3365   -0.7568    0.7103 H   0  0  0  0  0  0  0  0  0  0  0  0
   -5.5339   -0.8730   -1.6846 H   0  0  0  0  0  0  0  0  0  0  0  0
   -7.0320    0.0224   -1.4607 H   0  0  0  0  0  0  0  0  0  0  0  0
   -5.1306    1.5675   -1.6229 H   0  0  0  0  0  0  0  0  0  0  0  0
   -5.8094    1.6604    0.0174 H   0  0  0  0  0  0  0  0  0  0  0  0
   -1.1393    1.5085    2.5580 H   0  0  0  0  0  0  0  0  0  0  0  0
    1.1690    0.6514    2.5524 H   0  0  0  0  0  0  0  0  0  0  0  0
    4.9175   -1.4430   -0.1554 H   0  0  0  0  0  0  0  0  0  0  0  0
    6.3466   -1.7867    1.8100 H   0  0  0  0  0  0  0  0  0  0  0  0
    6.0061   -0.1642    2.4596 H   0  0  0  0  0  0  0  0  0  0  0  0
    7.8152    0.5520    0.9002 H   0  0  0  0  0  0  0  0  0  0  0  0
    7.5057   -0.8309   -0.1818 H   0  0  0  0  0  0  0  0  0  0  0  0
    5.5908    1.5662    0.3616 H   0  0  0  0  0  0  0  0  0  0  0  0
    5.7843    0.6765   -1.1692 H   0  0  0  0  0  0  0  0  0  0  0  0
  1  2  1  0
  2  3  1  0
  3  4  1  0
  4  5  2  0
  5  6  1  0
  6  7  1  0
  7  8  2  0
  7  9  2  0
  7 10  1  0
 10 11  1  0
 11 12  1  0
 12 13  1  0
 13 14  1  0
 14 15  1  0
  6 16  2  0
 16 17  1  0
 17 18  2  0
 18 19  1  0
 19 20  1  0
 20 21  2  0
 20 22  1  0
 22 23  1  0
 23 24  1  0
 24 25  1  0
 19  2  1  0
 25 22  1  0
 18  4  1  0
 15 10  1  0
  1 26  1  0
  1 27  1  0
  1 28  1  0
  2 29  1  0
  3 30  1  0
  3 31  1  0
  5 32  1  0
 11 33  1  0
 11 34  1  0
 12 35  1  0
 12 36  1  0
 13 37  1  0
 13 38  1  0
 14 39  1  0
 14 40  1  0
 15 41  1  0
 15 42  1  0
 16 43  1  0
 17 44  1  0
 22 45  1  0
 23 46  1  0
 23 47  1  0
 24 48  1  0
 24 49  1  0
 25 50  1  0
 25 51  1  0
M  END
$$$$
