
     RDKit          3D

 46 49  0  0  0  0  0  0  0  0999 V2000
    4.6921   -1.5648    1.1864 C   0  0  0  0  0  0  0  0  0  0  0  0
    4.4254   -0.4694    0.4632 C   0  0  0  0  0  0  0  0  0  0  0  0
    3.4749   -0.3402   -0.7091 C   0  0  0  0  0  0  0  0  0  0  0  0
    2.6243    0.9593   -0.6178 C   0  0  0  0  0  0  0  0  0  0  0  0
    1.1722    0.6963   -0.7637 N   0  0  0  0  0  0  0  0  0  0  0  0
    0.9277    0.0752   -2.0834 C   0  0  0  0  0  0  0  0  0  0  0  0
    1.7533   -1.2043   -2.2791 C   0  0  0  0  0  0  0  0  0  0  0  0
    2.5083   -1.5235   -0.9746 C   0  0  0  0  0  0  0  0  0  0  0  0
    1.4302   -1.6154    0.1261 C   0  0  0  0  0  0  0  0  0  0  0  0
    0.7698   -0.2306    0.3308 C   0  0  0  0  0  0  0  0  0  0  0  0
   -0.7344   -0.2340    0.5161 C   0  0  0  0  0  0  0  0  0  0  0  0
   -1.4759   -1.3812    0.6883 N   0  0  0  0  0  0  0  0  0  0  0  0
   -2.8100   -1.0950    0.8473 C   0  0  0  0  0  0  0  0  0  0  0  0
   -3.9010   -1.9542    1.0274 C   0  0  0  0  0  0  0  0  0  0  0  0
   -5.1643   -1.3744    1.1750 C   0  0  0  0  0  0  0  0  0  0  0  0
   -5.3251    0.0084    1.1464 C   0  0  0  0  0  0  0  0  0  0  0  0
   -4.2213    0.8503    0.9681 C   0  0  0  0  0  0  0  0  0  0  0  0
   -2.9367    0.2892    0.8128 C   0  0  0  0  0  0  0  0  0  0  0  0
   -1.6264    0.8336    0.6195 C   0  0  0  0  0  0  0  0  0  0  0  0
   -1.2939    2.2919    0.5466 C   0  0  0  0  0  0  0  0  0  0  0  0
   -1.5629    2.8906   -0.8317 C   0  0  0  0  0  0  0  0  0  0  0  0
   -1.0333    4.2130   -0.9091 O   0  0  0  0  0  0  0  0  0  0  0  0
    5.4147   -1.5252    1.9970 H   0  0  0  0  0  0  0  0  0  0  0  0
    4.2247   -2.5244    0.9961 H   0  0  0  0  0  0  0  0  0  0  0  0
    4.9771    0.4372    0.7149 H   0  0  0  0  0  0  0  0  0  0  0  0
    4.1208   -0.2397   -1.5938 H   0  0  0  0  0  0  0  0  0  0  0  0
    2.7989    1.4955    0.3243 H   0  0  0  0  0  0  0  0  0  0  0  0
    2.9406    1.6574   -1.4044 H   0  0  0  0  0  0  0  0  0  0  0  0
   -0.1393   -0.1439   -2.2116 H   0  0  0  0  0  0  0  0  0  0  0  0
    1.1693    0.7949   -2.8757 H   0  0  0  0  0  0  0  0  0  0  0  0
    1.0923   -2.0369   -2.5483 H   0  0  0  0  0  0  0  0  0  0  0  0
    2.4621   -1.0754   -3.1058 H   0  0  0  0  0  0  0  0  0  0  0  0
    3.0459   -2.4718   -1.0801 H   0  0  0  0  0  0  0  0  0  0  0  0
    0.7174   -2.3890   -0.1775 H   0  0  0  0  0  0  0  0  0  0  0  0
    1.8665   -1.9521    1.0727 H   0  0  0  0  0  0  0  0  0  0  0  0
    1.1545    0.1793    1.2772 H   0  0  0  0  0  0  0  0  0  0  0  0
   -1.1117   -2.3215    0.7052 H   0  0  0  0  0  0  0  0  0  0  0  0
   -3.7779   -3.0317    1.0531 H   0  0  0  0  0  0  0  0  0  0  0  0
   -6.0331   -2.0130    1.3159 H   0  0  0  0  0  0  0  0  0  0  0  0
   -6.3153    0.4410    1.2647 H   0  0  0  0  0  0  0  0  0  0  0  0
   -4.3577    1.9276    0.9497 H   0  0  0  0  0  0  0  0  0  0  0  0
   -1.8747    2.8443    1.2966 H   0  0  0  0  0  0  0  0  0  0  0  0
   -0.2486    2.4620    0.8314 H   0  0  0  0  0  0  0  0  0  0  0  0
   -2.6389    2.9472   -1.0264 H   0  0  0  0  0  0  0  0  0  0  0  0
   -1.1148    2.2977   -1.6349 H   0  0  0  0  0  0  0  0  0  0  0  0
   -0.0657    4.1195   -0.8523 H   0  0  0  0  0  0  0  0  0  0  0  0
  1  2  2  0
  2  3  1  0
  3  4  1  0
  4  5  1  0
  5  6  1  0
  6  7  1  0
  7  8  1  0
  8  9  1  0
  9 10  1  0
 10 11  1  0
 11 12  1  0
 12 13  1  0
 13 14  2  0
 14 15  1  0
 15 16  2  0
 16 17  1  0
 17 18  2  0
 18 19  1  0
 19 20  1  0
 20 21  1  0
 21 22  1  0
  8  3  1  0
 19 11  2  0
 10  5  1  0
 18 13  1  0
  1 23  1  0
  1 24  1  0
  2 25  1  0
  3 26  1  0
  4 27  1  0
  4 28  1  0
  6 29  1  0
  6 30  1  0
  7 31  1  0
  7 32  1  0
  8 33  1  0
  9 34  1  0
  9 35  1  0
 10 36  1  0
 12 37  1  0
 14 38  1  0
 15 39  1  0
 16 40  1  0
 17 41  1  0
 20 42  1  0
 20 43  1  0
 21 44  1  0
 21 45  1  0
 22 46  1  0
M  END
$$$$
