
     RDKit          3D

 43 45  0  0  0  0  0  0  0  0999 V2000
    7.3494   -0.1192   -1.4359 C   0  0  0  0  0  0  0  0  0  0  0  0
    6.6919   -1.3329   -1.0943 O   0  0  0  0  0  0  0  0  0  0  0  0
    5.3771   -1.2425   -0.7321 C   0  0  0  0  0  0  0  0  0  0  0  0
    4.7760   -2.4571   -0.4029 C   0  0  0  0  0  0  0  0  0  0  0  0
    3.4337   -2.5068   -0.0128 C   0  0  0  0  0  0  0  0  0  0  0  0
    2.6628   -1.3397    0.0612 C   0  0  0  0  0  0  0  0  0  0  0  0
    1.3015   -1.4381    0.4237 N   0  0  0  0  0  0  0  0  0  0  0  0
    0.2511   -0.6351    0.1259 C   0  0  0  0  0  0  0  0  0  0  0  0
    0.1044    0.2277   -0.9781 C   0  0  0  0  0  0  0  0  0  0  0  0
   -1.1619    0.7718   -0.9218 C   0  0  0  0  0  0  0  0  0  0  0  0
   -1.7834    1.5495   -1.8060 O   0  0  0  0  0  0  0  0  0  0  0  0
   -1.7919    0.3014    0.2296 N   0  0  0  0  0  0  0  0  0  0  0  0
   -3.1196    0.6081    0.6640 C   0  0  0  0  0  0  0  0  0  0  0  0
   -3.9343   -0.4668    1.0673 C   0  0  0  0  0  0  0  0  0  0  0  0
   -5.2591   -0.2350    1.4538 C   0  0  0  0  0  0  0  0  0  0  0  0
   -6.1094   -1.3617    1.8561 N   0  0  0  0  0  4  0  0  0  0  0  0
   -5.6440   -2.5060    1.7541 O   0  0  0  0  0  0  0  0  0  0  0  0
   -7.2480   -1.1038    2.2738 O   0  0  0  0  0  1  0  0  0  0  0  0
   -5.7849    1.0589    1.4472 C   0  0  0  0  0  0  0  0  0  0  0  0
   -4.9693    2.1268    1.0703 C   0  0  0  0  0  0  0  0  0  0  0  0
   -3.6250    1.9266    0.6976 C   0  0  0  0  0  0  0  0  0  0  0  0
   -2.8087    3.1590    0.4102 C   0  0  0  0  0  0  0  0  0  0  0  0
   -0.9207   -0.5930    0.8539 C   0  0  0  0  0  0  0  0  0  0  0  0
   -1.2310   -1.1921    2.0059 O   0  0  0  0  0  0  0  0  0  0  0  0
    3.2736   -0.1280   -0.2798 C   0  0  0  0  0  0  0  0  0  0  0  0
    4.6197   -0.0754   -0.6684 C   0  0  0  0  0  0  0  0  0  0  0  0
    8.3836   -0.3617   -1.6985 H   0  0  0  0  0  0  0  0  0  0  0  0
    7.3747    0.5692   -0.5846 H   0  0  0  0  0  0  0  0  0  0  0  0
    6.8848    0.3490   -2.3100 H   0  0  0  0  0  0  0  0  0  0  0  0
    5.3555   -3.3757   -0.4546 H   0  0  0  0  0  0  0  0  0  0  0  0
    2.9960   -3.4740    0.2200 H   0  0  0  0  0  0  0  0  0  0  0  0
    1.1201   -2.2912    0.9443 H   0  0  0  0  0  0  0  0  0  0  0  0
    0.8178    0.3860   -1.7748 H   0  0  0  0  0  0  0  0  0  0  0  0
   -1.1806    1.6794   -2.5595 H   0  0  0  0  0  0  0  0  0  0  0  0
   -3.5463   -1.4839    1.0455 H   0  0  0  0  0  0  0  0  0  0  0  0
   -6.8149    1.2549    1.7374 H   0  0  0  0  0  0  0  0  0  0  0  0
   -5.3843    3.1340    1.0882 H   0  0  0  0  0  0  0  0  0  0  0  0
   -2.9421    3.4747   -0.6281 H   0  0  0  0  0  0  0  0  0  0  0  0
   -1.7465    3.0069    0.6219 H   0  0  0  0  0  0  0  0  0  0  0  0
   -3.1264    3.9850    1.0576 H   0  0  0  0  0  0  0  0  0  0  0  0
   -0.4011   -1.5478    2.3685 H   0  0  0  0  0  0  0  0  0  0  0  0
    2.7188    0.8040   -0.2151 H   0  0  0  0  0  0  0  0  0  0  0  0
    5.0410    0.8948   -0.9087 H   0  0  0  0  0  0  0  0  0  0  0  0
  1  2  1  0
  2  3  1  0
  3  4  2  0
  4  5  1  0
  5  6  2  0
  6  7  1  0
  7  8  1  0
  8  9  1  0
  9 10  2  0
 10 11  1  0
 10 12  1  0
 12 13  1  0
 13 14  2  0
 14 15  1  0
 15 16  1  0
 16 17  2  0
 16 18  1  0
 15 19  2  0
 19 20  1  0
 20 21  2  0
 21 22  1  0
 12 23  1  0
 23 24  1  0
  6 25  1  0
 25 26  2  0
 26  3  1  0
 23  8  2  0
 21 13  1  0
  1 27  1  0
  1 28  1  0
  1 29  1  0
  4 30  1  0
  5 31  1  0
  7 32  1  0
  9 33  1  0
 11 34  1  0
 14 35  1  0
 19 36  1  0
 20 37  1  0
 22 38  1  0
 22 39  1  0
 22 40  1  0
 24 41  1  0
 25 42  1  0
 26 43  1  0
M  CHG  2  16   1  18  -1
M  END
$$$$
