
     RDKit          3D

 45 47  0  0  0  0  0  0  0  0999 V2000
   -4.0994   -1.7921    1.6165 C   0  0  0  0  0  0  0  0  0  0  0  0
   -3.0745   -0.8797    1.1145 N   0  0  0  0  0  0  0  0  0  0  0  0
   -2.5163   -1.3058   -0.1826 C   0  0  0  0  0  0  0  0  0  0  0  0
   -3.5608   -0.8598   -1.2121 C   0  0  0  0  0  0  0  0  0  0  0  0
   -4.2811    0.3163   -0.5470 C   0  0  0  0  0  0  0  0  0  0  0  0
   -3.5999    0.4650    0.8180 C   0  0  0  0  0  0  0  0  0  0  0  0
   -2.3773    1.3981    0.7577 C   0  0  0  0  0  0  0  0  0  0  0  0
   -1.3731    0.9736   -0.3250 C   0  0  0  0  0  0  0  0  0  0  0  0
   -0.1200    1.6310   -0.0594 O   0  0  0  0  0  0  0  0  0  0  0  0
    0.7341    1.7367   -1.1150 C   0  0  0  0  0  0  0  0  0  0  0  0
    0.4740    1.4206   -2.2694 O   0  0  0  0  0  0  0  0  0  0  0  0
    2.0314    2.3716   -0.6898 C   0  0  0  0  0  0  0  0  0  0  0  0
    2.7408    1.5778    0.4059 C   0  0  0  0  0  0  0  0  0  0  0  0
    3.1039    0.2150    0.0084 N   0  0  0  0  0  0  0  0  0  0  0  0
    4.1190    0.1495   -1.0446 C   0  0  0  0  0  0  0  0  0  0  0  0
    4.6164   -1.2881   -0.9713 C   0  0  0  0  0  0  0  0  0  0  0  0
    4.2507   -1.7711    0.4274 C   0  0  0  0  0  0  0  0  0  0  0  0
    3.6631   -0.5541    1.1218 C   0  0  0  0  0  0  0  0  0  0  0  0
   -1.1848   -0.5524   -0.3482 C   0  0  0  0  0  0  0  0  0  0  0  0
   -4.9462   -1.9269    0.9358 H   0  0  0  0  0  0  0  0  0  0  0  0
   -4.4892   -1.4277    2.5734 H   0  0  0  0  0  0  0  0  0  0  0  0
   -3.6614   -2.7772    1.8111 H   0  0  0  0  0  0  0  0  0  0  0  0
   -2.3248   -2.3837   -0.2298 H   0  0  0  0  0  0  0  0  0  0  0  0
   -3.1162   -0.5765   -2.1717 H   0  0  0  0  0  0  0  0  0  0  0  0
   -4.2797   -1.6645   -1.4072 H   0  0  0  0  0  0  0  0  0  0  0  0
   -5.3428    0.0714   -0.4245 H   0  0  0  0  0  0  0  0  0  0  0  0
   -4.2218    1.2269   -1.1520 H   0  0  0  0  0  0  0  0  0  0  0  0
   -4.2906    0.8311    1.5858 H   0  0  0  0  0  0  0  0  0  0  0  0
   -1.8794    1.4223    1.7369 H   0  0  0  0  0  0  0  0  0  0  0  0
   -2.6971    2.4300    0.5655 H   0  0  0  0  0  0  0  0  0  0  0  0
   -1.7586    1.3171   -1.2937 H   0  0  0  0  0  0  0  0  0  0  0  0
    2.6716    2.4816   -1.5722 H   0  0  0  0  0  0  0  0  0  0  0  0
    1.8090    3.3860   -0.3387 H   0  0  0  0  0  0  0  0  0  0  0  0
    3.6320    2.1348    0.7235 H   0  0  0  0  0  0  0  0  0  0  0  0
    2.0812    1.5242    1.2814 H   0  0  0  0  0  0  0  0  0  0  0  0
    4.9505    0.8379   -0.8471 H   0  0  0  0  0  0  0  0  0  0  0  0
    3.7088    0.3729   -2.0342 H   0  0  0  0  0  0  0  0  0  0  0  0
    4.1221   -1.9143   -1.7230 H   0  0  0  0  0  0  0  0  0  0  0  0
    5.6959   -1.3427   -1.1460 H   0  0  0  0  0  0  0  0  0  0  0  0
    3.5058   -2.5729    0.3582 H   0  0  0  0  0  0  0  0  0  0  0  0
    5.1194   -2.1655    0.9637 H   0  0  0  0  0  0  0  0  0  0  0  0
    4.4562    0.0008    1.6391 H   0  0  0  0  0  0  0  0  0  0  0  0
    2.8996   -0.8386    1.8526 H   0  0  0  0  0  0  0  0  0  0  0  0
   -0.7045   -0.8483   -1.2889 H   0  0  0  0  0  0  0  0  0  0  0  0
   -0.4861   -0.8502    0.4457 H   0  0  0  0  0  0  0  0  0  0  0  0
  1  2  1  0
  2  3  1  0
  3  4  1  0
  4  5  1  0
  5  6  1  0
  6  7  1  0
  7  8  1  0
  8  9  1  0
  9 10  1  0
 10 11  2  0
 10 12  1  0
 12 13  1  0
 13 14  1  0
 14 15  1  0
 15 16  1  0
 16 17  1  0
 17 18  1  0
  8 19  1  0
  6  2  1  0
 18 14  1  0
 19  3  1  0
  1 20  1  0
  1 21  1  0
  1 22  1  0
  3 23  1  0
  4 24  1  0
  4 25  1  0
  5 26  1  0
  5 27  1  0
  6 28  1  0
  7 29  1  0
  7 30  1  0
  8 31  1  0
 12 32  1  0
 12 33  1  0
 13 34  1  0
 13 35  1  0
 15 36  1  0
 15 37  1  0
 16 38  1  0
 16 39  1  0
 17 40  1  0
 17 41  1  0
 18 42  1  0
 18 43  1  0
 19 44  1  0
 19 45  1  0
M  END
$$$$
