
     RDKit          3D

 65 68  0  0  0  0  0  0  0  0999 V2000
   -2.3065   -1.7450    4.1231 C   0  0  0  0  0  0  0  0  0  0  0  0
   -3.0758   -0.8027    3.2468 C   0  0  0  0  0  0  0  0  0  0  0  0
   -4.0941   -1.2848    2.4168 C   0  0  0  0  0  0  0  0  0  0  0  0
   -4.8359   -0.4082    1.6220 C   0  0  0  0  0  0  0  0  0  0  0  0
   -4.5838    0.9689    1.6572 C   0  0  0  0  0  0  0  0  0  0  0  0
   -5.3813    1.9173    0.7929 C   0  0  0  0  0  0  0  0  0  0  0  0
   -4.8892    1.9779   -0.6546 C   0  0  0  0  0  0  0  0  0  0  0  0
   -3.5577    2.5466   -0.7701 N   0  0  0  0  0  0  0  0  0  0  0  0
   -3.1080    3.0304   -1.9821 C   0  0  0  0  0  0  0  0  0  0  0  0
   -3.8251    3.1650   -2.9681 O   0  0  0  0  0  0  0  0  0  0  0  0
   -1.6515    3.4521   -1.9573 C   0  0  0  0  0  0  0  0  0  0  0  0
   -0.9741    3.3003   -3.3184 C   0  0  0  0  0  0  0  0  0  0  0  0
   -0.9301    1.8558   -3.8262 C   0  0  0  0  0  0  0  0  0  0  0  0
   -0.2098    0.9616   -2.9248 N   0  0  0  0  0  0  0  0  0  0  0  0
   -1.0030    0.2497   -2.0171 N   0  0  0  0  0  0  0  0  0  0  0  0
   -0.4699   -0.5696   -1.1548 C   0  0  0  0  0  0  0  0  0  0  0  0
   -1.3823   -1.3033   -0.2151 C   0  0  0  0  0  0  0  0  0  0  0  0
    0.9619   -0.7373   -1.1288 C   0  0  0  0  0  0  0  0  0  0  0  0
    1.8265   -1.5393   -0.4025 C   0  0  0  0  0  0  0  0  0  0  0  0
    1.5304   -2.6446    0.5456 C   0  0  0  0  0  0  0  0  0  0  0  0
    3.1131   -1.1407   -0.7876 N   0  0  0  0  0  0  0  0  0  0  0  0
    4.3912   -1.4588   -0.2325 C   0  0  0  0  0  0  0  0  0  0  0  0
    4.5434   -1.9563    1.0657 C   0  0  0  0  0  0  0  0  0  0  0  0
    5.8186   -2.2385    1.5708 C   0  0  0  0  0  0  0  0  0  0  0  0
    6.9622   -2.0087    0.7989 C   0  0  0  0  0  0  0  0  0  0  0  0
    8.3242   -2.3372    1.3327 C   0  0  0  0  0  0  0  0  0  0  0  0
    6.8135   -1.5044   -0.4954 C   0  0  0  0  0  0  0  0  0  0  0  0
    5.5423   -1.2188   -1.0018 C   0  0  0  0  0  0  0  0  0  0  0  0
    3.0620   -0.3056   -1.8610 N   0  0  0  0  0  0  0  0  0  0  0  0
    1.7685   -0.0160   -2.0158 C   0  0  0  0  0  0  0  0  0  0  0  0
    1.1989    0.9078   -2.9888 C   0  0  0  0  0  0  0  0  0  0  0  0
    1.8707    1.5744   -3.7736 O   0  0  0  0  0  0  0  0  0  0  0  0
   -3.5762    1.4521    2.5013 C   0  0  0  0  0  0  0  0  0  0  0  0
   -2.8298    0.5743    3.2911 C   0  0  0  0  0  0  0  0  0  0  0  0
   -2.8499   -1.9183    5.0559 H   0  0  0  0  0  0  0  0  0  0  0  0
   -2.1495   -2.7042    3.6179 H   0  0  0  0  0  0  0  0  0  0  0  0
   -1.3175   -1.3416    4.3622 H   0  0  0  0  0  0  0  0  0  0  0  0
   -4.3184   -2.3494    2.3853 H   0  0  0  0  0  0  0  0  0  0  0  0
   -5.6184   -0.8078    0.9802 H   0  0  0  0  0  0  0  0  0  0  0  0
   -5.3621    2.9213    1.2360 H   0  0  0  0  0  0  0  0  0  0  0  0
   -6.4324    1.6013    0.8042 H   0  0  0  0  0  0  0  0  0  0  0  0
   -4.8599    0.9816   -1.1093 H   0  0  0  0  0  0  0  0  0  0  0  0
   -5.5812    2.5894   -1.2438 H   0  0  0  0  0  0  0  0  0  0  0  0
   -2.8506    2.1607   -0.1564 H   0  0  0  0  0  0  0  0  0  0  0  0
   -1.1012    2.8971   -1.1906 H   0  0  0  0  0  0  0  0  0  0  0  0
   -1.6309    4.5074   -1.6615 H   0  0  0  0  0  0  0  0  0  0  0  0
   -1.4940    3.9167   -4.0613 H   0  0  0  0  0  0  0  0  0  0  0  0
    0.0469    3.6933   -3.2430 H   0  0  0  0  0  0  0  0  0  0  0  0
   -1.9385    1.4576   -3.9834 H   0  0  0  0  0  0  0  0  0  0  0  0
   -0.4284    1.8380   -4.8009 H   0  0  0  0  0  0  0  0  0  0  0  0
   -1.0166   -1.2163    0.8109 H   0  0  0  0  0  0  0  0  0  0  0  0
   -1.4336   -2.3570   -0.5018 H   0  0  0  0  0  0  0  0  0  0  0  0
   -2.3899   -0.8822   -0.2655 H   0  0  0  0  0  0  0  0  0  0  0  0
    1.4397   -2.2658    1.5679 H   0  0  0  0  0  0  0  0  0  0  0  0
    2.2917   -3.4290    0.5099 H   0  0  0  0  0  0  0  0  0  0  0  0
    0.5895   -3.1390    0.2888 H   0  0  0  0  0  0  0  0  0  0  0  0
    3.7051   -2.0938    1.7381 H   0  0  0  0  0  0  0  0  0  0  0  0
    5.9141   -2.6248    2.5840 H   0  0  0  0  0  0  0  0  0  0  0  0
    8.6118   -3.3479    1.0278 H   0  0  0  0  0  0  0  0  0  0  0  0
    9.0696   -1.6274    0.9601 H   0  0  0  0  0  0  0  0  0  0  0  0
    8.3424   -2.2803    2.4267 H   0  0  0  0  0  0  0  0  0  0  0  0
    7.6857   -1.3231   -1.1198 H   0  0  0  0  0  0  0  0  0  0  0  0
    5.4663   -0.8188   -2.0122 H   0  0  0  0  0  0  0  0  0  0  0  0
   -3.3726    2.5203    2.5568 H   0  0  0  0  0  0  0  0  0  0  0  0
   -2.0604    0.9752    3.9487 H   0  0  0  0  0  0  0  0  0  0  0  0
  1  2  1  0
  2  3  2  0
  3  4  1  0
  4  5  2  0
  5  6  1  0
  6  7  1  0
  7  8  1  0
  8  9  1  0
  9 10  2  0
  9 11  1  0
 11 12  1  0
 12 13  1  0
 13 14  1  0
 14 15  1  0
 15 16  2  0
 16 17  1  0
 16 18  1  0
 18 19  2  0
 19 20  1  0
 19 21  1  0
 21 22  1  0
 22 23  2  0
 23 24  1  0
 24 25  2  0
 25 26  1  0
 25 27  1  0
 27 28  2  0
 21 29  1  0
 29 30  2  0
 30 31  1  0
 31 32  2  0
  5 33  1  0
 33 34  2  0
 34  2  1  0
 31 14  1  0
 30 18  1  0
 28 22  1  0
  1 35  1  0
  1 36  1  0
  1 37  1  0
  3 38  1  0
  4 39  1  0
  6 40  1  0
  6 41  1  0
  7 42  1  0
  7 43  1  0
  8 44  1  0
 11 45  1  0
 11 46  1  0
 12 47  1  0
 12 48  1  0
 13 49  1  0
 13 50  1  0
 17 51  1  0
 17 52  1  0
 17 53  1  0
 20 54  1  0
 20 55  1  0
 20 56  1  0
 23 57  1  0
 24 58  1  0
 26 59  1  0
 26 60  1  0
 26 61  1  0
 27 62  1  0
 28 63  1  0
 33 64  1  0
 34 65  1  0
M  END
$$$$
