
     RDKit          3D

 49 52  0  0  0  0  0  0  0  0999 V2000
   -0.3177    1.7374   -4.2462 N   0  0  0  0  0  0  0  0  0  0  0  0
   -0.1195    1.0986   -3.2950 C   0  0  0  0  0  0  0  0  0  0  0  0
    0.1709    0.3858   -2.0425 C   0  0  0  0  0  0  0  0  0  0  0  0
    0.4596   -1.0899   -2.2908 C   0  0  0  0  0  0  0  0  0  0  0  0
    0.2979   -1.6508   -3.3726 O   0  0  0  0  0  0  0  0  0  0  0  0
    1.0028   -1.7525   -1.2027 N   0  0  0  0  0  0  0  0  0  0  0  0
    1.2519   -3.1768   -1.2345 C   0  0  0  0  0  0  0  0  0  0  0  0
    2.3646   -3.5264   -0.2840 C   0  0  0  0  0  0  0  0  0  0  0  0
    2.0928   -3.8750    1.0436 C   0  0  0  0  0  0  0  0  0  0  0  0
    3.1379   -4.1462    1.9273 C   0  0  0  0  0  0  0  0  0  0  0  0
    4.4588   -4.0614    1.4967 C   0  0  0  0  0  0  0  0  0  0  0  0
    4.7400   -3.7086    0.1804 C   0  0  0  0  0  0  0  0  0  0  0  0
    3.6990   -3.4436   -0.7072 C   0  0  0  0  0  0  0  0  0  0  0  0
   -0.9495    0.5772   -1.0452 C   0  0  0  0  0  0  0  0  0  0  0  0
   -1.9958   -0.2950   -1.0913 N   0  0  0  0  0  0  0  0  0  0  0  0
   -2.9921   -0.1135   -0.2078 C   0  0  0  0  0  0  0  0  0  0  0  0
   -4.0816   -0.9754   -0.2136 C   0  0  0  0  0  0  0  0  0  0  0  0
   -5.1338   -0.8218    0.6873 C   0  0  0  0  0  0  0  0  0  0  0  0
   -5.0966    0.2151    1.6111 C   0  0  0  0  0  0  0  0  0  0  0  0
   -4.0073    1.0890    1.6220 C   0  0  0  0  0  0  0  0  0  0  0  0
   -2.9497    0.9398    0.7283 C   0  0  0  0  0  0  0  0  0  0  0  0
   -1.9143    1.8026    0.7705 N   0  0  0  0  0  0  0  0  0  0  0  0
   -0.9052    1.6267   -0.1176 C   0  0  0  0  0  0  0  0  0  0  0  0
    0.1791    2.5288   -0.1189 N   0  0  0  0  0  0  0  0  0  0  0  0
   -0.2142    3.7831   -0.8056 C   0  0  0  0  0  0  0  0  0  0  0  0
    0.4368    4.8913    0.0138 C   0  0  0  0  0  0  0  0  0  0  0  0
    0.3235    4.3548    1.4271 C   0  0  0  0  0  0  0  0  0  0  0  0
    0.6347    2.8782    1.2443 C   0  0  0  0  0  0  0  0  0  0  0  0
    1.1099    0.7896   -1.6380 H   0  0  0  0  0  0  0  0  0  0  0  0
    0.9918   -1.3134   -0.2840 H   0  0  0  0  0  0  0  0  0  0  0  0
    1.4951   -3.5027   -2.2499 H   0  0  0  0  0  0  0  0  0  0  0  0
    0.3248   -3.6806   -0.9469 H   0  0  0  0  0  0  0  0  0  0  0  0
    1.0690   -3.9341    1.4034 H   0  0  0  0  0  0  0  0  0  0  0  0
    2.9198   -4.4177    2.9555 H   0  0  0  0  0  0  0  0  0  0  0  0
    5.2727   -4.2705    2.1849 H   0  0  0  0  0  0  0  0  0  0  0  0
    5.7699   -3.6344   -0.1501 H   0  0  0  0  0  0  0  0  0  0  0  0
    3.9289   -3.1623   -1.7305 H   0  0  0  0  0  0  0  0  0  0  0  0
   -4.1049   -1.7904   -0.9362 H   0  0  0  0  0  0  0  0  0  0  0  0
   -5.9774   -1.5064    0.6660 H   0  0  0  0  0  0  0  0  0  0  0  0
   -5.9087    0.3496    2.3187 H   0  0  0  0  0  0  0  0  0  0  0  0
   -3.9748    1.8980    2.3468 H   0  0  0  0  0  0  0  0  0  0  0  0
   -1.3061    3.9339   -0.8208 H   0  0  0  0  0  0  0  0  0  0  0  0
    0.1539    3.7937   -1.8405 H   0  0  0  0  0  0  0  0  0  0  0  0
    1.4893    5.0070   -0.2719 H   0  0  0  0  0  0  0  0  0  0  0  0
   -0.0721    5.8517   -0.1080 H   0  0  0  0  0  0  0  0  0  0  0  0
    1.0148    4.8451    2.1214 H   0  0  0  0  0  0  0  0  0  0  0  0
   -0.6992    4.4829    1.8058 H   0  0  0  0  0  0  0  0  0  0  0  0
    1.7196    2.7284    1.2748 H   0  0  0  0  0  0  0  0  0  0  0  0
    0.2108    2.2612    2.0480 H   0  0  0  0  0  0  0  0  0  0  0  0
  1  2  3  0
  2  3  1  0
  3  4  1  0
  4  5  2  0
  4  6  1  0
  6  7  1  0
  7  8  1  0
  8  9  2  0
  9 10  1  0
 10 11  2  0
 11 12  1  0
 12 13  2  0
  3 14  1  0
 14 15  2  0
 15 16  1  0
 16 17  2  0
 17 18  1  0
 18 19  2  0
 19 20  1  0
 20 21  2  0
 21 22  1  0
 22 23  2  0
 23 24  1  0
 24 25  1  0
 25 26  1  0
 26 27  1  0
 27 28  1  0
 13  8  1  0
 23 14  1  0
 28 24  1  0
 21 16  1  0
  3 29  1  0
  6 30  1  0
  7 31  1  0
  7 32  1  0
  9 33  1  0
 10 34  1  0
 11 35  1  0
 12 36  1  0
 13 37  1  0
 17 38  1  0
 18 39  1  0
 19 40  1  0
 20 41  1  0
 25 42  1  0
 25 43  1  0
 26 44  1  0
 26 45  1  0
 27 46  1  0
 27 47  1  0
 28 48  1  0
 28 49  1  0
M  END
$$$$
