
     RDKit          3D

 45 48  0  0  0  0  0  0  0  0999 V2000
   -4.0790   -2.5606   -1.4292 C   0  0  0  0  0  0  0  0  0  0  0  0
   -3.3641   -1.2748   -1.7976 C   0  0  0  0  0  0  0  0  0  0  0  0
   -2.7705   -0.6916   -0.6283 O   0  0  0  0  0  0  0  0  0  0  0  0
   -1.5152   -1.1079   -0.3187 C   0  0  0  0  0  0  0  0  0  0  0  0
   -0.8629   -1.9295   -0.9483 O   0  0  0  0  0  0  0  0  0  0  0  0
   -1.0508   -0.4021    0.8931 C   0  0  0  0  0  0  0  0  0  0  0  0
   -2.0838   -0.3167    1.9504 C   0  0  0  0  0  0  0  0  0  0  0  0
   -2.5121   -1.2805    2.5644 O   0  0  0  0  0  0  0  0  0  0  0  0
   -2.4652    0.9771    2.1074 O   0  0  0  0  0  0  0  0  0  0  0  0
   -3.4807    1.1733    3.0985 C   0  0  0  0  0  0  0  0  0  0  0  0
   -3.9272    2.6204    3.0392 C   0  0  0  0  0  0  0  0  0  0  0  0
    0.2181    0.0345    1.1336 C   0  0  0  0  0  0  0  0  0  0  0  0
    0.5846    0.4286    2.5531 C   0  0  0  0  0  0  0  0  0  0  0  0
    1.8587    0.5871    2.9867 C   0  0  0  0  0  0  0  0  0  0  0  0
    2.2378    1.0244    4.7628 Br  0  0  0  0  0  0  0  0  0  0  0  0
    2.9408    0.4406    2.0649 C   0  0  0  0  0  0  0  0  0  0  0  0
    4.2651    0.5262    2.2262 N   0  0  0  0  0  0  0  0  0  0  0  0
    4.7975    0.3986    0.9388 O   0  0  0  0  0  0  0  0  0  0  0  0
    3.7823    0.2509    0.0359 C   0  0  0  0  0  0  0  0  0  0  0  0
    3.8584    0.1666   -1.3582 C   0  0  0  0  0  0  0  0  0  0  0  0
    5.0918    0.1937   -2.0358 C   0  0  0  0  0  0  0  0  0  0  0  0
    5.1055    0.1472   -3.4269 C   0  0  0  0  0  0  0  0  0  0  0  0
    3.9046    0.0842   -4.1323 C   0  0  0  0  0  0  0  0  0  0  0  0
    2.6803    0.0604   -3.4511 C   0  0  0  0  0  0  0  0  0  0  0  0
    2.6199    0.0919   -2.0423 C   0  0  0  0  0  0  0  0  0  0  0  0
    1.3986    0.0619   -1.3000 C   0  0  0  0  0  0  0  0  0  0  0  0
    0.2389    0.0611   -2.0338 O   0  0  0  0  0  0  0  0  0  0  0  0
    1.3394    0.0639    0.1091 C   0  0  0  0  0  0  0  0  0  0  0  0
    2.5937    0.2166    0.7209 C   0  0  0  0  0  0  0  0  0  0  0  0
   -4.5791   -2.9882   -2.3015 H   0  0  0  0  0  0  0  0  0  0  0  0
   -4.8241   -2.3774   -0.6478 H   0  0  0  0  0  0  0  0  0  0  0  0
   -3.3772   -3.2999   -1.0315 H   0  0  0  0  0  0  0  0  0  0  0  0
   -4.0838   -0.5475   -2.1858 H   0  0  0  0  0  0  0  0  0  0  0  0
   -2.6180   -1.4419   -2.5834 H   0  0  0  0  0  0  0  0  0  0  0  0
   -3.0640    0.9548    4.0865 H   0  0  0  0  0  0  0  0  0  0  0  0
   -4.3341    0.5163    2.9012 H   0  0  0  0  0  0  0  0  0  0  0  0
   -3.0819    3.2941    3.2084 H   0  0  0  0  0  0  0  0  0  0  0  0
   -4.6960    2.8220    3.7899 H   0  0  0  0  0  0  0  0  0  0  0  0
   -4.3279    2.8581    2.0488 H   0  0  0  0  0  0  0  0  0  0  0  0
   -0.2078    0.5454    3.2872 H   0  0  0  0  0  0  0  0  0  0  0  0
    6.0293    0.2574   -1.4882 H   0  0  0  0  0  0  0  0  0  0  0  0
    6.0510    0.1688   -3.9632 H   0  0  0  0  0  0  0  0  0  0  0  0
    3.9165    0.0577   -5.2197 H   0  0  0  0  0  0  0  0  0  0  0  0
    1.7639    0.0274   -4.0357 H   0  0  0  0  0  0  0  0  0  0  0  0
    0.0286   -0.8927   -2.1478 H   0  0  0  0  0  0  0  0  0  0  0  0
  1  2  1  0
  2  3  1  0
  3  4  1  0
  4  5  2  0
  4  6  1  0
  6  7  1  0
  7  8  2  0
  7  9  1  0
  9 10  1  0
 10 11  1  0
  6 12  2  3
 12 13  1  0
 13 14  2  0
 14 15  1  0
 14 16  1  0
 16 17  2  0
 17 18  1  0
 18 19  1  0
 19 20  1  0
 20 21  2  0
 21 22  1  0
 22 23  2  0
 23 24  1  0
 24 25  2  0
 25 26  1  0
 26 27  1  0
 26 28  2  0
 28 29  1  0
 28 12  1  0
 29 16  1  0
 29 19  2  0
 25 20  1  0
  1 30  1  0
  1 31  1  0
  1 32  1  0
  2 33  1  0
  2 34  1  0
 10 35  1  0
 10 36  1  0
 11 37  1  0
 11 38  1  0
 11 39  1  0
 13 40  1  0
 21 41  1  0
 22 42  1  0
 23 43  1  0
 24 44  1  0
 27 45  1  0
M  END
$$$$
