
     RDKit          3D

 46 48  0  0  0  0  0  0  0  0999 V2000
   -3.7660    1.8794   -0.2228 C   0  0  0  0  0  0  0  0  0  0  0  0
   -3.1299    0.5602    0.1346 C   0  0  0  0  0  0  0  0  0  0  0  0
   -3.8504   -0.5734    0.2816 C   0  0  0  0  0  0  0  0  0  0  0  0
   -5.3090   -0.6883    0.1783 C   0  0  0  0  0  0  0  0  0  0  0  0
   -5.8788   -1.3234   -0.9300 C   0  0  0  0  0  0  0  0  0  0  0  0
   -7.2658   -1.4478   -1.0313 C   0  0  0  0  0  0  0  0  0  0  0  0
   -8.0878   -0.9422   -0.0247 C   0  0  0  0  0  0  0  0  0  0  0  0
   -7.5250   -0.3119    1.0845 C   0  0  0  0  0  0  0  0  0  0  0  0
   -6.1385   -0.1869    1.1879 C   0  0  0  0  0  0  0  0  0  0  0  0
   -1.6735    0.4665    0.2931 C   0  0  0  0  0  0  0  0  0  0  0  0
   -0.7068    1.3966    0.3567 C   0  0  0  0  0  0  0  0  0  0  0  0
   -0.8153    3.1156    0.3019 S   0  0  0  0  0  0  0  0  0  0  0  0
    0.9142    3.3461    0.4811 C   0  0  0  0  0  0  0  0  0  0  0  0
    1.6607    4.8334    0.5461 S   0  0  0  0  0  0  0  0  0  0  0  0
    1.5160    2.1140    0.5913 N   0  0  0  0  0  0  0  0  0  0  0  0
    3.0256    1.9623    0.6564 N   0  0  0  0  0  0  0  0  0  0  0  0
    3.7422    1.6612   -0.8648 S   0  0  0  0  0  6  0  0  0  0  0  0
    2.6989    1.3461   -1.8175 O   0  0  0  0  0  0  0  0  0  0  0  0
    4.6565    2.7606   -1.0877 O   0  0  0  0  0  0  0  0  0  0  0  0
    4.6910    0.2026   -0.5371 C   0  0  0  0  0  0  0  0  0  0  0  0
    4.0806   -1.0501   -0.6200 C   0  0  0  0  0  0  0  0  0  0  0  0
    4.8358   -2.2008   -0.3865 C   0  0  0  0  0  0  0  0  0  0  0  0
    6.1989   -2.1061   -0.0753 C   0  0  0  0  0  0  0  0  0  0  0  0
    7.0122   -3.3491    0.1365 C   0  0  0  0  0  0  0  0  0  0  0  0
    6.8050   -0.8439   -0.0249 C   0  0  0  0  0  0  0  0  0  0  0  0
    6.0550    0.3112   -0.2540 C   0  0  0  0  0  0  0  0  0  0  0  0
    0.7214    0.9807    0.5290 C   0  0  0  0  0  0  0  0  0  0  0  0
    1.0963   -0.1812    0.6119 O   0  0  0  0  0  0  0  0  0  0  0  0
   -4.8254    1.7917   -0.4809 H   0  0  0  0  0  0  0  0  0  0  0  0
   -3.7040    2.5787    0.6167 H   0  0  0  0  0  0  0  0  0  0  0  0
   -3.2850    2.3156   -1.1046 H   0  0  0  0  0  0  0  0  0  0  0  0
   -3.3666   -1.5226    0.5053 H   0  0  0  0  0  0  0  0  0  0  0  0
   -5.2474   -1.7219   -1.7207 H   0  0  0  0  0  0  0  0  0  0  0  0
   -7.7044   -1.9419   -1.8949 H   0  0  0  0  0  0  0  0  0  0  0  0
   -9.1673   -1.0401   -0.1046 H   0  0  0  0  0  0  0  0  0  0  0  0
   -8.1656    0.0808    1.8701 H   0  0  0  0  0  0  0  0  0  0  0  0
   -5.7095    0.3041    2.0588 H   0  0  0  0  0  0  0  0  0  0  0  0
   -1.3263   -0.5681    0.3828 H   0  0  0  0  0  0  0  0  0  0  0  0
    3.4875    2.7849    1.0607 H   0  0  0  0  0  0  0  0  0  0  0  0
    3.0239   -1.1414   -0.8629 H   0  0  0  0  0  0  0  0  0  0  0  0
    4.3530   -3.1738   -0.4511 H   0  0  0  0  0  0  0  0  0  0  0  0
    7.8770   -3.1497    0.7798 H   0  0  0  0  0  0  0  0  0  0  0  0
    7.3692   -3.7306   -0.8261 H   0  0  0  0  0  0  0  0  0  0  0  0
    6.4146   -4.1252    0.6277 H   0  0  0  0  0  0  0  0  0  0  0  0
    7.8683   -0.7540    0.1885 H   0  0  0  0  0  0  0  0  0  0  0  0
    6.5444    1.2818   -0.2176 H   0  0  0  0  0  0  0  0  0  0  0  0
  1  2  1  0
  2  3  2  3
  3  4  1  0
  4  5  2  0
  5  6  1  0
  6  7  2  0
  7  8  1  0
  8  9  2  0
  2 10  1  0
 10 11  2  3
 11 12  1  0
 12 13  1  0
 13 14  2  0
 13 15  1  0
 15 16  1  0
 16 17  1  0
 17 18  2  0
 17 19  2  0
 17 20  1  0
 20 21  2  0
 21 22  1  0
 22 23  2  0
 23 24  1  0
 23 25  1  0
 25 26  2  0
 15 27  1  0
 27 28  2  0
  9  4  1  0
 27 11  1  0
 26 20  1  0
  1 29  1  0
  1 30  1  0
  1 31  1  0
  3 32  1  0
  5 33  1  0
  6 34  1  0
  7 35  1  0
  8 36  1  0
  9 37  1  0
 10 38  1  0
 16 39  1  0
 21 40  1  0
 22 41  1  0
 24 42  1  0
 24 43  1  0
 24 44  1  0
 25 45  1  0
 26 46  1  0
M  END
$$$$
