
     RDKit          3D

 77 83  0  0  0  0  0  0  0  0999 V2000
   -6.9442   -3.7525   -1.1878 C   0  0  0  0  0  0  0  0  0  0  0  0
   -6.7935   -2.3254   -0.6386 C   0  0  0  0  0  0  0  0  0  0  0  0
   -7.4848   -1.3564   -1.6043 C   0  0  0  0  0  0  0  0  0  0  0  0
   -7.4072   -2.2741    0.7648 C   0  0  0  0  0  0  0  0  0  0  0  0
   -5.3614   -2.1001   -0.5949 O   0  0  0  0  0  0  0  0  0  0  0  0
   -4.8494   -0.9190   -0.1646 C   0  0  0  0  0  0  0  0  0  0  0  0
   -5.5208    0.0337    0.2101 O   0  0  0  0  0  0  0  0  0  0  0  0
   -3.4653   -0.9090   -0.1946 N   0  0  0  0  0  0  0  0  0  0  0  0
   -2.6976   -1.9685   -0.8780 C   0  0  0  0  0  0  0  0  0  0  0  0
   -1.2061   -2.0413   -0.4574 C   0  0  0  0  0  0  0  0  0  0  0  0
   -0.6409   -0.7032   -0.4703 N   0  0  0  0  0  0  0  0  0  0  0  0
   -1.3648    0.1790    0.4982 C   0  0  2  0  0  0  0  0  0  0  0  0
   -2.7865    0.3857   -0.0089 C   0  0  0  0  0  0  0  0  0  0  0  0
   -0.4388    1.3306    0.5460 C   0  0  0  0  0  0  0  0  0  0  0  0
    0.8397    0.9321    0.1250 C   0  0  0  0  0  0  0  0  0  0  0  0
    1.6904    2.0025    0.2360 C   0  0  0  0  0  0  0  0  0  0  0  0
    2.9798    2.0980   -0.0818 O   0  0  0  0  0  0  0  0  0  0  0  0
    0.9323    3.0993    0.7125 N   0  0  0  0  0  0  0  0  0  0  0  0
    1.4176    4.4345    0.9452 C   0  0  0  0  0  0  0  0  0  0  0  0
    0.5413    5.5299    0.9224 C   0  0  0  0  0  0  0  0  0  0  0  0
    1.0123    6.8290    1.1419 C   0  0  0  0  0  0  0  0  0  0  0  0
    2.3633    7.0524    1.3881 C   0  0  0  0  0  0  0  0  0  0  0  0
    3.2446    5.9762    1.4149 C   0  0  0  0  0  0  0  0  0  0  0  0
    2.7767    4.6761    1.1944 C   0  0  0  0  0  0  0  0  0  0  0  0
   -0.3913    2.6436    0.9262 C   0  0  0  0  0  0  0  0  0  0  0  0
   -1.3385    3.4042    1.4697 O   0  0  0  0  0  0  0  0  0  0  0  0
    0.8121   -0.5001   -0.2883 C   0  0  1  0  0  0  0  0  0  0  0  0
    1.4922   -1.4279    0.7480 C   0  0  0  0  0  0  0  0  0  0  0  0
    1.1396   -1.6419    1.9002 O   0  0  0  0  0  0  0  0  0  0  0  0
    2.6134   -1.9796    0.1050 N   0  0  0  0  0  0  0  0  0  0  0  0
    3.5967   -2.7917    0.7848 C   0  0  0  0  0  0  0  0  0  0  0  0
    4.8058   -1.9891    1.2112 C   0  0  0  0  0  0  0  0  0  0  0  0
    4.6770   -0.9486    2.1451 C   0  0  0  0  0  0  0  0  0  0  0  0
    5.7875   -0.1945    2.5265 C   0  0  0  0  0  0  0  0  0  0  0  0
    7.0401   -0.4755    1.9858 C   0  0  0  0  0  0  0  0  0  0  0  0
    7.1845   -1.5127    1.0665 C   0  0  0  0  0  0  0  0  0  0  0  0
    6.0744   -2.2676    0.6819 C   0  0  0  0  0  0  0  0  0  0  0  0
    2.7075   -1.5406   -1.2255 C   0  0  0  0  0  0  0  0  0  0  0  0
    3.6593   -1.8594   -2.1766 C   0  0  0  0  0  0  0  0  0  0  0  0
    3.5330   -1.2927   -3.4484 C   0  0  0  0  0  0  0  0  0  0  0  0
    2.4682   -0.4278   -3.7487 C   0  0  0  0  0  0  0  0  0  0  0  0
    1.5141   -0.1125   -2.7803 C   0  0  0  0  0  0  0  0  0  0  0  0
    1.6496   -0.6716   -1.5171 C   0  0  0  0  0  0  0  0  0  0  0  0
   -6.4256   -4.4743   -0.5455 H   0  0  0  0  0  0  0  0  0  0  0  0
   -6.4867   -3.8385   -2.1806 H   0  0  0  0  0  0  0  0  0  0  0  0
   -7.9954   -4.0503   -1.2639 H   0  0  0  0  0  0  0  0  0  0  0  0
   -6.9723   -1.3407   -2.5727 H   0  0  0  0  0  0  0  0  0  0  0  0
   -7.4783   -0.3288   -1.2288 H   0  0  0  0  0  0  0  0  0  0  0  0
   -8.5309   -1.6361   -1.7683 H   0  0  0  0  0  0  0  0  0  0  0  0
   -8.4522   -2.6022    0.7550 H   0  0  0  0  0  0  0  0  0  0  0  0
   -7.3859   -1.2640    1.1844 H   0  0  0  0  0  0  0  0  0  0  0  0
   -6.8477   -2.9134    1.4572 H   0  0  0  0  0  0  0  0  0  0  0  0
   -3.1655   -2.9425   -0.7004 H   0  0  0  0  0  0  0  0  0  0  0  0
   -2.7691   -1.7603   -1.9531 H   0  0  0  0  0  0  0  0  0  0  0  0
   -0.6776   -2.6968   -1.1584 H   0  0  0  0  0  0  0  0  0  0  0  0
   -1.1343   -2.4929    0.5393 H   0  0  0  0  0  0  0  0  0  0  0  0
   -1.3900   -0.2911    1.4919 H   0  0  0  0  0  0  0  0  0  0  0  0
   -2.7994    0.9039   -0.9766 H   0  0  0  0  0  0  0  0  0  0  0  0
   -3.3524    1.0065    0.6948 H   0  0  0  0  0  0  0  0  0  0  0  0
    3.2782    1.2420   -0.4386 H   0  0  0  0  0  0  0  0  0  0  0  0
   -0.5146    5.4112    0.6991 H   0  0  0  0  0  0  0  0  0  0  0  0
    0.3190    7.6656    1.1133 H   0  0  0  0  0  0  0  0  0  0  0  0
    2.7277    8.0614    1.5586 H   0  0  0  0  0  0  0  0  0  0  0  0
    4.3003    6.1426    1.6130 H   0  0  0  0  0  0  0  0  0  0  0  0
    3.4983    3.8679    1.2600 H   0  0  0  0  0  0  0  0  0  0  0  0
   -2.1239    2.8543    1.6300 H   0  0  0  0  0  0  0  0  0  0  0  0
    3.1440   -3.2372    1.6791 H   0  0  0  0  0  0  0  0  0  0  0  0
    3.8800   -3.6250    0.1313 H   0  0  0  0  0  0  0  0  0  0  0  0
    3.7075   -0.7179    2.5845 H   0  0  0  0  0  0  0  0  0  0  0  0
    5.6731    0.6120    3.2467 H   0  0  0  0  0  0  0  0  0  0  0  0
    7.9043    0.1128    2.2840 H   0  0  0  0  0  0  0  0  0  0  0  0
    8.1637   -1.7329    0.6490 H   0  0  0  0  0  0  0  0  0  0  0  0
    6.2104   -3.0735   -0.0355 H   0  0  0  0  0  0  0  0  0  0  0  0
    4.4842   -2.5290   -1.9657 H   0  0  0  0  0  0  0  0  0  0  0  0
    4.2671   -1.5237   -4.2176 H   0  0  0  0  0  0  0  0  0  0  0  0
    2.3892    0.0045   -4.7443 H   0  0  0  0  0  0  0  0  0  0  0  0
    0.6932    0.5627   -3.0057 H   0  0  0  0  0  0  0  0  0  0  0  0
  1  2  1  0
  2  3  1  0
  2  4  1  0
  2  5  1  0
  5  6  1  0
  6  7  2  0
  6  8  1  0
  8  9  1  0
  9 10  1  0
 10 11  1  0
 11 12  1  0
 12 13  1  0
 12 14  1  0
 14 15  1  0
 15 16  2  0
 16 17  1  0
 16 18  1  0
 18 19  1  0
 19 20  2  0
 20 21  1  0
 21 22  2  0
 22 23  1  0
 23 24  2  0
 18 25  1  0
 25 26  1  0
 15 27  1  0
 27 28  1  0
 28 29  2  0
 28 30  1  0
 30 31  1  0
 31 32  1  0
 32 33  2  0
 33 34  1  0
 34 35  2  0
 35 36  1  0
 36 37  2  0
 30 38  1  0
 38 39  2  0
 39 40  1  0
 40 41  2  0
 41 42  1  0
 42 43  2  0
 13  8  1  0
 25 14  2  0
 43 27  1  0
 27 11  1  6
 37 32  1  0
 43 38  1  0
 24 19  1  0
  1 44  1  0
  1 45  1  0
  1 46  1  0
  3 47  1  0
  3 48  1  0
  3 49  1  0
  4 50  1  0
  4 51  1  0
  4 52  1  0
  9 53  1  0
  9 54  1  0
 10 55  1  0
 10 56  1  0
 12 57  1  1
 13 58  1  0
 13 59  1  0
 17 60  1  0
 20 61  1  0
 21 62  1  0
 22 63  1  0
 23 64  1  0
 24 65  1  0
 26 66  1  0
 31 67  1  0
 31 68  1  0
 33 69  1  0
 34 70  1  0
 35 71  1  0
 36 72  1  0
 37 73  1  0
 39 74  1  0
 40 75  1  0
 41 76  1  0
 42 77  1  0
M  END
$$$$
