
     RDKit          3D

 40 42  0  0  0  0  0  0  0  0999 V2000
    6.1997    0.3665   -0.7639 C   0  0  0  0  0  0  0  0  0  0  0  0
    5.5426    0.2588    0.6036 C   0  0  0  0  0  0  0  0  0  0  0  0
    4.0385    0.2258    0.5020 C   0  0  0  0  0  0  0  0  0  0  0  0
    3.3003    1.4150    0.5189 C   0  0  0  0  0  0  0  0  0  0  0  0
    1.9081    1.3861    0.4062 C   0  0  0  0  0  0  0  0  0  0  0  0
    1.2352    0.1662    0.2720 C   0  0  0  0  0  0  0  0  0  0  0  0
   -0.2427    0.1684    0.1585 C   0  0  0  0  0  0  0  0  0  0  0  0
   -0.9464    1.2577    0.1250 N   0  0  0  0  0  0  0  0  0  0  0  0
   -2.3740    0.8317   -0.0174 N   0  0  0  0  0  0  0  0  0  0  0  0
   -3.5737    1.8194    0.6950 S   0  0  0  0  0  6  0  0  0  0  0  0
   -2.9597    1.9709    2.3600 C   0  0  0  0  0  0  0  0  0  0  0  0
   -3.5181    3.1349    0.0905 O   0  0  0  0  0  0  0  0  0  0  0  0
   -4.8176    1.0792    0.7577 O   0  0  0  0  0  0  0  0  0  0  0  0
   -2.4807   -0.6324    0.1897 C   0  0  0  0  0  0  0  0  0  0  0  0
   -3.3477   -1.2675   -0.8608 C   0  0  0  0  0  0  0  0  0  0  0  0
   -3.6445   -0.8311   -2.1396 C   0  0  0  0  0  0  0  0  0  0  0  0
   -4.5059   -1.7265   -2.8359 C   0  0  0  0  0  0  0  0  0  0  0  0
   -4.8372   -2.8217   -2.0714 C   0  0  0  0  0  0  0  0  0  0  0  0
   -4.1113   -2.7691   -0.5254 S   0  0  0  0  0  0  0  0  0  0  0  0
   -1.0297   -1.1126    0.0688 C   0  0  0  0  0  0  0  0  0  0  0  0
    1.9687   -1.0242    0.2435 C   0  0  0  0  0  0  0  0  0  0  0  0
    3.3622   -0.9920    0.3567 C   0  0  0  0  0  0  0  0  0  0  0  0
    5.9367   -0.4859   -1.3994 H   0  0  0  0  0  0  0  0  0  0  0  0
    7.2891    0.3884   -0.6595 H   0  0  0  0  0  0  0  0  0  0  0  0
    5.8901    1.2802   -1.2826 H   0  0  0  0  0  0  0  0  0  0  0  0
    5.8514    1.1038    1.2311 H   0  0  0  0  0  0  0  0  0  0  0  0
    5.8974   -0.6441    1.1154 H   0  0  0  0  0  0  0  0  0  0  0  0
    3.8047    2.3745    0.6159 H   0  0  0  0  0  0  0  0  0  0  0  0
    1.3584    2.3254    0.4185 H   0  0  0  0  0  0  0  0  0  0  0  0
   -3.6788    2.5673    2.9264 H   0  0  0  0  0  0  0  0  0  0  0  0
   -1.9951    2.4806    2.3461 H   0  0  0  0  0  0  0  0  0  0  0  0
   -2.8760    0.9790    2.8066 H   0  0  0  0  0  0  0  0  0  0  0  0
   -2.8497   -0.8437    1.2004 H   0  0  0  0  0  0  0  0  0  0  0  0
   -3.2688    0.0984   -2.5539 H   0  0  0  0  0  0  0  0  0  0  0  0
   -4.8695   -1.5694   -3.8440 H   0  0  0  0  0  0  0  0  0  0  0  0
   -5.4760   -3.6502   -2.3451 H   0  0  0  0  0  0  0  0  0  0  0  0
   -0.7748   -1.7905    0.8892 H   0  0  0  0  0  0  0  0  0  0  0  0
   -0.8117   -1.6014   -0.8872 H   0  0  0  0  0  0  0  0  0  0  0  0
    1.4859   -1.9897    0.1264 H   0  0  0  0  0  0  0  0  0  0  0  0
    3.9203   -1.9260    0.3265 H   0  0  0  0  0  0  0  0  0  0  0  0
  1  2  1  0
  2  3  1  0
  3  4  2  0
  4  5  1  0
  5  6  2  0
  6  7  1  0
  7  8  2  0
  8  9  1  0
  9 10  1  0
 10 11  1  0
 10 12  2  0
 10 13  2  0
  9 14  1  0
 14 15  1  0
 15 16  2  0
 16 17  1  0
 17 18  2  0
 18 19  1  0
 14 20  1  0
  6 21  1  0
 21 22  2  0
 22  3  1  0
 20  7  1  0
 19 15  1  0
  1 23  1  0
  1 24  1  0
  1 25  1  0
  2 26  1  0
  2 27  1  0
  4 28  1  0
  5 29  1  0
 11 30  1  0
 11 31  1  0
 11 32  1  0
 14 33  1  0
 16 34  1  0
 17 35  1  0
 18 36  1  0
 20 37  1  0
 20 38  1  0
 21 39  1  0
 22 40  1  0
M  END
$$$$
