
     RDKit          3D

 42 44  0  0  0  0  0  0  0  0999 V2000
   -6.3418    1.6664    0.1413 C   0  0  0  0  0  0  0  0  0  0  0  0
   -5.7789    0.4802    0.7849 N   0  0  0  0  0  0  0  0  0  0  0  0
   -6.7091   -0.6314    0.9773 C   0  0  0  0  0  0  0  0  0  0  0  0
   -4.4169    0.2006    0.6157 C   0  0  0  0  0  0  0  0  0  0  0  0
   -3.5089    1.1615    0.1371 C   0  0  0  0  0  0  0  0  0  0  0  0
   -2.1402    0.8915   -0.0188 C   0  0  0  0  0  0  0  0  0  0  0  0
   -1.6233   -0.3613    0.3024 C   0  0  0  0  0  0  0  0  0  0  0  0
   -0.1846   -0.6044    0.1550 C   0  0  0  0  0  0  0  0  0  0  0  0
    0.3035   -1.7001   -0.4454 C   0  0  0  0  0  0  0  0  0  0  0  0
    1.7480   -2.0088   -0.5908 C   0  0  0  0  0  0  0  0  0  0  0  0
    2.1030   -3.1903   -0.5670 O   0  0  0  0  0  0  0  0  0  0  0  0
    2.7601   -0.9243   -0.6837 C   0  0  0  0  0  0  0  0  0  0  0  0
    3.9444   -1.1349   -0.0772 C   0  0  0  0  0  0  0  0  0  0  0  0
    4.2901   -2.2968    0.5921 O   0  0  0  0  0  0  0  0  0  0  0  0
    4.9704   -0.0924   -0.0754 C   0  0  0  0  0  0  0  0  0  0  0  0
    6.2101   -0.2343    0.5591 C   0  0  0  0  0  0  0  0  0  0  0  0
    7.1442    0.8072    0.5364 C   0  0  0  0  0  0  0  0  0  0  0  0
    6.8482    2.0019   -0.1204 C   0  0  0  0  0  0  0  0  0  0  0  0
    5.6191    2.1563   -0.7563 C   0  0  0  0  0  0  0  0  0  0  0  0
    4.7005    1.1077   -0.7243 C   0  0  0  0  0  0  0  0  0  0  0  0
    3.4811    1.3073   -1.3914 O   0  0  0  0  0  0  0  0  0  0  0  0
    2.5160    0.3108   -1.4567 C   0  0  0  0  0  0  0  0  0  0  0  0
    1.5109    0.4666   -2.1417 O   0  0  0  0  0  0  0  0  0  0  0  0
   -2.4934   -1.3261    0.8062 C   0  0  0  0  0  0  0  0  0  0  0  0
   -3.8603   -1.0441    0.9594 C   0  0  0  0  0  0  0  0  0  0  0  0
   -6.2194    1.6203   -0.9465 H   0  0  0  0  0  0  0  0  0  0  0  0
   -5.8818    2.5828    0.5263 H   0  0  0  0  0  0  0  0  0  0  0  0
   -7.4136    1.7602    0.3496 H   0  0  0  0  0  0  0  0  0  0  0  0
   -6.6818   -1.3203    0.1257 H   0  0  0  0  0  0  0  0  0  0  0  0
   -7.7399   -0.2738    1.0797 H   0  0  0  0  0  0  0  0  0  0  0  0
   -6.4893   -1.1773    1.9010 H   0  0  0  0  0  0  0  0  0  0  0  0
   -3.8402    2.1600   -0.1308 H   0  0  0  0  0  0  0  0  0  0  0  0
   -1.4912    1.6748   -0.4048 H   0  0  0  0  0  0  0  0  0  0  0  0
    0.4566    0.1774    0.5509 H   0  0  0  0  0  0  0  0  0  0  0  0
   -0.3525   -2.4844   -0.8124 H   0  0  0  0  0  0  0  0  0  0  0  0
    3.6441   -3.0012    0.3592 H   0  0  0  0  0  0  0  0  0  0  0  0
    6.4603   -1.1568    1.0796 H   0  0  0  0  0  0  0  0  0  0  0  0
    8.1035    0.6830    1.0336 H   0  0  0  0  0  0  0  0  0  0  0  0
    7.5764    2.8091   -0.1367 H   0  0  0  0  0  0  0  0  0  0  0  0
    5.3811    3.0813   -1.2737 H   0  0  0  0  0  0  0  0  0  0  0  0
   -2.1269   -2.3061    1.1018 H   0  0  0  0  0  0  0  0  0  0  0  0
   -4.4775   -1.8380    1.3683 H   0  0  0  0  0  0  0  0  0  0  0  0
  1  2  1  0
  2  3  1  0
  2  4  1  0
  4  5  2  0
  5  6  1  0
  6  7  2  0
  7  8  1  0
  8  9  2  3
  9 10  1  0
 10 11  2  0
 10 12  1  0
 12 13  2  0
 13 14  1  0
 13 15  1  0
 15 16  2  0
 16 17  1  0
 17 18  2  0
 18 19  1  0
 19 20  2  0
 20 21  1  0
 21 22  1  0
 22 23  2  0
  7 24  1  0
 24 25  2  0
 25  4  1  0
 22 12  1  0
 20 15  1  0
  1 26  1  0
  1 27  1  0
  1 28  1  0
  3 29  1  0
  3 30  1  0
  3 31  1  0
  5 32  1  0
  6 33  1  0
  8 34  1  0
  9 35  1  0
 14 36  1  0
 16 37  1  0
 17 38  1  0
 18 39  1  0
 19 40  1  0
 24 41  1  0
 25 42  1  0
M  END
$$$$
