
     RDKit          3D

 34 35  0  0  0  0  0  0  0  0999 V2000
   -1.3446    1.5195    1.3221 O   0  0  0  0  0  0  0  0  0  0  0  0
   -0.8823    1.3587    0.1956 C   0  0  0  0  0  0  0  0  0  0  0  0
    0.2110    2.2721   -0.3603 C   0  0  0  0  0  0  0  0  0  0  0  0
    1.5258    1.8510    0.0070 O   0  0  0  0  0  0  0  0  0  0  0  0
    2.0001    0.8024   -0.7046 C   0  0  0  0  0  0  0  0  0  0  0  0
    1.3961    0.2300   -1.5978 O   0  0  0  0  0  0  0  0  0  0  0  0
    3.3537    0.4224   -0.2495 C   0  0  0  0  0  0  0  0  0  0  0  0
    4.0297    1.0643    0.7927 C   0  0  0  0  0  0  0  0  0  0  0  0
    5.3064    0.6294    1.1502 C   0  0  0  0  0  0  0  0  0  0  0  0
    5.8551   -0.4317    0.4487 C   0  0  0  0  0  0  0  0  0  0  0  0
    7.4183   -1.0232    0.8261 Cl  0  0  0  0  0  0  0  0  0  0  0  0
    5.2346   -1.0759   -0.5609 N   0  0  0  0  0  0  0  0  0  0  0  0
    3.9944   -0.6347   -0.8866 C   0  0  0  0  0  0  0  0  0  0  0  0
   -1.2540    0.3376   -0.6645 N   0  0  0  0  0  0  0  0  0  0  0  0
   -2.2662   -0.6125   -0.3633 C   0  0  0  0  0  0  0  0  0  0  0  0
   -1.9965   -1.9674   -0.6611 C   0  0  0  0  0  0  0  0  0  0  0  0
   -0.5005   -2.4512   -1.3881 Cl  0  0  0  0  0  0  0  0  0  0  0  0
   -2.9088   -2.9779   -0.3489 C   0  0  0  0  0  0  0  0  0  0  0  0
   -4.1164   -2.6556    0.2543 C   0  0  0  0  0  0  0  0  0  0  0  0
   -4.4209   -1.3203    0.5089 C   0  0  0  0  0  0  0  0  0  0  0  0
   -3.5233   -0.2763    0.1793 C   0  0  0  0  0  0  0  0  0  0  0  0
   -4.0434    1.1337    0.3601 C   0  0  0  0  0  0  0  0  0  0  0  0
   -3.4203    2.0863   -0.3899 F   0  0  0  0  0  0  0  0  0  0  0  0
   -5.3597    1.2242   -0.0144 F   0  0  0  0  0  0  0  0  0  0  0  0
   -4.0240    1.5611    1.6512 F   0  0  0  0  0  0  0  0  0  0  0  0
    0.0534    3.2729    0.0566 H   0  0  0  0  0  0  0  0  0  0  0  0
    0.1165    2.3738   -1.4486 H   0  0  0  0  0  0  0  0  0  0  0  0
    3.5790    1.8937    1.3319 H   0  0  0  0  0  0  0  0  0  0  0  0
    5.8525    1.1085    1.9554 H   0  0  0  0  0  0  0  0  0  0  0  0
    3.5205   -1.1779   -1.7020 H   0  0  0  0  0  0  0  0  0  0  0  0
   -0.4899   -0.0022   -1.2583 H   0  0  0  0  0  0  0  0  0  0  0  0
   -2.6765   -4.0178   -0.5655 H   0  0  0  0  0  0  0  0  0  0  0  0
   -4.8287   -3.4374    0.5077 H   0  0  0  0  0  0  0  0  0  0  0  0
   -5.3912   -1.0797    0.9467 H   0  0  0  0  0  0  0  0  0  0  0  0
  1  2  2  0
  2  3  1  0
  3  4  1  0
  4  5  1  0
  5  6  2  0
  5  7  1  0
  7  8  2  0
  8  9  1  0
  9 10  2  0
 10 11  1  0
 10 12  1  0
 12 13  2  0
  2 14  1  0
 14 15  1  0
 15 16  2  0
 16 17  1  0
 16 18  1  0
 18 19  2  0
 19 20  1  0
 20 21  2  0
 21 22  1  0
 22 23  1  0
 22 24  1  0
 22 25  1  0
 13  7  1  0
 21 15  1  0
  3 26  1  0
  3 27  1  0
  8 28  1  0
  9 29  1  0
 13 30  1  0
 14 31  1  0
 18 32  1  0
 19 33  1  0
 20 34  1  0
M  END
$$$$
