
     RDKit          3D

 55 57  0  0  0  0  0  0  0  0999 V2000
    1.1339    1.6725    4.1328 C   0  0  0  0  0  0  0  0  0  0  0  0
    1.3059    1.8489    2.6205 C   0  0  0  0  0  0  0  0  0  0  0  0
    2.7638    2.1945    2.3033 C   0  0  0  0  0  0  0  0  0  0  0  0
    0.8181    0.6429    1.7887 C   0  0  0  0  0  0  0  0  0  0  0  0
   -0.6618    0.5319    1.9163 N   0  0  0  0  0  0  0  0  0  0  0  0
   -1.4613   -0.3033    0.6877 S   0  0  0  0  0  6  0  0  0  0  0  0
   -2.6966   -0.7927    1.2518 O   0  0  0  0  0  0  0  0  0  0  0  0
   -0.4961   -1.1733    0.0528 O   0  0  0  0  0  0  0  0  0  0  0  0
   -1.8715    1.0097   -0.4284 C   0  0  0  0  0  0  0  0  0  0  0  0
   -1.4107    0.9787   -1.7482 C   0  0  0  0  0  0  0  0  0  0  0  0
   -1.7293    2.0287   -2.6109 C   0  0  0  0  0  0  0  0  0  0  0  0
   -2.5000    3.0971   -2.1518 C   0  0  0  0  0  0  0  0  0  0  0  0
   -2.9825    3.1048   -0.8371 C   0  0  0  0  0  0  0  0  0  0  0  0
   -2.6601    2.0677    0.0334 C   0  0  0  0  0  0  0  0  0  0  0  0
   -3.7716    4.1070   -0.3339 O   0  0  0  0  0  0  0  0  0  0  0  0
   -4.3273    4.9079   -1.3836 C   0  0  0  0  0  0  0  0  0  0  0  0
   -3.2577    5.2737   -2.3993 C   0  0  0  0  0  0  0  0  0  0  0  0
   -2.7536    4.1015   -3.0503 O   0  0  0  0  0  0  0  0  0  0  0  0
    1.4454   -0.6842    2.2260 C   0  0  0  0  0  0  0  0  0  0  0  0
    0.9697   -1.4139    3.0874 O   0  0  0  0  0  0  0  0  0  0  0  0
    2.5994   -0.9273    1.5431 O   0  0  0  0  0  0  0  0  0  0  0  0
    3.2533   -2.1465    1.9055 C   0  0  0  0  0  0  0  0  0  0  0  0
    2.6868   -3.3969    1.2229 C   0  0  0  0  0  0  0  0  0  0  0  0
    2.8081   -4.5047    1.7370 O   0  0  0  0  0  0  0  0  0  0  0  0
    2.1472   -3.1247   -0.0201 N   0  0  0  0  0  0  0  0  0  0  0  0
    1.5333   -4.0172   -0.9304 C   0  0  0  0  0  0  0  0  0  0  0  0
    1.2758   -5.3557   -0.6178 C   0  0  0  0  0  0  0  0  0  0  0  0
    0.6457   -6.1949   -1.5405 C   0  0  0  0  0  0  0  0  0  0  0  0
    0.2660   -5.7060   -2.7879 C   0  0  0  0  0  0  0  0  0  0  0  0
    0.5182   -4.3740   -3.1207 C   0  0  0  0  0  0  0  0  0  0  0  0
    0.0263   -3.8386   -4.6904 Cl  0  0  0  0  0  0  0  0  0  0  0  0
    1.1528   -3.5272   -2.1995 C   0  0  0  0  0  0  0  0  0  0  0  0
    1.5210   -1.8762   -2.6187 Cl  0  0  0  0  0  0  0  0  0  0  0  0
    0.0928    1.4631    4.3963 H   0  0  0  0  0  0  0  0  0  0  0  0
    1.4249    2.5885    4.6589 H   0  0  0  0  0  0  0  0  0  0  0  0
    1.7566    0.8598    4.5203 H   0  0  0  0  0  0  0  0  0  0  0  0
    0.7002    2.7178    2.3273 H   0  0  0  0  0  0  0  0  0  0  0  0
    3.4489    1.4097    2.6395 H   0  0  0  0  0  0  0  0  0  0  0  0
    2.9068    2.3369    1.2271 H   0  0  0  0  0  0  0  0  0  0  0  0
    3.0556    3.1251    2.8022 H   0  0  0  0  0  0  0  0  0  0  0  0
    1.0583    0.8249    0.7334 H   0  0  0  0  0  0  0  0  0  0  0  0
   -0.9947    0.1996    2.8267 H   0  0  0  0  0  0  0  0  0  0  0  0
   -0.8120    0.1482   -2.1141 H   0  0  0  0  0  0  0  0  0  0  0  0
   -1.3729    2.0182   -3.6380 H   0  0  0  0  0  0  0  0  0  0  0  0
   -3.0318    2.0799    1.0548 H   0  0  0  0  0  0  0  0  0  0  0  0
   -5.1509    4.3519   -1.8483 H   0  0  0  0  0  0  0  0  0  0  0  0
   -4.7407    5.8125   -0.9269 H   0  0  0  0  0  0  0  0  0  0  0  0
   -3.6755    5.9278   -3.1710 H   0  0  0  0  0  0  0  0  0  0  0  0
   -2.4173    5.7967   -1.9258 H   0  0  0  0  0  0  0  0  0  0  0  0
    3.2450   -2.2869    2.9929 H   0  0  0  0  0  0  0  0  0  0  0  0
    4.3006   -2.0549    1.5976 H   0  0  0  0  0  0  0  0  0  0  0  0
    2.1592   -2.1530   -0.3197 H   0  0  0  0  0  0  0  0  0  0  0  0
    1.5373   -5.7760    0.3491 H   0  0  0  0  0  0  0  0  0  0  0  0
    0.4459   -7.2313   -1.2771 H   0  0  0  0  0  0  0  0  0  0  0  0
   -0.2266   -6.3688   -3.4956 H   0  0  0  0  0  0  0  0  0  0  0  0
  1  2  1  0
  2  3  1  0
  2  4  1  0
  4  5  1  0
  5  6  1  0
  6  7  2  0
  6  8  2  0
  6  9  1  0
  9 10  2  0
 10 11  1  0
 11 12  2  0
 12 13  1  0
 13 14  2  0
 13 15  1  0
 15 16  1  0
 16 17  1  0
 17 18  1  0
  4 19  1  0
 19 20  2  0
 19 21  1  0
 21 22  1  0
 22 23  1  0
 23 24  2  0
 23 25  1  0
 25 26  1  0
 26 27  2  0
 27 28  1  0
 28 29  2  0
 29 30  1  0
 30 31  1  0
 30 32  2  0
 32 33  1  0
 14  9  1  0
 32 26  1  0
 18 12  1  0
  1 34  1  0
  1 35  1  0
  1 36  1  0
  2 37  1  0
  3 38  1  0
  3 39  1  0
  3 40  1  0
  4 41  1  0
  5 42  1  0
 10 43  1  0
 11 44  1  0
 14 45  1  0
 16 46  1  0
 16 47  1  0
 17 48  1  0
 17 49  1  0
 22 50  1  0
 22 51  1  0
 25 52  1  0
 27 53  1  0
 28 54  1  0
 29 55  1  0
M  END
$$$$
