
     RDKit          3D

 43 46  0  0  0  0  0  0  0  0999 V2000
    2.4253   -1.9831    4.3898 C   0  0  0  0  0  0  0  0  0  0  0  0
    2.8534   -2.6513    3.2107 O   0  0  0  0  0  0  0  0  0  0  0  0
    2.4167   -2.0450    2.0508 C   0  0  0  0  0  0  0  0  0  0  0  0
    1.6022   -0.9957    2.1207 N   0  0  0  0  0  0  0  0  0  0  0  0
    1.2380   -0.4844    0.9531 C   0  0  0  0  0  0  0  0  0  0  0  0
    0.4064    0.6143    1.0378 N   0  0  0  0  0  0  0  0  0  0  0  0
   -0.5692    0.9496   -0.0000 C   0  0  0  0  0  0  0  0  0  0  0  0
   -1.5034   -0.2356   -0.3401 C   0  0  0  0  0  0  0  0  0  0  0  0
   -2.5616    0.1949   -1.3723 C   0  0  0  0  0  0  0  0  0  0  0  0
   -3.4127    1.3313   -0.7844 C   0  0  0  0  0  0  0  0  0  0  0  0
   -2.5189    2.5344   -0.4459 C   0  0  0  0  0  0  0  0  0  0  0  0
   -1.8238    3.0283   -1.7233 C   0  0  0  0  0  0  0  0  0  0  0  0
   -0.9611    1.9042   -2.3164 C   0  0  0  0  0  0  0  0  0  0  0  0
   -1.8559    0.6960   -2.6447 C   0  0  0  0  0  0  0  0  0  0  0  0
    0.1041    1.4813   -1.2878 C   0  0  0  0  0  0  0  0  0  0  0  0
   -1.4521    2.0987    0.5708 C   0  0  0  0  0  0  0  0  0  0  0  0
    1.6292   -0.9644   -0.2144 N   0  0  0  0  0  0  0  0  0  0  0  0
    2.4369   -2.0154   -0.1605 C   0  0  0  0  0  0  0  0  0  0  0  0
    2.8211   -2.4987   -1.3944 O   0  0  0  0  0  0  0  0  0  0  0  0
    3.7148   -3.6011   -1.3119 C   0  0  0  0  0  0  0  0  0  0  0  0
    2.8670   -2.6087    0.9424 N   0  0  0  0  0  0  0  0  0  0  0  0
    1.3340   -2.0037    4.4843 H   0  0  0  0  0  0  0  0  0  0  0  0
    2.8419   -2.5201    5.2476 H   0  0  0  0  0  0  0  0  0  0  0  0
    2.8040   -0.9556    4.4261 H   0  0  0  0  0  0  0  0  0  0  0  0
    0.0510    0.6333    1.9876 H   0  0  0  0  0  0  0  0  0  0  0  0
   -0.9377   -1.0810   -0.7489 H   0  0  0  0  0  0  0  0  0  0  0  0
   -1.9960   -0.6052    0.5687 H   0  0  0  0  0  0  0  0  0  0  0  0
   -3.2044   -0.6579   -1.6178 H   0  0  0  0  0  0  0  0  0  0  0  0
   -3.9312    0.9834    0.1175 H   0  0  0  0  0  0  0  0  0  0  0  0
   -4.1871    1.6296   -1.5017 H   0  0  0  0  0  0  0  0  0  0  0  0
   -3.1284    3.3400   -0.0215 H   0  0  0  0  0  0  0  0  0  0  0  0
   -2.5723    3.3535   -2.4563 H   0  0  0  0  0  0  0  0  0  0  0  0
   -1.1991    3.9011   -1.4974 H   0  0  0  0  0  0  0  0  0  0  0  0
   -0.4704    2.2593   -3.2296 H   0  0  0  0  0  0  0  0  0  0  0  0
   -2.6016    0.9781   -3.3981 H   0  0  0  0  0  0  0  0  0  0  0  0
   -1.2525   -0.1099   -3.0805 H   0  0  0  0  0  0  0  0  0  0  0  0
    0.7450    0.7231   -1.7495 H   0  0  0  0  0  0  0  0  0  0  0  0
    0.7565    2.3324   -1.0522 H   0  0  0  0  0  0  0  0  0  0  0  0
   -0.8247    2.9589    0.8409 H   0  0  0  0  0  0  0  0  0  0  0  0
   -1.9419    1.7747    1.4992 H   0  0  0  0  0  0  0  0  0  0  0  0
    3.9700   -3.9005   -2.3331 H   0  0  0  0  0  0  0  0  0  0  0  0
    3.2426   -4.4604   -0.8230 H   0  0  0  0  0  0  0  0  0  0  0  0
    4.6458   -3.3227   -0.8058 H   0  0  0  0  0  0  0  0  0  0  0  0
  1  2  1  0
  2  3  1  0
  3  4  2  0
  4  5  1  0
  5  6  1  0
  6  7  1  0
  7  8  1  0
  8  9  1  0
  9 10  1  0
 10 11  1  0
 11 12  1  0
 12 13  1  0
 13 14  1  0
 13 15  1  0
 11 16  1  0
  5 17  2  0
 17 18  1  0
 18 19  1  0
 19 20  1  0
 18 21  2  0
 21  3  1  0
 15  7  1  0
 16  7  1  0
 14  9  1  0
  1 22  1  0
  1 23  1  0
  1 24  1  0
  6 25  1  0
  8 26  1  0
  8 27  1  0
  9 28  1  0
 10 29  1  0
 10 30  1  0
 11 31  1  0
 12 32  1  0
 12 33  1  0
 13 34  1  0
 14 35  1  0
 14 36  1  0
 15 37  1  0
 15 38  1  0
 16 39  1  0
 16 40  1  0
 20 41  1  0
 20 42  1  0
 20 43  1  0
M  END
$$$$
