
     RDKit          3D

 71 74  0  0  0  0  0  0  0  0999 V2000
    6.9076   -3.4226    0.3933 C   0  0  0  0  0  0  0  0  0  0  0  0
    7.6374   -2.3617   -0.4225 C   0  0  0  0  0  0  0  0  0  0  0  0
    7.4306   -1.0035    0.1211 N   0  0  0  0  0  0  0  0  0  0  0  0
    8.3681   -0.0006   -0.4295 C   0  0  0  0  0  0  0  0  0  0  0  0
    8.5217    1.1973    0.4999 C   0  0  0  0  0  0  0  0  0  0  0  0
    6.0885   -0.5683    0.0482 C   0  0  0  0  0  0  0  0  0  0  0  0
    5.4328   -0.2413    1.2415 C   0  0  0  0  0  0  0  0  0  0  0  0
    4.1105    0.2111    1.2361 C   0  0  0  0  0  0  0  0  0  0  0  0
    3.4154    0.3367    0.0304 C   0  0  0  0  0  0  0  0  0  0  0  0
    2.0382    0.8352    0.0381 C   0  0  0  0  0  0  0  0  0  0  0  0
    0.9662    0.1108   -0.3224 C   0  0  0  0  0  0  0  0  0  0  0  0
    0.9695   -1.3565   -0.6887 C   0  0  0  0  0  0  0  0  0  0  0  0
   -0.4606   -1.8249   -0.4207 C   0  0  0  0  0  0  0  0  0  0  0  0
   -1.2153   -0.5464   -0.3040 C   0  0  0  0  0  0  0  0  0  0  0  0
   -2.6850   -0.5063   -0.2574 C   0  0  0  0  0  0  0  0  0  0  0  0
   -3.4055   -1.5832   -0.2299 N   0  0  0  0  0  0  0  0  0  0  0  0
   -4.7634   -1.4242   -0.0851 N   0  0  0  0  0  0  0  0  0  0  0  0
   -5.3486   -0.5294    0.8079 C   0  0  0  0  0  0  0  0  0  0  0  0
   -4.7847    0.3446    1.4570 O   0  0  0  0  0  0  0  0  0  0  0  0
   -6.8091   -0.7702    0.9730 C   0  0  0  0  0  0  0  0  0  0  0  0
   -7.3537   -1.1358    2.2603 C   0  0  0  0  0  0  0  0  0  0  0  0
   -8.6695   -1.3376    2.4076 C   0  0  0  0  0  0  0  0  0  0  0  0
   -9.5921   -1.1843    1.2464 C   0  0  0  0  0  0  0  0  0  0  0  0
  -10.7941   -1.3743    1.4108 O   0  0  0  0  0  0  0  0  0  0  0  0
   -8.9927   -0.8306    0.0340 N   0  0  0  0  0  0  0  0  0  0  0  0
   -9.8362   -0.6160   -1.1317 C   0  0  0  0  0  0  0  0  0  0  0  0
   -7.6263   -0.6155   -0.0812 C   0  0  0  0  0  0  0  0  0  0  0  0
   -0.4293    0.5404   -0.2656 C   0  0  0  0  0  0  0  0  0  0  0  0
   -0.8385    1.8628   -0.1990 N   0  0  0  0  0  0  0  0  0  0  0  0
   -1.4051    2.4096    1.0580 C   0  0  0  0  0  0  0  0  0  0  0  0
   -2.3843    3.5533    0.7465 C   0  0  0  0  0  0  0  0  0  0  0  0
   -1.7708    4.5753   -0.0620 O   0  0  0  0  0  0  0  0  0  0  0  0
   -1.3036    4.0119   -1.3011 C   0  0  0  0  0  0  0  0  0  0  0  0
   -0.2546    2.9186   -1.0500 C   0  0  0  0  0  0  0  0  0  0  0  0
    4.0601    0.0142   -1.1667 C   0  0  0  0  0  0  0  0  0  0  0  0
    5.3851   -0.4360   -1.1568 C   0  0  0  0  0  0  0  0  0  0  0  0
    7.1282   -3.3200    1.4639 H   0  0  0  0  0  0  0  0  0  0  0  0
    5.8231   -3.3646    0.2566 H   0  0  0  0  0  0  0  0  0  0  0  0
    7.2296   -4.4191    0.0809 H   0  0  0  0  0  0  0  0  0  0  0  0
    7.3549   -2.4252   -1.4803 H   0  0  0  0  0  0  0  0  0  0  0  0
    8.7084   -2.5966   -0.3724 H   0  0  0  0  0  0  0  0  0  0  0  0
    9.3601   -0.4564   -0.5331 H   0  0  0  0  0  0  0  0  0  0  0  0
    8.0716    0.3249   -1.4343 H   0  0  0  0  0  0  0  0  0  0  0  0
    9.3150    1.8581    0.1339 H   0  0  0  0  0  0  0  0  0  0  0  0
    8.7842    0.8766    1.5146 H   0  0  0  0  0  0  0  0  0  0  0  0
    7.6001    1.7851    0.5566 H   0  0  0  0  0  0  0  0  0  0  0  0
    5.9638   -0.3380    2.1853 H   0  0  0  0  0  0  0  0  0  0  0  0
    3.6303    0.4581    2.1791 H   0  0  0  0  0  0  0  0  0  0  0  0
    1.9230    1.8421    0.4215 H   0  0  0  0  0  0  0  0  0  0  0  0
    1.6819   -1.9440   -0.0968 H   0  0  0  0  0  0  0  0  0  0  0  0
    1.2150   -1.4792   -1.7523 H   0  0  0  0  0  0  0  0  0  0  0  0
   -0.5205   -2.3978    0.5101 H   0  0  0  0  0  0  0  0  0  0  0  0
   -0.8245   -2.4523   -1.2421 H   0  0  0  0  0  0  0  0  0  0  0  0
   -3.1331    0.5010   -0.2584 H   0  0  0  0  0  0  0  0  0  0  0  0
   -5.2850   -2.2682   -0.3053 H   0  0  0  0  0  0  0  0  0  0  0  0
   -6.6738   -1.2323    3.1022 H   0  0  0  0  0  0  0  0  0  0  0  0
   -9.1216   -1.6093    3.3535 H   0  0  0  0  0  0  0  0  0  0  0  0
  -10.8377   -1.0298   -0.9856 H   0  0  0  0  0  0  0  0  0  0  0  0
   -9.3845   -1.0916   -2.0078 H   0  0  0  0  0  0  0  0  0  0  0  0
   -9.9229    0.4612   -1.3027 H   0  0  0  0  0  0  0  0  0  0  0  0
   -7.2594   -0.3148   -1.0591 H   0  0  0  0  0  0  0  0  0  0  0  0
   -1.9260    1.6352    1.6319 H   0  0  0  0  0  0  0  0  0  0  0  0
   -0.5798    2.7854    1.6751 H   0  0  0  0  0  0  0  0  0  0  0  0
   -3.2771    3.1786    0.2277 H   0  0  0  0  0  0  0  0  0  0  0  0
   -2.7148    4.0232    1.6807 H   0  0  0  0  0  0  0  0  0  0  0  0
   -0.8639    4.8224   -1.8914 H   0  0  0  0  0  0  0  0  0  0  0  0
   -2.1626    3.6164   -1.8594 H   0  0  0  0  0  0  0  0  0  0  0  0
    0.0737    2.5064   -2.0114 H   0  0  0  0  0  0  0  0  0  0  0  0
    0.6115    3.3648   -0.5463 H   0  0  0  0  0  0  0  0  0  0  0  0
    3.5399    0.1179   -2.1169 H   0  0  0  0  0  0  0  0  0  0  0  0
    5.8643   -0.6706   -2.1021 H   0  0  0  0  0  0  0  0  0  0  0  0
  1  2  1  0
  2  3  1  0
  3  4  1  0
  4  5  1  0
  3  6  1  0
  6  7  2  0
  7  8  1  0
  8  9  2  0
  9 10  1  0
 10 11  2  3
 11 12  1  0
 12 13  1  0
 13 14  1  0
 14 15  1  0
 15 16  2  3
 16 17  1  0
 17 18  1  0
 18 19  2  0
 18 20  1  0
 20 21  1  0
 21 22  2  0
 22 23  1  0
 23 24  2  0
 23 25  1  0
 25 26  1  0
 25 27  1  0
 14 28  2  0
 28 29  1  0
 29 30  1  0
 30 31  1  0
 31 32  1  0
 32 33  1  0
 33 34  1  0
  9 35  1  0
 35 36  2  0
 36  6  1  0
 28 11  1  0
 34 29  1  0
 27 20  2  0
  1 37  1  0
  1 38  1  0
  1 39  1  0
  2 40  1  0
  2 41  1  0
  4 42  1  0
  4 43  1  0
  5 44  1  0
  5 45  1  0
  5 46  1  0
  7 47  1  0
  8 48  1  0
 10 49  1  0
 12 50  1  0
 12 51  1  0
 13 52  1  0
 13 53  1  0
 15 54  1  0
 17 55  1  0
 21 56  1  0
 22 57  1  0
 26 58  1  0
 26 59  1  0
 26 60  1  0
 27 61  1  0
 30 62  1  0
 30 63  1  0
 31 64  1  0
 31 65  1  0
 33 66  1  0
 33 67  1  0
 34 68  1  0
 34 69  1  0
 35 70  1  0
 36 71  1  0
M  END
$$$$
