
     RDKit          3D

 46 47  0  0  0  0  0  0  0  0999 V2000
    2.1630   -2.7757    4.7109 C   0  0  0  0  0  0  0  0  0  0  0  0
    1.3510   -2.4582    3.4705 C   0  0  0  0  0  0  0  0  0  0  0  0
    1.8341   -1.2267    2.9254 O   0  0  0  0  0  0  0  0  0  0  0  0
    1.1718   -0.8154    1.8059 C   0  0  0  0  0  0  0  0  0  0  0  0
    0.2794   -1.4477    1.2549 O   0  0  0  0  0  0  0  0  0  0  0  0
    1.6864    0.4474    1.2923 C   0  0  0  0  0  0  0  0  0  0  0  0
    3.0326    0.7752    1.1507 C   0  0  0  0  0  0  0  0  0  0  0  0
    4.2612    0.0079    1.4901 C   0  0  0  0  0  0  0  0  0  0  0  0
    3.1087    2.0208    0.5783 N   0  0  0  0  0  0  0  0  0  0  0  0
    1.8498    2.5105    0.3396 C   0  0  0  0  0  0  0  0  0  0  0  0
    1.6443    3.8416   -0.2900 C   0  0  0  0  0  0  0  0  0  0  0  0
    0.9432    1.5723    0.8151 C   0  0  0  0  0  0  0  0  0  0  0  0
   -0.7843    1.7429    0.8512 S   0  0  0  0  0  6  0  0  0  0  0  0
   -1.0141    3.1666    0.9711 O   0  0  0  0  0  0  0  0  0  0  0  0
   -1.2584    0.8369    1.8707 O   0  0  0  0  0  0  0  0  0  0  0  0
   -1.4139    1.2895   -0.6360 N   0  0  0  0  0  0  0  0  0  0  0  0
   -1.3590   -0.1397   -0.9650 C   0  0  0  0  0  0  0  0  0  0  0  0
   -2.0716   -0.4025   -2.2765 C   0  0  0  0  0  0  0  0  0  0  0  0
   -1.3606   -0.2085   -3.4750 C   0  0  0  0  0  0  0  0  0  0  0  0
   -1.9700   -0.4150   -4.7117 C   0  0  0  0  0  0  0  0  0  0  0  0
   -3.3014   -0.8114   -4.7693 C   0  0  0  0  0  0  0  0  0  0  0  0
   -4.0261   -0.9932   -3.5915 C   0  0  0  0  0  0  0  0  0  0  0  0
   -3.4299   -0.7819   -2.3374 C   0  0  0  0  0  0  0  0  0  0  0  0
   -4.2539   -0.9914   -1.0958 C   0  0  0  0  0  0  0  0  0  0  0  0
    2.0694   -1.9722    5.4490 H   0  0  0  0  0  0  0  0  0  0  0  0
    3.2267   -2.8589    4.4641 H   0  0  0  0  0  0  0  0  0  0  0  0
    1.8311   -3.7134    5.1652 H   0  0  0  0  0  0  0  0  0  0  0  0
    1.4719   -3.2614    2.7350 H   0  0  0  0  0  0  0  0  0  0  0  0
    0.2929   -2.3566    3.7370 H   0  0  0  0  0  0  0  0  0  0  0  0
    4.4342    0.0286    2.5707 H   0  0  0  0  0  0  0  0  0  0  0  0
    4.1650   -1.0355    1.1733 H   0  0  0  0  0  0  0  0  0  0  0  0
    5.1444    0.4257    0.9958 H   0  0  0  0  0  0  0  0  0  0  0  0
    3.9699    2.5059    0.3565 H   0  0  0  0  0  0  0  0  0  0  0  0
    0.8525    3.7958   -1.0443 H   0  0  0  0  0  0  0  0  0  0  0  0
    2.5545    4.1913   -0.7883 H   0  0  0  0  0  0  0  0  0  0  0  0
    1.3670    4.5826    0.4661 H   0  0  0  0  0  0  0  0  0  0  0  0
   -2.3473    1.6843   -0.7442 H   0  0  0  0  0  0  0  0  0  0  0  0
   -0.3156   -0.4576   -1.0644 H   0  0  0  0  0  0  0  0  0  0  0  0
   -1.8144   -0.7394   -0.1723 H   0  0  0  0  0  0  0  0  0  0  0  0
   -0.3207    0.1114   -3.4447 H   0  0  0  0  0  0  0  0  0  0  0  0
   -1.4058   -0.2643   -5.6281 H   0  0  0  0  0  0  0  0  0  0  0  0
   -3.7791   -0.9755   -5.7316 H   0  0  0  0  0  0  0  0  0  0  0  0
   -5.0678   -1.3003   -3.6598 H   0  0  0  0  0  0  0  0  0  0  0  0
   -4.1973   -0.1142   -0.4435 H   0  0  0  0  0  0  0  0  0  0  0  0
   -5.3112   -1.1449   -1.3371 H   0  0  0  0  0  0  0  0  0  0  0  0
   -3.9025   -1.8754   -0.5545 H   0  0  0  0  0  0  0  0  0  0  0  0
  1  2  1  0
  2  3  1  0
  3  4  1  0
  4  5  2  0
  4  6  1  0
  6  7  2  0
  7  8  1  0
  7  9  1  0
  9 10  1  0
 10 11  1  0
 10 12  2  0
 12 13  1  0
 13 14  2  0
 13 15  2  0
 13 16  1  0
 16 17  1  0
 17 18  1  0
 18 19  2  0
 19 20  1  0
 20 21  2  0
 21 22  1  0
 22 23  2  0
 23 24  1  0
 12  6  1  0
 23 18  1  0
  1 25  1  0
  1 26  1  0
  1 27  1  0
  2 28  1  0
  2 29  1  0
  8 30  1  0
  8 31  1  0
  8 32  1  0
  9 33  1  0
 11 34  1  0
 11 35  1  0
 11 36  1  0
 16 37  1  0
 17 38  1  0
 17 39  1  0
 19 40  1  0
 20 41  1  0
 21 42  1  0
 22 43  1  0
 24 44  1  0
 24 45  1  0
 24 46  1  0
M  END
$$$$
