
     RDKit          3D

 49 50  0  0  0  0  0  0  0  0999 V2000
   -6.3718   -2.2722   -1.7513 C   0  0  0  0  0  0  0  0  0  0  0  0
   -6.6024   -1.3304   -0.7112 O   0  0  0  0  0  0  0  0  0  0  0  0
   -5.5300   -0.5921   -0.2909 C   0  0  0  0  0  0  0  0  0  0  0  0
   -4.1950   -0.8737   -0.5968 C   0  0  0  0  0  0  0  0  0  0  0  0
   -3.1629   -0.0477   -0.1172 C   0  0  0  0  0  0  0  0  0  0  0  0
   -1.7774   -0.3568   -0.4849 C   0  0  0  0  0  0  0  0  0  0  0  0
   -0.8038   -0.5052    0.4255 C   0  0  0  0  0  0  0  0  0  0  0  0
    0.5961   -0.8378    0.0922 C   0  0  0  0  0  0  0  0  0  0  0  0
    1.4281   -1.0896    0.9525 O   0  0  0  0  0  0  0  0  0  0  0  0
    0.8167   -0.8107   -1.2417 O   0  0  0  0  0  0  0  0  0  0  0  0
    2.1462   -1.1308   -1.6507 C   0  0  0  0  0  0  0  0  0  0  0  0
    3.1248    0.0410   -1.5496 C   0  0  0  0  0  0  0  0  0  0  0  0
    3.5817    0.6042   -2.5426 O   0  0  0  0  0  0  0  0  0  0  0  0
    3.4685    0.3891   -0.2627 N   0  0  0  0  0  0  0  0  0  0  0  0
    4.5077    1.3629    0.0166 C   0  0  0  0  0  0  0  0  0  0  0  0
    5.9116    0.8157   -0.2548 C   0  0  0  0  0  0  0  0  0  0  0  0
    7.0044    1.8460   -0.0232 C   0  0  0  0  0  0  0  0  0  0  0  0
    8.2010    0.9586    0.2127 C   0  0  0  0  0  0  0  0  0  0  0  0
    7.6007   -0.1818    1.0085 C   0  0  0  0  0  0  0  0  0  0  0  0
    6.2156   -0.2735    0.6436 O   0  0  0  0  0  0  0  0  0  0  0  0
   -3.4770    1.0749    0.6582 C   0  0  0  0  0  0  0  0  0  0  0  0
   -4.8052    1.3641    0.9703 C   0  0  0  0  0  0  0  0  0  0  0  0
   -5.8191    0.5202    0.5173 C   0  0  0  0  0  0  0  0  0  0  0  0
   -7.1129    0.8674    0.8141 O   0  0  0  0  0  0  0  0  0  0  0  0
   -7.6307    0.0433    1.8701 C   0  0  0  0  0  0  0  0  0  0  0  0
   -9.0581    0.3310    2.0752 C   0  0  0  0  0  0  0  0  0  0  0  0
  -10.1848    0.5379    2.2618 N   0  0  0  0  0  0  0  0  0  0  0  0
   -5.7765   -3.1175   -1.3866 H   0  0  0  0  0  0  0  0  0  0  0  0
   -7.3432   -2.6612   -2.0694 H   0  0  0  0  0  0  0  0  0  0  0  0
   -5.9032   -1.8042   -2.6217 H   0  0  0  0  0  0  0  0  0  0  0  0
   -3.9305   -1.7355   -1.2020 H   0  0  0  0  0  0  0  0  0  0  0  0
   -1.5890   -0.4834   -1.5474 H   0  0  0  0  0  0  0  0  0  0  0  0
   -0.9966   -0.4131    1.4882 H   0  0  0  0  0  0  0  0  0  0  0  0
    2.5397   -1.9927   -1.0980 H   0  0  0  0  0  0  0  0  0  0  0  0
    2.0961   -1.4338   -2.7026 H   0  0  0  0  0  0  0  0  0  0  0  0
    3.1866   -0.2342    0.4930 H   0  0  0  0  0  0  0  0  0  0  0  0
    4.3213    2.2510   -0.5970 H   0  0  0  0  0  0  0  0  0  0  0  0
    4.3971    1.6320    1.0723 H   0  0  0  0  0  0  0  0  0  0  0  0
    5.9834    0.4169   -1.2745 H   0  0  0  0  0  0  0  0  0  0  0  0
    7.1296    2.5330   -0.8651 H   0  0  0  0  0  0  0  0  0  0  0  0
    6.8032    2.4372    0.8791 H   0  0  0  0  0  0  0  0  0  0  0  0
    8.5826    0.5863   -0.7468 H   0  0  0  0  0  0  0  0  0  0  0  0
    9.0229    1.4558    0.7360 H   0  0  0  0  0  0  0  0  0  0  0  0
    8.0963   -1.1347    0.8090 H   0  0  0  0  0  0  0  0  0  0  0  0
    7.6483    0.0175    2.0830 H   0  0  0  0  0  0  0  0  0  0  0  0
   -2.6935    1.7430    1.0118 H   0  0  0  0  0  0  0  0  0  0  0  0
   -5.0492    2.2496    1.5559 H   0  0  0  0  0  0  0  0  0  0  0  0
   -7.0832    0.2577    2.7985 H   0  0  0  0  0  0  0  0  0  0  0  0
   -7.5146   -1.0239    1.6419 H   0  0  0  0  0  0  0  0  0  0  0  0
  1  2  1  0
  2  3  1  0
  3  4  2  0
  4  5  1  0
  5  6  1  0
  6  7  2  3
  7  8  1  0
  8  9  2  0
  8 10  1  0
 10 11  1  0
 11 12  1  0
 12 13  2  0
 12 14  1  0
 14 15  1  0
 15 16  1  0
 16 17  1  0
 17 18  1  0
 18 19  1  0
 19 20  1  0
  5 21  2  0
 21 22  1  0
 22 23  2  0
 23 24  1  0
 24 25  1  0
 25 26  1  0
 26 27  3  0
 23  3  1  0
 20 16  1  0
  1 28  1  0
  1 29  1  0
  1 30  1  0
  4 31  1  0
  6 32  1  0
  7 33  1  0
 11 34  1  0
 11 35  1  0
 14 36  1  0
 15 37  1  0
 15 38  1  0
 16 39  1  0
 17 40  1  0
 17 41  1  0
 18 42  1  0
 18 43  1  0
 19 44  1  0
 19 45  1  0
 21 46  1  0
 22 47  1  0
 25 48  1  0
 25 49  1  0
M  END
$$$$
