
     RDKit          3D

 57 59  0  0  0  0  0  0  0  0999 V2000
   -5.3552   -3.7970    3.6211 C   0  0  0  0  0  0  0  0  0  0  0  0
   -5.0464   -2.5482    2.8498 C   0  0  0  0  0  0  0  0  0  0  0  0
   -5.3362   -2.4647    1.4792 C   0  0  0  0  0  0  0  0  0  0  0  0
   -5.0285   -1.3077    0.7615 C   0  0  0  0  0  0  0  0  0  0  0  0
   -4.4075   -0.2377    1.4170 C   0  0  0  0  0  0  0  0  0  0  0  0
   -3.9898    1.2343    0.5153 S   0  0  0  0  0  6  0  0  0  0  0  0
   -4.5788    1.1485   -0.8055 O   0  0  0  0  0  0  0  0  0  0  0  0
   -4.2544    2.3659    1.3782 O   0  0  0  0  0  0  0  0  0  0  0  0
   -2.2927    1.0764    0.3273 N   0  0  0  0  0  0  0  0  0  0  0  0
   -1.8555   -0.1465   -0.4039 C   0  0  0  0  0  0  0  0  0  0  0  0
   -0.4610    0.0164   -0.9864 C   0  0  0  0  0  0  0  0  0  0  0  0
   -0.4262    1.1660   -2.0012 C   0  0  0  0  0  0  0  0  0  0  0  0
    1.0222    1.5860   -2.1996 C   0  0  0  0  0  0  0  0  0  0  0  0
    1.5496    2.5268   -1.6107 O   0  0  0  0  0  0  0  0  0  0  0  0
    1.7239    0.7600   -3.0502 N   0  0  0  0  0  0  0  0  0  0  0  0
    3.1534    0.9432   -3.2884 C   0  0  0  0  0  0  0  0  0  0  0  0
    3.5371    0.3351   -4.6342 C   0  0  0  0  0  0  0  0  0  0  0  0
    3.9418    0.2847   -2.1340 C   0  0  0  0  0  0  0  0  0  0  0  0
    4.4618   -0.8190   -2.2605 O   0  0  0  0  0  0  0  0  0  0  0  0
    3.9123    1.0463   -0.9772 N   0  0  0  0  0  0  0  0  0  0  0  0
    4.5701    0.7910    0.2396 C   0  0  0  0  0  0  0  0  0  0  0  0
    5.4639   -0.2652    0.4318 C   0  0  0  0  0  0  0  0  0  0  0  0
    6.0994   -0.4399    1.6636 C   0  0  0  0  0  0  0  0  0  0  0  0
    5.8387    0.4423    2.7014 C   0  0  0  0  0  0  0  0  0  0  0  0
    6.4517    0.2751    3.8787 F   0  0  0  0  0  0  0  0  0  0  0  0
    4.9535    1.4958    2.5323 C   0  0  0  0  0  0  0  0  0  0  0  0
    4.3197    1.6715    1.3007 C   0  0  0  0  0  0  0  0  0  0  0  0
   -1.3117    2.3453   -1.5738 C   0  0  0  0  0  0  0  0  0  0  0  0
   -1.5953    2.3312   -0.0781 C   0  0  0  0  0  0  0  0  0  0  0  0
   -4.1209   -0.3027    2.7826 C   0  0  0  0  0  0  0  0  0  0  0  0
   -4.4345   -1.4608    3.4941 C   0  0  0  0  0  0  0  0  0  0  0  0
   -6.0413   -4.4496    3.0702 H   0  0  0  0  0  0  0  0  0  0  0  0
   -4.4348   -4.3523    3.8165 H   0  0  0  0  0  0  0  0  0  0  0  0
   -5.8328   -3.5475    4.5718 H   0  0  0  0  0  0  0  0  0  0  0  0
   -5.8109   -3.2992    0.9637 H   0  0  0  0  0  0  0  0  0  0  0  0
   -5.2709   -1.2510   -0.2983 H   0  0  0  0  0  0  0  0  0  0  0  0
   -1.8473   -0.9857    0.2978 H   0  0  0  0  0  0  0  0  0  0  0  0
   -2.5510   -0.3865   -1.2159 H   0  0  0  0  0  0  0  0  0  0  0  0
   -0.1471   -0.9187   -1.4692 H   0  0  0  0  0  0  0  0  0  0  0  0
    0.2575    0.1979   -0.1759 H   0  0  0  0  0  0  0  0  0  0  0  0
   -0.8012    0.8105   -2.9728 H   0  0  0  0  0  0  0  0  0  0  0  0
    1.3426   -0.1566   -3.2544 H   0  0  0  0  0  0  0  0  0  0  0  0
    3.3838    2.0152   -3.3001 H   0  0  0  0  0  0  0  0  0  0  0  0
    2.9992    0.8279   -5.4555 H   0  0  0  0  0  0  0  0  0  0  0  0
    3.2931   -0.7321   -4.6784 H   0  0  0  0  0  0  0  0  0  0  0  0
    4.6133    0.4401   -4.8172 H   0  0  0  0  0  0  0  0  0  0  0  0
    3.2962    1.8601   -1.0019 H   0  0  0  0  0  0  0  0  0  0  0  0
    5.6986   -0.9669   -0.3606 H   0  0  0  0  0  0  0  0  0  0  0  0
    6.7976   -1.2559    1.8099 H   0  0  0  0  0  0  0  0  0  0  0  0
    4.7666    2.1763    3.3558 H   0  0  0  0  0  0  0  0  0  0  0  0
    3.6303    2.5022    1.1817 H   0  0  0  0  0  0  0  0  0  0  0  0
   -2.2645    2.2810   -2.1148 H   0  0  0  0  0  0  0  0  0  0  0  0
   -0.8672    3.3064   -1.8568 H   0  0  0  0  0  0  0  0  0  0  0  0
   -2.1856    3.2134    0.1896 H   0  0  0  0  0  0  0  0  0  0  0  0
   -0.6642    2.4079    0.4964 H   0  0  0  0  0  0  0  0  0  0  0  0
   -3.6526    0.5381    3.2915 H   0  0  0  0  0  0  0  0  0  0  0  0
   -4.2119   -1.5071    4.5566 H   0  0  0  0  0  0  0  0  0  0  0  0
  1  2  1  0
  2  3  2  0
  3  4  1  0
  4  5  2  0
  5  6  1  0
  6  7  2  0
  6  8  2  0
  6  9  1  0
  9 10  1  0
 10 11  1  0
 11 12  1  0
 12 13  1  0
 13 14  2  0
 13 15  1  0
 15 16  1  0
 16 17  1  0
 16 18  1  0
 18 19  2  0
 18 20  1  0
 20 21  1  0
 21 22  2  0
 22 23  1  0
 23 24  2  0
 24 25  1  0
 24 26  1  0
 26 27  2  0
 12 28  1  0
 28 29  1  0
  5 30  1  0
 30 31  2  0
 31  2  1  0
 29  9  1  0
 27 21  1  0
  1 32  1  0
  1 33  1  0
  1 34  1  0
  3 35  1  0
  4 36  1  0
 10 37  1  0
 10 38  1  0
 11 39  1  0
 11 40  1  0
 12 41  1  0
 15 42  1  0
 16 43  1  0
 17 44  1  0
 17 45  1  0
 17 46  1  0
 20 47  1  0
 22 48  1  0
 23 49  1  0
 26 50  1  0
 27 51  1  0
 28 52  1  0
 28 53  1  0
 29 54  1  0
 29 55  1  0
 30 56  1  0
 31 57  1  0
M  END
$$$$
