
     RDKit          3D

 59 62  0  0  0  0  0  0  0  0999 V2000
   -4.5167    4.3519    0.5988 C   0  0  0  0  0  0  0  0  0  0  0  0
   -4.2562    2.9891    1.2131 C   0  0  0  0  0  0  0  0  0  0  0  0
   -2.9196    2.5526    0.9248 O   0  0  0  0  0  0  0  0  0  0  0  0
   -2.7255    1.9722   -0.2909 C   0  0  0  0  0  0  0  0  0  0  0  0
   -3.6039    1.8461   -1.1372 O   0  0  0  0  0  0  0  0  0  0  0  0
   -1.2674    1.5520   -0.5101 C   0  0  0  0  0  0  0  0  0  0  0  0
   -1.2568    0.1529   -1.2072 C   0  0  0  0  0  0  0  0  0  0  0  0
   -1.6817   -1.0317   -0.3637 C   0  0  0  0  0  0  0  0  0  0  0  0
   -0.7285   -1.9342    0.1255 C   0  0  0  0  0  0  0  0  0  0  0  0
   -1.1176   -3.0238    0.9091 C   0  0  0  0  0  0  0  0  0  0  0  0
   -2.4625   -3.2447    1.2062 C   0  0  0  0  0  0  0  0  0  0  0  0
   -2.7059   -4.3455    1.9801 O   0  0  0  0  0  0  0  0  0  0  0  0
   -4.0687   -4.6612    2.2357 C   0  0  0  0  0  0  0  0  0  0  0  0
   -3.4196   -2.3636    0.7072 C   0  0  0  0  0  0  0  0  0  0  0  0
   -3.0316   -1.2696   -0.0765 C   0  0  0  0  0  0  0  0  0  0  0  0
   -0.4521    1.5449    0.8119 C   0  0  0  0  0  0  0  0  0  0  0  0
    1.0410    1.3017    0.5801 C   0  0  0  0  0  0  0  0  0  0  0  0
    1.5430    2.0170   -0.5920 N   0  0  0  0  0  0  0  0  0  0  0  0
    2.5414    1.5295   -1.4381 C   0  0  0  0  0  0  0  0  0  0  0  0
    2.6473    1.9438   -2.5923 O   0  0  0  0  0  0  0  0  0  0  0  0
    3.4447    0.5010   -0.9577 C   0  0  0  0  0  0  0  0  0  0  0  0
    3.9254    0.1729    0.2991 C   0  0  0  0  0  0  0  0  0  0  0  0
    4.8011   -0.9408    0.1758 C   0  0  0  0  0  0  0  0  0  0  0  0
    5.5481   -1.7069    1.0912 C   0  0  0  0  0  0  0  0  0  0  0  0
    6.3348   -2.7620    0.6164 C   0  0  0  0  0  0  0  0  0  0  0  0
    6.3861   -3.0533   -0.7459 C   0  0  0  0  0  0  0  0  0  0  0  0
    5.6576   -2.3009   -1.6727 C   0  0  0  0  0  0  0  0  0  0  0  0
    4.8747   -1.2519   -1.1787 C   0  0  0  0  0  0  0  0  0  0  0  0
    4.0796   -0.3487   -1.8403 N   0  0  0  0  0  0  0  0  0  0  0  0
    0.7121    3.1187   -1.0554 C   0  0  0  0  0  0  0  0  0  0  0  0
   -0.6615    2.6077   -1.4919 C   0  0  0  0  0  0  0  0  0  0  0  0
   -3.7503    5.0689    0.9149 H   0  0  0  0  0  0  0  0  0  0  0  0
   -4.4795    4.3069   -0.4953 H   0  0  0  0  0  0  0  0  0  0  0  0
   -5.4976    4.7287    0.8955 H   0  0  0  0  0  0  0  0  0  0  0  0
   -4.9935    2.2478    0.8824 H   0  0  0  0  0  0  0  0  0  0  0  0
   -4.3356    3.0600    2.3034 H   0  0  0  0  0  0  0  0  0  0  0  0
   -0.2522   -0.0506   -1.6013 H   0  0  0  0  0  0  0  0  0  0  0  0
   -1.9003    0.1699   -2.0979 H   0  0  0  0  0  0  0  0  0  0  0  0
    0.3275   -1.8106   -0.1055 H   0  0  0  0  0  0  0  0  0  0  0  0
   -0.3638   -3.7131    1.2821 H   0  0  0  0  0  0  0  0  0  0  0  0
   -4.6106   -4.8539    1.3048 H   0  0  0  0  0  0  0  0  0  0  0  0
   -4.5517   -3.8726    2.8191 H   0  0  0  0  0  0  0  0  0  0  0  0
   -4.0959   -5.5789    2.8314 H   0  0  0  0  0  0  0  0  0  0  0  0
   -4.4785   -2.4989    0.9003 H   0  0  0  0  0  0  0  0  0  0  0  0
   -3.8069   -0.6185   -0.4749 H   0  0  0  0  0  0  0  0  0  0  0  0
   -0.5538    2.5191    1.3124 H   0  0  0  0  0  0  0  0  0  0  0  0
   -0.8440    0.8137    1.5300 H   0  0  0  0  0  0  0  0  0  0  0  0
    1.2248    0.2320    0.4656 H   0  0  0  0  0  0  0  0  0  0  0  0
    1.6022    1.6525    1.4528 H   0  0  0  0  0  0  0  0  0  0  0  0
    3.6876    0.6798    1.2240 H   0  0  0  0  0  0  0  0  0  0  0  0
    5.5164   -1.4845    2.1532 H   0  0  0  0  0  0  0  0  0  0  0  0
    6.9134   -3.3575    1.3193 H   0  0  0  0  0  0  0  0  0  0  0  0
    7.0066   -3.8752   -1.0955 H   0  0  0  0  0  0  0  0  0  0  0  0
    5.7049   -2.5244   -2.7333 H   0  0  0  0  0  0  0  0  0  0  0  0
    3.9604   -0.2993   -2.8426 H   0  0  0  0  0  0  0  0  0  0  0  0
    0.6142    3.8344   -0.2301 H   0  0  0  0  0  0  0  0  0  0  0  0
    1.1901    3.6594   -1.8796 H   0  0  0  0  0  0  0  0  0  0  0  0
   -1.3233    3.4763   -1.6048 H   0  0  0  0  0  0  0  0  0  0  0  0
   -0.5716    2.1735   -2.4967 H   0  0  0  0  0  0  0  0  0  0  0  0
  1  2  1  0
  2  3  1  0
  3  4  1  0
  4  5  2  0
  4  6  1  0
  6  7  1  0
  7  8  1  0
  8  9  2  0
  9 10  1  0
 10 11  2  0
 11 12  1  0
 12 13  1  0
 11 14  1  0
 14 15  2  0
  6 16  1  0
 16 17  1  0
 17 18  1  0
 18 19  1  0
 19 20  2  0
 19 21  1  0
 21 22  2  0
 22 23  1  0
 23 24  2  0
 24 25  1  0
 25 26  2  0
 26 27  1  0
 27 28  2  0
 28 29  1  0
 18 30  1  0
 30 31  1  0
 31  6  1  0
 15  8  1  0
 29 21  1  0
 28 23  1  0
  1 32  1  0
  1 33  1  0
  1 34  1  0
  2 35  1  0
  2 36  1  0
  7 37  1  0
  7 38  1  0
  9 39  1  0
 10 40  1  0
 13 41  1  0
 13 42  1  0
 13 43  1  0
 14 44  1  0
 15 45  1  0
 16 46  1  0
 16 47  1  0
 17 48  1  0
 17 49  1  0
 22 50  1  0
 24 51  1  0
 25 52  1  0
 26 53  1  0
 27 54  1  0
 29 55  1  0
 30 56  1  0
 30 57  1  0
 31 58  1  0
 31 59  1  0
M  END
$$$$
