
     RDKit          3D

 54 57  0  0  0  0  0  0  0  0999 V2000
    6.9196   -2.7092   -0.2757 C   0  0  0  0  0  0  0  0  0  0  0  0
    7.2518   -1.5348    0.4606 O   0  0  0  0  0  0  0  0  0  0  0  0
    6.2067   -0.8195    0.9782 C   0  0  0  0  0  0  0  0  0  0  0  0
    6.5672    0.1159    1.9467 C   0  0  0  0  0  0  0  0  0  0  0  0
    5.5978    0.9096    2.5496 C   0  0  0  0  0  0  0  0  0  0  0  0
    4.2612    0.7779    2.1736 C   0  0  0  0  0  0  0  0  0  0  0  0
    3.8838   -0.1417    1.1892 C   0  0  0  0  0  0  0  0  0  0  0  0
    2.5124   -0.1925    0.8538 N   0  0  0  0  0  0  0  0  0  0  0  0
    1.9171   -0.9433   -0.1419 C   0  0  0  0  0  0  0  0  0  0  0  0
    2.4805   -1.6768   -0.9462 O   0  0  0  0  0  0  0  0  0  0  0  0
    0.4456   -0.7294   -0.2591 C   0  0  0  0  0  0  0  0  0  0  0  0
   -0.3437   -0.6886    0.8254 C   0  0  0  0  0  0  0  0  0  0  0  0
   -1.7810   -0.4727    0.7421 C   0  0  0  0  0  0  0  0  0  0  0  0
   -2.5882   -0.4519    1.9959 C   0  0  0  0  0  0  0  0  0  0  0  0
   -2.0234   -0.5864    3.0862 O   0  0  0  0  0  0  0  0  0  0  0  0
   -3.9490   -0.2634    1.8400 N   0  0  0  0  0  0  0  0  0  0  0  0
   -4.7712   -0.2362    2.9639 C   0  0  0  0  0  0  0  0  0  0  0  0
   -6.0925   -0.0437    2.8659 C   0  0  0  0  0  0  0  0  0  0  0  0
   -6.6935    0.1371    1.5725 C   0  0  0  0  0  0  0  0  0  0  0  0
   -5.9381    0.1277    0.4676 C   0  0  0  0  0  0  0  0  0  0  0  0
   -4.4662   -0.0762    0.5746 C   0  0  0  0  0  0  0  0  0  0  0  0
   -3.7591   -0.0627   -0.5057 N   0  0  0  0  0  0  0  0  0  0  0  0
   -2.3985   -0.2604   -0.4408 C   0  0  0  0  0  0  0  0  0  0  0  0
   -1.6135   -0.2599   -1.6209 N   0  0  0  0  0  0  0  0  0  0  0  0
   -2.2470    0.0165   -2.9243 C   0  0  0  0  0  0  0  0  0  0  0  0
   -2.2125    1.5035   -3.3364 C   0  0  0  0  0  0  0  0  0  0  0  0
   -0.7971    2.0617   -3.4926 C   0  0  0  0  0  0  0  0  0  0  0  0
   -3.0347    2.4073   -2.4169 C   0  0  0  0  0  0  0  0  0  0  0  0
   -0.2515   -0.6024   -1.5894 C   0  0  0  0  0  0  0  0  0  0  0  0
    0.4092   -0.8060   -2.6972 N   0  0  0  0  0  0  0  0  0  0  0  0
    4.8659   -0.9430    0.6004 C   0  0  0  0  0  0  0  0  0  0  0  0
    7.8566   -3.2078   -0.5538 H   0  0  0  0  0  0  0  0  0  0  0  0
    6.3365   -3.4042    0.3403 H   0  0  0  0  0  0  0  0  0  0  0  0
    6.3995   -2.4628   -1.2049 H   0  0  0  0  0  0  0  0  0  0  0  0
    7.6105    0.2191    2.2341 H   0  0  0  0  0  0  0  0  0  0  0  0
    5.8840    1.6292    3.3104 H   0  0  0  0  0  0  0  0  0  0  0  0
    3.5245    1.4127    2.6568 H   0  0  0  0  0  0  0  0  0  0  0  0
    1.9226    0.4621    1.3547 H   0  0  0  0  0  0  0  0  0  0  0  0
    0.0680   -0.8398    1.8187 H   0  0  0  0  0  0  0  0  0  0  0  0
   -4.2951   -0.3739    3.9328 H   0  0  0  0  0  0  0  0  0  0  0  0
   -6.7258   -0.0182    3.7518 H   0  0  0  0  0  0  0  0  0  0  0  0
   -7.7671    0.2835    1.5146 H   0  0  0  0  0  0  0  0  0  0  0  0
   -6.3508    0.2629   -0.5231 H   0  0  0  0  0  0  0  0  0  0  0  0
   -3.2885   -0.3267   -2.9232 H   0  0  0  0  0  0  0  0  0  0  0  0
   -1.7735   -0.5809   -3.7116 H   0  0  0  0  0  0  0  0  0  0  0  0
   -2.6825    1.5572   -4.3260 H   0  0  0  0  0  0  0  0  0  0  0  0
   -0.8281    3.0819   -3.8864 H   0  0  0  0  0  0  0  0  0  0  0  0
   -0.2666    2.0972   -2.5371 H   0  0  0  0  0  0  0  0  0  0  0  0
   -0.2122    1.4588   -4.1938 H   0  0  0  0  0  0  0  0  0  0  0  0
   -2.5978    2.4745   -1.4166 H   0  0  0  0  0  0  0  0  0  0  0  0
   -4.0638    2.0469   -2.3271 H   0  0  0  0  0  0  0  0  0  0  0  0
   -3.0804    3.4243   -2.8184 H   0  0  0  0  0  0  0  0  0  0  0  0
    1.3806   -1.0980   -2.4979 H   0  0  0  0  0  0  0  0  0  0  0  0
    4.5911   -1.6542   -0.1638 H   0  0  0  0  0  0  0  0  0  0  0  0
  1  2  1  0
  2  3  1  0
  3  4  2  0
  4  5  1  0
  5  6  2  0
  6  7  1  0
  7  8  1  0
  8  9  1  0
  9 10  2  0
  9 11  1  0
 11 12  2  0
 12 13  1  0
 13 14  1  0
 14 15  2  0
 14 16  1  0
 16 17  1  0
 17 18  2  0
 18 19  1  0
 19 20  2  0
 20 21  1  0
 21 22  2  0
 22 23  1  0
 23 24  1  0
 24 25  1  0
 25 26  1  0
 26 27  1  0
 26 28  1  0
 24 29  1  0
 29 30  2  3
  7 31  2  0
 31  3  1  0
 29 11  1  0
 23 13  2  0
 21 16  1  0
  1 32  1  0
  1 33  1  0
  1 34  1  0
  4 35  1  0
  5 36  1  0
  6 37  1  0
  8 38  1  0
 12 39  1  0
 17 40  1  0
 18 41  1  0
 19 42  1  0
 20 43  1  0
 25 44  1  0
 25 45  1  0
 26 46  1  0
 27 47  1  0
 27 48  1  0
 27 49  1  0
 28 50  1  0
 28 51  1  0
 28 52  1  0
 30 53  1  0
 31 54  1  0
M  END
$$$$
