
     RDKit          3D

 42 43  0  0  0  0  0  0  0  0999 V2000
   -6.0777    3.3430   -2.1563 C   0  0  0  0  0  0  0  0  0  0  0  0
   -5.0095    2.8288   -1.2376 C   0  0  0  0  0  0  0  0  0  0  0  0
   -4.1684    3.7167   -0.5607 C   0  0  0  0  0  0  0  0  0  0  0  0
   -3.1550    3.2323    0.2697 C   0  0  0  0  0  0  0  0  0  0  0  0
   -2.9581    1.8594    0.4293 C   0  0  0  0  0  0  0  0  0  0  0  0
   -1.9326    1.5258    1.2690 O   0  0  0  0  0  0  0  0  0  0  0  0
   -1.6631    0.1440    1.4456 C   0  0  0  0  0  0  0  0  0  0  0  0
   -0.4786   -0.0687    2.3871 C   0  0  0  0  0  0  0  0  0  0  0  0
    0.1033    0.8208    3.0053 O   0  0  0  0  0  0  0  0  0  0  0  0
   -0.1085   -1.4033    2.5007 N   0  0  0  0  0  0  0  0  0  0  0  0
    1.1426   -1.6538    3.1128 N   0  0  0  0  0  0  0  0  0  0  0  0
    1.9886   -2.5100    2.4270 C   0  0  0  0  0  0  0  0  0  0  0  0
    1.6006   -3.2021    1.4851 O   0  0  0  0  0  0  0  0  0  0  0  0
    3.4112   -2.5393    2.9477 C   0  0  0  0  0  0  0  0  0  0  0  0
    4.2632   -0.9799    2.5893 S   0  0  0  0  0  0  0  0  0  0  0  0
    4.1396   -1.0467    0.8254 C   0  0  0  0  0  0  0  0  0  0  0  0
    3.2173   -0.2652    0.2467 N   0  0  0  0  0  0  0  0  0  0  0  0
    3.1179   -0.3648   -1.0932 C   0  0  0  0  0  0  0  0  0  0  0  0
    3.8997   -1.2048   -1.8548 C   0  0  0  0  0  0  0  0  0  0  0  0
    3.7395   -1.2653   -3.2675 C   0  0  0  0  0  0  0  0  0  0  0  0
    3.6075   -1.2796   -4.4205 N   0  0  0  0  0  0  0  0  0  0  0  0
    4.8285   -1.9585   -1.1600 C   0  0  0  0  0  0  0  0  0  0  0  0
    5.6682   -2.8809   -1.7834 N   0  0  0  0  0  0  0  0  0  0  0  0
    4.9509   -1.8973    0.1768 N   0  0  0  0  0  0  0  0  0  0  0  0
   -3.7866    0.9696   -0.2541 C   0  0  0  0  0  0  0  0  0  0  0  0
   -4.8023    1.4529   -1.0874 C   0  0  0  0  0  0  0  0  0  0  0  0
   -6.9267    2.6521   -2.1933 H   0  0  0  0  0  0  0  0  0  0  0  0
   -6.4602    4.3085   -1.8085 H   0  0  0  0  0  0  0  0  0  0  0  0
   -5.6758    3.4645   -3.1669 H   0  0  0  0  0  0  0  0  0  0  0  0
   -4.2948    4.7912   -0.6721 H   0  0  0  0  0  0  0  0  0  0  0  0
   -2.5108    3.9325    0.7965 H   0  0  0  0  0  0  0  0  0  0  0  0
   -2.5292   -0.3573    1.8944 H   0  0  0  0  0  0  0  0  0  0  0  0
   -1.4051   -0.3149    0.4832 H   0  0  0  0  0  0  0  0  0  0  0  0
   -0.3480   -2.0625    1.7584 H   0  0  0  0  0  0  0  0  0  0  0  0
    1.5497   -0.8354    3.5756 H   0  0  0  0  0  0  0  0  0  0  0  0
    3.9457   -3.3820    2.4976 H   0  0  0  0  0  0  0  0  0  0  0  0
    3.3909   -2.6993    4.0305 H   0  0  0  0  0  0  0  0  0  0  0  0
    2.3615    0.2751   -1.5423 H   0  0  0  0  0  0  0  0  0  0  0  0
    6.2833   -3.2844   -1.0794 H   0  0  0  0  0  0  0  0  0  0  0  0
    6.1905   -2.5005   -2.5663 H   0  0  0  0  0  0  0  0  0  0  0  0
   -3.6745   -0.1051   -0.1661 H   0  0  0  0  0  0  0  0  0  0  0  0
   -5.4346    0.7446   -1.6187 H   0  0  0  0  0  0  0  0  0  0  0  0
  1  2  1  0
  2  3  2  0
  3  4  1  0
  4  5  2  0
  5  6  1  0
  6  7  1  0
  7  8  1  0
  8  9  2  0
  8 10  1  0
 10 11  1  0
 11 12  1  0
 12 13  2  0
 12 14  1  0
 14 15  1  0
 15 16  1  0
 16 17  2  0
 17 18  1  0
 18 19  2  0
 19 20  1  0
 20 21  3  0
 19 22  1  0
 22 23  1  0
 22 24  2  0
  5 25  1  0
 25 26  2  0
 26  2  1  0
 24 16  1  0
  1 27  1  0
  1 28  1  0
  1 29  1  0
  3 30  1  0
  4 31  1  0
  7 32  1  0
  7 33  1  0
 10 34  1  0
 11 35  1  0
 14 36  1  0
 14 37  1  0
 18 38  1  0
 23 39  1  0
 23 40  1  0
 25 41  1  0
 26 42  1  0
M  END
$$$$
