
     RDKit          3D

 47 49  0  0  0  0  0  0  0  0999 V2000
    2.0134   -2.0104   -1.5421 O   0  0  0  0  0  0  0  0  0  0  0  0
    1.5150   -1.1978   -0.7716 C   0  0  0  0  0  0  0  0  0  0  0  0
    2.3154   -0.5398    0.3382 C   0  0  0  0  0  0  0  0  0  0  0  0
    3.7564   -1.0349    0.3424 C   0  0  0  0  0  0  0  0  0  0  0  0
    4.7171   -0.2978    1.7151 S   0  0  0  0  0  0  0  0  0  0  0  0
    4.8466    1.3923    1.1589 C   0  0  0  0  0  0  0  0  0  0  0  0
    4.3584    2.4162    1.9768 C   0  0  0  0  0  0  0  0  0  0  0  0
    4.4462    3.7487    1.5682 C   0  0  0  0  0  0  0  0  0  0  0  0
    5.0319    4.0654    0.3438 C   0  0  0  0  0  0  0  0  0  0  0  0
    5.5356    3.0514   -0.4691 C   0  0  0  0  0  0  0  0  0  0  0  0
    5.4476    1.7186   -0.0607 C   0  0  0  0  0  0  0  0  0  0  0  0
    0.2003   -0.7704   -0.7681 N   0  0  0  0  0  0  0  0  0  0  0  0
   -0.8325   -1.0922   -1.6840 C   0  0  0  0  0  0  0  0  0  0  0  0
   -0.6116   -1.8545   -2.8357 C   0  0  0  0  0  0  0  0  0  0  0  0
   -1.6448   -2.0859   -3.7515 C   0  0  0  0  0  0  0  0  0  0  0  0
   -2.9115   -1.5499   -3.5371 C   0  0  0  0  0  0  0  0  0  0  0  0
   -3.1573   -0.8013   -2.3891 C   0  0  0  0  0  0  0  0  0  0  0  0
   -2.1361   -0.6034   -1.4480 C   0  0  0  0  0  0  0  0  0  0  0  0
   -2.4303    0.1657   -0.2130 C   0  0  0  0  0  0  0  0  0  0  0  0
   -1.6778    1.0951    0.0777 O   0  0  0  0  0  0  0  0  0  0  0  0
   -3.4841   -0.2283    0.5949 N   0  0  0  0  0  0  0  0  0  0  0  0
   -3.7514    0.4729    1.8419 C   0  0  0  0  0  0  0  0  0  0  0  0
   -4.4592   -0.5501    2.7188 C   0  0  0  0  0  0  0  0  0  0  0  0
   -5.1830   -1.4250    1.7063 C   0  0  0  0  0  0  0  0  0  0  0  0
   -4.1885   -1.5054    0.5565 C   0  0  0  0  0  0  0  0  0  0  0  0
    1.8285   -0.7732    1.2930 H   0  0  0  0  0  0  0  0  0  0  0  0
    2.2746    0.5439    0.1796 H   0  0  0  0  0  0  0  0  0  0  0  0
    4.2503   -0.8372   -0.6145 H   0  0  0  0  0  0  0  0  0  0  0  0
    3.7756   -2.1210    0.4870 H   0  0  0  0  0  0  0  0  0  0  0  0
    3.9028    2.1847    2.9367 H   0  0  0  0  0  0  0  0  0  0  0  0
    4.0597    4.5385    2.2071 H   0  0  0  0  0  0  0  0  0  0  0  0
    5.1019    5.1026    0.0263 H   0  0  0  0  0  0  0  0  0  0  0  0
    6.0024    3.2977   -1.4194 H   0  0  0  0  0  0  0  0  0  0  0  0
    5.8619    0.9434   -0.7001 H   0  0  0  0  0  0  0  0  0  0  0  0
   -0.0559   -0.0747   -0.0653 H   0  0  0  0  0  0  0  0  0  0  0  0
    0.3658   -2.2666   -3.0681 H   0  0  0  0  0  0  0  0  0  0  0  0
   -1.4458   -2.6714   -4.6466 H   0  0  0  0  0  0  0  0  0  0  0  0
   -3.7019   -1.7112   -4.2660 H   0  0  0  0  0  0  0  0  0  0  0  0
   -4.1406   -0.3645   -2.2345 H   0  0  0  0  0  0  0  0  0  0  0  0
   -4.4076    1.3185    1.6085 H   0  0  0  0  0  0  0  0  0  0  0  0
   -2.8339    0.8510    2.3027 H   0  0  0  0  0  0  0  0  0  0  0  0
   -5.1324   -0.0883    3.4462 H   0  0  0  0  0  0  0  0  0  0  0  0
   -3.7213   -1.1499    3.2651 H   0  0  0  0  0  0  0  0  0  0  0  0
   -6.1015   -0.9256    1.3751 H   0  0  0  0  0  0  0  0  0  0  0  0
   -5.4499   -2.4085    2.1021 H   0  0  0  0  0  0  0  0  0  0  0  0
   -4.6932   -1.6635   -0.3979 H   0  0  0  0  0  0  0  0  0  0  0  0
   -3.4551   -2.3039    0.7137 H   0  0  0  0  0  0  0  0  0  0  0  0
  1  2  2  0
  2  3  1  0
  3  4  1  0
  4  5  1  0
  5  6  1  0
  6  7  2  0
  7  8  1  0
  8  9  2  0
  9 10  1  0
 10 11  2  0
  2 12  1  0
 12 13  1  0
 13 14  2  0
 14 15  1  0
 15 16  2  0
 16 17  1  0
 17 18  2  0
 18 19  1  0
 19 20  2  0
 19 21  1  0
 21 22  1  0
 22 23  1  0
 23 24  1  0
 24 25  1  0
 11  6  1  0
 18 13  1  0
 25 21  1  0
  3 26  1  0
  3 27  1  0
  4 28  1  0
  4 29  1  0
  7 30  1  0
  8 31  1  0
  9 32  1  0
 10 33  1  0
 11 34  1  0
 12 35  1  0
 14 36  1  0
 15 37  1  0
 16 38  1  0
 17 39  1  0
 22 40  1  0
 22 41  1  0
 23 42  1  0
 23 43  1  0
 24 44  1  0
 24 45  1  0
 25 46  1  0
 25 47  1  0
M  END
$$$$
