
     RDKit          3D

 66 72  0  0  0  0  0  0  0  0999 V2000
    1.8468   -0.0614    1.5248 O   0  0  0  0  0  0  0  0  0  0  0  0
    1.7958   -0.2718    0.3198 C   0  0  0  0  0  0  0  0  0  0  0  0
    2.7302   -0.9916   -0.4419 N   0  0  0  0  0  0  0  0  0  0  0  0
    3.9310   -1.5714    0.1169 C   0  0  0  0  0  0  0  0  0  0  0  0
    5.1253   -0.6486    0.0348 C   0  0  0  0  0  0  0  0  0  0  0  0
    6.1668   -0.8972   -0.8712 C   0  0  0  0  0  0  0  0  0  0  0  0
    7.2628   -0.0355   -0.9477 C   0  0  0  0  0  0  0  0  0  0  0  0
    7.3326    1.0817   -0.1177 C   0  0  0  0  0  0  0  0  0  0  0  0
    6.3078    1.3378    0.7904 C   0  0  0  0  0  0  0  0  0  0  0  0
    5.2108    0.4782    0.8672 C   0  0  0  0  0  0  0  0  0  0  0  0
    2.4058   -0.9535   -1.8075 C   0  0  0  0  0  0  0  0  0  0  0  0
    3.0815   -1.5175   -2.8742 C   0  0  0  0  0  0  0  0  0  0  0  0
    2.5561   -1.3349   -4.1570 C   0  0  0  0  0  0  0  0  0  0  0  0
    1.3773   -0.5978   -4.3536 C   0  0  0  0  0  0  0  0  0  0  0  0
    0.7024   -0.0350   -3.2698 C   0  0  0  0  0  0  0  0  0  0  0  0
    1.2231   -0.2278   -1.9975 C   0  0  0  0  0  0  0  0  0  0  0  0
    0.7128    0.2362   -0.6683 C   0  0  0  0  0  0  0  0  0  0  0  0
    0.4910    1.7132   -0.5604 N   0  0  0  0  0  0  0  0  0  0  0  0
   -0.8389    1.9662    0.1172 C   0  0  2  0  0  0  0  0  0  0  0  0
   -0.6270    2.4449    1.5690 C   0  0  0  0  0  0  0  0  0  0  0  0
   -1.8686    2.9687    2.2545 C   0  0  0  0  0  0  0  0  0  0  0  0
   -2.4292    2.2730    3.3347 C   0  0  0  0  0  0  0  0  0  0  0  0
   -3.5658    2.7625    3.9804 C   0  0  0  0  0  0  0  0  0  0  0  0
   -4.1516    3.9530    3.5551 C   0  0  0  0  0  0  0  0  0  0  0  0
   -3.6015    4.6543    2.4838 C   0  0  0  0  0  0  0  0  0  0  0  0
   -2.4651    4.1664    1.8368 C   0  0  0  0  0  0  0  0  0  0  0  0
   -1.5006    0.6461   -0.0031 C   0  0  0  0  0  0  0  0  0  0  0  0
   -0.6197   -0.3429   -0.4333 C   0  0  0  0  0  0  0  0  0  0  0  0
   -1.2930   -1.5374   -0.4973 C   0  0  0  0  0  0  0  0  0  0  0  0
   -0.8732   -2.7373   -0.8939 O   0  0  0  0  0  0  0  0  0  0  0  0
   -2.6328   -1.2778   -0.1460 N   0  0  0  0  0  0  0  0  0  0  0  0
   -3.7119   -2.2187   -0.1771 C   0  0  0  0  0  0  0  0  0  0  0  0
   -5.0106   -1.7962   -0.5005 C   0  0  0  0  0  0  0  0  0  0  0  0
   -6.0660   -2.7117   -0.5235 C   0  0  0  0  0  0  0  0  0  0  0  0
   -5.8342   -4.0534   -0.2300 C   0  0  0  0  0  0  0  0  0  0  0  0
   -4.5455   -4.4838    0.0777 C   0  0  0  0  0  0  0  0  0  0  0  0
   -3.4854   -3.5729    0.0995 C   0  0  0  0  0  0  0  0  0  0  0  0
   -2.7314    0.0850    0.1991 C   0  0  0  0  0  0  0  0  0  0  0  0
   -3.8266    0.6683    0.6807 O   0  0  0  0  0  0  0  0  0  0  0  0
    4.1344   -2.5278   -0.3792 H   0  0  0  0  0  0  0  0  0  0  0  0
    3.7505   -1.8104    1.1727 H   0  0  0  0  0  0  0  0  0  0  0  0
    6.1366   -1.7655   -1.5247 H   0  0  0  0  0  0  0  0  0  0  0  0
    8.0638   -0.2357   -1.6551 H   0  0  0  0  0  0  0  0  0  0  0  0
    8.1859    1.7518   -0.1769 H   0  0  0  0  0  0  0  0  0  0  0  0
    6.3621    2.2070    1.4412 H   0  0  0  0  0  0  0  0  0  0  0  0
    4.4212    0.6909    1.5863 H   0  0  0  0  0  0  0  0  0  0  0  0
    3.9939   -2.0858   -2.7442 H   0  0  0  0  0  0  0  0  0  0  0  0
    3.0684   -1.7627   -5.0163 H   0  0  0  0  0  0  0  0  0  0  0  0
    0.9872   -0.4607   -5.3599 H   0  0  0  0  0  0  0  0  0  0  0  0
   -0.2085    0.5389   -3.4169 H   0  0  0  0  0  0  0  0  0  0  0  0
    1.2391    2.1019    0.0108 H   0  0  0  0  0  0  0  0  0  0  0  0
   -1.3721    2.7196   -0.4731 H   0  0  0  0  0  0  0  0  0  0  0  0
   -0.1876    1.6416    2.1749 H   0  0  0  0  0  0  0  0  0  0  0  0
    0.1091    3.2609    1.5829 H   0  0  0  0  0  0  0  0  0  0  0  0
   -1.9851    1.3403    3.6752 H   0  0  0  0  0  0  0  0  0  0  0  0
   -3.9937    2.2133    4.8145 H   0  0  0  0  0  0  0  0  0  0  0  0
   -5.0365    4.3341    4.0570 H   0  0  0  0  0  0  0  0  0  0  0  0
   -4.0579    5.5823    2.1506 H   0  0  0  0  0  0  0  0  0  0  0  0
   -2.0473    4.7291    1.0054 H   0  0  0  0  0  0  0  0  0  0  0  0
    0.0180   -2.6351   -1.2725 H   0  0  0  0  0  0  0  0  0  0  0  0
   -5.2181   -0.7689   -0.7925 H   0  0  0  0  0  0  0  0  0  0  0  0
   -7.0668   -2.3783   -0.7865 H   0  0  0  0  0  0  0  0  0  0  0  0
   -6.6553   -4.7657   -0.2509 H   0  0  0  0  0  0  0  0  0  0  0  0
   -4.3610   -5.5312    0.3031 H   0  0  0  0  0  0  0  0  0  0  0  0
   -2.4981   -3.9399    0.3669 H   0  0  0  0  0  0  0  0  0  0  0  0
   -4.3631   -0.0037    1.1366 H   0  0  0  0  0  0  0  0  0  0  0  0
  1  2  2  0
  2  3  1  0
  3  4  1  0
  4  5  1  0
  5  6  2  0
  6  7  1  0
  7  8  2  0
  8  9  1  0
  9 10  2  0
  3 11  1  0
 11 12  2  0
 12 13  1  0
 13 14  2  0
 14 15  1  0
 15 16  2  0
 16 17  1  0
 17 18  1  0
 18 19  1  0
 19 20  1  0
 20 21  1  0
 21 22  2  0
 22 23  1  0
 23 24  2  0
 24 25  1  0
 25 26  2  0
 19 27  1  0
 27 28  1  0
 28 29  2  0
 29 30  1  0
 29 31  1  0
 31 32  1  0
 32 33  2  0
 33 34  1  0
 34 35  2  0
 35 36  1  0
 36 37  2  0
 31 38  1  0
 38 39  1  0
 17  2  1  0
 26 21  1  0
 38 27  2  0
 10  5  1  0
 16 11  1  0
 28 17  1  0
 37 32  1  0
  4 40  1  0
  4 41  1  0
  6 42  1  0
  7 43  1  0
  8 44  1  0
  9 45  1  0
 10 46  1  0
 12 47  1  0
 13 48  1  0
 14 49  1  0
 15 50  1  0
 18 51  1  0
 19 52  1  6
 20 53  1  0
 20 54  1  0
 22 55  1  0
 23 56  1  0
 24 57  1  0
 25 58  1  0
 26 59  1  0
 30 60  1  0
 33 61  1  0
 34 62  1  0
 35 63  1  0
 36 64  1  0
 37 65  1  0
 39 66  1  0
M  END
$$$$
