
     RDKit          3D

 64 68  0  0  0  0  0  0  0  0999 V2000
    1.5538   -0.2270    2.1741 O   0  0  0  0  0  0  0  0  0  0  0  0
    1.6496   -0.3021    0.9474 C   0  0  0  0  0  0  0  0  0  0  0  0
    0.4725    0.0887    0.0457 C   0  0  0  0  0  0  0  0  0  0  0  0
   -0.0968   -1.1533   -0.6552 C   0  0  0  0  0  0  0  0  0  0  0  0
   -1.3203   -0.8172   -1.5071 C   0  0  0  0  0  0  0  0  0  0  0  0
   -2.4272   -0.0984   -0.7186 C   0  0  0  0  0  0  0  0  0  0  0  0
   -3.1446   -1.0731    0.2384 C   0  0  0  0  0  0  0  0  0  0  0  0
   -4.2998   -0.4550    0.8700 N   0  0  0  0  0  0  0  0  0  0  0  0
   -5.5223   -0.1421    0.2948 C   0  0  0  0  0  0  0  0  0  0  0  0
   -5.8397   -0.6824   -0.9233 N   0  0  0  0  0  0  0  0  0  0  0  0
   -6.9955   -0.4660   -1.6240 C   0  0  0  0  0  0  0  0  0  0  0  0
   -7.1651   -1.2376   -3.1035 S   0  0  0  0  0  0  0  0  0  0  0  0
   -7.9391    0.3627   -1.0890 N   0  0  0  0  0  0  0  0  0  0  0  0
   -7.6854    0.8875    0.0666 C   0  0  0  0  0  0  0  0  0  0  0  0
   -8.7028    1.7941    0.6699 C   0  0  0  0  0  0  0  0  0  0  0  0
   -8.4964    2.3598    1.8659 C   0  0  0  0  0  0  0  0  0  0  0  0
   -7.2961    2.1219    2.6284 C   0  0  0  0  0  0  0  0  0  0  0  0
   -6.3214    1.3266    2.1654 C   0  0  0  0  0  0  0  0  0  0  0  0
   -6.4368    0.6700    0.8732 C   0  0  0  0  0  0  0  0  0  0  0  0
   -1.8424    1.1316   -0.0041 C   0  0  0  0  0  0  0  0  0  0  0  0
   -0.6270    0.7958    0.8580 C   0  0  0  0  0  0  0  0  0  0  0  0
    2.8045   -0.7854    0.3395 N   0  0  0  0  0  0  0  0  0  0  0  0
    3.2447   -0.3927   -1.0084 C   0  0  0  0  0  0  0  0  0  0  0  0
    4.2312    0.7958   -0.9315 C   0  0  0  0  0  0  0  0  0  0  0  0
    5.3573    0.5109   -0.0108 N   0  0  0  0  0  0  0  0  0  0  0  0
    6.5450   -0.0487   -0.4857 C   0  0  0  0  0  0  0  0  0  0  0  0
    7.7063   -0.0059    0.3104 C   0  0  0  0  0  0  0  0  0  0  0  0
    8.9234   -0.5419   -0.1230 C   0  0  0  0  0  0  0  0  0  0  0  0
    9.0008   -1.1244   -1.3761 C   0  0  0  0  0  0  0  0  0  0  0  0
   10.1620   -1.6395   -1.7993 F   0  0  0  0  0  0  0  0  0  0  0  0
    7.8883   -1.1696   -2.2004 C   0  0  0  0  0  0  0  0  0  0  0  0
    6.6744   -0.6280   -1.7587 C   0  0  0  0  0  0  0  0  0  0  0  0
    4.9036    0.0684    1.3397 C   0  0  0  0  0  0  0  0  0  0  0  0
    3.9349   -1.1273    1.2160 C   0  0  0  0  0  0  0  0  0  0  0  0
    0.8273    0.8131   -0.6962 H   0  0  0  0  0  0  0  0  0  0  0  0
   -0.3585   -1.9141    0.0909 H   0  0  0  0  0  0  0  0  0  0  0  0
    0.6599   -1.6182   -1.2970 H   0  0  0  0  0  0  0  0  0  0  0  0
   -1.0021   -0.1724   -2.3367 H   0  0  0  0  0  0  0  0  0  0  0  0
   -1.7140   -1.7336   -1.9626 H   0  0  0  0  0  0  0  0  0  0  0  0
   -3.1638    0.2644   -1.4473 H   0  0  0  0  0  0  0  0  0  0  0  0
   -3.4542   -1.9773   -0.2985 H   0  0  0  0  0  0  0  0  0  0  0  0
   -2.4689   -1.4146    1.0294 H   0  0  0  0  0  0  0  0  0  0  0  0
   -4.0666    0.0878    1.6947 H   0  0  0  0  0  0  0  0  0  0  0  0
   -5.1852   -1.3129   -1.3584 H   0  0  0  0  0  0  0  0  0  0  0  0
   -9.6056    1.9676    0.0964 H   0  0  0  0  0  0  0  0  0  0  0  0
   -9.2458    3.0178    2.2959 H   0  0  0  0  0  0  0  0  0  0  0  0
   -7.2066    2.6043    3.5975 H   0  0  0  0  0  0  0  0  0  0  0  0
   -5.4410    1.1652    2.7750 H   0  0  0  0  0  0  0  0  0  0  0  0
   -1.5402    1.8656   -0.7625 H   0  0  0  0  0  0  0  0  0  0  0  0
   -2.6033    1.6262    0.6091 H   0  0  0  0  0  0  0  0  0  0  0  0
   -0.2256    1.7215    1.2894 H   0  0  0  0  0  0  0  0  0  0  0  0
   -0.9383    0.1753    1.7070 H   0  0  0  0  0  0  0  0  0  0  0  0
    2.4050   -0.1273   -1.6518 H   0  0  0  0  0  0  0  0  0  0  0  0
    3.7286   -1.2695   -1.4529 H   0  0  0  0  0  0  0  0  0  0  0  0
    3.6957    1.6684   -0.5353 H   0  0  0  0  0  0  0  0  0  0  0  0
    4.5780    1.0872   -1.9291 H   0  0  0  0  0  0  0  0  0  0  0  0
    7.6836    0.4863    1.2799 H   0  0  0  0  0  0  0  0  0  0  0  0
    9.8052   -0.4937    0.5067 H   0  0  0  0  0  0  0  0  0  0  0  0
    7.9667   -1.6223   -3.1833 H   0  0  0  0  0  0  0  0  0  0  0  0
    5.8321   -0.6897   -2.4390 H   0  0  0  0  0  0  0  0  0  0  0  0
    4.3846    0.9119    1.8120 H   0  0  0  0  0  0  0  0  0  0  0  0
    5.7294   -0.2013    2.0053 H   0  0  0  0  0  0  0  0  0  0  0  0
    4.4468   -1.9883    0.7697 H   0  0  0  0  0  0  0  0  0  0  0  0
    3.5829   -1.4318    2.2069 H   0  0  0  0  0  0  0  0  0  0  0  0
  1  2  2  0
  2  3  1  0
  3  4  1  0
  4  5  1  0
  5  6  1  0
  6  7  1  0
  7  8  1  0
  8  9  1  0
  9 10  1  0
 10 11  1  0
 11 12  2  0
 11 13  1  0
 13 14  2  0
 14 15  1  0
 15 16  2  0
 16 17  1  0
 17 18  2  0
 18 19  1  0
  6 20  1  0
 20 21  1  0
  2 22  1  0
 22 23  1  0
 23 24  1  0
 24 25  1  0
 25 26  1  0
 26 27  2  0
 27 28  1  0
 28 29  2  0
 29 30  1  0
 29 31  1  0
 31 32  2  0
 25 33  1  0
 33 34  1  0
 21  3  1  0
 34 22  1  0
 19  9  2  0
 32 26  1  0
 19 14  1  0
  3 35  1  0
  4 36  1  0
  4 37  1  0
  5 38  1  0
  5 39  1  0
  6 40  1  0
  7 41  1  0
  7 42  1  0
  8 43  1  0
 10 44  1  0
 15 45  1  0
 16 46  1  0
 17 47  1  0
 18 48  1  0
 20 49  1  0
 20 50  1  0
 21 51  1  0
 21 52  1  0
 23 53  1  0
 23 54  1  0
 24 55  1  0
 24 56  1  0
 27 57  1  0
 28 58  1  0
 31 59  1  0
 32 60  1  0
 33 61  1  0
 33 62  1  0
 34 63  1  0
 34 64  1  0
M  END
$$$$
