
     RDKit          3D

 35 37  0  0  0  0  0  0  0  0999 V2000
    6.0049   -1.0375    0.0421 C   0  0  0  0  0  0  0  0  0  0  0  0
    4.7003   -0.5290   -0.5541 C   0  0  0  0  0  0  0  0  0  0  0  0
    4.4219    0.9082   -0.1188 C   0  0  0  0  0  0  0  0  0  0  0  0
    2.8856    1.5455   -0.8584 S   0  0  0  0  0  0  0  0  0  0  0  0
    1.6872    0.8088    0.1496 C   0  0  0  0  0  0  0  0  0  0  0  0
    1.9066    0.1080    1.2342 N   0  0  0  0  0  0  0  0  0  0  0  0
    0.6872   -0.3027    1.7090 N   0  0  0  0  0  0  0  0  0  0  0  0
   -0.2527    0.1040    0.8709 C   0  0  0  0  0  0  0  0  0  0  0  0
   -1.7530   -0.3089    1.0670 C   0  0  0  0  0  0  0  0  0  0  0  0
   -2.1582   -0.8755    2.2591 C   0  0  0  0  0  0  0  0  0  0  0  0
   -3.5060   -1.0747    2.2039 N   0  0  0  0  0  0  0  0  0  0  0  0
   -3.9862   -0.7098    0.9682 C   0  0  0  0  0  0  0  0  0  0  0  0
   -5.2952   -0.7750    0.4723 C   0  0  0  0  0  0  0  0  0  0  0  0
   -5.5115   -0.3927   -0.8516 C   0  0  0  0  0  0  0  0  0  0  0  0
   -4.4532    0.0191   -1.6517 C   0  0  0  0  0  0  0  0  0  0  0  0
   -3.1509    0.0810   -1.1376 C   0  0  0  0  0  0  0  0  0  0  0  0
   -2.8981   -0.2537    0.2114 C   0  0  0  0  0  0  0  0  0  0  0  0
    0.3388    0.9022   -0.0788 N   0  0  0  0  0  0  0  0  0  0  0  0
   -0.3011    1.8253   -0.9753 C   0  0  0  0  0  0  0  0  0  0  0  0
    5.9664   -1.0263    1.1361 H   0  0  0  0  0  0  0  0  0  0  0  0
    6.1935   -2.0662   -0.2806 H   0  0  0  0  0  0  0  0  0  0  0  0
    6.8502   -0.4205   -0.2791 H   0  0  0  0  0  0  0  0  0  0  0  0
    3.8900   -1.1965   -0.2395 H   0  0  0  0  0  0  0  0  0  0  0  0
    4.7667   -0.5883   -1.6472 H   0  0  0  0  0  0  0  0  0  0  0  0
    4.3828    0.9950    0.9723 H   0  0  0  0  0  0  0  0  0  0  0  0
    5.2364    1.5565   -0.4604 H   0  0  0  0  0  0  0  0  0  0  0  0
   -1.5960   -1.1163    3.1525 H   0  0  0  0  0  0  0  0  0  0  0  0
   -4.0697   -1.4596    2.9495 H   0  0  0  0  0  0  0  0  0  0  0  0
   -6.1173   -1.1251    1.0888 H   0  0  0  0  0  0  0  0  0  0  0  0
   -6.5159   -0.4392   -1.2662 H   0  0  0  0  0  0  0  0  0  0  0  0
   -4.6339    0.2827   -2.6911 H   0  0  0  0  0  0  0  0  0  0  0  0
   -2.3484    0.3558   -1.8096 H   0  0  0  0  0  0  0  0  0  0  0  0
    0.2748    2.7533   -1.0252 H   0  0  0  0  0  0  0  0  0  0  0  0
   -1.2914    2.0837   -0.5972 H   0  0  0  0  0  0  0  0  0  0  0  0
   -0.3546    1.3684   -1.9655 H   0  0  0  0  0  0  0  0  0  0  0  0
  1  2  1  0
  2  3  1  0
  3  4  1  0
  4  5  1  0
  5  6  2  0
  6  7  1  0
  7  8  2  0
  8  9  1  0
  9 10  2  0
 10 11  1  0
 11 12  1  0
 12 13  2  0
 13 14  1  0
 14 15  2  0
 15 16  1  0
 16 17  2  0
  8 18  1  0
 18 19  1  0
 18  5  1  0
 17  9  1  0
 17 12  1  0
  1 20  1  0
  1 21  1  0
  1 22  1  0
  2 23  1  0
  2 24  1  0
  3 25  1  0
  3 26  1  0
 10 27  1  0
 11 28  1  0
 13 29  1  0
 14 30  1  0
 15 31  1  0
 16 32  1  0
 19 33  1  0
 19 34  1  0
 19 35  1  0
M  END
$$$$
