
     RDKit          3D

 57 59  0  0  0  0  0  0  0  0999 V2000
   -4.6372   -4.3072    2.0026 C   0  0  0  0  0  0  0  0  0  0  0  0
   -4.5059   -2.8524    1.6711 C   0  0  0  0  0  0  0  0  0  0  0  0
   -3.5555   -2.0685    2.3462 C   0  0  0  0  0  0  0  0  0  0  0  0
   -3.4205   -0.7113    2.0449 C   0  0  0  0  0  0  0  0  0  0  0  0
   -4.2215   -0.1375    1.0492 C   0  0  0  0  0  0  0  0  0  0  0  0
   -4.0115    1.5923    0.6763 S   0  0  0  0  0  6  0  0  0  0  0  0
   -4.9523    1.9829   -0.3527 O   0  0  0  0  0  0  0  0  0  0  0  0
   -3.9466    2.2976    1.9411 O   0  0  0  0  0  0  0  0  0  0  0  0
   -2.4465    1.6030   -0.0319 N   0  0  0  0  0  0  0  0  0  0  0  0
   -2.3208    0.8459   -1.3089 C   0  0  0  0  0  0  0  0  0  0  0  0
   -1.5116    1.5951   -2.3646 C   0  0  0  0  0  0  0  0  0  0  0  0
   -0.1960    2.1840   -1.8396 C   0  0  0  0  0  0  0  0  0  0  0  0
    0.9539    1.1747   -1.9492 C   0  0  0  0  0  0  0  0  0  0  0  0
    1.9476    1.3980   -2.6523 O   0  0  0  0  0  0  0  0  0  0  0  0
    0.8113    0.0055   -1.2282 N   0  0  0  0  0  0  0  0  0  0  0  0
    1.8613   -1.0118   -1.2290 C   0  0  0  0  0  0  0  0  0  0  0  0
    1.2619   -2.3789   -0.9228 C   0  0  0  0  0  0  0  0  0  0  0  0
    2.8995   -0.6009   -0.1648 C   0  0  0  0  0  0  0  0  0  0  0  0
    2.8118   -0.9850    0.9850 O   0  0  0  0  0  0  0  0  0  0  0  0
    3.8223    0.3043   -0.6446 N   0  0  0  0  0  0  0  0  0  0  0  0
    4.9699    0.7978    0.0088 C   0  0  0  0  0  0  0  0  0  0  0  0
    5.3500    0.4272    1.3099 C   0  0  0  0  0  0  0  0  0  0  0  0
    6.5344    0.9178    1.8701 C   0  0  0  0  0  0  0  0  0  0  0  0
    7.3384    1.7793    1.1243 C   0  0  0  0  0  0  0  0  0  0  0  0
    8.4794    2.2395    1.6581 F   0  0  0  0  0  0  0  0  0  0  0  0
    6.9724    2.1716   -0.1639 C   0  0  0  0  0  0  0  0  0  0  0  0
    5.7866    1.6808   -0.7206 C   0  0  0  0  0  0  0  0  0  0  0  0
   -0.3275    2.7567   -0.4228 C   0  0  0  0  0  0  0  0  0  0  0  0
   -1.7833    2.9305   -0.0129 C   0  0  0  0  0  0  0  0  0  0  0  0
   -5.1674   -0.9067    0.3671 C   0  0  0  0  0  0  0  0  0  0  0  0
   -5.3006   -2.2675    0.6785 C   0  0  0  0  0  0  0  0  0  0  0  0
   -4.6959   -4.4501    3.0896 H   0  0  0  0  0  0  0  0  0  0  0  0
   -3.7766   -4.8562    1.6229 H   0  0  0  0  0  0  0  0  0  0  0  0
   -5.5512   -4.7375    1.5653 H   0  0  0  0  0  0  0  0  0  0  0  0
   -2.9085   -2.5147    3.1073 H   0  0  0  0  0  0  0  0  0  0  0  0
   -2.6855   -0.1088    2.5787 H   0  0  0  0  0  0  0  0  0  0  0  0
   -1.8507   -0.1240   -1.0724 H   0  0  0  0  0  0  0  0  0  0  0  0
   -3.3073    0.6080   -1.7409 H   0  0  0  0  0  0  0  0  0  0  0  0
   -2.1353    2.4150   -2.7521 H   0  0  0  0  0  0  0  0  0  0  0  0
   -1.3241    0.9297   -3.2180 H   0  0  0  0  0  0  0  0  0  0  0  0
    0.0802    3.0090   -2.5198 H   0  0  0  0  0  0  0  0  0  0  0  0
    0.2339    0.0369   -0.3909 H   0  0  0  0  0  0  0  0  0  0  0  0
    2.3401   -1.0473   -2.2189 H   0  0  0  0  0  0  0  0  0  0  0  0
    0.5476   -2.6477   -1.7032 H   0  0  0  0  0  0  0  0  0  0  0  0
    0.7306   -2.3942    0.0427 H   0  0  0  0  0  0  0  0  0  0  0  0
    2.0344   -3.1593   -0.8845 H   0  0  0  0  0  0  0  0  0  0  0  0
    3.6316    0.6742   -1.5694 H   0  0  0  0  0  0  0  0  0  0  0  0
    4.7413   -0.2428    1.9184 H   0  0  0  0  0  0  0  0  0  0  0  0
    6.8388    0.6274    2.8788 H   0  0  0  0  0  0  0  0  0  0  0  0
    7.6153    2.8505   -0.7301 H   0  0  0  0  0  0  0  0  0  0  0  0
    5.5202    1.9862   -1.7342 H   0  0  0  0  0  0  0  0  0  0  0  0
    0.1820    2.1245    0.3181 H   0  0  0  0  0  0  0  0  0  0  0  0
    0.1780    3.7283   -0.3799 H   0  0  0  0  0  0  0  0  0  0  0  0
   -2.3070    3.6380   -0.6761 H   0  0  0  0  0  0  0  0  0  0  0  0
   -1.7959    3.3466    1.0070 H   0  0  0  0  0  0  0  0  0  0  0  0
   -5.7952   -0.4641   -0.4039 H   0  0  0  0  0  0  0  0  0  0  0  0
   -6.0370   -2.8644    0.1410 H   0  0  0  0  0  0  0  0  0  0  0  0
  1  2  1  0
  2  3  2  0
  3  4  1  0
  4  5  2  0
  5  6  1  0
  6  7  2  0
  6  8  2  0
  6  9  1  0
  9 10  1  0
 10 11  1  0
 11 12  1  0
 12 13  1  0
 13 14  2  0
 13 15  1  0
 15 16  1  0
 16 17  1  0
 16 18  1  0
 18 19  2  0
 18 20  1  0
 20 21  1  0
 21 22  2  0
 22 23  1  0
 23 24  2  0
 24 25  1  0
 24 26  1  0
 26 27  2  0
 12 28  1  0
 28 29  1  0
  5 30  1  0
 30 31  2  0
 31  2  1  0
 29  9  1  0
 27 21  1  0
  1 32  1  0
  1 33  1  0
  1 34  1  0
  3 35  1  0
  4 36  1  0
 10 37  1  0
 10 38  1  0
 11 39  1  0
 11 40  1  0
 12 41  1  0
 15 42  1  0
 16 43  1  0
 17 44  1  0
 17 45  1  0
 17 46  1  0
 20 47  1  0
 22 48  1  0
 23 49  1  0
 26 50  1  0
 27 51  1  0
 28 52  1  0
 28 53  1  0
 29 54  1  0
 29 55  1  0
 30 56  1  0
 31 57  1  0
M  END
$$$$
