
     RDKit          3D

 38 40  0  0  0  0  0  0  0  0999 V2000
   -0.8116    2.3012    3.6263 C   0  0  0  0  0  0  0  0  0  0  0  0
   -0.5153    1.5413    2.4553 O   0  0  0  0  0  0  0  0  0  0  0  0
    0.0824    2.2639    1.4838 C   0  0  0  0  0  0  0  0  0  0  0  0
    0.3702    3.4457    1.4905 O   0  0  0  0  0  0  0  0  0  0  0  0
    0.3641    1.3573    0.3018 C   0  0  0  0  0  0  0  0  0  0  0  0
    1.4997    0.7325    0.3104 N   0  0  0  0  0  0  0  0  0  0  0  0
    1.8063   -0.1019   -0.7550 N   0  0  0  0  0  0  0  0  0  0  0  0
    3.0906   -0.7485   -0.6252 C   0  0  0  0  0  0  0  0  0  0  0  0
    3.9080   -0.4787    0.4917 C   0  0  0  0  0  0  0  0  0  0  0  0
    5.1590   -1.0853    0.6561 C   0  0  0  0  0  0  0  0  0  0  0  0
    5.6265   -1.9820   -0.2955 C   0  0  0  0  0  0  0  0  0  0  0  0
    4.8424   -2.2686   -1.4067 C   0  0  0  0  0  0  0  0  0  0  0  0
    3.5901   -1.6589   -1.5684 C   0  0  0  0  0  0  0  0  0  0  0  0
    0.9414   -0.2744   -1.8440 C   0  0  0  0  0  0  0  0  0  0  0  0
    1.1108   -0.9668   -2.8450 O   0  0  0  0  0  0  0  0  0  0  0  0
   -0.3405    0.4655   -1.7841 C   0  0  0  0  0  0  0  0  0  0  0  0
   -0.6608    1.2484   -0.7540 C   0  0  0  0  0  0  0  0  0  0  0  0
   -2.1448    2.1200   -0.6460 S   0  0  0  0  0  0  0  0  0  0  0  0
   -3.2934    0.7572   -0.5621 C   0  0  0  0  0  0  0  0  0  0  0  0
   -4.1752    0.5340   -1.6259 C   0  0  0  0  0  0  0  0  0  0  0  0
   -5.0855   -0.5255   -1.5771 C   0  0  0  0  0  0  0  0  0  0  0  0
   -5.1199   -1.3580   -0.4605 C   0  0  0  0  0  0  0  0  0  0  0  0
   -6.2406   -2.6609   -0.3992 Cl  0  0  0  0  0  0  0  0  0  0  0  0
   -4.2545   -1.1378    0.6091 C   0  0  0  0  0  0  0  0  0  0  0  0
   -3.3442   -0.0781    0.5606 C   0  0  0  0  0  0  0  0  0  0  0  0
   -1.5137    3.1077    3.3921 H   0  0  0  0  0  0  0  0  0  0  0  0
   -1.2821    1.6336    4.3535 H   0  0  0  0  0  0  0  0  0  0  0  0
    0.1065    2.7021    4.0672 H   0  0  0  0  0  0  0  0  0  0  0  0
    3.5860    0.2187    1.2613 H   0  0  0  0  0  0  0  0  0  0  0  0
    5.7627   -0.8513    1.5290 H   0  0  0  0  0  0  0  0  0  0  0  0
    6.5969   -2.4552   -0.1734 H   0  0  0  0  0  0  0  0  0  0  0  0
    5.1992   -2.9695   -2.1577 H   0  0  0  0  0  0  0  0  0  0  0  0
    3.0337   -1.9334   -2.4578 H   0  0  0  0  0  0  0  0  0  0  0  0
   -0.9965    0.3154   -2.6337 H   0  0  0  0  0  0  0  0  0  0  0  0
   -4.1634    1.1806   -2.5010 H   0  0  0  0  0  0  0  0  0  0  0  0
   -5.7642   -0.6926   -2.4097 H   0  0  0  0  0  0  0  0  0  0  0  0
   -4.2854   -1.7832    1.4834 H   0  0  0  0  0  0  0  0  0  0  0  0
   -2.6850    0.0854    1.4097 H   0  0  0  0  0  0  0  0  0  0  0  0
  1  2  1  0
  2  3  1  0
  3  4  2  0
  3  5  1  0
  5  6  2  0
  6  7  1  0
  7  8  1  0
  8  9  2  0
  9 10  1  0
 10 11  2  0
 11 12  1  0
 12 13  2  0
  7 14  1  0
 14 15  2  0
 14 16  1  0
 16 17  2  0
 17 18  1  0
 18 19  1  0
 19 20  2  0
 20 21  1  0
 21 22  2  0
 22 23  1  0
 22 24  1  0
 24 25  2  0
 17  5  1  0
 25 19  1  0
 13  8  1  0
  1 26  1  0
  1 27  1  0
  1 28  1  0
  9 29  1  0
 10 30  1  0
 11 31  1  0
 12 32  1  0
 13 33  1  0
 16 34  1  0
 20 35  1  0
 21 36  1  0
 24 37  1  0
 25 38  1  0
M  END
$$$$
