
     RDKit          3D

 45 46  0  0  0  0  0  0  0  0999 V2000
    5.7072   -0.9480   -0.9387 C   0  0  0  0  0  0  0  0  0  0  0  0
    4.4853   -1.6529   -0.4292 C   0  0  0  0  0  0  0  0  0  0  0  0
    4.4483   -3.0481   -0.3620 C   0  0  0  0  0  0  0  0  0  0  0  0
    3.2935   -3.6978    0.0701 C   0  0  0  0  0  0  0  0  0  0  0  0
    2.1657   -2.9605    0.4408 C   0  0  0  0  0  0  0  0  0  0  0  0
    2.1864   -1.5666    0.3967 C   0  0  0  0  0  0  0  0  0  0  0  0
    1.0754   -0.7498    0.7109 N   0  0  0  0  0  0  0  0  0  0  0  0
   -0.0414   -0.9964    1.5042 C   0  0  0  0  0  0  0  0  0  0  0  0
   -0.0383   -2.0847    2.7919 S   0  0  0  0  0  0  0  0  0  0  0  0
   -1.1541   -0.1857    1.1580 N   0  0  0  0  0  0  0  0  0  0  0  0
   -1.1401    0.7297   -0.0046 C   0  0  0  0  0  0  0  0  0  0  0  0
   -0.7094    2.1586    0.3934 C   0  0  0  0  0  0  0  0  0  0  0  0
   -0.3311    3.0054   -0.7525 N   0  0  0  0  0  0  0  0  0  0  0  0
   -1.4687    3.2726   -1.6360 C   0  0  0  0  0  0  0  0  0  0  0  0
    0.2320    4.2725   -0.2762 C   0  0  0  0  0  0  0  0  0  0  0  0
   -2.4074   -0.1848    1.9410 C   0  0  0  0  0  0  0  0  0  0  0  0
   -3.5334   -0.8223    1.1736 C   0  0  0  0  0  0  0  0  0  0  0  0
   -4.6613   -0.2124    0.6544 C   0  0  0  0  0  0  0  0  0  0  0  0
   -5.5244   -1.1330   -0.0068 C   0  0  0  0  0  0  0  0  0  0  0  0
   -5.0348   -2.4182    0.0368 C   0  0  0  0  0  0  0  0  0  0  0  0
   -3.5481   -2.5108    0.8737 S   0  0  0  0  0  0  0  0  0  0  0  0
    3.3424   -0.9229   -0.0690 C   0  0  0  0  0  0  0  0  0  0  0  0
    5.6344   -0.8085   -2.0216 H   0  0  0  0  0  0  0  0  0  0  0  0
    5.8201    0.0311   -0.4615 H   0  0  0  0  0  0  0  0  0  0  0  0
    6.6122   -1.5232   -0.7162 H   0  0  0  0  0  0  0  0  0  0  0  0
    5.3139   -3.6383   -0.6537 H   0  0  0  0  0  0  0  0  0  0  0  0
    3.2624   -4.7837    0.1082 H   0  0  0  0  0  0  0  0  0  0  0  0
    1.2716   -3.5065    0.7226 H   0  0  0  0  0  0  0  0  0  0  0  0
    1.1967    0.2183    0.4495 H   0  0  0  0  0  0  0  0  0  0  0  0
   -0.4730    0.3313   -0.7769 H   0  0  0  0  0  0  0  0  0  0  0  0
   -2.1358    0.7473   -0.4584 H   0  0  0  0  0  0  0  0  0  0  0  0
    0.1549    2.0776    1.0650 H   0  0  0  0  0  0  0  0  0  0  0  0
   -1.5075    2.6318    0.9805 H   0  0  0  0  0  0  0  0  0  0  0  0
   -1.8373    2.3500   -2.0954 H   0  0  0  0  0  0  0  0  0  0  0  0
   -2.2986    3.7541   -1.1062 H   0  0  0  0  0  0  0  0  0  0  0  0
   -1.1672    3.9234   -2.4648 H   0  0  0  0  0  0  0  0  0  0  0  0
    0.5600    4.8899   -1.1200 H   0  0  0  0  0  0  0  0  0  0  0  0
    1.1197    4.0922    0.3405 H   0  0  0  0  0  0  0  0  0  0  0  0
   -0.4889    4.8489    0.3149 H   0  0  0  0  0  0  0  0  0  0  0  0
   -2.6518    0.8615    2.1615 H   0  0  0  0  0  0  0  0  0  0  0  0
   -2.3019   -0.6722    2.9127 H   0  0  0  0  0  0  0  0  0  0  0  0
   -4.8587    0.8492    0.7418 H   0  0  0  0  0  0  0  0  0  0  0  0
   -6.4582   -0.8678   -0.4872 H   0  0  0  0  0  0  0  0  0  0  0  0
   -5.4790   -3.3123   -0.3785 H   0  0  0  0  0  0  0  0  0  0  0  0
    3.3682    0.1620   -0.1427 H   0  0  0  0  0  0  0  0  0  0  0  0
  1  2  1  0
  2  3  2  0
  3  4  1  0
  4  5  2  0
  5  6  1  0
  6  7  1  0
  7  8  1  0
  8  9  2  0
  8 10  1  0
 10 11  1  0
 11 12  1  0
 12 13  1  0
 13 14  1  0
 13 15  1  0
 10 16  1  0
 16 17  1  0
 17 18  2  0
 18 19  1  0
 19 20  2  0
 20 21  1  0
  6 22  2  0
 22  2  1  0
 21 17  1  0
  1 23  1  0
  1 24  1  0
  1 25  1  0
  3 26  1  0
  4 27  1  0
  5 28  1  0
  7 29  1  0
 11 30  1  0
 11 31  1  0
 12 32  1  0
 12 33  1  0
 14 34  1  0
 14 35  1  0
 14 36  1  0
 15 37  1  0
 15 38  1  0
 15 39  1  0
 16 40  1  0
 16 41  1  0
 18 42  1  0
 19 43  1  0
 20 44  1  0
 22 45  1  0
M  END
$$$$
