
     RDKit          3D

 62 63  0  0  0  0  0  0  0  0999 V2000
   -7.0174   -2.2329    0.4616 C   0  0  0  0  0  0  0  0  0  0  0  0
   -6.7022   -0.7200    0.4161 C   0  0  0  0  0  0  0  0  0  0  0  0
   -6.8759   -0.1732    1.8495 C   0  0  0  0  0  0  0  0  0  0  0  0
   -7.7537   -0.0666   -0.5085 C   0  0  0  0  0  0  0  0  0  0  0  0
   -5.2826   -0.3959   -0.0858 C   0  0  0  0  0  0  0  0  0  0  0  0
   -4.3468   -1.3885   -0.4116 C   0  0  0  0  0  0  0  0  0  0  0  0
   -3.0576   -1.0629   -0.8538 C   0  0  0  0  0  0  0  0  0  0  0  0
   -2.6699    0.2697   -0.9766 C   0  0  0  0  0  0  0  0  0  0  0  0
   -1.4321    0.6993   -1.3916 O   0  0  0  0  0  0  0  0  0  0  0  0
   -0.3443   -0.2264   -1.3779 C   0  0  0  0  0  0  0  0  0  0  0  0
    0.1917   -0.4464    0.0374 C   0  0  0  0  0  0  0  0  0  0  0  0
    1.3570   -1.2725    0.0213 O   0  0  0  0  0  0  0  0  0  0  0  0
    2.5877   -0.6585    0.0275 C   0  0  0  0  0  0  0  0  0  0  0  0
    2.8159    0.6835   -0.2740 C   0  0  0  0  0  0  0  0  0  0  0  0
    4.1159    1.2052   -0.2528 C   0  0  0  0  0  0  0  0  0  0  0  0
    5.2222    0.4034    0.0643 C   0  0  0  0  0  0  0  0  0  0  0  0
    6.6641    0.9446    0.0916 C   0  0  0  0  0  0  0  0  0  0  0  0
    6.7684    2.4564   -0.2135 C   0  0  0  0  0  0  0  0  0  0  0  0
    7.5121    0.2047   -0.9659 C   0  0  0  0  0  0  0  0  0  0  0  0
    7.2849    0.7195    1.4886 C   0  0  0  0  0  0  0  0  0  0  0  0
    4.9738   -0.9549    0.3562 C   0  0  0  0  0  0  0  0  0  0  0  0
    3.6801   -1.4896    0.3392 C   0  0  0  0  0  0  0  0  0  0  0  0
    3.3965   -2.8432    0.6280 N   0  0  0  0  0  0  0  0  0  0  0  0
    4.2723   -3.8423    0.9719 C   0  0  0  0  0  0  0  0  0  0  0  0
    5.4859   -3.7950    1.1040 O   0  0  0  0  0  0  0  0  0  0  0  0
   -3.5946    1.2871   -0.6747 C   0  0  0  0  0  0  0  0  0  0  0  0
   -3.1583    2.6204   -0.8416 N   0  0  0  0  0  0  0  0  0  0  0  0
   -3.8489    3.7794   -0.5922 C   0  0  0  0  0  0  0  0  0  0  0  0
   -4.9794    3.9255   -0.1539 O   0  0  0  0  0  0  0  0  0  0  0  0
   -4.8768    0.9475   -0.2287 C   0  0  0  0  0  0  0  0  0  0  0  0
   -8.0384   -2.4133    0.8185 H   0  0  0  0  0  0  0  0  0  0  0  0
   -6.9353   -2.6905   -0.5316 H   0  0  0  0  0  0  0  0  0  0  0  0
   -6.3422   -2.7665    1.1409 H   0  0  0  0  0  0  0  0  0  0  0  0
   -6.7576    0.9142    1.8964 H   0  0  0  0  0  0  0  0  0  0  0  0
   -7.8731   -0.4036    2.2419 H   0  0  0  0  0  0  0  0  0  0  0  0
   -6.1396   -0.6130    2.5317 H   0  0  0  0  0  0  0  0  0  0  0  0
   -7.6919    1.0269   -0.5013 H   0  0  0  0  0  0  0  0  0  0  0  0
   -7.6276   -0.3970   -1.5462 H   0  0  0  0  0  0  0  0  0  0  0  0
   -8.7714   -0.3293   -0.1969 H   0  0  0  0  0  0  0  0  0  0  0  0
   -4.5944   -2.4441   -0.3333 H   0  0  0  0  0  0  0  0  0  0  0  0
   -2.3943   -1.8843   -1.0997 H   0  0  0  0  0  0  0  0  0  0  0  0
   -0.5820   -1.1677   -1.8862 H   0  0  0  0  0  0  0  0  0  0  0  0
    0.4437    0.2194   -1.9952 H   0  0  0  0  0  0  0  0  0  0  0  0
    0.3376    0.4955    0.5802 H   0  0  0  0  0  0  0  0  0  0  0  0
   -0.5583   -0.9874    0.6254 H   0  0  0  0  0  0  0  0  0  0  0  0
    2.0121    1.3602   -0.5423 H   0  0  0  0  0  0  0  0  0  0  0  0
    4.2339    2.2579   -0.4974 H   0  0  0  0  0  0  0  0  0  0  0  0
    6.3919    2.6935   -1.2157 H   0  0  0  0  0  0  0  0  0  0  0  0
    7.8108    2.7968   -0.1742 H   0  0  0  0  0  0  0  0  0  0  0  0
    6.2061    3.0543    0.5141 H   0  0  0  0  0  0  0  0  0  0  0  0
    7.0852    0.3247   -1.9688 H   0  0  0  0  0  0  0  0  0  0  0  0
    7.5798   -0.8701   -0.7640 H   0  0  0  0  0  0  0  0  0  0  0  0
    8.5376    0.5916   -0.9917 H   0  0  0  0  0  0  0  0  0  0  0  0
    6.6872    1.2064    2.2688 H   0  0  0  0  0  0  0  0  0  0  0  0
    8.3000    1.1303    1.5399 H   0  0  0  0  0  0  0  0  0  0  0  0
    7.3590   -0.3437    1.7451 H   0  0  0  0  0  0  0  0  0  0  0  0
    5.8161   -1.5971    0.5969 H   0  0  0  0  0  0  0  0  0  0  0  0
    2.4118   -3.0818    0.5744 H   0  0  0  0  0  0  0  0  0  0  0  0
    3.7280   -4.7887    1.1364 H   0  0  0  0  0  0  0  0  0  0  0  0
   -2.2114    2.7063   -1.1942 H   0  0  0  0  0  0  0  0  0  0  0  0
   -3.2263    4.6567   -0.8411 H   0  0  0  0  0  0  0  0  0  0  0  0
   -5.5852    1.7337    0.0151 H   0  0  0  0  0  0  0  0  0  0  0  0
  1  2  1  0
  2  3  1  0
  2  4  1  0
  2  5  1  0
  5  6  2  0
  6  7  1  0
  7  8  2  0
  8  9  1  0
  9 10  1  0
 10 11  1  0
 11 12  1  0
 12 13  1  0
 13 14  2  0
 14 15  1  0
 15 16  2  0
 16 17  1  0
 17 18  1  0
 17 19  1  0
 17 20  1  0
 16 21  1  0
 21 22  2  0
 22 23  1  0
 23 24  1  0
 24 25  2  0
  8 26  1  0
 26 27  1  0
 27 28  1  0
 28 29  2  0
 26 30  2  0
 30  5  1  0
 22 13  1  0
  1 31  1  0
  1 32  1  0
  1 33  1  0
  3 34  1  0
  3 35  1  0
  3 36  1  0
  4 37  1  0
  4 38  1  0
  4 39  1  0
  6 40  1  0
  7 41  1  0
 10 42  1  0
 10 43  1  0
 11 44  1  0
 11 45  1  0
 14 46  1  0
 15 47  1  0
 18 48  1  0
 18 49  1  0
 18 50  1  0
 19 51  1  0
 19 52  1  0
 19 53  1  0
 20 54  1  0
 20 55  1  0
 20 56  1  0
 21 57  1  0
 23 58  1  0
 24 59  1  0
 27 60  1  0
 28 61  1  0
 30 62  1  0
M  END
$$$$
