
     RDKit          3D

 59 62  0  0  0  0  0  0  0  0999 V2000
    6.7472    1.4538   -6.5417 C   0  0  0  0  0  0  0  0  0  0  0  0
    6.4166    0.5864   -5.3637 C   0  0  0  0  0  0  0  0  0  0  0  0
    5.1273    0.0668   -5.2071 C   0  0  0  0  0  0  0  0  0  0  0  0
    4.8268   -0.7681   -4.1286 C   0  0  0  0  0  0  0  0  0  0  0  0
    5.8133   -1.1106   -3.1941 C   0  0  0  0  0  0  0  0  0  0  0  0
    5.4724   -1.9916   -2.0196 C   0  0  0  0  0  0  0  0  0  0  0  0
    4.8085   -1.2298   -0.9858 N   0  0  0  0  0  0  0  0  0  0  0  0
    3.4373   -1.2415   -0.8467 C   0  0  0  0  0  0  0  0  0  0  0  0
    2.6946   -1.9710   -1.4932 O   0  0  0  0  0  0  0  0  0  0  0  0
    2.9484   -0.2539    0.1955 C   0  0  0  0  0  0  0  0  0  0  0  0
    1.4288   -0.2587    0.3265 C   0  0  0  0  0  0  0  0  0  0  0  0
    0.9566    0.7983    1.3224 C   0  0  0  0  0  0  0  0  0  0  0  0
   -0.4952    0.7986    1.4523 N   0  0  0  0  0  0  0  0  0  0  0  0
   -1.1847    1.5675    0.5082 N   0  0  0  0  0  0  0  0  0  0  0  0
   -2.4878    1.5984    0.4886 C   0  0  0  0  0  0  0  0  0  0  0  0
   -3.1640    2.4515   -0.5465 C   0  0  0  0  0  0  0  0  0  0  0  0
   -3.2301    0.8165    1.4470 C   0  0  0  0  0  0  0  0  0  0  0  0
   -4.5778    0.5770    1.6602 C   0  0  0  0  0  0  0  0  0  0  0  0
   -5.7542    0.9691    0.8409 C   0  0  0  0  0  0  0  0  0  0  0  0
   -4.6367   -0.2066    2.8205 N   0  0  0  0  0  0  0  0  0  0  0  0
   -5.7525   -0.5947    3.6271 C   0  0  0  0  0  0  0  0  0  0  0  0
   -6.9820    0.0728    3.5801 C   0  0  0  0  0  0  0  0  0  0  0  0
   -8.0452   -0.3456    4.3888 C   0  0  0  0  0  0  0  0  0  0  0  0
   -7.8868   -1.4208    5.2601 C   0  0  0  0  0  0  0  0  0  0  0  0
   -6.6609   -2.0745    5.3367 C   0  0  0  0  0  0  0  0  0  0  0  0
   -5.5964   -1.6599    4.5319 C   0  0  0  0  0  0  0  0  0  0  0  0
   -3.3952   -0.6313    3.1824 N   0  0  0  0  0  0  0  0  0  0  0  0
   -2.5534    0.0371    2.3912 C   0  0  0  0  0  0  0  0  0  0  0  0
   -1.0979   -0.0221    2.4295 C   0  0  0  0  0  0  0  0  0  0  0  0
   -0.4622   -0.7101    3.2258 O   0  0  0  0  0  0  0  0  0  0  0  0
    7.1055   -0.5954   -3.3567 C   0  0  0  0  0  0  0  0  0  0  0  0
    7.4060    0.2385   -4.4375 C   0  0  0  0  0  0  0  0  0  0  0  0
    7.5456    2.1620   -6.2947 H   0  0  0  0  0  0  0  0  0  0  0  0
    7.0728    0.8332   -7.3830 H   0  0  0  0  0  0  0  0  0  0  0  0
    5.8761    2.0417   -6.8505 H   0  0  0  0  0  0  0  0  0  0  0  0
    4.3453    0.3096   -5.9223 H   0  0  0  0  0  0  0  0  0  0  0  0
    3.8141   -1.1546   -4.0176 H   0  0  0  0  0  0  0  0  0  0  0  0
    6.3844   -2.4083   -1.5771 H   0  0  0  0  0  0  0  0  0  0  0  0
    4.8535   -2.8361   -2.3447 H   0  0  0  0  0  0  0  0  0  0  0  0
    5.3340   -0.4815   -0.5556 H   0  0  0  0  0  0  0  0  0  0  0  0
    3.4073   -0.5119    1.1570 H   0  0  0  0  0  0  0  0  0  0  0  0
    3.2942    0.7456   -0.0937 H   0  0  0  0  0  0  0  0  0  0  0  0
    1.0863   -1.2515    0.6433 H   0  0  0  0  0  0  0  0  0  0  0  0
    0.9690   -0.0740   -0.6525 H   0  0  0  0  0  0  0  0  0  0  0  0
    1.2701    1.7984    1.0010 H   0  0  0  0  0  0  0  0  0  0  0  0
    1.4073    0.6168    2.3048 H   0  0  0  0  0  0  0  0  0  0  0  0
   -3.9545    3.0508   -0.0882 H   0  0  0  0  0  0  0  0  0  0  0  0
   -3.5876    1.8120   -1.3250 H   0  0  0  0  0  0  0  0  0  0  0  0
   -2.4415    3.1289   -1.0112 H   0  0  0  0  0  0  0  0  0  0  0  0
   -6.1400    1.9426    1.1562 H   0  0  0  0  0  0  0  0  0  0  0  0
   -5.4885    1.0388   -0.2171 H   0  0  0  0  0  0  0  0  0  0  0  0
   -6.5554    0.2255    0.8897 H   0  0  0  0  0  0  0  0  0  0  0  0
   -7.1432    0.9514    2.9674 H   0  0  0  0  0  0  0  0  0  0  0  0
   -8.9964    0.1797    4.3477 H   0  0  0  0  0  0  0  0  0  0  0  0
   -8.7143   -1.7414    5.8883 H   0  0  0  0  0  0  0  0  0  0  0  0
   -6.5270   -2.9071    6.0232 H   0  0  0  0  0  0  0  0  0  0  0  0
   -4.6482   -2.1899    4.6146 H   0  0  0  0  0  0  0  0  0  0  0  0
    7.8909   -0.8439   -2.6471 H   0  0  0  0  0  0  0  0  0  0  0  0
    8.4193    0.6169   -4.5510 H   0  0  0  0  0  0  0  0  0  0  0  0
  1  2  1  0
  2  3  2  0
  3  4  1  0
  4  5  2  0
  5  6  1  0
  6  7  1  0
  7  8  1  0
  8  9  2  0
  8 10  1  0
 10 11  1  0
 11 12  1  0
 12 13  1  0
 13 14  1  0
 14 15  2  0
 15 16  1  0
 15 17  1  0
 17 18  2  0
 18 19  1  0
 18 20  1  0
 20 21  1  0
 21 22  2  0
 22 23  1  0
 23 24  2  0
 24 25  1  0
 25 26  2  0
 20 27  1  0
 27 28  2  0
 28 29  1  0
 29 30  2  0
  5 31  1  0
 31 32  2  0
 32  2  1  0
 29 13  1  0
 28 17  1  0
 26 21  1  0
  1 33  1  0
  1 34  1  0
  1 35  1  0
  3 36  1  0
  4 37  1  0
  6 38  1  0
  6 39  1  0
  7 40  1  0
 10 41  1  0
 10 42  1  0
 11 43  1  0
 11 44  1  0
 12 45  1  0
 12 46  1  0
 16 47  1  0
 16 48  1  0
 16 49  1  0
 19 50  1  0
 19 51  1  0
 19 52  1  0
 22 53  1  0
 23 54  1  0
 24 55  1  0
 25 56  1  0
 26 57  1  0
 31 58  1  0
 32 59  1  0
M  END
$$$$
