
     RDKit          3D

 40 41  0  0  0  0  0  0  0  0999 V2000
    0.6219   -3.7348    0.5336 C   0  0  0  0  0  0  0  0  0  0  0  0
    1.1813   -2.4506    0.2575 O   0  0  0  0  0  0  0  0  0  0  0  0
    0.8334   -1.5017    1.1600 C   0  0  0  0  0  0  0  0  0  0  0  0
    0.1448   -1.6483    2.1563 O   0  0  0  0  0  0  0  0  0  0  0  0
    1.3737   -0.1936    0.7335 C   0  0  0  0  0  0  0  0  0  0  0  0
    2.6967    0.0211    0.6639 C   0  0  0  0  0  0  0  0  0  0  0  0
    3.7818   -0.9754    0.9532 C   0  0  0  0  0  0  0  0  0  0  0  0
    3.2144    1.3124    0.4114 O   0  0  0  0  0  0  0  0  0  0  0  0
    2.4227    2.3861    0.1766 C   0  0  0  0  0  0  0  0  0  0  0  0
    3.0001    3.5418    0.2052 N   0  0  0  0  0  0  0  0  0  0  0  0
    0.9896    2.1231   -0.2174 C   0  0  0  0  0  0  0  0  0  0  0  0
    0.1553    3.3078    0.0423 C   0  0  0  0  0  0  0  0  0  0  0  0
   -0.4813    4.2563    0.2465 N   0  0  0  0  0  0  0  0  0  0  0  0
    0.3738    0.9003    0.4894 C   0  0  0  0  0  0  0  0  0  0  0  0
   -0.8416    0.4128   -0.2827 C   0  0  0  0  0  0  0  0  0  0  0  0
   -0.8952   -0.2482   -1.5496 C   0  0  0  0  0  0  0  0  0  0  0  0
    0.2042   -0.6605   -2.4613 C   0  0  0  0  0  0  0  0  0  0  0  0
   -2.1515   -0.5192   -1.9107 N   0  0  0  0  0  0  0  0  0  0  0  0
   -2.9029   -0.0634   -0.8989 N   0  0  0  0  0  0  0  0  0  0  0  0
   -4.3382   -0.2177   -0.9642 C   0  0  0  0  0  0  0  0  0  0  0  0
   -2.1722    0.5250    0.1003 C   0  0  0  0  0  0  0  0  0  0  0  0
   -2.8070    1.1125    1.3107 C   0  0  0  0  0  0  0  0  0  0  0  0
    0.9876   -4.1133    1.4932 H   0  0  0  0  0  0  0  0  0  0  0  0
    0.9433   -4.4207   -0.2550 H   0  0  0  0  0  0  0  0  0  0  0  0
   -0.4717   -3.6866    0.5260 H   0  0  0  0  0  0  0  0  0  0  0  0
    4.5345   -0.5294    1.6124 H   0  0  0  0  0  0  0  0  0  0  0  0
    4.2752   -1.2692    0.0215 H   0  0  0  0  0  0  0  0  0  0  0  0
    3.4199   -1.8783    1.4520 H   0  0  0  0  0  0  0  0  0  0  0  0
    2.3708    4.3194   -0.0217 H   0  0  0  0  0  0  0  0  0  0  0  0
    1.0196    1.9666   -1.3041 H   0  0  0  0  0  0  0  0  0  0  0  0
    0.0394    1.2093    1.4910 H   0  0  0  0  0  0  0  0  0  0  0  0
    0.3032   -1.7508   -2.4657 H   0  0  0  0  0  0  0  0  0  0  0  0
   -0.0026   -0.3308   -3.4849 H   0  0  0  0  0  0  0  0  0  0  0  0
    1.1665   -0.2351   -2.1674 H   0  0  0  0  0  0  0  0  0  0  0  0
   -4.5922   -0.9306   -1.7531 H   0  0  0  0  0  0  0  0  0  0  0  0
   -4.6961   -0.5951   -0.0033 H   0  0  0  0  0  0  0  0  0  0  0  0
   -4.7757    0.7588   -1.1849 H   0  0  0  0  0  0  0  0  0  0  0  0
   -2.1161    1.7628    1.8542 H   0  0  0  0  0  0  0  0  0  0  0  0
   -3.1309    0.3187    1.9911 H   0  0  0  0  0  0  0  0  0  0  0  0
   -3.6784    1.7187    1.0428 H   0  0  0  0  0  0  0  0  0  0  0  0
  1  2  1  0
  2  3  1  0
  3  4  2  0
  3  5  1  0
  5  6  2  0
  6  7  1  0
  6  8  1  0
  8  9  1  0
  9 10  2  3
  9 11  1  0
 11 12  1  0
 12 13  3  0
 11 14  1  0
 14 15  1  0
 15 16  1  0
 16 17  1  0
 16 18  2  0
 18 19  1  0
 19 20  1  0
 19 21  1  0
 21 22  1  0
 14  5  1  0
 21 15  2  0
  1 23  1  0
  1 24  1  0
  1 25  1  0
  7 26  1  0
  7 27  1  0
  7 28  1  0
 10 29  1  0
 11 30  1  0
 14 31  1  0
 17 32  1  0
 17 33  1  0
 17 34  1  0
 20 35  1  0
 20 36  1  0
 20 37  1  0
 22 38  1  0
 22 39  1  0
 22 40  1  0
M  END
$$$$
