
     RDKit          3D

 51 53  0  0  0  0  0  0  0  0999 V2000
   -5.1777   -2.7150   -1.9334 C   0  0  0  0  0  0  0  0  0  0  0  0
   -3.8681   -3.1205   -1.5641 O   0  0  0  0  0  0  0  0  0  0  0  0
   -3.1265   -2.2586   -0.7938 C   0  0  0  0  0  0  0  0  0  0  0  0
   -3.5440   -0.9780   -0.4154 C   0  0  0  0  0  0  0  0  0  0  0  0
   -2.7170   -0.1534    0.3628 C   0  0  0  0  0  0  0  0  0  0  0  0
   -1.4641   -0.6210    0.7920 C   0  0  0  0  0  0  0  0  0  0  0  0
   -1.0509   -1.9123    0.4130 C   0  0  0  0  0  0  0  0  0  0  0  0
   -1.8648   -2.7276   -0.3816 C   0  0  0  0  0  0  0  0  0  0  0  0
   -1.5242   -3.9910   -0.7987 O   0  0  0  0  0  0  0  0  0  0  0  0
   -0.2186   -4.4576   -0.4909 C   0  0  0  0  0  0  0  0  0  0  0  0
   -0.5382    0.2542    1.6345 C   0  0  0  0  0  0  0  0  0  0  0  0
    0.7733    0.6372    0.9434 C   0  0  0  0  0  0  0  0  0  0  0  0
    0.8420    0.9044   -0.4367 C   0  0  0  0  0  0  0  0  0  0  0  0
    2.0492    1.2630   -1.0411 C   0  0  0  0  0  0  0  0  0  0  0  0
    2.1983    1.5285   -2.3782 O   0  0  0  0  0  0  0  0  0  0  0  0
    1.1753    1.0542   -3.2447 C   0  0  0  0  0  0  0  0  0  0  0  0
    3.1954    1.3973   -0.2418 C   0  0  0  0  0  0  0  0  0  0  0  0
    4.3981    1.7182   -0.8335 O   0  0  0  0  0  0  0  0  0  0  0  0
    4.5632    3.1348   -0.8516 C   0  0  0  0  0  0  0  0  0  0  0  0
    3.1586    1.1298    1.1364 C   0  0  0  0  0  0  0  0  0  0  0  0
    4.3404    1.2742    1.8159 O   0  0  0  0  0  0  0  0  0  0  0  0
    4.3793    0.8294    3.1646 C   0  0  0  0  0  0  0  0  0  0  0  0
    1.9434    0.7613    1.7191 C   0  0  0  0  0  0  0  0  0  0  0  0
   -1.1988    1.4413    2.2099 N   0  0  0  0  0  0  0  0  0  0  0  0
   -2.0586    2.1182    1.2418 C   0  0  0  0  0  0  0  0  0  0  0  0
   -3.2030    1.2085    0.7905 C   0  0  0  0  0  0  0  0  0  0  0  0
   -5.8028   -2.5412   -1.0514 H   0  0  0  0  0  0  0  0  0  0  0  0
   -5.6313   -3.5300   -2.5058 H   0  0  0  0  0  0  0  0  0  0  0  0
   -5.1491   -1.8319   -2.5799 H   0  0  0  0  0  0  0  0  0  0  0  0
   -4.5140   -0.5937   -0.7137 H   0  0  0  0  0  0  0  0  0  0  0  0
   -0.0782   -2.2566    0.7510 H   0  0  0  0  0  0  0  0  0  0  0  0
   -0.0848   -4.5673    0.5902 H   0  0  0  0  0  0  0  0  0  0  0  0
    0.5483   -3.8054   -0.9218 H   0  0  0  0  0  0  0  0  0  0  0  0
   -0.1028   -5.4482   -0.9413 H   0  0  0  0  0  0  0  0  0  0  0  0
   -0.2718   -0.3713    2.4986 H   0  0  0  0  0  0  0  0  0  0  0  0
   -0.0657    0.8297   -1.0277 H   0  0  0  0  0  0  0  0  0  0  0  0
    0.2627    1.6477   -3.1300 H   0  0  0  0  0  0  0  0  0  0  0  0
    1.5251    1.1795   -4.2739 H   0  0  0  0  0  0  0  0  0  0  0  0
    0.9767   -0.0115   -3.0877 H   0  0  0  0  0  0  0  0  0  0  0  0
    4.5770    3.5490    0.1626 H   0  0  0  0  0  0  0  0  0  0  0  0
    3.7839    3.6211   -1.4483 H   0  0  0  0  0  0  0  0  0  0  0  0
    5.5290    3.3528   -1.3173 H   0  0  0  0  0  0  0  0  0  0  0  0
    3.7492    1.4578    3.8022 H   0  0  0  0  0  0  0  0  0  0  0  0
    4.0968   -0.2256    3.2448 H   0  0  0  0  0  0  0  0  0  0  0  0
    5.4102    0.9255    3.5189 H   0  0  0  0  0  0  0  0  0  0  0  0
    1.8748    0.5678    2.7856 H   0  0  0  0  0  0  0  0  0  0  0  0
   -0.4848    2.0854    2.5444 H   0  0  0  0  0  0  0  0  0  0  0  0
   -2.4836    3.0141    1.7085 H   0  0  0  0  0  0  0  0  0  0  0  0
   -1.4776    2.4647    0.3792 H   0  0  0  0  0  0  0  0  0  0  0  0
   -3.7337    1.6933   -0.0374 H   0  0  0  0  0  0  0  0  0  0  0  0
   -3.9158    1.0747    1.6140 H   0  0  0  0  0  0  0  0  0  0  0  0
  1  2  1  0
  2  3  1  0
  3  4  2  0
  4  5  1  0
  5  6  2  0
  6  7  1  0
  7  8  2  0
  8  9  1  0
  9 10  1  0
  6 11  1  0
 11 12  1  0
 12 13  2  0
 13 14  1  0
 14 15  1  0
 15 16  1  0
 14 17  2  0
 17 18  1  0
 18 19  1  0
 17 20  1  0
 20 21  1  0
 21 22  1  0
 20 23  2  0
 11 24  1  0
 24 25  1  0
 25 26  1  0
  8  3  1  0
 23 12  1  0
 26  5  1  0
  1 27  1  0
  1 28  1  0
  1 29  1  0
  4 30  1  0
  7 31  1  0
 10 32  1  0
 10 33  1  0
 10 34  1  0
 11 35  1  0
 13 36  1  0
 16 37  1  0
 16 38  1  0
 16 39  1  0
 19 40  1  0
 19 41  1  0
 19 42  1  0
 22 43  1  0
 22 44  1  0
 22 45  1  0
 23 46  1  0
 24 47  1  0
 25 48  1  0
 25 49  1  0
 26 50  1  0
 26 51  1  0
M  END
$$$$
