
     RDKit          3D

 47 50  0  0  0  0  0  0  0  0999 V2000
   -0.0116    0.0249   -3.0827 O   0  0  0  0  0  0  0  0  0  0  0  0
    0.1023    0.1522   -1.8594 C   0  0  0  0  0  0  0  0  0  0  0  0
   -1.1477    0.2471   -1.0019 C   0  0  0  0  0  0  0  0  0  0  0  0
   -1.5375   -1.3802   -0.3004 S   0  0  0  0  0  0  0  0  0  0  0  0
   -2.9512   -0.9221    0.5896 C   0  0  0  0  0  0  0  0  0  0  0  0
   -2.9358   -0.5214    1.8445 N   0  0  0  0  0  0  0  0  0  0  0  0
   -4.2401   -0.2083    2.1710 N   0  0  0  0  0  0  0  0  0  0  0  0
   -4.9604   -0.4334    1.0884 C   0  0  0  0  0  0  0  0  0  0  0  0
   -6.3884   -0.2576    0.8552 C   0  0  0  0  0  0  0  0  0  0  0  0
   -7.2161    0.1802    1.9012 C   0  0  0  0  0  0  0  0  0  0  0  0
   -8.5871    0.3653    1.6991 C   0  0  0  0  0  0  0  0  0  0  0  0
   -9.1471    0.1159    0.4471 C   0  0  0  0  0  0  0  0  0  0  0  0
   -8.3402   -0.3206   -0.6018 C   0  0  0  0  0  0  0  0  0  0  0  0
   -6.9695   -0.5070   -0.3993 C   0  0  0  0  0  0  0  0  0  0  0  0
   -4.2024   -0.8859    0.0387 O   0  0  0  0  0  0  0  0  0  0  0  0
    1.3472    0.2018   -1.2388 N   0  0  0  0  0  0  0  0  0  0  0  0
    2.5266    0.3185   -2.1083 C   0  0  0  0  0  0  0  0  0  0  0  0
    3.8190   -0.2204   -1.4696 C   0  0  0  0  0  0  0  0  0  0  0  0
    4.0073    0.3624   -0.1187 N   0  0  0  0  0  0  0  0  0  0  0  0
    5.2989    0.1632    0.3970 C   0  0  0  0  0  0  0  0  0  0  0  0
    6.3942    0.7622   -0.2500 C   0  0  0  0  0  0  0  0  0  0  0  0
    7.7010    0.6112    0.2226 C   0  0  0  0  0  0  0  0  0  0  0  0
    7.9417   -0.1449    1.3641 C   0  0  0  0  0  0  0  0  0  0  0  0
    6.8760   -0.7405    2.0311 C   0  0  0  0  0  0  0  0  0  0  0  0
    5.5694   -0.5839    1.5528 C   0  0  0  0  0  0  0  0  0  0  0  0
    2.8595    0.0854    0.7669 C   0  0  0  0  0  0  0  0  0  0  0  0
    1.5601    0.6395    0.1508 C   0  0  0  0  0  0  0  0  0  0  0  0
   -1.0388    1.0133   -0.2292 H   0  0  0  0  0  0  0  0  0  0  0  0
   -1.9735    0.5680   -1.6483 H   0  0  0  0  0  0  0  0  0  0  0  0
   -6.7954    0.3814    2.8865 H   0  0  0  0  0  0  0  0  0  0  0  0
   -9.2155    0.7050    2.5194 H   0  0  0  0  0  0  0  0  0  0  0  0
  -10.2130    0.2610    0.2885 H   0  0  0  0  0  0  0  0  0  0  0  0
   -8.7762   -0.5163   -1.5790 H   0  0  0  0  0  0  0  0  0  0  0  0
   -6.3612   -0.8477   -1.2356 H   0  0  0  0  0  0  0  0  0  0  0  0
    2.6431    1.3864   -2.3345 H   0  0  0  0  0  0  0  0  0  0  0  0
    2.3520   -0.2002   -3.0578 H   0  0  0  0  0  0  0  0  0  0  0  0
    3.7589   -1.3142   -1.3880 H   0  0  0  0  0  0  0  0  0  0  0  0
    4.6516    0.0166   -2.1417 H   0  0  0  0  0  0  0  0  0  0  0  0
    6.2281    1.3820   -1.1288 H   0  0  0  0  0  0  0  0  0  0  0  0
    8.5240    1.0921   -0.2986 H   0  0  0  0  0  0  0  0  0  0  0  0
    8.9546   -0.2635    1.7372 H   0  0  0  0  0  0  0  0  0  0  0  0
    7.0556   -1.3313    2.9256 H   0  0  0  0  0  0  0  0  0  0  0  0
    4.7737   -1.0785    2.0996 H   0  0  0  0  0  0  0  0  0  0  0  0
    3.0012    0.5606    1.7456 H   0  0  0  0  0  0  0  0  0  0  0  0
    2.7507   -0.9967    0.9165 H   0  0  0  0  0  0  0  0  0  0  0  0
    1.5903    1.7357    0.1336 H   0  0  0  0  0  0  0  0  0  0  0  0
    0.7216    0.3428    0.7838 H   0  0  0  0  0  0  0  0  0  0  0  0
  1  2  2  0
  2  3  1  0
  3  4  1  0
  4  5  1  0
  5  6  2  0
  6  7  1  0
  7  8  2  0
  8  9  1  0
  9 10  2  0
 10 11  1  0
 11 12  2  0
 12 13  1  0
 13 14  2  0
  8 15  1  0
  2 16  1  0
 16 17  1  0
 17 18  1  0
 18 19  1  0
 19 20  1  0
 20 21  2  0
 21 22  1  0
 22 23  2  0
 23 24  1  0
 24 25  2  0
 19 26  1  0
 26 27  1  0
 15  5  1  0
 27 16  1  0
 14  9  1  0
 25 20  1  0
  3 28  1  0
  3 29  1  0
 10 30  1  0
 11 31  1  0
 12 32  1  0
 13 33  1  0
 14 34  1  0
 17 35  1  0
 17 36  1  0
 18 37  1  0
 18 38  1  0
 21 39  1  0
 22 40  1  0
 23 41  1  0
 24 42  1  0
 25 43  1  0
 26 44  1  0
 26 45  1  0
 27 46  1  0
 27 47  1  0
M  END
$$$$
