
     RDKit          3D

 57 60  0  0  0  0  0  0  0  0999 V2000
    6.8410    0.7423   -1.4265 C   0  0  0  0  0  0  0  0  0  0  0  0
    7.0343    1.3171   -0.0256 C   0  0  0  0  0  0  0  0  0  0  0  0
    6.2162    0.6097    1.0747 C   0  0  0  0  0  0  0  0  0  0  0  0
    6.6066   -0.8570    1.2437 C   0  0  0  0  0  0  0  0  0  0  0  0
    4.7820    0.7245    0.8223 N   0  0  0  0  0  0  0  0  0  0  0  0
    4.0890    1.8919    1.0752 C   0  0  0  0  0  0  0  0  0  0  0  0
    4.5782    2.8430    1.6763 O   0  0  0  0  0  0  0  0  0  0  0  0
    2.6856    1.9639    0.5771 C   0  0  0  0  0  0  0  0  0  0  0  0
    2.2343    1.2029   -0.5080 C   0  0  0  0  0  0  0  0  0  0  0  0
    0.9209    1.3460   -0.9686 C   0  0  0  0  0  0  0  0  0  0  0  0
    0.0465    2.2607   -0.3671 C   0  0  0  0  0  0  0  0  0  0  0  0
   -1.3535    2.4451   -0.8966 C   0  0  0  0  0  0  0  0  0  0  0  0
   -2.6043    1.5230    0.0389 S   0  0  0  0  0  0  0  0  0  0  0  0
   -2.8149    0.1164   -0.9493 C   0  0  0  0  0  0  0  0  0  0  0  0
   -1.9006   -0.3826   -1.7490 N   0  0  0  0  0  0  0  0  0  0  0  0
   -2.4914   -1.4650   -2.3461 C   0  0  0  0  0  0  0  0  0  0  0  0
   -1.9606   -2.3594   -3.2772 C   0  0  0  0  0  0  0  0  0  0  0  0
   -2.8217   -3.3508   -3.7130 C   0  0  0  0  0  0  0  0  0  0  0  0
   -4.1052   -3.4904   -3.3106 N   0  0  0  0  0  0  0  0  0  0  0  0
   -4.6224   -2.6257   -2.4036 C   0  0  0  0  0  0  0  0  0  0  0  0
   -3.8071   -1.6152   -1.9145 C   0  0  0  0  0  0  0  0  0  0  0  0
   -3.9890   -0.5994   -0.9982 N   0  0  0  0  0  0  0  0  0  0  0  0
   -5.2352   -0.3103   -0.2999 C   0  0  0  0  0  0  0  0  0  0  0  0
   -5.2576   -0.8487    1.1150 C   0  0  0  0  0  0  0  0  0  0  0  0
   -5.3128    0.0380    2.2045 C   0  0  0  0  0  0  0  0  0  0  0  0
   -5.3767   -0.4461    3.5087 C   0  0  0  0  0  0  0  0  0  0  0  0
   -5.3836   -1.8192    3.7331 C   0  0  0  0  0  0  0  0  0  0  0  0
   -5.4523   -2.2888    4.9905 F   0  0  0  0  0  0  0  0  0  0  0  0
   -5.3283   -2.7150    2.6736 C   0  0  0  0  0  0  0  0  0  0  0  0
   -5.2657   -2.2321    1.3664 C   0  0  0  0  0  0  0  0  0  0  0  0
    0.5023    3.0147    0.7230 C   0  0  0  0  0  0  0  0  0  0  0  0
    1.8124    2.8711    1.1879 C   0  0  0  0  0  0  0  0  0  0  0  0
    5.7824    0.7276   -1.7103 H   0  0  0  0  0  0  0  0  0  0  0  0
    7.3750    1.3555   -2.1616 H   0  0  0  0  0  0  0  0  0  0  0  0
    7.2344   -0.2779   -1.4974 H   0  0  0  0  0  0  0  0  0  0  0  0
    8.1025    1.2741    0.2318 H   0  0  0  0  0  0  0  0  0  0  0  0
    6.7623    2.3804   -0.0524 H   0  0  0  0  0  0  0  0  0  0  0  0
    6.4274    1.1226    2.0230 H   0  0  0  0  0  0  0  0  0  0  0  0
    6.0991   -1.2913    2.1137 H   0  0  0  0  0  0  0  0  0  0  0  0
    6.3188   -1.4545    0.3741 H   0  0  0  0  0  0  0  0  0  0  0  0
    7.6861   -0.9630    1.3962 H   0  0  0  0  0  0  0  0  0  0  0  0
    4.3175   -0.0500    0.3691 H   0  0  0  0  0  0  0  0  0  0  0  0
    2.8912    0.5176   -1.0348 H   0  0  0  0  0  0  0  0  0  0  0  0
    0.5856    0.7458   -1.8129 H   0  0  0  0  0  0  0  0  0  0  0  0
   -1.6096    3.5052   -0.8246 H   0  0  0  0  0  0  0  0  0  0  0  0
   -1.4026    2.2134   -1.9629 H   0  0  0  0  0  0  0  0  0  0  0  0
   -0.9404   -2.2808   -3.6326 H   0  0  0  0  0  0  0  0  0  0  0  0
   -2.4842   -4.0926   -4.4344 H   0  0  0  0  0  0  0  0  0  0  0  0
   -5.6581   -2.7812   -2.1021 H   0  0  0  0  0  0  0  0  0  0  0  0
   -6.0709   -0.7493   -0.8695 H   0  0  0  0  0  0  0  0  0  0  0  0
   -5.3925    0.7748   -0.3294 H   0  0  0  0  0  0  0  0  0  0  0  0
   -5.3057    1.1134    2.0468 H   0  0  0  0  0  0  0  0  0  0  0  0
   -5.4225    0.2349    4.3524 H   0  0  0  0  0  0  0  0  0  0  0  0
   -5.3364   -3.7834    2.8723 H   0  0  0  0  0  0  0  0  0  0  0  0
   -5.2244   -2.9509    0.5518 H   0  0  0  0  0  0  0  0  0  0  0  0
   -0.1563    3.7279    1.2122 H   0  0  0  0  0  0  0  0  0  0  0  0
    2.1547    3.4772    2.0240 H   0  0  0  0  0  0  0  0  0  0  0  0
  1  2  1  0
  2  3  1  0
  3  4  1  0
  3  5  1  0
  5  6  1  0
  6  7  2  0
  6  8  1  0
  8  9  2  0
  9 10  1  0
 10 11  2  0
 11 12  1  0
 12 13  1  0
 13 14  1  0
 14 15  2  0
 15 16  1  0
 16 17  2  0
 17 18  1  0
 18 19  2  0
 19 20  1  0
 20 21  2  0
 21 22  1  0
 22 23  1  0
 23 24  1  0
 24 25  2  0
 25 26  1  0
 26 27  2  0
 27 28  1  0
 27 29  1  0
 29 30  2  0
 11 31  1  0
 31 32  2  0
 32  8  1  0
 22 14  1  0
 30 24  1  0
 21 16  1  0
  1 33  1  0
  1 34  1  0
  1 35  1  0
  2 36  1  0
  2 37  1  0
  3 38  1  0
  4 39  1  0
  4 40  1  0
  4 41  1  0
  5 42  1  0
  9 43  1  0
 10 44  1  0
 12 45  1  0
 12 46  1  0
 17 47  1  0
 18 48  1  0
 20 49  1  0
 23 50  1  0
 23 51  1  0
 25 52  1  0
 26 53  1  0
 29 54  1  0
 30 55  1  0
 31 56  1  0
 32 57  1  0
M  END
$$$$
