
     RDKit          3D

 55 59  0  0  0  0  0  0  0  0999 V2000
   -1.8878   -2.0280    0.3590 C   0  0  0  0  0  0  0  0  0  0  0  0
   -2.1765   -0.6277   -0.1086 C   0  0  0  0  0  0  0  0  0  0  0  0
   -3.4496   -0.2155   -0.4982 C   0  0  0  0  0  0  0  0  0  0  0  0
   -4.6477   -1.0695   -0.4527 C   0  0  0  0  0  0  0  0  0  0  0  0
   -5.1166   -1.6163    0.7553 C   0  0  0  0  0  0  0  0  0  0  0  0
   -6.2569   -2.4250    0.7860 C   0  0  0  0  0  0  0  0  0  0  0  0
   -6.9526   -2.6918   -0.3912 C   0  0  0  0  0  0  0  0  0  0  0  0
   -6.5102   -2.1431   -1.5919 C   0  0  0  0  0  0  0  0  0  0  0  0
   -7.3731   -2.4655   -3.0454 Cl  0  0  0  0  0  0  0  0  0  0  0  0
   -5.3718   -1.3366   -1.6269 C   0  0  0  0  0  0  0  0  0  0  0  0
   -3.7002    1.0343   -0.9680 N   0  0  0  0  0  0  0  0  0  0  0  0
   -2.7116    1.9353   -1.0473 C   0  0  0  0  0  0  0  0  0  0  0  0
   -3.0092    3.1999   -1.5396 C   0  0  0  0  0  0  0  0  0  0  0  0
   -2.0382    4.1961   -1.6528 C   0  0  0  0  0  0  0  0  0  0  0  0
   -0.7336    3.9297   -1.2650 C   0  0  0  0  0  0  0  0  0  0  0  0
   -0.4115    2.6698   -0.7658 C   0  0  0  0  0  0  0  0  0  0  0  0
   -1.3963    1.6535   -0.6502 C   0  0  0  0  0  0  0  0  0  0  0  0
   -1.1643    0.3479   -0.1593 C   0  0  0  0  0  0  0  0  0  0  0  0
    0.1878    0.0050    0.3104 C   0  0  0  0  0  0  0  0  0  0  0  0
    1.1380   -0.2361   -0.4139 O   0  0  0  0  0  0  0  0  0  0  0  0
    0.1879    0.0420    1.6665 O   0  0  0  0  0  0  0  0  0  0  0  0
    1.4646   -0.2309    2.2482 C   0  0  0  0  0  0  0  0  0  0  0  0
    1.9639   -1.6520    1.9590 C   0  0  0  0  0  0  0  0  0  0  0  0
    1.1562   -2.5633    1.7521 O   0  0  0  0  0  0  0  0  0  0  0  0
    3.4592   -1.8913    2.0269 C   0  0  0  0  0  0  0  0  0  0  0  0
    3.8152   -3.2535    1.6060 C   0  0  0  0  0  0  0  0  0  0  0  0
    4.1249   -4.3180    1.2576 N   0  0  0  0  0  0  0  0  0  0  0  0
    4.1828   -0.8942    1.1780 C   0  0  0  0  0  0  0  0  0  0  0  0
    5.0206    0.0220    1.6255 N   0  0  0  0  0  0  0  0  0  0  0  0
    5.4262    0.7309    0.5204 C   0  0  0  0  0  0  0  0  0  0  0  0
    6.3197    1.8067    0.4205 C   0  0  0  0  0  0  0  0  0  0  0  0
    6.5556    2.3678   -0.8418 C   0  0  0  0  0  0  0  0  0  0  0  0
    5.9113    1.8708   -1.9778 C   0  0  0  0  0  0  0  0  0  0  0  0
    5.0135    0.7999   -1.8951 C   0  0  0  0  0  0  0  0  0  0  0  0
    4.8040    0.2550   -0.6261 C   0  0  0  0  0  0  0  0  0  0  0  0
    4.0136   -0.7763   -0.1854 N   0  0  0  0  0  0  0  0  0  0  0  0
   -1.9134   -2.0747    1.4524 H   0  0  0  0  0  0  0  0  0  0  0  0
   -2.6023   -2.7521   -0.0436 H   0  0  0  0  0  0  0  0  0  0  0  0
   -0.9076   -2.3642    0.0062 H   0  0  0  0  0  0  0  0  0  0  0  0
   -4.5971   -1.4056    1.6880 H   0  0  0  0  0  0  0  0  0  0  0  0
   -6.6036   -2.8408    1.7281 H   0  0  0  0  0  0  0  0  0  0  0  0
   -7.8401   -3.3193   -0.3656 H   0  0  0  0  0  0  0  0  0  0  0  0
   -5.0420   -0.9060   -2.5712 H   0  0  0  0  0  0  0  0  0  0  0  0
   -4.0309    3.4157   -1.8465 H   0  0  0  0  0  0  0  0  0  0  0  0
   -2.3063    5.1727   -2.0462 H   0  0  0  0  0  0  0  0  0  0  0  0
    0.0330    4.6954   -1.3552 H   0  0  0  0  0  0  0  0  0  0  0  0
    0.6218    2.4836   -0.4784 H   0  0  0  0  0  0  0  0  0  0  0  0
    2.1698    0.5349    1.9147 H   0  0  0  0  0  0  0  0  0  0  0  0
    1.3632   -0.1351    3.3340 H   0  0  0  0  0  0  0  0  0  0  0  0
    3.7533   -1.7549    3.0750 H   0  0  0  0  0  0  0  0  0  0  0  0
    6.8161    2.1892    1.3047 H   0  0  0  0  0  0  0  0  0  0  0  0
    7.2505    3.1996   -0.9363 H   0  0  0  0  0  0  0  0  0  0  0  0
    6.1133    2.3223   -2.9482 H   0  0  0  0  0  0  0  0  0  0  0  0
    4.5126    0.4145   -2.7777 H   0  0  0  0  0  0  0  0  0  0  0  0
    3.3725   -1.3074   -0.7628 H   0  0  0  0  0  0  0  0  0  0  0  0
  1  2  1  0
  2  3  2  0
  3  4  1  0
  4  5  2  0
  5  6  1  0
  6  7  2  0
  7  8  1  0
  8  9  1  0
  8 10  2  0
  3 11  1  0
 11 12  2  0
 12 13  1  0
 13 14  2  0
 14 15  1  0
 15 16  2  0
 16 17  1  0
 17 18  2  0
 18 19  1  0
 19 20  2  0
 19 21  1  0
 21 22  1  0
 22 23  1  0
 23 24  2  0
 23 25  1  0
 25 26  1  0
 26 27  3  0
 25 28  1  0
 28 29  2  0
 29 30  1  0
 30 31  2  0
 31 32  1  0
 32 33  2  0
 33 34  1  0
 34 35  2  0
 35 36  1  0
 18  2  1  0
 36 28  1  0
 10  4  1  0
 17 12  1  0
 35 30  1  0
  1 37  1  0
  1 38  1  0
  1 39  1  0
  5 40  1  0
  6 41  1  0
  7 42  1  0
 10 43  1  0
 13 44  1  0
 14 45  1  0
 15 46  1  0
 16 47  1  0
 22 48  1  0
 22 49  1  0
 25 50  1  0
 31 51  1  0
 32 52  1  0
 33 53  1  0
 34 54  1  0
 36 55  1  0
M  END
$$$$
