
     RDKit          3D

 41 43  0  0  0  0  0  0  0  0999 V2000
   -4.2387    0.1511    1.4219 O   0  0  0  0  0  0  0  0  0  0  0  0
   -4.5267   -0.1261    0.2674 C   0  0  0  0  0  0  0  0  0  0  0  0
   -3.6645   -0.2269   -0.8095 O   0  0  0  0  0  0  0  0  0  0  0  0
   -2.3120    0.0209   -0.5403 C   0  0  0  0  0  0  0  0  0  0  0  0
   -1.4031   -0.9891   -0.8520 C   0  0  0  0  0  0  0  0  0  0  0  0
   -0.0402   -0.7691   -0.6502 C   0  0  0  0  0  0  0  0  0  0  0  0
    0.4000    0.4622   -0.1502 C   0  0  0  0  0  0  0  0  0  0  0  0
    1.8372    0.7146    0.0738 C   0  0  0  0  0  0  0  0  0  0  0  0
    2.7354   -0.1728   -0.2104 N   0  0  0  0  0  0  0  0  0  0  0  0
    4.0173    0.1985    0.0505 N   0  0  0  0  0  0  0  0  0  0  0  0
    5.0760   -0.6550   -0.2095 C   0  0  0  0  0  0  0  0  0  0  0  0
    5.0016   -1.7830   -0.6858 O   0  0  0  0  0  0  0  0  0  0  0  0
    6.4010   -0.0611    0.1564 C   0  0  0  0  0  0  0  0  0  0  0  0
    7.5661   -0.7924   -0.0401 C   0  0  0  0  0  0  0  0  0  0  0  0
    8.7769   -0.2051    0.3133 C   0  0  0  0  0  0  0  0  0  0  0  0
    8.7819    1.0807    0.8460 C   0  0  0  0  0  0  0  0  0  0  0  0
    7.5703    1.7365    1.0069 C   0  0  0  0  0  0  0  0  0  0  0  0
    6.3743    1.2023    0.6765 N   0  0  0  0  0  0  0  0  0  0  0  0
   -0.5175    1.4781    0.1420 C   0  0  0  0  0  0  0  0  0  0  0  0
   -1.8811    1.2598   -0.0636 C   0  0  0  0  0  0  0  0  0  0  0  0
   -5.9204   -0.4149   -0.1754 C   0  0  0  0  0  0  0  0  0  0  0  0
   -6.9358   -0.3948    0.7929 C   0  0  0  0  0  0  0  0  0  0  0  0
   -8.2613   -0.6568    0.4352 C   0  0  0  0  0  0  0  0  0  0  0  0
   -8.5749   -0.9392   -0.8927 C   0  0  0  0  0  0  0  0  0  0  0  0
  -10.3665   -1.2933   -1.3789 Br  0  0  0  0  0  0  0  0  0  0  0  0
   -7.5766   -0.9623   -1.8656 C   0  0  0  0  0  0  0  0  0  0  0  0
   -6.2496   -0.7004   -1.5089 C   0  0  0  0  0  0  0  0  0  0  0  0
   -1.7473   -1.9412   -1.2449 H   0  0  0  0  0  0  0  0  0  0  0  0
    0.6743   -1.5566   -0.8830 H   0  0  0  0  0  0  0  0  0  0  0  0
    2.1081    1.7000    0.4941 H   0  0  0  0  0  0  0  0  0  0  0  0
    4.2351    1.1088    0.4514 H   0  0  0  0  0  0  0  0  0  0  0  0
    7.5301   -1.7939   -0.4576 H   0  0  0  0  0  0  0  0  0  0  0  0
    9.7086   -0.7471    0.1741 H   0  0  0  0  0  0  0  0  0  0  0  0
    9.7121    1.5617    1.1301 H   0  0  0  0  0  0  0  0  0  0  0  0
    7.5336    2.7413    1.4197 H   0  0  0  0  0  0  0  0  0  0  0  0
   -0.1852    2.4382    0.5270 H   0  0  0  0  0  0  0  0  0  0  0  0
   -2.5963    2.0468    0.1576 H   0  0  0  0  0  0  0  0  0  0  0  0
   -6.6984   -0.1758    1.8331 H   0  0  0  0  0  0  0  0  0  0  0  0
   -9.0360   -0.6381    1.1978 H   0  0  0  0  0  0  0  0  0  0  0  0
   -7.8193   -1.1827   -2.9025 H   0  0  0  0  0  0  0  0  0  0  0  0
   -5.4889   -0.7236   -2.2858 H   0  0  0  0  0  0  0  0  0  0  0  0
  1  2  2  0
  2  3  1  0
  3  4  1  0
  4  5  2  0
  5  6  1  0
  6  7  2  0
  7  8  1  0
  8  9  2  3
  9 10  1  0
 10 11  1  0
 11 12  2  0
 11 13  1  0
 13 14  2  0
 14 15  1  0
 15 16  2  0
 16 17  1  0
 17 18  2  0
  7 19  1  0
 19 20  2  0
  2 21  1  0
 21 22  2  0
 22 23  1  0
 23 24  2  0
 24 25  1  0
 24 26  1  0
 26 27  2  0
 20  4  1  0
 27 21  1  0
 18 13  1  0
  5 28  1  0
  6 29  1  0
  8 30  1  0
 10 31  1  0
 14 32  1  0
 15 33  1  0
 16 34  1  0
 17 35  1  0
 19 36  1  0
 20 37  1  0
 22 38  1  0
 23 39  1  0
 26 40  1  0
 27 41  1  0
M  END
$$$$
