
     RDKit          3D

 49 51  0  0  0  0  0  0  0  0999 V2000
   -5.1569    2.0194   -1.9954 C   0  0  0  0  0  0  0  0  0  0  0  0
   -4.2237    1.4900   -0.9457 C   0  0  0  0  0  0  0  0  0  0  0  0
   -4.6846    1.2290    0.3500 C   0  0  0  0  0  0  0  0  0  0  0  0
   -3.8219    0.7121    1.3214 C   0  0  0  0  0  0  0  0  0  0  0  0
   -4.3198    0.4155    2.7053 C   0  0  0  0  0  0  0  0  0  0  0  0
   -2.4957    0.4234    0.9710 C   0  0  0  0  0  0  0  0  0  0  0  0
   -2.0201    0.6661   -0.3247 C   0  0  0  0  0  0  0  0  0  0  0  0
   -0.6742    0.3436   -0.5813 N   0  0  0  0  0  0  0  0  0  0  0  0
    0.0429    0.5145   -1.7595 C   0  0  0  0  0  0  0  0  0  0  0  0
   -0.3935    0.9728   -2.8131 O   0  0  0  0  0  0  0  0  0  0  0  0
    1.5047    0.0058   -1.6480 C   0  0  0  0  0  0  0  0  0  0  0  0
    1.9554   -0.1284   -0.2892 O   0  0  0  0  0  0  0  0  0  0  0  0
    2.3758    1.0222    0.2886 C   0  0  0  0  0  0  0  0  0  0  0  0
    2.3653    2.1262   -0.2270 O   0  0  0  0  0  0  0  0  0  0  0  0
    2.7992    0.7685    1.6907 C   0  0  0  0  0  0  0  0  0  0  0  0
    2.9756    1.8716    2.5381 C   0  0  0  0  0  0  0  0  0  0  0  0
    3.3555    1.6850    3.8699 C   0  0  0  0  0  0  0  0  0  0  0  0
    3.5624    0.3943    4.3464 C   0  0  0  0  0  0  0  0  0  0  0  0
    3.9302    0.1637    5.6381 O   0  0  0  0  0  0  0  0  0  0  0  0
    3.3998   -0.7087    3.5158 C   0  0  0  0  0  0  0  0  0  0  0  0
    3.0180   -0.5257    2.1848 C   0  0  0  0  0  0  0  0  0  0  0  0
    1.6624   -1.3560   -2.3059 C   0  0  0  0  0  0  0  0  0  0  0  0
    1.0356   -2.4988   -1.7815 C   0  0  0  0  0  0  0  0  0  0  0  0
    1.1885   -3.7411   -2.3994 C   0  0  0  0  0  0  0  0  0  0  0  0
    1.9711   -3.8585   -3.5451 C   0  0  0  0  0  0  0  0  0  0  0  0
    2.5999   -2.7347   -4.0755 C   0  0  0  0  0  0  0  0  0  0  0  0
    2.4470   -1.4908   -3.4610 C   0  0  0  0  0  0  0  0  0  0  0  0
   -2.8911    1.1977   -1.2759 C   0  0  0  0  0  0  0  0  0  0  0  0
   -4.6365    2.7210   -2.6586 H   0  0  0  0  0  0  0  0  0  0  0  0
   -5.5563    1.1913   -2.5922 H   0  0  0  0  0  0  0  0  0  0  0  0
   -5.9946    2.5616   -1.5407 H   0  0  0  0  0  0  0  0  0  0  0  0
   -5.7234    1.4331    0.6027 H   0  0  0  0  0  0  0  0  0  0  0  0
   -5.1971    1.0242    2.9476 H   0  0  0  0  0  0  0  0  0  0  0  0
   -3.5500    0.6447    3.4499 H   0  0  0  0  0  0  0  0  0  0  0  0
   -4.5927   -0.6414    2.7872 H   0  0  0  0  0  0  0  0  0  0  0  0
   -1.8353    0.0048    1.7264 H   0  0  0  0  0  0  0  0  0  0  0  0
   -0.1529   -0.0521    0.1914 H   0  0  0  0  0  0  0  0  0  0  0  0
    2.1406    0.7309   -2.1731 H   0  0  0  0  0  0  0  0  0  0  0  0
    2.8118    2.8811    2.1644 H   0  0  0  0  0  0  0  0  0  0  0  0
    3.4813    2.5503    4.5121 H   0  0  0  0  0  0  0  0  0  0  0  0
    4.0292    1.0159    6.0943 H   0  0  0  0  0  0  0  0  0  0  0  0
    3.5716   -1.7090    3.9044 H   0  0  0  0  0  0  0  0  0  0  0  0
    2.9021   -1.3998    1.5482 H   0  0  0  0  0  0  0  0  0  0  0  0
    0.4193   -2.4319   -0.8896 H   0  0  0  0  0  0  0  0  0  0  0  0
    0.6941   -4.6175   -1.9889 H   0  0  0  0  0  0  0  0  0  0  0  0
    2.0878   -4.8256   -4.0268 H   0  0  0  0  0  0  0  0  0  0  0  0
    3.2091   -2.8260   -4.9704 H   0  0  0  0  0  0  0  0  0  0  0  0
    2.9449   -0.6246   -3.8943 H   0  0  0  0  0  0  0  0  0  0  0  0
   -2.5607    1.3904   -2.2924 H   0  0  0  0  0  0  0  0  0  0  0  0
  1  2  1  0
  2  3  2  0
  3  4  1  0
  4  5  1  0
  4  6  2  0
  6  7  1  0
  7  8  1  0
  8  9  1  0
  9 10  2  0
  9 11  1  0
 11 12  1  0
 12 13  1  0
 13 14  2  0
 13 15  1  0
 15 16  2  0
 16 17  1  0
 17 18  2  0
 18 19  1  0
 18 20  1  0
 20 21  2  0
 11 22  1  0
 22 23  2  0
 23 24  1  0
 24 25  2  0
 25 26  1  0
 26 27  2  0
  7 28  2  0
 28  2  1  0
 21 15  1  0
 27 22  1  0
  1 29  1  0
  1 30  1  0
  1 31  1  0
  3 32  1  0
  5 33  1  0
  5 34  1  0
  5 35  1  0
  6 36  1  0
  8 37  1  0
 11 38  1  0
 16 39  1  0
 17 40  1  0
 19 41  1  0
 20 42  1  0
 21 43  1  0
 23 44  1  0
 24 45  1  0
 25 46  1  0
 26 47  1  0
 27 48  1  0
 28 49  1  0
M  END
$$$$
