
     RDKit          3D

 57 60  0  0  0  0  0  0  0  0999 V2000
    7.7824   -1.5816    2.0147 C   0  0  0  0  0  0  0  0  0  0  0  0
    6.7983   -1.9944    0.9354 C   0  0  0  0  0  0  0  0  0  0  0  0
    6.2058   -0.8294    0.3335 O   0  0  0  0  0  0  0  0  0  0  0  0
    5.0959   -0.3393    0.9565 C   0  0  0  0  0  0  0  0  0  0  0  0
    4.5834   -0.8120    1.9614 O   0  0  0  0  0  0  0  0  0  0  0  0
    4.5562    0.8553    0.1950 C   0  0  0  0  0  0  0  0  0  0  0  0
    3.5654    0.3461   -0.8562 C   0  0  0  0  0  0  0  0  0  0  0  0
    2.7728    1.4813   -1.4937 C   0  0  0  0  0  0  0  0  0  0  0  0
    2.2230    2.4109   -0.4860 N   0  0  0  0  0  0  0  0  0  0  0  0
    0.8254    3.2790   -0.8967 S   0  0  0  0  0  6  0  0  0  0  0  0
    0.9022    3.5998   -2.3074 O   0  0  0  0  0  0  0  0  0  0  0  0
    0.6213    4.3135    0.0941 O   0  0  0  0  0  0  0  0  0  0  0  0
   -0.4750    2.0766   -0.6866 C   0  0  0  0  0  0  0  0  0  0  0  0
   -1.0771    1.9269    0.5749 C   0  0  0  0  0  0  0  0  0  0  0  0
   -2.1340    1.0282    0.7472 C   0  0  0  0  0  0  0  0  0  0  0  0
   -2.5811    0.3075   -0.3489 C   0  0  0  0  0  0  0  0  0  0  0  0
   -1.9865    0.4731   -1.6016 C   0  0  0  0  0  0  0  0  0  0  0  0
   -0.9357    1.3582   -1.7940 C   0  0  0  0  0  0  0  0  0  0  0  0
   -2.6498   -0.3759   -2.6366 C   0  0  0  0  0  0  0  0  0  0  0  0
   -3.7183   -1.1096   -1.8173 C   0  0  0  0  0  0  0  0  0  0  0  0
   -3.6304   -0.6256   -0.4317 N   0  0  0  0  0  0  0  0  0  0  0  0
   -4.4687   -1.0105    0.6128 C   0  0  0  0  0  0  0  0  0  0  0  0
   -4.3527   -0.5738    1.7644 O   0  0  0  0  0  0  0  0  0  0  0  0
   -5.5847   -2.0369    0.2475 C   0  0  0  0  0  0  0  0  0  0  0  0
   -6.9593   -1.4563   -0.1977 C   0  0  0  0  0  0  0  0  0  0  0  0
   -7.6307   -2.6254    0.5524 C   0  0  0  0  0  0  0  0  0  0  0  0
   -6.3611   -2.7051    1.4231 C   0  0  0  0  0  0  0  0  0  0  0  0
    2.4350    2.0515    0.9284 C   0  0  0  0  0  0  0  0  0  0  0  0
    3.9330    1.8840    1.1545 C   0  0  0  0  0  0  0  0  0  0  0  0
    8.2741   -2.4577    2.4513 H   0  0  0  0  0  0  0  0  0  0  0  0
    7.2780   -1.0295    2.8157 H   0  0  0  0  0  0  0  0  0  0  0  0
    8.5499   -0.9135    1.6002 H   0  0  0  0  0  0  0  0  0  0  0  0
    7.3265   -2.5314    0.1407 H   0  0  0  0  0  0  0  0  0  0  0  0
    6.0316   -2.6738    1.3269 H   0  0  0  0  0  0  0  0  0  0  0  0
    5.4023    1.3490   -0.3041 H   0  0  0  0  0  0  0  0  0  0  0  0
    4.0990   -0.2136   -1.6354 H   0  0  0  0  0  0  0  0  0  0  0  0
    2.8675   -0.3716   -0.3993 H   0  0  0  0  0  0  0  0  0  0  0  0
    1.9803    1.0496   -2.1117 H   0  0  0  0  0  0  0  0  0  0  0  0
    3.4306    2.0586   -2.1528 H   0  0  0  0  0  0  0  0  0  0  0  0
   -0.7374    2.5167    1.4240 H   0  0  0  0  0  0  0  0  0  0  0  0
   -2.5885    0.9269    1.7276 H   0  0  0  0  0  0  0  0  0  0  0  0
   -0.4983    1.4979   -2.7778 H   0  0  0  0  0  0  0  0  0  0  0  0
   -1.9444   -1.0799   -3.0912 H   0  0  0  0  0  0  0  0  0  0  0  0
   -3.1073    0.2396   -3.4164 H   0  0  0  0  0  0  0  0  0  0  0  0
   -4.7243   -0.9177   -2.2069 H   0  0  0  0  0  0  0  0  0  0  0  0
   -3.5441   -2.1920   -1.8277 H   0  0  0  0  0  0  0  0  0  0  0  0
   -5.2266   -2.8144   -0.4416 H   0  0  0  0  0  0  0  0  0  0  0  0
   -7.1373   -1.4299   -1.2757 H   0  0  0  0  0  0  0  0  0  0  0  0
   -7.1865   -0.4695    0.2223 H   0  0  0  0  0  0  0  0  0  0  0  0
   -7.7942   -3.5121   -0.0696 H   0  0  0  0  0  0  0  0  0  0  0  0
   -8.5555   -2.3848    1.0821 H   0  0  0  0  0  0  0  0  0  0  0  0
   -6.4213   -2.1039    2.3355 H   0  0  0  0  0  0  0  0  0  0  0  0
   -6.0351   -3.7155    1.6886 H   0  0  0  0  0  0  0  0  0  0  0  0
    2.0747    2.8474    1.5890 H   0  0  0  0  0  0  0  0  0  0  0  0
    1.8918    1.1337    1.1789 H   0  0  0  0  0  0  0  0  0  0  0  0
    4.1193    1.6406    2.2048 H   0  0  0  0  0  0  0  0  0  0  0  0
    4.4205    2.8524    0.9813 H   0  0  0  0  0  0  0  0  0  0  0  0
  1  2  1  0
  2  3  1  0
  3  4  1  0
  4  5  2  0
  4  6  1  0
  6  7  1  0
  7  8  1  0
  8  9  1  0
  9 10  1  0
 10 11  2  0
 10 12  2  0
 10 13  1  0
 13 14  2  0
 14 15  1  0
 15 16  2  0
 16 17  1  0
 17 18  2  0
 17 19  1  0
 19 20  1  0
 20 21  1  0
 21 22  1  0
 22 23  2  0
 22 24  1  0
 24 25  1  0
 25 26  1  0
 26 27  1  0
  9 28  1  0
 28 29  1  0
 29  6  1  0
 18 13  1  0
 27 24  1  0
 21 16  1  0
  1 30  1  0
  1 31  1  0
  1 32  1  0
  2 33  1  0
  2 34  1  0
  6 35  1  0
  7 36  1  0
  7 37  1  0
  8 38  1  0
  8 39  1  0
 14 40  1  0
 15 41  1  0
 18 42  1  0
 19 43  1  0
 19 44  1  0
 20 45  1  0
 20 46  1  0
 24 47  1  0
 25 48  1  0
 25 49  1  0
 26 50  1  0
 26 51  1  0
 27 52  1  0
 27 53  1  0
 28 54  1  0
 28 55  1  0
 29 56  1  0
 29 57  1  0
M  END
$$$$
