
     RDKit          3D

 46 50  0  0  0  0  0  0  0  0999 V2000
    6.2436    2.5325   -1.8867 C   0  0  0  0  0  0  0  0  0  0  0  0
    5.7522    2.1229   -0.6169 O   0  0  0  0  0  0  0  0  0  0  0  0
    4.4698    1.6515   -0.5714 C   0  0  0  0  0  0  0  0  0  0  0  0
    3.5901    1.5581   -1.6496 C   0  0  0  0  0  0  0  0  0  0  0  0
    2.2970    1.0535   -1.4618 C   0  0  0  0  0  0  0  0  0  0  0  0
    1.8702    0.6345   -0.1959 C   0  0  0  0  0  0  0  0  0  0  0  0
    0.5218    0.1170   -0.0021 C   0  0  0  0  0  0  0  0  0  0  0  0
   -0.5949    0.8380   -0.3645 N   0  0  0  0  0  0  0  0  0  0  0  0
   -1.7255    0.1520    0.0076 C   0  0  0  0  0  0  0  0  0  0  0  0
   -3.1002    0.6197   -0.2080 C   0  0  0  0  0  0  0  0  0  0  0  0
   -3.3940    1.9351   -0.6407 C   0  0  0  0  0  0  0  0  0  0  0  0
   -4.7159    2.3556   -0.8401 C   0  0  0  0  0  0  0  0  0  0  0  0
   -5.7221    1.4477   -0.5992 C   0  0  0  0  0  0  0  0  0  0  0  0
   -5.4534    0.1697   -0.1750 C   0  0  0  0  0  0  0  0  0  0  0  0
   -4.1624   -0.2707    0.0296 C   0  0  0  0  0  0  0  0  0  0  0  0
   -6.5837   -0.5644    0.0061 O   0  0  0  0  0  0  0  0  0  0  0  0
   -7.5946    0.4003   -0.3499 C   0  0  0  0  0  0  0  0  0  0  0  0
   -7.0539    1.6809   -0.7386 O   0  0  0  0  0  0  0  0  0  0  0  0
   -1.3785   -0.9862    0.5769 N   0  0  0  0  0  0  0  0  0  0  0  0
    0.0000   -1.0316    0.5715 C   0  0  0  0  0  0  0  0  0  0  0  0
    0.7283   -2.1595    1.1319 C   0  0  0  0  0  0  0  0  0  0  0  0
    0.2124   -2.8122    2.2603 C   0  0  0  0  0  0  0  0  0  0  0  0
    0.8828   -3.9000    2.8247 C   0  0  0  0  0  0  0  0  0  0  0  0
    2.0735   -4.3525    2.2604 C   0  0  0  0  0  0  0  0  0  0  0  0
    2.5890   -3.7234    1.1288 C   0  0  0  0  0  0  0  0  0  0  0  0
    1.9171   -2.6357    0.5635 C   0  0  0  0  0  0  0  0  0  0  0  0
    2.7555    0.7309    0.8813 C   0  0  0  0  0  0  0  0  0  0  0  0
    4.0447    1.2360    0.6920 C   0  0  0  0  0  0  0  0  0  0  0  0
    7.2764    2.8686   -1.7530 H   0  0  0  0  0  0  0  0  0  0  0  0
    6.2542    1.6970   -2.5945 H   0  0  0  0  0  0  0  0  0  0  0  0
    5.6669    3.3766   -2.2791 H   0  0  0  0  0  0  0  0  0  0  0  0
    3.8779    1.8632   -2.6501 H   0  0  0  0  0  0  0  0  0  0  0  0
    1.6353    0.9727   -2.3212 H   0  0  0  0  0  0  0  0  0  0  0  0
   -0.5762    1.7444   -0.8044 H   0  0  0  0  0  0  0  0  0  0  0  0
   -2.6031    2.6579   -0.8188 H   0  0  0  0  0  0  0  0  0  0  0  0
   -4.9432    3.3635   -1.1691 H   0  0  0  0  0  0  0  0  0  0  0  0
   -3.9762   -1.2866    0.3666 H   0  0  0  0  0  0  0  0  0  0  0  0
   -8.1827    0.0008   -1.1842 H   0  0  0  0  0  0  0  0  0  0  0  0
   -8.2585    0.5467    0.5099 H   0  0  0  0  0  0  0  0  0  0  0  0
   -0.7213   -2.4708    2.7038 H   0  0  0  0  0  0  0  0  0  0  0  0
    0.4711   -4.3936    3.7008 H   0  0  0  0  0  0  0  0  0  0  0  0
    2.5949   -5.2000    2.6973 H   0  0  0  0  0  0  0  0  0  0  0  0
    3.5118   -4.0816    0.6800 H   0  0  0  0  0  0  0  0  0  0  0  0
    2.3285   -2.1760   -0.3311 H   0  0  0  0  0  0  0  0  0  0  0  0
    2.4514    0.4147    1.8771 H   0  0  0  0  0  0  0  0  0  0  0  0
    4.7237    1.3033    1.5388 H   0  0  0  0  0  0  0  0  0  0  0  0
  1  2  1  0
  2  3  1  0
  3  4  2  0
  4  5  1  0
  5  6  2  0
  6  7  1  0
  7  8  1  0
  8  9  1  0
  9 10  1  0
 10 11  2  0
 11 12  1  0
 12 13  2  0
 13 14  1  0
 14 15  2  0
 14 16  1  0
 16 17  1  0
 17 18  1  0
  9 19  2  0
 19 20  1  0
 20 21  1  0
 21 22  2  0
 22 23  1  0
 23 24  2  0
 24 25  1  0
 25 26  2  0
  6 27  1  0
 27 28  2  0
 28  3  1  0
 20  7  2  0
 26 21  1  0
 15 10  1  0
 18 13  1  0
  1 29  1  0
  1 30  1  0
  1 31  1  0
  4 32  1  0
  5 33  1  0
  8 34  1  0
 11 35  1  0
 12 36  1  0
 15 37  1  0
 17 38  1  0
 17 39  1  0
 22 40  1  0
 23 41  1  0
 24 42  1  0
 25 43  1  0
 26 44  1  0
 27 45  1  0
 28 46  1  0
M  END
$$$$
