
     RDKit          3D

 47 49  0  0  0  0  0  0  0  0999 V2000
    7.3938   -0.9946    0.9579 C   0  0  0  0  0  0  0  0  0  0  0  0
    6.7016    0.2836    1.3975 C   0  0  0  0  0  0  0  0  0  0  0  0
    5.9445    0.8440    0.3273 O   0  0  0  0  0  0  0  0  0  0  0  0
    4.6468    0.4527    0.1612 C   0  0  0  0  0  0  0  0  0  0  0  0
    3.9787   -0.5359    0.8760 C   0  0  0  0  0  0  0  0  0  0  0  0
    2.6370   -0.8364    0.5911 C   0  0  0  0  0  0  0  0  0  0  0  0
    1.9375   -0.1568   -0.4166 C   0  0  0  0  0  0  0  0  0  0  0  0
    0.5599   -0.4666   -0.7000 N   0  0  0  0  0  0  0  0  0  0  0  0
   -0.1110   -1.6631   -0.3949 C   0  0  0  0  0  0  0  0  0  0  0  0
    0.4927   -2.7170    0.1538 O   0  0  0  0  0  0  0  0  0  0  0  0
   -1.4253   -1.5543   -0.8003 C   0  0  0  0  0  0  0  0  0  0  0  0
   -1.5974   -0.2763   -1.3537 C   0  0  0  0  0  0  0  0  0  0  0  0
   -2.7475    0.2733   -1.8498 N   0  0  0  0  0  0  0  0  0  0  0  0
   -3.7391   -0.6213   -2.4522 C   0  0  0  0  0  0  0  0  0  0  0  0
   -3.3189    1.4427   -1.1462 C   0  0  0  0  0  0  0  0  0  0  0  0
   -4.1408    1.0658    0.0691 C   0  0  0  0  0  0  0  0  0  0  0  0
   -5.5418    1.0250    0.0018 C   0  0  0  0  0  0  0  0  0  0  0  0
   -6.2959    0.6753    1.1235 C   0  0  0  0  0  0  0  0  0  0  0  0
   -5.6594    0.3608    2.3227 C   0  0  0  0  0  0  0  0  0  0  0  0
   -4.2690    0.3964    2.4026 C   0  0  0  0  0  0  0  0  0  0  0  0
   -3.5137    0.7479    1.2830 C   0  0  0  0  0  0  0  0  0  0  0  0
   -0.3733    0.3592   -1.3405 C   0  0  0  0  0  0  0  0  0  0  0  0
   -0.0865    1.5663   -1.8294 O   0  0  0  0  0  0  0  0  0  0  0  0
    2.6207    0.8342   -1.1320 C   0  0  0  0  0  0  0  0  0  0  0  0
    3.9597    1.1304   -0.8449 C   0  0  0  0  0  0  0  0  0  0  0  0
    8.0041   -0.8133    0.0669 H   0  0  0  0  0  0  0  0  0  0  0  0
    8.0383   -1.3783    1.7538 H   0  0  0  0  0  0  0  0  0  0  0  0
    6.6698   -1.7711    0.6935 H   0  0  0  0  0  0  0  0  0  0  0  0
    7.4697    1.0221    1.6516 H   0  0  0  0  0  0  0  0  0  0  0  0
    6.1081    0.1456    2.3073 H   0  0  0  0  0  0  0  0  0  0  0  0
    4.4624   -1.1026    1.6634 H   0  0  0  0  0  0  0  0  0  0  0  0
    2.1599   -1.5927    1.2060 H   0  0  0  0  0  0  0  0  0  0  0  0
   -0.1682   -3.4282    0.2252 H   0  0  0  0  0  0  0  0  0  0  0  0
   -2.1820   -2.3165   -0.6818 H   0  0  0  0  0  0  0  0  0  0  0  0
   -3.2642   -1.2861   -3.1836 H   0  0  0  0  0  0  0  0  0  0  0  0
   -4.4983   -0.0446   -2.9920 H   0  0  0  0  0  0  0  0  0  0  0  0
   -4.2423   -1.2366   -1.6988 H   0  0  0  0  0  0  0  0  0  0  0  0
   -3.9428    2.0072   -1.8515 H   0  0  0  0  0  0  0  0  0  0  0  0
   -2.5365    2.1476   -0.8381 H   0  0  0  0  0  0  0  0  0  0  0  0
   -6.0546    1.2662   -0.9263 H   0  0  0  0  0  0  0  0  0  0  0  0
   -7.3808    0.6485    1.0627 H   0  0  0  0  0  0  0  0  0  0  0  0
   -6.2467    0.0879    3.1953 H   0  0  0  0  0  0  0  0  0  0  0  0
   -3.7702    0.1510    3.3366 H   0  0  0  0  0  0  0  0  0  0  0  0
   -2.4280    0.7699    1.3586 H   0  0  0  0  0  0  0  0  0  0  0  0
   -0.8794    1.8106   -2.3434 H   0  0  0  0  0  0  0  0  0  0  0  0
    2.1584    1.3790   -1.9482 H   0  0  0  0  0  0  0  0  0  0  0  0
    4.4701    1.8990   -1.4208 H   0  0  0  0  0  0  0  0  0  0  0  0
  1  2  1  0
  2  3  1  0
  3  4  1  0
  4  5  2  0
  5  6  1  0
  6  7  2  0
  7  8  1  0
  8  9  1  0
  9 10  1  0
  9 11  2  0
 11 12  1  0
 12 13  1  0
 13 14  1  0
 13 15  1  0
 15 16  1  0
 16 17  2  0
 17 18  1  0
 18 19  2  0
 19 20  1  0
 20 21  2  0
 12 22  2  0
 22 23  1  0
  7 24  1  0
 24 25  2  0
 25  4  1  0
 22  8  1  0
 21 16  1  0
  1 26  1  0
  1 27  1  0
  1 28  1  0
  2 29  1  0
  2 30  1  0
  5 31  1  0
  6 32  1  0
 10 33  1  0
 11 34  1  0
 14 35  1  0
 14 36  1  0
 14 37  1  0
 15 38  1  0
 15 39  1  0
 17 40  1  0
 18 41  1  0
 19 42  1  0
 20 43  1  0
 21 44  1  0
 23 45  1  0
 24 46  1  0
 25 47  1  0
M  END
$$$$
