
     RDKit          3D

 38 41  0  0  0  0  0  0  0  0999 V2000
    5.7691    1.5499   -2.1774 C   0  0  0  0  0  0  0  0  0  0  0  0
    5.4720    0.9241   -0.9089 N   0  0  0  0  0  0  0  0  0  0  0  0
    4.2130    0.5467   -0.5809 C   0  0  0  0  0  0  0  0  0  0  0  0
    3.8334    0.4810    0.6787 N   0  0  0  0  0  0  0  0  0  0  0  0
    2.5389    0.0609    0.7326 C   0  0  0  0  0  0  0  0  0  0  0  0
    1.8691   -0.1115    1.9165 N   0  0  0  0  0  0  0  0  0  0  0  0
    0.5674   -0.5502    1.9441 C   0  0  0  0  0  0  0  0  0  0  0  0
   -0.0255   -0.7565    2.9982 O   0  0  0  0  0  0  0  0  0  0  0  0
   -0.1089   -0.7857    0.6187 C   0  0  0  0  0  0  0  0  0  0  0  0
    0.5686   -0.6387   -0.5325 C   0  0  0  0  0  0  0  0  0  0  0  0
    1.9073   -0.1991   -0.4594 C   0  0  0  0  0  0  0  0  0  0  0  0
    2.9933    0.0940   -1.7317 S   0  0  0  0  0  0  0  0  0  0  0  0
    0.0134   -0.8405   -1.8017 O   0  0  0  0  0  0  0  0  0  0  0  0
   -1.2309   -1.3689   -1.9060 C   0  0  0  0  0  0  0  0  0  0  0  0
   -1.8078   -1.3172   -3.0611 N   0  0  0  0  0  0  0  0  0  0  0  0
   -1.8583   -2.0096   -0.6901 C   0  0  0  0  0  0  0  0  0  0  0  0
   -1.3875   -3.4020   -0.6111 C   0  0  0  0  0  0  0  0  0  0  0  0
   -1.0241   -4.5006   -0.5297 N   0  0  0  0  0  0  0  0  0  0  0  0
   -1.5363   -1.2475    0.6095 C   0  0  0  0  0  0  0  0  0  0  0  0
   -2.5143   -0.0989    0.8549 C   0  0  0  0  0  0  0  0  0  0  0  0
   -3.2807   -0.0938    2.0327 C   0  0  0  0  0  0  0  0  0  0  0  0
   -4.1913    0.9323    2.2906 C   0  0  0  0  0  0  0  0  0  0  0  0
   -4.3475    1.9718    1.3787 C   0  0  0  0  0  0  0  0  0  0  0  0
   -3.5873    1.9901    0.2126 C   0  0  0  0  0  0  0  0  0  0  0  0
   -2.6738    0.9657   -0.0481 C   0  0  0  0  0  0  0  0  0  0  0  0
    6.8315    1.8119   -2.2117 H   0  0  0  0  0  0  0  0  0  0  0  0
    5.1929    2.4718   -2.3092 H   0  0  0  0  0  0  0  0  0  0  0  0
    5.5743    0.8749   -3.0170 H   0  0  0  0  0  0  0  0  0  0  0  0
    5.9913    1.3048   -0.1231 H   0  0  0  0  0  0  0  0  0  0  0  0
    2.3620    0.0611    2.7809 H   0  0  0  0  0  0  0  0  0  0  0  0
   -2.7338   -1.7563   -3.0531 H   0  0  0  0  0  0  0  0  0  0  0  0
   -2.9462   -2.0334   -0.8400 H   0  0  0  0  0  0  0  0  0  0  0  0
   -1.6619   -1.9634    1.4357 H   0  0  0  0  0  0  0  0  0  0  0  0
   -3.1649   -0.8839    2.7738 H   0  0  0  0  0  0  0  0  0  0  0  0
   -4.7723    0.9233    3.2096 H   0  0  0  0  0  0  0  0  0  0  0  0
   -5.0534    2.7729    1.5820 H   0  0  0  0  0  0  0  0  0  0  0  0
   -3.7005    2.8091   -0.4939 H   0  0  0  0  0  0  0  0  0  0  0  0
   -2.0902    1.0333   -0.9632 H   0  0  0  0  0  0  0  0  0  0  0  0
  1  2  1  0
  2  3  1  0
  3  4  2  0
  4  5  1  0
  5  6  1  0
  6  7  1  0
  7  8  2  0
  7  9  1  0
  9 10  2  0
 10 11  1  0
 11 12  1  0
 10 13  1  0
 13 14  1  0
 14 15  2  3
 14 16  1  0
 16 17  1  0
 17 18  3  0
 16 19  1  0
 19 20  1  0
 20 21  2  0
 21 22  1  0
 22 23  2  0
 23 24  1  0
 24 25  2  0
 12  3  1  0
 25 20  1  0
 11  5  2  0
 19  9  1  0
  1 26  1  0
  1 27  1  0
  1 28  1  0
  2 29  1  0
  6 30  1  0
 15 31  1  0
 16 32  1  0
 19 33  1  0
 21 34  1  0
 22 35  1  0
 23 36  1  0
 24 37  1  0
 25 38  1  0
M  END
$$$$
