
     RDKit          3D

 55 58  0  0  0  0  0  0  0  0999 V2000
   -4.2461   -3.3021    3.9002 C   0  0  0  0  0  0  0  0  0  0  0  0
   -3.8784   -3.4756    2.4962 N   0  0  0  0  0  0  0  0  0  0  0  0
   -4.6521   -4.4674    1.7528 C   0  0  0  0  0  0  0  0  0  0  0  0
   -3.2797   -2.4145    1.8105 C   0  0  0  0  0  0  0  0  0  0  0  0
   -3.1610   -2.3992    0.4098 C   0  0  0  0  0  0  0  0  0  0  0  0
   -2.5510   -1.3414   -0.2821 C   0  0  0  0  0  0  0  0  0  0  0  0
   -2.0236   -0.2496    0.4071 C   0  0  0  0  0  0  0  0  0  0  0  0
   -1.4255    0.8440   -0.2543 N   0  0  0  0  0  0  0  0  0  0  0  0
   -0.3105    0.6280   -1.0669 C   0  0  0  0  0  0  0  0  0  0  0  0
    0.5079   -0.3680   -0.9796 N   0  0  0  0  0  0  0  0  0  0  0  0
    1.5251   -0.4738   -1.8885 C   0  0  0  0  0  0  0  0  0  0  0  0
    1.3573   -0.8320   -3.0491 O   0  0  0  0  0  0  0  0  0  0  0  0
    2.8899   -0.1744   -1.3035 C   0  0  0  0  0  0  0  0  0  0  0  0
    3.9687   -0.1548   -2.3810 C   0  0  0  0  0  0  0  0  0  0  0  0
    5.3176    0.1977   -1.8049 C   0  0  0  0  0  0  0  0  0  0  0  0
    6.1368   -0.7977   -1.2557 C   0  0  0  0  0  0  0  0  0  0  0  0
    7.3759   -0.4687   -0.7043 C   0  0  0  0  0  0  0  0  0  0  0  0
    7.8055    0.8571   -0.6937 C   0  0  0  0  0  0  0  0  0  0  0  0
    6.9960    1.8552   -1.2331 C   0  0  0  0  0  0  0  0  0  0  0  0
    5.7562    1.5283   -1.7846 C   0  0  0  0  0  0  0  0  0  0  0  0
   -0.1445    1.9648   -2.2330 S   0  0  0  0  0  0  0  0  0  0  0  0
   -1.5329    2.8801   -1.5064 C   0  0  0  0  0  0  0  0  0  0  0  0
   -1.0518    3.8166   -0.4075 C   0  0  0  0  0  0  0  0  0  0  0  0
   -2.4414    3.9405    0.6926 S   0  0  0  0  0  6  0  0  0  0  0  0
   -1.9861    3.7266    2.0492 O   0  0  0  0  0  0  0  0  0  0  0  0
   -3.2144    5.1041    0.3104 O   0  0  0  0  0  0  0  0  0  0  0  0
   -3.3143    2.4966    0.1393 C   0  0  0  0  0  0  0  0  0  0  0  0
   -2.3920    1.7933   -0.8458 C   0  0  0  0  0  0  0  0  0  0  0  0
   -2.1015   -0.2542    1.7994 C   0  0  0  0  0  0  0  0  0  0  0  0
   -2.7158   -1.3155    2.4810 C   0  0  0  0  0  0  0  0  0  0  0  0
   -4.9538   -2.4746    4.0218 H   0  0  0  0  0  0  0  0  0  0  0  0
   -3.3621   -3.1253    4.5222 H   0  0  0  0  0  0  0  0  0  0  0  0
   -4.7214   -4.2036    4.3034 H   0  0  0  0  0  0  0  0  0  0  0  0
   -4.0273   -4.9902    1.0206 H   0  0  0  0  0  0  0  0  0  0  0  0
   -5.0484   -5.2436    2.4170 H   0  0  0  0  0  0  0  0  0  0  0  0
   -5.5034   -4.0012    1.2446 H   0  0  0  0  0  0  0  0  0  0  0  0
   -3.5336   -3.2230   -0.1914 H   0  0  0  0  0  0  0  0  0  0  0  0
   -2.4795   -1.3979   -1.3656 H   0  0  0  0  0  0  0  0  0  0  0  0
    2.8431    0.7975   -0.7974 H   0  0  0  0  0  0  0  0  0  0  0  0
    3.1119   -0.9383   -0.5488 H   0  0  0  0  0  0  0  0  0  0  0  0
    4.0309   -1.1308   -2.8798 H   0  0  0  0  0  0  0  0  0  0  0  0
    3.7079    0.5628   -3.1701 H   0  0  0  0  0  0  0  0  0  0  0  0
    5.8142   -1.8366   -1.2559 H   0  0  0  0  0  0  0  0  0  0  0  0
    8.0063   -1.2477   -0.2838 H   0  0  0  0  0  0  0  0  0  0  0  0
    8.7710    1.1123   -0.2652 H   0  0  0  0  0  0  0  0  0  0  0  0
    7.3309    2.8892   -1.2250 H   0  0  0  0  0  0  0  0  0  0  0  0
    5.1355    2.3186   -2.2005 H   0  0  0  0  0  0  0  0  0  0  0  0
   -2.0978    3.4242   -2.2708 H   0  0  0  0  0  0  0  0  0  0  0  0
   -0.2139    3.4196    0.1752 H   0  0  0  0  0  0  0  0  0  0  0  0
   -0.7958    4.8095   -0.7855 H   0  0  0  0  0  0  0  0  0  0  0  0
   -3.6208    1.9039    1.0013 H   0  0  0  0  0  0  0  0  0  0  0  0
   -4.2109    2.8527   -0.3793 H   0  0  0  0  0  0  0  0  0  0  0  0
   -2.9940    1.2689   -1.6018 H   0  0  0  0  0  0  0  0  0  0  0  0
   -1.6762    0.5656    2.3752 H   0  0  0  0  0  0  0  0  0  0  0  0
   -2.7269   -1.2559    3.5653 H   0  0  0  0  0  0  0  0  0  0  0  0
  1  2  1  0
  2  3  1  0
  2  4  1  0
  4  5  2  0
  5  6  1  0
  6  7  2  0
  7  8  1  0
  8  9  1  0
  9 10  2  3
 10 11  1  0
 11 12  2  0
 11 13  1  0
 13 14  1  0
 14 15  1  0
 15 16  2  0
 16 17  1  0
 17 18  2  0
 18 19  1  0
 19 20  2  0
  9 21  1  0
 21 22  1  0
 22 23  1  0
 23 24  1  0
 24 25  2  0
 24 26  2  0
 24 27  1  0
 27 28  1  0
  7 29  1  0
 29 30  2  0
 30  4  1  0
 28  8  1  0
 20 15  1  0
 28 22  1  0
  1 31  1  0
  1 32  1  0
  1 33  1  0
  3 34  1  0
  3 35  1  0
  3 36  1  0
  5 37  1  0
  6 38  1  0
 13 39  1  0
 13 40  1  0
 14 41  1  0
 14 42  1  0
 16 43  1  0
 17 44  1  0
 18 45  1  0
 19 46  1  0
 20 47  1  0
 22 48  1  0
 23 49  1  0
 23 50  1  0
 27 51  1  0
 27 52  1  0
 28 53  1  0
 29 54  1  0
 30 55  1  0
M  END
$$$$
