
     RDKit          3D

 53 57  0  0  0  0  0  0  0  0999 V2000
    3.7597   -1.3172   -0.9750 C   0  0  0  0  0  0  0  0  0  0  0  0
    4.0411   -1.0604    0.4798 C   0  0  0  0  0  0  0  0  0  0  0  0
    5.3791   -1.0732    0.9113 C   0  0  0  0  0  0  0  0  0  0  0  0
    5.7075   -0.8667    2.2530 C   0  0  0  0  0  0  0  0  0  0  0  0
    4.7045   -0.6535    3.1932 C   0  0  0  0  0  0  0  0  0  0  0  0
    3.3697   -0.6462    2.7934 C   0  0  0  0  0  0  0  0  0  0  0  0
    3.0355   -0.8484    1.4445 C   0  0  0  0  0  0  0  0  0  0  0  0
    1.2905   -0.8234    1.0070 S   0  0  0  0  0  6  0  0  0  0  0  0
    1.0843   -1.8874    0.0503 O   0  0  0  0  0  0  0  0  0  0  0  0
    0.5524   -0.7613    2.2520 O   0  0  0  0  0  0  0  0  0  0  0  0
    1.2140    0.6751    0.2247 N   0  0  0  0  0  0  0  0  0  0  0  0
    0.0390    1.4230    0.4992 C   0  0  0  0  0  0  0  0  0  0  0  0
    0.3717    2.6466    0.9625 N   0  0  0  0  0  0  0  0  0  0  0  0
   -0.6600    3.4443    1.2863 C   0  0  0  0  0  0  0  0  0  0  0  0
   -0.4069    4.7119    1.7967 C   0  0  0  0  0  0  0  0  0  0  0  0
   -1.4458    5.5732    2.1524 C   0  0  0  0  0  0  0  0  0  0  0  0
   -2.7621    5.1608    1.9938 C   0  0  0  0  0  0  0  0  0  0  0  0
   -3.0285    3.8911    1.4796 C   0  0  0  0  0  0  0  0  0  0  0  0
   -2.0033    3.0245    1.1222 C   0  0  0  0  0  0  0  0  0  0  0  0
   -2.3094    1.8122    0.6206 N   0  0  0  0  0  0  0  0  0  0  0  0
   -1.2880    0.9878    0.2848 C   0  0  0  0  0  0  0  0  0  0  0  0
   -1.5796   -0.2636   -0.2954 N   0  0  0  0  0  0  0  0  0  0  0  0
   -2.9294   -0.7469    0.0163 C   0  0  0  0  0  0  0  0  0  0  0  0
   -3.0350   -2.2202   -0.3842 C   0  0  0  0  0  0  0  0  0  0  0  0
   -2.6165   -2.4356   -1.8168 C   0  0  0  0  0  0  0  0  0  0  0  0
   -3.0388   -3.5799   -2.5074 C   0  0  0  0  0  0  0  0  0  0  0  0
   -2.6278   -3.8023   -3.8209 C   0  0  0  0  0  0  0  0  0  0  0  0
   -1.7852   -2.8901   -4.4508 C   0  0  0  0  0  0  0  0  0  0  0  0
   -1.3488   -1.7553   -3.7661 C   0  0  0  0  0  0  0  0  0  0  0  0
   -1.7499   -1.5195   -2.4412 C   0  0  0  0  0  0  0  0  0  0  0  0
   -1.2741   -0.2606   -1.7373 C   0  0  0  0  0  0  0  0  0  0  0  0
    3.0488   -0.5914   -1.3787 H   0  0  0  0  0  0  0  0  0  0  0  0
    3.3793   -2.3332   -1.1145 H   0  0  0  0  0  0  0  0  0  0  0  0
    4.6713   -1.2214   -1.5756 H   0  0  0  0  0  0  0  0  0  0  0  0
    6.1837   -1.2512    0.1994 H   0  0  0  0  0  0  0  0  0  0  0  0
    6.7493   -0.8820    2.5644 H   0  0  0  0  0  0  0  0  0  0  0  0
    4.9605   -0.5024    4.2392 H   0  0  0  0  0  0  0  0  0  0  0  0
    2.5970   -0.4879    3.5438 H   0  0  0  0  0  0  0  0  0  0  0  0
    2.0182    1.2616    0.4365 H   0  0  0  0  0  0  0  0  0  0  0  0
    0.6236    5.0349    1.9233 H   0  0  0  0  0  0  0  0  0  0  0  0
   -1.2238    6.5597    2.5521 H   0  0  0  0  0  0  0  0  0  0  0  0
   -3.5820    5.8205    2.2673 H   0  0  0  0  0  0  0  0  0  0  0  0
   -4.0592    3.5676    1.3527 H   0  0  0  0  0  0  0  0  0  0  0  0
   -3.6890   -0.1577   -0.5162 H   0  0  0  0  0  0  0  0  0  0  0  0
   -3.1338   -0.6728    1.0922 H   0  0  0  0  0  0  0  0  0  0  0  0
   -4.0681   -2.5563   -0.2364 H   0  0  0  0  0  0  0  0  0  0  0  0
   -2.3849   -2.8281    0.2575 H   0  0  0  0  0  0  0  0  0  0  0  0
   -3.6866   -4.3053   -2.0211 H   0  0  0  0  0  0  0  0  0  0  0  0
   -2.9600   -4.6913   -4.3500 H   0  0  0  0  0  0  0  0  0  0  0  0
   -1.4622   -3.0657   -5.4732 H   0  0  0  0  0  0  0  0  0  0  0  0
   -0.6862   -1.0552   -4.2695 H   0  0  0  0  0  0  0  0  0  0  0  0
   -0.1930   -0.1753   -1.8958 H   0  0  0  0  0  0  0  0  0  0  0  0
   -1.7626    0.5942   -2.2259 H   0  0  0  0  0  0  0  0  0  0  0  0
  1  2  1  0
  2  3  2  0
  3  4  1  0
  4  5  2  0
  5  6  1  0
  6  7  2  0
  7  8  1  0
  8  9  2  0
  8 10  2  0
  8 11  1  0
 11 12  1  0
 12 13  2  0
 13 14  1  0
 14 15  2  0
 15 16  1  0
 16 17  2  0
 17 18  1  0
 18 19  2  0
 19 20  1  0
 20 21  2  0
 21 22  1  0
 22 23  1  0
 23 24  1  0
 24 25  1  0
 25 26  2  0
 26 27  1  0
 27 28  2  0
 28 29  1  0
 29 30  2  0
 30 31  1  0
  7  2  1  0
 21 12  1  0
 31 22  1  0
 19 14  1  0
 30 25  1  0
  1 32  1  0
  1 33  1  0
  1 34  1  0
  3 35  1  0
  4 36  1  0
  5 37  1  0
  6 38  1  0
 11 39  1  0
 15 40  1  0
 16 41  1  0
 17 42  1  0
 18 43  1  0
 23 44  1  0
 23 45  1  0
 24 46  1  0
 24 47  1  0
 26 48  1  0
 27 49  1  0
 28 50  1  0
 29 51  1  0
 31 52  1  0
 31 53  1  0
M  END
$$$$
