
     RDKit          3D

 44 46  0  0  0  0  0  0  0  0999 V2000
    3.4221   -0.9293    1.5997 C   0  0  0  0  0  0  0  0  0  0  0  0
    3.6425   -0.1654    0.2817 C   0  0  0  0  0  0  0  0  0  0  0  0
    5.0292    0.4918    0.3120 C   0  0  0  0  0  0  0  0  0  0  0  0
    3.5599   -1.1738   -0.8738 C   0  0  0  0  0  0  0  0  0  0  0  0
    2.5673    0.9406    0.1430 C   0  0  0  0  0  0  0  0  0  0  0  0
    1.8668    1.2547    1.1118 O   0  0  0  0  0  0  0  0  0  0  0  0
    2.4809    1.6764   -1.1961 C   0  0  0  0  0  0  0  0  0  0  0  0
    0.9821    2.6983   -1.3570 S   0  0  0  0  0  0  0  0  0  0  0  0
   -0.2659    1.4547   -1.0182 C   0  0  0  0  0  0  0  0  0  0  0  0
    0.0148    0.2185   -1.5176 N   0  0  0  0  0  0  0  0  0  0  0  0
   -0.8870   -0.7379   -1.2591 C   0  0  0  0  0  0  0  0  0  0  0  0
   -2.0555   -0.5508   -0.5353 C   0  0  0  0  0  0  0  0  0  0  0  0
   -2.3464    0.7100   -0.0303 C   0  0  0  0  0  0  0  0  0  0  0  0
   -3.5548    0.9268    0.7658 C   0  0  0  0  0  0  0  0  0  0  0  0
   -3.6848    0.9760    2.1393 C   0  0  0  0  0  0  0  0  0  0  0  0
   -5.0265    1.2461    2.5431 C   0  0  0  0  0  0  0  0  0  0  0  0
   -5.8734    1.3862    1.4656 C   0  0  0  0  0  0  0  0  0  0  0  0
   -5.0516    1.1974   -0.0223 S   0  0  0  0  0  0  0  0  0  0  0  0
   -1.4277    1.7485   -0.2852 C   0  0  0  0  0  0  0  0  0  0  0  0
   -1.6723    3.0729    0.2070 C   0  0  0  0  0  0  0  0  0  0  0  0
   -1.8945    4.1414    0.6063 N   0  0  0  0  0  0  0  0  0  0  0  0
   -2.7905   -1.8457   -0.3794 C   0  0  0  0  0  0  0  0  0  0  0  0
   -2.1533   -2.6921   -1.4923 C   0  0  0  0  0  0  0  0  0  0  0  0
   -0.7201   -2.1757   -1.6618 C   0  0  0  0  0  0  0  0  0  0  0  0
    3.4860   -0.2610    2.4671 H   0  0  0  0  0  0  0  0  0  0  0  0
    2.4330   -1.4024    1.6208 H   0  0  0  0  0  0  0  0  0  0  0  0
    4.1740   -1.7171    1.7334 H   0  0  0  0  0  0  0  0  0  0  0  0
    5.0943    1.2392    1.1118 H   0  0  0  0  0  0  0  0  0  0  0  0
    5.8168   -0.2493    0.4785 H   0  0  0  0  0  0  0  0  0  0  0  0
    5.2534    1.0051   -0.6293 H   0  0  0  0  0  0  0  0  0  0  0  0
    2.5364   -1.5413   -1.0044 H   0  0  0  0  0  0  0  0  0  0  0  0
    4.2098   -2.0373   -0.6940 H   0  0  0  0  0  0  0  0  0  0  0  0
    3.8772   -0.7322   -1.8237 H   0  0  0  0  0  0  0  0  0  0  0  0
    2.4995    0.9715   -2.0301 H   0  0  0  0  0  0  0  0  0  0  0  0
    3.3481    2.3386   -1.2804 H   0  0  0  0  0  0  0  0  0  0  0  0
   -2.8556    0.8461    2.8248 H   0  0  0  0  0  0  0  0  0  0  0  0
   -5.3496    1.3449    3.5717 H   0  0  0  0  0  0  0  0  0  0  0  0
   -6.9329    1.6033    1.4795 H   0  0  0  0  0  0  0  0  0  0  0  0
   -2.5884   -2.2756    0.6074 H   0  0  0  0  0  0  0  0  0  0  0  0
   -3.8687   -1.7507   -0.5329 H   0  0  0  0  0  0  0  0  0  0  0  0
   -2.1895   -3.7651   -1.2761 H   0  0  0  0  0  0  0  0  0  0  0  0
   -2.7083   -2.5313   -2.4281 H   0  0  0  0  0  0  0  0  0  0  0  0
   -0.0317   -2.6756   -0.9733 H   0  0  0  0  0  0  0  0  0  0  0  0
   -0.3648   -2.2795   -2.6900 H   0  0  0  0  0  0  0  0  0  0  0  0
  1  2  1  0
  2  3  1  0
  2  4  1  0
  2  5  1  0
  5  6  2  0
  5  7  1  0
  7  8  1  0
  8  9  1  0
  9 10  2  0
 10 11  1  0
 11 12  2  0
 12 13  1  0
 13 14  1  0
 14 15  2  0
 15 16  1  0
 16 17  2  0
 17 18  1  0
 13 19  2  0
 19 20  1  0
 20 21  3  0
 12 22  1  0
 22 23  1  0
 23 24  1  0
 19  9  1  0
 24 11  1  0
 18 14  1  0
  1 25  1  0
  1 26  1  0
  1 27  1  0
  3 28  1  0
  3 29  1  0
  3 30  1  0
  4 31  1  0
  4 32  1  0
  4 33  1  0
  7 34  1  0
  7 35  1  0
 15 36  1  0
 16 37  1  0
 17 38  1  0
 22 39  1  0
 22 40  1  0
 23 41  1  0
 23 42  1  0
 24 43  1  0
 24 44  1  0
M  END
$$$$
