
     RDKit          3D

 47 49  0  0  0  0  0  0  0  0999 V2000
    7.3438    0.0141   -0.3553 C   0  0  0  0  0  0  0  0  0  0  0  0
    6.0868   -0.1261    0.2936 O   0  0  0  0  0  0  0  0  0  0  0  0
    5.0288   -0.5046   -0.4838 C   0  0  0  0  0  0  0  0  0  0  0  0
    3.8619   -0.8032    0.2213 C   0  0  0  0  0  0  0  0  0  0  0  0
    2.7030   -1.2092   -0.4487 C   0  0  0  0  0  0  0  0  0  0  0  0
    2.6942   -1.3043   -1.8408 C   0  0  0  0  0  0  0  0  0  0  0  0
    1.5761   -1.7404   -2.5893 N   0  0  0  0  0  0  0  0  0  0  0  0
    0.3319   -2.0681   -2.1191 C   0  0  0  0  0  0  0  0  0  0  0  0
   -0.3075   -3.5256   -2.6610 S   0  0  0  0  0  0  0  0  0  0  0  0
   -0.3375   -1.1523   -1.3178 N   0  0  0  0  0  0  0  0  0  0  0  0
   -0.0372    0.2910   -1.3697 C   0  0  0  0  0  0  0  0  0  0  0  0
   -1.2967    1.1582   -1.3474 C   0  0  0  0  0  0  0  0  0  0  0  0
   -2.0828    0.8508   -0.1012 C   0  0  0  0  0  0  0  0  0  0  0  0
   -2.7584    1.8573    0.6076 C   0  0  0  0  0  0  0  0  0  0  0  0
   -3.4670    1.5484    1.7708 C   0  0  0  0  0  0  0  0  0  0  0  0
   -4.1459    2.4517    2.5459 O   0  0  0  0  0  0  0  0  0  0  0  0
   -4.1365    3.8111    2.1293 C   0  0  0  0  0  0  0  0  0  0  0  0
   -3.5105    0.2123    2.1947 C   0  0  0  0  0  0  0  0  0  0  0  0
   -4.1693   -0.1211    3.3525 O   0  0  0  0  0  0  0  0  0  0  0  0
   -5.4771   -0.6176    3.0411 C   0  0  0  0  0  0  0  0  0  0  0  0
   -2.8472   -0.7962    1.4920 C   0  0  0  0  0  0  0  0  0  0  0  0
   -2.1257   -0.4826    0.3355 C   0  0  0  0  0  0  0  0  0  0  0  0
   -1.4803   -1.5742   -0.4856 C   0  0  0  0  0  0  0  0  0  0  0  0
    3.8670   -1.0160   -2.5466 C   0  0  0  0  0  0  0  0  0  0  0  0
    5.0272   -0.6103   -1.8740 C   0  0  0  0  0  0  0  0  0  0  0  0
    8.0950    0.1917    0.4188 H   0  0  0  0  0  0  0  0  0  0  0  0
    7.3416    0.8780   -1.0246 H   0  0  0  0  0  0  0  0  0  0  0  0
    7.6252   -0.9012   -0.8869 H   0  0  0  0  0  0  0  0  0  0  0  0
    3.8557   -0.7353    1.3067 H   0  0  0  0  0  0  0  0  0  0  0  0
    1.8314   -1.4735    0.1421 H   0  0  0  0  0  0  0  0  0  0  0  0
    1.8277   -2.2426   -3.4344 H   0  0  0  0  0  0  0  0  0  0  0  0
    0.5820    0.5304   -0.4976 H   0  0  0  0  0  0  0  0  0  0  0  0
    0.5374    0.5274   -2.2719 H   0  0  0  0  0  0  0  0  0  0  0  0
   -1.0087    2.2146   -1.3734 H   0  0  0  0  0  0  0  0  0  0  0  0
   -1.9227    0.9546   -2.2250 H   0  0  0  0  0  0  0  0  0  0  0  0
   -2.7017    2.8755    0.2362 H   0  0  0  0  0  0  0  0  0  0  0  0
   -4.6084    3.9272    1.1458 H   0  0  0  0  0  0  0  0  0  0  0  0
   -4.7267    4.3905    2.8492 H   0  0  0  0  0  0  0  0  0  0  0  0
   -3.1172    4.2154    2.1318 H   0  0  0  0  0  0  0  0  0  0  0  0
   -5.4150   -1.6446    2.6475 H   0  0  0  0  0  0  0  0  0  0  0  0
   -6.0129    0.0347    2.3314 H   0  0  0  0  0  0  0  0  0  0  0  0
   -6.0516   -0.6473    3.9718 H   0  0  0  0  0  0  0  0  0  0  0  0
   -2.8955   -1.8209    1.8523 H   0  0  0  0  0  0  0  0  0  0  0  0
   -2.2541   -1.9885   -1.1443 H   0  0  0  0  0  0  0  0  0  0  0  0
   -1.1195   -2.3756    0.1724 H   0  0  0  0  0  0  0  0  0  0  0  0
    3.8905   -1.0788   -3.6310 H   0  0  0  0  0  0  0  0  0  0  0  0
    5.9065   -0.3747   -2.4644 H   0  0  0  0  0  0  0  0  0  0  0  0
  1  2  1  0
  2  3  1  0
  3  4  2  0
  4  5  1  0
  5  6  2  0
  6  7  1  0
  7  8  1  0
  8  9  2  0
  8 10  1  0
 10 11  1  0
 11 12  1  0
 12 13  1  0
 13 14  2  0
 14 15  1  0
 15 16  1  0
 16 17  1  0
 15 18  2  0
 18 19  1  0
 19 20  1  0
 18 21  1  0
 21 22  2  0
 22 23  1  0
  6 24  1  0
 24 25  2  0
 25  3  1  0
 23 10  1  0
 22 13  1  0
  1 26  1  0
  1 27  1  0
  1 28  1  0
  4 29  1  0
  5 30  1  0
  7 31  1  0
 11 32  1  0
 11 33  1  0
 12 34  1  0
 12 35  1  0
 14 36  1  0
 17 37  1  0
 17 38  1  0
 17 39  1  0
 20 40  1  0
 20 41  1  0
 20 42  1  0
 21 43  1  0
 23 44  1  0
 23 45  1  0
 24 46  1  0
 25 47  1  0
M  END
$$$$
