
     RDKit          3D

 42 43  0  0  0  0  0  0  0  0999 V2000
   -3.5354    1.9525    1.0820 C   0  0  0  0  0  0  0  0  0  0  0  0
   -2.9069    0.7567    0.3369 C   0  0  0  0  0  0  0  0  0  0  0  0
   -2.5594   -0.3256    1.3730 C   0  0  0  0  0  0  0  0  0  0  0  0
   -3.9538    0.1950   -0.6382 C   0  0  0  0  0  0  0  0  0  0  0  0
   -1.6396    1.2685   -0.4029 C   0  0  0  0  0  0  0  0  0  0  0  0
   -0.9301    0.2276   -1.1243 N   0  0  0  0  0  0  0  0  0  0  0  0
   -0.9424   -0.0408   -2.4561 C   0  0  0  0  0  0  0  0  0  0  0  0
   -1.7334    0.6736   -3.2748 N   0  0  0  0  0  0  0  0  0  0  0  0
   -0.1377   -0.9664   -2.8979 N   0  0  0  0  0  0  0  0  0  0  0  0
    0.5055   -1.4873   -1.6536 C   0  0  0  0  0  0  0  0  0  0  0  0
    0.2561   -0.4214   -0.5621 C   0  0  0  0  0  0  0  0  0  0  0  0
    1.4437    0.5563   -0.4477 C   0  0  0  0  0  0  0  0  0  0  0  0
    2.6426   -0.0458    0.2508 C   0  0  0  0  0  0  0  0  0  0  0  0
    2.6164   -0.2790    1.6336 C   0  0  0  0  0  0  0  0  0  0  0  0
    3.7204   -0.8415    2.2756 C   0  0  0  0  0  0  0  0  0  0  0  0
    4.8521   -1.1695    1.5398 C   0  0  0  0  0  0  0  0  0  0  0  0
    5.9070   -1.7176    2.2073 O   0  0  0  0  0  0  0  0  0  0  0  0
    4.9008   -0.9424    0.1687 C   0  0  0  0  0  0  0  0  0  0  0  0
    3.7961   -0.3791   -0.4740 C   0  0  0  0  0  0  0  0  0  0  0  0
   -2.8373    2.3740    1.8141 H   0  0  0  0  0  0  0  0  0  0  0  0
   -3.8122    2.7516    0.3850 H   0  0  0  0  0  0  0  0  0  0  0  0
   -4.4417    1.6541    1.6214 H   0  0  0  0  0  0  0  0  0  0  0  0
   -1.7719    0.0159    2.0538 H   0  0  0  0  0  0  0  0  0  0  0  0
   -3.4336   -0.5844    1.9816 H   0  0  0  0  0  0  0  0  0  0  0  0
   -2.2196   -1.2490    0.8926 H   0  0  0  0  0  0  0  0  0  0  0  0
   -4.8593   -0.1180   -0.1053 H   0  0  0  0  0  0  0  0  0  0  0  0
   -3.5770   -0.6808   -1.1765 H   0  0  0  0  0  0  0  0  0  0  0  0
   -4.2533    0.9483   -1.3747 H   0  0  0  0  0  0  0  0  0  0  0  0
   -0.9737    1.7307    0.3351 H   0  0  0  0  0  0  0  0  0  0  0  0
   -1.9151    2.0806   -1.0876 H   0  0  0  0  0  0  0  0  0  0  0  0
   -1.7212    0.2679   -4.2050 H   0  0  0  0  0  0  0  0  0  0  0  0
   -2.6797    0.7713   -2.9399 H   0  0  0  0  0  0  0  0  0  0  0  0
    0.0180   -2.4330   -1.3878 H   0  0  0  0  0  0  0  0  0  0  0  0
    1.5643   -1.6893   -1.8343 H   0  0  0  0  0  0  0  0  0  0  0  0
    0.0435   -0.9008    0.3983 H   0  0  0  0  0  0  0  0  0  0  0  0
    1.1575    1.4514    0.1172 H   0  0  0  0  0  0  0  0  0  0  0  0
    1.7328    0.9266   -1.4403 H   0  0  0  0  0  0  0  0  0  0  0  0
    1.7389   -0.0210    2.2221 H   0  0  0  0  0  0  0  0  0  0  0  0
    3.6988   -1.0215    3.3466 H   0  0  0  0  0  0  0  0  0  0  0  0
    6.6190   -1.8896    1.5696 H   0  0  0  0  0  0  0  0  0  0  0  0
    5.7811   -1.1943   -0.4138 H   0  0  0  0  0  0  0  0  0  0  0  0
    3.8394   -0.2047   -1.5477 H   0  0  0  0  0  0  0  0  0  0  0  0
  1  2  1  0
  2  3  1  0
  2  4  1  0
  2  5  1  0
  5  6  1  0
  6  7  1  0
  7  8  1  0
  7  9  2  0
  9 10  1  0
 10 11  1  0
 11 12  1  0
 12 13  1  0
 13 14  2  0
 14 15  1  0
 15 16  2  0
 16 17  1  0
 16 18  1  0
 18 19  2  0
 11  6  1  0
 19 13  1  0
  1 20  1  0
  1 21  1  0
  1 22  1  0
  3 23  1  0
  3 24  1  0
  3 25  1  0
  4 26  1  0
  4 27  1  0
  4 28  1  0
  5 29  1  0
  5 30  1  0
  8 31  1  0
  8 32  1  0
 10 33  1  0
 10 34  1  0
 11 35  1  0
 12 36  1  0
 12 37  1  0
 14 38  1  0
 15 39  1  0
 17 40  1  0
 18 41  1  0
 19 42  1  0
M  END
$$$$
