
     RDKit          3D

 43 45  0  0  0  0  0  0  0  0999 V2000
    6.4967   -2.4447   -0.0972 C   0  0  0  0  0  0  0  0  0  0  0  0
    5.7443   -1.1475   -0.0378 C   0  0  0  0  0  0  0  0  0  0  0  0
    6.4319    0.0683    0.0138 C   0  0  0  0  0  0  0  0  0  0  0  0
    5.7303    1.2741    0.0404 C   0  0  0  0  0  0  0  0  0  0  0  0
    4.3291    1.2847    0.0024 C   0  0  0  0  0  0  0  0  0  0  0  0
    3.5925    2.5962    0.0328 C   0  0  0  0  0  0  0  0  0  0  0  0
    3.6297    0.0661   -0.0633 C   0  0  0  0  0  0  0  0  0  0  0  0
    2.2634    0.1713   -0.0993 O   0  0  0  0  0  0  0  0  0  0  0  0
    1.5111   -1.0341   -0.2032 C   0  0  0  0  0  0  0  0  0  0  0  0
    0.0792   -0.6542   -0.2332 C   0  0  0  0  0  0  0  0  0  0  0  0
   -0.6406    0.4563    0.1338 C   0  0  0  0  0  0  0  0  0  0  0  0
   -1.9949    0.1364   -0.1625 C   0  0  0  0  0  0  0  0  0  0  0  0
   -3.1432    1.0427    0.0135 C   0  0  0  0  0  0  0  0  0  0  0  0
   -2.9386    2.2532    0.1358 O   0  0  0  0  0  0  0  0  0  0  0  0
   -4.4570    0.5503    0.0467 N   0  0  0  0  0  0  0  0  0  0  0  0
   -4.8374   -0.8592   -0.0577 C   0  0  0  0  0  0  0  0  0  0  0  0
   -6.2052   -1.1258    0.5672 C   0  0  0  0  0  0  0  0  0  0  0  0
   -7.2198   -0.2500    0.0366 N   0  0  0  0  0  0  0  0  0  0  0  0
   -6.9782    1.0872   -0.1386 C   0  0  0  0  0  0  0  0  0  0  0  0
   -7.9187    1.8619   -0.3003 O   0  0  0  0  0  0  0  0  0  0  0  0
   -5.5144    1.5498   -0.1569 C   0  0  0  0  0  0  0  0  0  0  0  0
   -2.0662   -1.0952   -0.6994 N   0  0  0  0  0  0  0  0  0  0  0  0
   -0.7777   -1.5886   -0.7248 O   0  0  0  0  0  0  0  0  0  0  0  0
    4.3420   -1.1396   -0.0880 C   0  0  0  0  0  0  0  0  0  0  0  0
    7.4832   -2.3490    0.3702 H   0  0  0  0  0  0  0  0  0  0  0  0
    6.6284   -2.7536   -1.1393 H   0  0  0  0  0  0  0  0  0  0  0  0
    5.9578   -3.2316    0.4419 H   0  0  0  0  0  0  0  0  0  0  0  0
    7.5192    0.0861    0.0354 H   0  0  0  0  0  0  0  0  0  0  0  0
    6.2863    2.2089    0.0876 H   0  0  0  0  0  0  0  0  0  0  0  0
    2.9735    2.6615    0.9328 H   0  0  0  0  0  0  0  0  0  0  0  0
    2.9573    2.6960   -0.8553 H   0  0  0  0  0  0  0  0  0  0  0  0
    4.2838    3.4460    0.0416 H   0  0  0  0  0  0  0  0  0  0  0  0
    1.7694   -1.5634   -1.1292 H   0  0  0  0  0  0  0  0  0  0  0  0
    1.6902   -1.6729    0.6679 H   0  0  0  0  0  0  0  0  0  0  0  0
   -0.2561    1.3781    0.5488 H   0  0  0  0  0  0  0  0  0  0  0  0
   -4.1090   -1.4875    0.4598 H   0  0  0  0  0  0  0  0  0  0  0  0
   -4.8462   -1.1168   -1.1228 H   0  0  0  0  0  0  0  0  0  0  0  0
   -6.1680   -0.9588    1.6500 H   0  0  0  0  0  0  0  0  0  0  0  0
   -6.5200   -2.1582    0.3849 H   0  0  0  0  0  0  0  0  0  0  0  0
   -8.2000   -0.4855    0.1404 H   0  0  0  0  0  0  0  0  0  0  0  0
   -5.3366    2.0160   -1.1356 H   0  0  0  0  0  0  0  0  0  0  0  0
   -5.4045    2.3213    0.6167 H   0  0  0  0  0  0  0  0  0  0  0  0
    3.8330   -2.0964   -0.1454 H   0  0  0  0  0  0  0  0  0  0  0  0
  1  2  1  0
  2  3  2  0
  3  4  1  0
  4  5  2  0
  5  6  1  0
  5  7  1  0
  7  8  1  0
  8  9  1  0
  9 10  1  0
 10 11  2  0
 11 12  1  0
 12 13  1  0
 13 14  2  0
 13 15  1  0
 15 16  1  0
 16 17  1  0
 17 18  1  0
 18 19  1  0
 19 20  2  0
 19 21  1  0
 12 22  2  0
 22 23  1  0
  7 24  2  0
 24  2  1  0
 23 10  1  0
 21 15  1  0
  1 25  1  0
  1 26  1  0
  1 27  1  0
  3 28  1  0
  4 29  1  0
  6 30  1  0
  6 31  1  0
  6 32  1  0
  9 33  1  0
  9 34  1  0
 11 35  1  0
 16 36  1  0
 16 37  1  0
 17 38  1  0
 17 39  1  0
 18 40  1  0
 21 41  1  0
 21 42  1  0
 24 43  1  0
M  END
$$$$
