
     RDKit          3D

 43 46  0  0  0  0  0  0  0  0999 V2000
   -2.9757    5.3962   -5.4768 N   0  0  0  0  0  0  0  0  0  0  0  0
   -2.5007    4.4794   -4.9474 C   0  0  0  0  0  0  0  0  0  0  0  0
   -1.8998    3.3359   -4.2560 C   0  0  0  0  0  0  0  0  0  0  0  0
   -1.1631    3.8093   -3.0117 C   0  0  0  0  0  0  0  0  0  0  0  0
   -0.6033    2.6971   -2.2680 N   0  0  0  0  0  0  0  0  0  0  0  0
   -0.9754    2.2703   -1.0298 C   0  0  0  0  0  0  0  0  0  0  0  0
   -0.1876    1.1760   -0.7541 C   0  0  0  0  0  0  0  0  0  0  0  0
   -0.1827    0.4187    0.4596 C   0  0  0  0  0  0  0  0  0  0  0  0
   -1.2330    0.0833    1.2392 C   0  0  0  0  0  0  0  0  0  0  0  0
   -2.5824    0.4089    0.9164 C   0  0  0  0  0  0  0  0  0  0  0  0
   -3.6740    0.7014    0.6454 N   0  0  0  0  0  0  0  0  0  0  0  0
   -0.9940   -0.6952    2.4104 C   0  0  0  0  0  0  0  0  0  0  0  0
   -1.2966   -1.9680    2.5673 N   0  0  0  0  0  0  0  0  0  0  0  0
   -0.9450   -2.4050    3.8336 C   0  0  0  0  0  0  0  0  0  0  0  0
   -1.1275   -3.7087    4.3381 C   0  0  0  0  0  0  0  0  0  0  0  0
   -0.7200   -4.0131    5.6412 C   0  0  0  0  0  0  0  0  0  0  0  0
   -0.1358   -3.0382    6.4421 C   0  0  0  0  0  0  0  0  0  0  0  0
    0.0517   -1.7366    5.9657 C   0  0  0  0  0  0  0  0  0  0  0  0
   -0.3621   -1.4420    4.6561 C   0  0  0  0  0  0  0  0  0  0  0  0
   -0.2701    0.0446    3.7977 S   0  0  0  0  0  0  0  0  0  0  0  0
    0.6548    1.0232   -1.9002 C   0  0  0  0  0  0  0  0  0  0  0  0
    1.6855    0.0194   -2.1649 C   0  0  0  0  0  0  0  0  0  0  0  0
    2.9075    0.4079   -2.7373 C   0  0  0  0  0  0  0  0  0  0  0  0
    3.9022   -0.5367   -2.9946 C   0  0  0  0  0  0  0  0  0  0  0  0
    3.6722   -1.8712   -2.6866 C   0  0  0  0  0  0  0  0  0  0  0  0
    4.6250   -2.7783   -2.9330 F   0  0  0  0  0  0  0  0  0  0  0  0
    2.4653   -2.2799   -2.1316 C   0  0  0  0  0  0  0  0  0  0  0  0
    1.4686   -1.3361   -1.8740 C   0  0  0  0  0  0  0  0  0  0  0  0
    0.3947    1.9818   -2.8057 N   0  0  0  0  0  0  0  0  0  0  0  0
   -1.2137    2.8147   -4.9352 H   0  0  0  0  0  0  0  0  0  0  0  0
   -2.6809    2.6155   -3.9837 H   0  0  0  0  0  0  0  0  0  0  0  0
   -0.3316    4.4787   -3.2644 H   0  0  0  0  0  0  0  0  0  0  0  0
   -1.8342    4.3581   -2.3394 H   0  0  0  0  0  0  0  0  0  0  0  0
   -1.7441    2.7815   -0.4670 H   0  0  0  0  0  0  0  0  0  0  0  0
    0.8025    0.0550    0.7564 H   0  0  0  0  0  0  0  0  0  0  0  0
   -1.5835   -4.4673    3.7104 H   0  0  0  0  0  0  0  0  0  0  0  0
   -0.8598   -5.0208    6.0257 H   0  0  0  0  0  0  0  0  0  0  0  0
    0.1791   -3.2896    7.4529 H   0  0  0  0  0  0  0  0  0  0  0  0
    0.5109   -0.9774    6.5926 H   0  0  0  0  0  0  0  0  0  0  0  0
    3.0852    1.4520   -2.9869 H   0  0  0  0  0  0  0  0  0  0  0  0
    4.8480   -0.2393   -3.4365 H   0  0  0  0  0  0  0  0  0  0  0  0
    2.3040   -3.3303   -1.9125 H   0  0  0  0  0  0  0  0  0  0  0  0
    0.5196   -1.6751   -1.4661 H   0  0  0  0  0  0  0  0  0  0  0  0
  1  2  3  0
  2  3  1  0
  3  4  1  0
  4  5  1  0
  5  6  1  0
  6  7  2  0
  7  8  1  0
  8  9  2  3
  9 10  1  0
 10 11  3  0
  9 12  1  0
 12 13  2  0
 13 14  1  0
 14 15  2  0
 15 16  1  0
 16 17  2  0
 17 18  1  0
 18 19  2  0
 19 20  1  0
  7 21  1  0
 21 22  1  0
 22 23  2  0
 23 24  1  0
 24 25  2  0
 25 26  1  0
 25 27  1  0
 27 28  2  0
 21 29  2  0
 29  5  1  0
 20 12  1  0
 28 22  1  0
 19 14  1  0
  3 30  1  0
  3 31  1  0
  4 32  1  0
  4 33  1  0
  6 34  1  0
  8 35  1  0
 15 36  1  0
 16 37  1  0
 17 38  1  0
 18 39  1  0
 23 40  1  0
 24 41  1  0
 27 42  1  0
 28 43  1  0
M  END
$$$$
