
     RDKit          3D

 49 51  0  0  0  0  0  0  0  0999 V2000
   -1.9159    2.4056    2.0308 C   0  0  0  0  0  0  0  0  0  0  0  0
   -2.4258    2.8499    0.6691 C   0  0  0  0  0  0  0  0  0  0  0  0
   -3.0764    1.7055   -0.1370 C   0  0  0  0  0  0  0  0  0  0  0  0
   -3.6094    2.1955   -1.4852 C   0  0  0  0  0  0  0  0  0  0  0  0
   -2.2233    0.4907   -0.2890 N   0  0  0  0  0  0  0  0  0  0  0  0
   -0.9765    0.6463   -0.9138 C   0  0  0  0  0  0  0  0  0  0  0  0
   -0.6383    1.7308   -1.4037 O   0  0  0  0  0  0  0  0  0  0  0  0
   -0.0098   -0.5084   -1.0209 C   0  0  0  0  0  0  0  0  0  0  0  0
    1.2674   -0.1474   -0.4486 N   0  0  0  0  0  0  0  0  0  0  0  0
    1.3966    0.0325    0.8789 N   0  0  0  0  0  0  0  0  0  0  0  0
    2.7029    0.1201    1.0813 N   0  0  0  0  0  0  0  0  0  0  0  0
    3.3121   -0.0675   -0.1402 C   0  0  0  0  0  0  0  0  0  0  0  0
    4.7605   -0.0616   -0.3065 C   0  0  0  0  0  0  0  0  0  0  0  0
    5.6008    0.0239    0.8175 C   0  0  0  0  0  0  0  0  0  0  0  0
    6.9908    0.0231    0.6689 C   0  0  0  0  0  0  0  0  0  0  0  0
    7.5426   -0.0616   -0.6020 C   0  0  0  0  0  0  0  0  0  0  0  0
    8.8768   -0.0658   -0.7392 F   0  0  0  0  0  0  0  0  0  0  0  0
    6.7318   -0.1439   -1.7298 C   0  0  0  0  0  0  0  0  0  0  0  0
    5.3411   -0.1442   -1.5834 C   0  0  0  0  0  0  0  0  0  0  0  0
    2.4240   -0.2861   -1.1290 N   0  0  0  0  0  0  0  0  0  0  0  0
   -2.8230   -0.7683    0.2072 C   0  0  0  0  0  0  0  0  0  0  0  0
   -2.9906   -1.8788   -0.8393 C   0  0  0  0  0  0  0  0  0  0  0  0
   -3.5981   -3.0536   -0.0810 C   0  0  0  0  0  0  0  0  0  0  0  0
   -2.8500   -3.0201    1.5413 S   0  0  0  0  0  6  0  0  0  0  0  0
   -1.7524   -3.9658    1.5614 O   0  0  0  0  0  0  0  0  0  0  0  0
   -3.9116   -3.0334    2.5268 O   0  0  0  0  0  0  0  0  0  0  0  0
   -2.1731   -1.3688    1.4520 C   0  0  0  0  0  0  0  0  0  0  0  0
   -1.5712    3.2723    2.6054 H   0  0  0  0  0  0  0  0  0  0  0  0
   -1.0692    1.7193    1.9310 H   0  0  0  0  0  0  0  0  0  0  0  0
   -2.7016    1.9058    2.6053 H   0  0  0  0  0  0  0  0  0  0  0  0
   -3.1732    3.6379    0.8221 H   0  0  0  0  0  0  0  0  0  0  0  0
   -1.6049    3.3187    0.1159 H   0  0  0  0  0  0  0  0  0  0  0  0
   -3.9626    1.4186    0.4427 H   0  0  0  0  0  0  0  0  0  0  0  0
   -4.0506    1.3655   -2.0503 H   0  0  0  0  0  0  0  0  0  0  0  0
   -4.3881    2.9510   -1.3329 H   0  0  0  0  0  0  0  0  0  0  0  0
   -2.8334    2.6445   -2.1105 H   0  0  0  0  0  0  0  0  0  0  0  0
   -0.3169   -1.4161   -0.5130 H   0  0  0  0  0  0  0  0  0  0  0  0
    0.1319   -0.7441   -2.0808 H   0  0  0  0  0  0  0  0  0  0  0  0
    5.1811    0.0872    1.8190 H   0  0  0  0  0  0  0  0  0  0  0  0
    7.6437    0.0832    1.5352 H   0  0  0  0  0  0  0  0  0  0  0  0
    7.1866   -0.2103   -2.7126 H   0  0  0  0  0  0  0  0  0  0  0  0
    4.7105   -0.2076   -2.4700 H   0  0  0  0  0  0  0  0  0  0  0  0
   -3.8522   -0.5285    0.5096 H   0  0  0  0  0  0  0  0  0  0  0  0
   -2.0461   -2.1864   -1.2895 H   0  0  0  0  0  0  0  0  0  0  0  0
   -3.6466   -1.5641   -1.6581 H   0  0  0  0  0  0  0  0  0  0  0  0
   -3.4099   -4.0163   -0.5561 H   0  0  0  0  0  0  0  0  0  0  0  0
   -4.6737   -2.9092    0.0470 H   0  0  0  0  0  0  0  0  0  0  0  0
   -1.0876   -1.4507    1.3951 H   0  0  0  0  0  0  0  0  0  0  0  0
   -2.4392   -0.8192    2.3588 H   0  0  0  0  0  0  0  0  0  0  0  0
  1  2  1  0
  2  3  1  0
  3  4  1  0
  3  5  1  0
  5  6  1  0
  6  7  2  0
  6  8  1  0
  8  9  1  0
  9 10  1  0
 10 11  2  0
 11 12  1  0
 12 13  1  0
 13 14  2  0
 14 15  1  0
 15 16  2  0
 16 17  1  0
 16 18  1  0
 18 19  2  0
 12 20  2  0
  5 21  1  0
 21 22  1  0
 22 23  1  0
 23 24  1  0
 24 25  2  0
 24 26  2  0
 24 27  1  0
 20  9  1  0
 27 21  1  0
 19 13  1  0
  1 28  1  0
  1 29  1  0
  1 30  1  0
  2 31  1  0
  2 32  1  0
  3 33  1  0
  4 34  1  0
  4 35  1  0
  4 36  1  0
  8 37  1  0
  8 38  1  0
 14 39  1  0
 15 40  1  0
 18 41  1  0
 19 42  1  0
 21 43  1  0
 22 44  1  0
 22 45  1  0
 23 46  1  0
 23 47  1  0
 27 48  1  0
 27 49  1  0
M  END
$$$$
