
     RDKit          3D

 51 54  0  0  0  0  0  0  0  0999 V2000
    3.4889    1.8650   -1.7803 C   0  0  0  0  0  0  0  0  0  0  0  0
    2.7746    0.5289   -1.5363 C   0  0  0  0  0  0  0  0  0  0  0  0
    1.3655    0.5583   -2.1663 C   0  0  0  0  0  0  0  0  0  0  0  0
    0.5084    0.8225   -0.9679 C   0  0  0  0  0  0  0  0  0  0  0  0
   -0.8403    1.1459   -0.9545 C   0  0  0  0  0  0  0  0  0  0  0  0
   -1.4647    1.2698    0.2897 C   0  0  0  0  0  0  0  0  0  0  0  0
   -3.1929    1.6787    0.3795 S   0  0  0  0  0  6  0  0  0  0  0  0
   -3.7227    1.6973   -0.9677 O   0  0  0  0  0  0  0  0  0  0  0  0
   -3.3031    2.8356    1.2419 O   0  0  0  0  0  0  0  0  0  0  0  0
   -3.8536    0.3335    1.1875 N   0  0  0  0  0  0  0  0  0  0  0  0
   -3.7629   -0.9932    0.5278 C   0  0  0  0  0  0  0  0  0  0  0  0
   -4.9193   -1.2366   -0.4368 C   0  0  0  0  0  0  0  0  0  0  0  0
   -6.2714   -0.9956    0.2264 C   0  0  0  0  0  0  0  0  0  0  0  0
   -6.3176    0.3783    0.8869 C   0  0  0  0  0  0  0  0  0  0  0  0
   -5.1582    0.5543    1.8591 C   0  0  0  0  0  0  0  0  0  0  0  0
   -0.7543    1.0689    1.4859 C   0  0  0  0  0  0  0  0  0  0  0  0
    0.6024    0.7297    1.4491 C   0  0  0  0  0  0  0  0  0  0  0  0
    1.2256    0.6168    0.2161 C   0  0  0  0  0  0  0  0  0  0  0  0
    2.5671    0.2924   -0.0844 N   0  0  0  0  0  0  0  0  0  0  0  0
    3.5133   -0.1576    0.8341 C   0  0  0  0  0  0  0  0  0  0  0  0
    3.2885   -0.2240    2.0493 O   0  0  0  0  0  0  0  0  0  0  0  0
    4.8773   -0.6255    0.2463 C   0  0  0  0  0  0  0  0  0  0  0  0
    5.9799   -1.0750    1.2520 C   0  0  0  0  0  0  0  0  0  0  0  0
    6.3848   -2.1518    0.2294 C   0  0  0  0  0  0  0  0  0  0  0  0
    4.9455   -2.0770   -0.3111 C   0  0  0  0  0  0  0  0  0  0  0  0
    2.9059    2.7075   -1.3908 H   0  0  0  0  0  0  0  0  0  0  0  0
    4.4663    1.9021   -1.2931 H   0  0  0  0  0  0  0  0  0  0  0  0
    3.6420    2.0269   -2.8525 H   0  0  0  0  0  0  0  0  0  0  0  0
    3.3708   -0.2810   -1.9680 H   0  0  0  0  0  0  0  0  0  0  0  0
    1.2549    1.3223   -2.9413 H   0  0  0  0  0  0  0  0  0  0  0  0
    1.1105   -0.4236   -2.5804 H   0  0  0  0  0  0  0  0  0  0  0  0
   -1.3901    1.2893   -1.8800 H   0  0  0  0  0  0  0  0  0  0  0  0
   -3.7673   -1.7588    1.3139 H   0  0  0  0  0  0  0  0  0  0  0  0
   -2.8085   -1.1074    0.0053 H   0  0  0  0  0  0  0  0  0  0  0  0
   -4.8259   -0.5840   -1.3116 H   0  0  0  0  0  0  0  0  0  0  0  0
   -4.8729   -2.2658   -0.8107 H   0  0  0  0  0  0  0  0  0  0  0  0
   -7.0716   -1.0795   -0.5174 H   0  0  0  0  0  0  0  0  0  0  0  0
   -6.4519   -1.7711    0.9809 H   0  0  0  0  0  0  0  0  0  0  0  0
   -6.2840    1.1568    0.1156 H   0  0  0  0  0  0  0  0  0  0  0  0
   -7.2672    0.4974    1.4203 H   0  0  0  0  0  0  0  0  0  0  0  0
   -5.2434   -0.1658    2.6826 H   0  0  0  0  0  0  0  0  0  0  0  0
   -5.1963    1.5446    2.3239 H   0  0  0  0  0  0  0  0  0  0  0  0
   -1.2566    1.1750    2.4457 H   0  0  0  0  0  0  0  0  0  0  0  0
    1.1384    0.5792    2.3802 H   0  0  0  0  0  0  0  0  0  0  0  0
    5.3005    0.1007   -0.4582 H   0  0  0  0  0  0  0  0  0  0  0  0
    6.7474   -0.3292    1.4760 H   0  0  0  0  0  0  0  0  0  0  0  0
    5.6035   -1.4893    2.1945 H   0  0  0  0  0  0  0  0  0  0  0  0
    6.6878   -3.1153    0.6461 H   0  0  0  0  0  0  0  0  0  0  0  0
    7.1431   -1.8166   -0.4874 H   0  0  0  0  0  0  0  0  0  0  0  0
    4.8504   -2.1770   -1.3954 H   0  0  0  0  0  0  0  0  0  0  0  0
    4.2533   -2.7768    0.1718 H   0  0  0  0  0  0  0  0  0  0  0  0
  1  2  1  0
  2  3  1  0
  3  4  1  0
  4  5  2  0
  5  6  1  0
  6  7  1  0
  7  8  2  0
  7  9  2  0
  7 10  1  0
 10 11  1  0
 11 12  1  0
 12 13  1  0
 13 14  1  0
 14 15  1  0
  6 16  2  0
 16 17  1  0
 17 18  2  0
 18 19  1  0
 19 20  1  0
 20 21  2  0
 20 22  1  0
 22 23  1  0
 23 24  1  0
 24 25  1  0
 19  2  1  0
 25 22  1  0
 18  4  1  0
 15 10  1  0
  1 26  1  0
  1 27  1  0
  1 28  1  0
  2 29  1  0
  3 30  1  0
  3 31  1  0
  5 32  1  0
 11 33  1  0
 11 34  1  0
 12 35  1  0
 12 36  1  0
 13 37  1  0
 13 38  1  0
 14 39  1  0
 14 40  1  0
 15 41  1  0
 15 42  1  0
 16 43  1  0
 17 44  1  0
 22 45  1  0
 23 46  1  0
 23 47  1  0
 24 48  1  0
 24 49  1  0
 25 50  1  0
 25 51  1  0
M  END
$$$$
