
     RDKit          3D

 52 55  0  0  0  0  0  0  0  0999 V2000
    3.1122   -2.3390   -0.9037 O   0  0  0  0  0  0  0  0  0  0  0  0
    3.0940   -1.1347   -1.1442 C   0  0  0  0  0  0  0  0  0  0  0  0
    1.9983   -0.4913   -1.6873 N   0  0  0  0  0  0  0  0  0  0  0  0
    0.8396   -1.2774   -1.9133 N   0  0  0  0  0  0  0  0  0  0  0  0
   -0.2618   -0.8643   -1.1227 C   0  0  0  0  0  0  0  0  0  0  0  0
   -0.8296    0.3801   -1.3012 C   0  0  0  0  0  0  0  0  0  0  0  0
   -1.9044    0.7079   -0.5063 C   0  0  0  0  0  0  0  0  0  0  0  0
   -2.5288    1.9248   -0.5903 N   0  0  0  0  0  0  0  0  0  0  0  0
   -3.6175    2.2669    0.3160 C   0  0  0  0  0  0  0  0  0  0  0  0
   -3.8009    3.7675    0.0961 C   0  0  0  0  0  0  0  0  0  0  0  0
   -3.4163    3.9500   -1.3642 C   0  0  0  0  0  0  0  0  0  0  0  0
   -2.2469    2.9844   -1.5445 C   0  0  0  0  0  0  0  0  0  0  0  0
   -2.3670   -0.1765    0.3949 N   0  0  0  0  0  0  0  0  0  0  0  0
   -1.7826   -1.3791    0.5046 C   0  0  0  0  0  0  0  0  0  0  0  0
   -2.2674   -2.2610    1.4383 N   0  0  0  0  0  0  0  0  0  0  0  0
   -1.8177   -3.6381    1.4381 C   0  0  0  0  0  0  0  0  0  0  0  0
   -2.7513   -4.2936    2.4533 C   0  0  0  0  0  0  0  0  0  0  0  0
   -4.0641   -3.5627    2.2197 C   0  0  0  0  0  0  0  0  0  0  0  0
   -3.6315   -2.1236    1.9241 C   0  0  0  0  0  0  0  0  0  0  0  0
   -0.7334   -1.7477   -0.2388 N   0  0  0  0  0  0  0  0  0  0  0  0
    4.2769   -0.2871   -0.8265 C   0  0  0  0  0  0  0  0  0  0  0  0
    5.1665   -0.7361    0.1632 C   0  0  0  0  0  0  0  0  0  0  0  0
    6.3051    0.0085    0.4847 C   0  0  0  0  0  0  0  0  0  0  0  0
    6.5583    1.2063   -0.1968 C   0  0  0  0  0  0  0  0  0  0  0  0
    7.7554    1.9912    0.1300 N   0  0  0  0  0  4  0  0  0  0  0  0
    8.4582    1.6041    1.0763 O   0  0  0  0  0  0  0  0  0  0  0  0
    7.9882    2.9958   -0.5591 O   0  0  0  0  0  1  0  0  0  0  0  0
    5.6837    1.6566   -1.1958 C   0  0  0  0  0  0  0  0  0  0  0  0
    4.5456    0.9058   -1.5110 C   0  0  0  0  0  0  0  0  0  0  0  0
    1.8836    0.5199   -1.6845 H   0  0  0  0  0  0  0  0  0  0  0  0
    1.0264   -2.2409   -1.5907 H   0  0  0  0  0  0  0  0  0  0  0  0
   -0.4440    1.0569   -2.0496 H   0  0  0  0  0  0  0  0  0  0  0  0
   -4.5270    1.7201    0.0377 H   0  0  0  0  0  0  0  0  0  0  0  0
   -3.3809    2.0643    1.3682 H   0  0  0  0  0  0  0  0  0  0  0  0
   -4.8181    4.1011    0.3159 H   0  0  0  0  0  0  0  0  0  0  0  0
   -3.1123    4.3277    0.7372 H   0  0  0  0  0  0  0  0  0  0  0  0
   -4.2501    3.6519   -2.0076 H   0  0  0  0  0  0  0  0  0  0  0  0
   -3.1460    4.9804   -1.6062 H   0  0  0  0  0  0  0  0  0  0  0  0
   -1.2991    3.4778   -1.2920 H   0  0  0  0  0  0  0  0  0  0  0  0
   -2.2015    2.6260   -2.5818 H   0  0  0  0  0  0  0  0  0  0  0  0
   -0.7711   -3.7355    1.7441 H   0  0  0  0  0  0  0  0  0  0  0  0
   -1.9512   -4.0983    0.4514 H   0  0  0  0  0  0  0  0  0  0  0  0
   -2.3936   -4.1030    3.4715 H   0  0  0  0  0  0  0  0  0  0  0  0
   -2.8335   -5.3730    2.3125 H   0  0  0  0  0  0  0  0  0  0  0  0
   -4.5720   -3.9852    1.3454 H   0  0  0  0  0  0  0  0  0  0  0  0
   -4.7454   -3.6266    3.0722 H   0  0  0  0  0  0  0  0  0  0  0  0
   -4.3192   -1.6760    1.1975 H   0  0  0  0  0  0  0  0  0  0  0  0
   -3.6393   -1.5217    2.8402 H   0  0  0  0  0  0  0  0  0  0  0  0
    4.9736   -1.6731    0.6860 H   0  0  0  0  0  0  0  0  0  0  0  0
    6.9801   -0.3642    1.2557 H   0  0  0  0  0  0  0  0  0  0  0  0
    5.8789    2.5797   -1.7430 H   0  0  0  0  0  0  0  0  0  0  0  0
    3.9011    1.2538   -2.3136 H   0  0  0  0  0  0  0  0  0  0  0  0
  1  2  2  0
  2  3  1  0
  3  4  1  0
  4  5  1  0
  5  6  2  0
  6  7  1  0
  7  8  1  0
  8  9  1  0
  9 10  1  0
 10 11  1  0
 11 12  1  0
  7 13  2  0
 13 14  1  0
 14 15  1  0
 15 16  1  0
 16 17  1  0
 17 18  1  0
 18 19  1  0
 14 20  2  0
  2 21  1  0
 21 22  2  0
 22 23  1  0
 23 24  2  0
 24 25  1  0
 25 26  2  0
 25 27  1  0
 24 28  1  0
 28 29  2  0
 20  5  1  0
 29 21  1  0
 12  8  1  0
 19 15  1  0
  3 30  1  0
  4 31  1  0
  6 32  1  0
  9 33  1  0
  9 34  1  0
 10 35  1  0
 10 36  1  0
 11 37  1  0
 11 38  1  0
 12 39  1  0
 12 40  1  0
 16 41  1  0
 16 42  1  0
 17 43  1  0
 17 44  1  0
 18 45  1  0
 18 46  1  0
 19 47  1  0
 19 48  1  0
 22 49  1  0
 23 50  1  0
 28 51  1  0
 29 52  1  0
M  CHG  2  25   1  27  -1
M  END
$$$$
