
     RDKit          3D

 54 57  0  0  0  0  0  0  0  0999 V2000
   -8.1066    0.8341    2.1591 C   0  0  0  0  0  0  0  0  0  0  0  0
   -7.3482    0.8122    0.9560 O   0  0  0  0  0  0  0  0  0  0  0  0
   -6.0210    0.5057    1.0701 C   0  0  0  0  0  0  0  0  0  0  0  0
   -5.3397    0.2285    2.2514 C   0  0  0  0  0  0  0  0  0  0  0  0
   -3.9713   -0.0713    2.2197 C   0  0  0  0  0  0  0  0  0  0  0  0
   -3.2622   -0.1097    1.0056 C   0  0  0  0  0  0  0  0  0  0  0  0
   -1.8674   -0.4241    1.0334 N   0  0  0  0  0  0  0  0  0  0  0  0
   -1.2232   -0.4491    2.2385 N   0  0  0  0  0  0  0  0  0  0  0  0
    0.0565   -0.6763    1.9550 C   0  0  0  0  0  0  0  0  0  0  0  0
    0.2775   -0.8399    0.5839 C   0  0  0  0  0  0  0  0  0  0  0  0
   -0.9774   -0.7296    0.0106 C   0  0  0  0  0  0  0  0  0  0  0  0
   -1.2613   -0.9542   -1.4384 C   0  0  0  0  0  0  0  0  0  0  0  0
   -0.0798   -1.6940   -2.1428 C   0  0  0  0  0  0  0  0  0  0  0  0
   -0.2202   -1.5095   -3.6660 C   0  0  0  0  0  0  0  0  0  0  0  0
   -0.1346   -3.2055   -1.8405 C   0  0  0  0  0  0  0  0  0  0  0  0
    1.2836   -1.0938   -1.6889 C   0  0  0  0  0  0  0  0  0  0  0  0
    1.5234   -1.1706   -0.1624 C   0  0  0  0  0  0  0  0  0  0  0  0
    2.5564   -0.2434    0.2389 N   0  0  0  0  0  0  0  0  0  0  0  0
    3.8961   -0.5154    0.0698 C   0  0  0  0  0  0  0  0  0  0  0  0
    4.3350   -1.5933   -0.3125 O   0  0  0  0  0  0  0  0  0  0  0  0
    4.7998    0.6266    0.3809 C   0  0  0  0  0  0  0  0  0  0  0  0
    6.1737    0.4705    0.2989 C   0  0  0  0  0  0  0  0  0  0  0  0
    7.0334    1.4865    0.5695 N   0  0  0  0  0  0  0  0  0  0  0  0
    6.4644    2.6660    0.9258 C   0  0  0  0  0  0  0  0  0  0  0  0
    7.3699    3.8171    1.2329 C   0  0  0  0  0  0  0  0  0  0  0  0
    5.0803    2.8118    1.0029 C   0  0  0  0  0  0  0  0  0  0  0  0
    4.2126    1.8065    0.7343 N   0  0  0  0  0  0  0  0  0  0  0  0
   -3.9503    0.1864   -0.1732 C   0  0  0  0  0  0  0  0  0  0  0  0
   -5.3187    0.4872   -0.1356 C   0  0  0  0  0  0  0  0  0  0  0  0
   -7.7395    1.6068    2.8427 H   0  0  0  0  0  0  0  0  0  0  0  0
   -9.1396    1.0838    1.8984 H   0  0  0  0  0  0  0  0  0  0  0  0
   -8.1133   -0.1497    2.6401 H   0  0  0  0  0  0  0  0  0  0  0  0
   -5.8348    0.2358    3.2165 H   0  0  0  0  0  0  0  0  0  0  0  0
   -3.4708   -0.2857    3.1634 H   0  0  0  0  0  0  0  0  0  0  0  0
    0.7735   -0.7266    2.7648 H   0  0  0  0  0  0  0  0  0  0  0  0
   -1.4015    0.0256   -1.9123 H   0  0  0  0  0  0  0  0  0  0  0  0
   -2.1793   -1.5375   -1.5723 H   0  0  0  0  0  0  0  0  0  0  0  0
   -1.1785   -1.9017   -4.0250 H   0  0  0  0  0  0  0  0  0  0  0  0
    0.5788   -2.0329   -4.2032 H   0  0  0  0  0  0  0  0  0  0  0  0
   -0.1688   -0.4508   -3.9442 H   0  0  0  0  0  0  0  0  0  0  0  0
    0.7060   -3.7289   -2.3097 H   0  0  0  0  0  0  0  0  0  0  0  0
   -0.0989   -3.4183   -0.7676 H   0  0  0  0  0  0  0  0  0  0  0  0
   -1.0588   -3.6493   -2.2280 H   0  0  0  0  0  0  0  0  0  0  0  0
    1.3206   -0.0408   -2.0059 H   0  0  0  0  0  0  0  0  0  0  0  0
    2.1124   -1.5899   -2.2109 H   0  0  0  0  0  0  0  0  0  0  0  0
    1.8438   -2.1858    0.1026 H   0  0  0  0  0  0  0  0  0  0  0  0
    2.3151    0.7216    0.4517 H   0  0  0  0  0  0  0  0  0  0  0  0
    6.6276   -0.4729    0.0145 H   0  0  0  0  0  0  0  0  0  0  0  0
    7.1853    4.6399    0.5351 H   0  0  0  0  0  0  0  0  0  0  0  0
    7.2029    4.1683    2.2561 H   0  0  0  0  0  0  0  0  0  0  0  0
    8.4201    3.5211    1.1413 H   0  0  0  0  0  0  0  0  0  0  0  0
    4.6269    3.7564    1.2872 H   0  0  0  0  0  0  0  0  0  0  0  0
   -3.4684    0.2329   -1.1400 H   0  0  0  0  0  0  0  0  0  0  0  0
   -5.8415    0.7196   -1.0609 H   0  0  0  0  0  0  0  0  0  0  0  0
  1  2  1  0
  2  3  1  0
  3  4  2  0
  4  5  1  0
  5  6  2  0
  6  7  1  0
  7  8  1  0
  8  9  2  0
  9 10  1  0
 10 11  2  0
 11 12  1  0
 12 13  1  0
 13 14  1  0
 13 15  1  0
 13 16  1  0
 16 17  1  0
 17 18  1  0
 18 19  1  0
 19 20  2  0
 19 21  1  0
 21 22  2  0
 22 23  1  0
 23 24  2  0
 24 25  1  0
 24 26  1  0
 26 27  2  0
  6 28  1  0
 28 29  2  0
 29  3  1  0
 11  7  1  0
 27 21  1  0
 17 10  1  0
  1 30  1  0
  1 31  1  0
  1 32  1  0
  4 33  1  0
  5 34  1  0
  9 35  1  0
 12 36  1  0
 12 37  1  0
 14 38  1  0
 14 39  1  0
 14 40  1  0
 15 41  1  0
 15 42  1  0
 15 43  1  0
 16 44  1  0
 16 45  1  0
 17 46  1  0
 18 47  1  0
 22 48  1  0
 25 49  1  0
 25 50  1  0
 25 51  1  0
 26 52  1  0
 28 53  1  0
 29 54  1  0
M  END
$$$$
