
     RDKit          3D

 51 53  0  0  0  0  0  0  0  0999 V2000
   -5.2338    3.8479   -0.5948 O   0  0  0  0  0  0  0  0  0  0  0  0
   -4.9294    3.0100    0.2476 C   0  0  0  0  0  0  0  0  0  0  0  0
   -3.7750    3.2601    1.2257 C   0  0  0  0  0  0  0  0  0  0  0  0
   -2.5013    2.8456    0.7269 O   0  0  0  0  0  0  0  0  0  0  0  0
   -2.2887    1.5028    0.7148 C   0  0  0  0  0  0  0  0  0  0  0  0
   -3.1019    0.6678    1.0907 O   0  0  0  0  0  0  0  0  0  0  0  0
   -0.9218    1.2043    0.1616 C   0  0  0  0  0  0  0  0  0  0  0  0
   -0.6799   -0.3020    0.1201 C   0  0  0  0  0  0  0  0  0  0  0  0
    0.6383   -0.6279   -0.4318 N   0  0  0  0  0  0  0  0  0  0  0  0
    1.7320   -0.6142    0.4208 C   0  0  0  0  0  0  0  0  0  0  0  0
    1.6828   -0.3261    1.6085 O   0  0  0  0  0  0  0  0  0  0  0  0
    2.9761   -0.9707   -0.3195 C   0  0  0  0  0  0  0  0  0  0  0  0
    4.2235   -1.1061    0.1560 C   0  0  0  0  0  0  0  0  0  0  0  0
    4.6678   -0.9306    1.5253 C   0  0  0  0  0  0  0  0  0  0  0  0
    5.9189   -1.1185    1.9779 C   0  0  0  0  0  0  0  0  0  0  0  0
    7.0648   -1.5600    1.1799 C   0  0  0  0  0  0  0  0  0  0  0  0
    7.2036   -2.9047    0.8177 C   0  0  0  0  0  0  0  0  0  0  0  0
    8.2952   -3.3163    0.0513 C   0  0  0  0  0  0  0  0  0  0  0  0
    9.2524   -2.3871   -0.3538 C   0  0  0  0  0  0  0  0  0  0  0  0
    9.1205   -1.0466    0.0073 C   0  0  0  0  0  0  0  0  0  0  0  0
    8.0294   -0.6327    0.7737 C   0  0  0  0  0  0  0  0  0  0  0  0
    2.6006   -1.2126   -1.9893 S   0  0  0  0  0  0  0  0  0  0  0  0
    0.8909   -0.8851   -1.7622 C   0  0  0  0  0  0  0  0  0  0  0  0
   -0.1925   -0.8991   -3.0300 S   0  0  0  0  0  0  0  0  0  0  0  0
   -5.4942    1.7545    0.3996 N   0  0  0  0  0  0  0  0  0  0  0  0
   -6.6280    1.2542   -0.2762 C   0  0  0  0  0  0  0  0  0  0  0  0
   -6.7417   -0.1378   -0.3725 C   0  0  0  0  0  0  0  0  0  0  0  0
   -7.8300   -0.7056   -1.0315 C   0  0  0  0  0  0  0  0  0  0  0  0
   -7.9175   -2.0388   -1.1252 F   0  0  0  0  0  0  0  0  0  0  0  0
   -8.8270    0.0846   -1.5903 C   0  0  0  0  0  0  0  0  0  0  0  0
   -8.7413    1.4693   -1.4717 C   0  0  0  0  0  0  0  0  0  0  0  0
   -7.6541    2.0466   -0.8115 C   0  0  0  0  0  0  0  0  0  0  0  0
   -7.6812    3.3742   -0.6362 F   0  0  0  0  0  0  0  0  0  0  0  0
   -3.9824    2.7916    2.1957 H   0  0  0  0  0  0  0  0  0  0  0  0
   -3.7234    4.3387    1.4115 H   0  0  0  0  0  0  0  0  0  0  0  0
   -0.8531    1.6285   -0.8463 H   0  0  0  0  0  0  0  0  0  0  0  0
   -0.1746    1.6916    0.7981 H   0  0  0  0  0  0  0  0  0  0  0  0
   -0.7432   -0.7147    1.1355 H   0  0  0  0  0  0  0  0  0  0  0  0
   -1.4603   -0.8014   -0.4646 H   0  0  0  0  0  0  0  0  0  0  0  0
    5.0065   -1.3747   -0.5535 H   0  0  0  0  0  0  0  0  0  0  0  0
    3.9298   -0.6068    2.2572 H   0  0  0  0  0  0  0  0  0  0  0  0
    6.1393   -0.9353    3.0282 H   0  0  0  0  0  0  0  0  0  0  0  0
    6.4629   -3.6369    1.1294 H   0  0  0  0  0  0  0  0  0  0  0  0
    8.3987   -4.3606   -0.2292 H   0  0  0  0  0  0  0  0  0  0  0  0
   10.1026   -2.7077   -0.9505 H   0  0  0  0  0  0  0  0  0  0  0  0
    9.8675   -0.3228   -0.3081 H   0  0  0  0  0  0  0  0  0  0  0  0
    7.9349    0.4152    1.0476 H   0  0  0  0  0  0  0  0  0  0  0  0
   -4.8909    1.0645    0.8495 H   0  0  0  0  0  0  0  0  0  0  0  0
   -5.9854   -0.7985    0.0407 H   0  0  0  0  0  0  0  0  0  0  0  0
   -9.6658   -0.3808   -2.0978 H   0  0  0  0  0  0  0  0  0  0  0  0
   -9.5203    2.1107   -1.8734 H   0  0  0  0  0  0  0  0  0  0  0  0
  1  2  2  0
  2  3  1  0
  3  4  1  0
  4  5  1  0
  5  6  2  0
  5  7  1  0
  7  8  1  0
  8  9  1  0
  9 10  1  0
 10 11  2  0
 10 12  1  0
 12 13  2  3
 13 14  1  0
 14 15  2  3
 15 16  1  0
 16 17  2  0
 17 18  1  0
 18 19  2  0
 19 20  1  0
 20 21  2  0
 12 22  1  0
 22 23  1  0
 23 24  2  0
  2 25  1  0
 25 26  1  0
 26 27  2  0
 27 28  1  0
 28 29  1  0
 28 30  2  0
 30 31  1  0
 31 32  2  0
 32 33  1  0
 23  9  1  0
 32 26  1  0
 21 16  1  0
  3 34  1  0
  3 35  1  0
  7 36  1  0
  7 37  1  0
  8 38  1  0
  8 39  1  0
 13 40  1  0
 14 41  1  0
 15 42  1  0
 17 43  1  0
 18 44  1  0
 19 45  1  0
 20 46  1  0
 21 47  1  0
 25 48  1  0
 27 49  1  0
 30 50  1  0
 31 51  1  0
M  END
$$$$
