
     RDKit          3D

 37 38  0  0  0  0  0  0  0  0999 V2000
   -3.5225   -0.1582    1.7496 C   0  0  0  0  0  0  0  0  0  0  0  0
   -3.8580   -0.6964    0.3503 C   0  0  0  0  0  0  0  0  0  0  0  0
   -5.3870   -0.8218    0.2537 C   0  0  0  0  0  0  0  0  0  0  0  0
   -3.2849    0.2137   -0.7741 C   0  0  0  0  0  0  0  0  0  0  0  0
   -3.3779   -0.4164   -2.1780 C   0  0  0  0  0  0  0  0  0  0  0  0
   -4.3229   -1.0389   -2.6367 O   0  0  0  0  0  0  0  0  0  0  0  0
   -2.3217   -0.1529   -2.9804 O   0  0  0  0  0  0  0  0  0  0  0  0
   -1.8917    0.6664   -0.5393 N   0  0  0  0  0  0  0  0  0  0  0  0
   -0.8977   -0.2829   -0.3581 C   0  0  0  0  0  0  0  0  0  0  0  0
   -1.0558   -1.4963   -0.3366 O   0  0  0  0  0  0  0  0  0  0  0  0
    0.4303    0.3695   -0.2141 C   0  0  0  0  0  0  0  0  0  0  0  0
    1.5432   -0.3428    0.0116 C   0  0  0  0  0  0  0  0  0  0  0  0
    2.8875    0.1799    0.1666 C   0  0  0  0  0  0  0  0  0  0  0  0
    3.9502   -0.6086    0.3911 C   0  0  0  0  0  0  0  0  0  0  0  0
    5.2550   -0.0603    0.5383 C   0  0  0  0  0  0  0  0  0  0  0  0
    6.4527   -0.7281    0.7708 C   0  0  0  0  0  0  0  0  0  0  0  0
    7.4856    0.2363    0.8433 C   0  0  0  0  0  0  0  0  0  0  0  0
    6.8768    1.4493    0.6527 C   0  0  0  0  0  0  0  0  0  0  0  0
    5.5449    1.2860    0.4695 O   0  0  0  0  0  0  0  0  0  0  0  0
    0.2721    2.0673   -0.3875 S   0  0  0  0  0  0  0  0  0  0  0  0
   -1.4654    1.9746   -0.6513 C   0  0  0  0  0  0  0  0  0  0  0  0
   -2.3733    3.3407   -0.9600 S   0  0  0  0  0  0  0  0  0  0  0  0
   -3.9900   -0.7742    2.5257 H   0  0  0  0  0  0  0  0  0  0  0  0
   -3.8817    0.8692    1.8737 H   0  0  0  0  0  0  0  0  0  0  0  0
   -2.4462   -0.1686    1.9434 H   0  0  0  0  0  0  0  0  0  0  0  0
   -3.4447   -1.7078    0.2610 H   0  0  0  0  0  0  0  0  0  0  0  0
   -5.8689    0.1613    0.2863 H   0  0  0  0  0  0  0  0  0  0  0  0
   -5.7803   -1.4152    1.0867 H   0  0  0  0  0  0  0  0  0  0  0  0
   -5.6992   -1.3238   -0.6649 H   0  0  0  0  0  0  0  0  0  0  0  0
   -3.9256    1.0995   -0.8301 H   0  0  0  0  0  0  0  0  0  0  0  0
   -2.5481   -0.6037   -3.8224 H   0  0  0  0  0  0  0  0  0  0  0  0
    1.4467   -1.4267    0.0890 H   0  0  0  0  0  0  0  0  0  0  0  0
    3.0253    1.2578    0.0953 H   0  0  0  0  0  0  0  0  0  0  0  0
    3.8422   -1.6865    0.4661 H   0  0  0  0  0  0  0  0  0  0  0  0
    6.5609   -1.7991    0.8756 H   0  0  0  0  0  0  0  0  0  0  0  0
    8.5393    0.0673    1.0130 H   0  0  0  0  0  0  0  0  0  0  0  0
    7.2309    2.4702    0.6202 H   0  0  0  0  0  0  0  0  0  0  0  0
  1  2  1  0
  2  3  1  0
  2  4  1  0
  4  5  1  0
  5  6  2  0
  5  7  1  0
  4  8  1  0
  8  9  1  0
  9 10  2  0
  9 11  1  0
 11 12  2  3
 12 13  1  0
 13 14  2  3
 14 15  1  0
 15 16  2  0
 16 17  1  0
 17 18  2  0
 18 19  1  0
 11 20  1  0
 20 21  1  0
 21 22  2  0
 21  8  1  0
 19 15  1  0
  1 23  1  0
  1 24  1  0
  1 25  1  0
  2 26  1  0
  3 27  1  0
  3 28  1  0
  3 29  1  0
  4 30  1  0
  7 31  1  0
 12 32  1  0
 13 33  1  0
 14 34  1  0
 16 35  1  0
 17 36  1  0
 18 37  1  0
M  END
$$$$
