
     RDKit          3D

 34 36  0  0  0  0  0  0  0  0999 V2000
   -1.1403    2.1341    2.8586 Br  0  0  0  0  0  0  0  0  0  0  0  0
   -1.9801    0.9304    1.6987 C   0  0  0  0  0  0  0  0  0  0  0  0
   -1.2218   -0.2687    1.2197 C   0  0  0  0  0  0  0  0  0  0  0  0
    0.0193   -0.4353    0.8779 N   0  0  0  0  0  0  0  0  0  0  0  0
    0.8470    0.6415    0.8938 N   0  0  0  0  0  0  0  0  0  0  0  0
    2.1448    0.5917    0.5359 C   0  0  0  0  0  0  0  0  0  0  0  0
    3.0331    1.5574    0.5457 N   0  0  0  0  0  0  0  0  0  0  0  0
    4.1954    0.9806    0.0890 C   0  0  0  0  0  0  0  0  0  0  0  0
    5.4632    1.5490   -0.1033 C   0  0  0  0  0  0  0  0  0  0  0  0
    6.4980    0.7370   -0.5860 C   0  0  0  0  0  0  0  0  0  0  0  0
    6.2755   -0.6130   -0.8714 C   0  0  0  0  0  0  0  0  0  0  0  0
    5.0177   -1.1991   -0.6863 C   0  0  0  0  0  0  0  0  0  0  0  0
    4.0059   -0.3665   -0.2047 C   0  0  0  0  0  0  0  0  0  0  0  0
    2.6877   -0.5830    0.0912 N   0  0  0  0  0  0  0  0  0  0  0  0
   -3.2765    1.0884    1.3772 C   0  0  0  0  0  0  0  0  0  0  0  0
   -4.0642    0.2287    0.4878 C   0  0  0  0  0  0  0  0  0  0  0  0
   -3.7309    0.0873   -0.8650 C   0  0  0  0  0  0  0  0  0  0  0  0
   -4.4990   -0.7300   -1.6964 C   0  0  0  0  0  0  0  0  0  0  0  0
   -5.6068   -1.4029   -1.1837 C   0  0  0  0  0  0  0  0  0  0  0  0
   -5.9510   -1.2567    0.1592 C   0  0  0  0  0  0  0  0  0  0  0  0
   -5.1845   -0.4401    0.9930 C   0  0  0  0  0  0  0  0  0  0  0  0
   -1.8425   -1.1778    1.1270 H   0  0  0  0  0  0  0  0  0  0  0  0
    0.5296    1.5394    1.2588 H   0  0  0  0  0  0  0  0  0  0  0  0
    5.6285    2.5967    0.1206 H   0  0  0  0  0  0  0  0  0  0  0  0
    7.4856    1.1654   -0.7391 H   0  0  0  0  0  0  0  0  0  0  0  0
    7.0966   -1.2216   -1.2449 H   0  0  0  0  0  0  0  0  0  0  0  0
    4.8442   -2.2465   -0.9070 H   0  0  0  0  0  0  0  0  0  0  0  0
    2.1626   -1.4397    0.0160 H   0  0  0  0  0  0  0  0  0  0  0  0
   -3.8346    1.9303    1.7835 H   0  0  0  0  0  0  0  0  0  0  0  0
   -2.8760    0.6130   -1.2860 H   0  0  0  0  0  0  0  0  0  0  0  0
   -4.2347   -0.8384   -2.7455 H   0  0  0  0  0  0  0  0  0  0  0  0
   -6.2051   -2.0379   -1.8326 H   0  0  0  0  0  0  0  0  0  0  0  0
   -6.8184   -1.7778    0.5569 H   0  0  0  0  0  0  0  0  0  0  0  0
   -5.4681   -0.3359    2.0380 H   0  0  0  0  0  0  0  0  0  0  0  0
  1  2  1  0
  2  3  1  0
  3  4  2  3
  4  5  1  0
  5  6  1  0
  6  7  2  0
  7  8  1  0
  8  9  2  0
  9 10  1  0
 10 11  2  0
 11 12  1  0
 12 13  2  0
 13 14  1  0
  2 15  2  3
 15 16  1  0
 16 17  2  0
 17 18  1  0
 18 19  2  0
 19 20  1  0
 20 21  2  0
 14  6  1  0
 21 16  1  0
 13  8  1  0
  3 22  1  0
  5 23  1  0
  9 24  1  0
 10 25  1  0
 11 26  1  0
 12 27  1  0
 14 28  1  0
 15 29  1  0
 17 30  1  0
 18 31  1  0
 19 32  1  0
 20 33  1  0
 21 34  1  0
M  END
$$$$
