
     RDKit          3D

 54 55  0  0  0  0  0  0  0  0999 V2000
   -1.3038   -0.6152    1.9386 C   0  0  0  0  0  0  0  0  0  0  0  0
   -1.7450   -0.2277    0.6475 O   0  0  0  0  0  0  0  0  0  0  0  0
   -0.8287    0.3851   -0.1724 C   0  0  0  0  0  0  0  0  0  0  0  0
    0.5270    0.5648    0.1331 C   0  0  0  0  0  0  0  0  0  0  0  0
    1.3958    1.1993   -0.7729 C   0  0  0  0  0  0  0  0  0  0  0  0
    2.8513    1.3947   -0.4110 C   0  0  0  0  0  0  0  0  0  0  0  0
    3.5447    0.1257   -0.5378 N   0  0  0  0  0  0  0  0  0  0  0  0
    4.9282    0.0665   -0.3470 C   0  0  0  0  0  0  0  0  0  0  0  0
    5.6215   -1.0577   -0.8250 C   0  0  0  0  0  0  0  0  0  0  0  0
    6.9966   -1.2150   -0.6152 C   0  0  0  0  0  0  0  0  0  0  0  0
    7.7065   -0.2581    0.1127 C   0  0  0  0  0  0  0  0  0  0  0  0
    9.1615   -0.4625    0.3162 C   0  0  0  0  0  0  0  0  0  0  0  0
    9.8189   -1.3888   -0.1222 O   0  0  0  0  0  0  0  0  0  0  0  0
    9.7296    0.5056    1.0609 O   0  0  0  0  0  0  0  0  0  0  0  0
    7.0253    0.8458    0.6347 C   0  0  0  0  0  0  0  0  0  0  0  0
    5.6472    0.9961    0.4146 C   0  0  0  0  0  0  0  0  0  0  0  0
    0.9010    1.6181   -2.0166 C   0  0  0  0  0  0  0  0  0  0  0  0
   -0.4506    1.4440   -2.3313 C   0  0  0  0  0  0  0  0  0  0  0  0
   -1.0688    2.0453   -4.0244 Br  0  0  0  0  0  0  0  0  0  0  0  0
   -1.3177    0.8562   -1.4034 C   0  0  0  0  0  0  0  0  0  0  0  0
   -2.6537    0.7180   -1.7083 O   0  0  0  0  0  0  0  0  0  0  0  0
   -3.4105    1.7802   -1.1117 C   0  0  0  0  0  0  0  0  0  0  0  0
   -4.3575    1.2604   -0.0315 C   0  0  0  0  0  0  0  0  0  0  0  0
   -4.5113    1.8481    1.0357 O   0  0  0  0  0  0  0  0  0  0  0  0
   -5.0403    0.1169   -0.4159 N   0  0  0  0  0  0  0  0  0  0  0  0
   -5.9503   -0.6425    0.4556 C   0  0  0  0  0  0  0  0  0  0  0  0
   -7.0662    0.2495    1.0299 C   0  0  0  0  0  0  0  0  0  0  0  0
   -6.6143   -1.7406   -0.4002 C   0  0  0  0  0  0  0  0  0  0  0  0
   -5.1698   -1.3042    1.5996 C   0  0  0  0  0  0  0  0  0  0  0  0
   -0.5156   -1.3750    1.8738 H   0  0  0  0  0  0  0  0  0  0  0  0
   -2.1546   -1.0660    2.4602 H   0  0  0  0  0  0  0  0  0  0  0  0
   -0.9754    0.2530    2.5204 H   0  0  0  0  0  0  0  0  0  0  0  0
    0.9448    0.2172    1.0759 H   0  0  0  0  0  0  0  0  0  0  0  0
    2.9060    1.7727    0.6170 H   0  0  0  0  0  0  0  0  0  0  0  0
    3.2951    2.1496   -1.0659 H   0  0  0  0  0  0  0  0  0  0  0  0
    3.2496   -0.3952   -1.3628 H   0  0  0  0  0  0  0  0  0  0  0  0
    5.0909   -1.8335   -1.3718 H   0  0  0  0  0  0  0  0  0  0  0  0
    7.5038   -2.0928   -1.0139 H   0  0  0  0  0  0  0  0  0  0  0  0
   10.6737    0.2388    1.1081 H   0  0  0  0  0  0  0  0  0  0  0  0
    7.5507    1.5938    1.2239 H   0  0  0  0  0  0  0  0  0  0  0  0
    5.1546    1.8555    0.8625 H   0  0  0  0  0  0  0  0  0  0  0  0
    1.5689    2.0865   -2.7359 H   0  0  0  0  0  0  0  0  0  0  0  0
   -2.7872    2.5790   -0.6895 H   0  0  0  0  0  0  0  0  0  0  0  0
   -4.0289    2.2290   -1.9000 H   0  0  0  0  0  0  0  0  0  0  0  0
   -4.5145   -0.4257   -1.0893 H   0  0  0  0  0  0  0  0  0  0  0  0
   -7.5700    0.8100    0.2369 H   0  0  0  0  0  0  0  0  0  0  0  0
   -7.8212   -0.3505    1.5592 H   0  0  0  0  0  0  0  0  0  0  0  0
   -6.6793    0.9817    1.7464 H   0  0  0  0  0  0  0  0  0  0  0  0
   -7.1818   -1.3028   -1.2296 H   0  0  0  0  0  0  0  0  0  0  0  0
   -7.3100   -2.3483    0.1956 H   0  0  0  0  0  0  0  0  0  0  0  0
   -5.8675   -2.4187   -0.8396 H   0  0  0  0  0  0  0  0  0  0  0  0
   -4.7191   -0.5532    2.2711 H   0  0  0  0  0  0  0  0  0  0  0  0
   -4.3569   -1.9310    1.2095 H   0  0  0  0  0  0  0  0  0  0  0  0
   -5.8227   -1.9385    2.2053 H   0  0  0  0  0  0  0  0  0  0  0  0
  1  2  1  0
  2  3  1  0
  3  4  2  0
  4  5  1  0
  5  6  1  0
  6  7  1  0
  7  8  1  0
  8  9  2  0
  9 10  1  0
 10 11  2  0
 11 12  1  0
 12 13  2  0
 12 14  1  0
 11 15  1  0
 15 16  2  0
  5 17  2  0
 17 18  1  0
 18 19  1  0
 18 20  2  0
 20 21  1  0
 21 22  1  0
 22 23  1  0
 23 24  2  0
 23 25  1  0
 25 26  1  0
 26 27  1  0
 26 28  1  0
 26 29  1  0
 20  3  1  0
 16  8  1  0
  1 30  1  0
  1 31  1  0
  1 32  1  0
  4 33  1  0
  6 34  1  0
  6 35  1  0
  7 36  1  0
  9 37  1  0
 10 38  1  0
 14 39  1  0
 15 40  1  0
 16 41  1  0
 17 42  1  0
 22 43  1  0
 22 44  1  0
 25 45  1  0
 27 46  1  0
 27 47  1  0
 27 48  1  0
 28 49  1  0
 28 50  1  0
 28 51  1  0
 29 52  1  0
 29 53  1  0
 29 54  1  0
M  END
$$$$
