
     RDKit          3D

 42 44  0  0  0  0  0  0  0  0999 V2000
   -2.4434    1.1904   -4.8574 C   0  0  0  0  0  0  0  0  0  0  0  0
   -3.4627    0.7394   -3.9774 O   0  0  0  0  0  0  0  0  0  0  0  0
   -3.1131    0.4954   -2.6765 C   0  0  0  0  0  0  0  0  0  0  0  0
   -1.8133    0.5567   -2.1675 C   0  0  0  0  0  0  0  0  0  0  0  0
   -1.5567    0.2819   -0.8131 C   0  0  0  0  0  0  0  0  0  0  0  0
   -0.1692    0.3962   -0.3320 C   0  0  0  0  0  0  0  0  0  0  0  0
    0.5321   -0.5168    0.3744 C   0  0  0  0  0  0  0  0  0  0  0  0
   -0.0211   -1.7824    0.7374 C   0  0  0  0  0  0  0  0  0  0  0  0
   -0.4697   -2.7882    1.1053 N   0  0  0  0  0  0  0  0  0  0  0  0
    1.8952   -0.1946    0.6702 C   0  0  0  0  0  0  0  0  0  0  0  0
    2.7592    0.4301   -0.1132 N   0  0  0  0  0  0  0  0  0  0  0  0
    3.9424    0.4794    0.5729 C   0  0  0  0  0  0  0  0  0  0  0  0
    5.1797    1.0067    0.1750 C   0  0  0  0  0  0  0  0  0  0  0  0
    6.2592    0.9369    1.0627 C   0  0  0  0  0  0  0  0  0  0  0  0
    6.1072    0.3573    2.3229 C   0  0  0  0  0  0  0  0  0  0  0  0
    4.8781   -0.1703    2.7369 C   0  0  0  0  0  0  0  0  0  0  0  0
    3.8101   -0.0927    1.8318 C   0  0  0  0  0  0  0  0  0  0  0  0
    2.4870   -0.4816    1.8925 N   0  0  0  0  0  0  0  0  0  0  0  0
    1.8571   -1.0249    3.0760 C   0  0  0  0  0  0  0  0  0  0  0  0
   -2.6191   -0.0375    0.0461 C   0  0  0  0  0  0  0  0  0  0  0  0
   -3.9194   -0.1237   -0.4508 C   0  0  0  0  0  0  0  0  0  0  0  0
   -5.0381   -0.4467    0.2771 O   0  0  0  0  0  0  0  0  0  0  0  0
   -4.8209   -0.9386    1.5947 C   0  0  0  0  0  0  0  0  0  0  0  0
   -4.1527    0.1508   -1.8061 C   0  0  0  0  0  0  0  0  0  0  0  0
   -5.4410    0.0786   -2.2805 O   0  0  0  0  0  0  0  0  0  0  0  0
   -2.0071    2.1319   -4.5070 H   0  0  0  0  0  0  0  0  0  0  0  0
   -2.9033    1.3792   -5.8322 H   0  0  0  0  0  0  0  0  0  0  0  0
   -1.6731    0.4246   -4.9955 H   0  0  0  0  0  0  0  0  0  0  0  0
   -0.9764    0.8092   -2.8124 H   0  0  0  0  0  0  0  0  0  0  0  0
    0.3209    1.3256   -0.6310 H   0  0  0  0  0  0  0  0  0  0  0  0
    5.2879    1.4582   -0.8045 H   0  0  0  0  0  0  0  0  0  0  0  0
    7.2245    1.3392    0.7647 H   0  0  0  0  0  0  0  0  0  0  0  0
    6.9603    0.3147    2.9972 H   0  0  0  0  0  0  0  0  0  0  0  0
    4.7737   -0.6202    3.7179 H   0  0  0  0  0  0  0  0  0  0  0  0
    2.4182   -0.7272    3.9649 H   0  0  0  0  0  0  0  0  0  0  0  0
    1.8453   -2.1142    2.9920 H   0  0  0  0  0  0  0  0  0  0  0  0
    0.8446   -0.6232    3.1654 H   0  0  0  0  0  0  0  0  0  0  0  0
   -2.4184   -0.2072    1.0987 H   0  0  0  0  0  0  0  0  0  0  0  0
   -4.4283   -0.1507    2.2451 H   0  0  0  0  0  0  0  0  0  0  0  0
   -5.7890   -1.2513    1.9980 H   0  0  0  0  0  0  0  0  0  0  0  0
   -4.1630   -1.8139    1.5905 H   0  0  0  0  0  0  0  0  0  0  0  0
   -5.9838   -0.1765   -1.5114 H   0  0  0  0  0  0  0  0  0  0  0  0
  1  2  1  0
  2  3  1  0
  3  4  2  0
  4  5  1  0
  5  6  1  0
  6  7  2  3
  7  8  1  0
  8  9  3  0
  7 10  1  0
 10 11  2  0
 11 12  1  0
 12 13  2  0
 13 14  1  0
 14 15  2  0
 15 16  1  0
 16 17  2  0
 17 18  1  0
 18 19  1  0
  5 20  2  0
 20 21  1  0
 21 22  1  0
 22 23  1  0
 21 24  2  0
 24 25  1  0
 24  3  1  0
 18 10  1  0
 17 12  1  0
  1 26  1  0
  1 27  1  0
  1 28  1  0
  4 29  1  0
  6 30  1  0
 13 31  1  0
 14 32  1  0
 15 33  1  0
 16 34  1  0
 19 35  1  0
 19 36  1  0
 19 37  1  0
 20 38  1  0
 23 39  1  0
 23 40  1  0
 23 41  1  0
 25 42  1  0
M  END
$$$$
