
     RDKit          3D

 52 56  0  0  0  0  0  0  0  0999 V2000
    0.3880    1.2486   -2.7908 O   0  0  0  0  0  0  0  0  0  0  0  0
    0.2829    0.8952   -1.6206 C   0  0  0  0  0  0  0  0  0  0  0  0
    1.5063    0.8719   -0.7991 C   0  0  0  0  0  0  0  0  0  0  0  0
    2.3643   -0.2094   -0.9835 C   0  0  0  0  0  0  0  0  0  0  0  0
    3.5148   -0.2632   -0.2181 C   0  0  0  0  0  0  0  0  0  0  0  0
    4.4727   -1.3769   -0.3007 C   0  0  0  0  0  0  0  0  0  0  0  0
    4.7664   -2.1072    0.8702 C   0  0  0  0  0  0  0  0  0  0  0  0
    5.6487   -3.1907    0.8553 C   0  0  0  0  0  0  0  0  0  0  0  0
    6.2647   -3.5674   -0.3327 C   0  0  0  0  0  0  0  0  0  0  0  0
    6.0044   -2.8551   -1.5016 C   0  0  0  0  0  0  0  0  0  0  0  0
    5.1223   -1.7660   -1.4878 C   0  0  0  0  0  0  0  0  0  0  0  0
    4.9096   -0.9173   -2.9831 Cl  0  0  0  0  0  0  0  0  0  0  0  0
    3.8017    0.6834    0.7101 N   0  0  0  0  0  0  0  0  0  0  0  0
    2.9870    1.7421    0.8559 C   0  0  0  0  0  0  0  0  0  0  0  0
    3.3281    2.7181    1.7831 C   0  0  0  0  0  0  0  0  0  0  0  0
    2.5372    3.8523    1.9901 C   0  0  0  0  0  0  0  0  0  0  0  0
    1.3763    4.0174    1.2488 C   0  0  0  0  0  0  0  0  0  0  0  0
    0.2978    5.5455    1.5113 Br  0  0  0  0  0  0  0  0  0  0  0  0
    1.0052    3.0560    0.3128 C   0  0  0  0  0  0  0  0  0  0  0  0
    1.8041    1.9030    0.1121 C   0  0  0  0  0  0  0  0  0  0  0  0
   -0.9097    0.5052   -1.0289 N   0  0  0  0  0  0  0  0  0  0  0  0
   -2.1367    0.5328   -1.8264 C   0  0  0  0  0  0  0  0  0  0  0  0
   -3.3857    0.8927   -1.0004 C   0  0  0  0  0  0  0  0  0  0  0  0
   -3.5034    0.0927    0.2340 N   0  0  0  0  0  0  0  0  0  0  0  0
   -4.7597   -0.4159    0.5614 C   0  0  0  0  0  0  0  0  0  0  0  0
   -5.9088    0.3652    0.4151 C   0  0  0  0  0  0  0  0  0  0  0  0
   -7.1582   -0.1509    0.7601 C   0  0  0  0  0  0  0  0  0  0  0  0
   -7.2423   -1.4399    1.2597 C   0  0  0  0  0  0  0  0  0  0  0  0
   -6.0666   -2.1510    1.3968 C   0  0  0  0  0  0  0  0  0  0  0  0
   -4.8474   -1.6673    1.0666 N   0  0  0  0  0  0  0  0  0  0  0  0
   -2.3635   -0.7724    0.5737 C   0  0  0  0  0  0  0  0  0  0  0  0
   -1.0359   -0.0304    0.3359 C   0  0  0  0  0  0  0  0  0  0  0  0
    2.1259   -0.9851   -1.7038 H   0  0  0  0  0  0  0  0  0  0  0  0
    4.2954   -1.8249    1.8121 H   0  0  0  0  0  0  0  0  0  0  0  0
    5.8539   -3.7356    1.7737 H   0  0  0  0  0  0  0  0  0  0  0  0
    6.9527   -4.4090   -0.3491 H   0  0  0  0  0  0  0  0  0  0  0  0
    6.4979   -3.1476   -2.4254 H   0  0  0  0  0  0  0  0  0  0  0  0
    4.2427    2.5954    2.3597 H   0  0  0  0  0  0  0  0  0  0  0  0
    2.8439    4.5943    2.7230 H   0  0  0  0  0  0  0  0  0  0  0  0
    0.0968    3.2013   -0.2688 H   0  0  0  0  0  0  0  0  0  0  0  0
   -2.2516   -0.4690   -2.2585 H   0  0  0  0  0  0  0  0  0  0  0  0
   -2.0343    1.2355   -2.6603 H   0  0  0  0  0  0  0  0  0  0  0  0
   -4.2577    0.7743   -1.6553 H   0  0  0  0  0  0  0  0  0  0  0  0
   -3.3300    1.9485   -0.7096 H   0  0  0  0  0  0  0  0  0  0  0  0
   -5.8412    1.3864    0.0557 H   0  0  0  0  0  0  0  0  0  0  0  0
   -8.0510    0.4569    0.6477 H   0  0  0  0  0  0  0  0  0  0  0  0
   -8.1938   -1.8747    1.5432 H   0  0  0  0  0  0  0  0  0  0  0  0
   -6.0677   -3.1625    1.7917 H   0  0  0  0  0  0  0  0  0  0  0  0
   -2.4005   -1.0654    1.6301 H   0  0  0  0  0  0  0  0  0  0  0  0
   -2.3848   -1.6842   -0.0373 H   0  0  0  0  0  0  0  0  0  0  0  0
   -0.9660    0.8239    1.0193 H   0  0  0  0  0  0  0  0  0  0  0  0
   -0.1954   -0.6997    0.5447 H   0  0  0  0  0  0  0  0  0  0  0  0
  1  2  2  0
  2  3  1  0
  3  4  2  0
  4  5  1  0
  5  6  1  0
  6  7  2  0
  7  8  1  0
  8  9  2  0
  9 10  1  0
 10 11  2  0
 11 12  1  0
  5 13  2  0
 13 14  1  0
 14 15  2  0
 15 16  1  0
 16 17  2  0
 17 18  1  0
 17 19  1  0
 19 20  2  0
  2 21  1  0
 21 22  1  0
 22 23  1  0
 23 24  1  0
 24 25  1  0
 25 26  2  0
 26 27  1  0
 27 28  2  0
 28 29  1  0
 29 30  2  0
 24 31  1  0
 31 32  1  0
 20  3  1  0
 32 21  1  0
 11  6  1  0
 20 14  1  0
 30 25  1  0
  4 33  1  0
  7 34  1  0
  8 35  1  0
  9 36  1  0
 10 37  1  0
 15 38  1  0
 16 39  1  0
 19 40  1  0
 22 41  1  0
 22 42  1  0
 23 43  1  0
 23 44  1  0
 26 45  1  0
 27 46  1  0
 28 47  1  0
 29 48  1  0
 31 49  1  0
 31 50  1  0
 32 51  1  0
 32 52  1  0
M  END
$$$$
