
     RDKit          3D

 53 54  0  0  0  0  0  0  0  0999 V2000
    2.8271    3.8149    0.1438 C   0  0  0  0  0  0  0  0  0  0  0  0
    1.0832    3.8164   -0.3438 S   0  0  0  0  0  0  0  0  0  0  0  0
    0.5531    2.2646    0.4503 C   0  0  0  0  0  0  0  0  0  0  0  0
    0.2766    2.4522    1.9435 C   0  0  0  0  0  0  0  0  0  0  0  0
   -0.1382    1.1538    2.6553 C   0  0  0  0  0  0  0  0  0  0  0  0
   -1.3945    0.6324    2.1149 N   0  0  0  0  0  0  0  0  0  0  0  0
   -2.2657   -0.0791    2.9165 C   0  0  0  0  0  0  0  0  0  0  0  0
   -2.1730   -0.1257    4.1396 O   0  0  0  0  0  0  0  0  0  0  0  0
   -3.3906   -0.7749    2.1510 C   0  0  0  0  0  0  0  0  0  0  0  0
   -2.9862   -0.9909    0.7996 O   0  0  0  0  0  0  0  0  0  0  0  0
   -3.8730   -1.6364   -0.0161 C   0  0  0  0  0  0  0  0  0  0  0  0
   -5.1583   -2.0525    0.3339 C   0  0  0  0  0  0  0  0  0  0  0  0
   -5.9645   -2.7031   -0.6056 C   0  0  0  0  0  0  0  0  0  0  0  0
   -5.4911   -2.9394   -1.8951 C   0  0  0  0  0  0  0  0  0  0  0  0
   -4.2096   -2.5255   -2.2490 C   0  0  0  0  0  0  0  0  0  0  0  0
   -3.4052   -1.8761   -1.3113 C   0  0  0  0  0  0  0  0  0  0  0  0
    1.0117    0.1320    2.5912 C   0  0  0  0  0  0  0  0  0  0  0  0
    2.1175    0.3126    3.0875 O   0  0  0  0  0  0  0  0  0  0  0  0
    0.6773   -0.9476    1.8285 O   0  0  0  0  0  0  0  0  0  0  0  0
    1.7191   -1.9179    1.6092 C   0  0  0  0  0  0  0  0  0  0  0  0
    2.7548   -1.4150    0.6014 C   0  0  0  0  0  0  0  0  0  0  0  0
    2.0882   -1.1533   -0.6394 O   0  0  0  0  0  0  0  0  0  0  0  0
    2.7789   -0.4097   -1.5560 C   0  0  0  0  0  0  0  0  0  0  0  0
    1.9946    0.1601   -2.5627 C   0  0  0  0  0  0  0  0  0  0  0  0
    2.5752    0.9616   -3.5476 C   0  0  0  0  0  0  0  0  0  0  0  0
    3.9497    1.1810   -3.5315 C   0  0  0  0  0  0  0  0  0  0  0  0
    4.7440    2.2678   -4.8577 Br  0  0  0  0  0  0  0  0  0  0  0  0
    4.7444    0.6014   -2.5443 C   0  0  0  0  0  0  0  0  0  0  0  0
    4.1587   -0.1976   -1.5568 C   0  0  0  0  0  0  0  0  0  0  0  0
    3.3227    2.9086   -0.2135 H   0  0  0  0  0  0  0  0  0  0  0  0
    3.3235    4.6792   -0.3054 H   0  0  0  0  0  0  0  0  0  0  0  0
    2.9266    3.8869    1.2293 H   0  0  0  0  0  0  0  0  0  0  0  0
   -0.3568    1.9408   -0.0645 H   0  0  0  0  0  0  0  0  0  0  0  0
    1.3160    1.5030    0.2747 H   0  0  0  0  0  0  0  0  0  0  0  0
   -0.5206    3.1956    2.0753 H   0  0  0  0  0  0  0  0  0  0  0  0
    1.1701    2.8498    2.4403 H   0  0  0  0  0  0  0  0  0  0  0  0
   -0.2944    1.3693    3.7192 H   0  0  0  0  0  0  0  0  0  0  0  0
   -1.3935    0.3116    1.1491 H   0  0  0  0  0  0  0  0  0  0  0  0
   -4.2695   -0.1222    2.1945 H   0  0  0  0  0  0  0  0  0  0  0  0
   -3.5792   -1.7344    2.6458 H   0  0  0  0  0  0  0  0  0  0  0  0
   -5.5676   -1.8877    1.3250 H   0  0  0  0  0  0  0  0  0  0  0  0
   -6.9655   -3.0258   -0.3294 H   0  0  0  0  0  0  0  0  0  0  0  0
   -6.1206   -3.4453   -2.6226 H   0  0  0  0  0  0  0  0  0  0  0  0
   -3.8352   -2.7074   -3.2530 H   0  0  0  0  0  0  0  0  0  0  0  0
   -2.4049   -1.5573   -1.5936 H   0  0  0  0  0  0  0  0  0  0  0  0
    1.2231   -2.8107    1.2139 H   0  0  0  0  0  0  0  0  0  0  0  0
    2.1869   -2.1899    2.5621 H   0  0  0  0  0  0  0  0  0  0  0  0
    3.5156   -2.1888    0.4499 H   0  0  0  0  0  0  0  0  0  0  0  0
    3.2253   -0.4994    0.9755 H   0  0  0  0  0  0  0  0  0  0  0  0
    0.9206   -0.0091   -2.5728 H   0  0  0  0  0  0  0  0  0  0  0  0
    1.9482    1.4086   -4.3143 H   0  0  0  0  0  0  0  0  0  0  0  0
    5.8193    0.7628   -2.5345 H   0  0  0  0  0  0  0  0  0  0  0  0
    4.8059   -0.6443   -0.8090 H   0  0  0  0  0  0  0  0  0  0  0  0
  1  2  1  0
  2  3  1  0
  3  4  1  0
  4  5  1  0
  5  6  1  0
  6  7  1  0
  7  8  2  0
  7  9  1  0
  9 10  1  0
 10 11  1  0
 11 12  2  0
 12 13  1  0
 13 14  2  0
 14 15  1  0
 15 16  2  0
  5 17  1  0
 17 18  2  0
 17 19  1  0
 19 20  1  0
 20 21  1  0
 21 22  1  0
 22 23  1  0
 23 24  2  0
 24 25  1  0
 25 26  2  0
 26 27  1  0
 26 28  1  0
 28 29  2  0
 16 11  1  0
 29 23  1  0
  1 30  1  0
  1 31  1  0
  1 32  1  0
  3 33  1  0
  3 34  1  0
  4 35  1  0
  4 36  1  0
  5 37  1  0
  6 38  1  0
  9 39  1  0
  9 40  1  0
 12 41  1  0
 13 42  1  0
 14 43  1  0
 15 44  1  0
 16 45  1  0
 20 46  1  0
 20 47  1  0
 21 48  1  0
 21 49  1  0
 24 50  1  0
 25 51  1  0
 28 52  1  0
 29 53  1  0
M  END
$$$$
