
     RDKit          3D

 67 71  0  0  0  0  0  0  0  0999 V2000
   -6.6953    4.9416   -1.2201 C   0  0  0  0  0  0  0  0  0  0  0  0
   -5.4830    4.9056   -0.4812 O   0  0  0  0  0  0  0  0  0  0  0  0
   -4.7476    3.7442   -0.5149 C   0  0  0  0  0  0  0  0  0  0  0  0
   -5.1010    2.6154   -1.2644 C   0  0  0  0  0  0  0  0  0  0  0  0
   -4.2717    1.4751   -1.2276 C   0  0  0  0  0  0  0  0  0  0  0  0
   -4.5209   -0.0007   -2.0731 S   0  0  0  0  0  0  0  0  0  0  0  0
   -3.0998   -0.7081   -1.4380 C   0  0  0  0  0  0  0  0  0  0  0  0
   -2.7685   -2.0858   -1.8311 C   0  0  0  0  0  0  0  0  0  0  0  0
   -2.2806   -2.3246   -3.1275 C   0  0  0  0  0  0  0  0  0  0  0  0
   -1.9324   -3.6130   -3.5299 C   0  0  0  0  0  0  0  0  0  0  0  0
   -2.0695   -4.6751   -2.6416 C   0  0  0  0  0  0  0  0  0  0  0  0
   -2.5524   -4.4534   -1.3490 C   0  0  0  0  0  0  0  0  0  0  0  0
   -2.8979   -3.1626   -0.9304 C   0  0  0  0  0  0  0  0  0  0  0  0
   -3.4006   -2.8715    0.3136 O   0  0  0  0  0  0  0  0  0  0  0  0
   -3.1682   -3.8280    1.3389 C   0  0  0  0  0  0  0  0  0  0  0  0
   -2.4339    0.1616   -0.5895 C   0  0  0  0  0  0  0  0  0  0  0  0
   -1.1964   -0.2183    0.0826 C   0  0  0  0  0  0  0  0  0  0  0  0
   -0.0009   -0.3223   -0.6347 C   0  0  0  0  0  0  0  0  0  0  0  0
    1.1864   -0.6768    0.0166 C   0  0  0  0  0  0  0  0  0  0  0  0
    1.1869   -0.9284    1.3891 C   0  0  0  0  0  0  0  0  0  0  0  0
    2.2682   -1.2741    2.1506 O   0  0  0  0  0  0  0  0  0  0  0  0
    3.5190   -1.5141    1.4980 C   0  0  0  0  0  0  0  0  0  0  0  0
    4.3226   -0.2094    1.3590 C   0  0  0  0  0  0  0  0  0  0  0  0
    5.5673   -0.3525    0.5805 N   0  0  0  0  0  0  0  0  0  0  0  0
    6.1594    0.9817    0.3255 C   0  0  0  0  0  0  0  0  0  0  0  0
    7.4929    0.8734   -0.4298 C   0  0  0  0  0  0  0  0  0  0  0  0
    8.4340    0.0746    0.2985 O   0  0  0  0  0  0  0  0  0  0  0  0
    7.8996   -1.2380    0.5093 C   0  0  0  0  0  0  0  0  0  0  0  0
    6.5708   -1.1833    1.2827 C   0  0  0  0  0  0  0  0  0  0  0  0
   -0.0092   -0.8156    2.1038 C   0  0  0  0  0  0  0  0  0  0  0  0
   -1.1961   -0.4625    1.4582 C   0  0  0  0  0  0  0  0  0  0  0  0
   -3.1079    1.4356   -0.4629 C   0  0  0  0  0  0  0  0  0  0  0  0
   -2.7670    2.5943    0.2850 C   0  0  0  0  0  0  0  0  0  0  0  0
   -3.5784    3.7368    0.2602 C   0  0  0  0  0  0  0  0  0  0  0  0
   -3.3092    4.8889    0.9589 O   0  0  0  0  0  0  0  0  0  0  0  0
   -2.1386    4.9151    1.7628 C   0  0  0  0  0  0  0  0  0  0  0  0
   -6.5066    4.8315   -2.2930 H   0  0  0  0  0  0  0  0  0  0  0  0
   -7.1536    5.9229   -1.0630 H   0  0  0  0  0  0  0  0  0  0  0  0
   -7.4006    4.1849   -0.8609 H   0  0  0  0  0  0  0  0  0  0  0  0
   -5.9943    2.5884   -1.8771 H   0  0  0  0  0  0  0  0  0  0  0  0
   -2.1675   -1.5007   -3.8288 H   0  0  0  0  0  0  0  0  0  0  0  0
   -1.5583   -3.7869   -4.5354 H   0  0  0  0  0  0  0  0  0  0  0  0
   -1.8057   -5.6821   -2.9553 H   0  0  0  0  0  0  0  0  0  0  0  0
   -2.6610   -5.3117   -0.6944 H   0  0  0  0  0  0  0  0  0  0  0  0
   -2.1091   -4.0996    1.4031 H   0  0  0  0  0  0  0  0  0  0  0  0
   -3.7963   -4.7127    1.1957 H   0  0  0  0  0  0  0  0  0  0  0  0
   -3.4520   -3.3709    2.2919 H   0  0  0  0  0  0  0  0  0  0  0  0
    0.0159   -0.1275   -1.7044 H   0  0  0  0  0  0  0  0  0  0  0  0
    2.0893   -0.7384   -0.5815 H   0  0  0  0  0  0  0  0  0  0  0  0
    3.3922   -2.0389    0.5441 H   0  0  0  0  0  0  0  0  0  0  0  0
    4.0636   -2.2065    2.1496 H   0  0  0  0  0  0  0  0  0  0  0  0
    4.5233    0.1989    2.3587 H   0  0  0  0  0  0  0  0  0  0  0  0
    3.6823    0.5326    0.8666 H   0  0  0  0  0  0  0  0  0  0  0  0
    6.3322    1.5007    1.2779 H   0  0  0  0  0  0  0  0  0  0  0  0
    5.4681    1.5882   -0.2712 H   0  0  0  0  0  0  0  0  0  0  0  0
    7.9305    1.8692   -0.5531 H   0  0  0  0  0  0  0  0  0  0  0  0
    7.3510    0.4458   -1.4298 H   0  0  0  0  0  0  0  0  0  0  0  0
    8.6381   -1.8070    1.0837 H   0  0  0  0  0  0  0  0  0  0  0  0
    7.7750   -1.7382   -0.4591 H   0  0  0  0  0  0  0  0  0  0  0  0
    6.2046   -2.2083    1.3975 H   0  0  0  0  0  0  0  0  0  0  0  0
    6.7598   -0.7739    2.2834 H   0  0  0  0  0  0  0  0  0  0  0  0
   -0.0180   -1.0085    3.1737 H   0  0  0  0  0  0  0  0  0  0  0  0
   -2.1185   -0.3914    2.0298 H   0  0  0  0  0  0  0  0  0  0  0  0
   -1.8563    2.5620    0.8725 H   0  0  0  0  0  0  0  0  0  0  0  0
   -2.1848    4.1590    2.5535 H   0  0  0  0  0  0  0  0  0  0  0  0
   -1.2373    4.7975    1.1523 H   0  0  0  0  0  0  0  0  0  0  0  0
   -2.0862    5.8961    2.2449 H   0  0  0  0  0  0  0  0  0  0  0  0
  1  2  1  0
  2  3  1  0
  3  4  2  0
  4  5  1  0
  5  6  1  0
  6  7  1  0
  7  8  1  0
  8  9  2  0
  9 10  1  0
 10 11  2  0
 11 12  1  0
 12 13  2  0
 13 14  1  0
 14 15  1  0
  7 16  2  0
 16 17  1  0
 17 18  2  0
 18 19  1  0
 19 20  2  0
 20 21  1  0
 21 22  1  0
 22 23  1  0
 23 24  1  0
 24 25  1  0
 25 26  1  0
 26 27  1  0
 27 28  1  0
 28 29  1  0
 20 30  1  0
 30 31  2  0
 16 32  1  0
 32 33  1  0
 33 34  2  0
 34 35  1  0
 35 36  1  0
 34  3  1  0
 32  5  2  0
 13  8  1  0
 31 17  1  0
 29 24  1  0
  1 37  1  0
  1 38  1  0
  1 39  1  0
  4 40  1  0
  9 41  1  0
 10 42  1  0
 11 43  1  0
 12 44  1  0
 15 45  1  0
 15 46  1  0
 15 47  1  0
 18 48  1  0
 19 49  1  0
 22 50  1  0
 22 51  1  0
 23 52  1  0
 23 53  1  0
 25 54  1  0
 25 55  1  0
 26 56  1  0
 26 57  1  0
 28 58  1  0
 28 59  1  0
 29 60  1  0
 29 61  1  0
 30 62  1  0
 31 63  1  0
 33 64  1  0
 36 65  1  0
 36 66  1  0
 36 67  1  0
M  END
$$$$
