
     RDKit          3D

 51 56  0  0  0  0  0  0  0  0999 V2000
   -1.1938   -3.0696   -0.1825 O   0  0  0  0  0  0  0  0  0  0  0  0
   -1.8228   -2.0785    0.2226 C   0  0  0  0  0  0  0  0  0  0  0  0
   -3.3173   -2.1648    0.1922 C   0  0  0  0  0  0  0  0  0  0  0  0
   -4.1442   -1.3791    1.0057 C   0  0  0  0  0  0  0  0  0  0  0  0
   -5.5345   -1.5348    0.9621 C   0  0  0  0  0  0  0  0  0  0  0  0
   -6.1043   -2.4934    0.1256 C   0  0  0  0  0  0  0  0  0  0  0  0
   -7.8111   -2.7085    0.0996 Cl  0  0  0  0  0  0  0  0  0  0  0  0
   -5.2954   -3.2942   -0.6757 C   0  0  0  0  0  0  0  0  0  0  0  0
   -3.9080   -3.1313   -0.6406 C   0  0  0  0  0  0  0  0  0  0  0  0
   -1.1179   -0.9149    0.9359 C   0  0  0  0  0  0  0  0  0  0  0  0
    0.3276   -0.7357    0.5890 C   0  0  0  0  0  0  0  0  0  0  0  0
    0.7235    0.6114    0.7116 C   0  0  0  0  0  0  0  0  0  0  0  0
    2.0581    0.6906    0.3901 C   0  0  0  0  0  0  0  0  0  0  0  0
    2.8759    1.7403    0.3867 O   0  0  0  0  0  0  0  0  0  0  0  0
    2.5108   -0.6168    0.0847 N   0  0  0  0  0  0  0  0  0  0  0  0
    3.8585   -1.0054   -0.2486 C   0  0  0  0  0  0  0  0  0  0  0  0
    4.7840   -0.0758   -0.7453 C   0  0  0  0  0  0  0  0  0  0  0  0
    6.0972   -0.4618   -1.0510 C   0  0  0  0  0  0  0  0  0  0  0  0
    6.4980   -1.7812   -0.8670 C   0  0  0  0  0  0  0  0  0  0  0  0
    8.1123   -2.2520   -1.2365 Cl  0  0  0  0  0  0  0  0  0  0  0  0
    5.5962   -2.7185   -0.3785 C   0  0  0  0  0  0  0  0  0  0  0  0
    4.2840   -2.3320   -0.0716 C   0  0  0  0  0  0  0  0  0  0  0  0
    1.3967   -1.4784    0.1621 C   0  0  0  0  0  0  0  0  0  0  0  0
    1.4397   -2.7597   -0.1948 O   0  0  0  0  0  0  0  0  0  0  0  0
   -0.4320    1.4311    1.1756 C   0  0  0  0  0  0  0  0  0  0  0  0
   -0.4565    2.7669    0.5216 C   0  0  0  0  0  0  0  0  0  0  0  0
    0.3222    3.8403    0.9796 C   0  0  0  0  0  0  0  0  0  0  0  0
    0.2710    5.0781    0.3337 C   0  0  0  0  0  0  0  0  0  0  0  0
   -0.5752    5.2634   -0.7594 C   0  0  0  0  0  0  0  0  0  0  0  0
   -1.3909    4.2187   -1.1929 C   0  0  0  0  0  0  0  0  0  0  0  0
   -1.3340    2.9883   -0.5367 C   0  0  0  0  0  0  0  0  0  0  0  0
   -2.2415    1.9088   -0.9211 C   0  0  0  0  0  0  0  0  0  0  0  0
   -2.3440    0.7632   -0.3187 N   0  0  0  0  0  0  0  0  0  0  0  0
   -1.5601    0.5125    0.8052 N   0  0  0  0  0  0  0  0  0  0  0  0
   -3.7337   -0.6263    1.6707 H   0  0  0  0  0  0  0  0  0  0  0  0
   -6.1639   -0.9001    1.5789 H   0  0  0  0  0  0  0  0  0  0  0  0
   -5.7349   -4.0505   -1.3188 H   0  0  0  0  0  0  0  0  0  0  0  0
   -3.2872   -3.7757   -1.2607 H   0  0  0  0  0  0  0  0  0  0  0  0
   -1.1705   -1.1438    2.0091 H   0  0  0  0  0  0  0  0  0  0  0  0
    2.3307    2.5414    0.4132 H   0  0  0  0  0  0  0  0  0  0  0  0
    4.5142    0.9552   -0.9415 H   0  0  0  0  0  0  0  0  0  0  0  0
    6.7947    0.2784   -1.4360 H   0  0  0  0  0  0  0  0  0  0  0  0
    5.9003   -3.7496   -0.2204 H   0  0  0  0  0  0  0  0  0  0  0  0
    3.6260   -3.0915    0.3407 H   0  0  0  0  0  0  0  0  0  0  0  0
    0.5115   -3.0957   -0.2160 H   0  0  0  0  0  0  0  0  0  0  0  0
   -0.4409    1.5185    2.2671 H   0  0  0  0  0  0  0  0  0  0  0  0
    0.9680    3.7227    1.8483 H   0  0  0  0  0  0  0  0  0  0  0  0
    0.8883    5.9015    0.6857 H   0  0  0  0  0  0  0  0  0  0  0  0
   -0.6098    6.2282   -1.2628 H   0  0  0  0  0  0  0  0  0  0  0  0
   -2.0729    4.3775   -2.0253 H   0  0  0  0  0  0  0  0  0  0  0  0
   -2.8924    2.0825   -1.7947 H   0  0  0  0  0  0  0  0  0  0  0  0
  1  2  2  0
  2  3  1  0
  3  4  2  0
  4  5  1  0
  5  6  2  0
  6  7  1  0
  6  8  1  0
  8  9  2  0
  2 10  1  0
 10 11  1  0
 11 12  1  0
 12 13  2  0
 13 14  1  0
 13 15  1  0
 15 16  1  0
 16 17  2  0
 17 18  1  0
 18 19  2  0
 19 20  1  0
 19 21  1  0
 21 22  2  0
 15 23  1  0
 23 24  1  0
 12 25  1  0
 25 26  1  0
 26 27  2  0
 27 28  1  0
 28 29  2  0
 29 30  1  0
 30 31  2  0
 31 32  1  0
 32 33  2  0
 33 34  1  0
  9  3  1  0
 34 10  1  0
 23 11  2  0
 34 25  1  0
 22 16  1  0
 31 26  1  0
  4 35  1  0
  5 36  1  0
  8 37  1  0
  9 38  1  0
 10 39  1  0
 14 40  1  0
 17 41  1  0
 18 42  1  0
 21 43  1  0
 22 44  1  0
 24 45  1  0
 25 46  1  0
 27 47  1  0
 28 48  1  0
 29 49  1  0
 30 50  1  0
 32 51  1  0
M  END
$$$$
