
     RDKit          3D

 29 31  0  0  0  0  0  0  0  0999 V2000
   -4.5120   -2.0835   -2.4674 O   0  0  0  0  0  0  0  0  0  0  0  0
   -4.0639   -0.9512   -2.5514 C   0  0  0  0  0  0  0  0  0  0  0  0
   -4.4460   -0.0340   -3.4886 N   0  0  0  0  0  0  0  0  0  0  0  0
   -3.8566    1.1916   -3.4609 C   0  0  0  0  0  0  0  0  0  0  0  0
   -4.2137    2.4036   -4.5301 S   0  0  0  0  0  0  0  0  0  0  0  0
   -2.7026    1.2597   -2.1523 S   0  0  0  0  0  0  0  0  0  0  0  0
   -3.0272   -0.3617   -1.6592 C   0  0  0  0  0  0  0  0  0  0  0  0
   -2.5064   -1.0901   -0.6635 C   0  0  0  0  0  0  0  0  0  0  0  0
   -1.5139   -0.6514    0.2574 C   0  0  0  0  0  0  0  0  0  0  0  0
   -0.9299   -1.3782    1.2869 C   0  0  0  0  0  0  0  0  0  0  0  0
    0.0023   -0.5372    1.9414 C   0  0  0  0  0  0  0  0  0  0  0  0
   -0.0336    0.6755    1.2896 C   0  0  0  0  0  0  0  0  0  0  0  0
    0.8406    2.1581    1.5704 S   0  0  0  0  0  0  0  0  0  0  0  0
    2.2569    1.6340    2.5707 C   0  0  0  0  0  0  0  0  0  0  0  0
    3.2034    0.7667    1.8247 C   0  0  0  0  0  0  0  0  0  0  0  0
    3.9491    0.9324    0.6744 C   0  0  0  0  0  0  0  0  0  0  0  0
    4.6683   -0.2719    0.4859 C   0  0  0  0  0  0  0  0  0  0  0  0
    4.3240   -1.0920    1.5338 C   0  0  0  0  0  0  0  0  0  0  0  0
    3.4394   -0.4699    2.3544 O   0  0  0  0  0  0  0  0  0  0  0  0
   -0.9534    0.6018    0.2854 O   0  0  0  0  0  0  0  0  0  0  0  0
   -5.1447   -0.2710   -4.1761 H   0  0  0  0  0  0  0  0  0  0  0  0
   -2.8606   -2.1112   -0.5322 H   0  0  0  0  0  0  0  0  0  0  0  0
   -1.1545   -2.4065    1.5366 H   0  0  0  0  0  0  0  0  0  0  0  0
    0.6235   -0.8013    2.7849 H   0  0  0  0  0  0  0  0  0  0  0  0
    1.9027    1.1442    3.4838 H   0  0  0  0  0  0  0  0  0  0  0  0
    2.7875    2.5381    2.8889 H   0  0  0  0  0  0  0  0  0  0  0  0
    3.9622    1.8128    0.0462 H   0  0  0  0  0  0  0  0  0  0  0  0
    5.3527   -0.5132   -0.3151 H   0  0  0  0  0  0  0  0  0  0  0  0
    4.6062   -2.0944    1.8242 H   0  0  0  0  0  0  0  0  0  0  0  0
  1  2  2  0
  2  3  1  0
  3  4  1  0
  4  5  2  0
  4  6  1  0
  6  7  1  0
  7  8  2  3
  8  9  1  0
  9 10  2  0
 10 11  1  0
 11 12  2  0
 12 13  1  0
 13 14  1  0
 14 15  1  0
 15 16  2  0
 16 17  1  0
 17 18  2  0
 18 19  1  0
 12 20  1  0
  7  2  1  0
 20  9  1  0
 19 15  1  0
  3 21  1  0
  8 22  1  0
 10 23  1  0
 11 24  1  0
 14 25  1  0
 14 26  1  0
 16 27  1  0
 17 28  1  0
 18 29  1  0
M  END
$$$$
