
     RDKit          3D

 40 42  0  0  0  0  0  0  0  0999 V2000
    4.9252    2.6338    1.1359 C   0  0  0  0  0  0  0  0  0  0  0  0
    4.5901    2.4828   -0.3360 C   0  0  0  0  0  0  0  0  0  0  0  0
    3.3716    1.7430   -0.4921 O   0  0  0  0  0  0  0  0  0  0  0  0
    3.4985    0.3856   -0.5265 C   0  0  0  0  0  0  0  0  0  0  0  0
    4.5544   -0.2237   -0.4280 O   0  0  0  0  0  0  0  0  0  0  0  0
    2.1466   -0.2553   -0.6960 C   0  0  0  0  0  0  0  0  0  0  0  0
    1.0709    0.5477   -0.7842 N   0  0  0  0  0  0  0  0  0  0  0  0
   -0.1208   -0.0579   -0.9139 C   0  0  0  0  0  0  0  0  0  0  0  0
   -1.2121    0.8333   -0.9807 N   0  0  0  0  0  0  0  0  0  0  0  0
   -2.3844    0.8037   -0.1816 C   0  0  0  0  0  0  0  0  0  0  0  0
   -3.5883    1.1371   -0.8273 C   0  0  0  0  0  0  0  0  0  0  0  0
   -4.7958    1.1811   -0.1318 C   0  0  0  0  0  0  0  0  0  0  0  0
   -4.8137    0.9172    1.2315 C   0  0  0  0  0  0  0  0  0  0  0  0
   -3.6222    0.6332    1.8985 C   0  0  0  0  0  0  0  0  0  0  0  0
   -2.3933    0.6006    1.2127 C   0  0  0  0  0  0  0  0  0  0  0  0
   -1.1465    0.3414    2.0130 C   0  0  0  0  0  0  0  0  0  0  0  0
   -0.2616   -1.4562   -1.0068 C   0  0  0  0  0  0  0  0  0  0  0  0
   -1.4761   -2.1626   -1.2108 C   0  0  0  0  0  0  0  0  0  0  0  0
   -1.4980   -3.5541   -1.2782 C   0  0  0  0  0  0  0  0  0  0  0  0
   -0.3111   -4.2597   -1.1511 C   0  0  0  0  0  0  0  0  0  0  0  0
    0.8876   -3.5673   -0.9656 C   0  0  0  0  0  0  0  0  0  0  0  0
    0.9335   -2.1802   -0.8974 C   0  0  0  0  0  0  0  0  0  0  0  0
    2.1226   -1.5990   -0.7353 N   0  0  0  0  0  0  0  0  0  0  0  0
    5.8210    3.2469    1.2689 H   0  0  0  0  0  0  0  0  0  0  0  0
    4.0937    3.1016    1.6733 H   0  0  0  0  0  0  0  0  0  0  0  0
    5.0969    1.6585    1.6021 H   0  0  0  0  0  0  0  0  0  0  0  0
    4.4237    3.4704   -0.7784 H   0  0  0  0  0  0  0  0  0  0  0  0
    5.4137    2.0175   -0.8897 H   0  0  0  0  0  0  0  0  0  0  0  0
   -0.7881    1.7574   -0.8828 H   0  0  0  0  0  0  0  0  0  0  0  0
   -3.5847    1.3450   -1.8954 H   0  0  0  0  0  0  0  0  0  0  0  0
   -5.7172    1.4211   -0.6552 H   0  0  0  0  0  0  0  0  0  0  0  0
   -5.7511    0.9461    1.7809 H   0  0  0  0  0  0  0  0  0  0  0  0
   -3.6553    0.4512    2.9712 H   0  0  0  0  0  0  0  0  0  0  0  0
   -1.3265    0.4824    3.0847 H   0  0  0  0  0  0  0  0  0  0  0  0
   -0.3536    1.0438    1.7386 H   0  0  0  0  0  0  0  0  0  0  0  0
   -0.8043   -0.6870    1.8675 H   0  0  0  0  0  0  0  0  0  0  0  0
   -2.4141   -1.6256   -1.3254 H   0  0  0  0  0  0  0  0  0  0  0  0
   -2.4374   -4.0792   -1.4312 H   0  0  0  0  0  0  0  0  0  0  0  0
   -0.3094   -5.3455   -1.2016 H   0  0  0  0  0  0  0  0  0  0  0  0
    1.8155   -4.1295   -0.8763 H   0  0  0  0  0  0  0  0  0  0  0  0
  1  2  1  0
  2  3  1  0
  3  4  1  0
  4  5  2  0
  4  6  1  0
  6  7  2  0
  7  8  1  0
  8  9  1  0
  9 10  1  0
 10 11  2  0
 11 12  1  0
 12 13  2  0
 13 14  1  0
 14 15  2  0
 15 16  1  0
  8 17  2  0
 17 18  1  0
 18 19  2  0
 19 20  1  0
 20 21  2  0
 21 22  1  0
 22 23  2  0
 23  6  1  0
 15 10  1  0
 22 17  1  0
  1 24  1  0
  1 25  1  0
  1 26  1  0
  2 27  1  0
  2 28  1  0
  9 29  1  0
 11 30  1  0
 12 31  1  0
 13 32  1  0
 14 33  1  0
 16 34  1  0
 16 35  1  0
 16 36  1  0
 18 37  1  0
 19 38  1  0
 20 39  1  0
 21 40  1  0
M  END
$$$$
