
     RDKit          3D

 40 41  0  0  0  0  0  0  0  0999 V2000
   -5.4700   -0.1230   -0.2511 C   0  0  0  0  0  0  0  0  0  0  0  0
   -4.1281    0.3212   -0.6146 N   0  0  0  0  0  0  0  0  0  0  0  0
   -3.2280   -0.8089   -0.9133 C   0  0  0  0  0  0  0  0  0  0  0  0
   -2.3123   -1.2406    0.2491 C   0  0  0  0  0  0  0  0  0  0  0  0
   -1.5288   -0.1260    0.7953 N   0  0  0  0  0  0  0  0  0  0  0  0
   -0.3184   -0.2493    1.4548 C   0  0  0  0  0  0  0  0  0  0  0  0
    0.3512    0.7376    1.7765 O   0  0  0  0  0  0  0  0  0  0  0  0
    0.1802   -1.6435    1.8096 C   0  0  0  0  0  0  0  0  0  0  0  0
    1.2157   -2.3659    0.4881 S   0  0  0  0  0  0  0  0  0  0  0  0
    2.4325   -1.0733    0.2685 C   0  0  0  0  0  0  0  0  0  0  0  0
    3.3310   -0.8164    1.3135 C   0  0  0  0  0  0  0  0  0  0  0  0
    4.3208    0.1689    1.1908 C   0  0  0  0  0  0  0  0  0  0  0  0
    4.4471    0.9223    0.0141 C   0  0  0  0  0  0  0  0  0  0  0  0
    5.5279    1.9693   -0.1199 C   0  0  0  0  0  0  0  0  0  0  0  0
    5.8855    2.5256    1.0698 F   0  0  0  0  0  0  0  0  0  0  0  0
    5.1639    3.0058   -0.9242 F   0  0  0  0  0  0  0  0  0  0  0  0
    6.6700    1.4600   -0.6566 F   0  0  0  0  0  0  0  0  0  0  0  0
    3.5745    0.6559   -1.0500 C   0  0  0  0  0  0  0  0  0  0  0  0
    2.5816   -0.3285   -0.9095 C   0  0  0  0  0  0  0  0  0  0  0  0
    1.7181   -0.5593   -2.0519 N   0  0  0  0  0  4  0  0  0  0  0  0
    0.5141   -0.2971   -1.9273 O   0  0  0  0  0  0  0  0  0  0  0  0
    2.2646   -0.9618   -3.0885 O   0  0  0  0  0  1  0  0  0  0  0  0
   -2.0372    1.2151    0.4900 C   0  0  0  0  0  0  0  0  0  0  0  0
   -3.5741    1.2273    0.4129 C   0  0  0  0  0  0  0  0  0  0  0  0
   -5.9205   -0.6950   -1.0701 H   0  0  0  0  0  0  0  0  0  0  0  0
   -5.4690   -0.7503    0.6475 H   0  0  0  0  0  0  0  0  0  0  0  0
   -6.1252    0.7370   -0.0730 H   0  0  0  0  0  0  0  0  0  0  0  0
   -3.7867   -1.6763   -1.2859 H   0  0  0  0  0  0  0  0  0  0  0  0
   -2.5874   -0.4930   -1.7474 H   0  0  0  0  0  0  0  0  0  0  0  0
   -2.9124   -1.6437    1.0736 H   0  0  0  0  0  0  0  0  0  0  0  0
   -1.6454   -2.0339   -0.0960 H   0  0  0  0  0  0  0  0  0  0  0  0
    0.7601   -1.5781    2.7366 H   0  0  0  0  0  0  0  0  0  0  0  0
   -0.6585   -2.3132    2.0197 H   0  0  0  0  0  0  0  0  0  0  0  0
    3.2745   -1.3802    2.2434 H   0  0  0  0  0  0  0  0  0  0  0  0
    4.9959    0.3468    2.0286 H   0  0  0  0  0  0  0  0  0  0  0  0
    3.6651    1.2147   -1.9820 H   0  0  0  0  0  0  0  0  0  0  0  0
   -1.7008    1.9248    1.2540 H   0  0  0  0  0  0  0  0  0  0  0  0
   -1.5981    1.5264   -0.4658 H   0  0  0  0  0  0  0  0  0  0  0  0
   -3.9196    2.2464    0.2051 H   0  0  0  0  0  0  0  0  0  0  0  0
   -3.9539    0.9523    1.4069 H   0  0  0  0  0  0  0  0  0  0  0  0
  1  2  1  0
  2  3  1  0
  3  4  1  0
  4  5  1  0
  5  6  1  0
  6  7  2  0
  6  8  1  0
  8  9  1  0
  9 10  1  0
 10 11  2  0
 11 12  1  0
 12 13  2  0
 13 14  1  0
 14 15  1  0
 14 16  1  0
 14 17  1  0
 13 18  1  0
 18 19  2  0
 19 20  1  0
 20 21  2  0
 20 22  1  0
  5 23  1  0
 23 24  1  0
 24  2  1  0
 19 10  1  0
  1 25  1  0
  1 26  1  0
  1 27  1  0
  3 28  1  0
  3 29  1  0
  4 30  1  0
  4 31  1  0
  8 32  1  0
  8 33  1  0
 11 34  1  0
 12 35  1  0
 18 36  1  0
 23 37  1  0
 23 38  1  0
 24 39  1  0
 24 40  1  0
M  CHG  2  20   1  22  -1
M  END
$$$$
