
     RDKit          3D

 59 62  0  0  0  0  0  0  0  0999 V2000
    3.0913    0.4716   -2.3454 O   0  0  0  0  0  0  0  0  0  0  0  0
    1.9711    0.2640   -1.8847 C   0  0  0  0  0  0  0  0  0  0  0  0
    0.9809   -0.1008   -2.7487 N   0  0  0  0  0  0  0  0  0  0  0  0
   -0.1959   -0.6974   -2.4072 C   0  0  0  0  0  0  0  0  0  0  0  0
   -0.8356   -1.3366   -3.2375 O   0  0  0  0  0  0  0  0  0  0  0  0
   -0.6643   -0.4373   -0.9929 C   0  0  0  0  0  0  0  0  0  0  0  0
   -1.3537    0.9624   -1.0287 C   0  0  0  0  0  0  0  0  0  0  0  0
   -2.0198    1.4001    0.2841 C   0  0  0  0  0  0  0  0  0  0  0  0
   -2.5035    2.8260    0.1978 C   0  0  0  0  0  0  0  0  0  0  0  0
   -3.7365    3.1284   -0.3856 C   0  0  0  0  0  0  0  0  0  0  0  0
   -4.1277    4.4565   -0.4614 C   0  0  0  0  0  0  0  0  0  0  0  0
   -3.3833    5.4864   -0.0063 N   0  0  0  0  0  0  0  0  0  0  0  0
   -2.1959    5.1733    0.5534 C   0  0  0  0  0  0  0  0  0  0  0  0
   -1.7168    3.8776    0.6746 C   0  0  0  0  0  0  0  0  0  0  0  0
   -1.6656   -1.5335   -0.5449 C   0  0  0  0  0  0  0  0  0  0  0  0
   -1.0961   -2.9635   -0.5617 C   0  0  0  0  0  0  0  0  0  0  0  0
   -2.1190   -3.9601   -0.0788 C   0  0  0  0  0  0  0  0  0  0  0  0
   -2.9995   -4.5707   -0.9748 C   0  0  0  0  0  0  0  0  0  0  0  0
   -3.9359   -5.4650   -0.4793 C   0  0  0  0  0  0  0  0  0  0  0  0
   -4.0554   -5.7825    0.8276 N   0  0  0  0  0  0  0  0  0  0  0  0
   -3.1980   -5.1769    1.6768 C   0  0  0  0  0  0  0  0  0  0  0  0
   -2.2279   -4.2698    1.2790 C   0  0  0  0  0  0  0  0  0  0  0  0
    0.5230   -0.3457   -0.0432 C   0  0  0  0  0  0  0  0  0  0  0  0
    0.4438   -0.7626    1.1137 O   0  0  0  0  0  0  0  0  0  0  0  0
    1.6558    0.2949   -0.5373 N   0  0  0  0  0  0  0  0  0  0  0  0
    2.7161    0.6181    0.4380 C   0  0  0  0  0  0  0  0  0  0  0  0
    3.7559   -0.5127    0.5785 C   0  0  0  0  0  0  0  0  0  0  0  0
    5.1158   -0.0215    1.0820 C   0  0  0  0  0  0  0  0  0  0  0  0
    4.9769    1.1612    2.0317 C   0  0  0  0  0  0  0  0  0  0  0  0
    4.3042    2.3629    1.3636 C   0  0  0  0  0  0  0  0  0  0  0  0
    3.3836    1.9818    0.1999 C   0  0  0  0  0  0  0  0  0  0  0  0
    1.2903   -0.2511   -3.7001 H   0  0  0  0  0  0  0  0  0  0  0  0
   -2.1107    0.9684   -1.8264 H   0  0  0  0  0  0  0  0  0  0  0  0
   -0.6213    1.7279   -1.3227 H   0  0  0  0  0  0  0  0  0  0  0  0
   -1.3235    1.3101    1.1256 H   0  0  0  0  0  0  0  0  0  0  0  0
   -2.8746    0.7558    0.5203 H   0  0  0  0  0  0  0  0  0  0  0  0
   -4.3855    2.3507   -0.7744 H   0  0  0  0  0  0  0  0  0  0  0  0
   -5.0795    4.7345   -0.9051 H   0  0  0  0  0  0  0  0  0  0  0  0
   -1.6181    6.0194    0.9141 H   0  0  0  0  0  0  0  0  0  0  0  0
   -0.7509    3.7004    1.1353 H   0  0  0  0  0  0  0  0  0  0  0  0
   -2.5570   -1.4970   -1.1865 H   0  0  0  0  0  0  0  0  0  0  0  0
   -2.0176   -1.3231    0.4733 H   0  0  0  0  0  0  0  0  0  0  0  0
   -0.7728   -3.2509   -1.5682 H   0  0  0  0  0  0  0  0  0  0  0  0
   -0.2030   -3.0391    0.0690 H   0  0  0  0  0  0  0  0  0  0  0  0
   -2.9617   -4.3572   -2.0382 H   0  0  0  0  0  0  0  0  0  0  0  0
   -4.6373   -5.9634   -1.1422 H   0  0  0  0  0  0  0  0  0  0  0  0
   -3.3148   -5.4467    2.7224 H   0  0  0  0  0  0  0  0  0  0  0  0
   -1.5740   -3.8152    2.0163 H   0  0  0  0  0  0  0  0  0  0  0  0
    2.2234    0.7133    1.4163 H   0  0  0  0  0  0  0  0  0  0  0  0
    3.3590   -1.2627    1.2750 H   0  0  0  0  0  0  0  0  0  0  0  0
    3.9086   -1.0459   -0.3669 H   0  0  0  0  0  0  0  0  0  0  0  0
    5.6419   -0.8454    1.5775 H   0  0  0  0  0  0  0  0  0  0  0  0
    5.7349    0.2749    0.2259 H   0  0  0  0  0  0  0  0  0  0  0  0
    4.3845    0.8528    2.9025 H   0  0  0  0  0  0  0  0  0  0  0  0
    5.9599    1.4575    2.4151 H   0  0  0  0  0  0  0  0  0  0  0  0
    3.7347    2.9138    2.1221 H   0  0  0  0  0  0  0  0  0  0  0  0
    5.0684    3.0571    0.9935 H   0  0  0  0  0  0  0  0  0  0  0  0
    3.9820    1.9694   -0.7175 H   0  0  0  0  0  0  0  0  0  0  0  0
    2.6263    2.7630    0.0617 H   0  0  0  0  0  0  0  0  0  0  0  0
  1  2  2  0
  2  3  1  0
  3  4  1  0
  4  5  2  0
  4  6  1  0
  6  7  1  0
  7  8  1  0
  8  9  1  0
  9 10  2  0
 10 11  1  0
 11 12  2  0
 12 13  1  0
 13 14  2  0
  6 15  1  0
 15 16  1  0
 16 17  1  0
 17 18  2  0
 18 19  1  0
 19 20  2  0
 20 21  1  0
 21 22  2  0
  6 23  1  0
 23 24  2  0
 23 25  1  0
 25 26  1  0
 26 27  1  0
 27 28  1  0
 28 29  1  0
 29 30  1  0
 30 31  1  0
 25  2  1  0
 31 26  1  0
 14  9  1  0
 22 17  1  0
  3 32  1  0
  7 33  1  0
  7 34  1  0
  8 35  1  0
  8 36  1  0
 10 37  1  0
 11 38  1  0
 13 39  1  0
 14 40  1  0
 15 41  1  0
 15 42  1  0
 16 43  1  0
 16 44  1  0
 18 45  1  0
 19 46  1  0
 21 47  1  0
 22 48  1  0
 26 49  1  0
 27 50  1  0
 27 51  1  0
 28 52  1  0
 28 53  1  0
 29 54  1  0
 29 55  1  0
 30 56  1  0
 30 57  1  0
 31 58  1  0
 31 59  1  0
M  END
$$$$
