
     RDKit          3D

 60 61  0  0  0  0  0  0  0  0999 V2000
   -0.7893   -3.2110    1.8275 C   0  0  0  0  0  0  0  0  0  0  0  0
   -0.9653   -1.8203    1.5950 O   0  0  0  0  0  0  0  0  0  0  0  0
    0.1543   -1.0515    1.4125 C   0  0  0  0  0  0  0  0  0  0  0  0
    1.4636   -1.5350    1.5108 C   0  0  0  0  0  0  0  0  0  0  0  0
    2.5573   -0.6810    1.3323 C   0  0  0  0  0  0  0  0  0  0  0  0
    2.3581    0.6767    1.0602 C   0  0  0  0  0  0  0  0  0  0  0  0
    3.5072    1.6105    0.8876 C   0  0  0  0  0  0  0  0  0  0  0  0
    3.3251    2.6676    0.2898 O   0  0  0  0  0  0  0  0  0  0  0  0
    4.8019    1.2640    1.5388 C   0  0  0  0  0  0  0  0  0  0  0  0
    6.0261    1.6394    1.1338 C   0  0  0  0  0  0  0  0  0  0  0  0
    6.3849    2.4389   -0.0419 C   0  0  0  0  0  0  0  0  0  0  0  0
    7.1385    1.8514   -1.0673 C   0  0  0  0  0  0  0  0  0  0  0  0
    7.5316    2.6069   -2.1755 C   0  0  0  0  0  0  0  0  0  0  0  0
    7.1727    3.9472   -2.2571 C   0  0  0  0  0  0  0  0  0  0  0  0
    7.5708    4.6470   -3.3583 O   0  0  0  0  0  0  0  0  0  0  0  0
    6.4334    4.5501   -1.2441 C   0  0  0  0  0  0  0  0  0  0  0  0
    6.0477    3.7950   -0.1324 C   0  0  0  0  0  0  0  0  0  0  0  0
    1.0430    1.1562    0.9275 C   0  0  0  0  0  0  0  0  0  0  0  0
    0.7887    2.4699    0.6105 O   0  0  0  0  0  0  0  0  0  0  0  0
   -0.0677    0.3096    1.1167 C   0  0  0  0  0  0  0  0  0  0  0  0
   -1.4778    0.8535    0.9636 C   0  0  0  0  0  0  0  0  0  0  0  0
   -1.9471    0.8420   -0.4706 C   0  0  0  0  0  0  0  0  0  0  0  0
   -3.0656    0.2894   -0.9839 C   0  0  0  0  0  0  0  0  0  0  0  0
   -3.3551    0.3974   -2.4603 C   0  0  0  0  0  0  0  0  0  0  0  0
   -4.1238   -0.4308   -0.1731 C   0  0  0  0  0  0  0  0  0  0  0  0
   -4.0625   -1.9533   -0.3413 C   0  0  0  0  0  0  0  0  0  0  0  0
   -5.0261   -2.6494    0.5849 C   0  0  0  0  0  0  0  0  0  0  0  0
   -6.2575   -3.1126    0.2927 C   0  0  0  0  0  0  0  0  0  0  0  0
   -6.9348   -2.9817   -1.0441 C   0  0  0  0  0  0  0  0  0  0  0  0
   -7.0865   -3.8056    1.3429 C   0  0  0  0  0  0  0  0  0  0  0  0
   -1.7820   -3.6614    1.9223 H   0  0  0  0  0  0  0  0  0  0  0  0
   -0.2847   -3.6925    0.9839 H   0  0  0  0  0  0  0  0  0  0  0  0
   -0.2537   -3.3884    2.7656 H   0  0  0  0  0  0  0  0  0  0  0  0
    1.6692   -2.5802    1.7234 H   0  0  0  0  0  0  0  0  0  0  0  0
    3.5547   -1.1071    1.3940 H   0  0  0  0  0  0  0  0  0  0  0  0
    4.7272    0.6466    2.4300 H   0  0  0  0  0  0  0  0  0  0  0  0
    6.8864    1.2994    1.7077 H   0  0  0  0  0  0  0  0  0  0  0  0
    7.4242    0.8038   -1.0144 H   0  0  0  0  0  0  0  0  0  0  0  0
    8.1142    2.1513   -2.9725 H   0  0  0  0  0  0  0  0  0  0  0  0
    7.1808    5.5367   -3.3092 H   0  0  0  0  0  0  0  0  0  0  0  0
    6.1476    5.5958   -1.2976 H   0  0  0  0  0  0  0  0  0  0  0  0
    5.4687    4.2694    0.6573 H   0  0  0  0  0  0  0  0  0  0  0  0
    1.6382    2.8948    0.3513 H   0  0  0  0  0  0  0  0  0  0  0  0
   -2.1512    0.3060    1.6287 H   0  0  0  0  0  0  0  0  0  0  0  0
   -1.5136    1.8858    1.3342 H   0  0  0  0  0  0  0  0  0  0  0  0
   -1.2718    1.3634   -1.1493 H   0  0  0  0  0  0  0  0  0  0  0  0
   -3.4204   -0.5971   -2.9130 H   0  0  0  0  0  0  0  0  0  0  0  0
   -4.3053    0.9185   -2.6248 H   0  0  0  0  0  0  0  0  0  0  0  0
   -2.5783    0.9519   -2.9973 H   0  0  0  0  0  0  0  0  0  0  0  0
   -5.1118   -0.0651   -0.4823 H   0  0  0  0  0  0  0  0  0  0  0  0
   -4.0495   -0.1723    0.8888 H   0  0  0  0  0  0  0  0  0  0  0  0
   -3.0537   -2.3157   -0.1126 H   0  0  0  0  0  0  0  0  0  0  0  0
   -4.2431   -2.2361   -1.3834 H   0  0  0  0  0  0  0  0  0  0  0  0
   -4.6473   -2.7787    1.5992 H   0  0  0  0  0  0  0  0  0  0  0  0
   -7.8793   -2.4379   -0.9333 H   0  0  0  0  0  0  0  0  0  0  0  0
   -6.3393   -2.4392   -1.7814 H   0  0  0  0  0  0  0  0  0  0  0  0
   -7.1545   -3.9719   -1.4560 H   0  0  0  0  0  0  0  0  0  0  0  0
   -7.3533   -4.8145    1.0094 H   0  0  0  0  0  0  0  0  0  0  0  0
   -8.0086   -3.2449    1.5285 H   0  0  0  0  0  0  0  0  0  0  0  0
   -6.5557   -3.9010    2.2969 H   0  0  0  0  0  0  0  0  0  0  0  0
  1  2  1  0
  2  3  1  0
  3  4  2  0
  4  5  1  0
  5  6  2  0
  6  7  1  0
  7  8  2  0
  7  9  1  0
  9 10  2  3
 10 11  1  0
 11 12  2  0
 12 13  1  0
 13 14  2  0
 14 15  1  0
 14 16  1  0
 16 17  2  0
  6 18  1  0
 18 19  1  0
 18 20  2  0
 20 21  1  0
 21 22  1  0
 22 23  2  3
 23 24  1  0
 23 25  1  0
 25 26  1  0
 26 27  1  0
 27 28  2  3
 28 29  1  0
 28 30  1  0
 20  3  1  0
 17 11  1  0
  1 31  1  0
  1 32  1  0
  1 33  1  0
  4 34  1  0
  5 35  1  0
  9 36  1  0
 10 37  1  0
 12 38  1  0
 13 39  1  0
 15 40  1  0
 16 41  1  0
 17 42  1  0
 19 43  1  0
 21 44  1  0
 21 45  1  0
 22 46  1  0
 24 47  1  0
 24 48  1  0
 24 49  1  0
 25 50  1  0
 25 51  1  0
 26 52  1  0
 26 53  1  0
 27 54  1  0
 29 55  1  0
 29 56  1  0
 29 57  1  0
 30 58  1  0
 30 59  1  0
 30 60  1  0
M  END
$$$$
