
     RDKit          3D

 46 49  0  0  0  0  0  0  0  0999 V2000
    6.1817   -0.1650    2.6321 N   0  0  0  0  0  0  0  0  0  0  0  0
    5.0801   -1.3799    3.0215 S   0  0  0  0  0  6  0  0  0  0  0  0
    5.5789   -2.6199    2.4762 O   0  0  0  0  0  0  0  0  0  0  0  0
    4.7922   -1.2076    4.4268 O   0  0  0  0  0  0  0  0  0  0  0  0
    3.6625   -0.8784    2.0862 C   0  0  0  0  0  0  0  0  0  0  0  0
    2.7104   -0.0425    2.6624 C   0  0  0  0  0  0  0  0  0  0  0  0
    1.5985    0.3480    1.9089 C   0  0  0  0  0  0  0  0  0  0  0  0
    1.4017   -0.0858    0.5835 C   0  0  0  0  0  0  0  0  0  0  0  0
    0.2818    0.3232   -0.1379 N   0  0  0  0  0  0  0  0  0  0  0  0
   -0.6222    1.1908    0.4061 N   0  0  0  0  0  0  0  0  0  0  0  0
   -1.4661    1.5048   -0.5299 C   0  0  0  0  0  0  0  0  0  0  0  0
   -2.6154    2.4145   -0.3132 C   0  0  0  0  0  0  0  0  0  0  0  0
   -3.4434    2.8126   -1.3689 C   0  0  0  0  0  0  0  0  0  0  0  0
   -4.5197    3.6710   -1.1282 C   0  0  0  0  0  0  0  0  0  0  0  0
   -4.7718    4.1342    0.1626 C   0  0  0  0  0  0  0  0  0  0  0  0
   -3.9491    3.7423    1.2169 C   0  0  0  0  0  0  0  0  0  0  0  0
   -2.8729    2.8850    0.9807 C   0  0  0  0  0  0  0  0  0  0  0  0
   -1.1757    0.9016   -1.8766 C   0  0  0  0  0  0  0  0  0  0  0  0
   -0.0595   -0.0764   -1.5050 C   0  0  0  0  0  0  0  0  0  0  0  0
   -0.5391   -1.5170   -1.6140 C   0  0  0  0  0  0  0  0  0  0  0  0
   -1.2789   -2.1378   -0.5932 C   0  0  0  0  0  0  0  0  0  0  0  0
   -1.7240   -3.4543   -0.7306 C   0  0  0  0  0  0  0  0  0  0  0  0
   -1.4443   -4.1689   -1.8936 C   0  0  0  0  0  0  0  0  0  0  0  0
   -0.7202   -3.5613   -2.9158 C   0  0  0  0  0  0  0  0  0  0  0  0
   -0.3433   -4.5246   -4.4986 Br  0  0  0  0  0  0  0  0  0  0  0  0
   -0.2710   -2.2461   -2.7853 C   0  0  0  0  0  0  0  0  0  0  0  0
    2.3773   -0.9406    0.0427 C   0  0  0  0  0  0  0  0  0  0  0  0
    3.4980   -1.3402    0.7817 C   0  0  0  0  0  0  0  0  0  0  0  0
    6.3978    0.3629    3.4794 H   0  0  0  0  0  0  0  0  0  0  0  0
    5.8559    0.4415    1.8802 H   0  0  0  0  0  0  0  0  0  0  0  0
    2.8129    0.3075    3.6867 H   0  0  0  0  0  0  0  0  0  0  0  0
    0.8613    1.0019    2.3720 H   0  0  0  0  0  0  0  0  0  0  0  0
   -3.2719    2.4734   -2.3857 H   0  0  0  0  0  0  0  0  0  0  0  0
   -5.1629    3.9800   -1.9488 H   0  0  0  0  0  0  0  0  0  0  0  0
   -5.6099    4.8020    0.3473 H   0  0  0  0  0  0  0  0  0  0  0  0
   -4.1438    4.1028    2.2239 H   0  0  0  0  0  0  0  0  0  0  0  0
   -2.2384    2.5859    1.8126 H   0  0  0  0  0  0  0  0  0  0  0  0
   -0.8023    1.6890   -2.5401 H   0  0  0  0  0  0  0  0  0  0  0  0
   -2.0581    0.4290   -2.3164 H   0  0  0  0  0  0  0  0  0  0  0  0
    0.7975    0.0822   -2.1721 H   0  0  0  0  0  0  0  0  0  0  0  0
   -1.5045   -1.5990    0.3269 H   0  0  0  0  0  0  0  0  0  0  0  0
   -2.2862   -3.9216    0.0744 H   0  0  0  0  0  0  0  0  0  0  0  0
   -1.7928   -5.1936   -1.9908 H   0  0  0  0  0  0  0  0  0  0  0  0
    0.2911   -1.7885   -3.5962 H   0  0  0  0  0  0  0  0  0  0  0  0
    2.2816   -1.3249   -0.9686 H   0  0  0  0  0  0  0  0  0  0  0  0
    4.2264   -2.0125    0.3325 H   0  0  0  0  0  0  0  0  0  0  0  0
  1  2  1  0
  2  3  2  0
  2  4  2  0
  2  5  1  0
  5  6  2  0
  6  7  1  0
  7  8  2  0
  8  9  1  0
  9 10  1  0
 10 11  2  0
 11 12  1  0
 12 13  2  0
 13 14  1  0
 14 15  2  0
 15 16  1  0
 16 17  2  0
 11 18  1  0
 18 19  1  0
 19 20  1  0
 20 21  2  0
 21 22  1  0
 22 23  2  0
 23 24  1  0
 24 25  1  0
 24 26  2  0
  8 27  1  0
 27 28  2  0
 28  5  1  0
 19  9  1  0
 26 20  1  0
 17 12  1  0
  1 29  1  0
  1 30  1  0
  6 31  1  0
  7 32  1  0
 13 33  1  0
 14 34  1  0
 15 35  1  0
 16 36  1  0
 17 37  1  0
 18 38  1  0
 18 39  1  0
 19 40  1  0
 21 41  1  0
 22 42  1  0
 23 43  1  0
 26 44  1  0
 27 45  1  0
 28 46  1  0
M  END
$$$$
