
     RDKit          3D

 56 60  0  0  0  0  0  0  0  0999 V2000
   -1.5135    1.3618    1.5538 C   0  0  0  0  0  0  0  0  0  0  0  0
   -1.0593    0.2092    1.0407 C   0  0  0  0  0  0  0  0  0  0  0  0
    0.3459   -0.2544    1.0484 C   0  0  0  0  0  0  0  0  0  0  0  0
    1.4126    0.4176    1.5169 C   0  0  0  0  0  0  0  0  0  0  0  0
    2.8062   -0.0096    1.5006 C   0  0  0  0  0  0  0  0  0  0  0  0
    3.2733   -1.1012    2.1178 C   0  0  0  0  0  0  0  0  0  0  0  0
    2.4732   -1.9474    2.8385 O   0  0  0  0  0  0  0  0  0  0  0  0
    4.5798   -1.4401    2.0655 N   0  0  0  0  0  0  0  0  0  0  0  0
    5.5295   -0.7741    1.3400 C   0  0  0  0  0  0  0  0  0  0  0  0
    6.6454   -1.2930    1.3018 O   0  0  0  0  0  0  0  0  0  0  0  0
    5.1206    0.3948    0.6997 N   0  0  0  0  0  0  0  0  0  0  0  0
    6.0745    1.1623   -0.0765 C   0  0  0  0  0  0  0  0  0  0  0  0
    7.4477    1.1704    0.2265 C   0  0  0  0  0  0  0  0  0  0  0  0
    8.3622    1.9076   -0.5383 C   0  0  0  0  0  0  0  0  0  0  0  0
    7.9186    2.6522   -1.6241 C   0  0  0  0  0  0  0  0  0  0  0  0
    9.0397    3.5564   -2.5624 Cl  0  0  0  0  0  0  0  0  0  0  0  0
    6.5686    2.6663   -1.9493 C   0  0  0  0  0  0  0  0  0  0  0  0
    5.6580    1.9274   -1.1826 C   0  0  0  0  0  0  0  0  0  0  0  0
    3.8189    0.8901    0.8533 C   0  0  0  0  0  0  0  0  0  0  0  0
    3.4584    2.0301    0.5469 O   0  0  0  0  0  0  0  0  0  0  0  0
    0.3697   -1.5671    0.4151 C   0  0  0  0  0  0  0  0  0  0  0  0
   -0.8967   -1.8639    0.0628 C   0  0  0  0  0  0  0  0  0  0  0  0
   -1.3162   -3.1022   -0.6552 C   0  0  0  0  0  0  0  0  0  0  0  0
   -1.7876   -0.8247    0.4179 N   0  0  0  0  0  0  0  0  0  0  0  0
   -3.1208   -0.7848    0.1057 C   0  0  0  0  0  0  0  0  0  0  0  0
   -4.2619   -1.8039    0.9042 S   0  0  0  0  0  0  0  0  0  0  0  0
   -5.5643   -1.1681    0.0215 C   0  0  0  0  0  0  0  0  0  0  0  0
   -5.1771   -0.1882   -0.8704 C   0  0  0  0  0  0  0  0  0  0  0  0
   -3.7589    0.0244   -0.8239 C   0  0  0  0  0  0  0  0  0  0  0  0
   -3.0566    0.9528   -1.6630 C   0  0  0  0  0  0  0  0  0  0  0  0
   -2.5296    1.7145   -2.3630 N   0  0  0  0  0  0  0  0  0  0  0  0
   -6.1652    0.4982   -1.7708 C   0  0  0  0  0  0  0  0  0  0  0  0
   -7.6126    0.2858   -1.3002 C   0  0  0  0  0  0  0  0  0  0  0  0
   -7.8750   -1.1767   -0.9143 C   0  0  0  0  0  0  0  0  0  0  0  0
   -6.9721   -1.6292    0.2436 C   0  0  0  0  0  0  0  0  0  0  0  0
   -2.5675    1.6135    1.5285 H   0  0  0  0  0  0  0  0  0  0  0  0
   -0.8606    2.0883    2.0218 H   0  0  0  0  0  0  0  0  0  0  0  0
    1.2817    1.4227    1.9125 H   0  0  0  0  0  0  0  0  0  0  0  0
    3.0366   -2.5718    3.3196 H   0  0  0  0  0  0  0  0  0  0  0  0
    4.9252   -2.2911    2.4873 H   0  0  0  0  0  0  0  0  0  0  0  0
    7.8442    0.6334    1.0846 H   0  0  0  0  0  0  0  0  0  0  0  0
    9.4158    1.8965   -0.2709 H   0  0  0  0  0  0  0  0  0  0  0  0
    6.2102    3.2441   -2.7974 H   0  0  0  0  0  0  0  0  0  0  0  0
    4.6152    1.9504   -1.4927 H   0  0  0  0  0  0  0  0  0  0  0  0
    1.2409   -2.1764    0.2443 H   0  0  0  0  0  0  0  0  0  0  0  0
   -1.8570   -2.8557   -1.5744 H   0  0  0  0  0  0  0  0  0  0  0  0
   -0.4503   -3.7106   -0.9381 H   0  0  0  0  0  0  0  0  0  0  0  0
   -1.9582   -3.7207   -0.0213 H   0  0  0  0  0  0  0  0  0  0  0  0
   -5.9568    1.5730   -1.8206 H   0  0  0  0  0  0  0  0  0  0  0  0
   -6.0507    0.0933   -2.7840 H   0  0  0  0  0  0  0  0  0  0  0  0
   -7.8146    0.9268   -0.4326 H   0  0  0  0  0  0  0  0  0  0  0  0
   -8.3031    0.5938   -2.0934 H   0  0  0  0  0  0  0  0  0  0  0  0
   -7.6981   -1.8152   -1.7895 H   0  0  0  0  0  0  0  0  0  0  0  0
   -8.9254   -1.3071   -0.6306 H   0  0  0  0  0  0  0  0  0  0  0  0
   -7.0206   -2.7201    0.3375 H   0  0  0  0  0  0  0  0  0  0  0  0
   -7.3424   -1.1982    1.1819 H   0  0  0  0  0  0  0  0  0  0  0  0
  1  2  2  0
  2  3  1  0
  3  4  2  3
  4  5  1  0
  5  6  2  0
  6  7  1  0
  6  8  1  0
  8  9  1  0
  9 10  2  0
  9 11  1  0
 11 12  1  0
 12 13  2  0
 13 14  1  0
 14 15  2  0
 15 16  1  0
 15 17  1  0
 17 18  2  0
 11 19  1  0
 19 20  2  0
  3 21  1  0
 21 22  2  0
 22 23  1  0
 22 24  1  0
 24 25  1  0
 25 26  1  0
 26 27  1  0
 27 28  2  0
 28 29  1  0
 29 30  1  0
 30 31  3  0
 28 32  1  0
 32 33  1  0
 33 34  1  0
 34 35  1  0
 24  2  1  0
 29 25  2  0
 19  5  1  0
 35 27  1  0
 18 12  1  0
  1 36  1  0
  1 37  1  0
  4 38  1  0
  7 39  1  0
  8 40  1  0
 13 41  1  0
 14 42  1  0
 17 43  1  0
 18 44  1  0
 21 45  1  0
 23 46  1  0
 23 47  1  0
 23 48  1  0
 32 49  1  0
 32 50  1  0
 33 51  1  0
 33 52  1  0
 34 53  1  0
 34 54  1  0
 35 55  1  0
 35 56  1  0
M  END
$$$$
