
     RDKit          3D

 58 60  0  0  0  0  0  0  0  0999 V2000
   -5.8311    1.2552    3.5262 C   0  0  0  0  0  0  0  0  0  0  0  0
   -6.1208   -0.0041    2.9349 O   0  0  0  0  0  0  0  0  0  0  0  0
   -5.4757   -0.3375    1.7725 C   0  0  0  0  0  0  0  0  0  0  0  0
   -4.4865    0.4477    1.1640 C   0  0  0  0  0  0  0  0  0  0  0  0
   -3.8737    0.0217   -0.0193 C   0  0  0  0  0  0  0  0  0  0  0  0
   -2.8884    0.7062   -0.6906 O   0  0  0  0  0  0  0  0  0  0  0  0
   -2.3192    1.8359   -0.0375 C   0  0  0  0  0  0  0  0  0  0  0  0
   -4.2664   -1.1973   -0.6033 C   0  0  0  0  0  0  0  0  0  0  0  0
   -3.6056   -1.6359   -1.7953 N   0  0  0  0  0  0  0  0  0  0  0  0
   -2.6082   -2.9993   -1.7105 S   0  0  0  0  0  6  0  0  0  0  0  0
   -3.4192   -4.1527   -1.3860 O   0  0  0  0  0  0  0  0  0  0  0  0
   -1.7636   -2.9721   -2.8838 O   0  0  0  0  0  0  0  0  0  0  0  0
   -1.5669   -2.6535   -0.3081 C   0  0  0  0  0  0  0  0  0  0  0  0
   -1.7125   -3.3881    0.8705 C   0  0  0  0  0  0  0  0  0  0  0  0
   -0.9284   -3.0668    1.9810 C   0  0  0  0  0  0  0  0  0  0  0  0
   -0.0117   -2.0101    1.9203 C   0  0  0  0  0  0  0  0  0  0  0  0
    0.9232   -1.6823    3.3335 Cl  0  0  0  0  0  0  0  0  0  0  0  0
    0.1344   -1.2866    0.7316 C   0  0  0  0  0  0  0  0  0  0  0  0
    1.0231   -0.1135    0.6515 C   0  0  0  0  0  0  0  0  0  0  0  0
    0.9975    0.8250    1.4271 O   0  0  0  0  0  0  0  0  0  0  0  0
    1.8204   -0.2509   -0.4288 O   0  0  0  0  0  0  0  0  0  0  0  0
    2.7525    0.8203   -0.6587 C   0  0  0  0  0  0  0  0  0  0  0  0
    2.0492    1.9343   -1.4292 C   0  0  0  0  0  0  0  0  0  0  0  0
    3.9249    0.2833   -1.4983 C   0  0  0  0  0  0  0  0  0  0  0  0
    3.7934   -0.6955   -2.2375 O   0  0  0  0  0  0  0  0  0  0  0  0
    5.1276    0.9577   -1.4095 N   0  0  0  0  0  0  0  0  0  0  0  0
    5.4651    2.0586   -0.5197 C   0  0  0  0  0  0  0  0  0  0  0  0
    6.8310    2.5252   -1.0007 C   0  0  0  0  0  0  0  0  0  0  0  0
    7.4631    1.2402   -1.5185 C   0  0  0  0  0  0  0  0  0  0  0  0
    6.2895    0.5171   -2.1653 C   0  0  0  0  0  0  0  0  0  0  0  0
   -0.6292   -1.6215   -0.3962 C   0  0  0  0  0  0  0  0  0  0  0  0
   -5.2485   -1.9834   -0.0100 C   0  0  0  0  0  0  0  0  0  0  0  0
   -5.8476   -1.5546    1.1747 C   0  0  0  0  0  0  0  0  0  0  0  0
   -7.0587   -2.5676    1.8797 Cl  0  0  0  0  0  0  0  0  0  0  0  0
   -4.7859    1.3117    3.8459 H   0  0  0  0  0  0  0  0  0  0  0  0
   -6.0827    2.0777    2.8479 H   0  0  0  0  0  0  0  0  0  0  0  0
   -6.4561    1.3564    4.4177 H   0  0  0  0  0  0  0  0  0  0  0  0
   -4.1979    1.3916    1.6107 H   0  0  0  0  0  0  0  0  0  0  0  0
   -1.4804    2.1844   -0.6481 H   0  0  0  0  0  0  0  0  0  0  0  0
   -3.0462    2.6516    0.0326 H   0  0  0  0  0  0  0  0  0  0  0  0
   -1.9238    1.5695    0.9503 H   0  0  0  0  0  0  0  0  0  0  0  0
   -3.1549   -0.8880   -2.3269 H   0  0  0  0  0  0  0  0  0  0  0  0
   -2.4333   -4.2014    0.9372 H   0  0  0  0  0  0  0  0  0  0  0  0
   -1.0425   -3.6429    2.8967 H   0  0  0  0  0  0  0  0  0  0  0  0
    3.1423    1.1809    0.3001 H   0  0  0  0  0  0  0  0  0  0  0  0
    1.5472    1.5313   -2.3169 H   0  0  0  0  0  0  0  0  0  0  0  0
    1.2722    2.4018   -0.8150 H   0  0  0  0  0  0  0  0  0  0  0  0
    2.7424    2.7127   -1.7584 H   0  0  0  0  0  0  0  0  0  0  0  0
    4.7151    2.8511   -0.5571 H   0  0  0  0  0  0  0  0  0  0  0  0
    5.5172    1.6610    0.4997 H   0  0  0  0  0  0  0  0  0  0  0  0
    6.7163    3.2389   -1.8250 H   0  0  0  0  0  0  0  0  0  0  0  0
    7.4150    3.0040   -0.2107 H   0  0  0  0  0  0  0  0  0  0  0  0
    7.8482    0.6520   -0.6774 H   0  0  0  0  0  0  0  0  0  0  0  0
    8.2854    1.4190   -2.2163 H   0  0  0  0  0  0  0  0  0  0  0  0
    6.3958   -0.5726   -2.1355 H   0  0  0  0  0  0  0  0  0  0  0  0
    6.1470    0.8338   -3.2047 H   0  0  0  0  0  0  0  0  0  0  0  0
   -0.5186   -1.0590   -1.3213 H   0  0  0  0  0  0  0  0  0  0  0  0
   -5.5548   -2.9205   -0.4680 H   0  0  0  0  0  0  0  0  0  0  0  0
  1  2  1  0
  2  3  1  0
  3  4  2  0
  4  5  1  0
  5  6  1  0
  6  7  1  0
  5  8  2  0
  8  9  1  0
  9 10  1  0
 10 11  2  0
 10 12  2  0
 10 13  1  0
 13 14  2  0
 14 15  1  0
 15 16  2  0
 16 17  1  0
 16 18  1  0
 18 19  1  0
 19 20  2  0
 19 21  1  0
 21 22  1  0
 22 23  1  0
 22 24  1  0
 24 25  2  0
 24 26  1  0
 26 27  1  0
 27 28  1  0
 28 29  1  0
 29 30  1  0
 18 31  2  0
  8 32  1  0
 32 33  2  0
 33 34  1  0
 33  3  1  0
 31 13  1  0
 30 26  1  0
  1 35  1  0
  1 36  1  0
  1 37  1  0
  4 38  1  0
  7 39  1  0
  7 40  1  0
  7 41  1  0
  9 42  1  0
 14 43  1  0
 15 44  1  0
 22 45  1  0
 23 46  1  0
 23 47  1  0
 23 48  1  0
 27 49  1  0
 27 50  1  0
 28 51  1  0
 28 52  1  0
 29 53  1  0
 29 54  1  0
 30 55  1  0
 30 56  1  0
 31 57  1  0
 32 58  1  0
M  END
$$$$
