
     RDKit          3D

 68 71  0  0  0  0  0  0  0  0999 V2000
    5.5217   -2.4476    1.0506 C   0  0  0  0  0  0  0  0  0  0  0  0
    4.9225   -2.9034   -0.1556 O   0  0  0  0  0  0  0  0  0  0  0  0
    4.3413   -1.9448   -0.9440 C   0  0  0  0  0  0  0  0  0  0  0  0
    3.4517   -2.4315   -1.9032 C   0  0  0  0  0  0  0  0  0  0  0  0
    2.7815   -1.5566   -2.7604 C   0  0  0  0  0  0  0  0  0  0  0  0
    3.0044   -0.1791   -2.6718 C   0  0  0  0  0  0  0  0  0  0  0  0
    2.2849    0.7600   -3.5392 C   0  0  0  0  0  0  0  0  0  0  0  0
    0.9502    0.9466   -3.5354 C   0  0  0  0  0  0  0  0  0  0  0  0
    0.3287    1.8292   -4.4607 C   0  0  0  0  0  0  0  0  0  0  0  0
   -0.1353    2.5874   -5.2081 N   0  0  0  0  0  0  0  0  0  0  0  0
    0.0566    0.2195   -2.5903 C   0  0  0  0  0  0  0  0  0  0  0  0
   -0.7929   -0.5505   -3.0197 O   0  0  0  0  0  0  0  0  0  0  0  0
    0.2911    0.5476   -1.2770 N   0  0  0  0  0  0  0  0  0  0  0  0
   -0.2683   -0.0203   -0.1162 C   0  0  0  0  0  0  0  0  0  0  0  0
   -1.1242   -1.1190   -0.1246 C   0  0  0  0  0  0  0  0  0  0  0  0
   -1.6104   -1.6133    1.0873 C   0  0  0  0  0  0  0  0  0  0  0  0
   -2.6902   -3.0320    1.0871 S   0  0  0  0  0  6  0  0  0  0  0  0
   -2.7535   -3.5258    2.4479 O   0  0  0  0  0  0  0  0  0  0  0  0
   -2.2794   -3.8947    0.0008 O   0  0  0  0  0  0  0  0  0  0  0  0
   -4.2016   -2.3624    0.7110 N   0  0  0  0  0  0  0  0  0  0  0  0
   -4.8535   -1.4963    1.7210 C   0  0  0  0  0  0  0  0  0  0  0  0
   -5.2291   -0.1434    1.1259 C   0  0  0  0  0  0  0  0  0  0  0  0
   -6.1642   -0.2844   -0.0744 C   0  0  0  0  0  0  0  0  0  0  0  0
   -5.9172   -1.5719   -0.8598 C   0  0  0  0  0  0  0  0  0  0  0  0
   -4.4779   -2.0492   -0.7090 C   0  0  0  0  0  0  0  0  0  0  0  0
   -1.2208   -1.0427    2.3048 C   0  0  0  0  0  0  0  0  0  0  0  0
   -0.3517    0.0483    2.3105 C   0  0  0  0  0  0  0  0  0  0  0  0
    0.1313    0.5755    1.1062 C   0  0  0  0  0  0  0  0  0  0  0  0
    0.9956    1.7033    1.0597 N   0  0  0  0  0  0  0  0  0  0  0  0
    0.2502    2.9640    1.2618 C   0  0  0  0  0  0  0  0  0  0  0  0
    1.0409    3.9769    2.0918 C   0  0  0  0  0  0  0  0  0  0  0  0
    2.5048    4.0624    1.6726 C   0  0  0  0  0  0  0  0  0  0  0  0
    3.1673    2.6876    1.5502 C   0  0  0  0  0  0  0  0  0  0  0  0
    2.2109    1.5392    1.8716 C   0  0  0  0  0  0  0  0  0  0  0  0
    3.9187    0.3066   -1.7314 C   0  0  0  0  0  0  0  0  0  0  0  0
    4.5783   -0.5700   -0.8627 C   0  0  0  0  0  0  0  0  0  0  0  0
    5.6974   -3.3178    1.6860 H   0  0  0  0  0  0  0  0  0  0  0  0
    6.4840   -1.9656    0.8493 H   0  0  0  0  0  0  0  0  0  0  0  0
    4.8584   -1.7757    1.6093 H   0  0  0  0  0  0  0  0  0  0  0  0
    3.2715   -3.5018   -1.9776 H   0  0  0  0  0  0  0  0  0  0  0  0
    2.0806   -1.9641   -3.4888 H   0  0  0  0  0  0  0  0  0  0  0  0
    2.9170    1.3144   -4.2303 H   0  0  0  0  0  0  0  0  0  0  0  0
    0.9846    1.2588   -1.0509 H   0  0  0  0  0  0  0  0  0  0  0  0
   -1.4013   -1.6128   -1.0521 H   0  0  0  0  0  0  0  0  0  0  0  0
   -4.2070   -1.3271    2.5905 H   0  0  0  0  0  0  0  0  0  0  0  0
   -5.7489   -2.0134    2.0885 H   0  0  0  0  0  0  0  0  0  0  0  0
   -5.6995    0.4860    1.8888 H   0  0  0  0  0  0  0  0  0  0  0  0
   -4.3146    0.3785    0.8121 H   0  0  0  0  0  0  0  0  0  0  0  0
   -6.0319    0.5851   -0.7310 H   0  0  0  0  0  0  0  0  0  0  0  0
   -7.2103   -0.2606    0.2572 H   0  0  0  0  0  0  0  0  0  0  0  0
   -6.5982   -2.3525   -0.4946 H   0  0  0  0  0  0  0  0  0  0  0  0
   -6.1592   -1.4134   -1.9174 H   0  0  0  0  0  0  0  0  0  0  0  0
   -4.3445   -2.9539   -1.3112 H   0  0  0  0  0  0  0  0  0  0  0  0
   -3.7908   -1.2815   -1.0809 H   0  0  0  0  0  0  0  0  0  0  0  0
   -1.5775   -1.4472    3.2488 H   0  0  0  0  0  0  0  0  0  0  0  0
   -0.0643    0.4888    3.2609 H   0  0  0  0  0  0  0  0  0  0  0  0
   -0.7179    2.8066    1.7537 H   0  0  0  0  0  0  0  0  0  0  0  0
    0.0381    3.3917    0.2758 H   0  0  0  0  0  0  0  0  0  0  0  0
    0.9863    3.6932    3.1531 H   0  0  0  0  0  0  0  0  0  0  0  0
    0.5733    4.9632    2.0122 H   0  0  0  0  0  0  0  0  0  0  0  0
    2.5780    4.5858    0.7112 H   0  0  0  0  0  0  0  0  0  0  0  0
    3.0540    4.6764    2.3974 H   0  0  0  0  0  0  0  0  0  0  0  0
    3.5443    2.5717    0.5264 H   0  0  0  0  0  0  0  0  0  0  0  0
    4.0409    2.6348    2.2083 H   0  0  0  0  0  0  0  0  0  0  0  0
    2.7084    0.5915    1.6295 H   0  0  0  0  0  0  0  0  0  0  0  0
    1.9859    1.5286    2.9454 H   0  0  0  0  0  0  0  0  0  0  0  0
    4.1179    1.3733   -1.6510 H   0  0  0  0  0  0  0  0  0  0  0  0
    5.2832   -0.1561   -0.1488 H   0  0  0  0  0  0  0  0  0  0  0  0
  1  2  1  0
  2  3  1  0
  3  4  2  0
  4  5  1  0
  5  6  2  0
  6  7  1  0
  7  8  2  3
  8  9  1  0
  9 10  3  0
  8 11  1  0
 11 12  2  0
 11 13  1  0
 13 14  1  0
 14 15  2  0
 15 16  1  0
 16 17  1  0
 17 18  2  0
 17 19  2  0
 17 20  1  0
 20 21  1  0
 21 22  1  0
 22 23  1  0
 23 24  1  0
 24 25  1  0
 16 26  2  0
 26 27  1  0
 27 28  2  0
 28 29  1  0
 29 30  1  0
 30 31  1  0
 31 32  1  0
 32 33  1  0
 33 34  1  0
  6 35  1  0
 35 36  2  0
 36  3  1  0
 28 14  1  0
 34 29  1  0
 25 20  1  0
  1 37  1  0
  1 38  1  0
  1 39  1  0
  4 40  1  0
  5 41  1  0
  7 42  1  0
 13 43  1  0
 15 44  1  0
 21 45  1  0
 21 46  1  0
 22 47  1  0
 22 48  1  0
 23 49  1  0
 23 50  1  0
 24 51  1  0
 24 52  1  0
 25 53  1  0
 25 54  1  0
 26 55  1  0
 27 56  1  0
 30 57  1  0
 30 58  1  0
 31 59  1  0
 31 60  1  0
 32 61  1  0
 32 62  1  0
 33 63  1  0
 33 64  1  0
 34 65  1  0
 34 66  1  0
 35 67  1  0
 36 68  1  0
M  END
$$$$
