
     RDKit          3D

 39 41  0  0  0  0  0  0  0  0999 V2000
   -0.6139    5.5026   -1.5620 C   0  0  0  0  0  0  0  0  0  0  0  0
   -0.2634    4.1250   -1.0268 C   0  0  0  0  0  0  0  0  0  0  0  0
   -1.5924    2.9474   -1.4379 S   0  0  0  0  0  0  0  0  0  0  0  0
   -0.9290    1.4417   -0.7363 C   0  0  0  0  0  0  0  0  0  0  0  0
   -1.6319    0.2684   -0.9131 C   0  0  0  0  0  0  0  0  0  0  0  0
   -1.1058   -0.8808   -0.3604 C   0  0  0  0  0  0  0  0  0  0  0  0
   -1.7458   -2.0962   -0.4712 N   0  0  0  0  0  0  0  0  0  0  0  0
   -1.0972   -3.2884    0.0679 C   0  0  0  0  0  0  0  0  0  0  0  0
   -2.0319   -4.4118   -0.3677 C   0  0  0  0  0  0  0  0  0  0  0  0
   -2.4898   -3.9449   -1.7400 C   0  0  0  0  0  0  0  0  0  0  0  0
   -2.6374   -2.4310   -1.5776 C   0  0  0  0  0  0  0  0  0  0  0  0
    0.0379   -0.8287    0.3424 N   0  0  0  0  0  0  0  0  0  0  0  0
    0.6711    0.3501    0.4487 C   0  0  0  0  0  0  0  0  0  0  0  0
    1.9052    0.4000    1.2404 C   0  0  0  0  0  0  0  0  0  0  0  0
    2.0469    1.4001    2.2279 C   0  0  0  0  0  0  0  0  0  0  0  0
    3.1912    1.4894    3.0249 C   0  0  0  0  0  0  0  0  0  0  0  0
    4.2284    0.5810    2.8501 C   0  0  0  0  0  0  0  0  0  0  0  0
    4.1220   -0.4087    1.8747 C   0  0  0  0  0  0  0  0  0  0  0  0
    2.9741   -0.4995    1.0731 C   0  0  0  0  0  0  0  0  0  0  0  0
    2.9846   -1.7276   -0.1500 Cl  0  0  0  0  0  0  0  0  0  0  0  0
    0.2227    1.5087   -0.0558 N   0  0  0  0  0  0  0  0  0  0  0  0
    0.1838    6.2113   -1.3155 H   0  0  0  0  0  0  0  0  0  0  0  0
   -1.5414    5.8822   -1.1198 H   0  0  0  0  0  0  0  0  0  0  0  0
   -0.7241    5.4950   -2.6518 H   0  0  0  0  0  0  0  0  0  0  0  0
   -0.1397    4.1768    0.0597 H   0  0  0  0  0  0  0  0  0  0  0  0
    0.6778    3.7887   -1.4735 H   0  0  0  0  0  0  0  0  0  0  0  0
   -2.5689    0.2604   -1.4523 H   0  0  0  0  0  0  0  0  0  0  0  0
   -0.1056   -3.4325   -0.3790 H   0  0  0  0  0  0  0  0  0  0  0  0
   -1.0038   -3.2542    1.1585 H   0  0  0  0  0  0  0  0  0  0  0  0
   -2.8902   -4.4770    0.3119 H   0  0  0  0  0  0  0  0  0  0  0  0
   -1.5354   -5.3856   -0.3930 H   0  0  0  0  0  0  0  0  0  0  0  0
   -1.7154   -4.1653   -2.4849 H   0  0  0  0  0  0  0  0  0  0  0  0
   -3.4183   -4.4227   -2.0650 H   0  0  0  0  0  0  0  0  0  0  0  0
   -2.3718   -1.9294   -2.5149 H   0  0  0  0  0  0  0  0  0  0  0  0
   -3.6674   -2.1690   -1.3118 H   0  0  0  0  0  0  0  0  0  0  0  0
    1.2428    2.1195    2.3830 H   0  0  0  0  0  0  0  0  0  0  0  0
    3.2674    2.2677    3.7803 H   0  0  0  0  0  0  0  0  0  0  0  0
    5.1214    0.6452    3.4666 H   0  0  0  0  0  0  0  0  0  0  0  0
    4.9432   -1.1078    1.7346 H   0  0  0  0  0  0  0  0  0  0  0  0
  1  2  1  0
  2  3  1  0
  3  4  1  0
  4  5  2  0
  5  6  1  0
  6  7  1  0
  7  8  1  0
  8  9  1  0
  9 10  1  0
 10 11  1  0
  6 12  2  0
 12 13  1  0
 13 14  1  0
 14 15  2  0
 15 16  1  0
 16 17  2  0
 17 18  1  0
 18 19  2  0
 19 20  1  0
 13 21  2  0
 21  4  1  0
 11  7  1  0
 19 14  1  0
  1 22  1  0
  1 23  1  0
  1 24  1  0
  2 25  1  0
  2 26  1  0
  5 27  1  0
  8 28  1  0
  8 29  1  0
  9 30  1  0
  9 31  1  0
 10 32  1  0
 10 33  1  0
 11 34  1  0
 11 35  1  0
 15 36  1  0
 16 37  1  0
 17 38  1  0
 18 39  1  0
M  END
$$$$
