
     RDKit          3D

 23 24  0  0  0  0  0  0  0  0999 V2000
   -5.0647    0.3120    0.2740 C   0  0  0  0  0  0  0  0  0  0  0  0
   -4.3476    1.2539   -1.0895 S   0  0  0  0  0  0  0  0  0  0  0  0
   -2.6617    0.7987   -0.9515 C   0  0  0  0  0  0  0  0  0  0  0  0
   -2.2336   -0.0136   -0.0138 N   0  0  0  0  0  0  0  0  0  0  0  0
   -0.8682   -0.1971   -0.1422 C   0  0  0  0  0  0  0  0  0  0  0  0
   -0.0641   -1.0087    0.6854 C   0  0  0  0  0  0  0  0  0  0  0  0
    1.3108   -1.1053    0.4450 C   0  0  0  0  0  0  0  0  0  0  0  0
    1.8839   -0.3923   -0.6075 C   0  0  0  0  0  0  0  0  0  0  0  0
    3.6212   -0.5445   -0.9199 S   0  0  0  0  0  6  0  0  0  0  0  0
    4.2396    0.7511   -0.0512 N   0  0  0  0  0  0  0  0  0  0  0  0
    3.8771   -0.2538   -2.3107 O   0  0  0  0  0  0  0  0  0  0  0  0
    4.1181   -1.7342   -0.2701 O   0  0  0  0  0  0  0  0  0  0  0  0
    1.1111    0.4119   -1.4560 C   0  0  0  0  0  0  0  0  0  0  0  0
   -0.2668    0.4953   -1.1963 C   0  0  0  0  0  0  0  0  0  0  0  0
   -1.4756    1.3910   -2.0340 S   0  0  0  0  0  0  0  0  0  0  0  0
   -4.9070   -0.7605    0.1294 H   0  0  0  0  0  0  0  0  0  0  0  0
   -6.1414    0.4989    0.3109 H   0  0  0  0  0  0  0  0  0  0  0  0
   -4.6298    0.6202    1.2289 H   0  0  0  0  0  0  0  0  0  0  0  0
   -0.5221   -1.5565    1.5039 H   0  0  0  0  0  0  0  0  0  0  0  0
    1.9203   -1.7396    1.0860 H   0  0  0  0  0  0  0  0  0  0  0  0
    4.8506    0.4103    0.6920 H   0  0  0  0  0  0  0  0  0  0  0  0
    4.6948    1.4087   -0.6853 H   0  0  0  0  0  0  0  0  0  0  0  0
    1.5553    0.9541   -2.2862 H   0  0  0  0  0  0  0  0  0  0  0  0
  1  2  1  0
  2  3  1  0
  3  4  2  0
  4  5  1  0
  5  6  2  0
  6  7  1  0
  7  8  2  0
  8  9  1  0
  9 10  1  0
  9 11  2  0
  9 12  2  0
  8 13  1  0
 13 14  2  0
 14 15  1  0
 15  3  1  0
 14  5  1  0
  1 16  1  0
  1 17  1  0
  1 18  1  0
  6 19  1  0
  7 20  1  0
 10 21  1  0
 10 22  1  0
 13 23  1  0
M  END
$$$$
