
     RDKit          3D

 57 60  0  0  0  0  0  0  0  0999 V2000
    2.8646    0.1611    2.9735 O   0  0  0  0  0  0  0  0  0  0  0  0
    3.0936    0.9915    1.8124 S   0  0  0  0  0  6  0  0  0  0  0  0
    3.0055    2.4330    1.8737 O   0  0  0  0  0  0  0  0  0  0  0  0
    4.6035    0.5745    1.2189 N   0  0  0  0  0  0  0  0  0  0  0  0
    5.2604    1.4358    0.2282 C   0  0  0  0  0  0  0  0  0  0  0  0
    6.1089    2.5021    0.9333 C   0  0  0  0  0  0  0  0  0  0  0  0
    7.5674    2.1684    0.6234 C   0  0  0  0  0  0  0  0  0  0  0  0
    7.5550    0.7116    0.1953 C   0  0  0  0  0  0  0  0  0  0  0  0
    6.2515    0.5959   -0.5792 C   0  0  0  0  0  0  0  0  0  0  0  0
    2.0194    0.4076    0.5238 C   0  0  0  0  0  0  0  0  0  0  0  0
    1.8182   -0.9694    0.3761 C   0  0  0  0  0  0  0  0  0  0  0  0
    0.9696   -1.4371   -0.6282 C   0  0  0  0  0  0  0  0  0  0  0  0
    0.3096   -0.5225   -1.4578 C   0  0  0  0  0  0  0  0  0  0  0  0
   -0.7460   -1.1218   -2.7660 S   0  0  0  0  0  6  0  0  0  0  0  0
   -0.3124   -2.4655   -3.0851 O   0  0  0  0  0  0  0  0  0  0  0  0
   -0.7982   -0.0903   -3.7803 O   0  0  0  0  0  0  0  0  0  0  0  0
   -2.2658   -1.2186   -2.0363 N   0  0  0  0  0  0  0  0  0  0  0  0
   -2.9690    0.0547   -1.6928 C   0  0  0  0  0  0  0  0  0  0  0  0
   -3.2874    0.1464   -0.1910 C   0  0  0  0  0  0  0  0  0  0  0  0
   -4.1295   -0.9790    0.2631 N   0  0  0  0  0  0  0  0  0  0  0  0
   -5.4848   -0.7577    0.5502 C   0  0  0  0  0  0  0  0  0  0  0  0
   -6.1517   -1.6347    1.4233 C   0  0  0  0  0  0  0  0  0  0  0  0
   -7.5023   -1.4675    1.7438 C   0  0  0  0  0  0  0  0  0  0  0  0
   -8.2207   -0.4136    1.1915 C   0  0  0  0  0  0  0  0  0  0  0  0
   -7.5860    0.4681    0.3225 C   0  0  0  0  0  0  0  0  0  0  0  0
   -6.2325    0.2965    0.0073 C   0  0  0  0  0  0  0  0  0  0  0  0
   -3.9019   -2.2618   -0.4526 C   0  0  0  0  0  0  0  0  0  0  0  0
   -2.4901   -2.3293   -1.0645 C   0  0  0  0  0  0  0  0  0  0  0  0
    0.5257    0.8543   -1.3189 C   0  0  0  0  0  0  0  0  0  0  0  0
    1.3751    1.3226   -0.3153 C   0  0  0  0  0  0  0  0  0  0  0  0
    5.1738    0.0518    1.8824 H   0  0  0  0  0  0  0  0  0  0  0  0
    4.5151    1.8796   -0.4394 H   0  0  0  0  0  0  0  0  0  0  0  0
    5.8677    3.5031    0.5587 H   0  0  0  0  0  0  0  0  0  0  0  0
    5.9427    2.5141    2.0167 H   0  0  0  0  0  0  0  0  0  0  0  0
    7.9226    2.7971   -0.2022 H   0  0  0  0  0  0  0  0  0  0  0  0
    8.2244    2.3437    1.4809 H   0  0  0  0  0  0  0  0  0  0  0  0
    7.5408    0.0552    1.0730 H   0  0  0  0  0  0  0  0  0  0  0  0
    8.4254    0.4508   -0.4133 H   0  0  0  0  0  0  0  0  0  0  0  0
    5.9403   -0.4457   -0.7076 H   0  0  0  0  0  0  0  0  0  0  0  0
    6.3806    1.0360   -1.5758 H   0  0  0  0  0  0  0  0  0  0  0  0
    2.3242   -1.6749    1.0324 H   0  0  0  0  0  0  0  0  0  0  0  0
    0.8302   -2.5085   -0.7591 H   0  0  0  0  0  0  0  0  0  0  0  0
   -2.3783    0.9270   -1.9860 H   0  0  0  0  0  0  0  0  0  0  0  0
   -3.8941    0.0874   -2.2807 H   0  0  0  0  0  0  0  0  0  0  0  0
   -3.7188    1.1227    0.0551 H   0  0  0  0  0  0  0  0  0  0  0  0
   -2.3470    0.0971    0.3728 H   0  0  0  0  0  0  0  0  0  0  0  0
   -5.6056   -2.4521    1.8877 H   0  0  0  0  0  0  0  0  0  0  0  0
   -7.9853   -2.1576    2.4299 H   0  0  0  0  0  0  0  0  0  0  0  0
   -9.2700   -0.2785    1.4383 H   0  0  0  0  0  0  0  0  0  0  0  0
   -8.1429    1.2914   -0.1171 H   0  0  0  0  0  0  0  0  0  0  0  0
   -5.7900    0.9961   -0.6942 H   0  0  0  0  0  0  0  0  0  0  0  0
   -4.0219   -3.1028    0.2397 H   0  0  0  0  0  0  0  0  0  0  0  0
   -4.6383   -2.3776   -1.2598 H   0  0  0  0  0  0  0  0  0  0  0  0
   -1.7486   -2.2807   -0.2609 H   0  0  0  0  0  0  0  0  0  0  0  0
   -2.3794   -3.2868   -1.5842 H   0  0  0  0  0  0  0  0  0  0  0  0
    0.0458    1.5641   -1.9899 H   0  0  0  0  0  0  0  0  0  0  0  0
    1.5363    2.3929   -0.2002 H   0  0  0  0  0  0  0  0  0  0  0  0
  1  2  2  0
  2  3  2  0
  2  4  1  0
  4  5  1  0
  5  6  1  0
  6  7  1  0
  7  8  1  0
  8  9  1  0
  2 10  1  0
 10 11  2  0
 11 12  1  0
 12 13  2  0
 13 14  1  0
 14 15  2  0
 14 16  2  0
 14 17  1  0
 17 18  1  0
 18 19  1  0
 19 20  1  0
 20 21  1  0
 21 22  2  0
 22 23  1  0
 23 24  2  0
 24 25  1  0
 25 26  2  0
 20 27  1  0
 27 28  1  0
 13 29  1  0
 29 30  2  0
  9  5  1  0
 30 10  1  0
 28 17  1  0
 26 21  1  0
  4 31  1  0
  5 32  1  0
  6 33  1  0
  6 34  1  0
  7 35  1  0
  7 36  1  0
  8 37  1  0
  8 38  1  0
  9 39  1  0
  9 40  1  0
 11 41  1  0
 12 42  1  0
 18 43  1  0
 18 44  1  0
 19 45  1  0
 19 46  1  0
 22 47  1  0
 23 48  1  0
 24 49  1  0
 25 50  1  0
 26 51  1  0
 27 52  1  0
 27 53  1  0
 28 54  1  0
 28 55  1  0
 29 56  1  0
 30 57  1  0
M  END
$$$$
