
     RDKit          3D

 46 48  0  0  0  0  0  0  0  0999 V2000
   -3.2793    3.5527   -0.3364 C   0  0  0  0  0  0  0  0  0  0  0  0
   -1.9347    4.1729   -0.6689 C   0  0  0  0  0  0  0  0  0  0  0  0
   -0.9003    3.1866   -0.5567 O   0  0  0  0  0  0  0  0  0  0  0  0
   -0.6895    2.4452   -1.6638 C   0  0  0  0  0  0  0  0  0  0  0  0
   -1.2383    2.5295   -2.7459 O   0  0  0  0  0  0  0  0  0  0  0  0
    0.3728    1.4210   -1.3646 C   0  0  0  0  0  0  0  0  0  0  0  0
    1.4598    1.2997   -2.0687 N   0  0  0  0  0  0  0  0  0  0  0  0
    2.1898    0.3103   -1.4734 N   0  0  0  0  0  0  0  0  0  0  0  0
    1.4388   -0.3974   -0.4337 C   0  0  0  0  0  0  0  0  0  0  0  0
    2.2317   -0.5939    0.8615 C   0  0  0  0  0  0  0  0  0  0  0  0
    1.6892   -0.6325    1.9671 O   0  0  0  0  0  0  0  0  0  0  0  0
    3.6900   -0.8652    0.7953 C   0  0  0  0  0  0  0  0  0  0  0  0
    4.2332   -1.7099   -0.1793 C   0  0  0  0  0  0  0  0  0  0  0  0
    5.6082   -1.9519   -0.1984 C   0  0  0  0  0  0  0  0  0  0  0  0
    6.4356   -1.3635    0.7588 C   0  0  0  0  0  0  0  0  0  0  0  0
    5.8916   -0.5397    1.7444 C   0  0  0  0  0  0  0  0  0  0  0  0
    4.5183   -0.2949    1.7684 C   0  0  0  0  0  0  0  0  0  0  0  0
    0.2025    0.4834   -0.2074 C   0  0  0  0  0  0  0  0  0  0  0  0
   -1.0940   -0.2961   -0.1992 C   0  0  0  0  0  0  0  0  0  0  0  0
   -1.6819   -0.7875   -1.3724 C   0  0  0  0  0  0  0  0  0  0  0  0
   -2.8754   -1.5119   -1.3150 C   0  0  0  0  0  0  0  0  0  0  0  0
   -3.4980   -1.7707   -0.0930 C   0  0  0  0  0  0  0  0  0  0  0  0
   -4.6571   -2.4905   -0.1818 O   0  0  0  0  0  0  0  0  0  0  0  0
   -5.3366   -2.7664    1.0365 C   0  0  0  0  0  0  0  0  0  0  0  0
   -2.9110   -1.3001    1.0798 C   0  0  0  0  0  0  0  0  0  0  0  0
   -1.7171   -0.5718    1.0264 C   0  0  0  0  0  0  0  0  0  0  0  0
   -4.0710    4.3066   -0.3590 H   0  0  0  0  0  0  0  0  0  0  0  0
   -3.2561    3.0935    0.6576 H   0  0  0  0  0  0  0  0  0  0  0  0
   -3.5320    2.7588   -1.0467 H   0  0  0  0  0  0  0  0  0  0  0  0
   -1.7046    4.9634    0.0530 H   0  0  0  0  0  0  0  0  0  0  0  0
   -1.9413    4.6348   -1.6629 H   0  0  0  0  0  0  0  0  0  0  0  0
    2.8944   -0.1342   -2.0624 H   0  0  0  0  0  0  0  0  0  0  0  0
    1.1844   -1.3870   -0.8314 H   0  0  0  0  0  0  0  0  0  0  0  0
    3.6030   -2.2017   -0.9148 H   0  0  0  0  0  0  0  0  0  0  0  0
    6.0363   -2.6067   -0.9540 H   0  0  0  0  0  0  0  0  0  0  0  0
    7.5061   -1.5551    0.7430 H   0  0  0  0  0  0  0  0  0  0  0  0
    6.5364   -0.0917    2.4966 H   0  0  0  0  0  0  0  0  0  0  0  0
    4.0966    0.3402    2.5447 H   0  0  0  0  0  0  0  0  0  0  0  0
    0.2846    1.0910    0.7030 H   0  0  0  0  0  0  0  0  0  0  0  0
   -1.2283   -0.6166   -2.3476 H   0  0  0  0  0  0  0  0  0  0  0  0
   -3.3248   -1.8798   -2.2348 H   0  0  0  0  0  0  0  0  0  0  0  0
   -6.2399   -3.3347    0.7943 H   0  0  0  0  0  0  0  0  0  0  0  0
   -5.6485   -1.8417    1.5334 H   0  0  0  0  0  0  0  0  0  0  0  0
   -4.7223   -3.3847    1.6997 H   0  0  0  0  0  0  0  0  0  0  0  0
   -3.3503   -1.4844    2.0545 H   0  0  0  0  0  0  0  0  0  0  0  0
   -1.2712   -0.2273    1.9595 H   0  0  0  0  0  0  0  0  0  0  0  0
  1  2  1  0
  2  3  1  0
  3  4  1  0
  4  5  2  0
  4  6  1  0
  6  7  2  0
  7  8  1  0
  8  9  1  0
  9 10  1  0
 10 11  2  0
 10 12  1  0
 12 13  2  0
 13 14  1  0
 14 15  2  0
 15 16  1  0
 16 17  2  0
  9 18  1  0
 18 19  1  0
 19 20  2  0
 20 21  1  0
 21 22  2  0
 22 23  1  0
 23 24  1  0
 22 25  1  0
 25 26  2  0
 18  6  1  0
 26 19  1  0
 17 12  1  0
  1 27  1  0
  1 28  1  0
  1 29  1  0
  2 30  1  0
  2 31  1  0
  8 32  1  0
  9 33  1  0
 13 34  1  0
 14 35  1  0
 15 36  1  0
 16 37  1  0
 17 38  1  0
 18 39  1  0
 20 40  1  0
 21 41  1  0
 24 42  1  0
 24 43  1  0
 24 44  1  0
 25 45  1  0
 26 46  1  0
M  END
$$$$
