
     RDKit          3D

 38 40  0  0  0  0  0  0  0  0999 V2000
    2.9944    0.1563    3.0679 N   0  0  0  0  0  0  0  0  0  0  0  0
    2.2276   -0.2127    2.2781 C   0  0  0  0  0  0  0  0  0  0  0  0
    1.3097   -0.6402    1.2800 C   0  0  0  0  0  0  0  0  0  0  0  0
    1.5967   -0.7353   -0.0332 C   0  0  0  0  0  0  0  0  0  0  0  0
    2.8730   -0.3755   -0.6651 C   0  0  0  0  0  0  0  0  0  0  0  0
    4.0862   -0.9667   -0.2754 C   0  0  0  0  0  0  0  0  0  0  0  0
    5.2868   -0.6152   -0.9034 C   0  0  0  0  0  0  0  0  0  0  0  0
    5.2655    0.3186   -1.9305 C   0  0  0  0  0  0  0  0  0  0  0  0
    6.4028    0.7051   -2.5824 O   0  0  0  0  0  0  0  0  0  0  0  0
    4.0627    0.8920   -2.3320 C   0  0  0  0  0  0  0  0  0  0  0  0
    4.0471    1.8045   -3.3480 O   0  0  0  0  0  0  0  0  0  0  0  0
    2.8670    0.5519   -1.7136 C   0  0  0  0  0  0  0  0  0  0  0  0
   -0.0466   -1.0608    1.7358 C   0  0  0  0  0  0  0  0  0  0  0  0
   -0.1490   -1.9057    2.6152 O   0  0  0  0  0  0  0  0  0  0  0  0
   -1.0693   -0.3861    1.0901 N   0  0  0  0  0  0  0  0  0  0  0  0
   -2.4715   -0.5591    1.2538 C   0  0  0  0  0  0  0  0  0  0  0  0
   -2.9890   -1.5459    2.0996 C   0  0  0  0  0  0  0  0  0  0  0  0
   -4.3626   -1.7096    2.2404 C   0  0  0  0  0  0  0  0  0  0  0  0
   -5.2336   -0.8881    1.5331 C   0  0  0  0  0  0  0  0  0  0  0  0
   -4.7716    0.1008    0.6832 C   0  0  0  0  0  0  0  0  0  0  0  0
   -5.6955    0.8396    0.0448 N   0  0  0  0  0  0  0  0  0  0  0  0
   -5.2786    1.8128   -0.7873 C   0  0  0  0  0  0  0  0  0  0  0  0
   -3.9517    2.0931   -1.0214 C   0  0  0  0  0  0  0  0  0  0  0  0
   -2.9970    1.3254   -0.3603 C   0  0  0  0  0  0  0  0  0  0  0  0
   -3.3753    0.2859    0.5273 C   0  0  0  0  0  0  0  0  0  0  0  0
    0.8471   -1.1010   -0.7345 H   0  0  0  0  0  0  0  0  0  0  0  0
    4.1136   -1.7097    0.5200 H   0  0  0  0  0  0  0  0  0  0  0  0
    6.2124   -1.0797   -0.5780 H   0  0  0  0  0  0  0  0  0  0  0  0
    7.1576    0.2461   -2.1742 H   0  0  0  0  0  0  0  0  0  0  0  0
    4.9841    1.8857   -3.6188 H   0  0  0  0  0  0  0  0  0  0  0  0
    1.9473    1.0188   -2.0537 H   0  0  0  0  0  0  0  0  0  0  0  0
   -0.7865    0.3413    0.4506 H   0  0  0  0  0  0  0  0  0  0  0  0
   -2.3518   -2.2152    2.6685 H   0  0  0  0  0  0  0  0  0  0  0  0
   -4.7548   -2.4785    2.9013 H   0  0  0  0  0  0  0  0  0  0  0  0
   -6.3068   -1.0238    1.6490 H   0  0  0  0  0  0  0  0  0  0  0  0
   -6.0688    2.3776   -1.2734 H   0  0  0  0  0  0  0  0  0  0  0  0
   -3.6641    2.8891   -1.6991 H   0  0  0  0  0  0  0  0  0  0  0  0
   -1.9576    1.5644   -0.5544 H   0  0  0  0  0  0  0  0  0  0  0  0
  1  2  3  0
  2  3  1  0
  3  4  2  3
  4  5  1  0
  5  6  2  0
  6  7  1  0
  7  8  2  0
  8  9  1  0
  8 10  1  0
 10 11  1  0
 10 12  2  0
  3 13  1  0
 13 14  2  0
 13 15  1  0
 15 16  1  0
 16 17  2  0
 17 18  1  0
 18 19  2  0
 19 20  1  0
 20 21  2  0
 21 22  1  0
 22 23  2  0
 23 24  1  0
 24 25  2  0
 12  5  1  0
 25 16  1  0
 25 20  1  0
  4 26  1  0
  6 27  1  0
  7 28  1  0
  9 29  1  0
 11 30  1  0
 12 31  1  0
 15 32  1  0
 17 33  1  0
 18 34  1  0
 19 35  1  0
 22 36  1  0
 23 37  1  0
 24 38  1  0
M  END
$$$$
