
     RDKit          3D

 49 52  0  0  0  0  0  0  0  0999 V2000
   -5.6460    2.3194   -2.1555 C   0  0  0  0  0  0  0  0  0  0  0  0
   -6.0533    1.4869   -0.9522 C   0  0  0  0  0  0  0  0  0  0  0  0
   -5.0741    1.5719    0.0817 O   0  0  0  0  0  0  0  0  0  0  0  0
   -4.0196    0.7043    0.0700 C   0  0  0  0  0  0  0  0  0  0  0  0
   -3.7481   -0.2596   -0.8990 C   0  0  0  0  0  0  0  0  0  0  0  0
   -2.6238   -1.0868   -0.7779 C   0  0  0  0  0  0  0  0  0  0  0  0
   -1.7633   -0.9669    0.3207 C   0  0  0  0  0  0  0  0  0  0  0  0
   -0.5990   -1.8365    0.4477 C   0  0  0  0  0  0  0  0  0  0  0  0
    0.7538   -1.5078    0.3942 C   0  0  0  0  0  0  0  0  0  0  0  0
    1.3924   -0.1944    0.3130 C   0  0  0  0  0  0  0  0  0  0  0  0
    0.7672    0.8596    0.3684 O   0  0  0  0  0  0  0  0  0  0  0  0
    2.7713   -0.2954    0.1809 N   0  0  0  0  0  0  0  0  0  0  0  0
    3.5509    0.8197    0.0999 N   0  0  0  0  0  0  0  0  0  0  0  0
    4.8207    0.5996   -0.0263 C   0  0  0  0  0  0  0  0  0  0  0  0
    5.7952    1.7037   -0.1270 C   0  0  0  0  0  0  0  0  0  0  0  0
    7.1527    1.3962   -0.2585 C   0  0  0  0  0  0  0  0  0  0  0  0
    8.0891    2.4273   -0.3550 C   0  0  0  0  0  0  0  0  0  0  0  0
    7.6698    3.7581   -0.3203 C   0  0  0  0  0  0  0  0  0  0  0  0
    6.3145    4.0628   -0.1892 C   0  0  0  0  0  0  0  0  0  0  0  0
    5.3742    3.0364   -0.0922 C   0  0  0  0  0  0  0  0  0  0  0  0
    1.5003   -2.6537    0.3738 N   0  0  0  0  0  0  0  0  0  0  0  0
    0.6783   -3.6827    0.3937 N   0  0  0  0  0  0  0  0  0  0  0  0
   -0.6100   -3.2378    0.5266 N   0  0  0  0  0  0  0  0  0  0  0  0
   -1.6764   -4.1655    0.7100 C   0  0  0  0  0  0  0  0  0  0  0  0
   -1.4175   -5.4498    0.4301 N   0  0  0  0  0  0  0  0  0  0  0  0
   -2.6158   -6.1113    0.6425 O   0  0  0  0  0  0  0  0  0  0  0  0
   -3.5921   -5.2376    1.0877 N   0  0  0  0  0  0  0  0  0  0  0  0
   -3.0066   -4.0416    1.1608 C   0  0  0  0  0  0  0  0  0  0  0  0
   -3.6569   -2.9715    1.6508 N   0  0  0  0  0  0  0  0  0  0  0  0
   -2.0239    0.0200    1.2769 C   0  0  0  0  0  0  0  0  0  0  0  0
   -3.1461    0.8433    1.1510 C   0  0  0  0  0  0  0  0  0  0  0  0
   -6.4343    2.3135   -2.9138 H   0  0  0  0  0  0  0  0  0  0  0  0
   -5.4530    3.3552   -1.8569 H   0  0  0  0  0  0  0  0  0  0  0  0
   -4.7243    1.9440   -2.6097 H   0  0  0  0  0  0  0  0  0  0  0  0
   -6.9760    1.9094   -0.5380 H   0  0  0  0  0  0  0  0  0  0  0  0
   -6.2929    0.4520   -1.2194 H   0  0  0  0  0  0  0  0  0  0  0  0
   -4.3809   -0.3929   -1.7696 H   0  0  0  0  0  0  0  0  0  0  0  0
   -2.4330   -1.8215   -1.5575 H   0  0  0  0  0  0  0  0  0  0  0  0
    3.1919   -1.2199    0.1444 H   0  0  0  0  0  0  0  0  0  0  0  0
    5.2302   -0.4262   -0.0640 H   0  0  0  0  0  0  0  0  0  0  0  0
    7.4930    0.3648   -0.2870 H   0  0  0  0  0  0  0  0  0  0  0  0
    9.1464    2.1954   -0.4575 H   0  0  0  0  0  0  0  0  0  0  0  0
    8.4002    4.5602   -0.3958 H   0  0  0  0  0  0  0  0  0  0  0  0
    5.9885    5.0997   -0.1625 H   0  0  0  0  0  0  0  0  0  0  0  0
    4.3186    3.2803    0.0094 H   0  0  0  0  0  0  0  0  0  0  0  0
   -4.5662   -3.1350    2.0743 H   0  0  0  0  0  0  0  0  0  0  0  0
   -3.1807   -2.1768    2.0608 H   0  0  0  0  0  0  0  0  0  0  0  0
   -1.3519    0.1748    2.1186 H   0  0  0  0  0  0  0  0  0  0  0  0
   -3.3330    1.6127    1.8970 H   0  0  0  0  0  0  0  0  0  0  0  0
  1  2  1  0
  2  3  1  0
  3  4  1  0
  4  5  2  0
  5  6  1  0
  6  7  2  0
  7  8  1  0
  8  9  2  0
  9 10  1  0
 10 11  2  0
 10 12  1  0
 12 13  1  0
 13 14  2  3
 14 15  1  0
 15 16  2  0
 16 17  1  0
 17 18  2  0
 18 19  1  0
 19 20  2  0
  9 21  1  0
 21 22  2  0
 22 23  1  0
 23 24  1  0
 24 25  2  0
 25 26  1  0
 26 27  1  0
 27 28  2  0
 28 29  1  0
  7 30  1  0
 30 31  2  0
 31  4  1  0
 23  8  1  0
 28 24  1  0
 20 15  1  0
  1 32  1  0
  1 33  1  0
  1 34  1  0
  2 35  1  0
  2 36  1  0
  5 37  1  0
  6 38  1  0
 12 39  1  0
 14 40  1  0
 16 41  1  0
 17 42  1  0
 18 43  1  0
 19 44  1  0
 20 45  1  0
 29 46  1  0
 29 47  1  0
 30 48  1  0
 31 49  1  0
M  END
$$$$
