
     RDKit          3D

 63 67  0  0  0  0  0  0  0  0999 V2000
   -2.5950    6.3241    0.7937 C   0  0  0  0  0  0  0  0  0  0  0  0
   -2.7449    5.3004    1.7731 O   0  0  0  0  0  0  0  0  0  0  0  0
   -2.9551    4.0307    1.3096 C   0  0  0  0  0  0  0  0  0  0  0  0
   -2.9603    3.6377   -0.0291 C   0  0  0  0  0  0  0  0  0  0  0  0
   -3.1796    2.2973   -0.3672 C   0  0  0  0  0  0  0  0  0  0  0  0
   -3.4001    1.3361    0.6270 C   0  0  0  0  0  0  0  0  0  0  0  0
   -3.6066   -0.0685    0.2606 C   0  0  0  0  0  0  0  0  0  0  0  0
   -5.1517   -0.7564    0.5115 S   0  0  0  0  0  0  0  0  0  0  0  0
   -4.6845   -2.2721   -0.1483 C   0  0  0  0  0  0  0  0  0  0  0  0
   -5.4918   -3.4183   -0.2912 C   0  0  0  0  0  0  0  0  0  0  0  0
   -4.9523   -4.5793   -0.8529 C   0  0  0  0  0  0  0  0  0  0  0  0
   -5.8330   -5.6237   -0.9448 O   0  0  0  0  0  0  0  0  0  0  0  0
   -5.3490   -6.8247   -1.5319 C   0  0  0  0  0  0  0  0  0  0  0  0
   -3.6252   -4.5975   -1.2583 C   0  0  0  0  0  0  0  0  0  0  0  0
   -2.8254   -3.4568   -1.1116 C   0  0  0  0  0  0  0  0  0  0  0  0
   -3.3502   -2.2629   -0.5541 C   0  0  0  0  0  0  0  0  0  0  0  0
   -2.7308   -0.9789   -0.3098 C   0  0  0  0  0  0  0  0  0  0  0  0
   -1.3454   -0.6312   -0.6095 C   0  0  0  0  0  0  0  0  0  0  0  0
   -0.4305   -0.4122    0.4259 C   0  0  0  0  0  0  0  0  0  0  0  0
    0.9024   -0.0980    0.1381 C   0  0  0  0  0  0  0  0  0  0  0  0
    1.3304   -0.0018   -1.1866 C   0  0  0  0  0  0  0  0  0  0  0  0
    2.5982    0.2968   -1.6032 O   0  0  0  0  0  0  0  0  0  0  0  0
    3.6009    0.4298   -0.5902 C   0  0  0  0  0  0  0  0  0  0  0  0
    4.9358    0.7558   -1.2839 C   0  0  0  0  0  0  0  0  0  0  0  0
    6.1266    0.8977   -0.4383 N   0  0  0  0  0  0  0  0  0  0  0  0
    6.0245    1.9319    0.6051 C   0  0  0  0  0  0  0  0  0  0  0  0
    5.9065    1.3549    2.0263 C   0  0  0  0  0  0  0  0  0  0  0  0
    6.9923    0.4907    2.3865 O   0  0  0  0  0  0  0  0  0  0  0  0
    7.5989   -0.1587    1.2598 C   0  0  0  0  0  0  0  0  0  0  0  0
    6.6159   -0.3824    0.1003 C   0  0  0  0  0  0  0  0  0  0  0  0
    0.4139   -0.2194   -2.2196 C   0  0  0  0  0  0  0  0  0  0  0  0
   -0.9170   -0.5363   -1.9369 C   0  0  0  0  0  0  0  0  0  0  0  0
   -3.3987    1.7356    1.9691 C   0  0  0  0  0  0  0  0  0  0  0  0
   -3.1757    3.0738    2.3042 C   0  0  0  0  0  0  0  0  0  0  0  0
   -2.4497    7.2711    1.3209 H   0  0  0  0  0  0  0  0  0  0  0  0
   -3.4994    6.4182    0.1821 H   0  0  0  0  0  0  0  0  0  0  0  0
   -1.7095    6.1514    0.1706 H   0  0  0  0  0  0  0  0  0  0  0  0
   -2.7935    4.3433   -0.8342 H   0  0  0  0  0  0  0  0  0  0  0  0
   -3.1779    2.0085   -1.4164 H   0  0  0  0  0  0  0  0  0  0  0  0
   -6.5296   -3.4026    0.0309 H   0  0  0  0  0  0  0  0  0  0  0  0
   -5.0444   -6.6615   -2.5725 H   0  0  0  0  0  0  0  0  0  0  0  0
   -6.1700   -7.5492   -1.5370 H   0  0  0  0  0  0  0  0  0  0  0  0
   -4.5317   -7.2513   -0.9395 H   0  0  0  0  0  0  0  0  0  0  0  0
   -3.1705   -5.4809   -1.6939 H   0  0  0  0  0  0  0  0  0  0  0  0
   -1.7859   -3.4923   -1.4300 H   0  0  0  0  0  0  0  0  0  0  0  0
   -0.7483   -0.4865    1.4637 H   0  0  0  0  0  0  0  0  0  0  0  0
    1.5745    0.0644    0.9735 H   0  0  0  0  0  0  0  0  0  0  0  0
    3.6830   -0.5109   -0.0344 H   0  0  0  0  0  0  0  0  0  0  0  0
    3.3298    1.2457    0.0903 H   0  0  0  0  0  0  0  0  0  0  0  0
    4.8056    1.6848   -1.8553 H   0  0  0  0  0  0  0  0  0  0  0  0
    5.1294   -0.0021   -2.0554 H   0  0  0  0  0  0  0  0  0  0  0  0
    6.9471    2.5261    0.5529 H   0  0  0  0  0  0  0  0  0  0  0  0
    5.2017    2.6318    0.4120 H   0  0  0  0  0  0  0  0  0  0  0  0
    5.8774    2.1664    2.7588 H   0  0  0  0  0  0  0  0  0  0  0  0
    4.9750    0.7885    2.1337 H   0  0  0  0  0  0  0  0  0  0  0  0
    8.4548    0.4456    0.9351 H   0  0  0  0  0  0  0  0  0  0  0  0
    7.9943   -1.1180    1.6070 H   0  0  0  0  0  0  0  0  0  0  0  0
    5.7878   -0.9957    0.4712 H   0  0  0  0  0  0  0  0  0  0  0  0
    7.1171   -0.9393   -0.6986 H   0  0  0  0  0  0  0  0  0  0  0  0
    0.7402   -0.1475   -3.2547 H   0  0  0  0  0  0  0  0  0  0  0  0
   -1.6126   -0.7044   -2.7565 H   0  0  0  0  0  0  0  0  0  0  0  0
   -3.5649    1.0094    2.7627 H   0  0  0  0  0  0  0  0  0  0  0  0
   -3.1734    3.3728    3.3513 H   0  0  0  0  0  0  0  0  0  0  0  0
  1  2  1  0
  2  3  1  0
  3  4  2  0
  4  5  1  0
  5  6  2  0
  6  7  1  0
  7  8  1  0
  8  9  1  0
  9 10  2  0
 10 11  1  0
 11 12  1  0
 12 13  1  0
 11 14  2  0
 14 15  1  0
 15 16  2  0
 16 17  1  0
 17 18  1  0
 18 19  2  0
 19 20  1  0
 20 21  2  0
 21 22  1  0
 22 23  1  0
 23 24  1  0
 24 25  1  0
 25 26  1  0
 26 27  1  0
 27 28  1  0
 28 29  1  0
 29 30  1  0
 21 31  1  0
 31 32  2  0
  6 33  1  0
 33 34  2  0
 34  3  1  0
 17  7  2  0
 32 18  1  0
 16  9  1  0
 30 25  1  0
  1 35  1  0
  1 36  1  0
  1 37  1  0
  4 38  1  0
  5 39  1  0
 10 40  1  0
 13 41  1  0
 13 42  1  0
 13 43  1  0
 14 44  1  0
 15 45  1  0
 19 46  1  0
 20 47  1  0
 23 48  1  0
 23 49  1  0
 24 50  1  0
 24 51  1  0
 26 52  1  0
 26 53  1  0
 27 54  1  0
 27 55  1  0
 29 56  1  0
 29 57  1  0
 30 58  1  0
 30 59  1  0
 31 60  1  0
 32 61  1  0
 33 62  1  0
 34 63  1  0
M  END
$$$$
