
     RDKit          3D

 62 66  0  0  0  0  0  0  0  0999 V2000
   -4.7047   -6.2809    0.0339 C   0  0  0  0  0  0  0  0  0  0  0  0
   -4.7725   -4.9334    0.4825 O   0  0  0  0  0  0  0  0  0  0  0  0
   -4.1726   -3.9884   -0.3044 C   0  0  0  0  0  0  0  0  0  0  0  0
   -3.4953   -4.2275   -1.5003 C   0  0  0  0  0  0  0  0  0  0  0  0
   -2.9223   -3.1663   -2.2054 C   0  0  0  0  0  0  0  0  0  0  0  0
   -3.0247   -1.8626   -1.7191 C   0  0  0  0  0  0  0  0  0  0  0  0
   -3.7021   -1.6058   -0.5215 C   0  0  0  0  0  0  0  0  0  0  0  0
   -3.7931   -0.2359   -0.0003 C   0  0  0  0  0  0  0  0  0  0  0  0
   -5.3412    0.4830    0.1270 S   0  0  0  0  0  0  0  0  0  0  0  0
   -4.7078    1.9608    0.7266 C   0  0  0  0  0  0  0  0  0  0  0  0
   -5.4396    3.1091    1.0858 C   0  0  0  0  0  0  0  0  0  0  0  0
   -4.7584    4.2338    1.5651 C   0  0  0  0  0  0  0  0  0  0  0  0
   -3.3762    4.2227    1.6904 C   0  0  0  0  0  0  0  0  0  0  0  0
   -2.6008    5.2537    2.1462 O   0  0  0  0  0  0  0  0  0  0  0  0
   -3.2759    6.4375    2.5523 C   0  0  0  0  0  0  0  0  0  0  0  0
   -2.6611    3.0744    1.3291 C   0  0  0  0  0  0  0  0  0  0  0  0
   -3.3178    1.9171    0.8327 C   0  0  0  0  0  0  0  0  0  0  0  0
   -2.7934    0.6377    0.4027 C   0  0  0  0  0  0  0  0  0  0  0  0
   -1.3826    0.2607    0.3778 C   0  0  0  0  0  0  0  0  0  0  0  0
   -0.8975   -0.7428    1.2208 C   0  0  0  0  0  0  0  0  0  0  0  0
    0.4547   -1.0925    1.1846 C   0  0  0  0  0  0  0  0  0  0  0  0
    1.3367   -0.4449    0.3156 C   0  0  0  0  0  0  0  0  0  0  0  0
    2.6299   -0.8845    0.3834 O   0  0  0  0  0  0  0  0  0  0  0  0
    3.5830   -0.2342   -0.4632 C   0  0  0  0  0  0  0  0  0  0  0  0
    4.9553   -0.8808   -0.2199 C   0  0  0  0  0  0  0  0  0  0  0  0
    6.0183   -0.3333   -1.0715 N   0  0  0  0  0  0  0  0  0  0  0  0
    6.3685    1.0516   -0.7474 C   0  0  0  0  0  0  0  0  0  0  0  0
    7.7229    1.2405   -1.4171 C   0  0  0  0  0  0  0  0  0  0  0  0
    8.2907   -0.1647   -1.5788 C   0  0  0  0  0  0  0  0  0  0  0  0
    7.2706   -1.0788   -0.9203 C   0  0  0  0  0  0  0  0  0  0  0  0
    0.8539    0.5601   -0.5232 C   0  0  0  0  0  0  0  0  0  0  0  0
   -0.5003    0.9123   -0.4914 C   0  0  0  0  0  0  0  0  0  0  0  0
   -4.2717   -2.6794    0.1781 C   0  0  0  0  0  0  0  0  0  0  0  0
   -3.6675   -6.6286   -0.0158 H   0  0  0  0  0  0  0  0  0  0  0  0
   -5.2099   -6.4023   -0.9299 H   0  0  0  0  0  0  0  0  0  0  0  0
   -5.2294   -6.9034    0.7651 H   0  0  0  0  0  0  0  0  0  0  0  0
   -3.3922   -5.2262   -1.9106 H   0  0  0  0  0  0  0  0  0  0  0  0
   -2.3920   -3.3556   -3.1353 H   0  0  0  0  0  0  0  0  0  0  0  0
   -2.5715   -1.0484   -2.2799 H   0  0  0  0  0  0  0  0  0  0  0  0
   -6.5223    3.1232    0.9938 H   0  0  0  0  0  0  0  0  0  0  0  0
   -5.3498    5.1032    1.8331 H   0  0  0  0  0  0  0  0  0  0  0  0
   -3.9532    6.2388    3.3895 H   0  0  0  0  0  0  0  0  0  0  0  0
   -2.5213    7.1510    2.8970 H   0  0  0  0  0  0  0  0  0  0  0  0
   -3.8082    6.8958    1.7122 H   0  0  0  0  0  0  0  0  0  0  0  0
   -1.5787    3.0719    1.4374 H   0  0  0  0  0  0  0  0  0  0  0  0
   -1.5633   -1.2599    1.9076 H   0  0  0  0  0  0  0  0  0  0  0  0
    0.8230   -1.8774    1.8406 H   0  0  0  0  0  0  0  0  0  0  0  0
    3.3018   -0.3670   -1.5151 H   0  0  0  0  0  0  0  0  0  0  0  0
    3.6237    0.8329   -0.2154 H   0  0  0  0  0  0  0  0  0  0  0  0
    5.2130   -0.8013    0.8449 H   0  0  0  0  0  0  0  0  0  0  0  0
    4.8522   -1.9561   -0.4186 H   0  0  0  0  0  0  0  0  0  0  0  0
    6.4684    1.2015    0.3352 H   0  0  0  0  0  0  0  0  0  0  0  0
    5.6359    1.7677   -1.1324 H   0  0  0  0  0  0  0  0  0  0  0  0
    8.3802    1.8738   -0.8123 H   0  0  0  0  0  0  0  0  0  0  0  0
    7.6123    1.7127   -2.4001 H   0  0  0  0  0  0  0  0  0  0  0  0
    9.2787   -0.2612   -1.1179 H   0  0  0  0  0  0  0  0  0  0  0  0
    8.3922   -0.4023   -2.6445 H   0  0  0  0  0  0  0  0  0  0  0  0
    7.5298   -1.2264    0.1360 H   0  0  0  0  0  0  0  0  0  0  0  0
    7.2311   -2.0564   -1.4110 H   0  0  0  0  0  0  0  0  0  0  0  0
    1.5004    1.0890   -1.2154 H   0  0  0  0  0  0  0  0  0  0  0  0
   -0.8615    1.6959   -1.1540 H   0  0  0  0  0  0  0  0  0  0  0  0
   -4.7946   -2.5033    1.1157 H   0  0  0  0  0  0  0  0  0  0  0  0
  1  2  1  0
  2  3  1  0
  3  4  2  0
  4  5  1  0
  5  6  2  0
  6  7  1  0
  7  8  1  0
  8  9  1  0
  9 10  1  0
 10 11  2  0
 11 12  1  0
 12 13  2  0
 13 14  1  0
 14 15  1  0
 13 16  1  0
 16 17  2  0
 17 18  1  0
 18 19  1  0
 19 20  2  0
 20 21  1  0
 21 22  2  0
 22 23  1  0
 23 24  1  0
 24 25  1  0
 25 26  1  0
 26 27  1  0
 27 28  1  0
 28 29  1  0
 29 30  1  0
 22 31  1  0
 31 32  2  0
  7 33  2  0
 33  3  1  0
 18  8  2  0
 32 19  1  0
 17 10  1  0
 30 26  1  0
  1 34  1  0
  1 35  1  0
  1 36  1  0
  4 37  1  0
  5 38  1  0
  6 39  1  0
 11 40  1  0
 12 41  1  0
 15 42  1  0
 15 43  1  0
 15 44  1  0
 16 45  1  0
 20 46  1  0
 21 47  1  0
 24 48  1  0
 24 49  1  0
 25 50  1  0
 25 51  1  0
 27 52  1  0
 27 53  1  0
 28 54  1  0
 28 55  1  0
 29 56  1  0
 29 57  1  0
 30 58  1  0
 30 59  1  0
 31 60  1  0
 32 61  1  0
 33 62  1  0
M  END
$$$$
