
     RDKit          3D

 46 47  0  0  0  0  0  0  0  0999 V2000
    0.4872   -0.3042    5.3401 C   0  0  0  0  0  0  0  0  0  0  0  0
   -1.2095   -0.0363    4.7719 S   0  0  0  0  0  0  0  0  0  0  0  0
   -1.0252   -0.5391    3.0256 C   0  0  0  0  0  0  0  0  0  0  0  0
   -0.4149    0.5836    2.1883 C   0  0  0  0  0  0  0  0  0  0  0  0
   -0.1424    0.1437    0.7436 C   0  0  0  0  0  0  0  0  0  0  0  0
   -1.3866   -0.0736    0.0107 N   0  0  0  0  0  0  0  0  0  0  0  0
   -1.8980   -1.3282   -0.2162 C   0  0  0  0  0  0  0  0  0  0  0  0
   -1.4164   -2.3520    0.2495 O   0  0  0  0  0  0  0  0  0  0  0  0
   -3.0804   -1.3709   -1.1025 C   0  0  0  0  0  0  0  0  0  0  0  0
   -2.9819   -0.7819   -2.3736 C   0  0  0  0  0  0  0  0  0  0  0  0
   -4.0693   -0.8183   -3.2471 C   0  0  0  0  0  0  0  0  0  0  0  0
   -5.2534   -1.4422   -2.8578 C   0  0  0  0  0  0  0  0  0  0  0  0
   -5.3531   -2.0294   -1.5941 C   0  0  0  0  0  0  0  0  0  0  0  0
   -4.2679   -1.9978   -0.7114 C   0  0  0  0  0  0  0  0  0  0  0  0
   -4.4895   -2.6961    0.8522 Cl  0  0  0  0  0  0  0  0  0  0  0  0
    0.6202    1.2575   -0.0090 C   0  0  0  0  0  0  0  0  0  0  0  0
   -0.0159    2.0773   -0.6832 O   0  0  0  0  0  0  0  0  0  0  0  0
    2.0024    1.3344    0.1363 N   0  0  0  0  0  0  0  0  0  0  0  0
    2.8067    0.3136    0.7967 C   0  0  0  0  0  0  0  0  0  0  0  0
    2.7195    2.3084   -0.6886 C   0  0  0  0  0  0  0  0  0  0  0  0
    3.3502    1.6395   -1.8775 C   0  0  0  0  0  0  0  0  0  0  0  0
    4.6748    1.2837   -2.0538 C   0  0  0  0  0  0  0  0  0  0  0  0
    4.9096    0.6672   -3.3166 C   0  0  0  0  0  0  0  0  0  0  0  0
    3.7597    0.5783   -4.0675 C   0  0  0  0  0  0  0  0  0  0  0  0
    2.4090    1.2381   -3.2545 S   0  0  0  0  0  0  0  0  0  0  0  0
    0.5417   -0.0942    6.4117 H   0  0  0  0  0  0  0  0  0  0  0  0
    0.7852   -1.3431    5.1768 H   0  0  0  0  0  0  0  0  0  0  0  0
    1.1807    0.3641    4.8244 H   0  0  0  0  0  0  0  0  0  0  0  0
   -2.0273   -0.7814    2.6588 H   0  0  0  0  0  0  0  0  0  0  0  0
   -0.4237   -1.4523    2.9735 H   0  0  0  0  0  0  0  0  0  0  0  0
    0.5199    0.9287    2.6436 H   0  0  0  0  0  0  0  0  0  0  0  0
   -1.0909    1.4497    2.1856 H   0  0  0  0  0  0  0  0  0  0  0  0
    0.4383   -0.7830    0.7119 H   0  0  0  0  0  0  0  0  0  0  0  0
   -1.7849    0.7420   -0.4477 H   0  0  0  0  0  0  0  0  0  0  0  0
   -2.0550   -0.3096   -2.6936 H   0  0  0  0  0  0  0  0  0  0  0  0
   -3.9907   -0.3654   -4.2331 H   0  0  0  0  0  0  0  0  0  0  0  0
   -6.1017   -1.4723   -3.5381 H   0  0  0  0  0  0  0  0  0  0  0  0
   -6.2846   -2.5080   -1.3001 H   0  0  0  0  0  0  0  0  0  0  0  0
    2.2923   -0.1040    1.6633 H   0  0  0  0  0  0  0  0  0  0  0  0
    3.7476    0.7524    1.1417 H   0  0  0  0  0  0  0  0  0  0  0  0
    3.0092   -0.4934    0.0867 H   0  0  0  0  0  0  0  0  0  0  0  0
    2.0571    3.1183   -1.0142 H   0  0  0  0  0  0  0  0  0  0  0  0
    3.4902    2.7710   -0.0601 H   0  0  0  0  0  0  0  0  0  0  0  0
    5.4431    1.4557   -1.3095 H   0  0  0  0  0  0  0  0  0  0  0  0
    5.8729    0.3090   -3.6585 H   0  0  0  0  0  0  0  0  0  0  0  0
    3.6455    0.1605   -5.0584 H   0  0  0  0  0  0  0  0  0  0  0  0
  1  2  1  0
  2  3  1  0
  3  4  1  0
  4  5  1  0
  5  6  1  0
  6  7  1  0
  7  8  2  0
  7  9  1  0
  9 10  2  0
 10 11  1  0
 11 12  2  0
 12 13  1  0
 13 14  2  0
 14 15  1  0
  5 16  1  0
 16 17  2  0
 16 18  1  0
 18 19  1  0
 18 20  1  0
 20 21  1  0
 21 22  2  0
 22 23  1  0
 23 24  2  0
 24 25  1  0
 14  9  1  0
 25 21  1  0
  1 26  1  0
  1 27  1  0
  1 28  1  0
  3 29  1  0
  3 30  1  0
  4 31  1  0
  4 32  1  0
  5 33  1  0
  6 34  1  0
 10 35  1  0
 11 36  1  0
 12 37  1  0
 13 38  1  0
 19 39  1  0
 19 40  1  0
 19 41  1  0
 20 42  1  0
 20 43  1  0
 22 44  1  0
 23 45  1  0
 24 46  1  0
M  END
$$$$
