
     RDKit          3D

 66 68  0  0  0  0  0  0  0  0999 V2000
   -5.1607   -3.6634    1.3364 C   0  0  0  0  0  0  0  0  0  0  0  0
   -5.5142   -2.1942    1.4733 C   0  0  0  0  0  0  0  0  0  0  0  0
   -4.3757   -1.5130    2.0113 O   0  0  0  0  0  0  0  0  0  0  0  0
   -4.3341   -0.1722    1.7178 C   0  0  0  0  0  0  0  0  0  0  0  0
   -5.4677    0.6466    1.7550 C   0  0  0  0  0  0  0  0  0  0  0  0
   -5.3655    2.0043    1.4372 C   0  0  0  0  0  0  0  0  0  0  0  0
   -4.1284    2.5530    1.1023 C   0  0  0  0  0  0  0  0  0  0  0  0
   -2.9883    1.7481    1.0912 C   0  0  0  0  0  0  0  0  0  0  0  0
   -3.0808    0.3853    1.4059 C   0  0  0  0  0  0  0  0  0  0  0  0
   -1.8609   -0.4309    1.3906 C   0  0  0  0  0  0  0  0  0  0  0  0
   -1.3561   -1.1307    0.3617 C   0  0  0  0  0  0  0  0  0  0  0  0
   -1.9354   -1.2255   -0.9399 C   0  0  0  0  0  0  0  0  0  0  0  0
   -3.2201   -0.8321   -1.2559 O   0  0  0  0  0  0  0  0  0  0  0  0
   -3.5190   -1.1017   -2.5746 N   0  0  0  0  0  0  0  0  0  0  0  0
   -2.4223   -1.6673   -3.0872 C   0  0  0  0  0  0  0  0  0  0  0  0
   -2.4182   -2.1125   -4.5017 C   0  0  0  0  0  0  0  0  0  0  0  0
   -1.3982   -1.7184   -2.1201 C   0  0  0  0  0  0  0  0  0  0  0  0
    0.1891   -2.3040   -2.3422 S   0  0  0  0  0  6  0  0  0  0  0  0
    0.4427   -2.2201   -3.7646 O   0  0  0  0  0  0  0  0  0  0  0  0
    0.1888   -3.5672   -1.6395 O   0  0  0  0  0  0  0  0  0  0  0  0
    1.2811   -1.2513   -1.5693 N   0  0  0  0  0  0  0  0  0  0  0  0
    1.3591    0.1148   -2.1245 C   0  0  0  0  0  0  0  0  0  0  0  0
    2.1502    0.9967   -1.1655 C   0  0  0  0  0  0  0  0  0  0  0  0
    3.5768    0.4809   -0.9263 C   0  0  0  0  0  0  0  0  0  0  0  0
    3.9317    0.5346    0.5658 C   0  0  0  0  0  0  0  0  0  0  0  0
    4.0263   -0.5108    1.2135 O   0  0  0  0  0  0  0  0  0  0  0  0
    4.1263    1.7779    1.1698 N   0  0  0  0  0  0  0  0  0  0  0  0
    4.1804    3.0712    0.4796 C   0  0  0  0  0  0  0  0  0  0  0  0
    2.9595    3.9351    0.7651 C   0  0  0  0  0  0  0  0  0  0  0  0
    4.4658    1.7835    2.5974 C   0  0  0  0  0  0  0  0  0  0  0  0
    5.9564    1.5797    2.8346 C   0  0  0  0  0  0  0  0  0  0  0  0
    3.7674   -0.9392   -1.4894 C   0  0  0  0  0  0  0  0  0  0  0  0
    2.5867   -1.8640   -1.2014 C   0  0  0  0  0  0  0  0  0  0  0  0
   -6.0016   -4.2318    0.9262 H   0  0  0  0  0  0  0  0  0  0  0  0
   -4.8906   -4.0884    2.3103 H   0  0  0  0  0  0  0  0  0  0  0  0
   -4.2922   -3.7899    0.6794 H   0  0  0  0  0  0  0  0  0  0  0  0
   -6.3633   -2.0845    2.1587 H   0  0  0  0  0  0  0  0  0  0  0  0
   -5.7851   -1.8020    0.4841 H   0  0  0  0  0  0  0  0  0  0  0  0
   -6.4390    0.2481    2.0322 H   0  0  0  0  0  0  0  0  0  0  0  0
   -6.2528    2.6317    1.4544 H   0  0  0  0  0  0  0  0  0  0  0  0
   -4.0535    3.6097    0.8505 H   0  0  0  0  0  0  0  0  0  0  0  0
   -2.0283    2.1885    0.8311 H   0  0  0  0  0  0  0  0  0  0  0  0
   -1.3488   -0.4644    2.3516 H   0  0  0  0  0  0  0  0  0  0  0  0
   -0.4400   -1.6891    0.5480 H   0  0  0  0  0  0  0  0  0  0  0  0
   -3.4278   -2.1076   -4.9277 H   0  0  0  0  0  0  0  0  0  0  0  0
   -1.7953   -1.4485   -5.1112 H   0  0  0  0  0  0  0  0  0  0  0  0
   -2.0329   -3.1331   -4.5826 H   0  0  0  0  0  0  0  0  0  0  0  0
    0.3543    0.5382   -2.2257 H   0  0  0  0  0  0  0  0  0  0  0  0
    1.8200    0.1044   -3.1189 H   0  0  0  0  0  0  0  0  0  0  0  0
    1.6006    1.0684   -0.2176 H   0  0  0  0  0  0  0  0  0  0  0  0
    2.1929    2.0122   -1.5770 H   0  0  0  0  0  0  0  0  0  0  0  0
    4.2978    1.1061   -1.4654 H   0  0  0  0  0  0  0  0  0  0  0  0
    4.2752    2.9404   -0.5991 H   0  0  0  0  0  0  0  0  0  0  0  0
    5.0878    3.5921    0.8068 H   0  0  0  0  0  0  0  0  0  0  0  0
    3.0216    4.8704    0.2002 H   0  0  0  0  0  0  0  0  0  0  0  0
    2.8839    4.1883    1.8274 H   0  0  0  0  0  0  0  0  0  0  0  0
    2.0332    3.4251    0.4821 H   0  0  0  0  0  0  0  0  0  0  0  0
    3.9072    0.9881    3.1051 H   0  0  0  0  0  0  0  0  0  0  0  0
    4.1415    2.7307    3.0420 H   0  0  0  0  0  0  0  0  0  0  0  0
    6.2908    0.6126    2.4456 H   0  0  0  0  0  0  0  0  0  0  0  0
    6.5467    2.3605    2.3442 H   0  0  0  0  0  0  0  0  0  0  0  0
    6.1755    1.6086    3.9058 H   0  0  0  0  0  0  0  0  0  0  0  0
    3.8975   -0.8675   -2.5781 H   0  0  0  0  0  0  0  0  0  0  0  0
    4.6926   -1.3918   -1.1097 H   0  0  0  0  0  0  0  0  0  0  0  0
    2.7476   -2.7983   -1.7520 H   0  0  0  0  0  0  0  0  0  0  0  0
    2.5417   -2.1205   -0.1371 H   0  0  0  0  0  0  0  0  0  0  0  0
  1  2  1  0
  2  3  1  0
  3  4  1  0
  4  5  2  0
  5  6  1  0
  6  7  2  0
  7  8  1  0
  8  9  2  0
  9 10  1  0
 10 11  2  3
 11 12  1  0
 12 13  1  0
 13 14  1  0
 14 15  2  0
 15 16  1  0
 15 17  1  0
 17 18  1  0
 18 19  2  0
 18 20  2  0
 18 21  1  0
 21 22  1  0
 22 23  1  0
 23 24  1  0
 24 25  1  0
 25 26  2  0
 25 27  1  0
 27 28  1  0
 28 29  1  0
 27 30  1  0
 30 31  1  0
 24 32  1  0
 32 33  1  0
  9  4  1  0
 17 12  2  0
 33 21  1  0
  1 34  1  0
  1 35  1  0
  1 36  1  0
  2 37  1  0
  2 38  1  0
  5 39  1  0
  6 40  1  0
  7 41  1  0
  8 42  1  0
 10 43  1  0
 11 44  1  0
 16 45  1  0
 16 46  1  0
 16 47  1  0
 22 48  1  0
 22 49  1  0
 23 50  1  0
 23 51  1  0
 24 52  1  0
 28 53  1  0
 28 54  1  0
 29 55  1  0
 29 56  1  0
 29 57  1  0
 30 58  1  0
 30 59  1  0
 31 60  1  0
 31 61  1  0
 31 62  1  0
 32 63  1  0
 32 64  1  0
 33 65  1  0
 33 66  1  0
M  END
$$$$
