
     RDKit          3D

 39 40  0  0  0  0  0  0  0  0999 V2000
   -4.7265    1.0868    0.8408 C   0  0  0  0  0  0  0  0  0  0  0  0
   -3.7980   -0.0435    0.4228 C   0  0  0  0  0  0  0  0  0  0  0  0
   -2.6025   -0.1615    1.3689 C   0  0  0  0  0  0  0  0  0  0  0  0
   -1.6939   -1.3572    1.0685 C   0  0  0  0  0  0  0  0  0  0  0  0
   -0.9883   -1.2030   -0.1889 N   0  0  0  0  0  0  0  0  0  0  0  0
   -1.2843   -1.7720   -1.3862 C   0  0  0  0  0  0  0  0  0  0  0  0
   -2.4833   -2.3491   -1.5802 N   0  0  0  0  0  0  0  0  0  0  0  0
   -0.3800   -1.7433   -2.3218 N   0  0  0  0  0  0  0  0  0  0  0  0
    0.7575   -1.0041   -1.7052 C   0  0  0  0  0  0  0  0  0  0  0  0
    0.4318   -0.8495   -0.2024 C   0  0  0  0  0  0  0  0  0  0  0  0
    0.7008    0.5644    0.3226 C   0  0  0  0  0  0  0  0  0  0  0  0
    2.1692    0.9220    0.3348 C   0  0  0  0  0  0  0  0  0  0  0  0
    3.0294    0.3665    1.2943 C   0  0  0  0  0  0  0  0  0  0  0  0
    4.3889    0.6872    1.2998 C   0  0  0  0  0  0  0  0  0  0  0  0
    4.8884    1.5655    0.3442 C   0  0  0  0  0  0  0  0  0  0  0  0
    6.2081    1.9059    0.3122 O   0  0  0  0  0  0  0  0  0  0  0  0
    4.0518    2.1266   -0.6121 C   0  0  0  0  0  0  0  0  0  0  0  0
    2.6934    1.8069   -0.6176 C   0  0  0  0  0  0  0  0  0  0  0  0
   -5.1241    0.9169    1.8465 H   0  0  0  0  0  0  0  0  0  0  0  0
   -4.2015    2.0474    0.8361 H   0  0  0  0  0  0  0  0  0  0  0  0
   -5.5718    1.1579    0.1492 H   0  0  0  0  0  0  0  0  0  0  0  0
   -3.4538    0.1487   -0.5989 H   0  0  0  0  0  0  0  0  0  0  0  0
   -4.3611   -0.9836    0.4120 H   0  0  0  0  0  0  0  0  0  0  0  0
   -2.0268    0.7704    1.3391 H   0  0  0  0  0  0  0  0  0  0  0  0
   -2.9735   -0.2685    2.3960 H   0  0  0  0  0  0  0  0  0  0  0  0
   -0.9670   -1.4488    1.8855 H   0  0  0  0  0  0  0  0  0  0  0  0
   -2.2738   -2.2865    1.0921 H   0  0  0  0  0  0  0  0  0  0  0  0
   -2.7713   -2.9710   -0.8405 H   0  0  0  0  0  0  0  0  0  0  0  0
   -2.4930   -2.8263   -2.4758 H   0  0  0  0  0  0  0  0  0  0  0  0
    1.6867   -1.5659   -1.8464 H   0  0  0  0  0  0  0  0  0  0  0  0
    0.8561   -0.0406   -2.2168 H   0  0  0  0  0  0  0  0  0  0  0  0
    0.9956   -1.5987    0.3684 H   0  0  0  0  0  0  0  0  0  0  0  0
    0.3295    0.6627    1.3505 H   0  0  0  0  0  0  0  0  0  0  0  0
    0.1354    1.3027   -0.2613 H   0  0  0  0  0  0  0  0  0  0  0  0
    2.6448   -0.3179    2.0473 H   0  0  0  0  0  0  0  0  0  0  0  0
    5.0360    0.2466    2.0515 H   0  0  0  0  0  0  0  0  0  0  0  0
    6.6659    1.4408    1.0311 H   0  0  0  0  0  0  0  0  0  0  0  0
    4.4554    2.8117   -1.3524 H   0  0  0  0  0  0  0  0  0  0  0  0
    2.0497    2.2535   -1.3727 H   0  0  0  0  0  0  0  0  0  0  0  0
  1  2  1  0
  2  3  1  0
  3  4  1  0
  4  5  1  0
  5  6  1  0
  6  7  1  0
  6  8  2  0
  8  9  1  0
  9 10  1  0
 10 11  1  0
 11 12  1  0
 12 13  2  0
 13 14  1  0
 14 15  2  0
 15 16  1  0
 15 17  1  0
 17 18  2  0
 10  5  1  0
 18 12  1  0
  1 19  1  0
  1 20  1  0
  1 21  1  0
  2 22  1  0
  2 23  1  0
  3 24  1  0
  3 25  1  0
  4 26  1  0
  4 27  1  0
  7 28  1  0
  7 29  1  0
  9 30  1  0
  9 31  1  0
 10 32  1  0
 11 33  1  0
 11 34  1  0
 13 35  1  0
 14 36  1  0
 16 37  1  0
 17 38  1  0
 18 39  1  0
M  END
$$$$
