
     RDKit          3D

 22 23  0  0  0  0  0  0  0  0999 V2000
   -4.1764    0.2321    0.3131 C   0  0  0  0  0  0  0  0  0  0  0  0
   -2.6815    0.1849    0.2020 C   0  0  0  0  0  0  0  0  0  0  0  0
   -1.9699    1.2908   -0.2680 C   0  0  0  0  0  0  0  0  0  0  0  0
   -0.5784    1.2330   -0.4011 C   0  0  0  0  0  0  0  0  0  0  0  0
    0.1404    0.0692   -0.0783 C   0  0  0  0  0  0  0  0  0  0  0  0
    1.6069    0.0710   -0.2397 C   0  0  0  0  0  0  0  0  0  0  0  0
    2.3005    1.0767   -0.7432 N   0  0  0  0  0  0  0  0  0  0  0  0
    3.6565    0.8250   -0.7851 N   0  0  0  0  0  0  0  0  0  0  0  0
    3.9598   -0.3587   -0.3086 C   0  0  0  0  0  0  0  0  0  0  0  0
    5.2117   -0.8494   -0.2228 N   0  0  0  0  0  0  0  0  0  0  0  0
    2.6033   -1.2534    0.2355 S   0  0  0  0  0  0  0  0  0  0  0  0
   -0.5891   -1.0408    0.3765 C   0  0  0  0  0  0  0  0  0  0  0  0
   -1.9824   -0.9851    0.5104 C   0  0  0  0  0  0  0  0  0  0  0  0
   -4.5191    1.2459    0.5455 H   0  0  0  0  0  0  0  0  0  0  0  0
   -4.6320   -0.0883   -0.6289 H   0  0  0  0  0  0  0  0  0  0  0  0
   -4.5290   -0.4218    1.1176 H   0  0  0  0  0  0  0  0  0  0  0  0
   -2.4897    2.2084   -0.5353 H   0  0  0  0  0  0  0  0  0  0  0  0
   -0.0537    2.1155   -0.7663 H   0  0  0  0  0  0  0  0  0  0  0  0
    5.3872   -1.5563    0.4810 H   0  0  0  0  0  0  0  0  0  0  0  0
    5.9496   -0.1563   -0.2943 H   0  0  0  0  0  0  0  0  0  0  0  0
   -0.0974   -1.9760    0.6315 H   0  0  0  0  0  0  0  0  0  0  0  0
   -2.5171   -1.8667    0.8582 H   0  0  0  0  0  0  0  0  0  0  0  0
  1  2  1  0
  2  3  2  0
  3  4  1  0
  4  5  2  0
  5  6  1  0
  6  7  2  0
  7  8  1  0
  8  9  2  0
  9 10  1  0
  9 11  1  0
  5 12  1  0
 12 13  2  0
 13  2  1  0
 11  6  1  0
  1 14  1  0
  1 15  1  0
  1 16  1  0
  3 17  1  0
  4 18  1  0
 10 19  1  0
 10 20  1  0
 12 21  1  0
 13 22  1  0
M  END
$$$$
