
     RDKit          3D

 53 56  0  0  0  0  0  0  0  0999 V2000
    6.7315   -1.0672    2.9769 C   0  0  0  0  0  0  0  0  0  0  0  0
    7.0419   -0.4366    1.6306 C   0  0  0  0  0  0  0  0  0  0  0  0
    6.3049   -1.0776    0.5911 O   0  0  0  0  0  0  0  0  0  0  0  0
    5.0773   -0.5845    0.2532 C   0  0  0  0  0  0  0  0  0  0  0  0
    4.5172   -1.1539   -0.8896 C   0  0  0  0  0  0  0  0  0  0  0  0
    3.2602   -0.7464   -1.3503 C   0  0  0  0  0  0  0  0  0  0  0  0
    2.5167    0.2361   -0.6755 C   0  0  0  0  0  0  0  0  0  0  0  0
    1.1868    0.6491   -1.1697 C   0  0  0  0  0  0  0  0  0  0  0  0
    0.1640    1.0537   -0.3303 C   0  0  0  0  0  0  0  0  0  0  0  0
   -1.0538    1.4145   -0.9043 C   0  0  0  0  0  0  0  0  0  0  0  0
   -2.1311    1.8192    0.0142 C   0  0  0  0  0  0  0  0  0  0  0  0
   -2.2433    3.0157    0.2628 O   0  0  0  0  0  0  0  0  0  0  0  0
   -2.9336    0.8228    0.5640 N   0  0  0  0  0  0  0  0  0  0  0  0
   -4.1144    1.2527    1.3151 C   0  0  0  0  0  0  0  0  0  0  0  0
   -4.5851    0.2000    2.3339 C   0  0  0  0  0  0  0  0  0  0  0  0
   -4.7689   -1.1301    1.7176 N   0  0  0  0  0  0  0  0  0  0  0  0
   -5.2029   -2.1042    2.7175 C   0  0  0  0  0  0  0  0  0  0  0  0
   -3.5036   -1.5570    1.0893 C   0  0  0  0  0  0  0  0  0  0  0  0
   -3.0043   -0.5476    0.0383 C   0  0  0  0  0  0  0  0  0  0  0  0
   -1.2488    1.4027   -2.2971 C   0  0  0  0  0  0  0  0  0  0  0  0
   -2.4481    1.7863   -2.9465 C   0  0  0  0  0  0  0  0  0  0  0  0
   -2.5575    1.7292   -4.3338 C   0  0  0  0  0  0  0  0  0  0  0  0
   -1.4759    1.2914   -5.0854 C   0  0  0  0  0  0  0  0  0  0  0  0
   -0.2920    0.9171   -4.4443 C   0  0  0  0  0  0  0  0  0  0  0  0
   -0.1559    0.9661   -3.0631 C   0  0  0  0  0  0  0  0  0  0  0  0
    1.0140    0.5901   -2.5152 N   0  0  0  0  0  0  0  0  0  0  0  0
    3.0987    0.8001    0.4739 C   0  0  0  0  0  0  0  0  0  0  0  0
    4.3605    0.3941    0.9356 C   0  0  0  0  0  0  0  0  0  0  0  0
    5.6780   -0.9426    3.2445 H   0  0  0  0  0  0  0  0  0  0  0  0
    6.9255   -2.1447    2.9483 H   0  0  0  0  0  0  0  0  0  0  0  0
    7.3460   -0.6207    3.7638 H   0  0  0  0  0  0  0  0  0  0  0  0
    8.1017   -0.6043    1.4071 H   0  0  0  0  0  0  0  0  0  0  0  0
    6.9057    0.6505    1.6365 H   0  0  0  0  0  0  0  0  0  0  0  0
    5.0644   -1.9191   -1.4348 H   0  0  0  0  0  0  0  0  0  0  0  0
    2.8587   -1.2082   -2.2512 H   0  0  0  0  0  0  0  0  0  0  0  0
    0.2845    1.0785    0.7470 H   0  0  0  0  0  0  0  0  0  0  0  0
   -4.9071    1.4520    0.5830 H   0  0  0  0  0  0  0  0  0  0  0  0
   -3.9060    2.1939    1.8357 H   0  0  0  0  0  0  0  0  0  0  0  0
   -3.8510    0.1412    3.1489 H   0  0  0  0  0  0  0  0  0  0  0  0
   -5.5321    0.5412    2.7689 H   0  0  0  0  0  0  0  0  0  0  0  0
   -6.1584   -1.8004    3.1591 H   0  0  0  0  0  0  0  0  0  0  0  0
   -5.3679   -3.0826    2.2529 H   0  0  0  0  0  0  0  0  0  0  0  0
   -4.4724   -2.2252    3.5256 H   0  0  0  0  0  0  0  0  0  0  0  0
   -3.6428   -2.5262    0.5956 H   0  0  0  0  0  0  0  0  0  0  0  0
   -2.7256   -1.6864    1.8539 H   0  0  0  0  0  0  0  0  0  0  0  0
   -3.6866   -0.5272   -0.8205 H   0  0  0  0  0  0  0  0  0  0  0  0
   -2.0262   -0.8718   -0.3272 H   0  0  0  0  0  0  0  0  0  0  0  0
   -3.3010    2.1422   -2.3705 H   0  0  0  0  0  0  0  0  0  0  0  0
   -3.4804    2.0305   -4.8228 H   0  0  0  0  0  0  0  0  0  0  0  0
   -1.5441    1.2442   -6.1692 H   0  0  0  0  0  0  0  0  0  0  0  0
    0.5529    0.5805   -5.0415 H   0  0  0  0  0  0  0  0  0  0  0  0
    2.5847    1.5854    1.0247 H   0  0  0  0  0  0  0  0  0  0  0  0
    4.7452    0.8657    1.8331 H   0  0  0  0  0  0  0  0  0  0  0  0
  1  2  1  0
  2  3  1  0
  3  4  1  0
  4  5  2  0
  5  6  1  0
  6  7  2  0
  7  8  1  0
  8  9  2  0
  9 10  1  0
 10 11  1  0
 11 12  2  0
 11 13  1  0
 13 14  1  0
 14 15  1  0
 15 16  1  0
 16 17  1  0
 16 18  1  0
 18 19  1  0
 10 20  2  0
 20 21  1  0
 21 22  2  0
 22 23  1  0
 23 24  2  0
 24 25  1  0
 25 26  2  0
  7 27  1  0
 27 28  2  0
 28  4  1  0
 26  8  1  0
 19 13  1  0
 25 20  1  0
  1 29  1  0
  1 30  1  0
  1 31  1  0
  2 32  1  0
  2 33  1  0
  5 34  1  0
  6 35  1  0
  9 36  1  0
 14 37  1  0
 14 38  1  0
 15 39  1  0
 15 40  1  0
 17 41  1  0
 17 42  1  0
 17 43  1  0
 18 44  1  0
 18 45  1  0
 19 46  1  0
 19 47  1  0
 21 48  1  0
 22 49  1  0
 23 50  1  0
 24 51  1  0
 27 52  1  0
 28 53  1  0
M  END
$$$$
