
     RDKit          3D

 68 73  0  0  0  0  0  0  0  0999 V2000
   -4.2836    4.9117   -1.8130 C   0  0  0  0  0  0  0  0  0  0  0  0
   -3.4076    3.8053   -1.6395 O   0  0  0  0  0  0  0  0  0  0  0  0
   -3.1790    3.3848   -0.3575 C   0  0  0  0  0  0  0  0  0  0  0  0
   -3.7115    3.9725    0.8062 C   0  0  0  0  0  0  0  0  0  0  0  0
   -3.4089    3.4620    2.0748 C   0  0  0  0  0  0  0  0  0  0  0  0
   -2.5777    2.3654    2.1390 C   0  0  0  0  0  0  0  0  0  0  0  0
   -2.0451    1.7626    0.9977 C   0  0  0  0  0  0  0  0  0  0  0  0
   -2.3348    2.2717   -0.2587 C   0  0  0  0  0  0  0  0  0  0  0  0
   -1.1981    0.6012    1.4182 C   0  0  1  0  0  0  0  0  0  0  0  0
   -1.2952    0.6436    2.9697 C   0  0  0  0  0  0  0  0  0  0  0  0
   -0.7434   -0.0728    3.7911 O   0  0  0  0  0  0  0  0  0  0  0  0
   -2.1465    1.7079    3.2837 N   0  0  0  0  0  0  0  0  0  0  0  0
   -1.7455   -0.6522    0.8300 C   0  0  0  0  0  0  0  0  0  0  0  0
   -0.6906   -1.4908    0.4355 C   0  0  0  0  0  0  0  0  0  0  0  0
   -1.2099   -2.6421   -0.0906 C   0  0  0  0  0  0  0  0  0  0  0  0
   -0.5840   -3.6938   -0.6128 O   0  0  0  0  0  0  0  0  0  0  0  0
   -2.6210   -2.5307   -0.0427 N   0  0  0  0  0  0  0  0  0  0  0  0
   -3.5691   -3.5119   -0.5034 C   0  0  0  0  0  0  0  0  0  0  0  0
   -3.2203   -4.8682   -0.5850 C   0  0  0  0  0  0  0  0  0  0  0  0
   -4.1432   -5.8201   -1.0326 C   0  0  0  0  0  0  0  0  0  0  0  0
   -5.4257   -5.4312   -1.4062 C   0  0  0  0  0  0  0  0  0  0  0  0
   -5.7869   -4.0898   -1.3321 C   0  0  0  0  0  0  0  0  0  0  0  0
   -4.8664   -3.1361   -0.8837 C   0  0  0  0  0  0  0  0  0  0  0  0
   -2.9309   -1.2780    0.5401 C   0  0  0  0  0  0  0  0  0  0  0  0
   -4.1791   -0.8772    0.7730 O   0  0  0  0  0  0  0  0  0  0  0  0
    0.6050   -0.8551    0.7610 C   0  0  1  0  0  0  0  0  0  0  0  0
    1.7491   -0.9353   -0.2420 C   0  0  0  0  0  0  0  0  0  0  0  0
    2.8593   -0.0562    0.1645 N   0  0  0  0  0  0  0  0  0  0  0  0
    4.1243   -0.3559   -0.3125 C   0  0  0  0  0  0  0  0  0  0  0  0
    4.3981   -1.4066   -0.8784 O   0  0  0  0  0  0  0  0  0  0  0  0
    5.0107    0.6443   -0.0752 O   0  0  0  0  0  0  0  0  0  0  0  0
    6.3955    0.5327   -0.4917 C   0  0  0  0  0  0  0  0  0  0  0  0
    7.0420    1.8527   -0.0434 C   0  0  0  0  0  0  0  0  0  0  0  0
    6.5137    0.4247   -2.0159 C   0  0  0  0  0  0  0  0  0  0  0  0
    7.1018   -0.6244    0.2233 C   0  0  0  0  0  0  0  0  0  0  0  0
    2.4990    1.3065    0.6025 C   0  0  0  0  0  0  0  0  0  0  0  0
    1.2275    1.3703    1.4888 C   0  0  0  0  0  0  0  0  0  0  0  0
    0.1765    0.5756    0.8761 N   0  0  0  0  0  0  0  0  0  0  0  0
   -4.3675    5.1065   -2.8866 H   0  0  0  0  0  0  0  0  0  0  0  0
   -3.8782    5.8130   -1.3416 H   0  0  0  0  0  0  0  0  0  0  0  0
   -5.2864    4.6843   -1.4365 H   0  0  0  0  0  0  0  0  0  0  0  0
   -4.3657    4.8374    0.7521 H   0  0  0  0  0  0  0  0  0  0  0  0
   -3.8175    3.9225    2.9675 H   0  0  0  0  0  0  0  0  0  0  0  0
   -1.9186    1.8131   -1.1518 H   0  0  0  0  0  0  0  0  0  0  0  0
   -2.3753    1.9576    4.2345 H   0  0  0  0  0  0  0  0  0  0  0  0
    0.3749   -3.5501   -0.5476 H   0  0  0  0  0  0  0  0  0  0  0  0
   -2.2451   -5.2274   -0.2719 H   0  0  0  0  0  0  0  0  0  0  0  0
   -3.8558   -6.8671   -1.0819 H   0  0  0  0  0  0  0  0  0  0  0  0
   -6.1411   -6.1711   -1.7540 H   0  0  0  0  0  0  0  0  0  0  0  0
   -6.7848   -3.7780   -1.6288 H   0  0  0  0  0  0  0  0  0  0  0  0
   -5.1848   -2.0986   -0.8784 H   0  0  0  0  0  0  0  0  0  0  0  0
   -4.1490    0.0338    1.1132 H   0  0  0  0  0  0  0  0  0  0  0  0
    0.9413   -1.2287    1.7390 H   0  0  0  0  0  0  0  0  0  0  0  0
    1.4313   -0.6199   -1.2444 H   0  0  0  0  0  0  0  0  0  0  0  0
    2.1044   -1.9682   -0.3283 H   0  0  0  0  0  0  0  0  0  0  0  0
    8.1052    1.8943   -0.3021 H   0  0  0  0  0  0  0  0  0  0  0  0
    6.5391    2.7099   -0.5066 H   0  0  0  0  0  0  0  0  0  0  0  0
    6.9436    1.9862    1.0404 H   0  0  0  0  0  0  0  0  0  0  0  0
    6.1334   -0.5306   -2.3897 H   0  0  0  0  0  0  0  0  0  0  0  0
    7.5559    0.5113   -2.3416 H   0  0  0  0  0  0  0  0  0  0  0  0
    5.9284    1.2098   -2.5076 H   0  0  0  0  0  0  0  0  0  0  0  0
    6.9291   -0.5767    1.3043 H   0  0  0  0  0  0  0  0  0  0  0  0
    6.7327   -1.5985   -0.1109 H   0  0  0  0  0  0  0  0  0  0  0  0
    8.1819   -0.6047    0.0418 H   0  0  0  0  0  0  0  0  0  0  0  0
    2.3437    1.8955   -0.3102 H   0  0  0  0  0  0  0  0  0  0  0  0
    3.3353    1.7580    1.1465 H   0  0  0  0  0  0  0  0  0  0  0  0
    0.9216    2.4179    1.5845 H   0  0  0  0  0  0  0  0  0  0  0  0
    1.4697    1.0011    2.4926 H   0  0  0  0  0  0  0  0  0  0  0  0
  1  2  1  0
  2  3  1  0
  3  4  2  0
  4  5  1  0
  5  6  2  0
  6  7  1  0
  7  8  2  0
  7  9  1  0
  9 10  1  0
 10 11  2  0
 10 12  1  0
  9 13  1  0
 13 14  1  0
 14 15  2  0
 15 16  1  0
 15 17  1  0
 17 18  1  0
 18 19  2  0
 19 20  1  0
 20 21  2  0
 21 22  1  0
 22 23  2  0
 17 24  1  0
 24 25  1  0
 14 26  1  0
 26 27  1  0
 27 28  1  0
 28 29  1  0
 29 30  2  0
 29 31  1  0
 31 32  1  0
 32 33  1  0
 32 34  1  0
 32 35  1  0
 28 36  1  0
 36 37  1  0
 37 38  1  0
  8  3  1  0
  9 38  1  1
 12  6  1  0
 24 13  2  0
 38 26  1  0
 23 18  1  0
  1 39  1  0
  1 40  1  0
  1 41  1  0
  4 42  1  0
  5 43  1  0
  8 44  1  0
 12 45  1  0
 16 46  1  0
 19 47  1  0
 20 48  1  0
 21 49  1  0
 22 50  1  0
 23 51  1  0
 25 52  1  0
 26 53  1  1
 27 54  1  0
 27 55  1  0
 33 56  1  0
 33 57  1  0
 33 58  1  0
 34 59  1  0
 34 60  1  0
 34 61  1  0
 35 62  1  0
 35 63  1  0
 35 64  1  0
 36 65  1  0
 36 66  1  0
 37 67  1  0
 37 68  1  0
M  END
$$$$
