
     RDKit          3D

 46 50  0  0  0  0  0  0  0  0999 V2000
   -8.0387   -0.7236    1.6862 C   0  0  0  0  0  0  0  0  0  0  0  0
   -6.5530   -0.6666    1.4367 C   0  0  0  0  0  0  0  0  0  0  0  0
   -5.6788   -0.8013    2.5298 C   0  0  0  0  0  0  0  0  0  0  0  0
   -4.2909   -0.7593    2.3786 C   0  0  0  0  0  0  0  0  0  0  0  0
   -3.8088   -0.5760    1.0833 C   0  0  0  0  0  0  0  0  0  0  0  0
   -4.6406   -0.4372   -0.0345 C   0  0  0  0  0  0  0  0  0  0  0  0
   -3.8995   -0.2683   -1.1941 N   0  0  0  0  0  0  0  0  0  0  0  0
   -2.6663   -0.3051   -0.7772 C   0  0  0  0  0  0  0  0  0  0  0  0
   -1.1527   -0.1706   -1.5815 S   0  0  0  0  0  0  0  0  0  0  0  0
   -0.3212   -0.3729   -0.0604 C   0  0  0  0  0  0  0  0  0  0  0  0
    0.9929   -0.3627    0.1981 C   0  0  0  0  0  0  0  0  0  0  0  0
    2.0477   -0.2046   -0.7427 C   0  0  0  0  0  0  0  0  0  0  0  0
    2.1704   -0.5373   -2.0875 C   0  0  0  0  0  0  0  0  0  0  0  0
    3.4702   -0.1725   -2.5172 C   0  0  0  0  0  0  0  0  0  0  0  0
    4.1065    0.3395   -1.4124 C   0  0  0  0  0  0  0  0  0  0  0  0
    5.4255    0.9033   -1.1679 C   0  0  0  0  0  0  0  0  0  0  0  0
    5.9201    1.8624   -2.0703 C   0  0  0  0  0  0  0  0  0  0  0  0
    7.1572    2.4787   -1.8627 C   0  0  0  0  0  0  0  0  0  0  0  0
    7.9230    2.1464   -0.7495 C   0  0  0  0  0  0  0  0  0  0  0  0
    7.4569    1.1896    0.1513 C   0  0  0  0  0  0  0  0  0  0  0  0
    6.2151    0.5628   -0.0551 C   0  0  0  0  0  0  0  0  0  0  0  0
    5.8103   -0.5088    0.8836 C   0  0  0  0  0  0  0  0  0  0  0  0
    5.3192   -1.5855    0.6062 O   0  0  0  0  0  0  0  0  0  0  0  0
    6.0727   -0.1637    2.1590 O   0  0  0  0  0  0  0  0  0  0  0  0
    3.2553    0.3362   -0.3523 O   0  0  0  0  0  0  0  0  0  0  0  0
   -1.2724   -0.5378    1.0803 C   0  0  0  0  0  0  0  0  0  0  0  0
   -1.0504   -0.6941    2.2667 O   0  0  0  0  0  0  0  0  0  0  0  0
   -2.5453   -0.4856    0.5583 N   0  0  0  0  0  0  0  0  0  0  0  0
   -6.0441   -0.4805    0.1231 C   0  0  0  0  0  0  0  0  0  0  0  0
   -6.9698   -0.3352   -1.0531 C   0  0  0  0  0  0  0  0  0  0  0  0
   -8.5120    0.2138    1.3773 H   0  0  0  0  0  0  0  0  0  0  0  0
   -8.2637   -0.8711    2.7478 H   0  0  0  0  0  0  0  0  0  0  0  0
   -8.4844   -1.5587    1.1369 H   0  0  0  0  0  0  0  0  0  0  0  0
   -6.0820   -0.9434    3.5321 H   0  0  0  0  0  0  0  0  0  0  0  0
   -3.6262   -0.8646    3.2312 H   0  0  0  0  0  0  0  0  0  0  0  0
    1.3224   -0.4480    1.2332 H   0  0  0  0  0  0  0  0  0  0  0  0
    1.4170   -1.0114   -2.7004 H   0  0  0  0  0  0  0  0  0  0  0  0
    3.8950   -0.2943   -3.5034 H   0  0  0  0  0  0  0  0  0  0  0  0
    5.3300    2.1547   -2.9373 H   0  0  0  0  0  0  0  0  0  0  0  0
    7.5170    3.2243   -2.5679 H   0  0  0  0  0  0  0  0  0  0  0  0
    8.8845    2.6268   -0.5847 H   0  0  0  0  0  0  0  0  0  0  0  0
    8.0697    0.9226    1.0097 H   0  0  0  0  0  0  0  0  0  0  0  0
    5.7407   -0.9273    2.6757 H   0  0  0  0  0  0  0  0  0  0  0  0
   -6.4144   -0.2000   -1.9866 H   0  0  0  0  0  0  0  0  0  0  0  0
   -7.6158    0.5387   -0.9233 H   0  0  0  0  0  0  0  0  0  0  0  0
   -7.5883   -1.2314   -1.1634 H   0  0  0  0  0  0  0  0  0  0  0  0
  1  2  1  0
  2  3  2  0
  3  4  1  0
  4  5  2  0
  5  6  1  0
  6  7  1  0
  7  8  2  0
  8  9  1  0
  9 10  1  0
 10 11  2  3
 11 12  1  0
 12 13  2  0
 13 14  1  0
 14 15  2  0
 15 16  1  0
 16 17  2  0
 17 18  1  0
 18 19  2  0
 19 20  1  0
 20 21  2  0
 21 22  1  0
 22 23  2  0
 22 24  1  0
 15 25  1  0
 10 26  1  0
 26 27  2  0
 26 28  1  0
  6 29  2  0
 29 30  1  0
 29  2  1  0
 28  5  1  0
 28  8  1  0
 25 12  1  0
 21 16  1  0
  1 31  1  0
  1 32  1  0
  1 33  1  0
  3 34  1  0
  4 35  1  0
 11 36  1  0
 13 37  1  0
 14 38  1  0
 17 39  1  0
 18 40  1  0
 19 41  1  0
 20 42  1  0
 24 43  1  0
 30 44  1  0
 30 45  1  0
 30 46  1  0
M  END
$$$$
