
     RDKit          3D

 36 38  0  0  0  0  0  0  0  0999 V2000
    2.3207   -3.0350    0.7840 C   0  0  0  0  0  0  0  0  0  0  0  0
    1.6857   -1.6637    0.5819 C   0  0  0  0  0  0  0  0  0  0  0  0
    2.7371   -0.7111    0.5479 O   0  0  0  0  0  0  0  0  0  0  0  0
    2.3108    0.5244    0.1406 C   0  0  0  0  0  0  0  0  0  0  0  0
    3.1000    1.5994    0.5548 C   0  0  0  0  0  0  0  0  0  0  0  0
    2.7738    2.8949    0.1647 C   0  0  0  0  0  0  0  0  0  0  0  0
    1.6684    3.1103   -0.6530 C   0  0  0  0  0  0  0  0  0  0  0  0
    0.8893    2.0312   -1.0851 C   0  0  0  0  0  0  0  0  0  0  0  0
    1.1981    0.7208   -0.6916 C   0  0  0  0  0  0  0  0  0  0  0  0
    0.4537   -0.4097   -1.1393 N   0  0  0  0  0  0  0  0  0  0  0  0
   -0.5697   -0.2755   -2.1755 C   0  0  0  0  0  0  0  0  0  0  0  0
   -1.9002    0.3089   -1.7049 C   0  0  0  0  0  0  0  0  0  0  0  0
   -2.6591    0.9012   -2.4716 O   0  0  0  0  0  0  0  0  0  0  0  0
   -2.3373    0.1192   -0.3041 C   0  0  0  0  0  0  0  0  0  0  0  0
   -2.4264   -1.1608    0.2537 C   0  0  0  0  0  0  0  0  0  0  0  0
   -2.8437   -1.3068    1.5776 C   0  0  0  0  0  0  0  0  0  0  0  0
   -3.1812   -0.1796    2.3209 C   0  0  0  0  0  0  0  0  0  0  0  0
   -3.5808   -0.3242    3.5907 F   0  0  0  0  0  0  0  0  0  0  0  0
   -3.1195    1.0942    1.7639 C   0  0  0  0  0  0  0  0  0  0  0  0
   -2.7032    1.2468    0.4410 C   0  0  0  0  0  0  0  0  0  0  0  0
    0.7475   -1.6732   -0.6339 C   0  0  0  0  0  0  0  0  0  0  0  0
    0.2138   -2.7013   -1.0513 O   0  0  0  0  0  0  0  0  0  0  0  0
    2.9434   -3.3039   -0.0768 H   0  0  0  0  0  0  0  0  0  0  0  0
    2.9750   -3.0313    1.6624 H   0  0  0  0  0  0  0  0  0  0  0  0
    1.5648   -3.8155    0.9163 H   0  0  0  0  0  0  0  0  0  0  0  0
    1.0609   -1.4506    1.4608 H   0  0  0  0  0  0  0  0  0  0  0  0
    3.9696    1.4234    1.1828 H   0  0  0  0  0  0  0  0  0  0  0  0
    3.3850    3.7326    0.4910 H   0  0  0  0  0  0  0  0  0  0  0  0
    1.4154    4.1208   -0.9664 H   0  0  0  0  0  0  0  0  0  0  0  0
    0.0490    2.2576   -1.7346 H   0  0  0  0  0  0  0  0  0  0  0  0
   -0.7924   -1.2516   -2.6209 H   0  0  0  0  0  0  0  0  0  0  0  0
   -0.1699    0.3515   -2.9808 H   0  0  0  0  0  0  0  0  0  0  0  0
   -2.1929   -2.0465   -0.3328 H   0  0  0  0  0  0  0  0  0  0  0  0
   -2.9183   -2.2910    2.0304 H   0  0  0  0  0  0  0  0  0  0  0  0
   -3.4019    1.9560    2.3606 H   0  0  0  0  0  0  0  0  0  0  0  0
   -2.6656    2.2380   -0.0053 H   0  0  0  0  0  0  0  0  0  0  0  0
  1  2  1  0
  2  3  1  0
  3  4  1  0
  4  5  2  0
  5  6  1  0
  6  7  2  0
  7  8  1  0
  8  9  2  0
  9 10  1  0
 10 11  1  0
 11 12  1  0
 12 13  2  0
 12 14  1  0
 14 15  2  0
 15 16  1  0
 16 17  2  0
 17 18  1  0
 17 19  1  0
 19 20  2  0
 10 21  1  0
 21 22  2  0
 21  2  1  0
  9  4  1  0
 20 14  1  0
  1 23  1  0
  1 24  1  0
  1 25  1  0
  2 26  1  0
  5 27  1  0
  6 28  1  0
  7 29  1  0
  8 30  1  0
 11 31  1  0
 11 32  1  0
 15 33  1  0
 16 34  1  0
 19 35  1  0
 20 36  1  0
M  END
$$$$
