
     RDKit          3D

 50 52  0  0  0  0  0  0  0  0999 V2000
    7.1389   -1.9498    2.0033 C   0  0  0  0  0  0  0  0  0  0  0  0
    5.7684   -1.3418    1.7461 C   0  0  0  0  0  0  0  0  0  0  0  0
    5.7174   -0.6327    0.4342 C   0  0  0  0  0  0  0  0  0  0  0  0
    5.3750   -1.1923   -0.7087 N   0  0  0  0  0  0  0  0  0  0  0  0
    5.4227   -0.2987   -1.7596 N   0  0  0  0  0  0  0  0  0  0  0  0
    5.7557    0.9051   -1.3601 C   0  0  0  0  0  0  0  0  0  0  0  0
    5.8753    1.9664   -2.3337 N   0  0  0  0  0  0  0  0  0  0  0  0
    4.7771    3.2242   -2.1533 S   0  0  0  0  0  6  0  0  0  0  0  0
    5.1786    4.0226   -1.0144 O   0  0  0  0  0  0  0  0  0  0  0  0
    4.6213    3.8199   -3.4638 O   0  0  0  0  0  0  0  0  0  0  0  0
    3.2303    2.4389   -1.7615 C   0  0  0  0  0  0  0  0  0  0  0  0
    2.5626    1.7093   -2.7457 C   0  0  0  0  0  0  0  0  0  0  0  0
    1.3447    1.0852   -2.4452 C   0  0  0  0  0  0  0  0  0  0  0  0
    0.7806    1.1941   -1.1734 C   0  0  0  0  0  0  0  0  0  0  0  0
   -0.4382    0.6159   -0.7554 N   0  0  0  0  0  0  0  0  0  0  0  0
   -1.3520   -0.2231   -1.3489 C   0  0  0  0  0  0  0  0  0  0  0  0
   -1.3329   -0.9512   -2.8498 S   0  0  0  0  0  0  0  0  0  0  0  0
   -2.4628   -0.5117   -0.5669 N   0  0  0  0  0  0  0  0  0  0  0  0
   -2.7643   -0.0780    0.7083 C   0  0  0  0  0  0  0  0  0  0  0  0
   -2.0002    0.5658    1.4213 O   0  0  0  0  0  0  0  0  0  0  0  0
   -4.0749   -0.5264    1.2355 C   0  0  0  0  0  0  0  0  0  0  0  0
   -5.1903   -0.5710    0.4893 C   0  0  0  0  0  0  0  0  0  0  0  0
   -6.5062   -0.9880    1.0004 C   0  0  0  0  0  0  0  0  0  0  0  0
   -6.9127   -0.7592    2.3224 C   0  0  0  0  0  0  0  0  0  0  0  0
   -8.1817   -1.1549    2.7553 C   0  0  0  0  0  0  0  0  0  0  0  0
   -9.0627   -1.7722    1.8696 C   0  0  0  0  0  0  0  0  0  0  0  0
   -8.6800   -1.9865    0.5478 C   0  0  0  0  0  0  0  0  0  0  0  0
   -7.4109   -1.5928    0.1146 C   0  0  0  0  0  0  0  0  0  0  0  0
    1.4584    1.9561   -0.2051 C   0  0  0  0  0  0  0  0  0  0  0  0
    2.6753    2.5800   -0.4914 C   0  0  0  0  0  0  0  0  0  0  0  0
    6.1136    1.0364    0.3025 S   0  0  0  0  0  0  0  0  0  0  0  0
    7.1350   -2.5051    2.9464 H   0  0  0  0  0  0  0  0  0  0  0  0
    7.4215   -2.6431    1.2025 H   0  0  0  0  0  0  0  0  0  0  0  0
    7.9154   -1.1801    2.0672 H   0  0  0  0  0  0  0  0  0  0  0  0
    5.0160   -2.1403    1.7473 H   0  0  0  0  0  0  0  0  0  0  0  0
    5.5052   -0.6615    2.5653 H   0  0  0  0  0  0  0  0  0  0  0  0
    5.8760    1.6183   -3.2897 H   0  0  0  0  0  0  0  0  0  0  0  0
    2.9735    1.6167   -3.7489 H   0  0  0  0  0  0  0  0  0  0  0  0
    0.8708    0.5343   -3.2466 H   0  0  0  0  0  0  0  0  0  0  0  0
   -0.6940    0.8523    0.2050 H   0  0  0  0  0  0  0  0  0  0  0  0
   -3.1176   -1.1324   -1.0238 H   0  0  0  0  0  0  0  0  0  0  0  0
   -4.0683   -0.7587    2.2949 H   0  0  0  0  0  0  0  0  0  0  0  0
   -5.1752   -0.2859   -0.5599 H   0  0  0  0  0  0  0  0  0  0  0  0
   -6.2584   -0.2584    3.0327 H   0  0  0  0  0  0  0  0  0  0  0  0
   -8.4823   -0.9786    3.7863 H   0  0  0  0  0  0  0  0  0  0  0  0
  -10.0495   -2.0786    2.2077 H   0  0  0  0  0  0  0  0  0  0  0  0
   -9.3695   -2.4603   -0.1482 H   0  0  0  0  0  0  0  0  0  0  0  0
   -7.1375   -1.7706   -0.9239 H   0  0  0  0  0  0  0  0  0  0  0  0
    1.0414    2.0748    0.7939 H   0  0  0  0  0  0  0  0  0  0  0  0
    3.1716    3.1677    0.2779 H   0  0  0  0  0  0  0  0  0  0  0  0
  1  2  1  0
  2  3  1  0
  3  4  2  0
  4  5  1  0
  5  6  2  0
  6  7  1  0
  7  8  1  0
  8  9  2  0
  8 10  2  0
  8 11  1  0
 11 12  2  0
 12 13  1  0
 13 14  2  0
 14 15  1  0
 15 16  1  0
 16 17  2  0
 16 18  1  0
 18 19  1  0
 19 20  2  0
 19 21  1  0
 21 22  2  3
 22 23  1  0
 23 24  2  0
 24 25  1  0
 25 26  2  0
 26 27  1  0
 27 28  2  0
 14 29  1  0
 29 30  2  0
  6 31  1  0
 31  3  1  0
 30 11  1  0
 28 23  1  0
  1 32  1  0
  1 33  1  0
  1 34  1  0
  2 35  1  0
  2 36  1  0
  7 37  1  0
 12 38  1  0
 13 39  1  0
 15 40  1  0
 18 41  1  0
 21 42  1  0
 22 43  1  0
 24 44  1  0
 25 45  1  0
 26 46  1  0
 27 47  1  0
 28 48  1  0
 29 49  1  0
 30 50  1  0
M  END
$$$$
