
     RDKit          3D

 52 55  0  0  0  0  0  0  0  0999 V2000
   -1.8786    0.6446   -0.1052 O   0  0  0  0  0  0  0  0  0  0  0  0
   -1.1484   -0.3304    0.0818 C   0  0  0  0  0  0  0  0  0  0  0  0
   -1.6702   -1.5948    0.2998 N   0  0  0  0  0  0  0  0  0  0  0  0
   -3.0952   -1.8396    0.2878 C   0  0  0  0  0  0  0  0  0  0  0  0
   -3.4347   -3.3163    0.1288 C   0  0  0  0  0  0  0  0  0  0  0  0
   -4.8905   -3.3826    0.5636 C   0  0  0  0  0  0  0  0  0  0  0  0
   -5.0286   -2.3390    1.6709 C   0  0  0  0  0  0  0  0  0  0  0  0
   -3.7693   -1.4748    1.6095 C   0  0  0  0  0  0  0  0  0  0  0  0
    0.3920   -0.1971    0.2460 C   0  0  0  0  0  0  0  0  0  0  0  0
    1.2492   -1.3956   -0.1633 C   0  0  0  0  0  0  0  0  0  0  0  0
    2.3767   -1.7287    0.6024 C   0  0  0  0  0  0  0  0  0  0  0  0
    3.1511   -2.8155    0.2260 C   0  0  0  0  0  0  0  0  0  0  0  0
    2.8889   -3.5852   -0.8488 N   0  0  0  0  0  0  0  0  0  0  0  0
    1.8194   -3.2382   -1.5946 C   0  0  0  0  0  0  0  0  0  0  0  0
    0.9832   -2.1733   -1.2961 C   0  0  0  0  0  0  0  0  0  0  0  0
    0.8867    1.0909   -0.2920 N   0  0  0  0  0  0  0  0  0  0  0  0
    0.6869    1.3438   -1.6676 C   0  0  0  0  0  0  0  0  0  0  0  0
    0.3042    0.4553   -2.4309 O   0  0  0  0  0  0  0  0  0  0  0  0
    0.8604    2.7122   -2.1414 C   0  0  0  0  0  0  0  0  0  0  0  0
    0.7003    3.9516   -1.5429 C   0  0  0  0  0  0  0  0  0  0  0  0
    0.9949    4.9274   -2.5254 C   0  0  0  0  0  0  0  0  0  0  0  0
    1.3025    4.2334   -3.6697 C   0  0  0  0  0  0  0  0  0  0  0  0
    1.2187    2.8972   -3.4531 O   0  0  0  0  0  0  0  0  0  0  0  0
    1.8596    1.7851    0.4937 C   0  0  0  0  0  0  0  0  0  0  0  0
    3.0934    2.1650   -0.0530 C   0  0  0  0  0  0  0  0  0  0  0  0
    4.0465    2.8199    0.7308 C   0  0  0  0  0  0  0  0  0  0  0  0
    3.7779    3.1011    2.0680 C   0  0  0  0  0  0  0  0  0  0  0  0
    2.5568    2.7276    2.6237 C   0  0  0  0  0  0  0  0  0  0  0  0
    1.6037    2.0701    1.8421 C   0  0  0  0  0  0  0  0  0  0  0  0
   -1.0525   -2.3409    0.5969 H   0  0  0  0  0  0  0  0  0  0  0  0
   -3.5484   -1.2616   -0.5280 H   0  0  0  0  0  0  0  0  0  0  0  0
   -2.8152   -3.9377    0.7877 H   0  0  0  0  0  0  0  0  0  0  0  0
   -3.2897   -3.6700   -0.8967 H   0  0  0  0  0  0  0  0  0  0  0  0
   -5.5433   -3.1162   -0.2763 H   0  0  0  0  0  0  0  0  0  0  0  0
   -5.1757   -4.3836    0.9007 H   0  0  0  0  0  0  0  0  0  0  0  0
   -5.9309   -1.7368    1.5192 H   0  0  0  0  0  0  0  0  0  0  0  0
   -5.1152   -2.8157    2.6534 H   0  0  0  0  0  0  0  0  0  0  0  0
   -3.1178   -1.7138    2.4597 H   0  0  0  0  0  0  0  0  0  0  0  0
   -4.0019   -0.4067    1.6719 H   0  0  0  0  0  0  0  0  0  0  0  0
    0.4713   -0.1591    1.3420 H   0  0  0  0  0  0  0  0  0  0  0  0
    2.6597   -1.1509    1.4772 H   0  0  0  0  0  0  0  0  0  0  0  0
    4.0305   -3.1010    0.7964 H   0  0  0  0  0  0  0  0  0  0  0  0
    1.6440   -3.8554   -2.4714 H   0  0  0  0  0  0  0  0  0  0  0  0
    0.1477   -1.9562   -1.9564 H   0  0  0  0  0  0  0  0  0  0  0  0
    0.3943    4.1262   -0.5206 H   0  0  0  0  0  0  0  0  0  0  0  0
    0.9726    6.0024   -2.4162 H   0  0  0  0  0  0  0  0  0  0  0  0
    1.5807    4.5260   -4.6727 H   0  0  0  0  0  0  0  0  0  0  0  0
    3.3469    1.9320   -1.0851 H   0  0  0  0  0  0  0  0  0  0  0  0
    5.0008    3.1059    0.2951 H   0  0  0  0  0  0  0  0  0  0  0  0
    4.5194    3.6144    2.6754 H   0  0  0  0  0  0  0  0  0  0  0  0
    2.3412    2.9576    3.6643 H   0  0  0  0  0  0  0  0  0  0  0  0
    0.6443    1.8270    2.2924 H   0  0  0  0  0  0  0  0  0  0  0  0
  1  2  2  0
  2  3  1  0
  3  4  1  0
  4  5  1  0
  5  6  1  0
  6  7  1  0
  7  8  1  0
  2  9  1  0
  9 10  1  0
 10 11  2  0
 11 12  1  0
 12 13  2  0
 13 14  1  0
 14 15  2  0
  9 16  1  0
 16 17  1  0
 17 18  2  0
 17 19  1  0
 19 20  2  0
 20 21  1  0
 21 22  2  0
 22 23  1  0
 16 24  1  0
 24 25  2  0
 25 26  1  0
 26 27  2  0
 27 28  1  0
 28 29  2  0
  8  4  1  0
 15 10  1  0
 23 19  1  0
 29 24  1  0
  3 30  1  0
  4 31  1  0
  5 32  1  0
  5 33  1  0
  6 34  1  0
  6 35  1  0
  7 36  1  0
  7 37  1  0
  8 38  1  0
  8 39  1  0
  9 40  1  0
 11 41  1  0
 12 42  1  0
 14 43  1  0
 15 44  1  0
 20 45  1  0
 21 46  1  0
 22 47  1  0
 25 48  1  0
 26 49  1  0
 27 50  1  0
 28 51  1  0
 29 52  1  0
M  END
$$$$
