
     RDKit          3D

 39 40  0  0  0  0  0  0  0  0999 V2000
    7.1371    0.5581   -0.9837 C   0  0  0  0  0  0  0  0  0  0  0  0
    5.7772    0.1309   -1.0668 O   0  0  0  0  0  0  0  0  0  0  0  0
    4.9586    0.7270   -0.1673 C   0  0  0  0  0  0  0  0  0  0  0  0
    5.2991    1.5507    0.6676 O   0  0  0  0  0  0  0  0  0  0  0  0
    3.6957    0.2530   -0.3317 N   0  0  0  0  0  0  0  0  0  0  0  0
    2.6405    0.5957    0.5819 C   0  0  0  0  0  0  0  0  0  0  0  0
    1.3094    0.1074    0.0742 C   0  0  0  0  0  0  0  0  0  0  0  0
    0.7735   -1.1062    0.5305 C   0  0  0  0  0  0  0  0  0  0  0  0
   -0.4471   -1.5710    0.0374 C   0  0  0  0  0  0  0  0  0  0  0  0
   -1.1429   -0.8134   -0.9088 C   0  0  0  0  0  0  0  0  0  0  0  0
   -2.6782   -1.4236   -1.5688 S   0  0  0  0  0  6  0  0  0  0  0  0
   -2.8397   -0.8418   -2.8846 O   0  0  0  0  0  0  0  0  0  0  0  0
   -2.6819   -2.8596   -1.3840 O   0  0  0  0  0  0  0  0  0  0  0  0
   -3.8447   -0.7608   -0.5545 N   0  0  0  0  0  0  0  0  0  0  0  0
   -4.0507   -1.3120    0.8071 C   0  0  0  0  0  0  0  0  0  0  0  0
   -3.4676   -0.3909    1.8821 C   0  0  0  0  0  0  0  0  0  0  0  0
   -3.9692    0.9459    1.7559 O   0  0  0  0  0  0  0  0  0  0  0  0
   -3.6152    1.4962    0.4805 C   0  0  0  0  0  0  0  0  0  0  0  0
   -4.2053    0.6736   -0.6682 C   0  0  0  0  0  0  0  0  0  0  0  0
   -0.6024    0.3768   -1.4027 C   0  0  0  0  0  0  0  0  0  0  0  0
    0.6177    0.8369   -0.9054 C   0  0  0  0  0  0  0  0  0  0  0  0
    7.5584    0.3091   -0.0046 H   0  0  0  0  0  0  0  0  0  0  0  0
    7.2151    1.6323   -1.1786 H   0  0  0  0  0  0  0  0  0  0  0  0
    7.7067    0.0256   -1.7505 H   0  0  0  0  0  0  0  0  0  0  0  0
    3.5887   -0.5198   -0.9734 H   0  0  0  0  0  0  0  0  0  0  0  0
    2.6220    1.6827    0.7259 H   0  0  0  0  0  0  0  0  0  0  0  0
    2.8739    0.1519    1.5570 H   0  0  0  0  0  0  0  0  0  0  0  0
    1.3110   -1.7020    1.2664 H   0  0  0  0  0  0  0  0  0  0  0  0
   -0.8416   -2.5225    0.3876 H   0  0  0  0  0  0  0  0  0  0  0  0
   -5.1340   -1.4039    0.9535 H   0  0  0  0  0  0  0  0  0  0  0  0
   -3.6314   -2.3173    0.9054 H   0  0  0  0  0  0  0  0  0  0  0  0
   -2.3741   -0.3637    1.8442 H   0  0  0  0  0  0  0  0  0  0  0  0
   -3.7511   -0.7576    2.8738 H   0  0  0  0  0  0  0  0  0  0  0  0
   -2.5248    1.5627    0.4143 H   0  0  0  0  0  0  0  0  0  0  0  0
   -4.0078    2.5173    0.4412 H   0  0  0  0  0  0  0  0  0  0  0  0
   -5.3002    0.7309   -0.6333 H   0  0  0  0  0  0  0  0  0  0  0  0
   -3.8966    1.0944   -1.6294 H   0  0  0  0  0  0  0  0  0  0  0  0
   -1.1165    0.9440   -2.1758 H   0  0  0  0  0  0  0  0  0  0  0  0
    1.0385    1.7631   -1.2944 H   0  0  0  0  0  0  0  0  0  0  0  0
  1  2  1  0
  2  3  1  0
  3  4  2  0
  3  5  1  0
  5  6  1  0
  6  7  1  0
  7  8  2  0
  8  9  1  0
  9 10  2  0
 10 11  1  0
 11 12  2  0
 11 13  2  0
 11 14  1  0
 14 15  1  0
 15 16  1  0
 16 17  1  0
 17 18  1  0
 18 19  1  0
 10 20  1  0
 20 21  2  0
 21  7  1  0
 19 14  1  0
  1 22  1  0
  1 23  1  0
  1 24  1  0
  5 25  1  0
  6 26  1  0
  6 27  1  0
  8 28  1  0
  9 29  1  0
 15 30  1  0
 15 31  1  0
 16 32  1  0
 16 33  1  0
 18 34  1  0
 18 35  1  0
 19 36  1  0
 19 37  1  0
 20 38  1  0
 21 39  1  0
M  END
$$$$
