
     RDKit          3D

 45 47  0  0  0  0  0  0  0  0999 V2000
    2.3785    1.0088    0.6558 O   0  0  0  0  0  0  0  0  0  0  0  0
    1.2991    0.4891    0.4221 C   0  0  0  0  0  0  0  0  0  0  0  0
    0.6418   -0.4381    1.1898 N   0  0  0  0  0  0  0  0  0  0  0  0
    1.2595   -1.0409    2.3444 C   0  0  0  0  0  0  0  0  0  0  0  0
    1.9380   -2.2851    1.9052 C   0  0  0  0  0  0  0  0  0  0  0  0
    3.1598   -2.5377    1.3135 C   0  0  0  0  0  0  0  0  0  0  0  0
    3.2221   -3.9371    1.1096 C   0  0  0  0  0  0  0  0  0  0  0  0
    2.0399   -4.4486    1.5935 C   0  0  0  0  0  0  0  0  0  0  0  0
    1.2516   -3.4539    2.0755 O   0  0  0  0  0  0  0  0  0  0  0  0
    0.5655    0.8491   -0.8638 C   0  0  0  0  0  0  0  0  0  0  0  0
    0.7212   -0.1655   -1.9390 C   0  0  0  0  0  0  0  0  0  0  0  0
   -0.3130   -0.6669   -2.6319 C   0  0  0  0  0  0  0  0  0  0  0  0
   -1.7717   -0.3349   -2.4563 C   0  0  0  0  0  0  0  0  0  0  0  0
   -2.3692   -1.0061   -1.2372 C   0  0  0  0  0  0  0  0  0  0  0  0
   -2.5178   -2.4013   -1.1894 C   0  0  0  0  0  0  0  0  0  0  0  0
   -3.0257   -3.0235   -0.0461 C   0  0  0  0  0  0  0  0  0  0  0  0
   -3.3937   -2.2578    1.0590 C   0  0  0  0  0  0  0  0  0  0  0  0
   -3.2592   -0.8701    1.0208 C   0  0  0  0  0  0  0  0  0  0  0  0
   -2.7546   -0.2485   -0.1218 C   0  0  0  0  0  0  0  0  0  0  0  0
   -0.0900    1.9557   -1.0365 N   0  0  0  0  0  0  0  0  0  0  0  0
   -0.1377    2.8158    0.0311 C   0  0  0  0  0  0  0  0  0  0  0  0
   -0.6348    2.5262    1.1149 O   0  0  0  0  0  0  0  0  0  0  0  0
    0.4057    4.1225   -0.2877 C   0  0  0  0  0  0  0  0  0  0  0  0
    0.5041    5.2686    0.4839 C   0  0  0  0  0  0  0  0  0  0  0  0
    1.1099    6.2607   -0.3271 C   0  0  0  0  0  0  0  0  0  0  0  0
    1.3516    5.6646   -1.5427 C   0  0  0  0  0  0  0  0  0  0  0  0
    2.1567    6.5158   -3.0436 Br  0  0  0  0  0  0  0  0  0  0  0  0
    0.9326    4.3717   -1.5304 O   0  0  0  0  0  0  0  0  0  0  0  0
   -0.2157   -0.8566    0.8419 H   0  0  0  0  0  0  0  0  0  0  0  0
    0.4681   -1.2577    3.0709 H   0  0  0  0  0  0  0  0  0  0  0  0
    1.9759   -0.3477    2.7999 H   0  0  0  0  0  0  0  0  0  0  0  0
    3.9035   -1.7937    1.0544 H   0  0  0  0  0  0  0  0  0  0  0  0
    4.0280   -4.5039    0.6650 H   0  0  0  0  0  0  0  0  0  0  0  0
    1.6259   -5.4455    1.6605 H   0  0  0  0  0  0  0  0  0  0  0  0
    1.7304   -0.5327   -2.0985 H   0  0  0  0  0  0  0  0  0  0  0  0
   -0.0983   -1.4252   -3.3832 H   0  0  0  0  0  0  0  0  0  0  0  0
   -2.3235   -0.6684   -3.3466 H   0  0  0  0  0  0  0  0  0  0  0  0
   -1.9242    0.7499   -2.4227 H   0  0  0  0  0  0  0  0  0  0  0  0
   -2.2296   -3.0134   -2.0418 H   0  0  0  0  0  0  0  0  0  0  0  0
   -3.1341   -4.1070   -0.0183 H   0  0  0  0  0  0  0  0  0  0  0  0
   -3.7879   -2.7423    1.9479 H   0  0  0  0  0  0  0  0  0  0  0  0
   -3.5471   -0.2698    1.8814 H   0  0  0  0  0  0  0  0  0  0  0  0
   -2.6519    0.8345   -0.1274 H   0  0  0  0  0  0  0  0  0  0  0  0
    0.1696    5.3638    1.5082 H   0  0  0  0  0  0  0  0  0  0  0  0
    1.3407    7.2829   -0.0574 H   0  0  0  0  0  0  0  0  0  0  0  0
  1  2  2  0
  2  3  1  0
  3  4  1  0
  4  5  1  0
  5  6  2  0
  6  7  1  0
  7  8  2  0
  8  9  1  0
  2 10  1  0
 10 11  1  0
 11 12  2  3
 12 13  1  0
 13 14  1  0
 14 15  2  0
 15 16  1  0
 16 17  2  0
 17 18  1  0
 18 19  2  0
 10 20  2  3
 20 21  1  0
 21 22  2  0
 21 23  1  0
 23 24  2  0
 24 25  1  0
 25 26  2  0
 26 27  1  0
 26 28  1  0
  9  5  1  0
 19 14  1  0
 28 23  1  0
  3 29  1  0
  4 30  1  0
  4 31  1  0
  6 32  1  0
  7 33  1  0
  8 34  1  0
 11 35  1  0
 12 36  1  0
 13 37  1  0
 13 38  1  0
 15 39  1  0
 16 40  1  0
 17 41  1  0
 18 42  1  0
 19 43  1  0
 24 44  1  0
 25 45  1  0
M  END
$$$$
