
     RDKit          3D

 54 55  0  0  0  0  0  0  0  0999 V2000
   -1.1286    3.8363    0.8376 C   0  0  0  0  0  0  0  0  0  0  0  0
   -1.5428    2.4798    0.7267 O   0  0  0  0  0  0  0  0  0  0  0  0
   -0.6406    1.5279    1.1270 C   0  0  0  0  0  0  0  0  0  0  0  0
    0.7444    1.7282    1.1596 C   0  0  0  0  0  0  0  0  0  0  0  0
    1.6087    0.7061    1.5874 C   0  0  0  0  0  0  0  0  0  0  0  0
    3.1050    0.9197    1.6087 C   0  0  0  0  0  0  0  0  0  0  0  0
    3.6887    0.2901    0.4342 N   0  0  0  0  0  0  0  0  0  0  0  0
    5.0466    0.4603    0.1551 C   0  0  0  0  0  0  0  0  0  0  0  0
    6.0010    0.8007    1.1212 C   0  0  0  0  0  0  0  0  0  0  0  0
    7.3625    0.8884    0.7998 C   0  0  0  0  0  0  0  0  0  0  0  0
    7.7981    0.6066   -0.4972 C   0  0  0  0  0  0  0  0  0  0  0  0
    9.2264    0.6829   -0.8865 C   0  0  0  0  0  0  0  0  0  0  0  0
    9.6778    0.4497   -1.9925 O   0  0  0  0  0  0  0  0  0  0  0  0
   10.0260    1.0521    0.1299 O   0  0  0  0  0  0  0  0  0  0  0  0
    6.8644    0.2253   -1.4627 C   0  0  0  0  0  0  0  0  0  0  0  0
    5.5076    0.1411   -1.1310 C   0  0  0  0  0  0  0  0  0  0  0  0
    1.0706   -0.5330    1.9636 C   0  0  0  0  0  0  0  0  0  0  0  0
   -0.3082   -0.7444    1.9237 C   0  0  0  0  0  0  0  0  0  0  0  0
   -0.9707   -2.4413    2.4552 Br  0  0  0  0  0  0  0  0  0  0  0  0
   -1.1629    0.2744    1.4878 C   0  0  0  0  0  0  0  0  0  0  0  0
   -2.5214    0.0656    1.4970 O   0  0  0  0  0  0  0  0  0  0  0  0
   -3.0032   -0.1962    0.1822 C   0  0  0  0  0  0  0  0  0  0  0  0
   -4.4459   -0.7150    0.2028 C   0  0  0  0  0  0  0  0  0  0  0  0
   -5.0969   -0.8806    1.2285 O   0  0  0  0  0  0  0  0  0  0  0  0
   -4.9368   -0.9814   -1.0672 N   0  0  0  0  0  0  0  0  0  0  0  0
   -6.2933   -1.4721   -1.3566 C   0  0  0  0  0  0  0  0  0  0  0  0
   -6.4196   -1.6484   -2.8815 C   0  0  0  0  0  0  0  0  0  0  0  0
   -7.3531   -0.4588   -0.8971 C   0  0  0  0  0  0  0  0  0  0  0  0
   -6.5409   -2.8364   -0.6932 C   0  0  0  0  0  0  0  0  0  0  0  0
   -2.0136    4.4670    0.7096 H   0  0  0  0  0  0  0  0  0  0  0  0
   -0.7060    4.0503    1.8252 H   0  0  0  0  0  0  0  0  0  0  0  0
   -0.4212    4.0912    0.0423 H   0  0  0  0  0  0  0  0  0  0  0  0
    1.1757    2.6749    0.8473 H   0  0  0  0  0  0  0  0  0  0  0  0
    3.3250    1.9945    1.6247 H   0  0  0  0  0  0  0  0  0  0  0  0
    3.5076    0.4846    2.5316 H   0  0  0  0  0  0  0  0  0  0  0  0
    3.1106    0.3938   -0.3961 H   0  0  0  0  0  0  0  0  0  0  0  0
    5.7123    1.0010    2.1487 H   0  0  0  0  0  0  0  0  0  0  0  0
    8.0719    1.1666    1.5754 H   0  0  0  0  0  0  0  0  0  0  0  0
   10.9220    1.0558   -0.2675 H   0  0  0  0  0  0  0  0  0  0  0  0
    7.1856   -0.0185   -2.4733 H   0  0  0  0  0  0  0  0  0  0  0  0
    4.8056   -0.1832   -1.8961 H   0  0  0  0  0  0  0  0  0  0  0  0
    1.7374   -1.3327    2.2816 H   0  0  0  0  0  0  0  0  0  0  0  0
   -2.3880   -0.9591   -0.3130 H   0  0  0  0  0  0  0  0  0  0  0  0
   -2.9971    0.7234   -0.4141 H   0  0  0  0  0  0  0  0  0  0  0  0
   -4.3448   -0.7555   -1.8560 H   0  0  0  0  0  0  0  0  0  0  0  0
   -6.2518   -0.6993   -3.4040 H   0  0  0  0  0  0  0  0  0  0  0  0
   -7.4132   -2.0153   -3.1622 H   0  0  0  0  0  0  0  0  0  0  0  0
   -5.6780   -2.3623   -3.2589 H   0  0  0  0  0  0  0  0  0  0  0  0
   -8.3595   -0.7790   -1.1898 H   0  0  0  0  0  0  0  0  0  0  0  0
   -7.1715    0.5275   -1.3395 H   0  0  0  0  0  0  0  0  0  0  0  0
   -7.3554   -0.3326    0.1903 H   0  0  0  0  0  0  0  0  0  0  0  0
   -5.7686   -3.5591   -0.9808 H   0  0  0  0  0  0  0  0  0  0  0  0
   -6.5348   -2.7700    0.3992 H   0  0  0  0  0  0  0  0  0  0  0  0
   -7.5132   -3.2480   -0.9873 H   0  0  0  0  0  0  0  0  0  0  0  0
  1  2  1  0
  2  3  1  0
  3  4  2  0
  4  5  1  0
  5  6  1  0
  6  7  1  0
  7  8  1  0
  8  9  2  0
  9 10  1  0
 10 11  2  0
 11 12  1  0
 12 13  2  0
 12 14  1  0
 11 15  1  0
 15 16  2  0
  5 17  2  0
 17 18  1  0
 18 19  1  0
 18 20  2  0
 20 21  1  0
 21 22  1  0
 22 23  1  0
 23 24  2  0
 23 25  1  0
 25 26  1  0
 26 27  1  0
 26 28  1  0
 26 29  1  0
 20  3  1  0
 16  8  1  0
  1 30  1  0
  1 31  1  0
  1 32  1  0
  4 33  1  0
  6 34  1  0
  6 35  1  0
  7 36  1  0
  9 37  1  0
 10 38  1  0
 14 39  1  0
 15 40  1  0
 16 41  1  0
 17 42  1  0
 22 43  1  0
 22 44  1  0
 25 45  1  0
 27 46  1  0
 27 47  1  0
 27 48  1  0
 28 49  1  0
 28 50  1  0
 28 51  1  0
 29 52  1  0
 29 53  1  0
 29 54  1  0
M  END
$$$$
