
     RDKit          3D

 48 50  0  0  0  0  0  0  0  0999 V2000
   -0.8573    4.8360   -2.2550 C   0  0  0  0  0  0  0  0  0  0  0  0
   -1.8992    3.8759   -1.7141 C   0  0  0  0  0  0  0  0  0  0  0  0
   -1.2153    2.7197   -1.2117 O   0  0  0  0  0  0  0  0  0  0  0  0
   -2.0217    1.7987   -0.6009 C   0  0  0  0  0  0  0  0  0  0  0  0
   -3.2346    1.9355   -0.4958 O   0  0  0  0  0  0  0  0  0  0  0  0
   -1.2871    0.6314   -0.0808 C   0  0  0  0  0  0  0  0  0  0  0  0
    0.0900    0.4466   -0.1849 C   0  0  0  0  0  0  0  0  0  0  0  0
    0.9957    1.3063   -0.7931 N   0  0  0  0  0  0  0  0  0  0  0  0
    2.3494    1.2748   -1.0183 C   0  0  0  0  0  0  0  0  0  0  0  0
    2.9573    2.6663   -1.7293 S   0  0  0  0  0  0  0  0  0  0  0  0
    3.0186    0.1290   -0.7004 N   0  0  0  0  0  0  0  0  0  0  0  0
    4.3868   -0.2218   -0.6673 C   0  0  0  0  0  0  0  0  0  0  0  0
    5.4518    0.6782   -0.6819 C   0  0  0  0  0  0  0  0  0  0  0  0
    6.7739    0.2210   -0.6323 C   0  0  0  0  0  0  0  0  0  0  0  0
    7.0467   -1.1423   -0.5556 C   0  0  0  0  0  0  0  0  0  0  0  0
    5.9953   -2.0515   -0.5192 C   0  0  0  0  0  0  0  0  0  0  0  0
    4.6759   -1.5924   -0.5678 C   0  0  0  0  0  0  0  0  0  0  0  0
    0.6029   -0.9820    0.5679 S   0  0  0  0  0  0  0  0  0  0  0  0
   -0.9681   -1.4059    1.0566 C   0  0  0  0  0  0  0  0  0  0  0  0
   -1.9080   -0.4895    0.6192 C   0  0  0  0  0  0  0  0  0  0  0  0
   -3.3877   -0.6265    0.9054 C   0  0  0  0  0  0  0  0  0  0  0  0
   -3.8614   -2.0421    1.3160 C   0  0  0  0  0  0  0  0  0  0  0  0
   -5.2893   -1.9479    1.8815 C   0  0  0  0  0  0  0  0  0  0  0  0
   -3.8784   -3.0045    0.1165 C   0  0  0  0  0  0  0  0  0  0  0  0
   -2.7985   -2.7215    2.6633 S   0  0  0  0  0  0  0  0  0  0  0  0
   -1.1789   -2.6661    1.8367 C   0  0  0  0  0  0  0  0  0  0  0  0
   -0.2871    4.3664   -3.0660 H   0  0  0  0  0  0  0  0  0  0  0  0
   -1.3277    5.7475   -2.6364 H   0  0  0  0  0  0  0  0  0  0  0  0
   -0.1379    5.1062   -1.4726 H   0  0  0  0  0  0  0  0  0  0  0  0
   -2.4633    4.3592   -0.9072 H   0  0  0  0  0  0  0  0  0  0  0  0
   -2.5806    3.5757   -2.5194 H   0  0  0  0  0  0  0  0  0  0  0  0
    0.5808    2.1705   -1.1382 H   0  0  0  0  0  0  0  0  0  0  0  0
    2.3921   -0.6477   -0.5268 H   0  0  0  0  0  0  0  0  0  0  0  0
    5.3020    1.7505   -0.6985 H   0  0  0  0  0  0  0  0  0  0  0  0
    7.5903    0.9386   -0.6462 H   0  0  0  0  0  0  0  0  0  0  0  0
    8.0745   -1.4923   -0.5180 H   0  0  0  0  0  0  0  0  0  0  0  0
    6.1984   -3.1175   -0.4537 H   0  0  0  0  0  0  0  0  0  0  0  0
    3.8755   -2.3283   -0.5417 H   0  0  0  0  0  0  0  0  0  0  0  0
   -3.9570   -0.3278    0.0171 H   0  0  0  0  0  0  0  0  0  0  0  0
   -3.6342    0.0945    1.6971 H   0  0  0  0  0  0  0  0  0  0  0  0
   -5.6753   -2.9297    2.1819 H   0  0  0  0  0  0  0  0  0  0  0  0
   -5.9780   -1.5471    1.1282 H   0  0  0  0  0  0  0  0  0  0  0  0
   -5.3411   -1.2837    2.7532 H   0  0  0  0  0  0  0  0  0  0  0  0
   -4.5631   -2.6394   -0.6583 H   0  0  0  0  0  0  0  0  0  0  0  0
   -2.8970   -3.1117   -0.3568 H   0  0  0  0  0  0  0  0  0  0  0  0
   -4.2221   -4.0043    0.4065 H   0  0  0  0  0  0  0  0  0  0  0  0
   -1.0923   -3.5366    1.1773 H   0  0  0  0  0  0  0  0  0  0  0  0
   -0.4157   -2.7684    2.6164 H   0  0  0  0  0  0  0  0  0  0  0  0
  1  2  1  0
  2  3  1  0
  3  4  1  0
  4  5  2  0
  4  6  1  0
  6  7  2  0
  7  8  1  0
  8  9  1  0
  9 10  2  0
  9 11  1  0
 11 12  1  0
 12 13  2  0
 13 14  1  0
 14 15  2  0
 15 16  1  0
 16 17  2  0
  7 18  1  0
 18 19  1  0
 19 20  2  0
 20 21  1  0
 21 22  1  0
 22 23  1  0
 22 24  1  0
 22 25  1  0
 25 26  1  0
 20  6  1  0
 17 12  1  0
 26 19  1  0
  1 27  1  0
  1 28  1  0
  1 29  1  0
  2 30  1  0
  2 31  1  0
  8 32  1  0
 11 33  1  0
 13 34  1  0
 14 35  1  0
 15 36  1  0
 16 37  1  0
 17 38  1  0
 21 39  1  0
 21 40  1  0
 23 41  1  0
 23 42  1  0
 23 43  1  0
 24 44  1  0
 24 45  1  0
 24 46  1  0
 26 47  1  0
 26 48  1  0
M  END
$$$$
