
     RDKit          3D

 45 47  0  0  0  0  0  0  0  0999 V2000
   -3.2340   -0.5181   -2.1657 C   0  0  0  0  0  0  0  0  0  0  0  0
   -3.5874    0.3955   -0.9944 C   0  0  0  0  0  0  0  0  0  0  0  0
   -3.5479   -0.1997    0.3617 N   0  0  0  0  0  0  0  0  0  0  0  0
   -4.5174   -1.3046    0.4819 C   0  0  0  0  0  0  0  0  0  0  0  0
   -4.8988   -1.5800    1.9331 C   0  0  0  0  0  0  0  0  0  0  0  0
   -2.1814   -0.6340    0.7439 C   0  0  0  0  0  0  0  0  0  0  0  0
   -1.2216    0.5199    0.9729 C   0  0  0  0  0  0  0  0  0  0  0  0
   -1.6189    1.6780    1.6645 C   0  0  0  0  0  0  0  0  0  0  0  0
   -2.9099    1.8576    2.0814 O   0  0  0  0  0  0  0  0  0  0  0  0
   -0.7260    2.7084    1.9482 C   0  0  0  0  0  0  0  0  0  0  0  0
    0.5998    2.6040    1.5380 C   0  0  0  0  0  0  0  0  0  0  0  0
    1.0228    1.4614    0.8518 C   0  0  0  0  0  0  0  0  0  0  0  0
    2.4288    1.3406    0.4194 C   0  0  0  0  0  0  0  0  0  0  0  0
    3.2323    2.2363    0.6529 O   0  0  0  0  0  0  0  0  0  0  0  0
    2.8012    0.0934   -0.3036 C   0  0  0  0  0  0  0  0  0  0  0  0
    4.1713   -0.1685   -0.7831 C   0  0  0  0  0  0  0  0  0  0  0  0
    5.2694    0.0032    0.0712 C   0  0  0  0  0  0  0  0  0  0  0  0
    6.5686   -0.2524   -0.3751 C   0  0  0  0  0  0  0  0  0  0  0  0
    6.7863   -0.6807   -1.6825 C   0  0  0  0  0  0  0  0  0  0  0  0
    5.7068   -0.8488   -2.5464 C   0  0  0  0  0  0  0  0  0  0  0  0
    4.4073   -0.5928   -2.1008 C   0  0  0  0  0  0  0  0  0  0  0  0
    1.8318   -0.8178   -0.4765 C   0  0  0  0  0  0  0  0  0  0  0  0
    0.5236   -0.7181   -0.0754 O   0  0  0  0  0  0  0  0  0  0  0  0
    0.1257    0.4244    0.5774 C   0  0  0  0  0  0  0  0  0  0  0  0
   -3.3494    0.0307   -3.1066 H   0  0  0  0  0  0  0  0  0  0  0  0
   -3.8911   -1.3913   -2.2146 H   0  0  0  0  0  0  0  0  0  0  0  0
   -2.1972   -0.8628   -2.1164 H   0  0  0  0  0  0  0  0  0  0  0  0
   -2.9332    1.2749   -1.0292 H   0  0  0  0  0  0  0  0  0  0  0  0
   -4.5956    0.7968   -1.1610 H   0  0  0  0  0  0  0  0  0  0  0  0
   -5.4462   -1.0360   -0.0375 H   0  0  0  0  0  0  0  0  0  0  0  0
   -4.1427   -2.2230    0.0139 H   0  0  0  0  0  0  0  0  0  0  0  0
   -4.0626   -1.9815    2.5122 H   0  0  0  0  0  0  0  0  0  0  0  0
   -5.7072   -2.3178    1.9710 H   0  0  0  0  0  0  0  0  0  0  0  0
   -5.2550   -0.6692    2.4262 H   0  0  0  0  0  0  0  0  0  0  0  0
   -1.7940   -1.3498    0.0118 H   0  0  0  0  0  0  0  0  0  0  0  0
   -2.2102   -1.1696    1.7003 H   0  0  0  0  0  0  0  0  0  0  0  0
   -3.4550    1.1903    1.6075 H   0  0  0  0  0  0  0  0  0  0  0  0
   -1.0673    3.5909    2.4829 H   0  0  0  0  0  0  0  0  0  0  0  0
    1.2983    3.4093    1.7546 H   0  0  0  0  0  0  0  0  0  0  0  0
    5.1244    0.3468    1.0939 H   0  0  0  0  0  0  0  0  0  0  0  0
    7.4094   -0.1091    0.2987 H   0  0  0  0  0  0  0  0  0  0  0  0
    7.7979   -0.8745   -2.0296 H   0  0  0  0  0  0  0  0  0  0  0  0
    5.8763   -1.1725   -3.5701 H   0  0  0  0  0  0  0  0  0  0  0  0
    3.5831   -0.7158   -2.7996 H   0  0  0  0  0  0  0  0  0  0  0  0
    1.9844   -1.7741   -0.9632 H   0  0  0  0  0  0  0  0  0  0  0  0
  1  2  1  0
  2  3  1  0
  3  4  1  0
  4  5  1  0
  3  6  1  0
  6  7  1  0
  7  8  2  0
  8  9  1  0
  8 10  1  0
 10 11  2  0
 11 12  1  0
 12 13  1  0
 13 14  2  0
 13 15  1  0
 15 16  1  0
 16 17  2  0
 17 18  1  0
 18 19  2  0
 19 20  1  0
 20 21  2  0
 15 22  2  0
 22 23  1  0
 23 24  1  0
 24  7  1  0
 24 12  2  0
 21 16  1  0
  1 25  1  0
  1 26  1  0
  1 27  1  0
  2 28  1  0
  2 29  1  0
  4 30  1  0
  4 31  1  0
  5 32  1  0
  5 33  1  0
  5 34  1  0
  6 35  1  0
  6 36  1  0
  9 37  1  0
 10 38  1  0
 11 39  1  0
 17 40  1  0
 18 41  1  0
 19 42  1  0
 20 43  1  0
 21 44  1  0
 22 45  1  0
M  END
$$$$
