
     RDKit          3D

 54 58  0  0  0  0  0  0  0  0999 V2000
   -3.6447    1.4268    5.1930 O   0  0  0  0  0  0  0  0  0  0  0  0
   -4.1102    0.7157    4.3219 C   0  0  0  0  0  0  0  0  0  0  0  0
   -5.3399    0.1846    4.4395 O   0  0  0  0  0  0  0  0  0  0  0  0
   -3.4416    0.3434    3.0522 C   0  0  0  0  0  0  0  0  0  0  0  0
   -2.1566    0.8292    2.8068 C   0  0  0  0  0  0  0  0  0  0  0  0
   -1.4935    0.5037    1.6158 C   0  0  0  0  0  0  0  0  0  0  0  0
   -2.0954   -0.3072    0.6398 C   0  0  0  0  0  0  0  0  0  0  0  0
   -1.4115   -0.6208   -0.5781 N   0  0  0  0  0  0  0  0  0  0  0  0
    0.0092   -0.7059   -0.6370 C   0  0  0  0  0  0  0  0  0  0  0  0
    0.8259   -0.5679    0.2550 O   0  0  0  0  0  0  0  0  0  0  0  0
    0.2956   -1.1023   -2.0652 C   0  0  0  0  0  0  0  0  0  0  0  0
    1.4532   -1.3077   -2.7095 C   0  0  0  0  0  0  0  0  0  0  0  0
    2.7515   -1.1224   -2.1654 C   0  0  0  0  0  0  0  0  0  0  0  0
    3.9400   -1.7219   -2.5659 C   0  0  0  0  0  0  0  0  0  0  0  0
    4.9833   -1.2100   -1.7564 C   0  0  0  0  0  0  0  0  0  0  0  0
    4.3975   -0.3091   -0.8959 C   0  0  0  0  0  0  0  0  0  0  0  0
    4.8822    0.5505    0.1800 C   0  0  0  0  0  0  0  0  0  0  0  0
    3.9875    1.1609    1.0757 C   0  0  0  0  0  0  0  0  0  0  0  0
    4.4461    1.9825    2.1111 C   0  0  0  0  0  0  0  0  0  0  0  0
    5.8195    2.1994    2.2581 C   0  0  0  0  0  0  0  0  0  0  0  0
    6.3109    3.0615    3.3398 N   0  0  0  0  0  4  0  0  0  0  0  0
    7.5377    3.1949    3.4574 O   0  0  0  0  0  0  0  0  0  0  0  0
    5.4723    3.6072    4.0711 O   0  0  0  0  0  1  0  0  0  0  0  0
    6.7299    1.5992    1.3799 C   0  0  0  0  0  0  0  0  0  0  0  0
    6.2573    0.7789    0.3486 C   0  0  0  0  0  0  0  0  0  0  0  0
    3.0640   -0.2392   -1.1640 O   0  0  0  0  0  0  0  0  0  0  0  0
   -0.9894   -1.2492   -2.7088 C   0  0  0  0  0  0  0  0  0  0  0  0
   -1.9497   -0.9542   -1.8209 C   0  0  0  0  0  0  0  0  0  0  0  0
   -3.3561   -0.8698   -2.2185 C   0  0  0  0  0  0  0  0  0  0  0  0
   -4.0386   -2.0079   -2.6722 C   0  0  0  0  0  0  0  0  0  0  0  0
   -5.3753   -1.9204   -3.0666 C   0  0  0  0  0  0  0  0  0  0  0  0
   -6.0379   -0.6952   -3.0190 C   0  0  0  0  0  0  0  0  0  0  0  0
   -5.3665    0.4441   -2.5784 C   0  0  0  0  0  0  0  0  0  0  0  0
   -4.0297    0.3593   -2.1846 C   0  0  0  0  0  0  0  0  0  0  0  0
   -3.3819   -0.7965    0.9116 C   0  0  0  0  0  0  0  0  0  0  0  0
   -4.0520   -0.4754    2.1008 C   0  0  0  0  0  0  0  0  0  0  0  0
   -5.6509    0.5103    5.3101 H   0  0  0  0  0  0  0  0  0  0  0  0
   -1.6608    1.4681    3.5357 H   0  0  0  0  0  0  0  0  0  0  0  0
   -0.5034    0.9268    1.4630 H   0  0  0  0  0  0  0  0  0  0  0  0
    1.4213   -1.6392   -3.7443 H   0  0  0  0  0  0  0  0  0  0  0  0
    4.0371   -2.4577   -3.3523 H   0  0  0  0  0  0  0  0  0  0  0  0
    6.0291   -1.4777   -1.7943 H   0  0  0  0  0  0  0  0  0  0  0  0
    2.9152    0.9897    0.9772 H   0  0  0  0  0  0  0  0  0  0  0  0
    3.7218    2.4347    2.7853 H   0  0  0  0  0  0  0  0  0  0  0  0
    7.8015    1.7580    1.4807 H   0  0  0  0  0  0  0  0  0  0  0  0
    6.9795    0.3250   -0.3265 H   0  0  0  0  0  0  0  0  0  0  0  0
   -1.1354   -1.4929   -3.7502 H   0  0  0  0  0  0  0  0  0  0  0  0
   -3.5377   -2.9728   -2.7106 H   0  0  0  0  0  0  0  0  0  0  0  0
   -5.9000   -2.8082   -3.4103 H   0  0  0  0  0  0  0  0  0  0  0  0
   -7.0789   -0.6273   -3.3254 H   0  0  0  0  0  0  0  0  0  0  0  0
   -5.8830    1.4002   -2.5422 H   0  0  0  0  0  0  0  0  0  0  0  0
   -3.5174    1.2582   -1.8481 H   0  0  0  0  0  0  0  0  0  0  0  0
   -3.8845   -1.4747    0.2297 H   0  0  0  0  0  0  0  0  0  0  0  0
   -5.0471   -0.8793    2.2710 H   0  0  0  0  0  0  0  0  0  0  0  0
  1  2  2  0
  2  3  1  0
  2  4  1  0
  4  5  2  0
  5  6  1  0
  6  7  2  0
  7  8  1  0
  8  9  1  0
  9 10  2  0
  9 11  1  0
 11 12  2  3
 12 13  1  0
 13 14  2  0
 14 15  1  0
 15 16  2  0
 16 17  1  0
 17 18  2  0
 18 19  1  0
 19 20  2  0
 20 21  1  0
 21 22  2  0
 21 23  1  0
 20 24  1  0
 24 25  2  0
 16 26  1  0
 11 27  1  0
 27 28  2  0
 28 29  1  0
 29 30  2  0
 30 31  1  0
 31 32  2  0
 32 33  1  0
 33 34  2  0
  7 35  1  0
 35 36  2  0
 36  4  1  0
 28  8  1  0
 34 29  1  0
 26 13  1  0
 25 17  1  0
  3 37  1  0
  5 38  1  0
  6 39  1  0
 12 40  1  0
 14 41  1  0
 15 42  1  0
 18 43  1  0
 19 44  1  0
 24 45  1  0
 25 46  1  0
 27 47  1  0
 30 48  1  0
 31 49  1  0
 32 50  1  0
 33 51  1  0
 34 52  1  0
 35 53  1  0
 36 54  1  0
M  CHG  2  21   1  23  -1
M  END
$$$$
