
     RDKit          3D

 62 64  0  0  0  0  0  0  0  0999 V2000
    5.0188    0.6215    4.1624 C   0  0  0  0  0  0  0  0  0  0  0  0
    5.4784    0.4079    2.8328 O   0  0  0  0  0  0  0  0  0  0  0  0
    4.7921    1.0452    1.8362 C   0  0  0  0  0  0  0  0  0  0  0  0
    3.6417    1.8167    1.9955 C   0  0  0  0  0  0  0  0  0  0  0  0
    3.0239    2.3956    0.8818 C   0  0  0  0  0  0  0  0  0  0  0  0
    3.5507    2.2156   -0.4035 C   0  0  0  0  0  0  0  0  0  0  0  0
    2.8630    2.8216   -1.6031 C   0  0  0  0  0  0  0  0  0  0  0  0
    2.0331    1.8108   -2.3894 C   0  0  0  0  0  0  0  0  0  0  0  0
    0.7902    1.4080   -1.6198 C   0  0  0  0  0  0  0  0  0  0  0  0
   -0.2120    2.1171   -1.6341 O   0  0  0  0  0  0  0  0  0  0  0  0
    0.9390    0.2234   -0.9376 N   0  0  0  0  0  0  0  0  0  0  0  0
    0.0156   -0.4236   -0.0926 C   0  0  0  0  0  0  0  0  0  0  0  0
   -1.1881    0.1455    0.3159 C   0  0  0  0  0  0  0  0  0  0  0  0
   -2.0633   -0.5964    1.1129 C   0  0  0  0  0  0  0  0  0  0  0  0
   -3.5973    0.1425    1.6365 S   0  0  0  0  0  6  0  0  0  0  0  0
   -4.1980   -0.7524    2.6055 O   0  0  0  0  0  0  0  0  0  0  0  0
   -3.3174    1.5211    1.9739 O   0  0  0  0  0  0  0  0  0  0  0  0
   -4.5570    0.0982    0.2377 N   0  0  0  0  0  0  0  0  0  0  0  0
   -5.0737   -1.2267   -0.1770 C   0  0  0  0  0  0  0  0  0  0  0  0
   -5.4544   -1.2626   -1.6557 C   0  0  0  0  0  0  0  0  0  0  0  0
   -6.2214   -0.0141   -2.0730 C   0  0  0  0  0  0  0  0  0  0  0  0
   -5.4924    1.2747   -1.6875 C   0  0  0  0  0  0  0  0  0  0  0  0
   -4.2324    1.0289   -0.8600 C   0  0  0  0  0  0  0  0  0  0  0  0
   -1.7247   -1.8817    1.5457 C   0  0  0  0  0  0  0  0  0  0  0  0
   -0.5041   -2.4412    1.1621 C   0  0  0  0  0  0  0  0  0  0  0  0
    0.3787   -1.7262    0.3385 C   0  0  0  0  0  0  0  0  0  0  0  0
    1.6457   -2.2396   -0.0619 N   0  0  0  0  0  0  0  0  0  0  0  0
    1.5790   -3.5915   -0.6250 C   0  0  0  0  0  0  0  0  0  0  0  0
    2.6185   -2.1005    1.0315 C   0  0  0  0  0  0  0  0  0  0  0  0
    4.7061    1.4429   -0.5582 C   0  0  0  0  0  0  0  0  0  0  0  0
    5.3188    0.8638    0.5554 C   0  0  0  0  0  0  0  0  0  0  0  0
    4.0081    0.2232    4.2981 H   0  0  0  0  0  0  0  0  0  0  0  0
    5.0667    1.6815    4.4330 H   0  0  0  0  0  0  0  0  0  0  0  0
    5.6835    0.0752    4.8375 H   0  0  0  0  0  0  0  0  0  0  0  0
    3.1899    1.9818    2.9676 H   0  0  0  0  0  0  0  0  0  0  0  0
    2.1175    2.9816    1.0259 H   0  0  0  0  0  0  0  0  0  0  0  0
    2.2342    3.6625   -1.2843 H   0  0  0  0  0  0  0  0  0  0  0  0
    3.6291    3.2529   -2.2600 H   0  0  0  0  0  0  0  0  0  0  0  0
    2.6217    0.9257   -2.6567 H   0  0  0  0  0  0  0  0  0  0  0  0
    1.7003    2.2588   -3.3333 H   0  0  0  0  0  0  0  0  0  0  0  0
    1.7856   -0.3272   -1.0710 H   0  0  0  0  0  0  0  0  0  0  0  0
   -1.4531    1.1600    0.0367 H   0  0  0  0  0  0  0  0  0  0  0  0
   -5.9616   -1.4427    0.4285 H   0  0  0  0  0  0  0  0  0  0  0  0
   -4.3394   -2.0154    0.0133 H   0  0  0  0  0  0  0  0  0  0  0  0
   -4.5474   -1.3503   -2.2666 H   0  0  0  0  0  0  0  0  0  0  0  0
   -6.0525   -2.1581   -1.8605 H   0  0  0  0  0  0  0  0  0  0  0  0
   -6.4016   -0.0311   -3.1540 H   0  0  0  0  0  0  0  0  0  0  0  0
   -7.2099   -0.0220   -1.5975 H   0  0  0  0  0  0  0  0  0  0  0  0
   -6.1828    1.9135   -1.1224 H   0  0  0  0  0  0  0  0  0  0  0  0
   -5.2278    1.8368   -2.5910 H   0  0  0  0  0  0  0  0  0  0  0  0
   -3.8818    1.9906   -0.4719 H   0  0  0  0  0  0  0  0  0  0  0  0
   -3.4390    0.6126   -1.4901 H   0  0  0  0  0  0  0  0  0  0  0  0
   -2.3940   -2.4459    2.1922 H   0  0  0  0  0  0  0  0  0  0  0  0
   -0.2448   -3.4305    1.5269 H   0  0  0  0  0  0  0  0  0  0  0  0
    1.3702   -4.3520    0.1364 H   0  0  0  0  0  0  0  0  0  0  0  0
    2.5408   -3.8388   -1.0874 H   0  0  0  0  0  0  0  0  0  0  0  0
    0.8170   -3.6525   -1.4106 H   0  0  0  0  0  0  0  0  0  0  0  0
    3.6223   -2.3355    0.6617 H   0  0  0  0  0  0  0  0  0  0  0  0
    2.3935   -2.7783    1.8641 H   0  0  0  0  0  0  0  0  0  0  0  0
    2.6419   -1.0739    1.4127 H   0  0  0  0  0  0  0  0  0  0  0  0
    5.1389    1.2869   -1.5434 H   0  0  0  0  0  0  0  0  0  0  0  0
    6.2170    0.2660    0.4236 H   0  0  0  0  0  0  0  0  0  0  0  0
  1  2  1  0
  2  3  1  0
  3  4  2  0
  4  5  1  0
  5  6  2  0
  6  7  1  0
  7  8  1  0
  8  9  1  0
  9 10  2  0
  9 11  1  0
 11 12  1  0
 12 13  2  0
 13 14  1  0
 14 15  1  0
 15 16  2  0
 15 17  2  0
 15 18  1  0
 18 19  1  0
 19 20  1  0
 20 21  1  0
 21 22  1  0
 22 23  1  0
 14 24  2  0
 24 25  1  0
 25 26  2  0
 26 27  1  0
 27 28  1  0
 27 29  1  0
  6 30  1  0
 30 31  2  0
 31  3  1  0
 26 12  1  0
 23 18  1  0
  1 32  1  0
  1 33  1  0
  1 34  1  0
  4 35  1  0
  5 36  1  0
  7 37  1  0
  7 38  1  0
  8 39  1  0
  8 40  1  0
 11 41  1  0
 13 42  1  0
 19 43  1  0
 19 44  1  0
 20 45  1  0
 20 46  1  0
 21 47  1  0
 21 48  1  0
 22 49  1  0
 22 50  1  0
 23 51  1  0
 23 52  1  0
 24 53  1  0
 25 54  1  0
 28 55  1  0
 28 56  1  0
 28 57  1  0
 29 58  1  0
 29 59  1  0
 29 60  1  0
 30 61  1  0
 31 62  1  0
M  END
$$$$
