
     RDKit          3D

 57 60  0  0  0  0  0  0  0  0999 V2000
   -2.3602    6.3833   -0.8054 C   0  0  0  0  0  0  0  0  0  0  0  0
   -2.0245    4.9761   -0.3162 C   0  0  0  0  0  0  0  0  0  0  0  0
   -0.5925    4.5776   -0.7256 C   0  0  0  0  0  0  0  0  0  0  0  0
   -0.1904    3.2121   -0.1360 C   0  0  0  0  0  0  0  0  0  0  0  0
   -1.2786    2.1877   -0.2858 C   0  0  0  0  0  0  0  0  0  0  0  0
   -2.5763    2.5518   -0.5985 C   0  0  0  0  0  0  0  0  0  0  0  0
   -3.6266    1.2192   -0.6909 S   0  0  0  0  0  0  0  0  0  0  0  0
   -2.3776    0.1339   -0.2834 C   0  0  0  0  0  0  0  0  0  0  0  0
   -2.6342   -1.1787   -0.1825 N   0  0  0  0  0  0  0  0  0  0  0  0
   -1.5683   -1.9053    0.1731 C   0  0  0  0  0  0  0  0  0  0  0  0
   -1.7577   -3.4193    0.2530 C   0  0  0  0  0  0  0  0  0  0  0  0
   -1.8735   -3.9695   -1.1791 C   0  0  0  0  0  0  0  0  0  0  0  0
   -3.0357   -3.7553    1.0432 C   0  0  0  0  0  0  0  0  0  0  0  0
   -0.5685   -4.1095    0.9524 C   0  0  0  0  0  0  0  0  0  0  0  0
   -0.3311   -1.4132    0.3913 N   0  0  0  0  0  0  0  0  0  0  0  0
   -0.0878   -0.0894    0.2654 C   0  0  0  0  0  0  0  0  0  0  0  0
    1.2049    0.4063    0.4784 N   0  0  0  0  0  0  0  0  0  0  0  0
    1.8576   -0.1150    1.7018 C   0  0  0  0  0  0  0  0  0  0  0  0
    2.5715   -1.4664    1.5160 C   0  0  0  0  0  0  0  0  0  0  0  0
    3.4059   -1.4961    0.3106 N   0  0  0  0  0  0  0  0  0  0  0  0
    4.6215   -2.1507    0.3582 C   0  0  0  0  0  0  0  0  0  0  0  0
    5.0912   -2.5651    1.4247 O   0  0  0  0  0  0  0  0  0  0  0  0
    5.4202   -2.3004   -0.9231 C   0  0  0  0  0  0  0  0  0  0  0  0
    4.7910   -3.6309   -1.8862 Cl  0  0  0  0  0  0  0  0  0  0  0  0
    2.6866   -1.0934   -0.9101 C   0  0  0  0  0  0  0  0  0  0  0  0
    2.0398    0.2908   -0.7371 C   0  0  0  0  0  0  0  0  0  0  0  0
   -1.1566    0.7596   -0.0887 C   0  0  0  0  0  0  0  0  0  0  0  0
   -3.0504    3.9503   -0.8594 C   0  0  0  0  0  0  0  0  0  0  0  0
   -3.3755    6.6632   -0.5092 H   0  0  0  0  0  0  0  0  0  0  0  0
   -1.6710    7.1198   -0.3753 H   0  0  0  0  0  0  0  0  0  0  0  0
   -2.2935    6.4527   -1.8981 H   0  0  0  0  0  0  0  0  0  0  0  0
   -2.0794    4.9767    0.7832 H   0  0  0  0  0  0  0  0  0  0  0  0
   -0.5320    4.5267   -1.8219 H   0  0  0  0  0  0  0  0  0  0  0  0
    0.1301    5.3377   -0.3983 H   0  0  0  0  0  0  0  0  0  0  0  0
    0.0397    3.3285    0.9306 H   0  0  0  0  0  0  0  0  0  0  0  0
    0.7248    2.8759   -0.6339 H   0  0  0  0  0  0  0  0  0  0  0  0
   -1.9642   -5.0577   -1.1813 H   0  0  0  0  0  0  0  0  0  0  0  0
   -0.9946   -3.7082   -1.7718 H   0  0  0  0  0  0  0  0  0  0  0  0
   -2.7454   -3.5655   -1.7003 H   0  0  0  0  0  0  0  0  0  0  0  0
   -3.1743   -4.8370    1.1256 H   0  0  0  0  0  0  0  0  0  0  0  0
   -3.9318   -3.3487    0.5611 H   0  0  0  0  0  0  0  0  0  0  0  0
   -2.9917   -3.3452    2.0577 H   0  0  0  0  0  0  0  0  0  0  0  0
   -0.7278   -5.1902    1.0276 H   0  0  0  0  0  0  0  0  0  0  0  0
    0.3657   -3.9563    0.4017 H   0  0  0  0  0  0  0  0  0  0  0  0
   -0.4211   -3.7236    1.9675 H   0  0  0  0  0  0  0  0  0  0  0  0
    1.1471   -0.1708    2.5353 H   0  0  0  0  0  0  0  0  0  0  0  0
    2.6097    0.6279    1.9960 H   0  0  0  0  0  0  0  0  0  0  0  0
    1.8431   -2.2701    1.4145 H   0  0  0  0  0  0  0  0  0  0  0  0
    3.1632   -1.6904    2.4071 H   0  0  0  0  0  0  0  0  0  0  0  0
    6.4464   -2.5297   -0.6565 H   0  0  0  0  0  0  0  0  0  0  0  0
    5.4302   -1.3793   -1.5068 H   0  0  0  0  0  0  0  0  0  0  0  0
    3.3511   -1.0598   -1.7740 H   0  0  0  0  0  0  0  0  0  0  0  0
    1.9352   -1.8659   -1.1119 H   0  0  0  0  0  0  0  0  0  0  0  0
    2.8428    1.0278   -0.6443 H   0  0  0  0  0  0  0  0  0  0  0  0
    1.4776    0.5656   -1.6377 H   0  0  0  0  0  0  0  0  0  0  0  0
   -3.1776    4.0820   -1.9445 H   0  0  0  0  0  0  0  0  0  0  0  0
   -4.0268    4.1232   -0.3850 H   0  0  0  0  0  0  0  0  0  0  0  0
  1  2  1  0
  2  3  1  0
  3  4  1  0
  4  5  1  0
  5  6  2  0
  6  7  1  0
  7  8  1  0
  8  9  2  0
  9 10  1  0
 10 11  1  0
 11 12  1  0
 11 13  1  0
 11 14  1  0
 10 15  2  0
 15 16  1  0
 16 17  1  0
 17 18  1  0
 18 19  1  0
 19 20  1  0
 20 21  1  0
 21 22  2  0
 21 23  1  0
 23 24  1  0
 20 25  1  0
 25 26  1  0
 16 27  2  0
  6 28  1  0
 28  2  1  0
 27  5  1  0
 27  8  1  0
 26 17  1  0
  1 29  1  0
  1 30  1  0
  1 31  1  0
  2 32  1  0
  3 33  1  0
  3 34  1  0
  4 35  1  0
  4 36  1  0
 12 37  1  0
 12 38  1  0
 12 39  1  0
 13 40  1  0
 13 41  1  0
 13 42  1  0
 14 43  1  0
 14 44  1  0
 14 45  1  0
 18 46  1  0
 18 47  1  0
 19 48  1  0
 19 49  1  0
 23 50  1  0
 23 51  1  0
 25 52  1  0
 25 53  1  0
 26 54  1  0
 26 55  1  0
 28 56  1  0
 28 57  1  0
M  END
$$$$
