
     RDKit          3D

 63 67  0  0  0  0  0  0  0  0999 V2000
   -3.9837   -6.2462    4.9808 Cl  0  0  0  0  0  0  0  0  0  0  0  0
   -3.5627   -4.9254    3.9617 C   0  0  0  0  0  0  0  0  0  0  0  0
   -4.5549   -4.0888    3.4579 C   0  0  0  0  0  0  0  0  0  0  0  0
   -4.2090   -3.0182    2.6253 C   0  0  0  0  0  0  0  0  0  0  0  0
   -2.8638   -2.7759    2.2742 C   0  0  0  0  0  0  0  0  0  0  0  0
   -2.5339   -1.5940    1.3663 C   0  0  0  0  0  0  0  0  0  0  0  0
   -2.4403   -0.2368    2.0530 C   0  0  0  0  0  0  0  0  0  0  0  0
   -2.7095    0.9274    1.3108 C   0  0  0  0  0  0  0  0  0  0  0  0
   -2.6027    2.1934    1.8967 C   0  0  0  0  0  0  0  0  0  0  0  0
   -2.2158    2.3149    3.2235 C   0  0  0  0  0  0  0  0  0  0  0  0
   -2.0596    3.8783    3.9329 Cl  0  0  0  0  0  0  0  0  0  0  0  0
   -1.9475    1.1779    3.9788 C   0  0  0  0  0  0  0  0  0  0  0  0
   -2.0579   -0.0924    3.3986 C   0  0  0  0  0  0  0  0  0  0  0  0
   -1.2972   -1.8671    0.5979 N   0  0  0  0  0  0  0  0  0  0  0  0
   -1.2007   -2.7780   -0.4486 C   0  0  0  0  0  0  0  0  0  0  0  0
    0.0912   -2.7439   -0.8891 C   0  0  0  0  0  0  0  0  0  0  0  0
    0.7440   -1.7892   -0.1313 N   0  0  0  0  0  4  0  0  0  0  0  0
    2.1458   -1.3591   -0.2846 C   0  0  0  0  0  0  0  0  0  0  0  0
    2.3586   -0.2882   -1.3847 C   0  0  0  0  0  0  0  0  0  0  0  0
    3.7577    0.0401   -1.4082 O   0  0  0  0  0  0  0  0  0  0  0  0
    4.3096    0.2467   -2.7147 C   0  0  0  0  0  0  0  0  0  0  0  0
    3.7455    1.4559   -3.4260 C   0  0  0  0  0  0  0  0  0  0  0  0
    2.9282    1.2644   -4.5547 C   0  0  0  0  0  0  0  0  0  0  0  0
    2.3384    2.3541   -5.2019 C   0  0  0  0  0  0  0  0  0  0  0  0
    2.5643    3.6428   -4.7329 C   0  0  0  0  0  0  0  0  0  0  0  0
    1.8158    4.9744   -5.5194 Cl  0  0  0  0  0  0  0  0  0  0  0  0
    3.3876    3.8590   -3.6318 C   0  0  0  0  0  0  0  0  0  0  0  0
    3.9839    2.7708   -2.9871 C   0  0  0  0  0  0  0  0  0  0  0  0
    5.0081    3.1062   -1.6353 Cl  0  0  0  0  0  0  0  0  0  0  0  0
    1.5436    0.9638   -1.0831 C   0  0  0  0  0  0  0  0  0  0  0  0
    1.9875    1.8611   -0.0908 C   0  0  0  0  0  0  0  0  0  0  0  0
    1.2920    3.0419    0.1690 C   0  0  0  0  0  0  0  0  0  0  0  0
    0.1339    3.3356   -0.5408 C   0  0  0  0  0  0  0  0  0  0  0  0
   -0.7228    4.7890   -0.2064 Cl  0  0  0  0  0  0  0  0  0  0  0  0
   -0.3434    2.4523   -1.5022 C   0  0  0  0  0  0  0  0  0  0  0  0
    0.3525    1.2706   -1.7668 C   0  0  0  0  0  0  0  0  0  0  0  0
   -0.3363    0.2021   -2.9342 Cl  0  0  0  0  0  0  0  0  0  0  0  0
   -0.1029   -1.2806    0.7817 C   0  0  0  0  0  0  0  0  0  0  0  0
   -1.8764   -3.6234    2.8105 C   0  0  0  0  0  0  0  0  0  0  0  0
   -2.2273   -4.6928    3.6471 C   0  0  0  0  0  0  0  0  0  0  0  0
   -5.5984   -4.2645    3.7100 H   0  0  0  0  0  0  0  0  0  0  0  0
   -5.0063   -2.3710    2.2566 H   0  0  0  0  0  0  0  0  0  0  0  0
   -3.3368   -1.5318    0.6150 H   0  0  0  0  0  0  0  0  0  0  0  0
   -3.0111    0.8661    0.2669 H   0  0  0  0  0  0  0  0  0  0  0  0
   -2.8311    3.0822    1.3147 H   0  0  0  0  0  0  0  0  0  0  0  0
   -1.6597    1.2720    5.0202 H   0  0  0  0  0  0  0  0  0  0  0  0
   -1.8521   -0.9583    4.0263 H   0  0  0  0  0  0  0  0  0  0  0  0
   -2.0695   -3.3468   -0.7330 H   0  0  0  0  0  0  0  0  0  0  0  0
    0.6316   -3.2696   -1.6554 H   0  0  0  0  0  0  0  0  0  0  0  0
    2.7505   -2.2490   -0.5109 H   0  0  0  0  0  0  0  0  0  0  0  0
    2.4993   -0.9947    0.6897 H   0  0  0  0  0  0  0  0  0  0  0  0
    2.0818   -0.7332   -2.3461 H   0  0  0  0  0  0  0  0  0  0  0  0
    4.1667   -0.6690   -3.3061 H   0  0  0  0  0  0  0  0  0  0  0  0
    5.3959    0.3595   -2.6048 H   0  0  0  0  0  0  0  0  0  0  0  0
    2.7361    0.2650   -4.9384 H   0  0  0  0  0  0  0  0  0  0  0  0
    1.7003    2.1893   -6.0673 H   0  0  0  0  0  0  0  0  0  0  0  0
    3.5586    4.8699   -3.2712 H   0  0  0  0  0  0  0  0  0  0  0  0
    2.9090    1.6660    0.4634 H   0  0  0  0  0  0  0  0  0  0  0  0
    1.6687    3.7434    0.9089 H   0  0  0  0  0  0  0  0  0  0  0  0
   -1.2528    2.6880   -2.0467 H   0  0  0  0  0  0  0  0  0  0  0  0
    0.1534   -0.5272    1.5242 H   0  0  0  0  0  0  0  0  0  0  0  0
   -0.8219   -3.4672    2.5937 H   0  0  0  0  0  0  0  0  0  0  0  0
   -1.4524   -5.3416    4.0512 H   0  0  0  0  0  0  0  0  0  0  0  0
  1  2  1  0
  2  3  2  0
  3  4  1  0
  4  5  2  0
  5  6  1  0
  6  7  1  0
  7  8  2  0
  8  9  1  0
  9 10  2  0
 10 11  1  0
 10 12  1  0
 12 13  2  0
  6 14  1  0
 14 15  1  0
 15 16  2  0
 16 17  1  0
 17 18  1  0
 18 19  1  0
 19 20  1  0
 20 21  1  0
 21 22  1  0
 22 23  2  0
 23 24  1  0
 24 25  2  0
 25 26  1  0
 25 27  1  0
 27 28  2  0
 28 29  1  0
 19 30  1  0
 30 31  2  0
 31 32  1  0
 32 33  2  0
 33 34  1  0
 33 35  1  0
 35 36  2  0
 36 37  1  0
 17 38  2  0
  5 39  1  0
 39 40  2  0
 40  2  1  0
 13  7  1  0
 38 14  1  0
 28 22  1  0
 36 30  1  0
  3 41  1  0
  4 42  1  0
  6 43  1  0
  8 44  1  0
  9 45  1  0
 12 46  1  0
 13 47  1  0
 15 48  1  0
 16 49  1  0
 18 50  1  0
 18 51  1  0
 19 52  1  0
 21 53  1  0
 21 54  1  0
 23 55  1  0
 24 56  1  0
 27 57  1  0
 31 58  1  0
 32 59  1  0
 35 60  1  0
 38 61  1  0
 39 62  1  0
 40 63  1  0
M  CHG  1  17   1
M  END
$$$$
