
     RDKit          3D

 33 35  0  0  0  0  0  0  0  0999 V2000
    4.5121   -1.5556   -0.3801 O   0  0  0  0  0  0  0  0  0  0  0  0
    3.3604   -1.8492    0.4060 C   0  0  0  0  0  0  0  0  0  0  0  0
    2.9057   -0.5932    1.1480 C   0  0  0  0  0  0  0  0  0  0  0  0
    2.6629    0.4722    0.1850 N   0  0  0  0  0  0  0  0  0  0  0  0
    1.5137    0.8263   -0.2626 C   0  0  0  0  0  0  0  0  0  0  0  0
    1.4798    2.0536   -1.1805 C   0  0  0  0  0  0  0  0  0  0  0  0
    0.2838    2.9529   -0.8483 C   0  0  0  0  0  0  0  0  0  0  0  0
   -1.0480    2.2057   -1.0054 C   0  0  0  0  0  0  0  0  0  0  0  0
   -0.9825    0.8536   -0.3708 C   0  0  0  0  0  0  0  0  0  0  0  0
    0.2128    0.2261   -0.0390 C   0  0  0  0  0  0  0  0  0  0  0  0
   -0.1178   -1.0080    0.4570 N   0  0  0  0  0  0  0  0  0  0  0  0
   -1.4847   -1.1749    0.4929 C   0  0  0  0  0  0  0  0  0  0  0  0
   -2.2465   -2.2642    0.9328 C   0  0  0  0  0  0  0  0  0  0  0  0
   -3.6378   -2.1587    0.8388 C   0  0  0  0  0  0  0  0  0  0  0  0
   -4.2312   -1.0098    0.3216 C   0  0  0  0  0  0  0  0  0  0  0  0
   -5.9484   -0.9158    0.2177 Cl  0  0  0  0  0  0  0  0  0  0  0  0
   -3.4589    0.0697   -0.1175 C   0  0  0  0  0  0  0  0  0  0  0  0
   -2.0557   -0.0148   -0.0266 C   0  0  0  0  0  0  0  0  0  0  0  0
    4.3649   -0.6485   -0.7166 H   0  0  0  0  0  0  0  0  0  0  0  0
    2.5815   -2.2174   -0.2681 H   0  0  0  0  0  0  0  0  0  0  0  0
    3.6174   -2.6449    1.1109 H   0  0  0  0  0  0  0  0  0  0  0  0
    2.0601   -0.7885    1.8112 H   0  0  0  0  0  0  0  0  0  0  0  0
    3.7224   -0.2551    1.7971 H   0  0  0  0  0  0  0  0  0  0  0  0
    2.4111    2.6197   -1.0665 H   0  0  0  0  0  0  0  0  0  0  0  0
    1.4249    1.7049   -2.2186 H   0  0  0  0  0  0  0  0  0  0  0  0
    0.2876    3.8385   -1.4934 H   0  0  0  0  0  0  0  0  0  0  0  0
    0.3785    3.3058    0.1871 H   0  0  0  0  0  0  0  0  0  0  0  0
   -1.2749    2.0830   -2.0714 H   0  0  0  0  0  0  0  0  0  0  0  0
   -1.8553    2.7996   -0.5625 H   0  0  0  0  0  0  0  0  0  0  0  0
    0.5333   -1.7241    0.7377 H   0  0  0  0  0  0  0  0  0  0  0  0
   -1.7831   -3.1608    1.3321 H   0  0  0  0  0  0  0  0  0  0  0  0
   -4.2569   -2.9878    1.1734 H   0  0  0  0  0  0  0  0  0  0  0  0
   -3.9313    0.9595   -0.5214 H   0  0  0  0  0  0  0  0  0  0  0  0
  1  2  1  0
  2  3  1  0
  3  4  1  0
  4  5  2  3
  5  6  1  0
  6  7  1  0
  7  8  1  0
  8  9  1  0
  9 10  2  0
 10 11  1  0
 11 12  1  0
 12 13  2  0
 13 14  1  0
 14 15  2  0
 15 16  1  0
 15 17  1  0
 17 18  2  0
 10  5  1  0
 18 12  1  0
 18  9  1  0
  1 19  1  0
  2 20  1  0
  2 21  1  0
  3 22  1  0
  3 23  1  0
  6 24  1  0
  6 25  1  0
  7 26  1  0
  7 27  1  0
  8 28  1  0
  8 29  1  0
 11 30  1  0
 13 31  1  0
 14 32  1  0
 17 33  1  0
M  END
$$$$
