
     RDKit          3D

 38 40  0  0  0  0  0  0  0  0999 V2000
    3.7114    3.4789    1.9925 C   0  0  0  0  0  0  0  0  0  0  0  0
    2.4036    2.7282    1.8175 C   0  0  0  0  0  0  0  0  0  0  0  0
    2.4925    1.6510    0.7543 C   0  0  0  0  0  0  0  0  0  0  0  0
    3.5022    1.4245    0.0986 O   0  0  0  0  0  0  0  0  0  0  0  0
    1.3126    0.9690    0.5956 N   0  0  0  0  0  0  0  0  0  0  0  0
    1.1829   -0.1847   -0.2725 C   0  0  0  0  0  0  0  0  0  0  0  0
    1.5444   -1.4262    0.4873 C   0  0  0  0  0  0  0  0  0  0  0  0
    1.3372   -1.8572    1.7847 C   0  0  0  0  0  0  0  0  0  0  0  0
    1.9193   -3.1433    1.8815 C   0  0  0  0  0  0  0  0  0  0  0  0
    2.4401   -3.4218    0.6405 C   0  0  0  0  0  0  0  0  0  0  0  0
    2.2129   -2.3923   -0.2138 O   0  0  0  0  0  0  0  0  0  0  0  0
   -0.2149   -0.2839   -0.8624 C   0  0  0  0  0  0  0  0  0  0  0  0
   -0.3664   -0.6968   -2.1929 C   0  0  0  0  0  0  0  0  0  0  0  0
   -1.6381   -0.8334   -2.7601 C   0  0  0  0  0  0  0  0  0  0  0  0
   -1.7136   -1.3449   -4.4133 Cl  0  0  0  0  0  0  0  0  0  0  0  0
   -2.8082   -0.5673   -2.0087 C   0  0  0  0  0  0  0  0  0  0  0  0
   -4.1295   -0.6785   -2.4962 C   0  0  0  0  0  0  0  0  0  0  0  0
   -5.2140   -0.3961   -1.6728 C   0  0  0  0  0  0  0  0  0  0  0  0
   -4.9565   -0.0073   -0.3744 C   0  0  0  0  0  0  0  0  0  0  0  0
   -3.7132    0.1144    0.1393 N   0  0  0  0  0  0  0  0  0  0  0  0
   -2.6663   -0.1615   -0.6685 C   0  0  0  0  0  0  0  0  0  0  0  0
   -1.3843   -0.0334   -0.1319 C   0  0  0  0  0  0  0  0  0  0  0  0
   -1.2928    0.3672    1.1889 O   0  0  0  0  0  0  0  0  0  0  0  0
    4.5184    2.7994    2.2861 H   0  0  0  0  0  0  0  0  0  0  0  0
    3.6104    4.2452    2.7672 H   0  0  0  0  0  0  0  0  0  0  0  0
    4.0099    3.9712    1.0610 H   0  0  0  0  0  0  0  0  0  0  0  0
    2.1232    2.2574    2.7664 H   0  0  0  0  0  0  0  0  0  0  0  0
    1.6126    3.4316    1.5342 H   0  0  0  0  0  0  0  0  0  0  0  0
    0.5468    1.1165    1.2435 H   0  0  0  0  0  0  0  0  0  0  0  0
    1.9021   -0.0545   -1.0917 H   0  0  0  0  0  0  0  0  0  0  0  0
    0.8259   -1.3049    2.5605 H   0  0  0  0  0  0  0  0  0  0  0  0
    1.9559   -3.7884    2.7476 H   0  0  0  0  0  0  0  0  0  0  0  0
    2.9738   -4.2645    0.2239 H   0  0  0  0  0  0  0  0  0  0  0  0
    0.5157   -0.9221   -2.7917 H   0  0  0  0  0  0  0  0  0  0  0  0
   -4.3224   -0.9868   -3.5213 H   0  0  0  0  0  0  0  0  0  0  0  0
   -6.2315   -0.4791   -2.0385 H   0  0  0  0  0  0  0  0  0  0  0  0
   -5.7679    0.2244    0.3104 H   0  0  0  0  0  0  0  0  0  0  0  0
   -2.2343    0.4501    1.4670 H   0  0  0  0  0  0  0  0  0  0  0  0
  1  2  1  0
  2  3  1  0
  3  4  2  0
  3  5  1  0
  5  6  1  0
  6  7  1  0
  7  8  2  0
  8  9  1  0
  9 10  2  0
 10 11  1  0
  6 12  1  0
 12 13  2  0
 13 14  1  0
 14 15  1  0
 14 16  2  0
 16 17  1  0
 17 18  2  0
 18 19  1  0
 19 20  2  0
 20 21  1  0
 21 22  2  0
 22 23  1  0
 11  7  1  0
 22 12  1  0
 21 16  1  0
  1 24  1  0
  1 25  1  0
  1 26  1  0
  2 27  1  0
  2 28  1  0
  5 29  1  0
  6 30  1  0
  8 31  1  0
  9 32  1  0
 10 33  1  0
 13 34  1  0
 17 35  1  0
 18 36  1  0
 19 37  1  0
 23 38  1  0
M  END
$$$$
