
     RDKit          3D

 37 40  0  0  0  0  0  0  0  0999 V2000
    5.2359   -0.9608    0.3016 C   0  0  0  0  0  0  0  0  0  0  0  0
    5.0178    0.3753   -0.1328 O   0  0  0  0  0  0  0  0  0  0  0  0
    3.7164    0.7748   -0.2848 C   0  0  0  0  0  0  0  0  0  0  0  0
    3.5654    2.0864   -0.7286 C   0  0  0  0  0  0  0  0  0  0  0  0
    2.3019    2.6486   -0.9204 C   0  0  0  0  0  0  0  0  0  0  0  0
    1.1901    1.8421   -0.6578 C   0  0  0  0  0  0  0  0  0  0  0  0
   -0.1433    2.1398   -0.7417 N   0  0  0  0  0  0  0  0  0  0  0  0
   -0.9298    1.0713   -0.3687 C   0  0  0  0  0  0  0  0  0  0  0  0
   -2.3344    0.9926   -0.2789 C   0  0  0  0  0  0  0  0  0  0  0  0
   -3.2187    2.1686   -0.6116 C   0  0  0  0  0  0  0  0  0  0  0  0
   -2.8875   -0.2391    0.1685 C   0  0  0  0  0  0  0  0  0  0  0  0
   -4.2784   -0.4053    0.3409 C   0  0  0  0  0  0  0  0  0  0  0  0
   -4.7906   -1.6104    0.7889 C   0  0  0  0  0  0  0  0  0  0  0  0
   -4.0274   -2.6692    1.0846 N   0  0  0  0  0  0  0  0  0  0  0  0
   -2.6940   -2.5044    0.9131 C   0  0  0  0  0  0  0  0  0  0  0  0
   -2.0464   -1.3393    0.4546 C   0  0  0  0  0  0  0  0  0  0  0  0
   -0.6249   -1.2440    0.2821 C   0  0  0  0  0  0  0  0  0  0  0  0
    0.2435   -2.4576    0.5147 C   0  0  0  0  0  0  0  0  0  0  0  0
   -0.0656    0.0145   -0.0811 C   0  0  0  0  0  0  0  0  0  0  0  0
    1.2840    0.5207   -0.2311 C   0  0  0  0  0  0  0  0  0  0  0  0
    2.5836   -0.0100   -0.0301 C   0  0  0  0  0  0  0  0  0  0  0  0
    4.8291   -1.6814   -0.4156 H   0  0  0  0  0  0  0  0  0  0  0  0
    4.8237   -1.1221    1.3031 H   0  0  0  0  0  0  0  0  0  0  0  0
    6.3169   -1.1217    0.3574 H   0  0  0  0  0  0  0  0  0  0  0  0
    4.4502    2.6890   -0.9230 H   0  0  0  0  0  0  0  0  0  0  0  0
    2.1972    3.6751   -1.2560 H   0  0  0  0  0  0  0  0  0  0  0  0
   -0.4984    3.0424   -1.0173 H   0  0  0  0  0  0  0  0  0  0  0  0
   -3.9295    1.8987   -1.3995 H   0  0  0  0  0  0  0  0  0  0  0  0
   -2.6490    3.0271   -0.9772 H   0  0  0  0  0  0  0  0  0  0  0  0
   -3.7648    2.4956    0.2792 H   0  0  0  0  0  0  0  0  0  0  0  0
   -4.9800    0.3961    0.1358 H   0  0  0  0  0  0  0  0  0  0  0  0
   -5.8587   -1.7496    0.9266 H   0  0  0  0  0  0  0  0  0  0  0  0
   -2.1333   -3.3938    1.1866 H   0  0  0  0  0  0  0  0  0  0  0  0
   -0.2473   -3.3787    0.1869 H   0  0  0  0  0  0  0  0  0  0  0  0
    0.5031   -2.5390    1.5741 H   0  0  0  0  0  0  0  0  0  0  0  0
    1.1574   -2.4113   -0.0802 H   0  0  0  0  0  0  0  0  0  0  0  0
    2.6859   -1.0209    0.3374 H   0  0  0  0  0  0  0  0  0  0  0  0
  1  2  1  0
  2  3  1  0
  3  4  2  0
  4  5  1  0
  5  6  2  0
  6  7  1  0
  7  8  1  0
  8  9  2  0
  9 10  1  0
  9 11  1  0
 11 12  2  0
 12 13  1  0
 13 14  2  0
 14 15  1  0
 15 16  2  0
 16 17  1  0
 17 18  1  0
 17 19  2  0
 19 20  1  0
 20 21  2  0
 21  3  1  0
 20  6  1  0
 19  8  1  0
 16 11  1  0
  1 22  1  0
  1 23  1  0
  1 24  1  0
  4 25  1  0
  5 26  1  0
  7 27  1  0
 10 28  1  0
 10 29  1  0
 10 30  1  0
 12 31  1  0
 13 32  1  0
 15 33  1  0
 18 34  1  0
 18 35  1  0
 18 36  1  0
 21 37  1  0
M  END
$$$$
