
     RDKit          3D

 47 49  0  0  0  0  0  0  0  0999 V2000
    2.1336   -2.2100   -0.4851 O   0  0  0  0  0  0  0  0  0  0  0  0
    1.8520   -1.1910    0.1353 C   0  0  0  0  0  0  0  0  0  0  0  0
    0.4432   -0.8213    0.5383 C   0  0  0  0  0  0  0  0  0  0  0  0
   -0.5584   -1.8508    0.0223 C   0  0  0  0  0  0  0  0  0  0  0  0
   -1.9332   -1.5084    0.4004 N   0  0  0  0  0  0  0  0  0  0  0  0
   -2.6361   -0.6212   -0.3968 C   0  0  0  0  0  0  0  0  0  0  0  0
   -2.2087   -0.0614   -1.3974 O   0  0  0  0  0  0  0  0  0  0  0  0
   -4.0007   -0.4036    0.1502 C   0  0  0  0  0  0  0  0  0  0  0  0
   -4.8903    0.3818   -0.4721 C   0  0  0  0  0  0  0  0  0  0  0  0
   -6.2606    0.6550   -0.0278 C   0  0  0  0  0  0  0  0  0  0  0  0
   -7.3347    0.2270   -0.8198 C   0  0  0  0  0  0  0  0  0  0  0  0
   -8.6479    0.4898   -0.4243 C   0  0  0  0  0  0  0  0  0  0  0  0
   -8.8823    1.1845    0.7564 C   0  0  0  0  0  0  0  0  0  0  0  0
  -10.1421    1.4370    1.1342 F   0  0  0  0  0  0  0  0  0  0  0  0
   -7.8287    1.6247    1.5485 C   0  0  0  0  0  0  0  0  0  0  0  0
   -6.5147    1.3634    1.1549 C   0  0  0  0  0  0  0  0  0  0  0  0
   -4.2039   -1.2970    1.6013 S   0  0  0  0  0  0  0  0  0  0  0  0
   -2.5729   -1.9545    1.5384 C   0  0  0  0  0  0  0  0  0  0  0  0
   -1.9733   -2.9498    2.7344 S   0  0  0  0  0  0  0  0  0  0  0  0
    2.7917   -0.2673    0.5393 N   0  0  0  0  0  0  0  0  0  0  0  0
    4.2002   -0.4329    0.2419 C   0  0  0  0  0  0  0  0  0  0  0  0
    4.5270   -0.0103   -1.1898 C   0  0  0  0  0  0  0  0  0  0  0  0
    5.9801   -0.2926   -1.5665 C   0  0  0  0  0  0  0  0  0  0  0  0
    6.9333    0.4895   -0.8082 N   0  0  0  0  0  0  0  0  0  0  0  0
    7.2064    1.8175   -0.9792 C   0  0  0  0  0  0  0  0  0  0  0  0
    8.1623    2.1057   -0.0333 C   0  0  0  0  0  0  0  0  0  0  0  0
    8.4762    0.9883    0.6963 N   0  0  0  0  0  0  0  0  0  0  0  0
    7.7323    0.0271    0.1973 C   0  0  0  0  0  0  0  0  0  0  0  0
    0.3987   -0.7571    1.6313 H   0  0  0  0  0  0  0  0  0  0  0  0
    0.2123    0.1709    0.1336 H   0  0  0  0  0  0  0  0  0  0  0  0
   -0.5041   -1.9023   -1.0726 H   0  0  0  0  0  0  0  0  0  0  0  0
   -0.3101   -2.8506    0.3938 H   0  0  0  0  0  0  0  0  0  0  0  0
   -4.6172    0.8639   -1.4102 H   0  0  0  0  0  0  0  0  0  0  0  0
   -7.1584   -0.3173   -1.7451 H   0  0  0  0  0  0  0  0  0  0  0  0
   -9.4866    0.1580   -1.0280 H   0  0  0  0  0  0  0  0  0  0  0  0
   -8.0360    2.1684    2.4646 H   0  0  0  0  0  0  0  0  0  0  0  0
   -5.6959    1.7178    1.7767 H   0  0  0  0  0  0  0  0  0  0  0  0
    2.4918    0.5854    0.9964 H   0  0  0  0  0  0  0  0  0  0  0  0
    4.7494    0.1756    0.9671 H   0  0  0  0  0  0  0  0  0  0  0  0
    4.4688   -1.4832    0.4014 H   0  0  0  0  0  0  0  0  0  0  0  0
    3.8795   -0.5501   -1.8915 H   0  0  0  0  0  0  0  0  0  0  0  0
    4.2979    1.0553   -1.3170 H   0  0  0  0  0  0  0  0  0  0  0  0
    6.2206   -1.3530   -1.4277 H   0  0  0  0  0  0  0  0  0  0  0  0
    6.1458   -0.0552   -2.6239 H   0  0  0  0  0  0  0  0  0  0  0  0
    6.7196    2.4272   -1.7274 H   0  0  0  0  0  0  0  0  0  0  0  0
    8.6422    3.0564    0.1602 H   0  0  0  0  0  0  0  0  0  0  0  0
    7.7316   -1.0034    0.5293 H   0  0  0  0  0  0  0  0  0  0  0  0
  1  2  2  0
  2  3  1  0
  3  4  1  0
  4  5  1  0
  5  6  1  0
  6  7  2  0
  6  8  1  0
  8  9  2  3
  9 10  1  0
 10 11  2  0
 11 12  1  0
 12 13  2  0
 13 14  1  0
 13 15  1  0
 15 16  2  0
  8 17  1  0
 17 18  1  0
 18 19  2  0
  2 20  1  0
 20 21  1  0
 21 22  1  0
 22 23  1  0
 23 24  1  0
 24 25  1  0
 25 26  2  0
 26 27  1  0
 27 28  2  0
 18  5  1  0
 28 24  1  0
 16 10  1  0
  3 29  1  0
  3 30  1  0
  4 31  1  0
  4 32  1  0
  9 33  1  0
 11 34  1  0
 12 35  1  0
 15 36  1  0
 16 37  1  0
 20 38  1  0
 21 39  1  0
 21 40  1  0
 22 41  1  0
 22 42  1  0
 23 43  1  0
 23 44  1  0
 25 45  1  0
 26 46  1  0
 28 47  1  0
M  END
$$$$
