
     RDKit          3D

 55 57  0  0  0  0  0  0  0  0999 V2000
    7.5930   -2.7723   -0.1322 C   0  0  0  0  0  0  0  0  0  0  0  0
    6.5504   -1.9502    0.6050 C   0  0  0  0  0  0  0  0  0  0  0  0
    5.6569   -1.4077   -0.3718 O   0  0  0  0  0  0  0  0  0  0  0  0
    4.5885   -0.6741    0.0727 C   0  0  0  0  0  0  0  0  0  0  0  0
    4.3549   -0.3378    1.4081 C   0  0  0  0  0  0  0  0  0  0  0  0
    3.2202    0.4068    1.7630 C   0  0  0  0  0  0  0  0  0  0  0  0
    2.2981    0.8343    0.7938 C   0  0  0  0  0  0  0  0  0  0  0  0
    1.0886    1.5922    1.2518 C   0  0  0  0  0  0  0  0  0  0  0  0
    0.9543    1.8131    2.4540 O   0  0  0  0  0  0  0  0  0  0  0  0
    0.0535    2.0352    0.2444 C   0  0  0  0  0  0  0  0  0  0  0  0
   -0.7453    3.2100    0.7260 C   0  0  0  0  0  0  0  0  0  0  0  0
   -0.3176    4.3324    0.9585 O   0  0  0  0  0  0  0  0  0  0  0  0
   -2.2114    2.8274    0.8346 C   0  0  0  0  0  0  0  0  0  0  0  0
   -3.1092    3.5910    1.1177 O   0  0  0  0  0  0  0  0  0  0  0  0
   -2.3019    1.5005    0.4739 N   0  0  0  0  0  0  0  0  0  0  0  0
   -3.5967    0.9020    0.1310 C   0  0  0  0  0  0  0  0  0  0  0  0
   -4.1517    1.3962   -1.2259 C   0  0  0  0  0  0  0  0  0  0  0  0
   -5.2604    0.5804   -1.7562 N   0  0  0  0  0  0  0  0  0  0  0  0
   -5.6045    1.0221   -3.1121 C   0  0  0  0  0  0  0  0  0  0  0  0
   -6.4469    0.6460   -0.8984 C   0  0  0  0  0  0  0  0  0  0  0  0
   -1.0514    1.0037   -0.0817 C   0  0  0  0  0  0  0  0  0  0  0  0
   -0.7697   -0.4347    0.3034 C   0  0  0  0  0  0  0  0  0  0  0  0
   -0.4164   -1.3713   -0.6838 C   0  0  0  0  0  0  0  0  0  0  0  0
   -0.1149   -2.6937   -0.3362 C   0  0  0  0  0  0  0  0  0  0  0  0
   -0.1650   -3.0970    0.9981 C   0  0  0  0  0  0  0  0  0  0  0  0
   -0.5344   -2.1833    1.9880 C   0  0  0  0  0  0  0  0  0  0  0  0
   -0.8272   -0.8598    1.6440 C   0  0  0  0  0  0  0  0  0  0  0  0
    2.5418    0.5211   -0.5469 C   0  0  0  0  0  0  0  0  0  0  0  0
    3.6735   -0.2307   -0.8983 C   0  0  0  0  0  0  0  0  0  0  0  0
    3.8946   -0.5983   -2.5777 Cl  0  0  0  0  0  0  0  0  0  0  0  0
    8.1153   -2.1622   -0.8778 H   0  0  0  0  0  0  0  0  0  0  0  0
    7.1160   -3.5949   -0.6763 H   0  0  0  0  0  0  0  0  0  0  0  0
    8.3276   -3.1863    0.5655 H   0  0  0  0  0  0  0  0  0  0  0  0
    6.0067   -2.5984    1.3050 H   0  0  0  0  0  0  0  0  0  0  0  0
    7.0534   -1.1407    1.1486 H   0  0  0  0  0  0  0  0  0  0  0  0
    5.0297   -0.6369    2.2043 H   0  0  0  0  0  0  0  0  0  0  0  0
    3.0619    0.6452    2.8166 H   0  0  0  0  0  0  0  0  0  0  0  0
    0.5411    2.3717   -0.6772 H   0  0  0  0  0  0  0  0  0  0  0  0
   -4.3023    1.1685    0.9258 H   0  0  0  0  0  0  0  0  0  0  0  0
   -3.4882   -0.1870    0.1371 H   0  0  0  0  0  0  0  0  0  0  0  0
   -4.4467    2.4504   -1.1393 H   0  0  0  0  0  0  0  0  0  0  0  0
   -3.3269    1.3658   -1.9506 H   0  0  0  0  0  0  0  0  0  0  0  0
   -6.3689    0.3719   -3.5444 H   0  0  0  0  0  0  0  0  0  0  0  0
   -5.9724    2.0528   -3.1295 H   0  0  0  0  0  0  0  0  0  0  0  0
   -4.7263    0.9549   -3.7673 H   0  0  0  0  0  0  0  0  0  0  0  0
   -7.2726    0.0740   -1.3449 H   0  0  0  0  0  0  0  0  0  0  0  0
   -6.2498    0.1853    0.0759 H   0  0  0  0  0  0  0  0  0  0  0  0
   -6.7898    1.6761   -0.7356 H   0  0  0  0  0  0  0  0  0  0  0  0
   -1.1900    1.0368   -1.1700 H   0  0  0  0  0  0  0  0  0  0  0  0
   -0.3904   -1.0964   -1.7378 H   0  0  0  0  0  0  0  0  0  0  0  0
    0.1689   -3.4044   -1.1068 H   0  0  0  0  0  0  0  0  0  0  0  0
    0.0704   -4.1255    1.2637 H   0  0  0  0  0  0  0  0  0  0  0  0
   -0.5963   -2.5020    3.0271 H   0  0  0  0  0  0  0  0  0  0  0  0
   -1.0916   -0.1578    2.4385 H   0  0  0  0  0  0  0  0  0  0  0  0
    1.8776    0.8356   -1.3439 H   0  0  0  0  0  0  0  0  0  0  0  0
  1  2  1  0
  2  3  1  0
  3  4  1  0
  4  5  2  0
  5  6  1  0
  6  7  2  0
  7  8  1  0
  8  9  2  0
  8 10  1  0
 10 11  1  0
 11 12  2  0
 11 13  1  0
 13 14  2  0
 13 15  1  0
 15 16  1  0
 16 17  1  0
 17 18  1  0
 18 19  1  0
 18 20  1  0
 15 21  1  0
 21 22  1  0
 22 23  2  0
 23 24  1  0
 24 25  2  0
 25 26  1  0
 26 27  2  0
  7 28  1  0
 28 29  2  0
 29 30  1  0
 29  4  1  0
 21 10  1  0
 27 22  1  0
  1 31  1  0
  1 32  1  0
  1 33  1  0
  2 34  1  0
  2 35  1  0
  5 36  1  0
  6 37  1  0
 10 38  1  0
 16 39  1  0
 16 40  1  0
 17 41  1  0
 17 42  1  0
 19 43  1  0
 19 44  1  0
 19 45  1  0
 20 46  1  0
 20 47  1  0
 20 48  1  0
 21 49  1  0
 23 50  1  0
 24 51  1  0
 25 52  1  0
 26 53  1  0
 27 54  1  0
 28 55  1  0
M  END
$$$$
