
     RDKit          3D

 36 37  0  0  0  0  0  0  0  0999 V2000
   -2.0319   -2.3149    2.0200 C   0  0  0  0  0  0  0  0  0  0  0  0
   -2.7735   -1.4230    1.0180 C   0  0  0  0  0  0  0  0  0  0  0  0
   -2.9576    0.0012    1.5704 C   0  0  0  0  0  0  0  0  0  0  0  0
   -2.1531    1.0518    0.7928 C   0  0  0  0  0  0  0  0  0  0  0  0
   -2.1013    2.3704    1.5629 C   0  0  0  0  0  0  0  0  0  0  0  0
   -0.7445    0.5384    0.4909 C   0  0  0  0  0  0  0  0  0  0  0  0
   -0.7612   -0.7384   -0.2758 N   0  0  0  0  0  0  0  0  0  0  0  0
    0.0832   -0.7267   -1.7564 S   0  0  0  0  0  6  0  0  0  0  0  0
    0.0832   -2.0640   -2.3076 O   0  0  0  0  0  0  0  0  0  0  0  0
   -0.3905    0.4055   -2.5245 O   0  0  0  0  0  0  0  0  0  0  0  0
    1.7901   -0.3654   -1.4213 C   0  0  0  0  0  0  0  0  0  0  0  0
    2.6647    0.5648   -1.9467 C   0  0  0  0  0  0  0  0  0  0  0  0
    3.9866    0.5021   -1.3694 C   0  0  0  0  0  0  0  0  0  0  0  0
    5.0676    1.3865   -1.7725 C   0  0  0  0  0  0  0  0  0  0  0  0
    4.9564    2.2719   -2.6087 O   0  0  0  0  0  0  0  0  0  0  0  0
    6.2556    1.1945   -1.1672 O   0  0  0  0  0  0  0  0  0  0  0  0
    4.0213   -0.4973   -0.4195 C   0  0  0  0  0  0  0  0  0  0  0  0
    5.3232   -1.0122    0.5873 Cl  0  0  0  0  0  0  0  0  0  0  0  0
    2.5471   -1.3222   -0.2301 S   0  0  0  0  0  0  0  0  0  0  0  0
   -2.0786   -1.4205   -0.3484 C   0  0  0  0  0  0  0  0  0  0  0  0
   -1.9218   -3.3314    1.6276 H   0  0  0  0  0  0  0  0  0  0  0  0
   -2.5890   -2.3816    2.9608 H   0  0  0  0  0  0  0  0  0  0  0  0
   -1.0330   -1.9300    2.2487 H   0  0  0  0  0  0  0  0  0  0  0  0
   -3.7697   -1.8654    0.8855 H   0  0  0  0  0  0  0  0  0  0  0  0
   -4.0206    0.2707    1.5163 H   0  0  0  0  0  0  0  0  0  0  0  0
   -2.6972    0.0336    2.6361 H   0  0  0  0  0  0  0  0  0  0  0  0
   -2.6659    1.2481   -0.1586 H   0  0  0  0  0  0  0  0  0  0  0  0
   -1.5846    2.2526    2.5215 H   0  0  0  0  0  0  0  0  0  0  0  0
   -3.1116    2.7415    1.7650 H   0  0  0  0  0  0  0  0  0  0  0  0
   -1.5720    3.1359    0.9859 H   0  0  0  0  0  0  0  0  0  0  0  0
   -0.1842    1.3121   -0.0458 H   0  0  0  0  0  0  0  0  0  0  0  0
   -0.1974    0.3537    1.4238 H   0  0  0  0  0  0  0  0  0  0  0  0
    2.3726    1.2672   -2.7217 H   0  0  0  0  0  0  0  0  0  0  0  0
    6.8363    1.8702   -1.5734 H   0  0  0  0  0  0  0  0  0  0  0  0
   -2.7144   -0.9232   -1.0911 H   0  0  0  0  0  0  0  0  0  0  0  0
   -1.9346   -2.4564   -0.6762 H   0  0  0  0  0  0  0  0  0  0  0  0
  1  2  1  0
  2  3  1  0
  3  4  1  0
  4  5  1  0
  4  6  1  0
  6  7  1  0
  7  8  1  0
  8  9  2  0
  8 10  2  0
  8 11  1  0
 11 12  2  0
 12 13  1  0
 13 14  1  0
 14 15  2  0
 14 16  1  0
 13 17  2  0
 17 18  1  0
 17 19  1  0
  7 20  1  0
 20  2  1  0
 19 11  1  0
  1 21  1  0
  1 22  1  0
  1 23  1  0
  2 24  1  0
  3 25  1  0
  3 26  1  0
  4 27  1  0
  5 28  1  0
  5 29  1  0
  5 30  1  0
  6 31  1  0
  6 32  1  0
 12 33  1  0
 16 34  1  0
 20 35  1  0
 20 36  1  0
M  END
$$$$
