
     RDKit          3D

 36 37  0  0  0  0  0  0  0  0999 V2000
    0.8570    2.0489   -1.2694 C   0  0  0  0  0  0  0  0  0  0  0  0
    1.0312    0.6361   -1.2565 O   0  0  0  0  0  0  0  0  0  0  0  0
    2.2839    0.1699   -0.9452 C   0  0  0  0  0  0  0  0  0  0  0  0
    3.4089    0.9785   -0.7490 C   0  0  0  0  0  0  0  0  0  0  0  0
    4.6429    0.4107   -0.4212 C   0  0  0  0  0  0  0  0  0  0  0  0
    4.7633   -0.9679   -0.2831 C   0  0  0  0  0  0  0  0  0  0  0  0
    3.6512   -1.7828   -0.4801 C   0  0  0  0  0  0  0  0  0  0  0  0
    2.4077   -1.2266   -0.8242 C   0  0  0  0  0  0  0  0  0  0  0  0
    1.2221   -2.1442   -1.0084 C   0  0  0  0  0  0  0  0  0  0  0  0
    0.4018   -2.2849    0.2621 C   0  0  0  0  0  0  0  0  0  0  0  0
    0.6723   -3.1412    1.0988 O   0  0  0  0  0  0  0  0  0  0  0  0
   -0.6283   -1.3634    0.3385 N   0  0  0  0  0  0  0  0  0  0  0  0
   -1.5642   -1.2525    1.3477 C   0  0  0  0  0  0  0  0  0  0  0  0
   -1.6026   -1.9462    2.3578 O   0  0  0  0  0  0  0  0  0  0  0  0
   -2.5911   -0.1739    1.1747 C   0  0  0  0  0  0  0  0  0  0  0  0
   -3.3529    0.1763    2.3019 C   0  0  0  0  0  0  0  0  0  0  0  0
   -4.3336    1.1673    2.2234 C   0  0  0  0  0  0  0  0  0  0  0  0
   -4.5689    1.8186    1.0153 C   0  0  0  0  0  0  0  0  0  0  0  0
   -3.8281    1.4794   -0.1170 C   0  0  0  0  0  0  0  0  0  0  0  0
   -2.8466    0.4864   -0.0374 C   0  0  0  0  0  0  0  0  0  0  0  0
   -2.1423    0.1665   -1.1693 O   0  0  0  0  0  0  0  0  0  0  0  0
   -0.1953    2.2544   -1.4873 H   0  0  0  0  0  0  0  0  0  0  0  0
    1.4540    2.5121   -2.0617 H   0  0  0  0  0  0  0  0  0  0  0  0
    1.0842    2.4849   -0.2909 H   0  0  0  0  0  0  0  0  0  0  0  0
    3.3635    2.0584   -0.8400 H   0  0  0  0  0  0  0  0  0  0  0  0
    5.5099    1.0478   -0.2657 H   0  0  0  0  0  0  0  0  0  0  0  0
    5.7197   -1.4092   -0.0148 H   0  0  0  0  0  0  0  0  0  0  0  0
    3.7539   -2.8592   -0.3521 H   0  0  0  0  0  0  0  0  0  0  0  0
    0.5914   -1.8016   -1.8379 H   0  0  0  0  0  0  0  0  0  0  0  0
    1.5563   -3.1464   -1.3062 H   0  0  0  0  0  0  0  0  0  0  0  0
   -0.7041   -0.6954   -0.4227 H   0  0  0  0  0  0  0  0  0  0  0  0
   -3.1824   -0.3262    3.2536 H   0  0  0  0  0  0  0  0  0  0  0  0
   -4.9129    1.4257    3.1070 H   0  0  0  0  0  0  0  0  0  0  0  0
   -5.3338    2.5895    0.9565 H   0  0  0  0  0  0  0  0  0  0  0  0
   -4.0313    1.9998   -1.0486 H   0  0  0  0  0  0  0  0  0  0  0  0
   -2.5568    0.6103   -1.9315 H   0  0  0  0  0  0  0  0  0  0  0  0
  1  2  1  0
  2  3  1  0
  3  4  2  0
  4  5  1  0
  5  6  2  0
  6  7  1  0
  7  8  2  0
  8  9  1  0
  9 10  1  0
 10 11  2  0
 10 12  1  0
 12 13  1  0
 13 14  2  0
 13 15  1  0
 15 16  2  0
 16 17  1  0
 17 18  2  0
 18 19  1  0
 19 20  2  0
 20 21  1  0
  8  3  1  0
 20 15  1  0
  1 22  1  0
  1 23  1  0
  1 24  1  0
  4 25  1  0
  5 26  1  0
  6 27  1  0
  7 28  1  0
  9 29  1  0
  9 30  1  0
 12 31  1  0
 16 32  1  0
 17 33  1  0
 18 34  1  0
 19 35  1  0
 21 36  1  0
M  END
$$$$
