
     RDKit          3D

 55 58  0  0  0  0  0  0  0  0999 V2000
    3.1337   -4.6074   -4.0805 C   0  0  0  0  0  0  0  0  0  0  0  0
    2.8388   -3.2343   -3.8537 O   0  0  0  0  0  0  0  0  0  0  0  0
    2.3627   -2.9033   -2.6114 C   0  0  0  0  0  0  0  0  0  0  0  0
    2.6111   -3.6771   -1.4720 C   0  0  0  0  0  0  0  0  0  0  0  0
    2.0790   -3.3122   -0.2359 C   0  0  0  0  0  0  0  0  0  0  0  0
    1.2829   -2.1760   -0.1261 C   0  0  0  0  0  0  0  0  0  0  0  0
    1.0166   -1.3767   -1.2494 C   0  0  0  0  0  0  0  0  0  0  0  0
    0.1546   -0.1310   -1.1402 C   0  0  0  0  0  0  0  0  0  0  0  0
    1.0328    1.1247   -1.0773 C   0  0  0  0  0  0  0  0  0  0  0  0
    0.3124    1.9837   -0.0756 C   0  0  0  0  0  0  0  0  0  0  0  0
    0.6577    3.4106    0.1135 C   0  0  0  0  0  0  0  0  0  0  0  0
   -0.2088    4.2247    0.8527 C   0  0  0  0  0  0  0  0  0  0  0  0
    0.0869    5.5757    1.0399 C   0  0  0  0  0  0  0  0  0  0  0  0
    1.2504    6.1161    0.4965 C   0  0  0  0  0  0  0  0  0  0  0  0
    2.1196    5.3086   -0.2355 C   0  0  0  0  0  0  0  0  0  0  0  0
    1.8239    3.9577   -0.4325 C   0  0  0  0  0  0  0  0  0  0  0  0
   -0.6085    1.3864    0.6132 N   0  0  0  0  0  0  0  0  0  0  0  0
   -0.6714   -0.0311    0.1011 N   0  0  0  0  0  0  0  0  0  0  0  0
   -2.2508   -0.7113   -0.0570 S   0  0  0  0  0  6  0  0  0  0  0  0
   -2.1224   -2.1129   -0.4106 O   0  0  0  0  0  0  0  0  0  0  0  0
   -3.0599    0.1803   -0.8674 O   0  0  0  0  0  0  0  0  0  0  0  0
   -2.8432   -0.6330    1.6191 C   0  0  0  0  0  0  0  0  0  0  0  0
   -2.6814   -1.7375    2.4592 C   0  0  0  0  0  0  0  0  0  0  0  0
   -3.1685   -1.6792    3.7655 C   0  0  0  0  0  0  0  0  0  0  0  0
   -3.8200   -0.5279    4.2337 C   0  0  0  0  0  0  0  0  0  0  0  0
   -4.3230   -0.4798    5.6463 C   0  0  0  0  0  0  0  0  0  0  0  0
   -3.9873    0.5664    3.3742 C   0  0  0  0  0  0  0  0  0  0  0  0
   -3.5077    0.5133    2.0649 C   0  0  0  0  0  0  0  0  0  0  0  0
    1.6012   -1.7241   -2.4881 C   0  0  0  0  0  0  0  0  0  0  0  0
    1.3138   -0.8649   -3.5225 O   0  0  0  0  0  0  0  0  0  0  0  0
    2.3817   -0.6043   -4.4275 C   0  0  0  0  0  0  0  0  0  0  0  0
    3.2621   -4.7489   -5.1577 H   0  0  0  0  0  0  0  0  0  0  0  0
    2.3136   -5.2564   -3.7543 H   0  0  0  0  0  0  0  0  0  0  0  0
    4.0748   -4.8854   -3.5965 H   0  0  0  0  0  0  0  0  0  0  0  0
    3.2218   -4.5725   -1.5149 H   0  0  0  0  0  0  0  0  0  0  0  0
    2.2747   -3.9217    0.6437 H   0  0  0  0  0  0  0  0  0  0  0  0
    0.8684   -1.9213    0.8476 H   0  0  0  0  0  0  0  0  0  0  0  0
   -0.5132   -0.0609   -2.0085 H   0  0  0  0  0  0  0  0  0  0  0  0
    2.0423    0.9191   -0.7014 H   0  0  0  0  0  0  0  0  0  0  0  0
    1.0997    1.6145   -2.0529 H   0  0  0  0  0  0  0  0  0  0  0  0
   -1.1222    3.8162    1.2807 H   0  0  0  0  0  0  0  0  0  0  0  0
   -0.5931    6.2044    1.6075 H   0  0  0  0  0  0  0  0  0  0  0  0
    1.4818    7.1686    0.6453 H   0  0  0  0  0  0  0  0  0  0  0  0
    3.0280    5.7341   -0.6543 H   0  0  0  0  0  0  0  0  0  0  0  0
    2.5200    3.3530   -1.0059 H   0  0  0  0  0  0  0  0  0  0  0  0
   -2.1809   -2.6381    2.1082 H   0  0  0  0  0  0  0  0  0  0  0  0
   -3.0371   -2.5383    4.4191 H   0  0  0  0  0  0  0  0  0  0  0  0
   -3.4848   -0.5677    6.3450 H   0  0  0  0  0  0  0  0  0  0  0  0
   -5.0272   -1.2976    5.8266 H   0  0  0  0  0  0  0  0  0  0  0  0
   -4.8455    0.4597    5.8586 H   0  0  0  0  0  0  0  0  0  0  0  0
   -4.4901    1.4661    3.7194 H   0  0  0  0  0  0  0  0  0  0  0  0
   -3.6402    1.3655    1.4020 H   0  0  0  0  0  0  0  0  0  0  0  0
    2.3433   -1.3005   -5.2707 H   0  0  0  0  0  0  0  0  0  0  0  0
    2.2341    0.4045   -4.8286 H   0  0  0  0  0  0  0  0  0  0  0  0
    3.3627   -0.6202   -3.9382 H   0  0  0  0  0  0  0  0  0  0  0  0
  1  2  1  0
  2  3  1  0
  3  4  2  0
  4  5  1  0
  5  6  2  0
  6  7  1  0
  7  8  1  0
  8  9  1  0
  9 10  1  0
 10 11  1  0
 11 12  2  0
 12 13  1  0
 13 14  2  0
 14 15  1  0
 15 16  2  0
 10 17  2  0
 17 18  1  0
 18 19  1  0
 19 20  2  0
 19 21  2  0
 19 22  1  0
 22 23  2  0
 23 24  1  0
 24 25  2  0
 25 26  1  0
 25 27  1  0
 27 28  2  0
  7 29  2  0
 29 30  1  0
 30 31  1  0
 29  3  1  0
 18  8  1  0
 28 22  1  0
 16 11  1  0
  1 32  1  0
  1 33  1  0
  1 34  1  0
  4 35  1  0
  5 36  1  0
  6 37  1  0
  8 38  1  0
  9 39  1  0
  9 40  1  0
 12 41  1  0
 13 42  1  0
 14 43  1  0
 15 44  1  0
 16 45  1  0
 23 46  1  0
 24 47  1  0
 26 48  1  0
 26 49  1  0
 26 50  1  0
 27 51  1  0
 28 52  1  0
 31 53  1  0
 31 54  1  0
 31 55  1  0
M  END
$$$$
