
     RDKit          3D

 43 44  0  0  0  0  0  0  0  0999 V2000
    1.2428   -0.1211   -4.1855 C   0  0  0  0  0  0  0  0  0  0  0  0
    2.5624   -0.6032   -3.9065 O   0  0  0  0  0  0  0  0  0  0  0  0
    2.8567   -0.8598   -2.5894 C   0  0  0  0  0  0  0  0  0  0  0  0
    4.0039   -1.6277   -2.3767 C   0  0  0  0  0  0  0  0  0  0  0  0
    4.3821   -1.9837   -1.0855 C   0  0  0  0  0  0  0  0  0  0  0  0
    3.6217   -1.5666    0.0122 C   0  0  0  0  0  0  0  0  0  0  0  0
    2.4902   -0.7725   -0.1791 C   0  0  0  0  0  0  0  0  0  0  0  0
    1.6678   -0.3039    0.8678 N   0  0  0  0  0  0  0  0  0  0  0  0
    1.8119   -0.5235    2.2275 C   0  0  0  0  0  0  0  0  0  0  0  0
    2.6903   -1.1827    2.7790 O   0  0  0  0  0  0  0  0  0  0  0  0
    0.6958    0.0861    3.0491 C   0  0  0  0  0  0  0  0  0  0  0  0
    0.4234    1.5273    2.6866 C   0  0  0  0  0  0  0  0  0  0  0  0
    1.3021    2.5808    3.3349 C   0  0  0  0  0  0  0  0  0  0  0  0
   -0.4261    1.9328    1.7870 N   0  0  0  0  0  0  0  0  0  0  0  0
   -1.2720    1.0597    1.1743 N   0  0  0  0  0  0  0  0  0  0  0  0
   -2.0943    1.5248    0.1550 C   0  0  0  0  0  0  0  0  0  0  0  0
   -2.0074    2.6205   -0.3874 O   0  0  0  0  0  0  0  0  0  0  0  0
   -3.1924    0.6139   -0.2531 C   0  0  0  0  0  0  0  0  0  0  0  0
   -4.4778    1.1797   -0.3537 C   0  0  0  0  0  0  0  0  0  0  0  0
   -5.5717    0.3929   -0.7293 C   0  0  0  0  0  0  0  0  0  0  0  0
   -5.3847   -0.9554   -1.0266 C   0  0  0  0  0  0  0  0  0  0  0  0
   -4.1070   -1.5215   -0.9464 C   0  0  0  0  0  0  0  0  0  0  0  0
   -3.0088   -0.7423   -0.5605 C   0  0  0  0  0  0  0  0  0  0  0  0
   -1.4620   -1.5131   -0.5249 Cl  0  0  0  0  0  0  0  0  0  0  0  0
    2.1176   -0.4184   -1.4869 C   0  0  0  0  0  0  0  0  0  0  0  0
    0.4808   -0.7647   -3.7195 H   0  0  0  0  0  0  0  0  0  0  0  0
    1.0861   -0.1636   -5.2710 H   0  0  0  0  0  0  0  0  0  0  0  0
    1.1403    0.9316   -3.8751 H   0  0  0  0  0  0  0  0  0  0  0  0
    4.5950   -1.9645   -3.2247 H   0  0  0  0  0  0  0  0  0  0  0  0
    5.2682   -2.5943   -0.9286 H   0  0  0  0  0  0  0  0  0  0  0  0
    3.9446   -1.8879    1.0043 H   0  0  0  0  0  0  0  0  0  0  0  0
    0.9100    0.3122    0.5761 H   0  0  0  0  0  0  0  0  0  0  0  0
   -0.1958   -0.5380    2.9493 H   0  0  0  0  0  0  0  0  0  0  0  0
    0.9868    0.0512    4.1070 H   0  0  0  0  0  0  0  0  0  0  0  0
    2.3171    2.5024    2.9291 H   0  0  0  0  0  0  0  0  0  0  0  0
    1.3238    2.4229    4.4154 H   0  0  0  0  0  0  0  0  0  0  0  0
    0.9193    3.5872    3.1263 H   0  0  0  0  0  0  0  0  0  0  0  0
   -1.4770    0.1580    1.6004 H   0  0  0  0  0  0  0  0  0  0  0  0
   -4.6254    2.2359   -0.1396 H   0  0  0  0  0  0  0  0  0  0  0  0
   -6.5673    0.8330   -0.8021 H   0  0  0  0  0  0  0  0  0  0  0  0
   -6.2357   -1.5736   -1.3252 H   0  0  0  0  0  0  0  0  0  0  0  0
   -3.9738   -2.5703   -1.1999 H   0  0  0  0  0  0  0  0  0  0  0  0
    1.2384    0.1996   -1.6345 H   0  0  0  0  0  0  0  0  0  0  0  0
  1  2  1  0
  2  3  1  0
  3  4  2  0
  4  5  1  0
  5  6  2  0
  6  7  1  0
  7  8  1  0
  8  9  1  0
  9 10  2  0
  9 11  1  0
 11 12  1  0
 12 13  1  0
 12 14  2  3
 14 15  1  0
 15 16  1  0
 16 17  2  0
 16 18  1  0
 18 19  2  0
 19 20  1  0
 20 21  2  0
 21 22  1  0
 22 23  2  0
 23 24  1  0
  7 25  2  0
 25  3  1  0
 23 18  1  0
  1 26  1  0
  1 27  1  0
  1 28  1  0
  4 29  1  0
  5 30  1  0
  6 31  1  0
  8 32  1  0
 11 33  1  0
 11 34  1  0
 13 35  1  0
 13 36  1  0
 13 37  1  0
 15 38  1  0
 19 39  1  0
 20 40  1  0
 21 41  1  0
 22 42  1  0
 25 43  1  0
M  END
$$$$
