
     RDKit          3D

 50 53  0  0  0  0  0  0  0  0999 V2000
   -8.1231   -0.1089    2.1283 C   0  0  0  0  0  0  0  0  0  0  0  0
   -6.8199    0.2565    1.4808 C   0  0  0  0  0  0  0  0  0  0  0  0
   -5.8377   -0.7142    1.2649 C   0  0  0  0  0  0  0  0  0  0  0  0
   -4.6077   -0.3729    0.6893 C   0  0  0  0  0  0  0  0  0  0  0  0
   -4.3367    0.9472    0.3294 C   0  0  0  0  0  0  0  0  0  0  0  0
   -3.1247    1.3801   -0.2553 N   0  0  0  0  0  0  0  0  0  0  0  0
   -2.0308    0.5977   -0.5915 C   0  0  0  0  0  0  0  0  0  0  0  0
   -1.9366   -0.6206   -0.4602 O   0  0  0  0  0  0  0  0  0  0  0  0
   -0.8774    1.4031   -1.2081 C   0  0  0  0  0  0  0  0  0  0  0  0
    0.4093    0.7060   -1.0706 N   0  0  0  0  0  4  0  0  0  0  0  0
    1.4679    1.0517   -0.2316 C   0  0  0  0  0  0  0  0  0  0  0  0
    2.4763    0.1030   -0.3587 C   0  0  0  0  0  0  0  0  0  0  0  0
    3.8412    0.0839    0.4191 C   0  0  0  0  0  0  0  0  0  0  0  0
    4.7413   -0.9693    0.2553 C   0  0  0  0  0  0  0  0  0  0  0  0
    5.9526   -0.9756    0.9547 C   0  0  0  0  0  0  0  0  0  0  0  0
    6.2731    0.0624    1.8347 C   0  0  0  0  0  0  0  0  0  0  0  0
    7.5881    0.0683    2.5587 C   0  0  0  0  0  0  0  0  0  0  0  0
    5.3736    1.1210    1.9886 C   0  0  0  0  0  0  0  0  0  0  0  0
    4.1615    1.1304    1.2916 C   0  0  0  0  0  0  0  0  0  0  0  0
    1.9704   -0.7718   -1.3026 N   0  0  0  0  0  0  0  0  0  0  0  0
    0.7379   -0.4340   -1.6739 C   0  0  0  0  0  0  0  0  0  0  0  0
    0.1485   -1.3745   -2.6569 C   0  0  0  0  0  0  0  0  0  0  0  0
    1.3831   -2.1806   -3.1059 C   0  0  0  0  0  0  0  0  0  0  0  0
    2.4201   -1.9872   -1.9662 C   0  0  0  0  0  0  0  0  0  0  0  0
   -5.3154    1.9223    0.5614 C   0  0  0  0  0  0  0  0  0  0  0  0
   -6.5439    1.5815    1.1362 C   0  0  0  0  0  0  0  0  0  0  0  0
   -8.0369   -0.0248    3.2160 H   0  0  0  0  0  0  0  0  0  0  0  0
   -8.9279    0.5495    1.7847 H   0  0  0  0  0  0  0  0  0  0  0  0
   -8.4116   -1.1341    1.8737 H   0  0  0  0  0  0  0  0  0  0  0  0
   -6.0220   -1.7502    1.5437 H   0  0  0  0  0  0  0  0  0  0  0  0
   -3.8885   -1.1720    0.5454 H   0  0  0  0  0  0  0  0  0  0  0  0
   -3.0841    2.3747   -0.4466 H   0  0  0  0  0  0  0  0  0  0  0  0
   -0.8006    2.3815   -0.7226 H   0  0  0  0  0  0  0  0  0  0  0  0
   -1.0785    1.5491   -2.2742 H   0  0  0  0  0  0  0  0  0  0  0  0
    1.3642    1.9368    0.3725 H   0  0  0  0  0  0  0  0  0  0  0  0
    4.5353   -1.8081   -0.3962 H   0  0  0  0  0  0  0  0  0  0  0  0
    6.6473   -1.8023    0.8128 H   0  0  0  0  0  0  0  0  0  0  0  0
    8.3460    0.5743    1.9529 H   0  0  0  0  0  0  0  0  0  0  0  0
    7.9239   -0.9530    2.7665 H   0  0  0  0  0  0  0  0  0  0  0  0
    7.5015    0.5836    3.5211 H   0  0  0  0  0  0  0  0  0  0  0  0
    5.6136    1.9466    2.6571 H   0  0  0  0  0  0  0  0  0  0  0  0
    3.4973    1.9743    1.4509 H   0  0  0  0  0  0  0  0  0  0  0  0
   -0.5693   -1.9962   -2.1200 H   0  0  0  0  0  0  0  0  0  0  0  0
   -0.3183   -0.8056   -3.4616 H   0  0  0  0  0  0  0  0  0  0  0  0
    1.7820   -1.7406   -4.0277 H   0  0  0  0  0  0  0  0  0  0  0  0
    1.1593   -3.2323   -3.3033 H   0  0  0  0  0  0  0  0  0  0  0  0
    3.4272   -1.8648   -2.3708 H   0  0  0  0  0  0  0  0  0  0  0  0
    2.3817   -2.8144   -1.2514 H   0  0  0  0  0  0  0  0  0  0  0  0
   -5.1463    2.9645    0.3035 H   0  0  0  0  0  0  0  0  0  0  0  0
   -7.2858    2.3581    1.3123 H   0  0  0  0  0  0  0  0  0  0  0  0
  1  2  1  0
  2  3  2  0
  3  4  1  0
  4  5  2  0
  5  6  1  0
  6  7  1  0
  7  8  2  0
  7  9  1  0
  9 10  1  0
 10 11  1  0
 11 12  2  0
 12 13  1  0
 13 14  2  0
 14 15  1  0
 15 16  2  0
 16 17  1  0
 16 18  1  0
 18 19  2  0
 12 20  1  0
 20 21  1  0
 21 22  1  0
 22 23  1  0
 23 24  1  0
  5 25  1  0
 25 26  2  0
 26  2  1  0
 21 10  2  0
 19 13  1  0
 24 20  1  0
  1 27  1  0
  1 28  1  0
  1 29  1  0
  3 30  1  0
  4 31  1  0
  6 32  1  0
  9 33  1  0
  9 34  1  0
 11 35  1  0
 14 36  1  0
 15 37  1  0
 17 38  1  0
 17 39  1  0
 17 40  1  0
 18 41  1  0
 19 42  1  0
 22 43  1  0
 22 44  1  0
 23 45  1  0
 23 46  1  0
 24 47  1  0
 24 48  1  0
 25 49  1  0
 26 50  1  0
M  CHG  1  10   1
M  END
$$$$
