
     RDKit          3D

 48 51  0  0  0  0  0  0  0  0999 V2000
   -7.7060   -0.3146    2.0701 C   0  0  0  0  0  0  0  0  0  0  0  0
   -6.5426   -0.2707    1.1214 C   0  0  0  0  0  0  0  0  0  0  0  0
   -6.7525   -0.5213   -0.2293 C   0  0  0  0  0  0  0  0  0  0  0  0
   -5.6769   -0.4900   -1.1340 C   0  0  0  0  0  0  0  0  0  0  0  0
   -5.9459   -0.7785   -2.5845 C   0  0  0  0  0  0  0  0  0  0  0  0
   -4.3926   -0.1763   -0.6055 C   0  0  0  0  0  0  0  0  0  0  0  0
   -3.0777   -0.0294   -1.1841 C   0  0  0  0  0  0  0  0  0  0  0  0
   -2.8061   -0.1670   -2.5044 N   0  0  0  0  0  0  0  0  0  0  0  0
   -2.0929    0.2664   -0.2548 C   0  0  0  0  0  0  0  0  0  0  0  0
   -0.6708    0.4888   -0.4973 C   0  0  0  0  0  0  0  0  0  0  0  0
   -0.1762    0.5097   -1.6280 O   0  0  0  0  0  0  0  0  0  0  0  0
    0.1159    0.6953    0.6378 N   0  0  0  0  0  0  0  0  0  0  0  0
    1.5240    0.5477    0.5378 N   0  0  0  0  0  0  0  0  0  0  0  0
    2.2022    1.6413   -0.1487 C   0  0  0  0  0  0  0  0  0  0  0  0
    3.6751    1.6378    0.2581 C   0  0  0  0  0  0  0  0  0  0  0  0
    4.2791    2.6942    0.4320 O   0  0  0  0  0  0  0  0  0  0  0  0
    4.2297    0.3511    0.3773 N   0  0  0  0  0  0  0  0  0  0  0  0
    5.6372    0.1608    0.5249 C   0  0  0  0  0  0  0  0  0  0  0  0
    6.1060   -0.8600    1.3652 C   0  0  0  0  0  0  0  0  0  0  0  0
    7.4786   -1.0646    1.5428 C   0  0  0  0  0  0  0  0  0  0  0  0
    8.4004   -0.2596    0.8757 C   0  0  0  0  0  0  0  0  0  0  0  0
    7.9499    0.7451    0.0229 C   0  0  0  0  0  0  0  0  0  0  0  0
    6.5815    0.9482   -0.1508 C   0  0  0  0  0  0  0  0  0  0  0  0
    6.1975    1.8494   -1.0675 F   0  0  0  0  0  0  0  0  0  0  0  0
    3.4458   -0.8050   -0.0838 C   0  0  0  0  0  0  0  0  0  0  0  0
    2.0173   -0.7508    0.4431 C   0  0  0  0  0  0  0  0  0  0  0  0
    1.3462   -1.7557    0.6670 O   0  0  0  0  0  0  0  0  0  0  0  0
   -2.7533    0.3786    1.3198 S   0  0  0  0  0  0  0  0  0  0  0  0
   -4.3242    0.0427    0.7675 C   0  0  0  0  0  0  0  0  0  0  0  0
   -5.3400    0.0107    1.6524 N   0  0  0  0  0  0  0  0  0  0  0  0
   -8.4577    0.4265    1.7810 H   0  0  0  0  0  0  0  0  0  0  0  0
   -8.1603   -1.3103    2.0650 H   0  0  0  0  0  0  0  0  0  0  0  0
   -7.3844   -0.0920    3.0928 H   0  0  0  0  0  0  0  0  0  0  0  0
   -7.7561   -0.7476   -0.5812 H   0  0  0  0  0  0  0  0  0  0  0  0
   -5.8036    0.1288   -3.1794 H   0  0  0  0  0  0  0  0  0  0  0  0
   -6.9714   -1.1278   -2.7442 H   0  0  0  0  0  0  0  0  0  0  0  0
   -5.2759   -1.5644   -2.9463 H   0  0  0  0  0  0  0  0  0  0  0  0
   -3.5218   -0.0927   -3.2177 H   0  0  0  0  0  0  0  0  0  0  0  0
   -1.8744    0.0720   -2.8562 H   0  0  0  0  0  0  0  0  0  0  0  0
   -0.2810    0.3975    1.5262 H   0  0  0  0  0  0  0  0  0  0  0  0
    1.7503    2.5910    0.1547 H   0  0  0  0  0  0  0  0  0  0  0  0
    2.1407    1.5118   -1.2335 H   0  0  0  0  0  0  0  0  0  0  0  0
    5.4132   -1.4819    1.9269 H   0  0  0  0  0  0  0  0  0  0  0  0
    7.8276   -1.8483    2.2117 H   0  0  0  0  0  0  0  0  0  0  0  0
    9.4669   -0.4186    1.0149 H   0  0  0  0  0  0  0  0  0  0  0  0
    8.6532    1.3664   -0.5230 H   0  0  0  0  0  0  0  0  0  0  0  0
    3.8919   -1.7458    0.2507 H   0  0  0  0  0  0  0  0  0  0  0  0
    3.4141   -0.7889   -1.1791 H   0  0  0  0  0  0  0  0  0  0  0  0
  1  2  1  0
  2  3  2  0
  3  4  1  0
  4  5  1  0
  4  6  2  0
  6  7  1  0
  7  8  1  0
  7  9  2  0
  9 10  1  0
 10 11  2  0
 10 12  1  0
 12 13  1  0
 13 14  1  0
 14 15  1  0
 15 16  2  0
 15 17  1  0
 17 18  1  0
 18 19  2  0
 19 20  1  0
 20 21  2  0
 21 22  1  0
 22 23  2  0
 23 24  1  0
 17 25  1  0
 25 26  1  0
 26 27  2  0
  9 28  1  0
 28 29  1  0
 29 30  2  0
 30  2  1  0
 29  6  1  0
 26 13  1  0
 23 18  1  0
  1 31  1  0
  1 32  1  0
  1 33  1  0
  3 34  1  0
  5 35  1  0
  5 36  1  0
  5 37  1  0
  8 38  1  0
  8 39  1  0
 12 40  1  0
 14 41  1  0
 14 42  1  0
 19 43  1  0
 20 44  1  0
 21 45  1  0
 22 46  1  0
 25 47  1  0
 25 48  1  0
M  END
$$$$
