
     RDKit          3D

 50 52  0  0  0  0  0  0  0  0999 V2000
   -4.1241   -3.0893    1.3303 C   0  0  0  0  0  0  0  0  0  0  0  0
   -3.1206   -2.1486    1.9878 C   0  0  0  0  0  0  0  0  0  0  0  0
   -2.2247   -1.3853    0.9908 C   0  0  0  0  0  0  0  0  0  0  0  0
   -2.9943   -0.4568    0.0515 C   0  0  0  0  0  0  0  0  0  0  0  0
   -2.9764   -0.6178   -1.3464 C   0  0  0  0  0  0  0  0  0  0  0  0
   -3.6997    0.2398   -2.1800 C   0  0  0  0  0  0  0  0  0  0  0  0
   -4.4552    1.2741   -1.6346 C   0  0  0  0  0  0  0  0  0  0  0  0
   -4.4825    1.4575   -0.2557 C   0  0  0  0  0  0  0  0  0  0  0  0
   -3.7597    0.6012    0.5785 C   0  0  0  0  0  0  0  0  0  0  0  0
   -1.3422   -2.2953    0.2879 N   0  0  0  0  0  0  0  0  0  0  0  0
   -0.0152   -2.0389    0.5105 C   0  0  0  0  0  0  0  0  0  0  0  0
    0.8874   -2.7189    0.0520 O   0  0  0  0  0  0  0  0  0  0  0  0
    0.0955   -0.9596    1.3229 N   0  0  0  0  0  0  0  0  0  0  0  0
    1.3396   -0.4764    1.8876 C   0  0  0  0  0  0  0  0  0  0  0  0
    1.5803    1.0023    1.5706 C   0  0  0  0  0  0  0  0  0  0  0  0
    1.7794    1.7908    2.5005 O   0  0  0  0  0  0  0  0  0  0  0  0
    1.6059    1.4287    0.2466 N   0  0  0  0  0  0  0  0  0  0  0  0
    1.6704    2.8648    0.0192 C   0  0  0  0  0  0  0  0  0  0  0  0
    1.9481    0.5717   -0.8900 C   0  0  0  0  0  0  0  0  0  0  0  0
    3.3733    0.7509   -1.3629 C   0  0  0  0  0  0  0  0  0  0  0  0
    3.6589    1.5559   -2.4763 C   0  0  0  0  0  0  0  0  0  0  0  0
    4.9754    1.7350   -2.9037 C   0  0  0  0  0  0  0  0  0  0  0  0
    6.0199    1.1069   -2.2271 C   0  0  0  0  0  0  0  0  0  0  0  0
    5.7497    0.3043   -1.1204 C   0  0  0  0  0  0  0  0  0  0  0  0
    4.4341    0.1274   -0.6886 C   0  0  0  0  0  0  0  0  0  0  0  0
   -1.1425   -0.5985    1.7816 C   0  0  0  0  0  0  0  0  0  0  0  0
   -1.3634    0.2055    2.6785 O   0  0  0  0  0  0  0  0  0  0  0  0
   -3.6222   -3.8577    0.7348 H   0  0  0  0  0  0  0  0  0  0  0  0
   -4.8194   -2.5486    0.6806 H   0  0  0  0  0  0  0  0  0  0  0  0
   -4.7150   -3.5982    2.0987 H   0  0  0  0  0  0  0  0  0  0  0  0
   -3.6698   -1.4448    2.6250 H   0  0  0  0  0  0  0  0  0  0  0  0
   -2.4938   -2.7397    2.6696 H   0  0  0  0  0  0  0  0  0  0  0  0
   -2.3931   -1.4072   -1.8155 H   0  0  0  0  0  0  0  0  0  0  0  0
   -3.6665    0.1036   -3.2592 H   0  0  0  0  0  0  0  0  0  0  0  0
   -5.0164    1.9410   -2.2845 H   0  0  0  0  0  0  0  0  0  0  0  0
   -5.0644    2.2693    0.1747 H   0  0  0  0  0  0  0  0  0  0  0  0
   -3.7954    0.7792    1.6535 H   0  0  0  0  0  0  0  0  0  0  0  0
   -1.6363   -3.0710   -0.2885 H   0  0  0  0  0  0  0  0  0  0  0  0
    1.2760   -0.5837    2.9768 H   0  0  0  0  0  0  0  0  0  0  0  0
    2.1897   -1.0706    1.5392 H   0  0  0  0  0  0  0  0  0  0  0  0
    1.1182    3.4037    0.7954 H   0  0  0  0  0  0  0  0  0  0  0  0
    1.2232    3.1030   -0.9501 H   0  0  0  0  0  0  0  0  0  0  0  0
    2.7151    3.1888    0.0423 H   0  0  0  0  0  0  0  0  0  0  0  0
    1.2436    0.7969   -1.6992 H   0  0  0  0  0  0  0  0  0  0  0  0
    1.8099   -0.4808   -0.6517 H   0  0  0  0  0  0  0  0  0  0  0  0
    2.8564    2.0583   -3.0136 H   0  0  0  0  0  0  0  0  0  0  0  0
    5.1875    2.3641   -3.7647 H   0  0  0  0  0  0  0  0  0  0  0  0
    7.0453    1.2451   -2.5609 H   0  0  0  0  0  0  0  0  0  0  0  0
    6.5649   -0.1815   -0.5906 H   0  0  0  0  0  0  0  0  0  0  0  0
    4.2449   -0.5006    0.1782 H   0  0  0  0  0  0  0  0  0  0  0  0
  1  2  1  0
  2  3  1  0
  3  4  1  0
  4  5  2  0
  5  6  1  0
  6  7  2  0
  7  8  1  0
  8  9  2  0
  3 10  1  0
 10 11  1  0
 11 12  2  0
 11 13  1  0
 13 14  1  0
 14 15  1  0
 15 16  2  0
 15 17  1  0
 17 18  1  0
 17 19  1  0
 19 20  1  0
 20 21  2  0
 21 22  1  0
 22 23  2  0
 23 24  1  0
 24 25  2  0
 13 26  1  0
 26 27  2  0
 26  3  1  0
  9  4  1  0
 25 20  1  0
  1 28  1  0
  1 29  1  0
  1 30  1  0
  2 31  1  0
  2 32  1  0
  5 33  1  0
  6 34  1  0
  7 35  1  0
  8 36  1  0
  9 37  1  0
 10 38  1  0
 14 39  1  0
 14 40  1  0
 18 41  1  0
 18 42  1  0
 18 43  1  0
 19 44  1  0
 19 45  1  0
 21 46  1  0
 22 47  1  0
 23 48  1  0
 24 49  1  0
 25 50  1  0
M  END
$$$$
