
     RDKit          3D

 42 44  0  0  0  0  0  0  0  0999 V2000
   -2.7623   -2.3972    0.2686 C   0  0  0  0  0  0  0  0  0  0  0  0
   -3.6545   -1.1897    0.3474 C   0  0  0  0  0  0  0  0  0  0  0  0
   -4.8509   -1.2608    1.0806 C   0  0  0  0  0  0  0  0  0  0  0  0
   -5.7015   -0.1589    1.1568 C   0  0  0  0  0  0  0  0  0  0  0  0
   -5.3708    1.0197    0.4950 C   0  0  0  0  0  0  0  0  0  0  0  0
   -4.1830    1.1041   -0.2366 C   0  0  0  0  0  0  0  0  0  0  0  0
   -3.3165    0.0070   -0.3120 C   0  0  0  0  0  0  0  0  0  0  0  0
   -2.1312   -0.0074   -1.0040 O   0  0  0  0  0  0  0  0  0  0  0  0
   -1.7306    1.2126   -1.6246 C   0  0  0  0  0  0  0  0  0  0  0  0
   -0.3535    1.0754   -2.2749 C   0  0  0  0  0  0  0  0  0  0  0  0
    0.1423    1.9811   -2.9402 O   0  0  0  0  0  0  0  0  0  0  0  0
    0.2831   -0.1260   -2.0256 N   0  0  0  0  0  0  0  0  0  0  0  0
    1.5330   -0.4592   -2.6932 C   0  0  0  0  0  0  0  0  0  0  0  0
    2.4043   -1.4077   -1.8730 C   0  0  0  0  0  0  0  0  0  0  0  0
    3.0376   -0.7185   -0.7114 C   0  0  0  0  0  0  0  0  0  0  0  0
    4.3024   -0.3618   -0.6028 N   0  0  0  0  0  0  0  0  0  0  0  0
    4.4005    0.2829    0.6073 C   0  0  0  0  0  0  0  0  0  0  0  0
    5.5033    0.9068    1.2072 C   0  0  0  0  0  0  0  0  0  0  0  0
    5.3359    1.5054    2.4617 C   0  0  0  0  0  0  0  0  0  0  0  0
    4.0962    1.4783    3.1101 C   0  0  0  0  0  0  0  0  0  0  0  0
    2.9831    0.8652    2.5242 C   0  0  0  0  0  0  0  0  0  0  0  0
    3.1783    0.2820    1.2717 C   0  0  0  0  0  0  0  0  0  0  0  0
    2.3278   -0.3613    0.4112 N   0  0  0  0  0  0  0  0  0  0  0  0
   -3.1683   -3.2321    0.8480 H   0  0  0  0  0  0  0  0  0  0  0  0
   -1.7711   -2.1656    0.6689 H   0  0  0  0  0  0  0  0  0  0  0  0
   -2.6691   -2.7295   -0.7705 H   0  0  0  0  0  0  0  0  0  0  0  0
   -5.1302   -2.1787    1.5929 H   0  0  0  0  0  0  0  0  0  0  0  0
   -6.6256   -0.2245    1.7257 H   0  0  0  0  0  0  0  0  0  0  0  0
   -6.0382    1.8770    0.5458 H   0  0  0  0  0  0  0  0  0  0  0  0
   -3.9747    2.0442   -0.7432 H   0  0  0  0  0  0  0  0  0  0  0  0
   -2.4349    1.4804   -2.4196 H   0  0  0  0  0  0  0  0  0  0  0  0
   -1.6467    2.0117   -0.8785 H   0  0  0  0  0  0  0  0  0  0  0  0
   -0.3412   -0.8784   -1.7502 H   0  0  0  0  0  0  0  0  0  0  0  0
    2.0800    0.4600   -2.9359 H   0  0  0  0  0  0  0  0  0  0  0  0
    1.2568   -0.9373   -3.6389 H   0  0  0  0  0  0  0  0  0  0  0  0
    1.8165   -2.2639   -1.5218 H   0  0  0  0  0  0  0  0  0  0  0  0
    3.1978   -1.8014   -2.5166 H   0  0  0  0  0  0  0  0  0  0  0  0
    6.4543    0.9416    0.6904 H   0  0  0  0  0  0  0  0  0  0  0  0
    6.1796    1.9980    2.9364 H   0  0  0  0  0  0  0  0  0  0  0  0
    3.9888    1.9551    4.0851 H   0  0  0  0  0  0  0  0  0  0  0  0
    2.0195    0.8489    3.0255 H   0  0  0  0  0  0  0  0  0  0  0  0
    1.3338   -0.4773    0.5375 H   0  0  0  0  0  0  0  0  0  0  0  0
  1  2  1  0
  2  3  2  0
  3  4  1  0
  4  5  2  0
  5  6  1  0
  6  7  2  0
  7  8  1  0
  8  9  1  0
  9 10  1  0
 10 11  2  0
 10 12  1  0
 12 13  1  0
 13 14  1  0
 14 15  1  0
 15 16  2  0
 16 17  1  0
 17 18  2  0
 18 19  1  0
 19 20  2  0
 20 21  1  0
 21 22  2  0
 22 23  1  0
  7  2  1  0
 23 15  1  0
 22 17  1  0
  1 24  1  0
  1 25  1  0
  1 26  1  0
  3 27  1  0
  4 28  1  0
  5 29  1  0
  6 30  1  0
  9 31  1  0
  9 32  1  0
 12 33  1  0
 13 34  1  0
 13 35  1  0
 14 36  1  0
 14 37  1  0
 18 38  1  0
 19 39  1  0
 20 40  1  0
 21 41  1  0
 23 42  1  0
M  END
$$$$
