
     RDKit          3D

 52 54  0  0  0  0  0  0  0  0999 V2000
    3.1586    0.0106   -2.8901 C   0  0  0  0  0  0  0  0  0  0  0  0
    2.8880    0.8455   -1.6380 C   0  0  0  0  0  0  0  0  0  0  0  0
    3.9240    0.5992   -0.5305 C   0  0  0  0  0  0  0  0  0  0  0  0
    5.3313    1.0709   -0.9059 C   0  0  0  0  0  0  0  0  0  0  0  0
    6.2912    0.9121    0.2479 C   0  0  0  0  0  0  0  0  0  0  0  0
    6.4704    1.9512    1.1706 C   0  0  0  0  0  0  0  0  0  0  0  0
    7.3443    1.7970    2.2479 C   0  0  0  0  0  0  0  0  0  0  0  0
    8.0429    0.6027    2.4150 C   0  0  0  0  0  0  0  0  0  0  0  0
    7.8671   -0.4391    1.5062 C   0  0  0  0  0  0  0  0  0  0  0  0
    6.9936   -0.2870    0.4282 C   0  0  0  0  0  0  0  0  0  0  0  0
    1.5520    0.5474   -1.1299 N   0  0  0  0  0  0  0  0  0  0  0  0
    0.4251    1.1588   -1.6396 C   0  0  0  0  0  0  0  0  0  0  0  0
    0.4603    2.0477   -2.4833 O   0  0  0  0  0  0  0  0  0  0  0  0
   -0.8837    0.7102   -1.0890 C   0  0  0  0  0  0  0  0  0  0  0  0
   -1.9464    1.6193   -1.0820 C   0  0  0  0  0  0  0  0  0  0  0  0
   -3.1948    1.2422   -0.5763 C   0  0  0  0  0  0  0  0  0  0  0  0
   -3.4021   -0.0493   -0.0764 C   0  0  0  0  0  0  0  0  0  0  0  0
   -4.6903   -0.3524    0.4116 N   0  0  0  0  0  0  0  0  0  0  0  0
   -5.0987   -1.5229    1.0255 C   0  0  0  0  0  0  0  0  0  0  0  0
   -4.3958   -2.4807    1.3236 O   0  0  0  0  0  0  0  0  0  0  0  0
   -6.5435   -1.5714    1.3867 C   0  0  0  0  0  0  0  0  0  0  0  0
   -6.9151   -2.2315    2.5658 C   0  0  0  0  0  0  0  0  0  0  0  0
   -8.2582   -2.3004    2.9389 C   0  0  0  0  0  0  0  0  0  0  0  0
   -9.2354   -1.7195    2.1307 C   0  0  0  0  0  0  0  0  0  0  0  0
   -8.8653   -1.0805    0.9474 C   0  0  0  0  0  0  0  0  0  0  0  0
  -10.1956   -0.3133   -0.1563 Br  0  0  0  0  0  0  0  0  0  0  0  0
   -7.5259   -1.0051    0.5648 C   0  0  0  0  0  0  0  0  0  0  0  0
   -2.3444   -0.9608   -0.1057 C   0  0  0  0  0  0  0  0  0  0  0  0
   -1.0918   -0.5874   -0.6115 C   0  0  0  0  0  0  0  0  0  0  0  0
    4.1133    0.2771   -3.3526 H   0  0  0  0  0  0  0  0  0  0  0  0
    2.3769    0.1661   -3.6418 H   0  0  0  0  0  0  0  0  0  0  0  0
    3.1768   -1.0592   -2.6541 H   0  0  0  0  0  0  0  0  0  0  0  0
    2.9092    1.9062   -1.9173 H   0  0  0  0  0  0  0  0  0  0  0  0
    3.5990    1.1245    0.3783 H   0  0  0  0  0  0  0  0  0  0  0  0
    3.9430   -0.4672   -0.2679 H   0  0  0  0  0  0  0  0  0  0  0  0
    5.7156    0.5078   -1.7642 H   0  0  0  0  0  0  0  0  0  0  0  0
    5.3081    2.1227   -1.2175 H   0  0  0  0  0  0  0  0  0  0  0  0
    5.9293    2.8878    1.0555 H   0  0  0  0  0  0  0  0  0  0  0  0
    7.4793    2.6091    2.9574 H   0  0  0  0  0  0  0  0  0  0  0  0
    8.7232    0.4837    3.2539 H   0  0  0  0  0  0  0  0  0  0  0  0
    8.4104   -1.3712    1.6371 H   0  0  0  0  0  0  0  0  0  0  0  0
    6.8649   -1.1100   -0.2709 H   0  0  0  0  0  0  0  0  0  0  0  0
    1.4620   -0.1569   -0.4110 H   0  0  0  0  0  0  0  0  0  0  0  0
   -1.8037    2.6267   -1.4689 H   0  0  0  0  0  0  0  0  0  0  0  0
   -3.9966    1.9761   -0.5818 H   0  0  0  0  0  0  0  0  0  0  0  0
   -5.3624    0.4024    0.3645 H   0  0  0  0  0  0  0  0  0  0  0  0
   -6.1559   -2.6929    3.1955 H   0  0  0  0  0  0  0  0  0  0  0  0
   -8.5416   -2.8109    3.8565 H   0  0  0  0  0  0  0  0  0  0  0  0
  -10.2802   -1.7796    2.4260 H   0  0  0  0  0  0  0  0  0  0  0  0
   -7.2609   -0.5372   -0.3788 H   0  0  0  0  0  0  0  0  0  0  0  0
   -2.4642   -1.9815    0.2456 H   0  0  0  0  0  0  0  0  0  0  0  0
   -0.3075   -1.3373   -0.6489 H   0  0  0  0  0  0  0  0  0  0  0  0
  1  2  1  0
  2  3  1  0
  3  4  1  0
  4  5  1  0
  5  6  2  0
  6  7  1  0
  7  8  2  0
  8  9  1  0
  9 10  2  0
  2 11  1  0
 11 12  1  0
 12 13  2  0
 12 14  1  0
 14 15  2  0
 15 16  1  0
 16 17  2  0
 17 18  1  0
 18 19  1  0
 19 20  2  0
 19 21  1  0
 21 22  2  0
 22 23  1  0
 23 24  2  0
 24 25  1  0
 25 26  1  0
 25 27  2  0
 17 28  1  0
 28 29  2  0
 10  5  1  0
 29 14  1  0
 27 21  1  0
  1 30  1  0
  1 31  1  0
  1 32  1  0
  2 33  1  0
  3 34  1  0
  3 35  1  0
  4 36  1  0
  4 37  1  0
  6 38  1  0
  7 39  1  0
  8 40  1  0
  9 41  1  0
 10 42  1  0
 11 43  1  0
 15 44  1  0
 16 45  1  0
 18 46  1  0
 22 47  1  0
 23 48  1  0
 24 49  1  0
 27 50  1  0
 28 51  1  0
 29 52  1  0
M  END
$$$$
