
     RDKit          3D

 64 67  0  0  0  0  0  0  0  0999 V2000
    5.5873    1.4978   -2.5765 C   0  0  0  0  0  0  0  0  0  0  0  0
    5.9232    0.7234   -1.3380 C   0  0  0  0  0  0  0  0  0  0  0  0
    5.2091   -0.4109   -1.0125 C   0  0  0  0  0  0  0  0  0  0  0  0
    5.6017   -1.0582    0.1337 C   0  0  0  0  0  0  0  0  0  0  0  0
    4.9649   -2.1676    0.7157 N   0  0  0  0  0  0  0  0  0  0  0  0
    3.9838   -3.2222   -0.1064 S   0  0  0  0  0  6  0  0  0  0  0  0
    3.7863   -4.3675    0.7562 O   0  0  0  0  0  0  0  0  0  0  0  0
    4.4715   -3.3705   -1.4609 O   0  0  0  0  0  0  0  0  0  0  0  0
    2.4300   -2.3620   -0.1589 C   0  0  0  0  0  0  0  0  0  0  0  0
    1.8828   -1.8601    1.0232 C   0  0  0  0  0  0  0  0  0  0  0  0
    0.6697   -1.1681    0.9773 C   0  0  0  0  0  0  0  0  0  0  0  0
   -0.0058   -0.9814   -0.2379 C   0  0  0  0  0  0  0  0  0  0  0  0
   -1.2207   -0.2708   -0.1854 N   0  0  0  0  0  0  0  0  0  0  0  0
   -2.1030   -0.0116   -1.2228 C   0  0  0  0  0  0  0  0  0  0  0  0
   -1.9562   -0.3749   -2.3885 O   0  0  0  0  0  0  0  0  0  0  0  0
   -3.3340    0.8339   -0.8214 C   0  0  0  0  0  0  0  0  0  0  0  0
   -2.9757    2.2347   -0.2838 C   0  0  0  0  0  0  0  0  0  0  0  0
   -2.6291    3.3173   -1.3287 C   0  0  0  0  0  0  0  0  0  0  0  0
   -1.3790    2.9965   -2.1442 C   0  0  0  0  0  0  0  0  0  0  0  0
   -3.8044    3.6404   -2.2521 C   0  0  0  0  0  0  0  0  0  0  0  0
   -4.1365    0.0652    0.1404 N   0  0  0  0  0  0  0  0  0  0  0  0
   -5.2940   -0.5861   -0.1964 C   0  0  0  0  0  0  0  0  0  0  0  0
   -5.8655   -0.6401   -1.2680 O   0  0  0  0  0  0  0  0  0  0  0  0
   -5.7819   -1.2346    1.0200 C   0  0  0  0  0  0  0  0  0  0  0  0
   -6.9125   -1.9970    1.2385 C   0  0  0  0  0  0  0  0  0  0  0  0
   -7.1150   -2.4804    2.5360 C   0  0  0  0  0  0  0  0  0  0  0  0
   -6.1947   -2.1957    3.5673 C   0  0  0  0  0  0  0  0  0  0  0  0
   -5.0556   -1.4228    3.3196 C   0  0  0  0  0  0  0  0  0  0  0  0
   -4.8813   -0.9559    2.0313 C   0  0  0  0  0  0  0  0  0  0  0  0
   -3.8166   -0.1416    1.4540 C   0  0  0  0  0  0  0  0  0  0  0  0
   -2.8187    0.2244    2.0504 O   0  0  0  0  0  0  0  0  0  0  0  0
    0.5531   -1.4957   -1.4116 C   0  0  0  0  0  0  0  0  0  0  0  0
    1.7692   -2.1870   -1.3760 C   0  0  0  0  0  0  0  0  0  0  0  0
    6.5777   -0.6190    0.9401 N   0  0  0  0  0  0  0  0  0  0  0  0
    7.2259    0.4871    0.5387 C   0  0  0  0  0  0  0  0  0  0  0  0
    8.3178    1.0099    1.4186 C   0  0  0  0  0  0  0  0  0  0  0  0
    6.9312    1.1853   -0.5720 N   0  0  0  0  0  0  0  0  0  0  0  0
    5.7089    0.8658   -3.4619 H   0  0  0  0  0  0  0  0  0  0  0  0
    6.2458    2.3659   -2.6845 H   0  0  0  0  0  0  0  0  0  0  0  0
    4.5546    1.8575   -2.5310 H   0  0  0  0  0  0  0  0  0  0  0  0
    4.4009   -0.7497   -1.6425 H   0  0  0  0  0  0  0  0  0  0  0  0
    5.4415   -2.5486    1.5291 H   0  0  0  0  0  0  0  0  0  0  0  0
    2.3872   -2.0029    1.9754 H   0  0  0  0  0  0  0  0  0  0  0  0
    0.2531   -0.7834    1.9069 H   0  0  0  0  0  0  0  0  0  0  0  0
   -1.5013    0.0483    0.7428 H   0  0  0  0  0  0  0  0  0  0  0  0
   -3.9456    0.9378   -1.7238 H   0  0  0  0  0  0  0  0  0  0  0  0
   -2.1394    2.1734    0.4235 H   0  0  0  0  0  0  0  0  0  0  0  0
   -3.8272    2.6120    0.3000 H   0  0  0  0  0  0  0  0  0  0  0  0
   -2.4115    4.2314   -0.7586 H   0  0  0  0  0  0  0  0  0  0  0  0
   -1.0553    3.8800   -2.7059 H   0  0  0  0  0  0  0  0  0  0  0  0
   -0.5519    2.6956   -1.4940 H   0  0  0  0  0  0  0  0  0  0  0  0
   -1.5601    2.2008   -2.8711 H   0  0  0  0  0  0  0  0  0  0  0  0
   -4.7100    3.8519   -1.6742 H   0  0  0  0  0  0  0  0  0  0  0  0
   -4.0219    2.8186   -2.9409 H   0  0  0  0  0  0  0  0  0  0  0  0
   -3.5815    4.5267   -2.8556 H   0  0  0  0  0  0  0  0  0  0  0  0
   -7.6120   -2.2080    0.4361 H   0  0  0  0  0  0  0  0  0  0  0  0
   -7.9940   -3.0856    2.7548 H   0  0  0  0  0  0  0  0  0  0  0  0
   -6.3765   -2.5851    4.5685 H   0  0  0  0  0  0  0  0  0  0  0  0
   -4.3394   -1.1982    4.1034 H   0  0  0  0  0  0  0  0  0  0  0  0
    0.0662   -1.3800   -2.3753 H   0  0  0  0  0  0  0  0  0  0  0  0
    2.1832   -2.5851   -2.3009 H   0  0  0  0  0  0  0  0  0  0  0  0
    9.0191    1.6231    0.8433 H   0  0  0  0  0  0  0  0  0  0  0  0
    8.8746    0.1817    1.8680 H   0  0  0  0  0  0  0  0  0  0  0  0
    7.8877    1.6218    2.2168 H   0  0  0  0  0  0  0  0  0  0  0  0
  1  2  1  0
  2  3  2  0
  3  4  1  0
  4  5  1  0
  5  6  1  0
  6  7  2  0
  6  8  2  0
  6  9  1  0
  9 10  2  0
 10 11  1  0
 11 12  2  0
 12 13  1  0
 13 14  1  0
 14 15  2  0
 14 16  1  0
 16 17  1  0
 17 18  1  0
 18 19  1  0
 18 20  1  0
 16 21  1  0
 21 22  1  0
 22 23  2  0
 22 24  1  0
 24 25  2  0
 25 26  1  0
 26 27  2  0
 27 28  1  0
 28 29  2  0
 29 30  1  0
 30 31  2  0
 12 32  1  0
 32 33  2  0
  4 34  2  0
 34 35  1  0
 35 36  1  0
 35 37  2  0
 37  2  1  0
 33  9  1  0
 30 21  1  0
 29 24  1  0
  1 38  1  0
  1 39  1  0
  1 40  1  0
  3 41  1  0
  5 42  1  0
 10 43  1  0
 11 44  1  0
 13 45  1  0
 16 46  1  0
 17 47  1  0
 17 48  1  0
 18 49  1  0
 19 50  1  0
 19 51  1  0
 19 52  1  0
 20 53  1  0
 20 54  1  0
 20 55  1  0
 25 56  1  0
 26 57  1  0
 27 58  1  0
 28 59  1  0
 32 60  1  0
 33 61  1  0
 36 62  1  0
 36 63  1  0
 36 64  1  0
M  END
$$$$
