
     RDKit          3D

 71 75  0  0  0  0  0  0  0  0999 V2000
   -0.9990    0.6927    4.8360 C   0  0  0  0  0  0  0  0  0  0  0  0
   -0.0519   -0.3225    4.2108 C   0  0  0  0  0  0  0  0  0  0  0  0
   -0.1101   -0.2665    2.7389 N   0  0  0  0  0  0  0  0  0  0  0  0
    0.7655    0.5463    2.0294 C   0  0  0  0  0  0  0  0  0  0  0  0
    0.8225    0.7031    0.6992 C   0  0  0  0  0  0  0  0  0  0  0  0
    1.8447    1.6288    0.1321 C   0  0  0  0  0  0  0  0  0  0  0  0
    2.6386    2.2325    0.8497 O   0  0  0  0  0  0  0  0  0  0  0  0
    1.8364    1.7455   -1.2341 N   0  0  0  0  0  0  0  0  0  0  0  0
    2.7721    2.5681   -1.9719 C   0  0  0  0  0  0  0  0  0  0  0  0
    3.9431    1.7644   -2.5356 C   0  0  0  0  0  0  0  0  0  0  0  0
    4.9305    1.3242   -1.4486 C   0  0  0  0  0  0  0  0  0  0  0  0
    6.1172    0.6731   -2.0198 N   0  0  0  0  0  0  0  0  0  0  0  0
    5.8330   -0.6347   -2.6167 C   0  0  0  0  0  0  0  0  0  0  0  0
    7.1980   -1.3087   -2.6889 C   0  0  0  0  0  0  0  0  0  0  0  0
    8.0729   -0.5552   -1.6949 C   0  0  0  0  0  0  0  0  0  0  0  0
    7.1272    0.4044   -0.9926 C   0  0  0  0  0  0  0  0  0  0  0  0
   -0.1500   -0.0747   -0.1026 C   0  0  0  0  0  0  0  0  0  0  0  0
   -0.1524   -0.0274   -1.3313 O   0  0  0  0  0  0  0  0  0  0  0  0
   -1.1368   -0.9146    0.6223 C   0  0  0  0  0  0  0  0  0  0  0  0
   -2.1012   -1.6016   -0.1283 C   0  0  0  0  0  0  0  0  0  0  0  0
   -3.0898   -2.3294    0.5282 C   0  0  0  0  0  0  0  0  0  0  0  0
   -4.3645   -3.1331   -0.4177 S   0  0  0  0  0  6  0  0  0  0  0  0
   -5.0098   -4.0891    0.4592 O   0  0  0  0  0  0  0  0  0  0  0  0
   -3.7586   -3.5618   -1.6607 O   0  0  0  0  0  0  0  0  0  0  0  0
   -5.4758   -1.9119   -0.7640 N   0  0  0  0  0  0  0  0  0  0  0  0
   -6.4148   -1.4425    0.2747 C   0  0  0  0  0  0  0  0  0  0  0  0
   -5.8385   -0.3072    1.1199 C   0  0  0  0  0  0  0  0  0  0  0  0
   -5.0040    0.6808    0.3421 C   0  0  0  0  0  0  0  0  0  0  0  0
   -4.5485    1.8452    0.9770 C   0  0  0  0  0  0  0  0  0  0  0  0
   -3.7286    2.7459    0.2986 C   0  0  0  0  0  0  0  0  0  0  0  0
   -3.3582    2.4944   -1.0197 C   0  0  0  0  0  0  0  0  0  0  0  0
   -3.8057    1.3406   -1.6622 C   0  0  0  0  0  0  0  0  0  0  0  0
   -4.6178    0.4185   -0.9858 C   0  0  0  0  0  0  0  0  0  0  0  0
   -5.0745   -0.8367   -1.6918 C   0  0  0  0  0  0  0  0  0  0  0  0
   -3.0578   -2.4565    1.9152 C   0  0  0  0  0  0  0  0  0  0  0  0
   -2.0741   -1.7865    2.6550 C   0  0  0  0  0  0  0  0  0  0  0  0
   -1.1001   -0.9853    2.0332 C   0  0  0  0  0  0  0  0  0  0  0  0
   -0.9336    0.6461    5.9278 H   0  0  0  0  0  0  0  0  0  0  0  0
   -2.0397    0.5076    4.5511 H   0  0  0  0  0  0  0  0  0  0  0  0
   -0.7440    1.7118    4.5241 H   0  0  0  0  0  0  0  0  0  0  0  0
   -0.2514   -1.3320    4.5883 H   0  0  0  0  0  0  0  0  0  0  0  0
    0.9691   -0.0971    4.5480 H   0  0  0  0  0  0  0  0  0  0  0  0
    1.4576    1.0917    2.6692 H   0  0  0  0  0  0  0  0  0  0  0  0
    1.1677    1.1801   -1.7603 H   0  0  0  0  0  0  0  0  0  0  0  0
    3.1292    3.3886   -1.3402 H   0  0  0  0  0  0  0  0  0  0  0  0
    2.2050    3.0070   -2.7999 H   0  0  0  0  0  0  0  0  0  0  0  0
    3.5557    0.8941   -3.0787 H   0  0  0  0  0  0  0  0  0  0  0  0
    4.4718    2.3925   -3.2638 H   0  0  0  0  0  0  0  0  0  0  0  0
    5.2523    2.2174   -0.8980 H   0  0  0  0  0  0  0  0  0  0  0  0
    4.4366    0.6609   -0.7284 H   0  0  0  0  0  0  0  0  0  0  0  0
    5.3851   -0.5489   -3.6117 H   0  0  0  0  0  0  0  0  0  0  0  0
    5.1633   -1.2323   -1.9849 H   0  0  0  0  0  0  0  0  0  0  0  0
    7.6247   -1.2349   -3.6965 H   0  0  0  0  0  0  0  0  0  0  0  0
    7.1249   -2.3713   -2.4315 H   0  0  0  0  0  0  0  0  0  0  0  0
    8.5668   -1.2309   -0.9892 H   0  0  0  0  0  0  0  0  0  0  0  0
    8.8529   -0.0027   -2.2324 H   0  0  0  0  0  0  0  0  0  0  0  0
    7.6441    1.3155   -0.6735 H   0  0  0  0  0  0  0  0  0  0  0  0
    6.6900   -0.0793   -0.1091 H   0  0  0  0  0  0  0  0  0  0  0  0
   -2.0935   -1.5377   -1.2143 H   0  0  0  0  0  0  0  0  0  0  0  0
   -7.3213   -1.0906   -0.2374 H   0  0  0  0  0  0  0  0  0  0  0  0
   -6.7453   -2.2674    0.9153 H   0  0  0  0  0  0  0  0  0  0  0  0
   -6.6681    0.2196    1.6062 H   0  0  0  0  0  0  0  0  0  0  0  0
   -5.2196   -0.7257    1.9191 H   0  0  0  0  0  0  0  0  0  0  0  0
   -4.8227    2.0505    2.0097 H   0  0  0  0  0  0  0  0  0  0  0  0
   -3.3749    3.6435    0.7997 H   0  0  0  0  0  0  0  0  0  0  0  0
   -2.7141    3.1931   -1.5467 H   0  0  0  0  0  0  0  0  0  0  0  0
   -3.4983    1.1559   -2.6899 H   0  0  0  0  0  0  0  0  0  0  0  0
   -5.9405   -0.5872   -2.3179 H   0  0  0  0  0  0  0  0  0  0  0  0
   -4.2968   -1.1893   -2.3775 H   0  0  0  0  0  0  0  0  0  0  0  0
   -3.8017   -3.0571    2.4352 H   0  0  0  0  0  0  0  0  0  0  0  0
   -2.1104   -1.9022    3.7338 H   0  0  0  0  0  0  0  0  0  0  0  0
  1  2  1  0
  2  3  1  0
  3  4  1  0
  4  5  2  0
  5  6  1  0
  6  7  2  0
  6  8  1  0
  8  9  1  0
  9 10  1  0
 10 11  1  0
 11 12  1  0
 12 13  1  0
 13 14  1  0
 14 15  1  0
 15 16  1  0
  5 17  1  0
 17 18  2  0
 17 19  1  0
 19 20  2  0
 20 21  1  0
 21 22  1  0
 22 23  2  0
 22 24  2  0
 22 25  1  0
 25 26  1  0
 26 27  1  0
 27 28  1  0
 28 29  2  0
 29 30  1  0
 30 31  2  0
 31 32  1  0
 32 33  2  0
 33 34  1  0
 21 35  2  0
 35 36  1  0
 36 37  2  0
 37  3  1  0
 16 12  1  0
 37 19  1  0
 34 25  1  0
 33 28  1  0
  1 38  1  0
  1 39  1  0
  1 40  1  0
  2 41  1  0
  2 42  1  0
  4 43  1  0
  8 44  1  0
  9 45  1  0
  9 46  1  0
 10 47  1  0
 10 48  1  0
 11 49  1  0
 11 50  1  0
 13 51  1  0
 13 52  1  0
 14 53  1  0
 14 54  1  0
 15 55  1  0
 15 56  1  0
 16 57  1  0
 16 58  1  0
 20 59  1  0
 26 60  1  0
 26 61  1  0
 27 62  1  0
 27 63  1  0
 29 64  1  0
 30 65  1  0
 31 66  1  0
 32 67  1  0
 34 68  1  0
 34 69  1  0
 35 70  1  0
 36 71  1  0
M  END
$$$$
