
     RDKit          3D

 46 50  0  0  0  0  0  0  0  0999 V2000
    6.2367    3.1133   -0.6404 C   0  0  0  0  0  0  0  0  0  0  0  0
    5.7418    1.8951   -1.1816 O   0  0  0  0  0  0  0  0  0  0  0  0
    4.4621    1.5452   -0.8514 C   0  0  0  0  0  0  0  0  0  0  0  0
    3.5883    2.2836   -0.0537 C   0  0  0  0  0  0  0  0  0  0  0  0
    2.2975    1.8057    0.2059 C   0  0  0  0  0  0  0  0  0  0  0  0
    1.8672    0.5842   -0.3262 C   0  0  0  0  0  0  0  0  0  0  0  0
    0.5211    0.0932   -0.0606 C   0  0  0  0  0  0  0  0  0  0  0  0
   -0.5982    0.8441   -0.3451 N   0  0  0  0  0  0  0  0  0  0  0  0
   -1.7264    0.1080   -0.0752 C   0  0  0  0  0  0  0  0  0  0  0  0
   -3.1029    0.5803   -0.2677 C   0  0  0  0  0  0  0  0  0  0  0  0
   -3.4028    1.7817   -0.9537 C   0  0  0  0  0  0  0  0  0  0  0  0
   -4.7264    2.2105   -1.1224 C   0  0  0  0  0  0  0  0  0  0  0  0
   -5.7280    1.4234   -0.6007 C   0  0  0  0  0  0  0  0  0  0  0  0
   -5.4533    0.2534    0.0634 C   0  0  0  0  0  0  0  0  0  0  0  0
   -4.1606   -0.1926    0.2435 C   0  0  0  0  0  0  0  0  0  0  0  0
   -6.5799   -0.3730    0.4968 O   0  0  0  0  0  0  0  0  0  0  0  0
   -7.5951    0.5364    0.0260 C   0  0  0  0  0  0  0  0  0  0  0  0
   -7.0606    1.6823   -0.6702 O   0  0  0  0  0  0  0  0  0  0  0  0
   -1.3750   -1.0764    0.3871 N   0  0  0  0  0  0  0  0  0  0  0  0
    0.0038   -1.1020    0.4135 C   0  0  0  0  0  0  0  0  0  0  0  0
    0.7365   -2.2726    0.8712 C   0  0  0  0  0  0  0  0  0  0  0  0
    0.2192   -3.5483    0.6054 C   0  0  0  0  0  0  0  0  0  0  0  0
    0.8937   -4.6952    1.0310 C   0  0  0  0  0  0  0  0  0  0  0  0
    2.0899   -4.5777    1.7354 C   0  0  0  0  0  0  0  0  0  0  0  0
    2.6070   -3.3154    2.0209 C   0  0  0  0  0  0  0  0  0  0  0  0
    1.9309   -2.1680    1.5959 C   0  0  0  0  0  0  0  0  0  0  0  0
    2.7467   -0.1515   -1.1255 C   0  0  0  0  0  0  0  0  0  0  0  0
    4.0336    0.3279   -1.3844 C   0  0  0  0  0  0  0  0  0  0  0  0
    5.6567    3.9693   -1.0006 H   0  0  0  0  0  0  0  0  0  0  0  0
    6.2560    3.0804    0.4540 H   0  0  0  0  0  0  0  0  0  0  0  0
    7.2667    3.2394   -0.9878 H   0  0  0  0  0  0  0  0  0  0  0  0
    3.8790    3.2315    0.3865 H   0  0  0  0  0  0  0  0  0  0  0  0
    1.6405    2.3900    0.8461 H   0  0  0  0  0  0  0  0  0  0  0  0
   -0.5832    1.7776   -0.7246 H   0  0  0  0  0  0  0  0  0  0  0  0
   -2.6156    2.3980   -1.3780 H   0  0  0  0  0  0  0  0  0  0  0  0
   -4.9584    3.1290   -1.6496 H   0  0  0  0  0  0  0  0  0  0  0  0
   -3.9697   -1.1225    0.7718 H   0  0  0  0  0  0  0  0  0  0  0  0
   -8.2641   -0.0052   -0.6527 H   0  0  0  0  0  0  0  0  0  0  0  0
   -8.1766    0.8889    0.8857 H   0  0  0  0  0  0  0  0  0  0  0  0
   -0.7187   -3.6501    0.0623 H   0  0  0  0  0  0  0  0  0  0  0  0
    0.4809   -5.6768    0.8150 H   0  0  0  0  0  0  0  0  0  0  0  0
    2.6145   -5.4691    2.0689 H   0  0  0  0  0  0  0  0  0  0  0  0
    3.5341   -3.2210    2.5800 H   0  0  0  0  0  0  0  0  0  0  0  0
    2.3438   -1.1953    1.8495 H   0  0  0  0  0  0  0  0  0  0  0  0
    2.4397   -1.1033   -1.5542 H   0  0  0  0  0  0  0  0  0  0  0  0
    4.7080   -0.2560   -2.0063 H   0  0  0  0  0  0  0  0  0  0  0  0
  1  2  1  0
  2  3  1  0
  3  4  2  0
  4  5  1  0
  5  6  2  0
  6  7  1  0
  7  8  1  0
  8  9  1  0
  9 10  1  0
 10 11  2  0
 11 12  1  0
 12 13  2  0
 13 14  1  0
 14 15  2  0
 14 16  1  0
 16 17  1  0
 17 18  1  0
  9 19  2  0
 19 20  1  0
 20 21  1  0
 21 22  2  0
 22 23  1  0
 23 24  2  0
 24 25  1  0
 25 26  2  0
  6 27  1  0
 27 28  2  0
 28  3  1  0
 20  7  2  0
 26 21  1  0
 15 10  1  0
 18 13  1  0
  1 29  1  0
  1 30  1  0
  1 31  1  0
  4 32  1  0
  5 33  1  0
  8 34  1  0
 11 35  1  0
 12 36  1  0
 15 37  1  0
 17 38  1  0
 17 39  1  0
 22 40  1  0
 23 41  1  0
 24 42  1  0
 25 43  1  0
 26 44  1  0
 27 45  1  0
 28 46  1  0
M  END
$$$$
