
     RDKit          3D

 95 98  0  0  0  0  0  0  0  0999 V2000
   -6.7093   -3.4190   -0.0808 C   0  0  0  0  0  0  0  0  0  0  0  0
   -6.8124   -2.2568    0.5771 C   0  0  0  0  0  0  0  0  0  0  0  0
   -5.7285   -1.5166    1.3138 C   0  0  0  0  0  0  0  0  0  0  0  0
   -4.3410   -2.1752    1.3273 C   0  0  0  0  0  0  0  0  0  0  0  0
   -3.3144   -1.3732    2.1489 C   0  0  0  0  0  0  0  0  0  0  0  0
   -1.9537   -2.0847    2.2683 C   0  0  0  0  0  0  0  0  0  0  0  0
   -1.9712   -3.2899    3.1779 C   0  0  0  0  0  0  0  0  0  0  0  0
   -2.0153   -4.5854    2.6392 C   0  0  0  0  0  0  0  0  0  0  0  0
   -2.0274   -5.6985    3.4799 C   0  0  0  0  0  0  0  0  0  0  0  0
   -1.9973   -5.5183    4.8566 C   0  0  0  0  0  0  0  0  0  0  0  0
   -2.0073   -6.5875    5.6624 F   0  0  0  0  0  0  0  0  0  0  0  0
   -1.9577   -4.2443    5.4102 C   0  0  0  0  0  0  0  0  0  0  0  0
   -1.9460   -3.1287    4.5719 C   0  0  0  0  0  0  0  0  0  0  0  0
   -3.1086   -0.0026    1.5316 C   0  0  0  0  0  0  0  0  0  0  0  0
   -3.5930    1.0231    1.9901 O   0  0  0  0  0  0  0  0  0  0  0  0
   -2.3624   -0.0737    0.3944 O   0  0  0  0  0  0  0  0  0  0  0  0
   -2.1708    1.1747   -0.3064 C   0  0  0  0  0  0  0  0  0  0  0  0
   -1.0617    2.0160    0.3603 C   0  0  0  0  0  0  0  0  0  0  0  0
   -0.7601    3.2886   -0.4613 C   0  0  0  0  0  0  0  0  0  0  0  0
   -1.9436    4.1939   -0.6175 C   0  0  0  0  0  0  0  0  0  0  0  0
   -2.5142    4.9648    0.3772 C   0  0  0  0  0  0  0  0  0  0  0  0
   -3.5821    5.6352   -0.1546 N   0  0  0  0  0  0  0  0  0  0  0  0
   -3.7229    5.3236   -1.4868 C   0  0  0  0  0  0  0  0  0  0  0  0
   -4.6671    5.7674   -2.4215 C   0  0  0  0  0  0  0  0  0  0  0  0
   -4.5670    5.2807   -3.7271 C   0  0  0  0  0  0  0  0  0  0  0  0
   -3.5601    4.3853   -4.0819 C   0  0  0  0  0  0  0  0  0  0  0  0
   -2.6249    3.9488   -3.1359 C   0  0  0  0  0  0  0  0  0  0  0  0
   -2.7039    4.4257   -1.8099 C   0  0  0  0  0  0  0  0  0  0  0  0
    0.1533    1.1950    0.5259 N   0  0  0  0  0  0  0  0  0  0  0  0
    1.1645    1.5811    1.3874 C   0  0  0  0  0  0  0  0  0  0  0  0
    1.1411    2.6524    1.9816 O   0  0  0  0  0  0  0  0  0  0  0  0
    2.2918    0.5584    1.5163 C   0  0  0  0  0  0  0  0  0  0  0  0
    3.2109    0.8464    2.7284 C   0  0  0  0  0  0  0  0  0  0  0  0
    4.4161    1.7361    2.5472 C   0  0  0  0  0  0  0  0  0  0  0  0
    4.4094    2.9813    2.0515 C   0  0  0  0  0  0  0  0  0  0  0  0
    3.0305    0.4141    0.1733 C   0  0  0  0  0  0  0  0  0  0  0  0
    3.9028   -0.8274    0.1076 C   0  0  0  0  0  0  0  0  0  0  0  0
    3.8937   -1.6574    1.0188 O   0  0  0  0  0  0  0  0  0  0  0  0
    4.6797   -1.0092   -1.0294 N   0  0  0  0  0  0  0  0  0  0  0  0
    5.5916   -2.1632   -1.0522 C   0  0  0  0  0  0  0  0  0  0  0  0
    6.8628   -1.9267   -0.2274 C   0  0  0  0  0  0  0  0  0  0  0  0
    7.7038   -0.9678   -0.8705 O   0  0  0  0  0  0  0  0  0  0  0  0
    4.7994   -0.0522   -2.1345 C   0  0  0  0  0  0  0  0  0  0  0  0
    4.3154   -0.6126   -3.4544 C   0  0  0  0  0  0  0  0  0  0  0  0
    5.0829   -0.4305   -4.6144 C   0  0  0  0  0  0  0  0  0  0  0  0
    4.6407   -0.9239   -5.8439 C   0  0  0  0  0  0  0  0  0  0  0  0
    3.4245   -1.5971   -5.9289 C   0  0  0  0  0  0  0  0  0  0  0  0
    2.6446   -1.7719   -4.7876 C   0  0  0  0  0  0  0  0  0  0  0  0
    3.0846   -1.2788   -3.5568 C   0  0  0  0  0  0  0  0  0  0  0  0
   -7.5766   -3.8507   -0.5719 H   0  0  0  0  0  0  0  0  0  0  0  0
   -5.7817   -3.9759   -0.1509 H   0  0  0  0  0  0  0  0  0  0  0  0
   -7.7882   -1.7706    0.5949 H   0  0  0  0  0  0  0  0  0  0  0  0
   -5.6585   -0.5199    0.8639 H   0  0  0  0  0  0  0  0  0  0  0  0
   -6.0656   -1.3734    2.3479 H   0  0  0  0  0  0  0  0  0  0  0  0
   -4.4368   -3.1792    1.7548 H   0  0  0  0  0  0  0  0  0  0  0  0
   -3.9804   -2.2941    0.2974 H   0  0  0  0  0  0  0  0  0  0  0  0
   -3.7130   -1.2064    3.1590 H   0  0  0  0  0  0  0  0  0  0  0  0
   -1.1955   -1.3866    2.6490 H   0  0  0  0  0  0  0  0  0  0  0  0
   -1.5906   -2.3869    1.2769 H   0  0  0  0  0  0  0  0  0  0  0  0
   -2.0379   -4.7370    1.5623 H   0  0  0  0  0  0  0  0  0  0  0  0
   -2.0567   -6.7033    3.0702 H   0  0  0  0  0  0  0  0  0  0  0  0
   -1.9313   -4.1295    6.4888 H   0  0  0  0  0  0  0  0  0  0  0  0
   -1.9134   -2.1338    5.0124 H   0  0  0  0  0  0  0  0  0  0  0  0
   -3.1253    1.7095   -0.3739 H   0  0  0  0  0  0  0  0  0  0  0  0
   -1.8757    0.9067   -1.3280 H   0  0  0  0  0  0  0  0  0  0  0  0
   -1.3805    2.2985    1.3713 H   0  0  0  0  0  0  0  0  0  0  0  0
    0.0468    3.8624    0.0111 H   0  0  0  0  0  0  0  0  0  0  0  0
   -0.3720    3.0018   -1.4480 H   0  0  0  0  0  0  0  0  0  0  0  0
   -2.2516    5.0817    1.4222 H   0  0  0  0  0  0  0  0  0  0  0  0
   -4.1865    6.2659    0.3550 H   0  0  0  0  0  0  0  0  0  0  0  0
   -5.4508    6.4667   -2.1476 H   0  0  0  0  0  0  0  0  0  0  0  0
   -5.2849    5.6060   -4.4764 H   0  0  0  0  0  0  0  0  0  0  0  0
   -3.4996    4.0205   -5.1037 H   0  0  0  0  0  0  0  0  0  0  0  0
   -1.8457    3.2510   -3.4276 H   0  0  0  0  0  0  0  0  0  0  0  0
    0.0572    0.2034    0.3414 H   0  0  0  0  0  0  0  0  0  0  0  0
    1.7813   -0.3897    1.7442 H   0  0  0  0  0  0  0  0  0  0  0  0
    3.5986   -0.1189    3.0831 H   0  0  0  0  0  0  0  0  0  0  0  0
    2.6235    1.2277    3.5733 H   0  0  0  0  0  0  0  0  0  0  0  0
    5.3664    1.3260    2.8911 H   0  0  0  0  0  0  0  0  0  0  0  0
    5.3264    3.5593    1.9834 H   0  0  0  0  0  0  0  0  0  0  0  0
    3.4947    3.4664    1.7232 H   0  0  0  0  0  0  0  0  0  0  0  0
    3.6360    1.3051   -0.0117 H   0  0  0  0  0  0  0  0  0  0  0  0
    2.3082    0.3339   -0.6484 H   0  0  0  0  0  0  0  0  0  0  0  0
    5.8534   -2.3952   -2.0898 H   0  0  0  0  0  0  0  0  0  0  0  0
    5.0593   -3.0312   -0.6438 H   0  0  0  0  0  0  0  0  0  0  0  0
    6.6300   -1.5626    0.7776 H   0  0  0  0  0  0  0  0  0  0  0  0
    7.4269   -2.8614   -0.1443 H   0  0  0  0  0  0  0  0  0  0  0  0
    8.4488   -0.7971   -0.2662 H   0  0  0  0  0  0  0  0  0  0  0  0
    5.8532    0.2417   -2.2015 H   0  0  0  0  0  0  0  0  0  0  0  0
    4.2336    0.8625   -1.9457 H   0  0  0  0  0  0  0  0  0  0  0  0
    6.0370    0.0899   -4.5685 H   0  0  0  0  0  0  0  0  0  0  0  0
    5.2485   -0.7859   -6.7348 H   0  0  0  0  0  0  0  0  0  0  0  0
    3.0843   -1.9881   -6.8849 H   0  0  0  0  0  0  0  0  0  0  0  0
    1.6969   -2.2981   -4.8539 H   0  0  0  0  0  0  0  0  0  0  0  0
    2.4673   -1.4302   -2.6742 H   0  0  0  0  0  0  0  0  0  0  0  0
  1  2  2  0
  2  3  1  0
  3  4  1  0
  4  5  1  0
  5  6  1  0
  6  7  1  0
  7  8  2  0
  8  9  1  0
  9 10  2  0
 10 11  1  0
 10 12  1  0
 12 13  2  0
  5 14  1  0
 14 15  2  0
 14 16  1  0
 16 17  1  0
 17 18  1  0
 18 19  1  0
 19 20  1  0
 20 21  2  0
 21 22  1  0
 22 23  1  0
 23 24  2  0
 24 25  1  0
 25 26  2  0
 26 27  1  0
 27 28  2  0
 18 29  1  0
 29 30  1  0
 30 31  2  0
 30 32  1  0
 32 33  1  0
 33 34  1  0
 34 35  2  0
 32 36  1  0
 36 37  1  0
 37 38  2  0
 37 39  1  0
 39 40  1  0
 40 41  1  0
 41 42  1  0
 39 43  1  0
 43 44  1  0
 44 45  2  0
 45 46  1  0
 46 47  2  0
 47 48  1  0
 48 49  2  0
 13  7  1  0
 28 20  1  0
 49 44  1  0
 28 23  1  0
  1 50  1  0
  1 51  1  0
  2 52  1  0
  3 53  1  0
  3 54  1  0
  4 55  1  0
  4 56  1  0
  5 57  1  0
  6 58  1  0
  6 59  1  0
  8 60  1  0
  9 61  1  0
 12 62  1  0
 13 63  1  0
 17 64  1  0
 17 65  1  0
 18 66  1  0
 19 67  1  0
 19 68  1  0
 21 69  1  0
 22 70  1  0
 24 71  1  0
 25 72  1  0
 26 73  1  0
 27 74  1  0
 29 75  1  0
 32 76  1  0
 33 77  1  0
 33 78  1  0
 34 79  1  0
 35 80  1  0
 35 81  1  0
 36 82  1  0
 36 83  1  0
 40 84  1  0
 40 85  1  0
 41 86  1  0
 41 87  1  0
 42 88  1  0
 43 89  1  0
 43 90  1  0
 45 91  1  0
 46 92  1  0
 47 93  1  0
 48 94  1  0
 49 95  1  0
M  END
$$$$
