
     RDKit          3D

 46 49  0  0  0  0  0  0  0  0999 V2000
    4.9636    0.1741   -2.5620 C   0  0  0  0  0  0  0  0  0  0  0  0
    3.7442   -0.0403   -2.0510 C   0  0  0  0  0  0  0  0  0  0  0  0
    3.4905   -0.4662   -0.6237 C   0  0  0  0  0  0  0  0  0  0  0  0
    2.6672   -1.7823   -0.5368 C   0  0  0  0  0  0  0  0  0  0  0  0
    1.3859   -1.5924    0.1980 N   0  0  0  0  0  0  0  0  0  0  0  0
    1.7112   -1.1698    1.5844 C   0  0  0  0  0  0  0  0  0  0  0  0
    2.6050    0.0775    1.6262 C   0  0  0  0  0  0  0  0  0  0  0  0
    2.7583    0.6249    0.1990 C   0  0  0  0  0  0  0  0  0  0  0  0
    1.3265    0.8461   -0.3282 C   0  0  0  0  0  0  0  0  0  0  0  0
    0.6298   -0.5183   -0.5184 C   0  0  0  0  0  0  0  0  0  0  0  0
   -0.8325   -0.5198   -0.1483 C   0  0  0  0  0  0  0  0  0  0  0  0
   -1.3669   -1.5791    0.5502 N   0  0  0  0  0  0  0  0  0  0  0  0
   -2.7077   -1.4078    0.7705 C   0  0  0  0  0  0  0  0  0  0  0  0
   -3.6211   -2.2173    1.4558 C   0  0  0  0  0  0  0  0  0  0  0  0
   -4.9531   -1.7965    1.4995 C   0  0  0  0  0  0  0  0  0  0  0  0
   -5.3519   -0.6170    0.8763 C   0  0  0  0  0  0  0  0  0  0  0  0
   -4.4233    0.1774    0.1932 C   0  0  0  0  0  0  0  0  0  0  0  0
   -3.0700   -0.2194    0.1431 C   0  0  0  0  0  0  0  0  0  0  0  0
   -1.8866    0.3362   -0.4532 C   0  0  0  0  0  0  0  0  0  0  0  0
   -1.8419    1.5913   -1.2695 C   0  0  0  0  0  0  0  0  0  0  0  0
   -1.9074    2.8566   -0.4189 C   0  0  0  0  0  0  0  0  0  0  0  0
   -1.7953    4.0023   -1.2585 O   0  0  0  0  0  0  0  0  0  0  0  0
    5.8643    0.0576   -1.9673 H   0  0  0  0  0  0  0  0  0  0  0  0
    5.0853    0.4768   -3.5980 H   0  0  0  0  0  0  0  0  0  0  0  0
    2.8809    0.0922   -2.7007 H   0  0  0  0  0  0  0  0  0  0  0  0
    4.4604   -0.6538   -0.1409 H   0  0  0  0  0  0  0  0  0  0  0  0
    3.2600   -2.5516   -0.0241 H   0  0  0  0  0  0  0  0  0  0  0  0
    2.4595   -2.1987   -1.5311 H   0  0  0  0  0  0  0  0  0  0  0  0
    0.7945   -0.9842    2.1562 H   0  0  0  0  0  0  0  0  0  0  0  0
    2.2091   -1.9965    2.1068 H   0  0  0  0  0  0  0  0  0  0  0  0
    3.5868   -0.1718    2.0462 H   0  0  0  0  0  0  0  0  0  0  0  0
    2.1575    0.8358    2.2796 H   0  0  0  0  0  0  0  0  0  0  0  0
    3.3204    1.5654    0.2083 H   0  0  0  0  0  0  0  0  0  0  0  0
    1.3577    1.3856   -1.2819 H   0  0  0  0  0  0  0  0  0  0  0  0
    0.7832    1.4836    0.3792 H   0  0  0  0  0  0  0  0  0  0  0  0
    0.6378   -0.7607   -1.5918 H   0  0  0  0  0  0  0  0  0  0  0  0
   -0.8144   -2.3701    0.8542 H   0  0  0  0  0  0  0  0  0  0  0  0
   -3.3123   -3.1415    1.9329 H   0  0  0  0  0  0  0  0  0  0  0  0
   -5.6883   -2.4034    2.0227 H   0  0  0  0  0  0  0  0  0  0  0  0
   -6.3941   -0.3105    0.9153 H   0  0  0  0  0  0  0  0  0  0  0  0
   -4.7487    1.0906   -0.2957 H   0  0  0  0  0  0  0  0  0  0  0  0
   -0.9430    1.6137   -1.8961 H   0  0  0  0  0  0  0  0  0  0  0  0
   -2.6759    1.5942   -1.9835 H   0  0  0  0  0  0  0  0  0  0  0  0
   -2.8572    2.9192    0.1223 H   0  0  0  0  0  0  0  0  0  0  0  0
   -1.0941    2.8865    0.3126 H   0  0  0  0  0  0  0  0  0  0  0  0
   -1.8535    4.7815   -0.6792 H   0  0  0  0  0  0  0  0  0  0  0  0
  1  2  2  0
  2  3  1  0
  3  4  1  0
  4  5  1  0
  5  6  1  0
  6  7  1  0
  7  8  1  0
  8  9  1  0
  9 10  1  0
 10 11  1  0
 11 12  1  0
 12 13  1  0
 13 14  2  0
 14 15  1  0
 15 16  2  0
 16 17  1  0
 17 18  2  0
 18 19  1  0
 19 20  1  0
 20 21  1  0
 21 22  1  0
  8  3  1  0
 19 11  2  0
 10  5  1  0
 18 13  1  0
  1 23  1  0
  1 24  1  0
  2 25  1  0
  3 26  1  0
  4 27  1  0
  4 28  1  0
  6 29  1  0
  6 30  1  0
  7 31  1  0
  7 32  1  0
  8 33  1  0
  9 34  1  0
  9 35  1  0
 10 36  1  0
 12 37  1  0
 14 38  1  0
 15 39  1  0
 16 40  1  0
 17 41  1  0
 20 42  1  0
 20 43  1  0
 21 44  1  0
 21 45  1  0
 22 46  1  0
M  END
$$$$
