
     RDKit          3D

 35 37  0  0  0  0  0  0  0  0999 V2000
    5.6758   -1.0185    0.1083 C   0  0  0  0  0  0  0  0  0  0  0  0
    4.3472   -0.4191    0.4805 C   0  0  0  0  0  0  0  0  0  0  0  0
    3.9628    0.8051   -0.0873 C   0  0  0  0  0  0  0  0  0  0  0  0
    2.7377    1.3896    0.2390 C   0  0  0  0  0  0  0  0  0  0  0  0
    1.8701    0.7572    1.1274 C   0  0  0  0  0  0  0  0  0  0  0  0
    0.6482    1.3526    1.4685 N   0  0  0  0  0  0  0  0  0  0  0  0
   -0.4069    1.0658    0.7884 C   0  0  0  0  0  0  0  0  0  0  0  0
   -1.5917    1.6349    1.1113 N   0  0  0  0  0  0  0  0  0  0  0  0
   -2.6980    1.2945    0.3864 C   0  0  0  0  0  0  0  0  0  0  0  0
   -3.8126    1.7237    0.6315 O   0  0  0  0  0  0  0  0  0  0  0  0
   -2.3194    0.3366   -0.6964 C   0  0  0  0  0  0  0  0  0  0  0  0
   -3.0722   -0.2550   -1.6351 C   0  0  0  0  0  0  0  0  0  0  0  0
   -4.4658   -0.0540   -1.8390 C   0  0  0  0  0  0  0  0  0  0  0  0
   -5.2297    1.1000   -1.8670 C   0  0  0  0  0  0  0  0  0  0  0  0
   -6.6088    0.8552   -2.1332 C   0  0  0  0  0  0  0  0  0  0  0  0
   -6.8646   -0.4814   -2.3260 C   0  0  0  0  0  0  0  0  0  0  0  0
   -5.4504   -1.4278   -2.1947 S   0  0  0  0  0  0  0  0  0  0  0  0
   -0.6119    0.0014   -0.5732 S   0  0  0  0  0  0  0  0  0  0  0  0
    2.2568   -0.4501    1.7150 C   0  0  0  0  0  0  0  0  0  0  0  0
    3.4862   -1.0527    1.3987 C   0  0  0  0  0  0  0  0  0  0  0  0
    3.8542   -2.3578    2.0492 C   0  0  0  0  0  0  0  0  0  0  0  0
    6.3235   -1.0815    0.9884 H   0  0  0  0  0  0  0  0  0  0  0  0
    6.1942   -0.4124   -0.6422 H   0  0  0  0  0  0  0  0  0  0  0  0
    5.5376   -2.0177   -0.3168 H   0  0  0  0  0  0  0  0  0  0  0  0
    4.6186    1.3176   -0.7878 H   0  0  0  0  0  0  0  0  0  0  0  0
    2.4604    2.3428   -0.2016 H   0  0  0  0  0  0  0  0  0  0  0  0
   -1.6596    2.2658    1.8930 H   0  0  0  0  0  0  0  0  0  0  0  0
   -2.5967   -0.9754   -2.2998 H   0  0  0  0  0  0  0  0  0  0  0  0
   -4.8241    2.0902   -1.6959 H   0  0  0  0  0  0  0  0  0  0  0  0
   -7.3703    1.6237   -2.1807 H   0  0  0  0  0  0  0  0  0  0  0  0
   -7.8149   -0.9491   -2.5436 H   0  0  0  0  0  0  0  0  0  0  0  0
    1.5860   -0.9216    2.4293 H   0  0  0  0  0  0  0  0  0  0  0  0
    4.7827   -2.2508    2.6190 H   0  0  0  0  0  0  0  0  0  0  0  0
    3.9775   -3.1382    1.2917 H   0  0  0  0  0  0  0  0  0  0  0  0
    3.0782   -2.6934    2.7453 H   0  0  0  0  0  0  0  0  0  0  0  0
  1  2  1  0
  2  3  2  0
  3  4  1  0
  4  5  2  0
  5  6  1  0
  6  7  2  3
  7  8  1  0
  8  9  1  0
  9 10  2  0
  9 11  1  0
 11 12  2  3
 12 13  1  0
 13 14  2  0
 14 15  1  0
 15 16  2  0
 16 17  1  0
 11 18  1  0
  5 19  1  0
 19 20  2  0
 20 21  1  0
 20  2  1  0
 18  7  1  0
 17 13  1  0
  1 22  1  0
  1 23  1  0
  1 24  1  0
  3 25  1  0
  4 26  1  0
  8 27  1  0
 12 28  1  0
 14 29  1  0
 15 30  1  0
 16 31  1  0
 19 32  1  0
 21 33  1  0
 21 34  1  0
 21 35  1  0
M  END
$$$$
