
     RDKit          3D

 43 45  0  0  0  0  0  0  0  0999 V2000
    1.9354   -1.6792    3.3078 C   0  0  0  0  0  0  0  0  0  0  0  0
    1.4284   -1.8609    1.9489 N   0  0  0  0  0  0  0  0  0  0  0  0
    0.2120   -1.0518    1.7337 C   0  0  0  0  0  0  0  0  0  0  0  0
   -0.0153   -0.6812    0.2536 C   0  0  0  0  0  0  0  0  0  0  0  0
    1.1093    0.1066   -0.2648 N   0  0  0  0  0  0  0  0  0  0  0  0
    1.0097    1.2115   -1.0972 C   0  0  0  0  0  0  0  0  0  0  0  0
    1.9442    1.9474   -1.3997 O   0  0  0  0  0  0  0  0  0  0  0  0
   -0.3640    1.5928   -1.6189 C   0  0  0  0  0  0  0  0  0  0  0  0
   -0.8973    2.9209   -1.1235 C   0  0  0  0  0  0  0  0  0  0  0  0
   -0.9654    2.9600    0.3692 C   0  0  0  0  0  0  0  0  0  0  0  0
   -0.0058    3.4277    1.2439 C   0  0  0  0  0  0  0  0  0  0  0  0
   -0.4266    3.3386    2.6042 C   0  0  0  0  0  0  0  0  0  0  0  0
   -1.6979    2.8163    2.7174 C   0  0  0  0  0  0  0  0  0  0  0  0
   -2.3738    2.4250    1.1931 S   0  0  0  0  0  0  0  0  0  0  0  0
   -1.0518    0.9020   -2.4788 N   0  0  0  0  0  0  0  0  0  0  0  0
   -0.4745   -0.2173   -3.0225 C   0  0  0  0  0  0  0  0  0  0  0  0
    0.6509   -0.2498   -3.5090 O   0  0  0  0  0  0  0  0  0  0  0  0
   -1.3777   -1.3536   -3.0039 C   0  0  0  0  0  0  0  0  0  0  0  0
   -1.2629   -2.6073   -3.5764 C   0  0  0  0  0  0  0  0  0  0  0  0
   -2.4356   -3.3274   -3.2372 C   0  0  0  0  0  0  0  0  0  0  0  0
   -3.1909   -2.4827   -2.4647 C   0  0  0  0  0  0  0  0  0  0  0  0
   -2.5597   -1.2905   -2.3094 O   0  0  0  0  0  0  0  0  0  0  0  0
    2.4251   -0.2150    0.2843 C   0  0  0  0  0  0  0  0  0  0  0  0
    2.4727   -1.6097    0.9337 C   0  0  0  0  0  0  0  0  0  0  0  0
    2.2985   -0.6558    3.4755 H   0  0  0  0  0  0  0  0  0  0  0  0
    2.7559   -2.3774    3.4977 H   0  0  0  0  0  0  0  0  0  0  0  0
    1.1543   -1.9006    4.0466 H   0  0  0  0  0  0  0  0  0  0  0  0
   -0.6519   -1.6137    2.1096 H   0  0  0  0  0  0  0  0  0  0  0  0
    0.2683   -0.1143    2.3061 H   0  0  0  0  0  0  0  0  0  0  0  0
   -0.9550   -0.1413    0.1430 H   0  0  0  0  0  0  0  0  0  0  0  0
   -0.0795   -1.5910   -0.3515 H   0  0  0  0  0  0  0  0  0  0  0  0
   -1.8798    3.1206   -1.5715 H   0  0  0  0  0  0  0  0  0  0  0  0
   -0.2233    3.7082   -1.4766 H   0  0  0  0  0  0  0  0  0  0  0  0
    0.9539    3.8224    0.9277 H   0  0  0  0  0  0  0  0  0  0  0  0
    0.1701    3.6601    3.4525 H   0  0  0  0  0  0  0  0  0  0  0  0
   -2.2654    2.6576    3.6286 H   0  0  0  0  0  0  0  0  0  0  0  0
   -0.4248   -2.9391   -4.1726 H   0  0  0  0  0  0  0  0  0  0  0  0
   -2.6960   -4.3386   -3.5201 H   0  0  0  0  0  0  0  0  0  0  0  0
   -4.1493   -2.5713   -1.9719 H   0  0  0  0  0  0  0  0  0  0  0  0
    2.6636    0.5541    1.0287 H   0  0  0  0  0  0  0  0  0  0  0  0
    3.1716   -0.1434   -0.5120 H   0  0  0  0  0  0  0  0  0  0  0  0
    2.3272   -2.3581    0.1402 H   0  0  0  0  0  0  0  0  0  0  0  0
    3.4729   -1.8009    1.3362 H   0  0  0  0  0  0  0  0  0  0  0  0
  1  2  1  0
  2  3  1  0
  3  4  1  0
  4  5  1  0
  5  6  1  0
  6  7  2  0
  6  8  1  0
  8  9  1  0
  9 10  1  0
 10 11  2  0
 11 12  1  0
 12 13  2  0
 13 14  1  0
  8 15  2  3
 15 16  1  0
 16 17  2  0
 16 18  1  0
 18 19  2  0
 19 20  1  0
 20 21  2  0
 21 22  1  0
  5 23  1  0
 23 24  1  0
 24  2  1  0
 14 10  1  0
 22 18  1  0
  1 25  1  0
  1 26  1  0
  1 27  1  0
  3 28  1  0
  3 29  1  0
  4 30  1  0
  4 31  1  0
  9 32  1  0
  9 33  1  0
 11 34  1  0
 12 35  1  0
 13 36  1  0
 19 37  1  0
 20 38  1  0
 21 39  1  0
 23 40  1  0
 23 41  1  0
 24 42  1  0
 24 43  1  0
M  END
$$$$
