
     RDKit          3D

 54 57  0  0  0  0  0  0  0  0999 V2000
   -1.0610    4.1862   -0.2834 C   0  0  0  0  0  0  0  0  0  0  0  0
   -1.6566    2.8870   -0.5513 N   0  0  0  0  0  0  0  0  0  0  0  0
   -0.8592    1.7697   -0.3394 C   0  0  0  0  0  0  0  0  0  0  0  0
    0.3293    1.8558   -0.0374 O   0  0  0  0  0  0  0  0  0  0  0  0
   -1.4924    0.4592   -0.5645 C   0  0  0  0  0  0  0  0  0  0  0  0
   -0.9448   -0.7760   -0.2355 C   0  0  0  0  0  0  0  0  0  0  0  0
    0.5898   -1.0200    0.6330 S   0  0  0  0  0  0  0  0  0  0  0  0
    1.7029   -0.9394   -0.8045 C   0  0  0  0  0  0  0  0  0  0  0  0
    3.0760   -0.4615   -0.3631 C   0  0  0  0  0  0  0  0  0  0  0  0
    4.0761   -1.1768   -0.4328 O   0  0  0  0  0  0  0  0  0  0  0  0
    3.1094    0.8439    0.0828 N   0  0  0  0  0  0  0  0  0  0  0  0
    4.3154    1.4091    0.6783 C   0  0  0  0  0  0  0  0  0  0  0  0
    4.5904    0.8555    2.0861 C   0  0  0  0  0  0  0  0  0  0  0  0
    5.9794    1.2030    2.6117 C   0  0  0  0  0  0  0  0  0  0  0  0
    5.7675    1.1068    4.1028 C   0  0  0  0  0  0  0  0  0  0  0  0
    4.3885    1.7223    4.2453 C   0  0  0  0  0  0  0  0  0  0  0  0
    3.6617    1.4264    3.0336 O   0  0  0  0  0  0  0  0  0  0  0  0
   -1.5576   -1.9474   -0.5268 N   0  0  0  0  0  0  0  0  0  0  0  0
   -2.7386   -1.8850   -1.1587 C   0  0  0  0  0  0  0  0  0  0  0  0
   -3.4204   -3.1504   -1.4498 C   0  0  0  0  0  0  0  0  0  0  0  0
   -3.5409   -4.1173   -0.4243 C   0  0  0  0  0  0  0  0  0  0  0  0
   -4.2001   -5.3333   -0.6379 C   0  0  0  0  0  0  0  0  0  0  0  0
   -4.7557   -5.6142   -1.8893 C   0  0  0  0  0  0  0  0  0  0  0  0
   -4.6346   -4.6863   -2.9249 C   0  0  0  0  0  0  0  0  0  0  0  0
   -3.9667   -3.4676   -2.7135 C   0  0  0  0  0  0  0  0  0  0  0  0
   -3.7880   -2.4226   -4.0932 Cl  0  0  0  0  0  0  0  0  0  0  0  0
   -3.3594   -0.7347   -1.4719 N   0  0  0  0  0  0  0  0  0  0  0  0
   -2.7268    0.4227   -1.1767 C   0  0  0  0  0  0  0  0  0  0  0  0
   -3.3790    1.6241   -1.5362 N   0  0  0  0  0  0  0  0  0  0  0  0
   -4.6368    1.5093   -2.2678 C   0  0  0  0  0  0  0  0  0  0  0  0
   -2.8515    2.8701   -1.2638 C   0  0  0  0  0  0  0  0  0  0  0  0
   -3.3999    3.9027   -1.6544 O   0  0  0  0  0  0  0  0  0  0  0  0
   -0.4342    4.4675   -1.1411 H   0  0  0  0  0  0  0  0  0  0  0  0
   -0.4325    4.1402    0.6109 H   0  0  0  0  0  0  0  0  0  0  0  0
   -1.8343    4.9477   -0.1327 H   0  0  0  0  0  0  0  0  0  0  0  0
    1.3336   -0.2527   -1.5794 H   0  0  0  0  0  0  0  0  0  0  0  0
    1.7866   -1.9434   -1.2428 H   0  0  0  0  0  0  0  0  0  0  0  0
    2.2180    1.2966    0.2971 H   0  0  0  0  0  0  0  0  0  0  0  0
    4.1689    2.5002    0.7163 H   0  0  0  0  0  0  0  0  0  0  0  0
    5.1551    1.1886    0.0068 H   0  0  0  0  0  0  0  0  0  0  0  0
    4.4462   -0.2359    2.1219 H   0  0  0  0  0  0  0  0  0  0  0  0
    6.2523    2.2387    2.3483 H   0  0  0  0  0  0  0  0  0  0  0  0
    6.7603    0.5338    2.2329 H   0  0  0  0  0  0  0  0  0  0  0  0
    5.7487    0.0498    4.4110 H   0  0  0  0  0  0  0  0  0  0  0  0
    6.5312    1.6242    4.6942 H   0  0  0  0  0  0  0  0  0  0  0  0
    4.4534    2.8111    4.3323 H   0  0  0  0  0  0  0  0  0  0  0  0
    3.8402    1.3409    5.1068 H   0  0  0  0  0  0  0  0  0  0  0  0
   -3.1183   -3.9171    0.5678 H   0  0  0  0  0  0  0  0  0  0  0  0
   -4.2810   -6.0554    0.1734 H   0  0  0  0  0  0  0  0  0  0  0  0
   -5.2688   -6.5589   -2.0571 H   0  0  0  0  0  0  0  0  0  0  0  0
   -5.0565   -4.9235   -3.9028 H   0  0  0  0  0  0  0  0  0  0  0  0
   -5.0925    2.4902   -2.4469 H   0  0  0  0  0  0  0  0  0  0  0  0
   -4.4450    1.0415   -3.2469 H   0  0  0  0  0  0  0  0  0  0  0  0
   -5.3482    0.8944   -1.6948 H   0  0  0  0  0  0  0  0  0  0  0  0
  1  2  1  0
  2  3  1  0
  3  4  2  0
  3  5  1  0
  5  6  2  0
  6  7  1  0
  7  8  1  0
  8  9  1  0
  9 10  2  0
  9 11  1  0
 11 12  1  0
 12 13  1  0
 13 14  1  0
 14 15  1  0
 15 16  1  0
 16 17  1  0
  6 18  1  0
 18 19  2  0
 19 20  1  0
 20 21  2  0
 21 22  1  0
 22 23  2  0
 23 24  1  0
 24 25  2  0
 25 26  1  0
 19 27  1  0
 27 28  2  0
 28 29  1  0
 29 30  1  0
 29 31  1  0
 31 32  2  0
 31  2  1  0
 28  5  1  0
 17 13  1  0
 25 20  1  0
  1 33  1  0
  1 34  1  0
  1 35  1  0
  8 36  1  0
  8 37  1  0
 11 38  1  0
 12 39  1  0
 12 40  1  0
 13 41  1  0
 14 42  1  0
 14 43  1  0
 15 44  1  0
 15 45  1  0
 16 46  1  0
 16 47  1  0
 21 48  1  0
 22 49  1  0
 23 50  1  0
 24 51  1  0
 30 52  1  0
 30 53  1  0
 30 54  1  0
M  END
$$$$
