
     RDKit          3D

 43 46  0  0  0  0  0  0  0  0999 V2000
    2.9019    0.0462    4.3641 C   0  0  0  0  0  0  0  0  0  0  0  0
    1.7965    0.0333    3.4704 O   0  0  0  0  0  0  0  0  0  0  0  0
    2.1131   -0.4552    2.2194 C   0  0  0  0  0  0  0  0  0  0  0  0
    1.0876   -0.5078    1.3795 N   0  0  0  0  0  0  0  0  0  0  0  0
    1.3628   -0.9645    0.1703 C   0  0  0  0  0  0  0  0  0  0  0  0
    0.3832   -1.0815   -0.7954 N   0  0  0  0  0  0  0  0  0  0  0  0
   -0.7931   -0.2121   -0.8380 C   0  0  0  0  0  0  0  0  0  0  0  0
   -1.7928   -0.5221    0.3016 C   0  0  0  0  0  0  0  0  0  0  0  0
   -3.0524    0.3534    0.1650 C   0  0  0  0  0  0  0  0  0  0  0  0
   -2.6448    1.8368    0.2047 C   0  0  0  0  0  0  0  0  0  0  0  0
   -1.6862    2.1567   -0.9558 C   0  0  0  0  0  0  0  0  0  0  0  0
   -2.3821    1.8413   -2.2891 C   0  0  0  0  0  0  0  0  0  0  0  0
   -2.7799    0.3579   -2.3347 C   0  0  0  0  0  0  0  0  0  0  0  0
   -3.7395    0.0517   -1.1753 C   0  0  0  0  0  0  0  0  0  0  0  0
   -1.5181   -0.5065   -2.1847 C   0  0  0  0  0  0  0  0  0  0  0  0
   -0.4209    1.2894   -0.8237 C   0  0  0  0  0  0  0  0  0  0  0  0
    2.5715   -1.3478   -0.2164 N   0  0  0  0  0  0  0  0  0  0  0  0
    3.5198   -1.2544    0.7116 C   0  0  0  0  0  0  0  0  0  0  0  0
    4.8131   -1.6279    0.4090 O   0  0  0  0  0  0  0  0  0  0  0  0
    4.9491   -2.1774   -0.8947 C   0  0  0  0  0  0  0  0  0  0  0  0
    3.3593   -0.8106    1.9470 N   0  0  0  0  0  0  0  0  0  0  0  0
    3.2878   -0.9648    4.5357 H   0  0  0  0  0  0  0  0  0  0  0  0
    3.6936    0.7147    4.0081 H   0  0  0  0  0  0  0  0  0  0  0  0
    2.5492    0.4333    5.3250 H   0  0  0  0  0  0  0  0  0  0  0  0
    0.8645   -1.2012   -1.6801 H   0  0  0  0  0  0  0  0  0  0  0  0
   -1.3512   -0.3367    1.2861 H   0  0  0  0  0  0  0  0  0  0  0  0
   -2.0709   -1.5840    0.2851 H   0  0  0  0  0  0  0  0  0  0  0  0
   -3.7417    0.1376    0.9891 H   0  0  0  0  0  0  0  0  0  0  0  0
   -3.5375    2.4707    0.1364 H   0  0  0  0  0  0  0  0  0  0  0  0
   -2.1633    2.0677    1.1629 H   0  0  0  0  0  0  0  0  0  0  0  0
   -1.4104    3.2168   -0.9257 H   0  0  0  0  0  0  0  0  0  0  0  0
   -1.7131    2.0764   -3.1260 H   0  0  0  0  0  0  0  0  0  0  0  0
   -3.2720    2.4719   -2.4060 H   0  0  0  0  0  0  0  0  0  0  0  0
   -3.2701    0.1357   -3.2890 H   0  0  0  0  0  0  0  0  0  0  0  0
   -4.6513    0.6536   -1.2737 H   0  0  0  0  0  0  0  0  0  0  0  0
   -4.0473   -1.0006   -1.2105 H   0  0  0  0  0  0  0  0  0  0  0  0
   -1.7882   -1.5696   -2.2440 H   0  0  0  0  0  0  0  0  0  0  0  0
   -0.8414   -0.3160   -3.0289 H   0  0  0  0  0  0  0  0  0  0  0  0
    0.0953    1.5606    0.1046 H   0  0  0  0  0  0  0  0  0  0  0  0
    0.2756    1.5170   -1.6413 H   0  0  0  0  0  0  0  0  0  0  0  0
    4.7087   -1.4366   -1.6653 H   0  0  0  0  0  0  0  0  0  0  0  0
    4.3394   -3.0801   -1.0130 H   0  0  0  0  0  0  0  0  0  0  0  0
    5.9965   -2.4654   -1.0278 H   0  0  0  0  0  0  0  0  0  0  0  0
  1  2  1  0
  2  3  1  0
  3  4  2  0
  4  5  1  0
  5  6  1  0
  6  7  1  0
  7  8  1  0
  8  9  1  0
  9 10  1  0
 10 11  1  0
 11 12  1  0
 12 13  1  0
 13 14  1  0
 13 15  1  0
 11 16  1  0
  5 17  2  0
 17 18  1  0
 18 19  1  0
 19 20  1  0
 18 21  2  0
 21  3  1  0
 15  7  1  0
 16  7  1  0
 14  9  1  0
  1 22  1  0
  1 23  1  0
  1 24  1  0
  6 25  1  0
  8 26  1  0
  8 27  1  0
  9 28  1  0
 10 29  1  0
 10 30  1  0
 11 31  1  0
 12 32  1  0
 12 33  1  0
 13 34  1  0
 14 35  1  0
 14 36  1  0
 15 37  1  0
 15 38  1  0
 16 39  1  0
 16 40  1  0
 20 41  1  0
 20 42  1  0
 20 43  1  0
M  END
$$$$
