
     RDKit          3D

 46 48  0  0  0  0  0  0  0  0999 V2000
    6.3977   -1.1596   -2.5424 C   0  0  0  0  0  0  0  0  0  0  0  0
    5.1014   -0.6202   -2.3157 O   0  0  0  0  0  0  0  0  0  0  0  0
    4.2338   -1.5249   -1.6283 C   0  0  0  0  0  0  0  0  0  0  0  0
    4.3526   -1.3759   -0.1042 C   0  0  0  0  0  0  0  0  0  0  0  0
    3.9180   -0.0523    0.3556 N   0  0  0  0  0  0  0  0  0  0  0  0
    2.5553    0.2036    0.3971 C   0  0  0  0  0  0  0  0  0  0  0  0
    1.6864   -0.6149    0.1322 O   0  0  0  0  0  0  0  0  0  0  0  0
    2.3044    1.6119    0.8141 C   0  0  0  0  0  0  0  0  0  0  0  0
    1.1251    2.2291    0.9693 C   0  0  0  0  0  0  0  0  0  0  0  0
   -0.1932    1.6270    0.7488 C   0  0  0  0  0  0  0  0  0  0  0  0
   -0.7184    1.6150   -0.5445 C   0  0  0  0  0  0  0  0  0  0  0  0
   -1.9819    1.0654   -0.7953 C   0  0  0  0  0  0  0  0  0  0  0  0
   -2.7674    0.5088    0.2227 C   0  0  0  0  0  0  0  0  0  0  0  0
   -4.0095   -0.0256   -0.0290 N   0  0  0  0  0  0  0  0  0  0  0  0
   -4.5451   -0.2551   -1.3691 C   0  0  0  0  0  0  0  0  0  0  0  0
   -5.7385   -1.1794   -1.1379 C   0  0  0  0  0  0  0  0  0  0  0  0
   -6.2166   -0.7853    0.2483 C   0  0  0  0  0  0  0  0  0  0  0  0
   -4.9127   -0.5327    1.0002 C   0  0  0  0  0  0  0  0  0  0  0  0
   -2.2167    0.5355    1.5154 C   0  0  0  0  0  0  0  0  0  0  0  0
   -0.9481    1.0846    1.7981 C   0  0  0  0  0  0  0  0  0  0  0  0
   -0.4327    1.0555    3.2107 C   0  0  0  0  0  0  0  0  0  0  0  0
    3.8066    2.4106    1.0985 S   0  0  0  0  0  0  0  0  0  0  0  0
    4.7575    0.9870    0.6923 C   0  0  0  0  0  0  0  0  0  0  0  0
    6.4245    0.9975    0.7764 S   0  0  0  0  0  0  0  0  0  0  0  0
    6.3359   -2.0157   -3.2212 H   0  0  0  0  0  0  0  0  0  0  0  0
    7.0129   -0.3880   -3.0129 H   0  0  0  0  0  0  0  0  0  0  0  0
    6.8712   -1.4611   -1.6043 H   0  0  0  0  0  0  0  0  0  0  0  0
    3.2146   -1.2925   -1.9534 H   0  0  0  0  0  0  0  0  0  0  0  0
    4.4400   -2.5585   -1.9306 H   0  0  0  0  0  0  0  0  0  0  0  0
    5.3788   -1.5673    0.2181 H   0  0  0  0  0  0  0  0  0  0  0  0
    3.7140   -2.1280    0.3742 H   0  0  0  0  0  0  0  0  0  0  0  0
    1.0848    3.2686    1.2878 H   0  0  0  0  0  0  0  0  0  0  0  0
   -0.1533    2.0302   -1.3754 H   0  0  0  0  0  0  0  0  0  0  0  0
   -2.3428    1.0902   -1.8192 H   0  0  0  0  0  0  0  0  0  0  0  0
   -4.8730    0.6935   -1.8092 H   0  0  0  0  0  0  0  0  0  0  0  0
   -3.8234   -0.7359   -2.0383 H   0  0  0  0  0  0  0  0  0  0  0  0
   -6.5103   -1.0662   -1.9042 H   0  0  0  0  0  0  0  0  0  0  0  0
   -5.4084   -2.2254   -1.1352 H   0  0  0  0  0  0  0  0  0  0  0  0
   -6.8314   -1.5551    0.7227 H   0  0  0  0  0  0  0  0  0  0  0  0
   -6.8045    0.1389    0.1920 H   0  0  0  0  0  0  0  0  0  0  0  0
   -4.5237   -1.4688    1.4173 H   0  0  0  0  0  0  0  0  0  0  0  0
   -5.0761    0.1867    1.8097 H   0  0  0  0  0  0  0  0  0  0  0  0
   -2.7787    0.1074    2.3412 H   0  0  0  0  0  0  0  0  0  0  0  0
   -0.1761    2.0656    3.5462 H   0  0  0  0  0  0  0  0  0  0  0  0
   -1.1832    0.6640    3.9056 H   0  0  0  0  0  0  0  0  0  0  0  0
    0.4502    0.4119    3.2788 H   0  0  0  0  0  0  0  0  0  0  0  0
  1  2  1  0
  2  3  1  0
  3  4  1  0
  4  5  1  0
  5  6  1  0
  6  7  2  0
  6  8  1  0
  8  9  2  3
  9 10  1  0
 10 11  2  0
 11 12  1  0
 12 13  2  0
 13 14  1  0
 14 15  1  0
 15 16  1  0
 16 17  1  0
 17 18  1  0
 13 19  1  0
 19 20  2  0
 20 21  1  0
  8 22  1  0
 22 23  1  0
 23 24  2  0
 23  5  1  0
 20 10  1  0
 18 14  1  0
  1 25  1  0
  1 26  1  0
  1 27  1  0
  3 28  1  0
  3 29  1  0
  4 30  1  0
  4 31  1  0
  9 32  1  0
 11 33  1  0
 12 34  1  0
 15 35  1  0
 15 36  1  0
 16 37  1  0
 16 38  1  0
 17 39  1  0
 17 40  1  0
 18 41  1  0
 18 42  1  0
 19 43  1  0
 21 44  1  0
 21 45  1  0
 21 46  1  0
M  END
$$$$
