
     RDKit          3D

 48 51  0  0  0  0  0  0  0  0999 V2000
    4.2237   -3.5362    1.6968 C   0  0  0  0  0  0  0  0  0  0  0  0
    3.5213   -2.8150    0.5488 C   0  0  0  0  0  0  0  0  0  0  0  0
    3.7997   -1.4107    0.6774 O   0  0  0  0  0  0  0  0  0  0  0  0
    3.5249   -0.7559   -0.5048 C   0  0  0  0  0  0  0  0  0  0  0  0
    4.5535   -0.7498   -1.4598 C   0  0  0  0  0  0  0  0  0  0  0  0
    4.3708   -0.1179   -2.6868 C   0  0  0  0  0  0  0  0  0  0  0  0
    3.1669    0.5231   -2.9549 C   0  0  0  0  0  0  0  0  0  0  0  0
    2.1561    0.5448   -1.9871 C   0  0  0  0  0  0  0  0  0  0  0  0
    2.3048   -0.0792   -0.7248 C   0  0  0  0  0  0  0  0  0  0  0  0
    1.2176    0.0127    0.2766 C   0  0  0  0  0  0  0  0  0  0  0  0
    1.5072   -0.2725    1.5641 N   0  0  0  0  0  0  0  0  0  0  0  0
    0.5003   -0.1647    2.4619 C   0  0  0  0  0  0  0  0  0  0  0  0
    0.8361   -0.4860    3.8768 C   0  0  0  0  0  0  0  0  0  0  0  0
    2.1314   -0.8587    4.0979 N   0  0  0  0  0  0  0  0  0  0  0  0
    0.0133   -0.4255    4.7832 O   0  0  0  0  0  0  0  0  0  0  0  0
   -0.7561    0.2148    2.0925 C   0  0  0  0  0  0  0  0  0  0  0  0
   -1.9346    0.3747    2.8019 N   0  0  0  0  0  0  0  0  0  0  0  0
   -2.9424    0.7792    1.9137 C   0  0  0  0  0  0  0  0  0  0  0  0
   -4.0897    1.0002    2.2677 O   0  0  0  0  0  0  0  0  0  0  0  0
   -2.3364    0.8674    0.6217 N   0  0  0  0  0  0  0  0  0  0  0  0
   -2.9736    1.2450   -0.5959 C   0  0  0  0  0  0  0  0  0  0  0  0
   -2.2683    1.4853   -1.7872 C   0  0  0  0  0  0  0  0  0  0  0  0
   -2.9185    1.8676   -2.9701 C   0  0  0  0  0  0  0  0  0  0  0  0
   -4.2983    2.0212   -2.9930 C   0  0  0  0  0  0  0  0  0  0  0  0
   -5.0378    1.7841   -1.8331 C   0  0  0  0  0  0  0  0  0  0  0  0
   -6.5263    1.9625   -1.8207 C   0  0  0  0  0  0  0  0  0  0  0  0
   -4.3693    1.4088   -0.6505 C   0  0  0  0  0  0  0  0  0  0  0  0
   -0.9679    0.5026    0.7652 C   0  0  0  0  0  0  0  0  0  0  0  0
   -0.0059    0.4051   -0.1617 N   0  0  0  0  0  0  0  0  0  0  0  0
    3.8361   -3.1971    2.6623 H   0  0  0  0  0  0  0  0  0  0  0  0
    4.0710   -4.6189    1.6252 H   0  0  0  0  0  0  0  0  0  0  0  0
    5.3037   -3.3223    1.6949 H   0  0  0  0  0  0  0  0  0  0  0  0
    3.8890   -3.2136   -0.4039 H   0  0  0  0  0  0  0  0  0  0  0  0
    2.4370   -2.9902    0.6161 H   0  0  0  0  0  0  0  0  0  0  0  0
    5.4982   -1.2443   -1.2399 H   0  0  0  0  0  0  0  0  0  0  0  0
    5.1655   -0.1231   -3.4280 H   0  0  0  0  0  0  0  0  0  0  0  0
    3.0115    1.0205   -3.9113 H   0  0  0  0  0  0  0  0  0  0  0  0
    1.2359    1.0775   -2.2283 H   0  0  0  0  0  0  0  0  0  0  0  0
    2.4392   -1.0877    5.0339 H   0  0  0  0  0  0  0  0  0  0  0  0
    2.7933   -0.8956    3.3215 H   0  0  0  0  0  0  0  0  0  0  0  0
   -2.0525    0.2273    3.7987 H   0  0  0  0  0  0  0  0  0  0  0  0
   -1.1903    1.4100   -1.8410 H   0  0  0  0  0  0  0  0  0  0  0  0
   -2.3367    2.0537   -3.8727 H   0  0  0  0  0  0  0  0  0  0  0  0
   -4.7894    2.3238   -3.9158 H   0  0  0  0  0  0  0  0  0  0  0  0
   -6.7888    2.8831   -1.2914 H   0  0  0  0  0  0  0  0  0  0  0  0
   -6.9292    2.0227   -2.8383 H   0  0  0  0  0  0  0  0  0  0  0  0
   -7.0077    1.1129   -1.3256 H   0  0  0  0  0  0  0  0  0  0  0  0
   -4.9882    1.2341    0.2280 H   0  0  0  0  0  0  0  0  0  0  0  0
  1  2  1  0
  2  3  1  0
  3  4  1  0
  4  5  2  0
  5  6  1  0
  6  7  2  0
  7  8  1  0
  8  9  2  0
  9 10  1  0
 10 11  2  0
 11 12  1  0
 12 13  1  0
 13 14  1  0
 13 15  2  0
 12 16  2  0
 16 17  1  0
 17 18  1  0
 18 19  2  0
 18 20  1  0
 20 21  1  0
 21 22  2  0
 22 23  1  0
 23 24  2  0
 24 25  1  0
 25 26  1  0
 25 27  2  0
 20 28  1  0
 28 29  2  0
  9  4  1  0
 29 10  1  0
 28 16  1  0
 27 21  1  0
  1 30  1  0
  1 31  1  0
  1 32  1  0
  2 33  1  0
  2 34  1  0
  5 35  1  0
  6 36  1  0
  7 37  1  0
  8 38  1  0
 14 39  1  0
 14 40  1  0
 17 41  1  0
 22 42  1  0
 23 43  1  0
 24 44  1  0
 26 45  1  0
 26 46  1  0
 26 47  1  0
 27 48  1  0
M  END
$$$$
