
     RDKit          3D

 51 53  0  0  0  0  0  0  0  0999 V2000
    7.3771    1.8383   -0.1101 C   0  0  0  0  0  0  0  0  0  0  0  0
    6.9672    0.6306   -0.7657 O   0  0  0  0  0  0  0  0  0  0  0  0
    7.2223   -0.5163    0.0555 C   0  0  0  0  0  0  0  0  0  0  0  0
    6.3890   -1.6873   -0.4747 C   0  0  0  0  0  0  0  0  0  0  0  0
    4.9646   -1.4307   -0.3239 N   0  0  0  0  0  0  0  0  0  0  0  0
    4.3887   -1.4931    0.9390 C   0  0  0  0  0  0  0  0  0  0  0  0
    4.9889   -1.9829    1.8952 O   0  0  0  0  0  0  0  0  0  0  0  0
    3.0827   -0.8586    1.0356 C   0  0  0  0  0  0  0  0  0  0  0  0
    2.7791    0.1097    2.4187 S   0  0  0  0  0  0  0  0  0  0  0  0
    1.2449    0.5691    1.8554 C   0  0  0  0  0  0  0  0  0  0  0  0
    0.4660    1.4284    2.5601 N   0  0  0  0  0  0  0  0  0  0  0  0
   -0.6796    1.6773    2.0133 C   0  0  0  0  0  0  0  0  0  0  0  0
   -1.1196    1.1734    0.8033 N   0  0  0  0  0  0  0  0  0  0  0  0
   -2.4390    1.5307    0.3051 C   0  0  0  0  0  0  0  0  0  0  0  0
   -3.4972    0.5978    0.9073 C   0  0  0  0  0  0  0  0  0  0  0  0
   -3.3185    0.0808    2.0134 O   0  0  0  0  0  0  0  0  0  0  0  0
   -4.6779    0.4183    0.1939 N   0  0  0  0  0  0  0  0  0  0  0  0
   -5.6792   -0.5110    0.7227 C   0  0  0  0  0  0  0  0  0  0  0  0
   -6.3561   -1.2855   -0.3996 C   0  0  0  0  0  0  0  0  0  0  0  0
   -7.0473   -0.3582   -1.4006 C   0  0  0  0  0  0  0  0  0  0  0  0
   -6.4470    1.0466   -1.4349 C   0  0  0  0  0  0  0  0  0  0  0  0
   -4.9619    1.0427   -1.1027 C   0  0  0  0  0  0  0  0  0  0  0  0
   -0.3601    0.2667    0.0685 C   0  0  0  0  0  0  0  0  0  0  0  0
   -0.7364   -0.2194   -0.9973 O   0  0  0  0  0  0  0  0  0  0  0  0
    0.9372   -0.0360    0.6558 C   0  0  0  0  0  0  0  0  0  0  0  0
    1.9950   -0.8907    0.1685 C   0  0  0  0  0  0  0  0  0  0  0  0
    1.9114   -1.6941   -1.0928 C   0  0  0  0  0  0  0  0  0  0  0  0
    6.6557    2.0746    0.6991 H   0  0  0  0  0  0  0  0  0  0  0  0
    7.3522    2.6474   -0.8413 H   0  0  0  0  0  0  0  0  0  0  0  0
    8.4005    1.7602    0.2913 H   0  0  0  0  0  0  0  0  0  0  0  0
    8.2901   -0.7556    0.0030 H   0  0  0  0  0  0  0  0  0  0  0  0
    6.9652   -0.2927    1.0980 H   0  0  0  0  0  0  0  0  0  0  0  0
    6.5642   -1.8331   -1.5482 H   0  0  0  0  0  0  0  0  0  0  0  0
    6.6463   -2.6106    0.0608 H   0  0  0  0  0  0  0  0  0  0  0  0
    4.5853   -0.7228   -0.9444 H   0  0  0  0  0  0  0  0  0  0  0  0
   -1.3937    2.3502    2.5179 H   0  0  0  0  0  0  0  0  0  0  0  0
   -2.4385    1.4670   -0.7874 H   0  0  0  0  0  0  0  0  0  0  0  0
   -2.6836    2.5566    0.6062 H   0  0  0  0  0  0  0  0  0  0  0  0
   -6.4145    0.0816    1.2786 H   0  0  0  0  0  0  0  0  0  0  0  0
   -5.2186   -1.2121    1.4289 H   0  0  0  0  0  0  0  0  0  0  0  0
   -7.0818   -1.9959    0.0105 H   0  0  0  0  0  0  0  0  0  0  0  0
   -5.5966   -1.8774   -0.9299 H   0  0  0  0  0  0  0  0  0  0  0  0
   -8.1139   -0.2783   -1.1574 H   0  0  0  0  0  0  0  0  0  0  0  0
   -6.9919   -0.8109   -2.3989 H   0  0  0  0  0  0  0  0  0  0  0  0
   -6.9747    1.6752   -0.7053 H   0  0  0  0  0  0  0  0  0  0  0  0
   -6.6142    1.4983   -2.4212 H   0  0  0  0  0  0  0  0  0  0  0  0
   -4.5854    2.0689   -1.1041 H   0  0  0  0  0  0  0  0  0  0  0  0
   -4.4071    0.4796   -1.8605 H   0  0  0  0  0  0  0  0  0  0  0  0
    0.9096   -2.1165   -1.2299 H   0  0  0  0  0  0  0  0  0  0  0  0
    2.1466   -1.0603   -1.9551 H   0  0  0  0  0  0  0  0  0  0  0  0
    2.6045   -2.5398   -1.0849 H   0  0  0  0  0  0  0  0  0  0  0  0
  1  2  1  0
  2  3  1  0
  3  4  1  0
  4  5  1  0
  5  6  1  0
  6  7  2  0
  6  8  1  0
  8  9  1  0
  9 10  1  0
 10 11  1  0
 11 12  2  0
 12 13  1  0
 13 14  1  0
 14 15  1  0
 15 16  2  0
 15 17  1  0
 17 18  1  0
 18 19  1  0
 19 20  1  0
 20 21  1  0
 21 22  1  0
 13 23  1  0
 23 24  2  0
 23 25  1  0
 25 26  1  0
 26 27  1  0
 26  8  2  0
 25 10  2  0
 22 17  1  0
  1 28  1  0
  1 29  1  0
  1 30  1  0
  3 31  1  0
  3 32  1  0
  4 33  1  0
  4 34  1  0
  5 35  1  0
 12 36  1  0
 14 37  1  0
 14 38  1  0
 18 39  1  0
 18 40  1  0
 19 41  1  0
 19 42  1  0
 20 43  1  0
 20 44  1  0
 21 45  1  0
 21 46  1  0
 22 47  1  0
 22 48  1  0
 27 49  1  0
 27 50  1  0
 27 51  1  0
M  END
$$$$
