
     RDKit          3D

 59 62  0  0  0  0  0  0  0  0999 V2000
    7.5870    0.5518   -5.6788 C   0  0  0  0  0  0  0  0  0  0  0  0
    6.6985   -0.1846   -4.7203 C   0  0  0  0  0  0  0  0  0  0  0  0
    5.6725   -1.0102   -5.1957 C   0  0  0  0  0  0  0  0  0  0  0  0
    4.8224   -1.6713   -4.3044 C   0  0  0  0  0  0  0  0  0  0  0  0
    4.9819   -1.5142   -2.9213 C   0  0  0  0  0  0  0  0  0  0  0  0
    4.0528   -2.1990   -1.9520 C   0  0  0  0  0  0  0  0  0  0  0  0
    2.9855   -1.3089   -1.5543 N   0  0  0  0  0  0  0  0  0  0  0  0
    3.0312   -0.6103   -0.3672 C   0  0  0  0  0  0  0  0  0  0  0  0
    3.8961   -0.7738    0.4853 O   0  0  0  0  0  0  0  0  0  0  0  0
    1.8893    0.3782   -0.2301 C   0  0  0  0  0  0  0  0  0  0  0  0
    1.9610    1.1685    1.0759 C   0  0  0  0  0  0  0  0  0  0  0  0
    0.9291    2.2943    1.1397 C   0  0  0  0  0  0  0  0  0  0  0  0
   -0.4451    1.8071    1.1816 N   0  0  0  0  0  0  0  0  0  0  0  0
   -1.0916    1.6993   -0.0560 N   0  0  0  0  0  0  0  0  0  0  0  0
   -2.3206    1.2704   -0.1365 C   0  0  0  0  0  0  0  0  0  0  0  0
   -2.9529    1.1732   -1.4958 C   0  0  0  0  0  0  0  0  0  0  0  0
   -3.0264    0.9067    1.0675 C   0  0  0  0  0  0  0  0  0  0  0  0
   -4.3218    0.4990    1.3420 C   0  0  0  0  0  0  0  0  0  0  0  0
   -5.5078    0.4288    0.4497 C   0  0  0  0  0  0  0  0  0  0  0  0
   -4.3375    0.2105    2.7129 N   0  0  0  0  0  0  0  0  0  0  0  0
   -5.3293   -0.4317    3.5183 C   0  0  0  0  0  0  0  0  0  0  0  0
   -5.2650   -0.2860    4.9157 C   0  0  0  0  0  0  0  0  0  0  0  0
   -6.2119   -0.8973    5.7412 C   0  0  0  0  0  0  0  0  0  0  0  0
   -7.2224   -1.6755    5.1837 C   0  0  0  0  0  0  0  0  0  0  0  0
   -7.2812   -1.8488    3.8030 C   0  0  0  0  0  0  0  0  0  0  0  0
   -6.3368   -1.2355    2.9714 C   0  0  0  0  0  0  0  0  0  0  0  0
   -3.1913    0.6354    3.3104 N   0  0  0  0  0  0  0  0  0  0  0  0
   -2.3855    0.9906    2.3078 C   0  0  0  0  0  0  0  0  0  0  0  0
   -1.0096    1.4559    2.4274 C   0  0  0  0  0  0  0  0  0  0  0  0
   -0.4076    1.5388    3.4957 O   0  0  0  0  0  0  0  0  0  0  0  0
    5.9955   -0.6695   -2.4485 C   0  0  0  0  0  0  0  0  0  0  0  0
    6.8449   -0.0093   -3.3398 C   0  0  0  0  0  0  0  0  0  0  0  0
    7.7465   -0.0334   -6.5908 H   0  0  0  0  0  0  0  0  0  0  0  0
    8.5710    0.7396   -5.2367 H   0  0  0  0  0  0  0  0  0  0  0  0
    7.1327    1.5101   -5.9485 H   0  0  0  0  0  0  0  0  0  0  0  0
    5.5291   -1.1441   -6.2660 H   0  0  0  0  0  0  0  0  0  0  0  0
    4.0348   -2.3092   -4.6996 H   0  0  0  0  0  0  0  0  0  0  0  0
    4.6092   -2.5582   -1.0788 H   0  0  0  0  0  0  0  0  0  0  0  0
    3.5880   -3.0725   -2.4224 H   0  0  0  0  0  0  0  0  0  0  0  0
    2.3596   -0.9860   -2.2785 H   0  0  0  0  0  0  0  0  0  0  0  0
    1.9311    1.0646   -1.0842 H   0  0  0  0  0  0  0  0  0  0  0  0
    0.9505   -0.1847   -0.2826 H   0  0  0  0  0  0  0  0  0  0  0  0
    2.9592    1.6126    1.1777 H   0  0  0  0  0  0  0  0  0  0  0  0
    1.8329    0.4862    1.9254 H   0  0  0  0  0  0  0  0  0  0  0  0
    1.1120    2.8944    2.0391 H   0  0  0  0  0  0  0  0  0  0  0  0
    1.0361    2.9671    0.2800 H   0  0  0  0  0  0  0  0  0  0  0  0
   -3.4450    0.2042   -1.6167 H   0  0  0  0  0  0  0  0  0  0  0  0
   -2.1930    1.2772   -2.2766 H   0  0  0  0  0  0  0  0  0  0  0  0
   -3.6846    1.9768   -1.6161 H   0  0  0  0  0  0  0  0  0  0  0  0
   -5.4430    1.1760   -0.3462 H   0  0  0  0  0  0  0  0  0  0  0  0
   -5.5828   -0.5555   -0.0209 H   0  0  0  0  0  0  0  0  0  0  0  0
   -6.4359    0.6528    0.9833 H   0  0  0  0  0  0  0  0  0  0  0  0
   -4.4845    0.3162    5.3801 H   0  0  0  0  0  0  0  0  0  0  0  0
   -6.1557   -0.7643    6.8192 H   0  0  0  0  0  0  0  0  0  0  0  0
   -7.9569   -2.1542    5.8265 H   0  0  0  0  0  0  0  0  0  0  0  0
   -8.0586   -2.4747    3.3714 H   0  0  0  0  0  0  0  0  0  0  0  0
   -6.3990   -1.4493    1.9122 H   0  0  0  0  0  0  0  0  0  0  0  0
    6.1225   -0.5180   -1.3768 H   0  0  0  0  0  0  0  0  0  0  0  0
    7.6208    0.6439   -2.9459 H   0  0  0  0  0  0  0  0  0  0  0  0
  1  2  1  0
  2  3  2  0
  3  4  1  0
  4  5  2  0
  5  6  1  0
  6  7  1  0
  7  8  1  0
  8  9  2  0
  8 10  1  0
 10 11  1  0
 11 12  1  0
 12 13  1  0
 13 14  1  0
 14 15  2  0
 15 16  1  0
 15 17  1  0
 17 18  2  0
 18 19  1  0
 18 20  1  0
 20 21  1  0
 21 22  2  0
 22 23  1  0
 23 24  2  0
 24 25  1  0
 25 26  2  0
 20 27  1  0
 27 28  2  0
 28 29  1  0
 29 30  2  0
  5 31  1  0
 31 32  2  0
 32  2  1  0
 29 13  1  0
 28 17  1  0
 26 21  1  0
  1 33  1  0
  1 34  1  0
  1 35  1  0
  3 36  1  0
  4 37  1  0
  6 38  1  0
  6 39  1  0
  7 40  1  0
 10 41  1  0
 10 42  1  0
 11 43  1  0
 11 44  1  0
 12 45  1  0
 12 46  1  0
 16 47  1  0
 16 48  1  0
 16 49  1  0
 19 50  1  0
 19 51  1  0
 19 52  1  0
 22 53  1  0
 23 54  1  0
 24 55  1  0
 25 56  1  0
 26 57  1  0
 31 58  1  0
 32 59  1  0
M  END
$$$$
