
     RDKit          3D

 56 60  0  0  0  0  0  0  0  0999 V2000
    4.5347    2.3033    1.2858 C   0  0  0  0  0  0  0  0  0  0  0  0
    4.5873    1.0224    0.5397 C   0  0  0  0  0  0  0  0  0  0  0  0
    4.0009   -0.0731    1.0402 N   0  0  0  0  0  0  0  0  0  0  0  0
    4.2349   -1.0309    0.1129 N   0  0  0  0  0  0  0  0  0  0  0  0
    3.7251   -2.3788    0.3526 C   0  0  0  0  0  0  0  0  0  0  0  0
    2.4763   -2.6757   -0.4456 C   0  0  0  0  0  0  0  0  0  0  0  0
    2.3978   -3.8401   -1.2243 C   0  0  0  0  0  0  0  0  0  0  0  0
    1.2466   -4.1264   -1.9594 C   0  0  0  0  0  0  0  0  0  0  0  0
    0.1540   -3.2609   -1.9130 C   0  0  0  0  0  0  0  0  0  0  0  0
    0.1995   -2.1085   -1.1204 C   0  0  0  0  0  0  0  0  0  0  0  0
   -0.9938   -1.2135   -1.1031 C   0  0  0  0  0  0  0  0  0  0  0  0
   -1.7634   -1.2183   -2.0562 O   0  0  0  0  0  0  0  0  0  0  0  0
   -1.1647   -0.4480    0.0326 N   0  0  0  0  0  0  0  0  0  0  0  0
   -2.2999    0.4512    0.2681 C   0  0  0  0  0  0  0  0  0  0  0  0
   -3.6392   -0.3240    0.3264 C   0  0  0  0  0  0  0  0  0  0  0  0
   -4.8053    0.6334    0.6300 C   0  0  0  0  0  0  0  0  0  0  0  0
   -4.5661    1.3110    1.9887 C   0  0  0  0  0  0  0  0  0  0  0  0
   -3.2521    2.1075    1.9541 C   0  0  0  0  0  0  0  0  0  0  0  0
   -3.3341    3.1782    0.8553 C   0  0  0  0  0  0  0  0  0  0  0  0
   -3.5651    2.5115   -0.5097 C   0  0  0  0  0  0  0  0  0  0  0  0
   -4.8771    1.7091   -0.4675 C   0  0  0  0  0  0  0  0  0  0  0  0
   -2.3974    1.5562   -0.8144 C   0  0  0  0  0  0  0  0  0  0  0  0
   -2.0913    1.1508    1.6394 C   0  0  0  0  0  0  0  0  0  0  0  0
    1.3630   -1.8167   -0.3951 C   0  0  0  0  0  0  0  0  0  0  0  0
    4.9670   -0.5843   -0.9632 C   0  0  0  0  0  0  0  0  0  0  0  0
    5.3465   -1.4451   -2.1103 C   0  0  0  0  0  0  0  0  0  0  0  0
    5.1974    0.7459   -0.6997 C   0  0  0  0  0  0  0  0  0  0  0  0
    6.1285    1.9871   -1.7495 Br  0  0  0  0  0  0  0  0  0  0  0  0
    4.0311    3.0727    0.6914 H   0  0  0  0  0  0  0  0  0  0  0  0
    5.5457    2.6514    1.5216 H   0  0  0  0  0  0  0  0  0  0  0  0
    3.9888    2.1965    2.2294 H   0  0  0  0  0  0  0  0  0  0  0  0
    3.5129   -2.4788    1.4237 H   0  0  0  0  0  0  0  0  0  0  0  0
    4.5370   -3.0739    0.1118 H   0  0  0  0  0  0  0  0  0  0  0  0
    3.2366   -4.5318   -1.2739 H   0  0  0  0  0  0  0  0  0  0  0  0
    1.1988   -5.0237   -2.5723 H   0  0  0  0  0  0  0  0  0  0  0  0
   -0.7382   -3.4876   -2.4944 H   0  0  0  0  0  0  0  0  0  0  0  0
   -0.5916   -0.6693    0.8355 H   0  0  0  0  0  0  0  0  0  0  0  0
   -3.8355   -0.8378   -0.6222 H   0  0  0  0  0  0  0  0  0  0  0  0
   -3.5890   -1.1069    1.0947 H   0  0  0  0  0  0  0  0  0  0  0  0
   -5.7455    0.0712    0.6586 H   0  0  0  0  0  0  0  0  0  0  0  0
   -5.4029    1.9790    2.2271 H   0  0  0  0  0  0  0  0  0  0  0  0
   -4.5259    0.5551    2.7827 H   0  0  0  0  0  0  0  0  0  0  0  0
   -3.0844    2.5864    2.9253 H   0  0  0  0  0  0  0  0  0  0  0  0
   -2.4080    3.7658    0.8338 H   0  0  0  0  0  0  0  0  0  0  0  0
   -4.1502    3.8780    1.0737 H   0  0  0  0  0  0  0  0  0  0  0  0
   -3.6266    3.2791   -1.2894 H   0  0  0  0  0  0  0  0  0  0  0  0
   -5.7211    2.3831   -0.2754 H   0  0  0  0  0  0  0  0  0  0  0  0
   -5.0606    1.2390   -1.4415 H   0  0  0  0  0  0  0  0  0  0  0  0
   -1.4562    2.1196   -0.8641 H   0  0  0  0  0  0  0  0  0  0  0  0
   -2.5471    1.1218   -1.8095 H   0  0  0  0  0  0  0  0  0  0  0  0
   -1.1430    1.7052    1.6395 H   0  0  0  0  0  0  0  0  0  0  0  0
   -2.0064    0.4002    2.4370 H   0  0  0  0  0  0  0  0  0  0  0  0
    1.4285   -0.9014    0.1903 H   0  0  0  0  0  0  0  0  0  0  0  0
    4.4597   -1.7428   -2.6787 H   0  0  0  0  0  0  0  0  0  0  0  0
    6.0210   -0.9258   -2.7976 H   0  0  0  0  0  0  0  0  0  0  0  0
    5.8625   -2.3478   -1.7684 H   0  0  0  0  0  0  0  0  0  0  0  0
  1  2  1  0
  2  3  2  0
  3  4  1  0
  4  5  1  0
  5  6  1  0
  6  7  2  0
  7  8  1  0
  8  9  2  0
  9 10  1  0
 10 11  1  0
 11 12  2  0
 11 13  1  0
 13 14  1  0
 14 15  1  0
 15 16  1  0
 16 17  1  0
 17 18  1  0
 18 19  1  0
 19 20  1  0
 20 21  1  0
 20 22  1  0
 18 23  1  0
 10 24  2  0
  4 25  1  0
 25 26  1  0
 25 27  2  0
 27 28  1  0
 27  2  1  0
 24  6  1  0
 22 14  1  0
 23 14  1  0
 21 16  1  0
  1 29  1  0
  1 30  1  0
  1 31  1  0
  5 32  1  0
  5 33  1  0
  7 34  1  0
  8 35  1  0
  9 36  1  0
 13 37  1  0
 15 38  1  0
 15 39  1  0
 16 40  1  0
 17 41  1  0
 17 42  1  0
 18 43  1  0
 19 44  1  0
 19 45  1  0
 20 46  1  0
 21 47  1  0
 21 48  1  0
 22 49  1  0
 22 50  1  0
 23 51  1  0
 23 52  1  0
 24 53  1  0
 26 54  1  0
 26 55  1  0
 26 56  1  0
M  END
$$$$
