
     RDKit          3D

 45 47  0  0  0  0  0  0  0  0999 V2000
    5.5818   -2.5819   -1.8719 C   0  0  0  0  0  0  0  0  0  0  0  0
    4.6053   -2.1962   -0.7850 C   0  0  0  0  0  0  0  0  0  0  0  0
    4.9249   -2.4721    0.4423 N   0  0  0  0  0  0  0  0  0  0  0  0
    3.3027   -1.5066   -1.1494 C   0  0  0  0  0  0  0  0  0  0  0  0
    2.4475   -2.4433   -1.8841 C   0  0  0  0  0  0  0  0  0  0  0  0
    1.7470   -3.1510   -2.4794 N   0  0  0  0  0  0  0  0  0  0  0  0
    3.4650   -0.2316   -1.9509 C   0  0  0  0  0  0  0  0  0  0  0  0
    4.5690    0.1851   -2.3099 O   0  0  0  0  0  0  0  0  0  0  0  0
    2.1944    0.5199   -2.3626 C   0  0  0  0  0  0  0  0  0  0  0  0
    1.0680    0.3958   -1.4970 O   0  0  0  0  0  0  0  0  0  0  0  0
    1.1850    1.0418   -0.3077 C   0  0  0  0  0  0  0  0  0  0  0  0
    2.2011    1.5818    0.0879 O   0  0  0  0  0  0  0  0  0  0  0  0
   -0.0842    0.9137    0.4531 C   0  0  0  0  0  0  0  0  0  0  0  0
   -1.2857    0.9855   -0.2622 C   0  0  0  0  0  0  0  0  0  0  0  0
   -2.4825    0.8735    0.4239 C   0  0  0  0  0  0  0  0  0  0  0  0
   -3.8023    0.9340   -0.2374 C   0  0  0  0  0  0  0  0  0  0  0  0
   -4.9123    1.4889    0.4293 C   0  0  0  0  0  0  0  0  0  0  0  0
   -6.1702    1.5635   -0.1768 C   0  0  0  0  0  0  0  0  0  0  0  0
   -6.3491    1.0776   -1.4684 C   0  0  0  0  0  0  0  0  0  0  0  0
   -5.2693    0.5153   -2.1417 C   0  0  0  0  0  0  0  0  0  0  0  0
   -5.5072   -0.1582   -3.8932 Br  0  0  0  0  0  0  0  0  0  0  0  0
   -4.0106    0.4395   -1.5382 C   0  0  0  0  0  0  0  0  0  0  0  0
   -2.5063    0.7128    1.7670 N   0  0  0  0  0  0  0  0  0  0  0  0
   -1.3591    0.6450    2.4602 C   0  0  0  0  0  0  0  0  0  0  0  0
   -1.4458    0.4666    3.8343 C   0  0  0  0  0  0  0  0  0  0  0  0
   -0.3123    0.3777    4.6430 C   0  0  0  0  0  0  0  0  0  0  0  0
    0.9453    0.4689    4.0687 C   0  0  0  0  0  0  0  0  0  0  0  0
    1.0587    0.6475    2.6904 C   0  0  0  0  0  0  0  0  0  0  0  0
   -0.0899    0.7412    1.8586 C   0  0  0  0  0  0  0  0  0  0  0  0
    6.0803   -3.5188   -1.6065 H   0  0  0  0  0  0  0  0  0  0  0  0
    5.0729   -2.7142   -2.8294 H   0  0  0  0  0  0  0  0  0  0  0  0
    6.3376   -1.7981   -1.9709 H   0  0  0  0  0  0  0  0  0  0  0  0
    4.2192   -2.1744    1.1231 H   0  0  0  0  0  0  0  0  0  0  0  0
    2.8120   -1.2319   -0.2088 H   0  0  0  0  0  0  0  0  0  0  0  0
    1.8924    0.1316   -3.3412 H   0  0  0  0  0  0  0  0  0  0  0  0
    2.4364    1.5812   -2.4981 H   0  0  0  0  0  0  0  0  0  0  0  0
   -1.2813    1.1505   -1.3349 H   0  0  0  0  0  0  0  0  0  0  0  0
   -4.7971    1.8732    1.4428 H   0  0  0  0  0  0  0  0  0  0  0  0
   -7.0070    1.9986    0.3640 H   0  0  0  0  0  0  0  0  0  0  0  0
   -7.3287    1.1357   -1.9350 H   0  0  0  0  0  0  0  0  0  0  0  0
   -3.1957   -0.0290   -2.0849 H   0  0  0  0  0  0  0  0  0  0  0  0
   -2.4304    0.3927    4.2922 H   0  0  0  0  0  0  0  0  0  0  0  0
   -0.4188    0.2395    5.7160 H   0  0  0  0  0  0  0  0  0  0  0  0
    1.8369    0.4065    4.6882 H   0  0  0  0  0  0  0  0  0  0  0  0
    2.0623    0.7223    2.2781 H   0  0  0  0  0  0  0  0  0  0  0  0
  1  2  1  0
  2  3  2  3
  2  4  1  0
  4  5  1  0
  5  6  3  0
  4  7  1  0
  7  8  2  0
  7  9  1  0
  9 10  1  0
 10 11  1  0
 11 12  2  0
 11 13  1  0
 13 14  2  0
 14 15  1  0
 15 16  1  0
 16 17  2  0
 17 18  1  0
 18 19  2  0
 19 20  1  0
 20 21  1  0
 20 22  2  0
 15 23  2  0
 23 24  1  0
 24 25  2  0
 25 26  1  0
 26 27  2  0
 27 28  1  0
 28 29  2  0
 29 13  1  0
 22 16  1  0
 29 24  1  0
  1 30  1  0
  1 31  1  0
  1 32  1  0
  3 33  1  0
  4 34  1  0
  9 35  1  0
  9 36  1  0
 14 37  1  0
 17 38  1  0
 18 39  1  0
 19 40  1  0
 22 41  1  0
 25 42  1  0
 26 43  1  0
 27 44  1  0
 28 45  1  0
M  END
$$$$
