
     RDKit          3D

 40 41  0  0  0  0  0  0  0  0999 V2000
    5.9526   -0.4053   -0.6165 C   0  0  0  0  0  0  0  0  0  0  0  0
    5.1337    0.8486   -0.3633 C   0  0  0  0  0  0  0  0  0  0  0  0
    4.4491    0.7653    0.8856 O   0  0  0  0  0  0  0  0  0  0  0  0
    3.2095    0.1920    0.9265 C   0  0  0  0  0  0  0  0  0  0  0  0
    2.5437   -0.4197   -0.1377 C   0  0  0  0  0  0  0  0  0  0  0  0
    1.2720   -0.9700    0.0514 C   0  0  0  0  0  0  0  0  0  0  0  0
    0.6690   -0.9052    1.3103 C   0  0  0  0  0  0  0  0  0  0  0  0
   -0.9499   -1.6025    1.5251 S   0  0  0  0  0  6  0  0  0  0  0  0
   -0.8810   -2.9702    1.0571 O   0  0  0  0  0  0  0  0  0  0  0  0
   -1.4219   -1.2833    2.8565 O   0  0  0  0  0  0  0  0  0  0  0  0
   -1.9030   -0.6910    0.4192 N   0  0  0  0  0  0  0  0  0  0  0  0
   -2.0283    0.7558    0.7631 C   0  0  0  0  0  0  0  0  0  0  0  0
   -2.0813    1.5722   -0.5230 C   0  0  0  0  0  0  0  0  0  0  0  0
   -3.4803    1.7605   -1.1066 C   0  0  0  0  0  0  0  0  0  0  0  0
   -4.4584    0.5965   -0.9666 C   0  0  0  0  0  0  0  0  0  0  0  0
   -3.8461   -0.7890   -1.1487 C   0  0  0  0  0  0  0  0  0  0  0  0
   -3.2123   -1.3374    0.1304 C   0  0  0  0  0  0  0  0  0  0  0  0
    1.3267   -0.3074    2.3844 C   0  0  0  0  0  0  0  0  0  0  0  0
    2.5955    0.2396    2.1843 C   0  0  0  0  0  0  0  0  0  0  0  0
    6.5342   -0.3071   -1.5376 H   0  0  0  0  0  0  0  0  0  0  0  0
    5.3153   -1.2905   -0.7003 H   0  0  0  0  0  0  0  0  0  0  0  0
    6.6404   -0.5878    0.2159 H   0  0  0  0  0  0  0  0  0  0  0  0
    4.4624    1.0865   -1.1956 H   0  0  0  0  0  0  0  0  0  0  0  0
    5.8213    1.6982   -0.2819 H   0  0  0  0  0  0  0  0  0  0  0  0
    2.9863   -0.4968   -1.1249 H   0  0  0  0  0  0  0  0  0  0  0  0
    0.7580   -1.4496   -0.7791 H   0  0  0  0  0  0  0  0  0  0  0  0
   -1.1455    1.0863    1.3193 H   0  0  0  0  0  0  0  0  0  0  0  0
   -2.8945    0.9402    1.4078 H   0  0  0  0  0  0  0  0  0  0  0  0
   -1.4296    1.1192   -1.2813 H   0  0  0  0  0  0  0  0  0  0  0  0
   -1.6681    2.5702   -0.3289 H   0  0  0  0  0  0  0  0  0  0  0  0
   -3.3713    2.0093   -2.1701 H   0  0  0  0  0  0  0  0  0  0  0  0
   -3.9416    2.6432   -0.6449 H   0  0  0  0  0  0  0  0  0  0  0  0
   -5.2477    0.7348   -1.7166 H   0  0  0  0  0  0  0  0  0  0  0  0
   -4.9621    0.6550    0.0064 H   0  0  0  0  0  0  0  0  0  0  0  0
   -4.6568   -1.4734   -1.4296 H   0  0  0  0  0  0  0  0  0  0  0  0
   -3.1290   -0.7930   -1.9781 H   0  0  0  0  0  0  0  0  0  0  0  0
   -3.8885   -1.2285    0.9862 H   0  0  0  0  0  0  0  0  0  0  0  0
   -3.0573   -2.4100   -0.0317 H   0  0  0  0  0  0  0  0  0  0  0  0
    0.8684   -0.2633    3.3694 H   0  0  0  0  0  0  0  0  0  0  0  0
    3.1162    0.7072    3.0174 H   0  0  0  0  0  0  0  0  0  0  0  0
  1  2  1  0
  2  3  1  0
  3  4  1  0
  4  5  2  0
  5  6  1  0
  6  7  2  0
  7  8  1  0
  8  9  2  0
  8 10  2  0
  8 11  1  0
 11 12  1  0
 12 13  1  0
 13 14  1  0
 14 15  1  0
 15 16  1  0
 16 17  1  0
  7 18  1  0
 18 19  2  0
 19  4  1  0
 17 11  1  0
  1 20  1  0
  1 21  1  0
  1 22  1  0
  2 23  1  0
  2 24  1  0
  5 25  1  0
  6 26  1  0
 12 27  1  0
 12 28  1  0
 13 29  1  0
 13 30  1  0
 14 31  1  0
 14 32  1  0
 15 33  1  0
 15 34  1  0
 16 35  1  0
 16 36  1  0
 17 37  1  0
 17 38  1  0
 18 39  1  0
 19 40  1  0
M  END
$$$$
