
     RDKit          3D

 42 44  0  0  0  0  0  0  0  0999 V2000
   -4.1822    3.1904   -1.9309 C   0  0  0  0  0  0  0  0  0  0  0  0
   -4.0723    2.7156   -0.5894 O   0  0  0  0  0  0  0  0  0  0  0  0
   -3.5637    1.4447   -0.5545 C   0  0  0  0  0  0  0  0  0  0  0  0
   -2.2974    1.2832    0.0054 C   0  0  0  0  0  0  0  0  0  0  0  0
   -1.7366    0.0047    0.1083 C   0  0  0  0  0  0  0  0  0  0  0  0
   -0.3966   -0.1720    0.6775 C   0  0  0  0  0  0  0  0  0  0  0  0
    0.7592    0.0429    0.0142 C   0  0  0  0  0  0  0  0  0  0  0  0
    0.7721    0.4295   -1.3614 C   0  0  0  0  0  0  0  0  0  0  0  0
    0.8210    0.7693   -2.4696 N   0  0  0  0  0  0  0  0  0  0  0  0
    1.9731   -0.2275    0.7203 C   0  0  0  0  0  0  0  0  0  0  0  0
    2.2032   -1.2132    1.5724 N   0  0  0  0  0  0  0  0  0  0  0  0
    3.5131   -1.1003    1.9536 C   0  0  0  0  0  0  0  0  0  0  0  0
    4.2635   -1.9164    2.8135 C   0  0  0  0  0  0  0  0  0  0  0  0
    5.6059   -1.5966    3.0458 C   0  0  0  0  0  0  0  0  0  0  0  0
    6.1876   -0.4849    2.4353 C   0  0  0  0  0  0  0  0  0  0  0  0
    5.4516    0.3416    1.5773 C   0  0  0  0  0  0  0  0  0  0  0  0
    4.1095    0.0037    1.3573 C   0  0  0  0  0  0  0  0  0  0  0  0
    3.1002    0.5732    0.6077 N   0  0  0  0  0  0  0  0  0  0  0  0
    3.2312    1.8261   -0.1027 C   0  0  0  0  0  0  0  0  0  0  0  0
   -2.4546   -1.1175   -0.3342 C   0  0  0  0  0  0  0  0  0  0  0  0
   -3.7317   -0.9620   -0.8762 C   0  0  0  0  0  0  0  0  0  0  0  0
   -4.5418   -1.9725   -1.3311 O   0  0  0  0  0  0  0  0  0  0  0  0
   -3.9628   -3.2699   -1.4081 C   0  0  0  0  0  0  0  0  0  0  0  0
   -4.2839    0.3237   -0.9704 C   0  0  0  0  0  0  0  0  0  0  0  0
   -5.5564    0.4635   -1.4637 O   0  0  0  0  0  0  0  0  0  0  0  0
   -4.8679    2.5897   -2.5384 H   0  0  0  0  0  0  0  0  0  0  0  0
   -4.5783    4.2106   -1.8908 H   0  0  0  0  0  0  0  0  0  0  0  0
   -3.1957    3.2290   -2.4093 H   0  0  0  0  0  0  0  0  0  0  0  0
   -1.7601    2.1593    0.3597 H   0  0  0  0  0  0  0  0  0  0  0  0
   -0.3872   -0.5168    1.7118 H   0  0  0  0  0  0  0  0  0  0  0  0
    3.8045   -2.7804    3.2810 H   0  0  0  0  0  0  0  0  0  0  0  0
    6.1994   -2.2237    3.7075 H   0  0  0  0  0  0  0  0  0  0  0  0
    7.2339   -0.2559    2.6286 H   0  0  0  0  0  0  0  0  0  0  0  0
    5.9155    1.2020    1.1066 H   0  0  0  0  0  0  0  0  0  0  0  0
    2.2946    2.3862   -0.0320 H   0  0  0  0  0  0  0  0  0  0  0  0
    4.0193    2.4287    0.3553 H   0  0  0  0  0  0  0  0  0  0  0  0
    3.4857    1.6065   -1.1424 H   0  0  0  0  0  0  0  0  0  0  0  0
   -2.0010   -2.0991   -0.2342 H   0  0  0  0  0  0  0  0  0  0  0  0
   -3.7612   -3.6672   -0.4089 H   0  0  0  0  0  0  0  0  0  0  0  0
   -4.6922   -3.9297   -1.8871 H   0  0  0  0  0  0  0  0  0  0  0  0
   -3.0568   -3.2705   -2.0250 H   0  0  0  0  0  0  0  0  0  0  0  0
   -5.8641   -0.4479   -1.6374 H   0  0  0  0  0  0  0  0  0  0  0  0
  1  2  1  0
  2  3  1  0
  3  4  2  0
  4  5  1  0
  5  6  1  0
  6  7  2  3
  7  8  1  0
  8  9  3  0
  7 10  1  0
 10 11  2  0
 11 12  1  0
 12 13  2  0
 13 14  1  0
 14 15  2  0
 15 16  1  0
 16 17  2  0
 17 18  1  0
 18 19  1  0
  5 20  2  0
 20 21  1  0
 21 22  1  0
 22 23  1  0
 21 24  2  0
 24 25  1  0
 24  3  1  0
 18 10  1  0
 17 12  1  0
  1 26  1  0
  1 27  1  0
  1 28  1  0
  4 29  1  0
  6 30  1  0
 13 31  1  0
 14 32  1  0
 15 33  1  0
 16 34  1  0
 19 35  1  0
 19 36  1  0
 19 37  1  0
 20 38  1  0
 23 39  1  0
 23 40  1  0
 23 41  1  0
 25 42  1  0
M  END
$$$$
