
     RDKit          3D

 47 50  0  0  0  0  0  0  0  0999 V2000
   -3.0426   -0.4016    2.2839 O   0  0  0  0  0  0  0  0  0  0  0  0
   -3.0558   -0.4450    1.0684 C   0  0  0  0  0  0  0  0  0  0  0  0
   -4.2394   -0.1825    0.2535 C   0  0  0  0  0  0  0  0  0  0  0  0
   -5.4958    0.2640    0.6131 C   0  0  0  0  0  0  0  0  0  0  0  0
   -6.4429    0.3943   -0.4077 C   0  0  0  0  0  0  0  0  0  0  0  0
   -6.1173    0.0734   -1.7423 C   0  0  0  0  0  0  0  0  0  0  0  0
   -4.8390   -0.3838   -2.0790 C   0  0  0  0  0  0  0  0  0  0  0  0
   -3.9202   -0.4983   -1.0542 C   0  0  0  0  0  0  0  0  0  0  0  0
   -2.5312   -0.9539   -1.0710 C   0  0  0  0  0  0  0  0  0  0  0  0
   -1.9777   -1.3934   -2.0610 O   0  0  0  0  0  0  0  0  0  0  0  0
   -2.0629   -0.8133    0.2036 N   0  0  0  0  0  0  0  0  0  0  0  0
   -0.7508   -1.2140    0.6529 C   0  0  0  0  0  0  0  0  0  0  0  0
    0.3579   -0.6723   -0.1350 N   0  0  0  0  0  0  0  0  0  0  0  0
    0.5212    0.7162   -0.1326 C   0  0  0  0  0  0  0  0  0  0  0  0
   -0.3212    1.4602    0.3791 O   0  0  0  0  0  0  0  0  0  0  0  0
    1.8210    1.2949   -0.7250 C   0  0  0  0  0  0  0  0  0  0  0  0
    2.2147    2.5446   -0.1706 O   0  0  0  0  0  0  0  0  0  0  0  0
    2.8114    2.5433    1.0599 C   0  0  0  0  0  0  0  0  0  0  0  0
    3.1100    1.4221    1.8362 C   0  0  0  0  0  0  0  0  0  0  0  0
    3.7291    1.5746    3.0815 C   0  0  0  0  0  0  0  0  0  0  0  0
    4.0521    2.8447    3.5562 C   0  0  0  0  0  0  0  0  0  0  0  0
    3.7562    3.9665    2.7866 C   0  0  0  0  0  0  0  0  0  0  0  0
    3.1385    3.8133    1.5442 C   0  0  0  0  0  0  0  0  0  0  0  0
    1.1547   -1.5842   -0.8797 C   0  0  0  0  0  0  0  0  0  0  0  0
    1.4271   -1.3562   -2.2362 C   0  0  0  0  0  0  0  0  0  0  0  0
    2.2040   -2.2594   -2.9658 C   0  0  0  0  0  0  0  0  0  0  0  0
    2.7034   -3.3945   -2.3415 C   0  0  0  0  0  0  0  0  0  0  0  0
    3.4484   -4.2602   -3.0404 F   0  0  0  0  0  0  0  0  0  0  0  0
    2.4333   -3.6482   -1.0031 C   0  0  0  0  0  0  0  0  0  0  0  0
    1.6531   -2.7476   -0.2733 C   0  0  0  0  0  0  0  0  0  0  0  0
   -5.7327    0.5037    1.6447 H   0  0  0  0  0  0  0  0  0  0  0  0
   -7.4452    0.7468   -0.1706 H   0  0  0  0  0  0  0  0  0  0  0  0
   -6.8728    0.1827   -2.5185 H   0  0  0  0  0  0  0  0  0  0  0  0
   -4.5761   -0.6386   -3.1004 H   0  0  0  0  0  0  0  0  0  0  0  0
   -0.6068   -0.8957    1.6925 H   0  0  0  0  0  0  0  0  0  0  0  0
   -0.7460   -2.3092    0.6372 H   0  0  0  0  0  0  0  0  0  0  0  0
    2.6560    0.5890   -0.6868 H   0  0  0  0  0  0  0  0  0  0  0  0
    1.6159    1.4927   -1.7828 H   0  0  0  0  0  0  0  0  0  0  0  0
    2.8779    0.4146    1.5116 H   0  0  0  0  0  0  0  0  0  0  0  0
    3.9576    0.6989    3.6839 H   0  0  0  0  0  0  0  0  0  0  0  0
    4.5303    2.9600    4.5252 H   0  0  0  0  0  0  0  0  0  0  0  0
    4.0015    4.9604    3.1518 H   0  0  0  0  0  0  0  0  0  0  0  0
    2.9046    4.6924    0.9485 H   0  0  0  0  0  0  0  0  0  0  0  0
    0.9884   -0.5098   -2.7594 H   0  0  0  0  0  0  0  0  0  0  0  0
    2.4041   -2.0930   -4.0198 H   0  0  0  0  0  0  0  0  0  0  0  0
    2.8316   -4.5437   -0.5364 H   0  0  0  0  0  0  0  0  0  0  0  0
    1.4724   -2.9547    0.7784 H   0  0  0  0  0  0  0  0  0  0  0  0
  1  2  2  0
  2  3  1  0
  3  4  2  0
  4  5  1  0
  5  6  2  0
  6  7  1  0
  7  8  2  0
  8  9  1  0
  9 10  2  0
  9 11  1  0
 11 12  1  0
 12 13  1  0
 13 14  1  0
 14 15  2  0
 14 16  1  0
 16 17  1  0
 17 18  1  0
 18 19  2  0
 19 20  1  0
 20 21  2  0
 21 22  1  0
 22 23  2  0
 13 24  1  0
 24 25  2  0
 25 26  1  0
 26 27  2  0
 27 28  1  0
 27 29  1  0
 29 30  2  0
 11  2  1  0
 23 18  1  0
 30 24  1  0
  8  3  1  0
  4 31  1  0
  5 32  1  0
  6 33  1  0
  7 34  1  0
 12 35  1  0
 12 36  1  0
 16 37  1  0
 16 38  1  0
 19 39  1  0
 20 40  1  0
 21 41  1  0
 22 42  1  0
 23 43  1  0
 25 44  1  0
 26 45  1  0
 29 46  1  0
 30 47  1  0
M  END
$$$$
