
     RDKit          3D

 56 58  0  0  0  0  0  0  0  0999 V2000
   -8.6405    1.3559    2.0378 C   0  0  0  0  0  0  0  0  0  0  0  0
   -8.0440    1.2011    0.7585 O   0  0  0  0  0  0  0  0  0  0  0  0
   -6.6837    1.0188    0.7088 C   0  0  0  0  0  0  0  0  0  0  0  0
   -5.8528    0.9591    1.8320 C   0  0  0  0  0  0  0  0  0  0  0  0
   -4.4769    0.7686    1.6851 C   0  0  0  0  0  0  0  0  0  0  0  0
   -3.9100    0.6367    0.4141 C   0  0  0  0  0  0  0  0  0  0  0  0
   -2.4265    0.4053    0.2662 C   0  0  0  0  0  0  0  0  0  0  0  0
   -2.0677   -1.0758    0.4119 C   0  0  0  0  0  0  0  0  0  0  0  0
   -0.6482   -1.3171    0.2326 N   0  0  0  0  0  0  0  0  0  0  0  0
    0.2517   -1.0411    1.2310 C   0  0  0  0  0  0  0  0  0  0  0  0
   -0.0661   -0.6331    2.3422 O   0  0  0  0  0  0  0  0  0  0  0  0
    1.6747   -1.2662    0.8565 C   0  0  0  0  0  0  0  0  0  0  0  0
    2.6135   -0.5240    1.4726 C   0  0  0  0  0  0  0  0  0  0  0  0
    4.0838   -0.6259    1.2063 C   0  0  0  0  0  0  0  0  0  0  0  0
    4.3841   -1.5060    0.0502 N   0  0  0  0  0  0  0  0  0  0  0  0
    4.6296   -0.7416   -1.4499 S   0  0  0  0  0  6  0  0  0  0  0  0
    3.5358    0.1816   -1.6660 O   0  0  0  0  0  0  0  0  0  0  0  0
    4.9507   -1.7579   -2.4290 O   0  0  0  0  0  0  0  0  0  0  0  0
    6.1139    0.1956   -1.1713 C   0  0  0  0  0  0  0  0  0  0  0  0
    6.0850    1.5935   -1.2294 C   0  0  0  0  0  0  0  0  0  0  0  0
    7.2624    2.3096   -1.0098 C   0  0  0  0  0  0  0  0  0  0  0  0
    8.4455    1.6250   -0.7426 C   0  0  0  0  0  0  0  0  0  0  0  0
    9.5723    2.3174   -0.5322 F   0  0  0  0  0  0  0  0  0  0  0  0
    8.4785    0.2340   -0.6922 C   0  0  0  0  0  0  0  0  0  0  0  0
    7.3066   -0.4904   -0.9101 C   0  0  0  0  0  0  0  0  0  0  0  0
    3.5208   -2.7166    0.0155 C   0  0  0  0  0  0  0  0  0  0  0  0
    2.0459   -2.3398   -0.1239 C   0  0  0  0  0  0  0  0  0  0  0  0
   -4.7417    0.6926   -0.7139 C   0  0  0  0  0  0  0  0  0  0  0  0
   -6.1225    0.8863   -0.5773 C   0  0  0  0  0  0  0  0  0  0  0  0
   -7.0039    0.9519   -1.6289 O   0  0  0  0  0  0  0  0  0  0  0  0
   -6.4675    0.9129   -2.9428 C   0  0  0  0  0  0  0  0  0  0  0  0
   -8.5042    0.4574    2.6487 H   0  0  0  0  0  0  0  0  0  0  0  0
   -9.7158    1.4964    1.8906 H   0  0  0  0  0  0  0  0  0  0  0  0
   -8.2565    2.2452    2.5484 H   0  0  0  0  0  0  0  0  0  0  0  0
   -6.2437    1.0560    2.8391 H   0  0  0  0  0  0  0  0  0  0  0  0
   -3.8483    0.7224    2.5732 H   0  0  0  0  0  0  0  0  0  0  0  0
   -2.0880    0.7775   -0.7095 H   0  0  0  0  0  0  0  0  0  0  0  0
   -1.8902    1.0085    1.0096 H   0  0  0  0  0  0  0  0  0  0  0  0
   -2.3622   -1.4485    1.4002 H   0  0  0  0  0  0  0  0  0  0  0  0
   -2.5907   -1.6772   -0.3401 H   0  0  0  0  0  0  0  0  0  0  0  0
   -0.3131   -1.4814   -0.7066 H   0  0  0  0  0  0  0  0  0  0  0  0
    2.3166    0.2220    2.2081 H   0  0  0  0  0  0  0  0  0  0  0  0
    4.4938    0.3772    1.0568 H   0  0  0  0  0  0  0  0  0  0  0  0
    4.5860   -1.0368    2.0896 H   0  0  0  0  0  0  0  0  0  0  0  0
    5.1612    2.1262   -1.4451 H   0  0  0  0  0  0  0  0  0  0  0  0
    7.2682    3.3948   -1.0490 H   0  0  0  0  0  0  0  0  0  0  0  0
    9.4163   -0.2738   -0.4884 H   0  0  0  0  0  0  0  0  0  0  0  0
    7.3239   -1.5779   -0.8804 H   0  0  0  0  0  0  0  0  0  0  0  0
    3.8270   -3.3879   -0.7937 H   0  0  0  0  0  0  0  0  0  0  0  0
    3.6835   -3.2789    0.9447 H   0  0  0  0  0  0  0  0  0  0  0  0
    1.4397   -3.2377    0.0428 H   0  0  0  0  0  0  0  0  0  0  0  0
    1.8430   -1.9906   -1.1428 H   0  0  0  0  0  0  0  0  0  0  0  0
   -4.2881    0.5802   -1.6932 H   0  0  0  0  0  0  0  0  0  0  0  0
   -5.7752    1.7438   -3.1141 H   0  0  0  0  0  0  0  0  0  0  0  0
   -7.2981    1.0231   -3.6466 H   0  0  0  0  0  0  0  0  0  0  0  0
   -5.9882   -0.0507   -3.1440 H   0  0  0  0  0  0  0  0  0  0  0  0
  1  2  1  0
  2  3  1  0
  3  4  2  0
  4  5  1  0
  5  6  2  0
  6  7  1  0
  7  8  1  0
  8  9  1  0
  9 10  1  0
 10 11  2  0
 10 12  1  0
 12 13  2  0
 13 14  1  0
 14 15  1  0
 15 16  1  0
 16 17  2  0
 16 18  2  0
 16 19  1  0
 19 20  2  0
 20 21  1  0
 21 22  2  0
 22 23  1  0
 22 24  1  0
 24 25  2  0
 15 26  1  0
 26 27  1  0
  6 28  1  0
 28 29  2  0
 29 30  1  0
 30 31  1  0
 29  3  1  0
 27 12  1  0
 25 19  1  0
  1 32  1  0
  1 33  1  0
  1 34  1  0
  4 35  1  0
  5 36  1  0
  7 37  1  0
  7 38  1  0
  8 39  1  0
  8 40  1  0
  9 41  1  0
 13 42  1  0
 14 43  1  0
 14 44  1  0
 20 45  1  0
 21 46  1  0
 24 47  1  0
 25 48  1  0
 26 49  1  0
 26 50  1  0
 27 51  1  0
 27 52  1  0
 28 53  1  0
 31 54  1  0
 31 55  1  0
 31 56  1  0
M  END
$$$$
