
     RDKit          3D

 69 72  0  0  0  0  0  0  0  0999 V2000
   -7.0756    3.9584    3.2181 C   0  0  0  0  0  0  0  0  0  0  0  0
   -6.3010    3.0211    2.3396 C   0  0  0  0  0  0  0  0  0  0  0  0
   -4.9612    3.2759    2.0344 C   0  0  0  0  0  0  0  0  0  0  0  0
   -4.2464    2.4077    1.2038 C   0  0  0  0  0  0  0  0  0  0  0  0
   -4.8692    1.2822    0.6393 C   0  0  0  0  0  0  0  0  0  0  0  0
   -4.0977    0.4077   -0.1849 N   0  0  0  0  0  0  0  0  0  0  0  0
   -2.7398    0.4648   -0.1108 N   0  0  0  0  0  0  0  0  0  0  0  0
   -2.3182   -0.6300   -0.7460 C   0  0  0  0  0  0  0  0  0  0  0  0
   -0.9391   -1.0780   -0.8664 C   0  0  0  0  0  0  0  0  0  0  0  0
    0.0187   -0.4715   -0.3860 O   0  0  0  0  0  0  0  0  0  0  0  0
   -0.8124   -2.2647   -1.6170 N   0  0  0  0  0  0  0  0  0  0  0  0
    0.5091   -2.8547   -1.8277 C   0  0  0  0  0  0  0  0  0  0  0  0
    1.1170   -2.4813   -3.1825 C   0  0  0  0  0  0  0  0  0  0  0  0
    1.5674   -1.0257   -3.2880 C   0  0  0  0  0  0  0  0  0  0  0  0
    2.7867   -0.7580   -2.4286 C   0  0  0  0  0  0  0  0  0  0  0  0
    3.8819   -1.2449   -2.6906 O   0  0  0  0  0  0  0  0  0  0  0  0
    2.5471    0.0538   -1.3456 N   0  0  0  0  0  0  0  0  0  0  0  0
    3.5735    0.3165   -0.3496 C   0  0  0  0  0  0  0  0  0  0  0  0
    3.6181   -0.7926    0.7211 C   0  0  0  0  0  0  0  0  0  0  0  0
    4.6150   -0.6834    1.7969 N   0  0  0  0  0  0  0  0  0  0  0  0
    4.4420    0.4967    2.6539 C   0  0  0  0  0  0  0  0  0  0  0  0
    5.1426    1.8134    2.2173 C   0  0  0  0  0  0  0  0  0  0  0  0
    6.2849    1.6350    1.3038 N   0  0  0  0  0  0  0  0  0  0  0  0
    7.2065    2.7614    1.3725 C   0  0  0  0  0  0  0  0  0  0  0  0
    6.9530    0.3573    1.5757 C   0  0  0  0  0  0  0  0  0  0  0  0
    6.0003   -0.8343    1.3102 C   0  0  0  0  0  0  0  0  0  0  0  0
   -1.8755   -2.9410   -2.2304 N   0  0  0  0  0  0  0  0  0  0  0  0
   -3.1028   -2.5152   -2.1188 C   0  0  0  0  0  0  0  0  0  0  0  0
   -4.1973   -3.2919   -2.7934 C   0  0  0  0  0  0  0  0  0  0  0  0
   -3.3690   -1.3207   -1.3579 C   0  0  0  0  0  0  0  0  0  0  0  0
   -4.5037   -0.5738   -1.0969 C   0  0  0  0  0  0  0  0  0  0  0  0
   -5.8693   -0.6813   -1.6681 C   0  0  0  0  0  0  0  0  0  0  0  0
   -6.2103    1.0290    0.9447 C   0  0  0  0  0  0  0  0  0  0  0  0
   -6.9206    1.8951    1.7850 C   0  0  0  0  0  0  0  0  0  0  0  0
   -7.7962    3.4074    3.8314 H   0  0  0  0  0  0  0  0  0  0  0  0
   -7.6129    4.6885    2.6052 H   0  0  0  0  0  0  0  0  0  0  0  0
   -6.4114    4.4953    3.9038 H   0  0  0  0  0  0  0  0  0  0  0  0
   -4.4590    4.1505    2.4452 H   0  0  0  0  0  0  0  0  0  0  0  0
   -3.2001    2.6284    1.0016 H   0  0  0  0  0  0  0  0  0  0  0  0
    0.3891   -3.9444   -1.7749 H   0  0  0  0  0  0  0  0  0  0  0  0
    1.1763   -2.5714   -1.0070 H   0  0  0  0  0  0  0  0  0  0  0  0
    1.9776   -3.1364   -3.3647 H   0  0  0  0  0  0  0  0  0  0  0  0
    0.3894   -2.6832   -3.9785 H   0  0  0  0  0  0  0  0  0  0  0  0
    0.7530   -0.3348   -3.0476 H   0  0  0  0  0  0  0  0  0  0  0  0
    1.8568   -0.8074   -4.3234 H   0  0  0  0  0  0  0  0  0  0  0  0
    1.5831    0.1333   -1.0194 H   0  0  0  0  0  0  0  0  0  0  0  0
    4.5380    0.4163   -0.8567 H   0  0  0  0  0  0  0  0  0  0  0  0
    3.3105    1.2764    0.1008 H   0  0  0  0  0  0  0  0  0  0  0  0
    3.7519   -1.7650    0.2266 H   0  0  0  0  0  0  0  0  0  0  0  0
    2.6236   -0.8641    1.1846 H   0  0  0  0  0  0  0  0  0  0  0  0
    3.3788    0.6927    2.8440 H   0  0  0  0  0  0  0  0  0  0  0  0
    4.8588    0.2220    3.6328 H   0  0  0  0  0  0  0  0  0  0  0  0
    5.4541    2.3336    3.1329 H   0  0  0  0  0  0  0  0  0  0  0  0
    4.4126    2.4628    1.7192 H   0  0  0  0  0  0  0  0  0  0  0  0
    7.6620    2.8669    2.3641 H   0  0  0  0  0  0  0  0  0  0  0  0
    8.0080    2.6459    0.6358 H   0  0  0  0  0  0  0  0  0  0  0  0
    6.6887    3.6947    1.1311 H   0  0  0  0  0  0  0  0  0  0  0  0
    7.3101    0.3213    2.6140 H   0  0  0  0  0  0  0  0  0  0  0  0
    7.8314    0.2378    0.9278 H   0  0  0  0  0  0  0  0  0  0  0  0
    6.4271   -1.7219    1.7928 H   0  0  0  0  0  0  0  0  0  0  0  0
    6.0159   -1.0528    0.2354 H   0  0  0  0  0  0  0  0  0  0  0  0
   -3.8184   -4.2559   -3.1439 H   0  0  0  0  0  0  0  0  0  0  0  0
   -4.5672   -2.7292   -3.6552 H   0  0  0  0  0  0  0  0  0  0  0  0
   -5.0170   -3.4743   -2.0931 H   0  0  0  0  0  0  0  0  0  0  0  0
   -6.4724   -1.3997   -1.1063 H   0  0  0  0  0  0  0  0  0  0  0  0
   -6.3826    0.2852   -1.6931 H   0  0  0  0  0  0  0  0  0  0  0  0
   -5.8270   -1.0181   -2.7090 H   0  0  0  0  0  0  0  0  0  0  0  0
   -6.7257    0.1400    0.5997 H   0  0  0  0  0  0  0  0  0  0  0  0
   -7.9620    1.6778    2.0170 H   0  0  0  0  0  0  0  0  0  0  0  0
  1  2  1  0
  2  3  2  0
  3  4  1  0
  4  5  2  0
  5  6  1  0
  6  7  1  0
  7  8  2  0
  8  9  1  0
  9 10  2  0
  9 11  1  0
 11 12  1  0
 12 13  1  0
 13 14  1  0
 14 15  1  0
 15 16  2  0
 15 17  1  0
 17 18  1  0
 18 19  1  0
 19 20  1  0
 20 21  1  0
 21 22  1  0
 22 23  1  0
 23 24  1  0
 23 25  1  0
 25 26  1  0
 11 27  1  0
 27 28  2  0
 28 29  1  0
 28 30  1  0
 30 31  2  0
 31 32  1  0
  5 33  1  0
 33 34  2  0
 34  2  1  0
 31  6  1  0
 30  8  1  0
 26 20  1  0
  1 35  1  0
  1 36  1  0
  1 37  1  0
  3 38  1  0
  4 39  1  0
 12 40  1  0
 12 41  1  0
 13 42  1  0
 13 43  1  0
 14 44  1  0
 14 45  1  0
 17 46  1  0
 18 47  1  0
 18 48  1  0
 19 49  1  0
 19 50  1  0
 21 51  1  0
 21 52  1  0
 22 53  1  0
 22 54  1  0
 24 55  1  0
 24 56  1  0
 24 57  1  0
 25 58  1  0
 25 59  1  0
 26 60  1  0
 26 61  1  0
 29 62  1  0
 29 63  1  0
 29 64  1  0
 32 65  1  0
 32 66  1  0
 32 67  1  0
 33 68  1  0
 34 69  1  0
M  END
$$$$
