
     RDKit          3D

 41 42  0  0  0  0  0  0  0  0999 V2000
   -7.6123   -1.8786    2.4692 C   0  0  0  0  0  0  0  0  0  0  0  0
   -7.2965   -1.2291    1.2444 O   0  0  0  0  0  0  0  0  0  0  0  0
   -6.0749   -0.6186    1.1680 C   0  0  0  0  0  0  0  0  0  0  0  0
   -5.7779   -0.0597   -0.0765 C   0  0  0  0  0  0  0  0  0  0  0  0
   -4.5628    0.5943   -0.2952 C   0  0  0  0  0  0  0  0  0  0  0  0
   -3.6251    0.7063    0.7378 C   0  0  0  0  0  0  0  0  0  0  0  0
   -2.3104    1.4142    0.5111 C   0  0  0  0  0  0  0  0  0  0  0  0
   -1.1210    0.4956    0.3211 C   0  0  0  0  0  0  0  0  0  0  0  0
   -1.1236   -0.7201    0.4664 O   0  0  0  0  0  0  0  0  0  0  0  0
   -0.0375    1.2846   -0.0108 O   0  0  0  0  0  0  0  0  0  0  0  0
    1.0943    0.4784   -0.2341 N   0  0  0  0  0  0  0  0  0  0  0  0
    2.1371    1.1891   -0.5467 C   0  0  0  0  0  0  0  0  0  0  0  0
    2.1213    2.5653   -0.6167 N   0  0  0  0  0  0  0  0  0  0  0  0
    3.4202    0.4647   -0.8258 C   0  0  0  0  0  0  0  0  0  0  0  0
    4.4492    1.0829   -1.5464 C   0  0  0  0  0  0  0  0  0  0  0  0
    5.6477    0.4017   -1.7967 C   0  0  0  0  0  0  0  0  0  0  0  0
    5.8251   -0.9021   -1.3317 C   0  0  0  0  0  0  0  0  0  0  0  0
    6.9408   -1.6732   -1.5051 O   0  0  0  0  0  0  0  0  0  0  0  0
    8.0062   -1.1066   -2.2570 C   0  0  0  0  0  0  0  0  0  0  0  0
    4.7935   -1.5199   -0.6205 C   0  0  0  0  0  0  0  0  0  0  0  0
    3.5950   -0.8458   -0.3704 C   0  0  0  0  0  0  0  0  0  0  0  0
   -3.9247    0.1414    1.9847 C   0  0  0  0  0  0  0  0  0  0  0  0
   -5.1418   -0.5160    2.1988 C   0  0  0  0  0  0  0  0  0  0  0  0
   -6.8953   -2.6761    2.6911 H   0  0  0  0  0  0  0  0  0  0  0  0
   -8.5985   -2.3396    2.3583 H   0  0  0  0  0  0  0  0  0  0  0  0
   -7.6722   -1.1592    3.2925 H   0  0  0  0  0  0  0  0  0  0  0  0
   -6.4983   -0.1411   -0.8868 H   0  0  0  0  0  0  0  0  0  0  0  0
   -4.3594    1.0093   -1.2795 H   0  0  0  0  0  0  0  0  0  0  0  0
   -2.3939    2.0540   -0.3761 H   0  0  0  0  0  0  0  0  0  0  0  0
   -2.1084    2.0671    1.3690 H   0  0  0  0  0  0  0  0  0  0  0  0
    2.9670    3.0215   -0.2922 H   0  0  0  0  0  0  0  0  0  0  0  0
    1.2933    2.9575   -0.1826 H   0  0  0  0  0  0  0  0  0  0  0  0
    4.3247    2.0864   -1.9435 H   0  0  0  0  0  0  0  0  0  0  0  0
    6.4172    0.9153   -2.3634 H   0  0  0  0  0  0  0  0  0  0  0  0
    8.8075   -1.8496   -2.3137 H   0  0  0  0  0  0  0  0  0  0  0  0
    7.6902   -0.8788   -3.2804 H   0  0  0  0  0  0  0  0  0  0  0  0
    8.4103   -0.2183   -1.7604 H   0  0  0  0  0  0  0  0  0  0  0  0
    4.9202   -2.5385   -0.2608 H   0  0  0  0  0  0  0  0  0  0  0  0
    2.8044   -1.3511    0.1806 H   0  0  0  0  0  0  0  0  0  0  0  0
   -3.2058    0.1966    2.7997 H   0  0  0  0  0  0  0  0  0  0  0  0
   -5.3244   -0.9399    3.1803 H   0  0  0  0  0  0  0  0  0  0  0  0
  1  2  1  0
  2  3  1  0
  3  4  2  0
  4  5  1  0
  5  6  2  0
  6  7  1  0
  7  8  1  0
  8  9  2  0
  8 10  1  0
 10 11  1  0
 11 12  2  3
 12 13  1  0
 12 14  1  0
 14 15  2  0
 15 16  1  0
 16 17  2  0
 17 18  1  0
 18 19  1  0
 17 20  1  0
 20 21  2  0
  6 22  1  0
 22 23  2  0
 23  3  1  0
 21 14  1  0
  1 24  1  0
  1 25  1  0
  1 26  1  0
  4 27  1  0
  5 28  1  0
  7 29  1  0
  7 30  1  0
 13 31  1  0
 13 32  1  0
 15 33  1  0
 16 34  1  0
 19 35  1  0
 19 36  1  0
 19 37  1  0
 20 38  1  0
 21 39  1  0
 22 40  1  0
 23 41  1  0
M  END
$$$$
