
     RDKit          3D

 53 55  0  0  0  0  0  0  0  0999 V2000
    7.0830   -2.3944    2.9020 C   0  0  0  0  0  0  0  0  0  0  0  0
    7.1566   -1.2580    2.0498 O   0  0  0  0  0  0  0  0  0  0  0  0
    6.0806   -1.0192    1.2396 C   0  0  0  0  0  0  0  0  0  0  0  0
    6.2208    0.0839    0.3980 C   0  0  0  0  0  0  0  0  0  0  0  0
    5.1979    0.4430   -0.4822 C   0  0  0  0  0  0  0  0  0  0  0  0
    4.0095   -0.2987   -0.5340 C   0  0  0  0  0  0  0  0  0  0  0  0
    2.9679    0.0485   -1.4115 C   0  0  0  0  0  0  0  0  0  0  0  0
    1.7767   -0.6936   -1.4570 C   0  0  0  0  0  0  0  0  0  0  0  0
    0.6612   -0.2866   -2.4093 C   0  0  0  0  0  0  0  0  0  0  0  0
    0.5703   -1.2728   -3.5760 C   0  0  0  0  0  0  0  0  0  0  0  0
   -0.6977   -0.1177   -1.7045 C   0  0  0  0  0  0  0  0  0  0  0  0
   -1.7197   -0.6456   -2.1348 O   0  0  0  0  0  0  0  0  0  0  0  0
   -0.6350    0.7346   -0.6098 N   0  0  0  0  0  0  0  0  0  0  0  0
   -1.6798    1.0817    0.2695 C   0  0  0  0  0  0  0  0  0  0  0  0
   -1.4046    2.0621    1.2337 C   0  0  0  0  0  0  0  0  0  0  0  0
   -2.3868    2.4753    2.1389 C   0  0  0  0  0  0  0  0  0  0  0  0
   -3.6583    1.9110    2.0902 C   0  0  0  0  0  0  0  0  0  0  0  0
   -3.9356    0.9336    1.1312 C   0  0  0  0  0  0  0  0  0  0  0  0
   -5.5451    0.1699    1.0875 S   0  0  0  0  0  6  0  0  0  0  0  0
   -6.2404    0.5632    2.2966 O   0  0  0  0  0  0  0  0  0  0  0  0
   -5.3550   -1.2279    0.7648 O   0  0  0  0  0  0  0  0  0  0  0  0
   -6.3096    0.9380   -0.2250 N   0  0  0  0  0  0  0  0  0  0  0  0
   -6.6219    2.3678   -0.0636 C   0  0  0  0  0  0  0  0  0  0  0  0
   -5.8326    0.5960   -1.5773 C   0  0  0  0  0  0  0  0  0  0  0  0
   -2.9477    0.5017    0.2375 C   0  0  0  0  0  0  0  0  0  0  0  0
    1.6437   -1.8070   -0.6182 C   0  0  0  0  0  0  0  0  0  0  0  0
    2.6715   -2.1615    0.2585 C   0  0  0  0  0  0  0  0  0  0  0  0
    3.8598   -1.4175    0.3149 C   0  0  0  0  0  0  0  0  0  0  0  0
    4.9016   -1.7658    1.1957 C   0  0  0  0  0  0  0  0  0  0  0  0
    6.9881   -3.3180    2.3210 H   0  0  0  0  0  0  0  0  0  0  0  0
    8.0194   -2.4505    3.4660 H   0  0  0  0  0  0  0  0  0  0  0  0
    6.2653   -2.2940    3.6235 H   0  0  0  0  0  0  0  0  0  0  0  0
    7.1372    0.6688    0.4261 H   0  0  0  0  0  0  0  0  0  0  0  0
    5.3419    1.3068   -1.1268 H   0  0  0  0  0  0  0  0  0  0  0  0
    3.0928    0.9060   -2.0709 H   0  0  0  0  0  0  0  0  0  0  0  0
    0.8943    0.7004   -2.8333 H   0  0  0  0  0  0  0  0  0  0  0  0
   -0.1789   -0.9449   -4.3054 H   0  0  0  0  0  0  0  0  0  0  0  0
    0.2817   -2.2748   -3.2377 H   0  0  0  0  0  0  0  0  0  0  0  0
    1.5308   -1.3575   -4.0967 H   0  0  0  0  0  0  0  0  0  0  0  0
    0.2684    1.1509   -0.4137 H   0  0  0  0  0  0  0  0  0  0  0  0
   -0.4207    2.5219    1.2932 H   0  0  0  0  0  0  0  0  0  0  0  0
   -2.1559    3.2330    2.8836 H   0  0  0  0  0  0  0  0  0  0  0  0
   -4.4176    2.2265    2.8028 H   0  0  0  0  0  0  0  0  0  0  0  0
   -5.7201    2.9799   -0.1546 H   0  0  0  0  0  0  0  0  0  0  0  0
   -7.3315    2.6797   -0.8369 H   0  0  0  0  0  0  0  0  0  0  0  0
   -7.0992    2.5617    0.9008 H   0  0  0  0  0  0  0  0  0  0  0  0
   -6.6069    0.8485   -2.3097 H   0  0  0  0  0  0  0  0  0  0  0  0
   -5.6431   -0.4763   -1.6756 H   0  0  0  0  0  0  0  0  0  0  0  0
   -4.9262    1.1530   -1.8298 H   0  0  0  0  0  0  0  0  0  0  0  0
   -3.1889   -0.2955   -0.4586 H   0  0  0  0  0  0  0  0  0  0  0  0
    0.7367   -2.4105   -0.6355 H   0  0  0  0  0  0  0  0  0  0  0  0
    2.5345   -3.0308    0.8986 H   0  0  0  0  0  0  0  0  0  0  0  0
    4.7669   -2.6282    1.8409 H   0  0  0  0  0  0  0  0  0  0  0  0
  1  2  1  0
  2  3  1  0
  3  4  2  0
  4  5  1  0
  5  6  2  0
  6  7  1  0
  7  8  2  0
  8  9  1  0
  9 10  1  0
  9 11  1  0
 11 12  2  0
 11 13  1  0
 13 14  1  0
 14 15  2  0
 15 16  1  0
 16 17  2  0
 17 18  1  0
 18 19  1  0
 19 20  2  0
 19 21  2  0
 19 22  1  0
 22 23  1  0
 22 24  1  0
 18 25  2  0
  8 26  1  0
 26 27  2  0
 27 28  1  0
 28 29  2  0
 29  3  1  0
 28  6  1  0
 25 14  1  0
  1 30  1  0
  1 31  1  0
  1 32  1  0
  4 33  1  0
  5 34  1  0
  7 35  1  0
  9 36  1  0
 10 37  1  0
 10 38  1  0
 10 39  1  0
 13 40  1  0
 15 41  1  0
 16 42  1  0
 17 43  1  0
 23 44  1  0
 23 45  1  0
 23 46  1  0
 24 47  1  0
 24 48  1  0
 24 49  1  0
 25 50  1  0
 26 51  1  0
 27 52  1  0
 29 53  1  0
M  END
$$$$
