
     RDKit          3D

 55 56  0  0  0  0  0  0  0  0999 V2000
   -5.4909    3.1184    2.6879 C   0  0  0  0  0  0  0  0  0  0  0  0
   -5.2754    1.9985    1.6656 C   0  0  0  0  0  0  0  0  0  0  0  0
   -4.0575    2.2064    0.8976 N   0  0  0  0  0  0  0  0  0  0  0  0
   -2.8136    1.9461    1.4262 C   0  0  0  0  0  0  0  0  0  0  0  0
   -2.6311    1.6296    2.5973 O   0  0  0  0  0  0  0  0  0  0  0  0
   -1.6792    2.1705    0.4446 C   0  0  0  0  0  0  0  0  0  0  0  0
   -0.4985    1.2396    0.6962 C   0  0  0  0  0  0  0  0  0  0  0  0
   -0.8493   -0.4362    0.0530 S   0  0  0  0  0  0  0  0  0  0  0  0
    0.5931   -1.3295    0.7332 C   0  0  0  0  0  0  0  0  0  0  0  0
    1.8619   -1.0304   -0.0551 C   0  0  0  0  0  0  0  0  0  0  0  0
    3.0430   -1.7966    0.5043 C   0  0  0  0  0  0  0  0  0  0  0  0
    2.9940   -2.4654    1.5303 O   0  0  0  0  0  0  0  0  0  0  0  0
    4.1861   -1.6437   -0.2479 N   0  0  0  0  0  0  0  0  0  0  0  0
    5.4440   -2.2742    0.1187 C   0  0  0  0  0  0  0  0  0  0  0  0
    6.1330   -1.5167    1.2608 C   0  0  0  0  0  0  0  0  0  0  0  0
    6.3227   -2.4036   -1.1141 C   0  0  0  0  0  0  0  0  0  0  0  0
    6.9679   -1.2948   -1.6875 C   0  0  0  0  0  0  0  0  0  0  0  0
    7.7518   -1.4401   -2.8347 C   0  0  0  0  0  0  0  0  0  0  0  0
    7.8977   -2.6930   -3.4272 C   0  0  0  0  0  0  0  0  0  0  0  0
    7.2565   -3.8012   -2.8763 C   0  0  0  0  0  0  0  0  0  0  0  0
    6.4712   -3.6577   -1.7302 C   0  0  0  0  0  0  0  0  0  0  0  0
   -6.4488    1.8405    0.7120 C   0  0  0  0  0  0  0  0  0  0  0  0
   -6.9510    0.5547    0.4369 C   0  0  0  0  0  0  0  0  0  0  0  0
   -8.0137    0.3762   -0.4526 C   0  0  0  0  0  0  0  0  0  0  0  0
   -8.5834    1.4789   -1.0874 C   0  0  0  0  0  0  0  0  0  0  0  0
   -8.0859    2.7592   -0.8391 C   0  0  0  0  0  0  0  0  0  0  0  0
   -7.0225    2.9392    0.0500 C   0  0  0  0  0  0  0  0  0  0  0  0
   -6.4456    2.9949    3.2118 H   0  0  0  0  0  0  0  0  0  0  0  0
   -4.6940    3.1191    3.4407 H   0  0  0  0  0  0  0  0  0  0  0  0
   -5.4843    4.1089    2.2191 H   0  0  0  0  0  0  0  0  0  0  0  0
   -5.1521    1.0661    2.2334 H   0  0  0  0  0  0  0  0  0  0  0  0
   -4.1522    2.2785   -0.1068 H   0  0  0  0  0  0  0  0  0  0  0  0
   -2.0302    2.0937   -0.5923 H   0  0  0  0  0  0  0  0  0  0  0  0
   -1.3513    3.2080    0.5947 H   0  0  0  0  0  0  0  0  0  0  0  0
    0.3767    1.6271    0.1663 H   0  0  0  0  0  0  0  0  0  0  0  0
   -0.2571    1.1784    1.7620 H   0  0  0  0  0  0  0  0  0  0  0  0
    0.7071   -1.0823    1.7952 H   0  0  0  0  0  0  0  0  0  0  0  0
    0.3666   -2.4009    0.6795 H   0  0  0  0  0  0  0  0  0  0  0  0
    2.1113    0.0367   -0.0093 H   0  0  0  0  0  0  0  0  0  0  0  0
    1.7337   -1.3162   -1.1071 H   0  0  0  0  0  0  0  0  0  0  0  0
    4.1574   -1.1003   -1.1015 H   0  0  0  0  0  0  0  0  0  0  0  0
    5.2106   -3.2797    0.4977 H   0  0  0  0  0  0  0  0  0  0  0  0
    6.3096   -0.4655    1.0059 H   0  0  0  0  0  0  0  0  0  0  0  0
    5.5153   -1.5269    2.1667 H   0  0  0  0  0  0  0  0  0  0  0  0
    7.0976   -1.9736    1.5078 H   0  0  0  0  0  0  0  0  0  0  0  0
    6.8662   -0.3056   -1.2467 H   0  0  0  0  0  0  0  0  0  0  0  0
    8.2498   -0.5749   -3.2663 H   0  0  0  0  0  0  0  0  0  0  0  0
    8.5074   -2.8062   -4.3201 H   0  0  0  0  0  0  0  0  0  0  0  0
    7.3659   -4.7790   -3.3401 H   0  0  0  0  0  0  0  0  0  0  0  0
    5.9726   -4.5341   -1.3210 H   0  0  0  0  0  0  0  0  0  0  0  0
   -6.5155   -0.3209    0.9171 H   0  0  0  0  0  0  0  0  0  0  0  0
   -8.4009   -0.6240   -0.6432 H   0  0  0  0  0  0  0  0  0  0  0  0
   -9.4136    1.3399   -1.7760 H   0  0  0  0  0  0  0  0  0  0  0  0
   -8.5255    3.6185   -1.3384 H   0  0  0  0  0  0  0  0  0  0  0  0
   -6.6475    3.9454    0.2186 H   0  0  0  0  0  0  0  0  0  0  0  0
  1  2  1  0
  2  3  1  0
  3  4  1  0
  4  5  2  0
  4  6  1  0
  6  7  1  0
  7  8  1  0
  8  9  1  0
  9 10  1  0
 10 11  1  0
 11 12  2  0
 11 13  1  0
 13 14  1  0
 14 15  1  0
 14 16  1  0
 16 17  2  0
 17 18  1  0
 18 19  2  0
 19 20  1  0
 20 21  2  0
  2 22  1  0
 22 23  2  0
 23 24  1  0
 24 25  2  0
 25 26  1  0
 26 27  2  0
 21 16  1  0
 27 22  1  0
  1 28  1  0
  1 29  1  0
  1 30  1  0
  2 31  1  0
  3 32  1  0
  6 33  1  0
  6 34  1  0
  7 35  1  0
  7 36  1  0
  9 37  1  0
  9 38  1  0
 10 39  1  0
 10 40  1  0
 13 41  1  0
 14 42  1  0
 15 43  1  0
 15 44  1  0
 15 45  1  0
 17 46  1  0
 18 47  1  0
 19 48  1  0
 20 49  1  0
 21 50  1  0
 23 51  1  0
 24 52  1  0
 25 53  1  0
 26 54  1  0
 27 55  1  0
M  END
$$$$
