
     RDKit          3D

 48 50  0  0  0  0  0  0  0  0999 V2000
    6.9981   -2.0293   -0.9528 C   0  0  0  0  0  0  0  0  0  0  0  0
    7.4259   -0.5799   -0.7726 C   0  0  0  0  0  0  0  0  0  0  0  0
    6.6829    0.1048    0.3702 C   0  0  0  0  0  0  0  0  0  0  0  0
    5.2844    0.1479    0.0590 O   0  0  0  0  0  0  0  0  0  0  0  0
    4.5101    0.6739    1.0406 C   0  0  0  0  0  0  0  0  0  0  0  0
    4.9089    1.0979    2.1132 O   0  0  0  0  0  0  0  0  0  0  0  0
    3.0773    0.6631    0.6382 C   0  0  0  0  0  0  0  0  0  0  0  0
    2.6486    0.1928   -0.6078 C   0  0  0  0  0  0  0  0  0  0  0  0
    1.2874    0.2051   -0.9326 C   0  0  0  0  0  0  0  0  0  0  0  0
    0.3358    0.6843   -0.0229 C   0  0  0  0  0  0  0  0  0  0  0  0
   -1.0116    0.6511   -0.4326 N   0  0  0  0  0  0  0  0  0  0  0  0
   -2.1221    1.1056    0.2634 C   0  0  0  0  0  0  0  0  0  0  0  0
   -2.1113    1.6876    1.3412 O   0  0  0  0  0  0  0  0  0  0  0  0
   -3.4145    0.8560   -0.5063 C   0  0  0  0  0  0  0  0  0  0  0  0
   -4.7244    1.2911    0.1886 C   0  0  0  0  0  0  0  0  0  0  0  0
   -4.9665    0.5394    1.5141 C   0  0  0  0  0  0  0  0  0  0  0  0
   -5.3102   -0.8852    1.0607 C   0  0  0  0  0  0  0  0  0  0  0  0
   -5.1822   -0.7923   -0.4682 C   0  0  0  0  0  0  0  0  0  0  0  0
   -5.7455    0.6085   -0.7260 C   0  0  0  0  0  0  0  0  0  0  0  0
   -3.6783   -0.6400   -0.8092 C   0  0  0  0  0  0  0  0  0  0  0  0
   -3.3012   -0.9374   -2.2382 C   0  0  0  0  0  0  0  0  0  0  0  0
   -2.2635   -0.5536   -2.7622 O   0  0  0  0  0  0  0  0  0  0  0  0
   -4.1595   -1.7199   -2.9041 O   0  0  0  0  0  0  0  0  0  0  0  0
    0.7660    1.1505    1.2196 C   0  0  0  0  0  0  0  0  0  0  0  0
    2.1278    1.1423    1.5481 C   0  0  0  0  0  0  0  0  0  0  0  0
    7.1628   -2.6034   -0.0354 H   0  0  0  0  0  0  0  0  0  0  0  0
    5.9389   -2.1015   -1.2187 H   0  0  0  0  0  0  0  0  0  0  0  0
    7.5782   -2.4981   -1.7537 H   0  0  0  0  0  0  0  0  0  0  0  0
    7.2357   -0.0431   -1.7091 H   0  0  0  0  0  0  0  0  0  0  0  0
    8.5037   -0.5426   -0.5786 H   0  0  0  0  0  0  0  0  0  0  0  0
    7.0566    1.1286    0.4834 H   0  0  0  0  0  0  0  0  0  0  0  0
    6.8424   -0.4454    1.3048 H   0  0  0  0  0  0  0  0  0  0  0  0
    3.3592   -0.1868   -1.3379 H   0  0  0  0  0  0  0  0  0  0  0  0
    0.9826   -0.1651   -1.9087 H   0  0  0  0  0  0  0  0  0  0  0  0
   -1.1746    0.2960   -1.3745 H   0  0  0  0  0  0  0  0  0  0  0  0
   -3.3263    1.4395   -1.4354 H   0  0  0  0  0  0  0  0  0  0  0  0
   -4.8309    2.3744    0.2790 H   0  0  0  0  0  0  0  0  0  0  0  0
   -4.1115    0.5509    2.1935 H   0  0  0  0  0  0  0  0  0  0  0  0
   -5.8195    0.9728    2.0494 H   0  0  0  0  0  0  0  0  0  0  0  0
   -4.6411   -1.6320    1.4993 H   0  0  0  0  0  0  0  0  0  0  0  0
   -6.3364   -1.1364    1.3515 H   0  0  0  0  0  0  0  0  0  0  0  0
   -5.7035   -1.5994   -0.9870 H   0  0  0  0  0  0  0  0  0  0  0  0
   -6.7794    0.7278   -0.3837 H   0  0  0  0  0  0  0  0  0  0  0  0
   -5.6710    0.9180   -1.7734 H   0  0  0  0  0  0  0  0  0  0  0  0
   -3.0747   -1.3129   -0.1875 H   0  0  0  0  0  0  0  0  0  0  0  0
   -3.7615   -1.8481   -3.7908 H   0  0  0  0  0  0  0  0  0  0  0  0
    0.0691    1.5293    1.9612 H   0  0  0  0  0  0  0  0  0  0  0  0
    2.4390    1.5130    2.5233 H   0  0  0  0  0  0  0  0  0  0  0  0
  1  2  1  0
  2  3  1  0
  3  4  1  0
  4  5  1  0
  5  6  2  0
  5  7  1  0
  7  8  2  0
  8  9  1  0
  9 10  2  0
 10 11  1  0
 11 12  1  0
 12 13  2  0
 12 14  1  0
 14 15  1  0
 15 16  1  0
 16 17  1  0
 17 18  1  0
 18 19  1  0
 18 20  1  0
 20 21  1  0
 21 22  2  0
 21 23  1  0
 10 24  1  0
 24 25  2  0
 25  7  1  0
 20 14  1  0
 19 15  1  0
  1 26  1  0
  1 27  1  0
  1 28  1  0
  2 29  1  0
  2 30  1  0
  3 31  1  0
  3 32  1  0
  8 33  1  0
  9 34  1  0
 11 35  1  0
 14 36  1  0
 15 37  1  0
 16 38  1  0
 16 39  1  0
 17 40  1  0
 17 41  1  0
 18 42  1  0
 19 43  1  0
 19 44  1  0
 20 45  1  0
 23 46  1  0
 24 47  1  0
 25 48  1  0
M  END
$$$$
