
     RDKit          3D

 65 69  0  0  0  0  0  0  0  0999 V2000
   -5.0362    5.9773    1.7334 C   0  0  0  0  0  0  0  0  0  0  0  0
   -5.6396    4.7092    1.5094 O   0  0  0  0  0  0  0  0  0  0  0  0
   -4.8125    3.6856    1.1320 C   0  0  0  0  0  0  0  0  0  0  0  0
   -3.4388    3.7736    0.9510 C   0  0  0  0  0  0  0  0  0  0  0  0
   -2.7021    2.6474    0.5606 C   0  0  0  0  0  0  0  0  0  0  0  0
   -3.3385    1.3992    0.3405 C   0  0  0  0  0  0  0  0  0  0  0  0
   -2.8000    0.1187   -0.0598 C   0  0  0  0  0  0  0  0  0  0  0  0
   -1.4015   -0.1653   -0.3574 C   0  0  0  0  0  0  0  0  0  0  0  0
   -0.8234    0.3228   -1.5340 C   0  0  0  0  0  0  0  0  0  0  0  0
    0.5219    0.0646   -1.8210 C   0  0  0  0  0  0  0  0  0  0  0  0
    1.2977   -0.6792   -0.9310 C   0  0  0  0  0  0  0  0  0  0  0  0
    2.6164   -1.0024   -1.0895 O   0  0  0  0  0  0  0  0  0  0  0  0
    3.3034   -0.4195   -2.1981 C   0  0  0  0  0  0  0  0  0  0  0  0
    4.7915   -0.8231   -2.1622 C   0  0  0  0  0  0  0  0  0  0  0  0
    5.6795   -0.1676   -1.1823 N   0  0  0  0  0  0  0  0  0  0  0  0
    5.8268    1.2729   -1.4130 C   0  0  0  0  0  0  0  0  0  0  0  0
    6.9084    1.8576   -0.5016 C   0  0  0  0  0  0  0  0  0  0  0  0
    6.6199    1.5595    0.9662 C   0  0  0  0  0  0  0  0  0  0  0  0
    6.3699    0.0688    1.1709 C   0  0  0  0  0  0  0  0  0  0  0  0
    5.3010   -0.4514    0.2073 C   0  0  0  0  0  0  0  0  0  0  0  0
    0.7162   -1.1672    0.2422 C   0  0  0  0  0  0  0  0  0  0  0  0
   -0.6251   -0.9101    0.5334 C   0  0  0  0  0  0  0  0  0  0  0  0
   -3.7761   -0.8594   -0.1502 C   0  0  0  0  0  0  0  0  0  0  0  0
   -3.6627   -2.2719   -0.5365 C   0  0  0  0  0  0  0  0  0  0  0  0
   -3.6947   -2.5999   -1.9020 C   0  0  0  0  0  0  0  0  0  0  0  0
   -3.5802   -3.9258   -2.3151 C   0  0  0  0  0  0  0  0  0  0  0  0
   -3.4304   -4.9340   -1.3675 C   0  0  0  0  0  0  0  0  0  0  0  0
   -3.3928   -4.6211   -0.0052 C   0  0  0  0  0  0  0  0  0  0  0  0
   -3.5066   -3.2931    0.4235 C   0  0  0  0  0  0  0  0  0  0  0  0
   -3.4642   -2.8960    1.7369 O   0  0  0  0  0  0  0  0  0  0  0  0
   -3.3674   -3.9090    2.7276 C   0  0  0  0  0  0  0  0  0  0  0  0
   -5.3249   -0.2450    0.2311 S   0  0  0  0  0  0  0  0  0  0  0  0
   -4.7192    1.3346    0.5328 C   0  0  0  0  0  0  0  0  0  0  0  0
   -5.4631    2.4654    0.9253 C   0  0  0  0  0  0  0  0  0  0  0  0
   -4.5730    6.3612    0.8184 H   0  0  0  0  0  0  0  0  0  0  0  0
   -4.3131    5.9311    2.5546 H   0  0  0  0  0  0  0  0  0  0  0  0
   -5.8259    6.6765    2.0246 H   0  0  0  0  0  0  0  0  0  0  0  0
   -2.8978    4.7012    1.1058 H   0  0  0  0  0  0  0  0  0  0  0  0
   -1.6256    2.7337    0.4299 H   0  0  0  0  0  0  0  0  0  0  0  0
   -1.4183    0.9017   -2.2368 H   0  0  0  0  0  0  0  0  0  0  0  0
    0.9276    0.4531   -2.7485 H   0  0  0  0  0  0  0  0  0  0  0  0
    2.8728   -0.8143   -3.1269 H   0  0  0  0  0  0  0  0  0  0  0  0
    3.2001    0.6710   -2.1949 H   0  0  0  0  0  0  0  0  0  0  0  0
    5.2135   -0.6438   -3.1594 H   0  0  0  0  0  0  0  0  0  0  0  0
    4.8581   -1.9074   -2.0040 H   0  0  0  0  0  0  0  0  0  0  0  0
    4.8832    1.8040   -1.2390 H   0  0  0  0  0  0  0  0  0  0  0  0
    6.1209    1.4585   -2.4528 H   0  0  0  0  0  0  0  0  0  0  0  0
    6.9742    2.9410   -0.6524 H   0  0  0  0  0  0  0  0  0  0  0  0
    7.8848    1.4369   -0.7742 H   0  0  0  0  0  0  0  0  0  0  0  0
    5.7365    2.1255    1.2866 H   0  0  0  0  0  0  0  0  0  0  0  0
    7.4579    1.8899    1.5895 H   0  0  0  0  0  0  0  0  0  0  0  0
    6.0571   -0.1150    2.2052 H   0  0  0  0  0  0  0  0  0  0  0  0
    7.3057   -0.4836    1.0166 H   0  0  0  0  0  0  0  0  0  0  0  0
    5.2014   -1.5329    0.3580 H   0  0  0  0  0  0  0  0  0  0  0  0
    4.3395    0.0104    0.4618 H   0  0  0  0  0  0  0  0  0  0  0  0
    1.3131   -1.7519    0.9375 H   0  0  0  0  0  0  0  0  0  0  0  0
   -1.0582   -1.2956    1.4535 H   0  0  0  0  0  0  0  0  0  0  0  0
   -3.8093   -1.8167   -2.6481 H   0  0  0  0  0  0  0  0  0  0  0  0
   -3.6068   -4.1697   -3.3739 H   0  0  0  0  0  0  0  0  0  0  0  0
   -3.3392   -5.9690   -1.6880 H   0  0  0  0  0  0  0  0  0  0  0  0
   -3.2687   -5.4391    0.6963 H   0  0  0  0  0  0  0  0  0  0  0  0
   -3.3719   -3.4201    3.7065 H   0  0  0  0  0  0  0  0  0  0  0  0
   -2.4255   -4.4595    2.6371 H   0  0  0  0  0  0  0  0  0  0  0  0
   -4.2281   -4.5846    2.6891 H   0  0  0  0  0  0  0  0  0  0  0  0
   -6.5377    2.3911    1.0688 H   0  0  0  0  0  0  0  0  0  0  0  0
  1  2  1  0
  2  3  1  0
  3  4  2  0
  4  5  1  0
  5  6  2  0
  6  7  1  0
  7  8  1  0
  8  9  2  0
  9 10  1  0
 10 11  2  0
 11 12  1  0
 12 13  1  0
 13 14  1  0
 14 15  1  0
 15 16  1  0
 16 17  1  0
 17 18  1  0
 18 19  1  0
 19 20  1  0
 11 21  1  0
 21 22  2  0
  7 23  2  0
 23 24  1  0
 24 25  2  0
 25 26  1  0
 26 27  2  0
 27 28  1  0
 28 29  2  0
 29 30  1  0
 30 31  1  0
 23 32  1  0
 32 33  1  0
 33 34  2  0
 34  3  1  0
 33  6  1  0
 22  8  1  0
 29 24  1  0
 20 15  1  0
  1 35  1  0
  1 36  1  0
  1 37  1  0
  4 38  1  0
  5 39  1  0
  9 40  1  0
 10 41  1  0
 13 42  1  0
 13 43  1  0
 14 44  1  0
 14 45  1  0
 16 46  1  0
 16 47  1  0
 17 48  1  0
 17 49  1  0
 18 50  1  0
 18 51  1  0
 19 52  1  0
 19 53  1  0
 20 54  1  0
 20 55  1  0
 21 56  1  0
 22 57  1  0
 25 58  1  0
 26 59  1  0
 27 60  1  0
 28 61  1  0
 31 62  1  0
 31 63  1  0
 31 64  1  0
 34 65  1  0
M  END
$$$$
