
     RDKit          3D

 44 46  0  0  0  0  0  0  0  0999 V2000
    1.3346   -1.7737   -0.7069 C   0  0  0  0  0  0  0  0  0  0  0  0
    1.4235   -0.6074    0.2546 C   0  0  0  0  0  0  0  0  0  0  0  0
    2.5211   -0.2138    0.8239 N   0  0  0  0  0  0  0  0  0  0  0  0
    3.7765   -0.9394    0.6230 C   0  0  0  0  0  0  0  0  0  0  0  0
    4.6946   -0.2133   -0.3178 C   0  0  0  0  0  0  0  0  0  0  0  0
    5.0428   -0.7362   -1.5654 C   0  0  0  0  0  0  0  0  0  0  0  0
    5.8939   -0.0188   -2.4017 C   0  0  0  0  0  0  0  0  0  0  0  0
    6.3716    1.2039   -1.9608 C   0  0  0  0  0  0  0  0  0  0  0  0
    6.0597    1.7422   -0.7635 N   0  0  0  0  0  0  0  0  0  0  0  0
    5.2310    1.0237    0.0278 C   0  0  0  0  0  0  0  0  0  0  0  0
    0.1659    0.1558    0.5357 C   0  0  0  0  0  0  0  0  0  0  0  0
    0.2292    1.4845    0.6897 C   0  0  0  0  0  0  0  0  0  0  0  0
    1.3755    2.2350    0.6812 O   0  0  0  0  0  0  0  0  0  0  0  0
   -0.8825    2.2250    0.8901 N   0  0  0  0  0  0  0  0  0  0  0  0
   -2.1567    1.7326    0.9424 C   0  0  0  0  0  0  0  0  0  0  0  0
   -3.0700    2.5116    1.2120 O   0  0  0  0  0  0  0  0  0  0  0  0
   -2.2820    0.3582    0.7208 N   0  0  0  0  0  0  0  0  0  0  0  0
   -3.5989   -0.2178    0.7614 C   0  0  0  0  0  0  0  0  0  0  0  0
   -3.8559   -1.2779    1.6513 C   0  0  0  0  0  0  0  0  0  0  0  0
   -5.1284   -1.8413    1.7589 C   0  0  0  0  0  0  0  0  0  0  0  0
   -6.1682   -1.3562    0.9769 C   0  0  0  0  0  0  0  0  0  0  0  0
   -5.9310   -0.3211    0.0746 C   0  0  0  0  0  0  0  0  0  0  0  0
   -4.6493    0.2458   -0.0631 C   0  0  0  0  0  0  0  0  0  0  0  0
   -4.4778    1.3100   -1.1145 C   0  0  0  0  0  0  0  0  0  0  0  0
   -1.1731   -0.4900    0.6284 C   0  0  0  0  0  0  0  0  0  0  0  0
   -1.2230   -1.7214    0.6056 O   0  0  0  0  0  0  0  0  0  0  0  0
    2.1537   -1.7328   -1.4287 H   0  0  0  0  0  0  0  0  0  0  0  0
    1.3840   -2.7123   -0.1485 H   0  0  0  0  0  0  0  0  0  0  0  0
    0.4085   -1.7465   -1.2868 H   0  0  0  0  0  0  0  0  0  0  0  0
    3.6311   -1.9774    0.3042 H   0  0  0  0  0  0  0  0  0  0  0  0
    4.2780   -1.0204    1.5959 H   0  0  0  0  0  0  0  0  0  0  0  0
    4.6599   -1.6992   -1.8923 H   0  0  0  0  0  0  0  0  0  0  0  0
    6.1793   -0.4040   -3.3742 H   0  0  0  0  0  0  0  0  0  0  0  0
    7.0383    1.8004   -2.5769 H   0  0  0  0  0  0  0  0  0  0  0  0
    5.0007    1.4879    0.9837 H   0  0  0  0  0  0  0  0  0  0  0  0
    2.1356    1.6114    0.7191 H   0  0  0  0  0  0  0  0  0  0  0  0
   -0.7745    3.2206    1.0420 H   0  0  0  0  0  0  0  0  0  0  0  0
   -3.0707   -1.6628    2.2985 H   0  0  0  0  0  0  0  0  0  0  0  0
   -5.3054   -2.6516    2.4612 H   0  0  0  0  0  0  0  0  0  0  0  0
   -7.1629   -1.7856    1.0636 H   0  0  0  0  0  0  0  0  0  0  0  0
   -6.7550    0.0387   -0.5392 H   0  0  0  0  0  0  0  0  0  0  0  0
   -5.1086    1.0930   -1.9843 H   0  0  0  0  0  0  0  0  0  0  0  0
   -4.7651    2.2885   -0.7195 H   0  0  0  0  0  0  0  0  0  0  0  0
   -3.4501    1.3520   -1.4875 H   0  0  0  0  0  0  0  0  0  0  0  0
  1  2  1  0
  2  3  2  3
  3  4  1  0
  4  5  1  0
  5  6  2  0
  6  7  1  0
  7  8  2  0
  8  9  1  0
  9 10  2  0
  2 11  1  0
 11 12  2  0
 12 13  1  0
 12 14  1  0
 14 15  1  0
 15 16  2  0
 15 17  1  0
 17 18  1  0
 18 19  2  0
 19 20  1  0
 20 21  2  0
 21 22  1  0
 22 23  2  0
 23 24  1  0
 17 25  1  0
 25 26  2  0
 10  5  1  0
 25 11  1  0
 23 18  1  0
  1 27  1  0
  1 28  1  0
  1 29  1  0
  4 30  1  0
  4 31  1  0
  6 32  1  0
  7 33  1  0
  8 34  1  0
 10 35  1  0
 13 36  1  0
 14 37  1  0
 19 38  1  0
 20 39  1  0
 21 40  1  0
 22 41  1  0
 24 42  1  0
 24 43  1  0
 24 44  1  0
M  END
$$$$
