
     RDKit          3D

 57 60  0  0  0  0  0  0  0  0999 V2000
   -1.8446   -1.1049    0.2736 O   0  0  0  0  0  0  0  0  0  0  0  0
   -1.8689   -0.5217    1.3506 C   0  0  0  0  0  0  0  0  0  0  0  0
   -0.7089   -0.4993    2.3303 C   0  0  0  0  0  0  0  0  0  0  0  0
    0.5716   -1.1285    1.7801 C   0  0  0  0  0  0  0  0  0  0  0  0
    1.2678   -0.2272    0.7547 C   0  0  0  0  0  0  0  0  0  0  0  0
    2.5057   -0.8716    0.1246 C   0  0  0  0  0  0  0  0  0  0  0  0
    3.6512   -1.0883    1.1187 C   0  0  0  0  0  0  0  0  0  0  0  0
    4.8502   -1.5852    0.4511 N   0  0  0  0  0  0  0  0  0  0  0  0
    4.9902   -2.9565    0.3050 C   0  0  0  0  0  0  0  0  0  0  0  0
    4.1807   -3.7838    0.7218 O   0  0  0  0  0  0  0  0  0  0  0  0
    6.1073   -3.3947   -0.3474 N   0  0  0  0  0  0  0  0  0  0  0  0
    7.0790   -2.5517   -0.8770 C   0  0  0  0  0  0  0  0  0  0  0  0
    8.1903   -3.0886   -1.5271 C   0  0  0  0  0  0  0  0  0  0  0  0
    9.1585   -2.2336   -2.0593 C   0  0  0  0  0  0  0  0  0  0  0  0
    9.0147   -0.8497   -1.9426 C   0  0  0  0  0  0  0  0  0  0  0  0
    7.9009   -0.3163   -1.2925 C   0  0  0  0  0  0  0  0  0  0  0  0
    6.9337   -1.1744   -0.7594 C   0  0  0  0  0  0  0  0  0  0  0  0
    5.7415   -0.6468   -0.0682 C   0  0  0  0  0  0  0  0  0  0  0  0
    5.5871    0.5699    0.0145 O   0  0  0  0  0  0  0  0  0  0  0  0
   -2.9679    0.1723    1.8111 N   0  0  0  0  0  0  0  0  0  0  0  0
   -4.1790    0.2976    1.0195 C   0  0  0  0  0  0  0  0  0  0  0  0
   -4.0516    1.3545   -0.0807 C   0  0  0  0  0  0  0  0  0  0  0  0
   -5.3340    1.5497   -0.8255 C   0  0  0  0  0  0  0  0  0  0  0  0
   -5.7014    0.9155   -1.9963 C   0  0  0  0  0  0  0  0  0  0  0  0
   -6.9448    1.3588   -2.3550 N   0  0  0  0  0  0  0  0  0  0  0  0
   -7.4064    2.2743   -1.4386 C   0  0  0  0  0  0  0  0  0  0  0  0
   -8.6152    2.9796   -1.3990 C   0  0  0  0  0  0  0  0  0  0  0  0
   -8.8173    3.8600   -0.3323 C   0  0  0  0  0  0  0  0  0  0  0  0
   -7.8476    4.0268    0.6532 C   0  0  0  0  0  0  0  0  0  0  0  0
   -6.6444    3.3135    0.5981 C   0  0  0  0  0  0  0  0  0  0  0  0
   -6.4152    2.4180   -0.4671 C   0  0  0  0  0  0  0  0  0  0  0  0
   -1.0265   -1.0641    3.2153 H   0  0  0  0  0  0  0  0  0  0  0  0
   -0.5194    0.5345    2.6415 H   0  0  0  0  0  0  0  0  0  0  0  0
    1.2482   -1.3063    2.6236 H   0  0  0  0  0  0  0  0  0  0  0  0
    0.3531   -2.1050    1.3319 H   0  0  0  0  0  0  0  0  0  0  0  0
    1.5489    0.7219    1.2273 H   0  0  0  0  0  0  0  0  0  0  0  0
    0.5687    0.0205   -0.0525 H   0  0  0  0  0  0  0  0  0  0  0  0
    2.8527   -0.2220   -0.6890 H   0  0  0  0  0  0  0  0  0  0  0  0
    2.2301   -1.8252   -0.3425 H   0  0  0  0  0  0  0  0  0  0  0  0
    3.8860   -0.1454    1.6264 H   0  0  0  0  0  0  0  0  0  0  0  0
    3.3538   -1.8041    1.8926 H   0  0  0  0  0  0  0  0  0  0  0  0
    6.1891   -4.3991   -0.4372 H   0  0  0  0  0  0  0  0  0  0  0  0
    8.3157   -4.1632   -1.6274 H   0  0  0  0  0  0  0  0  0  0  0  0
   10.0272   -2.6464   -2.5675 H   0  0  0  0  0  0  0  0  0  0  0  0
    9.7693   -0.1861   -2.3590 H   0  0  0  0  0  0  0  0  0  0  0  0
    7.7883    0.7621   -1.2034 H   0  0  0  0  0  0  0  0  0  0  0  0
   -2.9018    0.6889    2.6782 H   0  0  0  0  0  0  0  0  0  0  0  0
   -4.4148   -0.6804    0.5834 H   0  0  0  0  0  0  0  0  0  0  0  0
   -4.9859    0.5548    1.7147 H   0  0  0  0  0  0  0  0  0  0  0  0
   -3.2586    1.0701   -0.7837 H   0  0  0  0  0  0  0  0  0  0  0  0
   -3.7342    2.3087    0.3587 H   0  0  0  0  0  0  0  0  0  0  0  0
   -5.1798    0.1853   -2.6017 H   0  0  0  0  0  0  0  0  0  0  0  0
   -7.4559    1.0598   -3.1737 H   0  0  0  0  0  0  0  0  0  0  0  0
   -9.3720    2.8526   -2.1660 H   0  0  0  0  0  0  0  0  0  0  0  0
   -9.7456    4.4234   -0.2732 H   0  0  0  0  0  0  0  0  0  0  0  0
   -8.0244    4.7184    1.4732 H   0  0  0  0  0  0  0  0  0  0  0  0
   -5.8953    3.4542    1.3709 H   0  0  0  0  0  0  0  0  0  0  0  0
  1  2  2  0
  2  3  1  0
  3  4  1  0
  4  5  1  0
  5  6  1  0
  6  7  1  0
  7  8  1  0
  8  9  1  0
  9 10  2  0
  9 11  1  0
 11 12  1  0
 12 13  2  0
 13 14  1  0
 14 15  2  0
 15 16  1  0
 16 17  2  0
 17 18  1  0
 18 19  2  0
  2 20  1  0
 20 21  1  0
 21 22  1  0
 22 23  1  0
 23 24  2  0
 24 25  1  0
 25 26  1  0
 26 27  2  0
 27 28  1  0
 28 29  2  0
 29 30  1  0
 30 31  2  0
 18  8  1  0
 31 23  1  0
 17 12  1  0
 31 26  1  0
  3 32  1  0
  3 33  1  0
  4 34  1  0
  4 35  1  0
  5 36  1  0
  5 37  1  0
  6 38  1  0
  6 39  1  0
  7 40  1  0
  7 41  1  0
 11 42  1  0
 13 43  1  0
 14 44  1  0
 15 45  1  0
 16 46  1  0
 20 47  1  0
 21 48  1  0
 21 49  1  0
 22 50  1  0
 22 51  1  0
 24 52  1  0
 25 53  1  0
 27 54  1  0
 28 55  1  0
 29 56  1  0
 30 57  1  0
M  END
$$$$
