
     RDKit          3D

 63 68  0  0  0  0  0  0  0  0999 V2000
   -1.5623    5.3405    1.9959 C   0  0  0  0  0  0  0  0  0  0  0  0
   -1.5605    4.5418    0.8200 O   0  0  0  0  0  0  0  0  0  0  0  0
   -1.4789    3.1878    0.9934 C   0  0  0  0  0  0  0  0  0  0  0  0
   -1.5276    2.4441   -0.1866 C   0  0  0  0  0  0  0  0  0  0  0  0
   -1.4500    1.0496   -0.1554 C   0  0  0  0  0  0  0  0  0  0  0  0
   -1.3252    0.3684    1.0662 C   0  0  0  0  0  0  0  0  0  0  0  0
   -1.2042   -1.1590    1.1269 C   0  0  0  0  0  0  0  0  0  0  0  0
   -2.3697   -1.8418    0.4344 C   0  0  0  0  0  0  0  0  0  0  0  0
   -3.6574   -1.7927    0.9817 C   0  0  0  0  0  0  0  0  0  0  0  0
   -4.7271   -2.3960    0.3203 C   0  0  0  0  0  0  0  0  0  0  0  0
   -4.5376   -3.0589   -0.9015 C   0  0  0  0  0  0  0  0  0  0  0  0
   -5.6189   -3.6613   -1.5662 C   0  0  0  0  0  0  0  0  0  0  0  0
   -5.4355   -4.3209   -2.7819 C   0  0  0  0  0  0  0  0  0  0  0  0
   -4.1685   -4.3873   -3.3493 C   0  0  0  0  0  0  0  0  0  0  0  0
   -3.0841   -3.7937   -2.7007 C   0  0  0  0  0  0  0  0  0  0  0  0
   -3.2434   -3.1197   -1.4703 C   0  0  0  0  0  0  0  0  0  0  0  0
   -2.1693   -2.5074   -0.7822 C   0  0  0  0  0  0  0  0  0  0  0  0
   -0.9197   -2.5774   -1.3646 O   0  0  0  0  0  0  0  0  0  0  0  0
    0.2121   -2.2488   -0.6229 C   0  0  0  0  0  0  0  0  0  0  0  0
    1.4077   -2.5820   -1.2312 N   0  0  0  0  0  0  0  0  0  0  0  0
    2.4864   -2.2436   -0.6030 C   0  0  0  0  0  0  0  0  0  0  0  0
    2.5534   -1.6404    0.6331 N   0  0  0  0  0  0  0  0  0  0  0  0
    3.8538   -1.1770    1.1176 C   0  0  0  0  0  0  0  0  0  0  0  0
    4.0306    0.3562    1.0112 C   0  0  0  0  0  0  0  0  0  0  0  0
    4.1274    0.8550   -0.3734 N   0  0  0  0  0  0  0  0  0  0  0  0
    2.8069    1.1945   -0.9644 C   0  0  0  0  0  0  0  0  0  0  0  0
    2.5066    2.7031   -1.0168 C   0  0  0  0  0  0  0  0  0  0  0  0
    3.4861    3.4507   -1.7500 O   0  0  0  0  0  0  0  0  0  0  0  0
    4.7879    2.8540   -1.7191 C   0  0  0  0  0  0  0  0  0  0  0  0
    5.0263    2.0307   -0.4460 C   0  0  0  0  0  0  0  0  0  0  0  0
    1.3757   -1.3689    1.3115 C   0  0  0  0  0  0  0  0  0  0  0  0
    1.2907   -0.9348    2.5320 N   0  0  0  0  0  0  0  0  0  0  0  0
    0.1069   -1.6175    0.5640 C   0  0  0  0  0  0  0  0  0  0  0  0
   -1.2740    1.1249    2.2467 C   0  0  0  0  0  0  0  0  0  0  0  0
   -1.3502    2.5223    2.2116 C   0  0  0  0  0  0  0  0  0  0  0  0
   -1.6650    6.3867    1.6896 H   0  0  0  0  0  0  0  0  0  0  0  0
   -2.4145    5.0975    2.6393 H   0  0  0  0  0  0  0  0  0  0  0  0
   -0.6157    5.2435    2.5375 H   0  0  0  0  0  0  0  0  0  0  0  0
   -1.6290    2.9547   -1.1414 H   0  0  0  0  0  0  0  0  0  0  0  0
   -1.4897    0.5022   -1.0949 H   0  0  0  0  0  0  0  0  0  0  0  0
   -1.2537   -1.4862    2.1753 H   0  0  0  0  0  0  0  0  0  0  0  0
   -3.8359   -1.2732    1.9211 H   0  0  0  0  0  0  0  0  0  0  0  0
   -5.7178   -2.3384    0.7667 H   0  0  0  0  0  0  0  0  0  0  0  0
   -6.6186   -3.6204   -1.1391 H   0  0  0  0  0  0  0  0  0  0  0  0
   -6.2821   -4.7817   -3.2838 H   0  0  0  0  0  0  0  0  0  0  0  0
   -4.0190   -4.9000   -4.2959 H   0  0  0  0  0  0  0  0  0  0  0  0
   -2.1008   -3.8607   -3.1636 H   0  0  0  0  0  0  0  0  0  0  0  0
    3.4666   -2.4488   -1.0649 H   0  0  0  0  0  0  0  0  0  0  0  0
    3.9877   -1.4844    2.1619 H   0  0  0  0  0  0  0  0  0  0  0  0
    4.6716   -1.6687    0.5742 H   0  0  0  0  0  0  0  0  0  0  0  0
    3.2520    0.8911    1.5687 H   0  0  0  0  0  0  0  0  0  0  0  0
    4.9739    0.5701    1.5326 H   0  0  0  0  0  0  0  0  0  0  0  0
    2.8169    0.8117   -1.9926 H   0  0  0  0  0  0  0  0  0  0  0  0
    1.9815    0.6934   -0.4545 H   0  0  0  0  0  0  0  0  0  0  0  0
    2.4460    3.1190   -0.0042 H   0  0  0  0  0  0  0  0  0  0  0  0
    1.5379    2.8761   -1.4964 H   0  0  0  0  0  0  0  0  0  0  0  0
    5.5206    3.6646   -1.7862 H   0  0  0  0  0  0  0  0  0  0  0  0
    4.9052    2.2347   -2.6162 H   0  0  0  0  0  0  0  0  0  0  0  0
    4.8679    2.6848    0.4219 H   0  0  0  0  0  0  0  0  0  0  0  0
    6.0654    1.6843   -0.4237 H   0  0  0  0  0  0  0  0  0  0  0  0
    2.2073   -0.8303    2.9614 H   0  0  0  0  0  0  0  0  0  0  0  0
   -1.1534    0.6267    3.2074 H   0  0  0  0  0  0  0  0  0  0  0  0
   -1.2997    3.0569    3.1542 H   0  0  0  0  0  0  0  0  0  0  0  0
  1  2  1  0
  2  3  1  0
  3  4  2  0
  4  5  1  0
  5  6  2  0
  6  7  1  0
  7  8  1  0
  8  9  2  0
  9 10  1  0
 10 11  2  0
 11 12  1  0
 12 13  2  0
 13 14  1  0
 14 15  2  0
 15 16  1  0
 16 17  2  0
 17 18  1  0
 18 19  1  0
 19 20  1  0
 20 21  2  0
 21 22  1  0
 22 23  1  0
 23 24  1  0
 24 25  1  0
 25 26  1  0
 26 27  1  0
 27 28  1  0
 28 29  1  0
 29 30  1  0
 22 31  1  0
 31 32  2  3
 31 33  1  0
  6 34  1  0
 34 35  2  0
 35  3  1  0
 33  7  1  0
 17  8  1  0
 33 19  2  0
 16 11  1  0
 30 25  1  0
  1 36  1  0
  1 37  1  0
  1 38  1  0
  4 39  1  0
  5 40  1  0
  7 41  1  0
  9 42  1  0
 10 43  1  0
 12 44  1  0
 13 45  1  0
 14 46  1  0
 15 47  1  0
 21 48  1  0
 23 49  1  0
 23 50  1  0
 24 51  1  0
 24 52  1  0
 26 53  1  0
 26 54  1  0
 27 55  1  0
 27 56  1  0
 29 57  1  0
 29 58  1  0
 30 59  1  0
 30 60  1  0
 32 61  1  0
 34 62  1  0
 35 63  1  0
M  END
$$$$
