
     RDKit          3D

 43 44  0  0  0  0  0  0  0  0999 V2000
   -4.5545    3.1000   -2.3181 C   0  0  0  0  0  0  0  0  0  0  0  0
   -4.8326    2.0311   -1.2793 C   0  0  0  0  0  0  0  0  0  0  0  0
   -3.6125    1.3295   -1.0227 O   0  0  0  0  0  0  0  0  0  0  0  0
   -3.7119    0.3323   -0.0925 C   0  0  0  0  0  0  0  0  0  0  0  0
   -4.7568    0.0382    0.4781 O   0  0  0  0  0  0  0  0  0  0  0  0
   -2.4340   -0.3531    0.1625 C   0  0  0  0  0  0  0  0  0  0  0  0
   -1.2839    0.1003   -0.3605 N   0  0  0  0  0  0  0  0  0  0  0  0
   -0.2919   -0.6148    0.2244 N   0  0  0  0  0  0  0  0  0  0  0  0
    1.0599   -0.1896    0.0321 C   0  0  0  0  0  0  0  0  0  0  0  0
    2.1086   -0.6158    0.8539 C   0  0  0  0  0  0  0  0  0  0  0  0
    3.4198   -0.1662    0.6318 C   0  0  0  0  0  0  0  0  0  0  0  0
    3.6980    0.7220   -0.4055 C   0  0  0  0  0  0  0  0  0  0  0  0
    4.9254    1.2309   -0.7253 O   0  0  0  0  0  0  0  0  0  0  0  0
    6.0326    0.8079    0.0680 C   0  0  0  0  0  0  0  0  0  0  0  0
    7.2803    1.4847   -0.4707 C   0  0  0  0  0  0  0  0  0  0  0  0
    2.6521    1.1681   -1.2121 C   0  0  0  0  0  0  0  0  0  0  0  0
    1.3436    0.7259   -0.9943 C   0  0  0  0  0  0  0  0  0  0  0  0
   -0.8158   -1.6857    0.9350 C   0  0  0  0  0  0  0  0  0  0  0  0
   -0.0293   -2.8192    1.4959 C   0  0  0  0  0  0  0  0  0  0  0  0
   -2.1979   -1.5092    0.9551 C   0  0  0  0  0  0  0  0  0  0  0  0
   -3.1340   -2.3843    1.6569 C   0  0  0  0  0  0  0  0  0  0  0  0
   -4.4347   -2.7736    1.0035 C   0  0  0  0  0  0  0  0  0  0  0  0
   -2.8465   -2.8487    2.7613 O   0  0  0  0  0  0  0  0  0  0  0  0
   -3.7859    3.7935   -1.9613 H   0  0  0  0  0  0  0  0  0  0  0  0
   -4.1739    2.6505   -3.2413 H   0  0  0  0  0  0  0  0  0  0  0  0
   -5.4616    3.6658   -2.5483 H   0  0  0  0  0  0  0  0  0  0  0  0
   -5.1927    2.4981   -0.3558 H   0  0  0  0  0  0  0  0  0  0  0  0
   -5.5874    1.3337   -1.6595 H   0  0  0  0  0  0  0  0  0  0  0  0
    1.9497   -1.2603    1.7100 H   0  0  0  0  0  0  0  0  0  0  0  0
    4.1977   -0.5222    1.2997 H   0  0  0  0  0  0  0  0  0  0  0  0
    6.1573   -0.2790   -0.0009 H   0  0  0  0  0  0  0  0  0  0  0  0
    5.8873    1.1053    1.1129 H   0  0  0  0  0  0  0  0  0  0  0  0
    7.1761    2.5740   -0.4298 H   0  0  0  0  0  0  0  0  0  0  0  0
    8.1623    1.1923    0.1059 H   0  0  0  0  0  0  0  0  0  0  0  0
    7.4401    1.2190   -1.5210 H   0  0  0  0  0  0  0  0  0  0  0  0
    2.8537    1.8694   -2.0185 H   0  0  0  0  0  0  0  0  0  0  0  0
    0.5571    1.1001   -1.6479 H   0  0  0  0  0  0  0  0  0  0  0  0
    0.3207   -2.5860    2.5058 H   0  0  0  0  0  0  0  0  0  0  0  0
    0.8218   -3.0773    0.8589 H   0  0  0  0  0  0  0  0  0  0  0  0
   -0.6409   -3.7256    1.5595 H   0  0  0  0  0  0  0  0  0  0  0  0
   -4.4202   -2.5702   -0.0701 H   0  0  0  0  0  0  0  0  0  0  0  0
   -4.5838   -3.8502    1.1319 H   0  0  0  0  0  0  0  0  0  0  0  0
   -5.2612   -2.2414    1.4797 H   0  0  0  0  0  0  0  0  0  0  0  0
  1  2  1  0
  2  3  1  0
  3  4  1  0
  4  5  2  0
  4  6  1  0
  6  7  2  0
  7  8  1  0
  8  9  1  0
  9 10  2  0
 10 11  1  0
 11 12  2  0
 12 13  1  0
 13 14  1  0
 14 15  1  0
 12 16  1  0
 16 17  2  0
  8 18  1  0
 18 19  1  0
 18 20  2  0
 20 21  1  0
 21 22  1  0
 21 23  2  0
 20  6  1  0
 17  9  1  0
  1 24  1  0
  1 25  1  0
  1 26  1  0
  2 27  1  0
  2 28  1  0
 10 29  1  0
 11 30  1  0
 14 31  1  0
 14 32  1  0
 15 33  1  0
 15 34  1  0
 15 35  1  0
 16 36  1  0
 17 37  1  0
 19 38  1  0
 19 39  1  0
 19 40  1  0
 22 41  1  0
 22 42  1  0
 22 43  1  0
M  END
$$$$
