
     RDKit          3D

 54 57  0  0  0  0  0  0  0  0999 V2000
    8.2555    1.5890   -1.0456 C   0  0  0  0  0  0  0  0  0  0  0  0
    6.8344    1.5883   -0.9844 O   0  0  0  0  0  0  0  0  0  0  0  0
    6.2459    0.5521   -0.3119 C   0  0  0  0  0  0  0  0  0  0  0  0
    6.9091   -0.4972    0.3194 C   0  0  0  0  0  0  0  0  0  0  0  0
    6.1755   -1.4892    0.9723 C   0  0  0  0  0  0  0  0  0  0  0  0
    4.7788   -1.4396    0.9968 C   0  0  0  0  0  0  0  0  0  0  0  0
    4.1009   -0.3978    0.3657 C   0  0  0  0  0  0  0  0  0  0  0  0
    2.6950   -0.2643    0.3436 N   0  0  0  0  0  0  0  0  0  0  0  0
    1.7607   -1.1456    0.8541 C   0  0  0  0  0  0  0  0  0  0  0  0
    1.9927   -2.2458    1.3453 O   0  0  0  0  0  0  0  0  0  0  0  0
    0.3400   -0.7036    0.7018 C   0  0  0  0  0  0  0  0  0  0  0  0
   -0.0178    0.5878    0.8087 C   0  0  0  0  0  0  0  0  0  0  0  0
   -1.3915    1.0440    0.6524 C   0  0  0  0  0  0  0  0  0  0  0  0
   -1.6887    2.5018    0.7445 C   0  0  0  0  0  0  0  0  0  0  0  0
   -0.7674    3.2995    0.9358 O   0  0  0  0  0  0  0  0  0  0  0  0
   -3.0138    2.8647    0.5930 N   0  0  0  0  0  0  0  0  0  0  0  0
   -3.3731    4.2058    0.6773 C   0  0  0  0  0  0  0  0  0  0  0  0
   -4.6419    4.6059    0.5278 C   0  0  0  0  0  0  0  0  0  0  0  0
   -5.6726    3.6360    0.2712 C   0  0  0  0  0  0  0  0  0  0  0  0
   -5.3708    2.3354    0.1807 C   0  0  0  0  0  0  0  0  0  0  0  0
   -3.9591    1.8869    0.3474 C   0  0  0  0  0  0  0  0  0  0  0  0
   -3.6967    0.6239    0.2534 N   0  0  0  0  0  0  0  0  0  0  0  0
   -2.4028    0.1799    0.4082 C   0  0  0  0  0  0  0  0  0  0  0  0
   -2.0992   -1.1995    0.3126 N   0  0  0  0  0  0  0  0  0  0  0  0
   -3.1780   -2.1767    0.0599 C   0  0  0  0  0  0  0  0  0  0  0  0
   -3.1982   -2.6489   -1.4081 C   0  0  0  0  0  0  0  0  0  0  0  0
   -4.1696   -3.8223   -1.5595 C   0  0  0  0  0  0  0  0  0  0  0  0
   -3.5898   -1.5294   -2.3746 C   0  0  0  0  0  0  0  0  0  0  0  0
   -0.7937   -1.6815    0.4993 C   0  0  0  0  0  0  0  0  0  0  0  0
   -0.5636   -2.9654    0.4990 N   0  0  0  0  0  0  0  0  0  0  0  0
    4.8470    0.5954   -0.2834 C   0  0  0  0  0  0  0  0  0  0  0  0
    8.6936    1.6654   -0.0450 H   0  0  0  0  0  0  0  0  0  0  0  0
    8.5649    2.4723   -1.6126 H   0  0  0  0  0  0  0  0  0  0  0  0
    8.6283    0.7060   -1.5752 H   0  0  0  0  0  0  0  0  0  0  0  0
    7.9909   -0.5748    0.3248 H   0  0  0  0  0  0  0  0  0  0  0  0
    6.6912   -2.3086    1.4676 H   0  0  0  0  0  0  0  0  0  0  0  0
    4.2542   -2.2314    1.5222 H   0  0  0  0  0  0  0  0  0  0  0  0
    2.3515    0.5452   -0.1569 H   0  0  0  0  0  0  0  0  0  0  0  0
    0.7160    1.3574    1.0345 H   0  0  0  0  0  0  0  0  0  0  0  0
   -2.5773    4.9209    0.8710 H   0  0  0  0  0  0  0  0  0  0  0  0
   -4.9135    5.6545    0.5957 H   0  0  0  0  0  0  0  0  0  0  0  0
   -6.6943    3.9829    0.1535 H   0  0  0  0  0  0  0  0  0  0  0  0
   -6.1161    1.5736   -0.0113 H   0  0  0  0  0  0  0  0  0  0  0  0
   -4.1603   -1.7698    0.3316 H   0  0  0  0  0  0  0  0  0  0  0  0
   -3.0487   -3.0385    0.7280 H   0  0  0  0  0  0  0  0  0  0  0  0
   -2.2008   -3.0039   -1.6943 H   0  0  0  0  0  0  0  0  0  0  0  0
   -5.1917   -3.5287   -1.2972 H   0  0  0  0  0  0  0  0  0  0  0  0
   -3.8779   -4.6549   -0.9106 H   0  0  0  0  0  0  0  0  0  0  0  0
   -4.1770   -4.1915   -2.5906 H   0  0  0  0  0  0  0  0  0  0  0  0
   -2.8508   -0.7224   -2.3678 H   0  0  0  0  0  0  0  0  0  0  0  0
   -3.6474   -1.9068   -3.4014 H   0  0  0  0  0  0  0  0  0  0  0  0
   -4.5659   -1.1045   -2.1177 H   0  0  0  0  0  0  0  0  0  0  0  0
    0.4330   -3.1559    0.7010 H   0  0  0  0  0  0  0  0  0  0  0  0
    4.3505    1.4240   -0.7822 H   0  0  0  0  0  0  0  0  0  0  0  0
  1  2  1  0
  2  3  1  0
  3  4  2  0
  4  5  1  0
  5  6  2  0
  6  7  1  0
  7  8  1  0
  8  9  1  0
  9 10  2  0
  9 11  1  0
 11 12  2  0
 12 13  1  0
 13 14  1  0
 14 15  2  0
 14 16  1  0
 16 17  1  0
 17 18  2  0
 18 19  1  0
 19 20  2  0
 20 21  1  0
 21 22  2  0
 22 23  1  0
 23 24  1  0
 24 25  1  0
 25 26  1  0
 26 27  1  0
 26 28  1  0
 24 29  1  0
 29 30  2  3
  7 31  2  0
 31  3  1  0
 29 11  1  0
 23 13  2  0
 21 16  1  0
  1 32  1  0
  1 33  1  0
  1 34  1  0
  4 35  1  0
  5 36  1  0
  6 37  1  0
  8 38  1  0
 12 39  1  0
 17 40  1  0
 18 41  1  0
 19 42  1  0
 20 43  1  0
 25 44  1  0
 25 45  1  0
 26 46  1  0
 27 47  1  0
 27 48  1  0
 27 49  1  0
 28 50  1  0
 28 51  1  0
 28 52  1  0
 30 53  1  0
 31 54  1  0
M  END
$$$$
