
     RDKit          3D

 39 41  0  0  0  0  0  0  0  0999 V2000
    4.0423   -0.2257   -3.1451 O   0  0  0  0  0  0  0  0  0  0  0  0
    2.9663   -0.2624   -2.5666 C   0  0  0  0  0  0  0  0  0  0  0  0
    1.8972   -0.7831   -3.2152 O   0  0  0  0  0  0  0  0  0  0  0  0
    2.6368    0.3217   -1.1843 C   0  0  0  0  0  0  0  0  0  0  0  0
    3.7089    0.2473   -0.1019 C   0  0  0  0  0  0  0  0  0  0  0  0
    3.5848    1.0841    1.0252 C   0  0  0  0  0  0  0  0  0  0  0  0
    4.5299    1.0537    2.0520 C   0  0  0  0  0  0  0  0  0  0  0  0
    5.6163    0.1883    1.9713 C   0  0  0  0  0  0  0  0  0  0  0  0
    5.7585   -0.6436    0.8640 C   0  0  0  0  0  0  0  0  0  0  0  0
    4.8140   -0.6146   -0.1657 C   0  0  0  0  0  0  0  0  0  0  0  0
    1.3036   -0.0965   -0.7044 N   0  0  0  0  0  0  0  0  0  0  0  0
    0.2765    0.8274   -0.7526 C   0  0  0  0  0  0  0  0  0  0  0  0
    0.3624    1.9840   -1.1435 O   0  0  0  0  0  0  0  0  0  0  0  0
   -0.9893    0.2312   -0.2546 C   0  0  0  0  0  0  0  0  0  0  0  0
   -2.1263    0.9379   -0.1980 C   0  0  0  0  0  0  0  0  0  0  0  0
   -3.4250    0.4406    0.2680 C   0  0  0  0  0  0  0  0  0  0  0  0
   -3.6316    0.1200    1.6192 C   0  0  0  0  0  0  0  0  0  0  0  0
   -4.8770   -0.3382    2.0547 C   0  0  0  0  0  0  0  0  0  0  0  0
   -5.9084   -0.4673    1.1376 C   0  0  0  0  0  0  0  0  0  0  0  0
   -7.1261   -0.9141    1.5633 O   0  0  0  0  0  0  0  0  0  0  0  0
   -5.7153   -0.1454   -0.2034 C   0  0  0  0  0  0  0  0  0  0  0  0
   -6.7787   -0.2957   -1.0510 O   0  0  0  0  0  0  0  0  0  0  0  0
   -4.4791    0.3124   -0.6476 C   0  0  0  0  0  0  0  0  0  0  0  0
   -0.7382   -1.4081    0.1744 S   0  0  0  0  0  0  0  0  0  0  0  0
    0.9619   -1.3686   -0.2899 C   0  0  0  0  0  0  0  0  0  0  0  0
    1.9003   -2.7464   -0.2174 S   0  0  0  0  0  0  0  0  0  0  0  0
    2.2641   -1.0761   -4.0775 H   0  0  0  0  0  0  0  0  0  0  0  0
    2.5780    1.3946   -1.4206 H   0  0  0  0  0  0  0  0  0  0  0  0
    2.7478    1.7760    1.1088 H   0  0  0  0  0  0  0  0  0  0  0  0
    4.4191    1.7070    2.9138 H   0  0  0  0  0  0  0  0  0  0  0  0
    6.3535    0.1621    2.7695 H   0  0  0  0  0  0  0  0  0  0  0  0
    6.6071   -1.3204    0.7996 H   0  0  0  0  0  0  0  0  0  0  0  0
    4.9632   -1.2849   -1.0100 H   0  0  0  0  0  0  0  0  0  0  0  0
   -2.1344    1.9746   -0.5321 H   0  0  0  0  0  0  0  0  0  0  0  0
   -2.8269    0.2249    2.3435 H   0  0  0  0  0  0  0  0  0  0  0  0
   -5.0398   -0.5906    3.0980 H   0  0  0  0  0  0  0  0  0  0  0  0
   -7.6792   -0.9251    0.7569 H   0  0  0  0  0  0  0  0  0  0  0  0
   -6.4926   -0.0463   -1.9466 H   0  0  0  0  0  0  0  0  0  0  0  0
   -4.3243    0.5653   -1.6920 H   0  0  0  0  0  0  0  0  0  0  0  0
  1  2  2  0
  2  3  1  0
  2  4  1  0
  4  5  1  0
  5  6  2  0
  6  7  1  0
  7  8  2  0
  8  9  1  0
  9 10  2  0
  4 11  1  0
 11 12  1  0
 12 13  2  0
 12 14  1  0
 14 15  2  3
 15 16  1  0
 16 17  2  0
 17 18  1  0
 18 19  2  0
 19 20  1  0
 19 21  1  0
 21 22  1  0
 21 23  2  0
 14 24  1  0
 24 25  1  0
 25 26  2  0
 10  5  1  0
 25 11  1  0
 23 16  1  0
  3 27  1  0
  4 28  1  0
  6 29  1  0
  7 30  1  0
  8 31  1  0
  9 32  1  0
 10 33  1  0
 15 34  1  0
 17 35  1  0
 18 36  1  0
 20 37  1  0
 22 38  1  0
 23 39  1  0
M  END
$$$$
