
     RDKit          3D

 59 62  0  0  0  0  0  0  0  0999 V2000
   -5.8000    2.8388   -2.1054 C   0  0  0  0  0  0  0  0  0  0  0  0
   -6.0200    1.3323   -1.9321 C   0  0  0  0  0  0  0  0  0  0  0  0
   -7.1037    1.0367   -0.8858 C   0  0  0  0  0  0  0  0  0  0  0  0
   -6.6033    1.2767    0.5369 C   0  0  0  0  0  0  0  0  0  0  0  0
   -5.2763    0.5595    0.7938 C   0  0  0  0  0  0  0  0  0  0  0  0
   -4.2720    0.9435   -0.2048 N   0  0  0  0  0  0  0  0  0  0  0  0
   -2.9280    0.4427    0.1106 C   0  0  0  0  0  0  0  0  0  0  0  0
   -2.7368   -1.0816    0.1140 C   0  0  0  0  0  0  0  0  0  0  0  0
   -1.2944   -1.4785    0.4353 C   0  0  0  0  0  0  0  0  0  0  0  0
   -1.0215   -1.2889    1.8612 N   0  0  0  0  0  0  0  0  0  0  0  0
    0.2163   -2.1559    2.5942 S   0  0  0  0  0  6  0  0  0  0  0  0
   -0.0004   -3.5616    2.3377 O   0  0  0  0  0  0  0  0  0  0  0  0
    0.3394   -1.6315    3.9364 O   0  0  0  0  0  0  0  0  0  0  0  0
    1.6449   -1.6310    1.6752 C   0  0  0  0  0  0  0  0  0  0  0  0
    2.1359   -2.4344    0.6318 C   0  0  0  0  0  0  0  0  0  0  0  0
    3.2612   -2.0304   -0.0946 C   0  0  0  0  0  0  0  0  0  0  0  0
    3.8811   -0.8392    0.2495 C   0  0  0  0  0  0  0  0  0  0  0  0
    3.3972   -0.0555    1.3000 C   0  0  0  0  0  0  0  0  0  0  0  0
    2.2788   -0.4345    2.0277 C   0  0  0  0  0  0  0  0  0  0  0  0
    4.2126    1.1854    1.4734 C   0  0  0  0  0  0  0  0  0  0  0  0
    5.3442    0.9691    0.4609 C   0  0  0  0  0  0  0  0  0  0  0  0
    5.0182   -0.2370   -0.3164 N   0  0  0  0  0  0  0  0  0  0  0  0
    5.7358   -0.7189   -1.3959 C   0  0  0  0  0  0  0  0  0  0  0  0
    5.4579   -1.7097   -2.0602 O   0  0  0  0  0  0  0  0  0  0  0  0
    6.9402    0.0796   -1.7758 C   0  0  0  0  0  0  0  0  0  0  0  0
    8.2161   -0.0268   -0.9707 C   0  0  0  0  0  0  0  0  0  0  0  0
    8.1579   -0.6156   -2.3466 C   0  0  0  0  0  0  0  0  0  0  0  0
   -4.7131    0.6061   -1.5637 C   0  0  0  0  0  0  0  0  0  0  0  0
   -5.4305    3.3148   -1.1921 H   0  0  0  0  0  0  0  0  0  0  0  0
   -6.7348    3.3340   -2.3883 H   0  0  0  0  0  0  0  0  0  0  0  0
   -5.0702    3.0300   -2.8995 H   0  0  0  0  0  0  0  0  0  0  0  0
   -6.3666    0.9427   -2.8980 H   0  0  0  0  0  0  0  0  0  0  0  0
   -7.9996    1.6392   -1.0748 H   0  0  0  0  0  0  0  0  0  0  0  0
   -7.4069   -0.0142   -0.9788 H   0  0  0  0  0  0  0  0  0  0  0  0
   -7.3550    0.9252    1.2531 H   0  0  0  0  0  0  0  0  0  0  0  0
   -6.4821    2.3526    0.7127 H   0  0  0  0  0  0  0  0  0  0  0  0
   -4.9307    0.8318    1.7983 H   0  0  0  0  0  0  0  0  0  0  0  0
   -5.4470   -0.5241    0.7892 H   0  0  0  0  0  0  0  0  0  0  0  0
   -2.2215    0.8877   -0.6025 H   0  0  0  0  0  0  0  0  0  0  0  0
   -2.6372    0.8506    1.0865 H   0  0  0  0  0  0  0  0  0  0  0  0
   -3.4145   -1.5563    0.8327 H   0  0  0  0  0  0  0  0  0  0  0  0
   -2.9799   -1.4806   -0.8773 H   0  0  0  0  0  0  0  0  0  0  0  0
   -1.1620   -2.5327    0.1696 H   0  0  0  0  0  0  0  0  0  0  0  0
   -0.5949   -0.8827   -0.1600 H   0  0  0  0  0  0  0  0  0  0  0  0
   -1.1838   -0.3799    2.2901 H   0  0  0  0  0  0  0  0  0  0  0  0
    1.6501   -3.3755    0.3807 H   0  0  0  0  0  0  0  0  0  0  0  0
    3.6329   -2.6576   -0.8986 H   0  0  0  0  0  0  0  0  0  0  0  0
    1.9117    0.1776    2.8464 H   0  0  0  0  0  0  0  0  0  0  0  0
    4.6015    1.2827    2.4909 H   0  0  0  0  0  0  0  0  0  0  0  0
    3.6229    2.0712    1.2172 H   0  0  0  0  0  0  0  0  0  0  0  0
    5.4581    1.8277   -0.2094 H   0  0  0  0  0  0  0  0  0  0  0  0
    6.2989    0.8045    0.9728 H   0  0  0  0  0  0  0  0  0  0  0  0
    6.7018    1.0378   -2.2266 H   0  0  0  0  0  0  0  0  0  0  0  0
    8.2460   -0.7163   -0.1337 H   0  0  0  0  0  0  0  0  0  0  0  0
    8.8043    0.8722   -0.8285 H   0  0  0  0  0  0  0  0  0  0  0  0
    8.6970   -0.1163   -3.1434 H   0  0  0  0  0  0  0  0  0  0  0  0
    8.1340   -1.6963   -2.4410 H   0  0  0  0  0  0  0  0  0  0  0  0
   -3.9393    0.8858   -2.2897 H   0  0  0  0  0  0  0  0  0  0  0  0
   -4.8711   -0.4753   -1.6639 H   0  0  0  0  0  0  0  0  0  0  0  0
  1  2  1  0
  2  3  1  0
  3  4  1  0
  4  5  1  0
  5  6  1  0
  6  7  1  0
  7  8  1  0
  8  9  1  0
  9 10  1  0
 10 11  1  0
 11 12  2  0
 11 13  2  0
 11 14  1  0
 14 15  2  0
 15 16  1  0
 16 17  2  0
 17 18  1  0
 18 19  2  0
 18 20  1  0
 20 21  1  0
 21 22  1  0
 22 23  1  0
 23 24  2  0
 23 25  1  0
 25 26  1  0
 26 27  1  0
  6 28  1  0
 28  2  1  0
 19 14  1  0
 27 25  1  0
 22 17  1  0
  1 29  1  0
  1 30  1  0
  1 31  1  0
  2 32  1  0
  3 33  1  0
  3 34  1  0
  4 35  1  0
  4 36  1  0
  5 37  1  0
  5 38  1  0
  7 39  1  0
  7 40  1  0
  8 41  1  0
  8 42  1  0
  9 43  1  0
  9 44  1  0
 10 45  1  0
 15 46  1  0
 16 47  1  0
 19 48  1  0
 20 49  1  0
 20 50  1  0
 21 51  1  0
 21 52  1  0
 25 53  1  0
 26 54  1  0
 26 55  1  0
 27 56  1  0
 27 57  1  0
 28 58  1  0
 28 59  1  0
M  END
$$$$
