
     RDKit          3D

 75 77  0  0  0  0  0  0  0  0999 V2000
   -5.2277    1.9600    5.5493 C   0  0  0  0  0  0  0  0  0  0  0  0
   -3.8464    2.4258    5.1306 C   0  0  0  0  0  0  0  0  0  0  0  0
   -3.5795    1.9907    3.7962 O   0  0  0  0  0  0  0  0  0  0  0  0
   -2.6247    1.0262    3.6458 C   0  0  0  0  0  0  0  0  0  0  0  0
   -2.4109   -0.0316    4.5270 C   0  0  0  0  0  0  0  0  0  0  0  0
   -1.4278   -0.9853    4.2468 C   0  0  0  0  0  0  0  0  0  0  0  0
   -0.6599   -0.8880    3.0845 C   0  0  0  0  0  0  0  0  0  0  0  0
   -0.8703    0.1705    2.1974 C   0  0  0  0  0  0  0  0  0  0  0  0
   -0.1126    0.2497    0.9932 N   0  0  0  0  0  0  0  0  0  0  0  0
    0.5042    1.4324    0.5783 C   0  0  0  0  0  0  0  0  0  0  0  0
    0.8366    1.6467   -0.5912 O   0  0  0  0  0  0  0  0  0  0  0  0
    0.8896    2.4275    1.6739 C   0  0  0  0  0  0  0  0  0  0  0  0
    1.7675    3.5656    1.1600 C   0  0  0  0  0  0  0  0  0  0  0  0
    3.2170    3.1378    1.0311 C   0  0  0  0  0  0  0  0  0  0  0  0
    4.0326    3.4558    1.8909 O   0  0  0  0  0  0  0  0  0  0  0  0
    3.4457    2.3679   -0.0844 N   0  0  0  0  0  0  0  0  0  0  0  0
    4.6740    1.8625   -0.4633 C   0  0  0  0  0  0  0  0  0  0  0  0
    4.8408    0.9960   -1.5699 C   0  0  0  0  0  0  0  0  0  0  0  0
    6.1819    0.7183   -1.5980 C   0  0  0  0  0  0  0  0  0  0  0  0
    7.0403   -0.1244   -2.4434 C   0  0  0  0  0  0  0  0  0  0  0  0
    6.7941    1.3911   -0.5890 O   0  0  0  0  0  0  0  0  0  0  0  0
    5.8517    2.1090    0.1212 N   0  0  0  0  0  0  0  0  0  0  0  0
   -0.3872   -0.8134   -0.0022 C   0  0  0  0  0  0  0  0  0  0  0  0
    0.8776   -1.3185   -0.7640 C   0  0  0  0  0  0  0  0  0  0  0  0
    2.0220   -1.0685   -0.3862 O   0  0  0  0  0  0  0  0  0  0  0  0
    0.6120   -2.1823   -1.8196 N   0  0  0  0  0  0  0  0  0  0  0  0
    1.6141   -2.9592   -2.5653 C   0  0  0  0  0  0  0  0  0  0  0  0
    2.2961   -3.9741   -1.6341 C   0  0  0  0  0  0  0  0  0  0  0  0
    2.6673   -2.0530   -3.2161 C   0  0  0  0  0  0  0  0  0  0  0  0
    0.8821   -3.7297   -3.6810 C   0  0  0  0  0  0  0  0  0  0  0  0
   -1.6108   -0.5139   -0.8700 C   0  0  0  0  0  0  0  0  0  0  0  0
   -1.5371    0.2743   -2.0265 C   0  0  0  0  0  0  0  0  0  0  0  0
   -2.6804    0.5169   -2.7935 C   0  0  0  0  0  0  0  0  0  0  0  0
   -3.9185   -0.0184   -2.4250 C   0  0  0  0  0  0  0  0  0  0  0  0
   -4.9521    0.2861   -3.2640 O   0  0  0  0  0  0  0  0  0  0  0  0
   -6.1893   -0.3724   -3.0224 C   0  0  0  0  0  0  0  0  0  0  0  0
   -4.0085   -0.7796   -1.2620 C   0  0  0  0  0  0  0  0  0  0  0  0
   -2.8673   -1.0209   -0.4903 C   0  0  0  0  0  0  0  0  0  0  0  0
   -1.8736    1.1080    2.4721 C   0  0  0  0  0  0  0  0  0  0  0  0
   -5.9822    2.3225    4.8447 H   0  0  0  0  0  0  0  0  0  0  0  0
   -5.4740    2.3256    6.5490 H   0  0  0  0  0  0  0  0  0  0  0  0
   -5.2926    0.8682    5.5541 H   0  0  0  0  0  0  0  0  0  0  0  0
   -3.8347    3.5203    5.1172 H   0  0  0  0  0  0  0  0  0  0  0  0
   -3.0794    2.1218    5.8527 H   0  0  0  0  0  0  0  0  0  0  0  0
   -3.0108   -0.1454    5.4260 H   0  0  0  0  0  0  0  0  0  0  0  0
   -1.2627   -1.8091    4.9370 H   0  0  0  0  0  0  0  0  0  0  0  0
    0.1171   -1.6258    2.8954 H   0  0  0  0  0  0  0  0  0  0  0  0
    1.4007    1.8885    2.4787 H   0  0  0  0  0  0  0  0  0  0  0  0
   -0.0202    2.8835    2.0699 H   0  0  0  0  0  0  0  0  0  0  0  0
    1.7405    4.3981    1.8734 H   0  0  0  0  0  0  0  0  0  0  0  0
    1.4127    3.9675    0.2035 H   0  0  0  0  0  0  0  0  0  0  0  0
    2.6517    2.0575   -0.6375 H   0  0  0  0  0  0  0  0  0  0  0  0
    4.0779    0.6196   -2.2362 H   0  0  0  0  0  0  0  0  0  0  0  0
    7.9431    0.4099   -2.7489 H   0  0  0  0  0  0  0  0  0  0  0  0
    7.3413   -1.0217   -1.8970 H   0  0  0  0  0  0  0  0  0  0  0  0
    6.5106   -0.4417   -3.3495 H   0  0  0  0  0  0  0  0  0  0  0  0
   -0.6444   -1.7170    0.5702 H   0  0  0  0  0  0  0  0  0  0  0  0
   -0.3590   -2.3087   -2.0940 H   0  0  0  0  0  0  0  0  0  0  0  0
    2.9524   -4.6549   -2.1913 H   0  0  0  0  0  0  0  0  0  0  0  0
    1.5509   -4.5820   -1.1016 H   0  0  0  0  0  0  0  0  0  0  0  0
    2.9090   -3.4819   -0.8709 H   0  0  0  0  0  0  0  0  0  0  0  0
    2.1941   -1.2447   -3.7881 H   0  0  0  0  0  0  0  0  0  0  0  0
    3.3142   -2.6188   -3.8990 H   0  0  0  0  0  0  0  0  0  0  0  0
    3.3194   -1.5920   -2.4679 H   0  0  0  0  0  0  0  0  0  0  0  0
    0.1080   -4.3883   -3.2655 H   0  0  0  0  0  0  0  0  0  0  0  0
    0.3868   -3.0400   -4.3764 H   0  0  0  0  0  0  0  0  0  0  0  0
    1.5741   -4.3487   -4.2619 H   0  0  0  0  0  0  0  0  0  0  0  0
   -0.5911    0.7112   -2.3480 H   0  0  0  0  0  0  0  0  0  0  0  0
   -2.6055    1.1372   -3.6873 H   0  0  0  0  0  0  0  0  0  0  0  0
   -6.6331   -0.0454   -2.0753 H   0  0  0  0  0  0  0  0  0  0  0  0
   -6.0717   -1.4620   -3.0493 H   0  0  0  0  0  0  0  0  0  0  0  0
   -6.8795   -0.0942   -3.8267 H   0  0  0  0  0  0  0  0  0  0  0  0
   -4.9538   -1.1896   -0.9200 H   0  0  0  0  0  0  0  0  0  0  0  0
   -2.9735   -1.6063    0.4212 H   0  0  0  0  0  0  0  0  0  0  0  0
   -2.0990    1.9011    1.7628 H   0  0  0  0  0  0  0  0  0  0  0  0
  1  2  1  0
  2  3  1  0
  3  4  1  0
  4  5  2  0
  5  6  1  0
  6  7  2  0
  7  8  1  0
  8  9  1  0
  9 10  1  0
 10 11  2  0
 10 12  1  0
 12 13  1  0
 13 14  1  0
 14 15  2  0
 14 16  1  0
 16 17  1  0
 17 18  1  0
 18 19  2  0
 19 20  1  0
 19 21  1  0
 21 22  1  0
  9 23  1  0
 23 24  1  0
 24 25  2  0
 24 26  1  0
 26 27  1  0
 27 28  1  0
 27 29  1  0
 27 30  1  0
 23 31  1  0
 31 32  2  0
 32 33  1  0
 33 34  2  0
 34 35  1  0
 35 36  1  0
 34 37  1  0
 37 38  2  0
  8 39  2  0
 39  4  1  0
 22 17  2  0
 38 31  1  0
  1 40  1  0
  1 41  1  0
  1 42  1  0
  2 43  1  0
  2 44  1  0
  5 45  1  0
  6 46  1  0
  7 47  1  0
 12 48  1  0
 12 49  1  0
 13 50  1  0
 13 51  1  0
 16 52  1  0
 18 53  1  0
 20 54  1  0
 20 55  1  0
 20 56  1  0
 23 57  1  0
 26 58  1  0
 28 59  1  0
 28 60  1  0
 28 61  1  0
 29 62  1  0
 29 63  1  0
 29 64  1  0
 30 65  1  0
 30 66  1  0
 30 67  1  0
 32 68  1  0
 33 69  1  0
 36 70  1  0
 36 71  1  0
 36 72  1  0
 37 73  1  0
 38 74  1  0
 39 75  1  0
M  END
$$$$
