
     RDKit          3D

 45 47  0  0  0  0  0  0  0  0999 V2000
    1.3911   -4.1439    0.1623 C   0  0  0  0  0  0  0  0  0  0  0  0
    2.5866   -3.2626    0.3912 C   0  0  0  0  0  0  0  0  0  0  0  0
    3.7695   -3.8378    0.8965 C   0  0  0  0  0  0  0  0  0  0  0  0
    4.9076   -3.0705    1.1272 C   0  0  0  0  0  0  0  0  0  0  0  0
    4.9090   -1.7007    0.8635 C   0  0  0  0  0  0  0  0  0  0  0  0
    3.7340   -1.1238    0.3577 C   0  0  0  0  0  0  0  0  0  0  0  0
    3.4291    0.5183   -0.0490 S   0  0  0  0  0  0  0  0  0  0  0  0
    1.8474    0.1141   -0.5596 C   0  0  0  0  0  0  0  0  0  0  0  0
    0.9411    1.0916   -0.9918 N   0  0  0  0  0  0  0  0  0  0  0  0
   -0.4699    0.6932   -1.1592 C   0  0  0  0  0  0  0  0  0  0  0  0
   -1.2027    0.5085    0.1737 C   0  0  0  0  0  0  0  0  0  0  0  0
   -2.6616    0.1005   -0.0632 C   0  0  0  0  0  0  0  0  0  0  0  0
   -3.4584    0.0827    1.1752 N   0  0  0  0  0  0  0  0  0  0  0  0
   -4.8796   -0.0811    0.8531 C   0  0  0  0  0  0  0  0  0  0  0  0
   -3.0379   -0.9854    2.0865 C   0  0  0  0  0  0  0  0  0  0  0  0
    1.4205    2.2825   -1.5721 C   0  0  0  0  0  0  0  0  0  0  0  0
    2.5412    2.3928   -2.0671 O   0  0  0  0  0  0  0  0  0  0  0  0
    0.4992    3.4157   -1.5776 C   0  0  0  0  0  0  0  0  0  0  0  0
   -0.2675    3.9325   -0.5465 C   0  0  0  0  0  0  0  0  0  0  0  0
   -1.0386    5.0616   -0.9575 C   0  0  0  0  0  0  0  0  0  0  0  0
   -0.8049    5.3647   -2.2732 C   0  0  0  0  0  0  0  0  0  0  0  0
   -1.5164    6.6435   -3.1708 Cl  0  0  0  0  0  0  0  0  0  0  0  0
    0.3143    4.3376   -3.0152 S   0  0  0  0  0  0  0  0  0  0  0  0
    1.5106   -1.1443   -0.3817 N   0  0  0  0  0  0  0  0  0  0  0  0
    2.5820   -1.8724    0.1155 C   0  0  0  0  0  0  0  0  0  0  0  0
    0.5332   -3.5729   -0.2055 H   0  0  0  0  0  0  0  0  0  0  0  0
    1.6286   -4.9134   -0.5792 H   0  0  0  0  0  0  0  0  0  0  0  0
    1.0961   -4.6283    1.0987 H   0  0  0  0  0  0  0  0  0  0  0  0
    3.7995   -4.9048    1.1125 H   0  0  0  0  0  0  0  0  0  0  0  0
    5.8067   -3.5426    1.5177 H   0  0  0  0  0  0  0  0  0  0  0  0
    5.7949   -1.0993    1.0436 H   0  0  0  0  0  0  0  0  0  0  0  0
   -0.4881   -0.2429   -1.7331 H   0  0  0  0  0  0  0  0  0  0  0  0
   -1.0018    1.4190   -1.7827 H   0  0  0  0  0  0  0  0  0  0  0  0
   -1.1664    1.4375    0.7523 H   0  0  0  0  0  0  0  0  0  0  0  0
   -0.6909   -0.2517    0.7727 H   0  0  0  0  0  0  0  0  0  0  0  0
   -2.7011   -0.8735   -0.5686 H   0  0  0  0  0  0  0  0  0  0  0  0
   -3.1020    0.8343   -0.7510 H   0  0  0  0  0  0  0  0  0  0  0  0
   -5.2287    0.7413    0.2186 H   0  0  0  0  0  0  0  0  0  0  0  0
   -5.0798   -1.0265    0.3357 H   0  0  0  0  0  0  0  0  0  0  0  0
   -5.4878   -0.0495    1.7641 H   0  0  0  0  0  0  0  0  0  0  0  0
   -3.6739   -1.0010    2.9792 H   0  0  0  0  0  0  0  0  0  0  0  0
   -3.0860   -1.9736    1.6151 H   0  0  0  0  0  0  0  0  0  0  0  0
   -2.0186   -0.8205    2.4490 H   0  0  0  0  0  0  0  0  0  0  0  0
   -0.2679    3.5325    0.4605 H   0  0  0  0  0  0  0  0  0  0  0  0
   -1.7117    5.6188   -0.3176 H   0  0  0  0  0  0  0  0  0  0  0  0
  1  2  1  0
  2  3  2  0
  3  4  1  0
  4  5  2  0
  5  6  1  0
  6  7  1  0
  7  8  1  0
  8  9  1  0
  9 10  1  0
 10 11  1  0
 11 12  1  0
 12 13  1  0
 13 14  1  0
 13 15  1  0
  9 16  1  0
 16 17  2  0
 16 18  1  0
 18 19  2  0
 19 20  1  0
 20 21  2  0
 21 22  1  0
 21 23  1  0
  8 24  2  0
 24 25  1  0
 25  2  1  0
 25  6  2  0
 23 18  1  0
  1 26  1  0
  1 27  1  0
  1 28  1  0
  3 29  1  0
  4 30  1  0
  5 31  1  0
 10 32  1  0
 10 33  1  0
 11 34  1  0
 11 35  1  0
 12 36  1  0
 12 37  1  0
 14 38  1  0
 14 39  1  0
 14 40  1  0
 15 41  1  0
 15 42  1  0
 15 43  1  0
 19 44  1  0
 20 45  1  0
M  END
$$$$
