
     RDKit          3D

 61 63  0  0  0  0  0  0  0  0999 V2000
    1.4815   -4.0071   -1.5188 C   0  0  0  0  0  0  0  0  0  0  0  0
    0.4645   -3.0898   -2.1711 C   0  0  0  0  0  0  0  0  0  0  0  0
    0.6683   -1.7328   -1.7584 O   0  0  0  0  0  0  0  0  0  0  0  0
    0.0092   -1.3514   -0.6196 C   0  0  0  0  0  0  0  0  0  0  0  0
   -0.7014   -2.0966    0.0463 O   0  0  0  0  0  0  0  0  0  0  0  0
    0.1549    0.0805   -0.3595 C   0  0  0  0  0  0  0  0  0  0  0  0
   -0.9432    0.9777   -0.0593 C   0  0  0  0  0  0  0  0  0  0  0  0
   -2.3591    0.6570    0.0970 C   0  0  0  0  0  0  0  0  0  0  0  0
   -2.7921   -0.1406    1.1578 C   0  0  0  0  0  0  0  0  0  0  0  0
   -4.1528   -0.4367    1.3080 C   0  0  0  0  0  0  0  0  0  0  0  0
   -5.1089    0.0627    0.4085 C   0  0  0  0  0  0  0  0  0  0  0  0
   -6.5388   -0.2441    0.5718 C   0  0  0  0  0  0  0  0  0  0  0  0
   -6.9909   -1.5716    0.6517 C   0  0  0  0  0  0  0  0  0  0  0  0
   -8.3492   -1.8622    0.8056 C   0  0  0  0  0  0  0  0  0  0  0  0
   -9.2797   -0.8284    0.8846 C   0  0  0  0  0  0  0  0  0  0  0  0
   -8.8525    0.4949    0.8089 C   0  0  0  0  0  0  0  0  0  0  0  0
   -7.4941    0.7830    0.6531 C   0  0  0  0  0  0  0  0  0  0  0  0
   -4.6594    0.8658   -0.6523 C   0  0  0  0  0  0  0  0  0  0  0  0
   -3.2997    1.1597   -0.8091 C   0  0  0  0  0  0  0  0  0  0  0  0
   -0.5349    2.2972   -0.0046 C   0  0  0  0  0  0  0  0  0  0  0  0
    1.1268    2.4717   -0.3267 S   0  0  0  0  0  0  0  0  0  0  0  0
    1.3434    0.7882   -0.4347 C   0  0  0  0  0  0  0  0  0  0  0  0
    2.6679    0.4493   -0.6070 N   0  0  0  0  0  0  0  0  0  0  0  0
    3.1865   -0.7738   -0.2372 C   0  0  0  0  0  0  0  0  0  0  0  0
    2.6100   -1.6197    0.4460 O   0  0  0  0  0  0  0  0  0  0  0  0
    4.6244   -0.9799   -0.7161 C   0  0  0  0  0  0  0  0  0  0  0  0
    5.5474   -1.1889    0.4116 N   0  0  0  0  0  0  0  0  0  0  0  0
    5.6898   -0.0145    1.2871 C   0  0  0  0  0  0  0  0  0  0  0  0
    6.2125    1.2689    0.5915 C   0  0  0  0  0  0  0  0  0  0  0  0
    5.1369    2.1533    0.0728 N   0  0  0  0  0  0  0  0  0  0  0  0
    5.7100    3.0858   -0.9092 C   0  0  0  0  0  0  0  0  0  0  0  0
    4.5479    2.9304    1.1771 C   0  0  0  0  0  0  0  0  0  0  0  0
    1.3824   -5.0281   -1.9012 H   0  0  0  0  0  0  0  0  0  0  0  0
    1.3511   -4.0285   -0.4319 H   0  0  0  0  0  0  0  0  0  0  0  0
    2.5005   -3.6569   -1.7138 H   0  0  0  0  0  0  0  0  0  0  0  0
   -0.5608   -3.4224   -1.9701 H   0  0  0  0  0  0  0  0  0  0  0  0
    0.5968   -3.1133   -3.2581 H   0  0  0  0  0  0  0  0  0  0  0  0
   -2.0789   -0.5487    1.8711 H   0  0  0  0  0  0  0  0  0  0  0  0
   -4.4607   -1.0600    2.1454 H   0  0  0  0  0  0  0  0  0  0  0  0
   -6.2808   -2.3947    0.5820 H   0  0  0  0  0  0  0  0  0  0  0  0
   -8.6758   -2.8968    0.8621 H   0  0  0  0  0  0  0  0  0  0  0  0
  -10.3361   -1.0523    1.0060 H   0  0  0  0  0  0  0  0  0  0  0  0
   -9.5731    1.3067    0.8739 H   0  0  0  0  0  0  0  0  0  0  0  0
   -7.1820    1.8241    0.6075 H   0  0  0  0  0  0  0  0  0  0  0  0
   -5.3687    1.2589   -1.3783 H   0  0  0  0  0  0  0  0  0  0  0  0
   -2.9854    1.7756   -1.6492 H   0  0  0  0  0  0  0  0  0  0  0  0
   -1.1401    3.1740    0.1853 H   0  0  0  0  0  0  0  0  0  0  0  0
    3.3379    1.2149   -0.7024 H   0  0  0  0  0  0  0  0  0  0  0  0
    4.9581   -0.1705   -1.3733 H   0  0  0  0  0  0  0  0  0  0  0  0
    4.6212   -1.8838   -1.3388 H   0  0  0  0  0  0  0  0  0  0  0  0
    5.1635   -1.9575    0.9724 H   0  0  0  0  0  0  0  0  0  0  0  0
    4.7606    0.1695    1.8366 H   0  0  0  0  0  0  0  0  0  0  0  0
    6.4285   -0.2931    2.0504 H   0  0  0  0  0  0  0  0  0  0  0  0
    6.8477    1.8225    1.2979 H   0  0  0  0  0  0  0  0  0  0  0  0
    6.8813    0.9616   -0.2259 H   0  0  0  0  0  0  0  0  0  0  0  0
    6.4982    3.7140   -0.4783 H   0  0  0  0  0  0  0  0  0  0  0  0
    4.9298    3.7377   -1.3174 H   0  0  0  0  0  0  0  0  0  0  0  0
    6.1296    2.5361   -1.7591 H   0  0  0  0  0  0  0  0  0  0  0  0
    4.0297    2.2783    1.8872 H   0  0  0  0  0  0  0  0  0  0  0  0
    5.2999    3.5108    1.7263 H   0  0  0  0  0  0  0  0  0  0  0  0
    3.8000    3.6339    0.7954 H   0  0  0  0  0  0  0  0  0  0  0  0
  1  2  1  0
  2  3  1  0
  3  4  1  0
  4  5  2  0
  4  6  1  0
  6  7  1  0
  7  8  1  0
  8  9  2  0
  9 10  1  0
 10 11  2  0
 11 12  1  0
 12 13  2  0
 13 14  1  0
 14 15  2  0
 15 16  1  0
 16 17  2  0
 11 18  1  0
 18 19  2  0
  7 20  2  0
 20 21  1  0
 21 22  1  0
 22 23  1  0
 23 24  1  0
 24 25  2  0
 24 26  1  0
 26 27  1  0
 27 28  1  0
 28 29  1  0
 29 30  1  0
 30 31  1  0
 30 32  1  0
 22  6  2  0
 19  8  1  0
 17 12  1  0
  1 33  1  0
  1 34  1  0
  1 35  1  0
  2 36  1  0
  2 37  1  0
  9 38  1  0
 10 39  1  0
 13 40  1  0
 14 41  1  0
 15 42  1  0
 16 43  1  0
 17 44  1  0
 18 45  1  0
 19 46  1  0
 20 47  1  0
 23 48  1  0
 26 49  1  0
 26 50  1  0
 27 51  1  0
 28 52  1  0
 28 53  1  0
 29 54  1  0
 29 55  1  0
 31 56  1  0
 31 57  1  0
 31 58  1  0
 32 59  1  0
 32 60  1  0
 32 61  1  0
M  END
$$$$
