
     RDKit          3D

 48 50  0  0  0  0  0  0  0  0999 V2000
    2.8174    1.9862   -3.0618 C   0  0  0  0  0  0  0  0  0  0  0  0
    2.4757    1.1343   -1.8863 C   0  0  0  0  0  0  0  0  0  0  0  0
    1.2148    0.9008   -1.3770 C   0  0  0  0  0  0  0  0  0  0  0  0
    1.3167   -0.0489   -0.3334 C   0  0  0  0  0  0  0  0  0  0  0  0
    0.2322   -0.5902    0.4642 C   0  0  0  0  0  0  0  0  0  0  0  0
   -0.9729   -0.1748    0.2473 N   0  0  0  0  0  0  0  0  0  0  0  0
   -1.9465   -0.7268    1.0294 N   0  0  0  0  0  0  0  0  0  0  0  0
   -3.2753   -0.3323    0.8640 C   0  0  0  0  0  0  0  0  0  0  0  0
   -3.6532    0.4871    0.0345 O   0  0  0  0  0  0  0  0  0  0  0  0
   -4.1852   -1.0788    1.8233 C   0  0  0  0  0  0  0  0  0  0  0  0
   -5.6325   -0.5898    1.8679 C   0  0  0  0  0  0  0  0  0  0  0  0
   -6.4245   -1.4716    2.8421 C   0  0  0  0  0  0  0  0  0  0  0  0
   -5.7213    0.7507    2.3704 O   0  0  0  0  0  0  0  0  0  0  0  0
   -6.2848    1.5132    1.3007 C   0  0  0  0  0  0  0  0  0  0  0  0
   -7.0237    0.5044    0.4595 C   0  0  0  0  0  0  0  0  0  0  0  0
   -6.2639   -0.6970    0.5883 O   0  0  0  0  0  0  0  0  0  0  0  0
    2.6669   -0.3560   -0.1992 C   0  0  0  0  0  0  0  0  0  0  0  0
    3.3161   -1.2144    0.8395 C   0  0  0  0  0  0  0  0  0  0  0  0
    3.3779    0.3525   -1.1729 N   0  0  0  0  0  0  0  0  0  0  0  0
    4.7833    0.2792   -1.4043 C   0  0  0  0  0  0  0  0  0  0  0  0
    5.5282    1.4486   -1.5935 C   0  0  0  0  0  0  0  0  0  0  0  0
    6.9056    1.3710   -1.8182 C   0  0  0  0  0  0  0  0  0  0  0  0
    7.5451    0.1288   -1.8584 C   0  0  0  0  0  0  0  0  0  0  0  0
    9.2496    0.1106   -2.1376 Cl  0  0  0  0  0  0  0  0  0  0  0  0
    6.8013   -1.0416   -1.6731 C   0  0  0  0  0  0  0  0  0  0  0  0
    7.5211   -2.6123   -1.7173 Cl  0  0  0  0  0  0  0  0  0  0  0  0
    5.4224   -0.9667   -1.4462 C   0  0  0  0  0  0  0  0  0  0  0  0
    1.9281    2.1611   -3.6776 H   0  0  0  0  0  0  0  0  0  0  0  0
    3.5626    1.5102   -3.7062 H   0  0  0  0  0  0  0  0  0  0  0  0
    3.1872    2.9635   -2.7383 H   0  0  0  0  0  0  0  0  0  0  0  0
    0.2955    1.3496   -1.7385 H   0  0  0  0  0  0  0  0  0  0  0  0
    0.4710   -1.3458    1.2309 H   0  0  0  0  0  0  0  0  0  0  0  0
   -1.6966   -1.4173    1.7274 H   0  0  0  0  0  0  0  0  0  0  0  0
   -3.7432   -0.9949    2.8244 H   0  0  0  0  0  0  0  0  0  0  0  0
   -4.1611   -2.1319    1.5147 H   0  0  0  0  0  0  0  0  0  0  0  0
   -6.4440   -2.5148    2.5088 H   0  0  0  0  0  0  0  0  0  0  0  0
   -7.4658   -1.1360    2.9112 H   0  0  0  0  0  0  0  0  0  0  0  0
   -6.0056   -1.4241    3.8531 H   0  0  0  0  0  0  0  0  0  0  0  0
   -6.9382    2.2963    1.6947 H   0  0  0  0  0  0  0  0  0  0  0  0
   -5.4727    1.9913    0.7467 H   0  0  0  0  0  0  0  0  0  0  0  0
   -8.0266    0.3152    0.8573 H   0  0  0  0  0  0  0  0  0  0  0  0
   -7.1097    0.7980   -0.5898 H   0  0  0  0  0  0  0  0  0  0  0  0
    2.7215   -1.2313    1.7586 H   0  0  0  0  0  0  0  0  0  0  0  0
    4.3046   -0.8410    1.1228 H   0  0  0  0  0  0  0  0  0  0  0  0
    3.4072   -2.2447    0.4830 H   0  0  0  0  0  0  0  0  0  0  0  0
    5.0658    2.4304   -1.5269 H   0  0  0  0  0  0  0  0  0  0  0  0
    7.4769    2.2870   -1.9529 H   0  0  0  0  0  0  0  0  0  0  0  0
    4.8525   -1.8870   -1.3463 H   0  0  0  0  0  0  0  0  0  0  0  0
  1  2  1  0
  2  3  2  0
  3  4  1  0
  4  5  1  0
  5  6  2  3
  6  7  1  0
  7  8  1  0
  8  9  2  0
  8 10  1  0
 10 11  1  0
 11 12  1  0
 11 13  1  0
 13 14  1  0
 14 15  1  0
 15 16  1  0
  4 17  2  0
 17 18  1  0
 17 19  1  0
 19 20  1  0
 20 21  2  0
 21 22  1  0
 22 23  2  0
 23 24  1  0
 23 25  1  0
 25 26  1  0
 25 27  2  0
 19  2  1  0
 27 20  1  0
 16 11  1  0
  1 28  1  0
  1 29  1  0
  1 30  1  0
  3 31  1  0
  5 32  1  0
  7 33  1  0
 10 34  1  0
 10 35  1  0
 12 36  1  0
 12 37  1  0
 12 38  1  0
 14 39  1  0
 14 40  1  0
 15 41  1  0
 15 42  1  0
 18 43  1  0
 18 44  1  0
 18 45  1  0
 21 46  1  0
 22 47  1  0
 27 48  1  0
M  END
$$$$
