
     RDKit          3D

 48 49  0  0  0  0  0  0  0  0999 V2000
   -6.6739   -1.1408   -1.8244 C   0  0  0  0  0  0  0  0  0  0  0  0
   -5.3023   -1.0843   -1.2213 C   0  0  0  0  0  0  0  0  0  0  0  0
   -4.3192   -2.0005   -1.6092 C   0  0  0  0  0  0  0  0  0  0  0  0
   -3.0483   -1.9639   -1.0306 C   0  0  0  0  0  0  0  0  0  0  0  0
   -2.7433   -1.0198   -0.0413 C   0  0  0  0  0  0  0  0  0  0  0  0
   -1.3634   -0.9760    0.5722 C   0  0  0  0  0  0  0  0  0  0  0  0
   -0.3856   -0.0757   -0.2052 C   0  0  0  0  0  0  0  0  0  0  0  0
    0.9819   -0.6396   -0.1583 N   0  0  0  0  0  0  0  0  0  0  0  0
    1.9221   -0.2728   -1.1011 C   0  0  0  0  0  0  0  0  0  0  0  0
    1.7332    0.6094   -1.9283 O   0  0  0  0  0  0  0  0  0  0  0  0
    3.2063   -1.0229   -1.0771 C   0  0  0  0  0  0  0  0  0  0  0  0
    3.9130   -1.1695   -2.2767 C   0  0  0  0  0  0  0  0  0  0  0  0
    5.1226   -1.8654   -2.2967 C   0  0  0  0  0  0  0  0  0  0  0  0
    5.6346   -2.4065   -1.1178 C   0  0  0  0  0  0  0  0  0  0  0  0
    4.9437   -2.2471    0.0837 C   0  0  0  0  0  0  0  0  0  0  0  0
    3.7317   -1.5531    0.1088 C   0  0  0  0  0  0  0  0  0  0  0  0
   -0.4044    1.3439    0.4164 C   0  0  0  0  0  0  0  0  0  0  0  0
   -1.3468    2.1218    0.2910 O   0  0  0  0  0  0  0  0  0  0  0  0
    0.6609    1.6146    1.2468 N   0  0  0  0  0  0  0  0  0  0  0  0
    0.8725    2.9205    1.8582 C   0  0  0  0  0  0  0  0  0  0  0  0
    1.3806    3.9352    0.8430 C   0  0  0  0  0  0  0  0  0  0  0  0
    1.8943    2.7489    2.9781 C   0  0  0  0  0  0  0  0  0  0  0  0
    2.6457    1.7952    3.1319 O   0  0  0  0  0  0  0  0  0  0  0  0
    1.9289    3.7900    3.8337 O   0  0  0  0  0  0  0  0  0  0  0  0
   -3.7309   -0.1103    0.3523 C   0  0  0  0  0  0  0  0  0  0  0  0
   -5.0009   -0.1464   -0.2283 C   0  0  0  0  0  0  0  0  0  0  0  0
   -6.6259   -1.4565   -2.8719 H   0  0  0  0  0  0  0  0  0  0  0  0
   -7.2982   -1.8473   -1.2688 H   0  0  0  0  0  0  0  0  0  0  0  0
   -7.1523   -0.1558   -1.8043 H   0  0  0  0  0  0  0  0  0  0  0  0
   -4.5355   -2.7459   -2.3711 H   0  0  0  0  0  0  0  0  0  0  0  0
   -2.2992   -2.6799   -1.3604 H   0  0  0  0  0  0  0  0  0  0  0  0
   -0.9898   -2.0084    0.6081 H   0  0  0  0  0  0  0  0  0  0  0  0
   -1.4404   -0.6637    1.6222 H   0  0  0  0  0  0  0  0  0  0  0  0
   -0.6651    0.0198   -1.2614 H   0  0  0  0  0  0  0  0  0  0  0  0
    1.1131   -1.5212    0.3202 H   0  0  0  0  0  0  0  0  0  0  0  0
    3.5213   -0.7422   -3.1979 H   0  0  0  0  0  0  0  0  0  0  0  0
    5.6672   -1.9798   -3.2308 H   0  0  0  0  0  0  0  0  0  0  0  0
    6.5800   -2.9437   -1.1339 H   0  0  0  0  0  0  0  0  0  0  0  0
    5.3571   -2.6540    1.0037 H   0  0  0  0  0  0  0  0  0  0  0  0
    3.2313   -1.4102    1.0623 H   0  0  0  0  0  0  0  0  0  0  0  0
    1.4629    0.9972    1.1712 H   0  0  0  0  0  0  0  0  0  0  0  0
   -0.0790    3.2461    2.2928 H   0  0  0  0  0  0  0  0  0  0  0  0
    0.6653    4.0728    0.0257 H   0  0  0  0  0  0  0  0  0  0  0  0
    1.5498    4.9101    1.3124 H   0  0  0  0  0  0  0  0  0  0  0  0
    2.3301    3.6106    0.4018 H   0  0  0  0  0  0  0  0  0  0  0  0
    2.6220    3.5495    4.4834 H   0  0  0  0  0  0  0  0  0  0  0  0
   -3.5178    0.6449    1.1067 H   0  0  0  0  0  0  0  0  0  0  0  0
   -5.7501    0.5726    0.0951 H   0  0  0  0  0  0  0  0  0  0  0  0
  1  2  1  0
  2  3  2  0
  3  4  1  0
  4  5  2  0
  5  6  1  0
  6  7  1  0
  7  8  1  0
  8  9  1  0
  9 10  2  0
  9 11  1  0
 11 12  2  0
 12 13  1  0
 13 14  2  0
 14 15  1  0
 15 16  2  0
  7 17  1  0
 17 18  2  0
 17 19  1  0
 19 20  1  0
 20 21  1  0
 20 22  1  0
 22 23  2  0
 22 24  1  0
  5 25  1  0
 25 26  2  0
 26  2  1  0
 16 11  1  0
  1 27  1  0
  1 28  1  0
  1 29  1  0
  3 30  1  0
  4 31  1  0
  6 32  1  0
  6 33  1  0
  7 34  1  0
  8 35  1  0
 12 36  1  0
 13 37  1  0
 14 38  1  0
 15 39  1  0
 16 40  1  0
 19 41  1  0
 20 42  1  0
 21 43  1  0
 21 44  1  0
 21 45  1  0
 24 46  1  0
 25 47  1  0
 26 48  1  0
M  END
$$$$
