
     RDKit          3D

 48 51  0  0  0  0  0  0  0  0999 V2000
    7.4171   -1.1933   -2.5084 C   0  0  0  0  0  0  0  0  0  0  0  0
    6.9509   -0.4772   -1.2952 C   0  0  0  0  0  0  0  0  0  0  0  0
    6.9454   -0.9787   -0.0779 N   0  0  0  0  0  0  0  0  0  0  0  0
    6.4553   -0.0804    0.8485 N   0  0  0  0  0  0  0  0  0  0  0  0
    6.0958    1.0577    0.2950 C   0  0  0  0  0  0  0  0  0  0  0  0
    5.4239    2.3814    1.2133 S   0  0  0  0  0  0  0  0  0  0  0  0
    4.5954    1.4694    2.5521 C   0  0  0  0  0  0  0  0  0  0  0  0
    3.3536    0.7607    2.0538 C   0  0  0  0  0  0  0  0  0  0  0  0
    3.3286   -0.5760    1.9418 C   0  0  0  0  0  0  0  0  0  0  0  0
    2.0950   -1.2082    1.4634 C   0  0  0  0  0  0  0  0  0  0  0  0
    2.0004   -2.4231    1.3403 O   0  0  0  0  0  0  0  0  0  0  0  0
    1.0848   -0.3430    1.1801 N   0  0  0  0  0  0  0  0  0  0  0  0
    1.1765    1.0127    1.3389 C   0  0  0  0  0  0  0  0  0  0  0  0
    0.1102    1.8003    1.0461 N   0  0  0  0  0  0  0  0  0  0  0  0
   -1.1430    1.4474    0.5787 C   0  0  0  0  0  0  0  0  0  0  0  0
   -1.9998    2.4536    0.3725 N   0  0  0  0  0  0  0  0  0  0  0  0
   -3.2352    2.1475   -0.0839 C   0  0  0  0  0  0  0  0  0  0  0  0
   -4.1522    3.3183   -0.2959 C   0  0  0  0  0  0  0  0  0  0  0  0
   -3.6416    0.8339   -0.3437 C   0  0  0  0  0  0  0  0  0  0  0  0
   -4.9179    0.4455   -0.8218 C   0  0  0  0  0  0  0  0  0  0  0  0
   -5.2327   -0.9007   -1.0529 C   0  0  0  0  0  0  0  0  0  0  0  0
   -6.5999   -1.2688   -1.5600 C   0  0  0  0  0  0  0  0  0  0  0  0
   -4.2551   -1.8741   -0.8007 C   0  0  0  0  0  0  0  0  0  0  0  0
   -4.5220   -3.3376   -1.0251 C   0  0  0  0  0  0  0  0  0  0  0  0
   -2.9940   -1.4694   -0.3269 C   0  0  0  0  0  0  0  0  0  0  0  0
   -2.6715   -0.1380   -0.0950 C   0  0  0  0  0  0  0  0  0  0  0  0
   -1.4460    0.1581    0.3568 N   0  0  0  0  0  0  0  0  0  0  0  0
    2.2725    1.5686    1.7692 N   0  0  0  0  0  0  0  0  0  0  0  0
    6.3580    1.1326   -1.3962 S   0  0  0  0  0  0  0  0  0  0  0  0
    7.7638   -2.1990   -2.2501 H   0  0  0  0  0  0  0  0  0  0  0  0
    6.6064   -1.2937   -3.2370 H   0  0  0  0  0  0  0  0  0  0  0  0
    8.2495   -0.6612   -2.9796 H   0  0  0  0  0  0  0  0  0  0  0  0
    5.3000    0.7790    3.0293 H   0  0  0  0  0  0  0  0  0  0  0  0
    4.3084    2.1928    3.3241 H   0  0  0  0  0  0  0  0  0  0  0  0
    4.1679   -1.2208    2.1660 H   0  0  0  0  0  0  0  0  0  0  0  0
    0.2095   -0.7306    0.8487 H   0  0  0  0  0  0  0  0  0  0  0  0
    0.2165    2.7940    1.1705 H   0  0  0  0  0  0  0  0  0  0  0  0
   -4.4555    3.3813   -1.3455 H   0  0  0  0  0  0  0  0  0  0  0  0
   -5.0397    3.2287    0.3382 H   0  0  0  0  0  0  0  0  0  0  0  0
   -3.6506    4.2568   -0.0368 H   0  0  0  0  0  0  0  0  0  0  0  0
   -5.6751    1.2027   -1.0160 H   0  0  0  0  0  0  0  0  0  0  0  0
   -7.2271   -0.3829   -1.7055 H   0  0  0  0  0  0  0  0  0  0  0  0
   -6.5230   -1.7793   -2.5251 H   0  0  0  0  0  0  0  0  0  0  0  0
   -7.1094   -1.9189   -0.8417 H   0  0  0  0  0  0  0  0  0  0  0  0
   -5.3535   -3.6730   -0.3974 H   0  0  0  0  0  0  0  0  0  0  0  0
   -3.6501   -3.9497   -0.7711 H   0  0  0  0  0  0  0  0  0  0  0  0
   -4.7597   -3.5234   -2.0773 H   0  0  0  0  0  0  0  0  0  0  0  0
   -2.2311   -2.2217   -0.1298 H   0  0  0  0  0  0  0  0  0  0  0  0
  1  2  1  0
  2  3  2  0
  3  4  1  0
  4  5  2  0
  5  6  1  0
  6  7  1  0
  7  8  1  0
  8  9  2  0
  9 10  1  0
 10 11  2  0
 10 12  1  0
 12 13  1  0
 13 14  1  0
 14 15  1  0
 15 16  2  0
 16 17  1  0
 17 18  1  0
 17 19  2  0
 19 20  1  0
 20 21  2  0
 21 22  1  0
 21 23  1  0
 23 24  1  0
 23 25  2  0
 25 26  1  0
 26 27  2  0
 13 28  2  0
  5 29  1  0
 29  2  1  0
 28  8  1  0
 27 15  1  0
 26 19  1  0
  1 30  1  0
  1 31  1  0
  1 32  1  0
  7 33  1  0
  7 34  1  0
  9 35  1  0
 12 36  1  0
 14 37  1  0
 18 38  1  0
 18 39  1  0
 18 40  1  0
 20 41  1  0
 22 42  1  0
 22 43  1  0
 22 44  1  0
 24 45  1  0
 24 46  1  0
 24 47  1  0
 25 48  1  0
M  END
$$$$
