
     RDKit          3D

 40 41  0  0  0  0  0  0  0  0999 V2000
   -0.0668    1.4530   -3.6333 C   0  0  0  0  0  0  0  0  0  0  0  0
   -0.4931    2.1898   -2.3713 C   0  0  0  0  0  0  0  0  0  0  0  0
   -0.7617    1.2774   -1.1912 C   0  0  0  0  0  0  0  0  0  0  0  0
   -2.0297    0.7219   -1.0087 C   0  0  0  0  0  0  0  0  0  0  0  0
   -3.1727    0.9681   -1.9530 C   0  0  0  0  0  0  0  0  0  0  0  0
   -2.3426   -0.0605    0.0480 N   0  0  0  0  0  0  0  0  0  0  0  0
   -1.4434   -0.3098    1.0192 C   0  0  0  0  0  0  0  0  0  0  0  0
   -1.8186   -1.0897    2.1343 C   0  0  0  0  0  0  0  0  0  0  0  0
   -3.1135   -1.5676    2.1176 O   0  0  0  0  0  0  0  0  0  0  0  0
   -3.5758   -2.2821    3.2536 C   0  0  0  0  0  0  0  0  0  0  0  0
   -0.9190   -1.3503    3.1738 C   0  0  0  0  0  0  0  0  0  0  0  0
    0.3628   -0.8272    3.1236 C   0  0  0  0  0  0  0  0  0  0  0  0
    0.7469   -0.0590    2.0293 C   0  0  0  0  0  0  0  0  0  0  0  0
   -0.1330    0.2019    0.9451 C   0  0  0  0  0  0  0  0  0  0  0  0
    0.2125    0.9618   -0.2160 C   0  0  0  0  0  0  0  0  0  0  0  0
    1.9171    1.5489   -0.4309 S   0  0  0  0  0  0  0  0  0  0  0  0
    2.6344    0.1163   -1.3238 C   0  0  0  0  0  0  0  0  0  0  0  0
    3.2432   -0.9454   -0.4219 C   0  0  0  0  0  0  0  0  0  0  0  0
    4.3873   -0.4304    0.3994 C   0  0  0  0  0  0  0  0  0  0  0  0
    4.4483   -0.4164    1.6176 O   0  0  0  0  0  0  0  0  0  0  0  0
    5.4206    0.0015   -0.3470 O   0  0  0  0  0  0  0  0  0  0  0  0
    0.9057    0.9712   -3.5113 H   0  0  0  0  0  0  0  0  0  0  0  0
   -0.7871    0.6808   -3.9189 H   0  0  0  0  0  0  0  0  0  0  0  0
    0.0190    2.1585   -4.4663 H   0  0  0  0  0  0  0  0  0  0  0  0
   -1.3911    2.7793   -2.5916 H   0  0  0  0  0  0  0  0  0  0  0  0
    0.2537    2.9499   -2.1174 H   0  0  0  0  0  0  0  0  0  0  0  0
   -4.0507    0.3821   -1.6594 H   0  0  0  0  0  0  0  0  0  0  0  0
   -3.4616    2.0233   -1.9369 H   0  0  0  0  0  0  0  0  0  0  0  0
   -2.9111    0.6721   -2.9721 H   0  0  0  0  0  0  0  0  0  0  0  0
   -4.6252   -2.5405    3.0818 H   0  0  0  0  0  0  0  0  0  0  0  0
   -3.5301   -1.6646    4.1567 H   0  0  0  0  0  0  0  0  0  0  0  0
   -3.0215   -3.2173    3.3831 H   0  0  0  0  0  0  0  0  0  0  0  0
   -1.1911   -1.9499    4.0352 H   0  0  0  0  0  0  0  0  0  0  0  0
    1.0662   -1.0115    3.9320 H   0  0  0  0  0  0  0  0  0  0  0  0
    1.7564    0.3475    2.0414 H   0  0  0  0  0  0  0  0  0  0  0  0
    3.3983    0.5186   -1.9978 H   0  0  0  0  0  0  0  0  0  0  0  0
    1.8678   -0.3459   -1.9529 H   0  0  0  0  0  0  0  0  0  0  0  0
    3.6226   -1.7766   -1.0285 H   0  0  0  0  0  0  0  0  0  0  0  0
    2.4937   -1.3794    0.2463 H   0  0  0  0  0  0  0  0  0  0  0  0
    6.0826    0.3001    0.3123 H   0  0  0  0  0  0  0  0  0  0  0  0
  1  2  1  0
  2  3  1  0
  3  4  2  0
  4  5  1  0
  4  6  1  0
  6  7  2  0
  7  8  1  0
  8  9  1  0
  9 10  1  0
  8 11  2  0
 11 12  1  0
 12 13  2  0
 13 14  1  0
 14 15  2  0
 15 16  1  0
 16 17  1  0
 17 18  1  0
 18 19  1  0
 19 20  2  0
 19 21  1  0
 15  3  1  0
 14  7  1  0
  1 22  1  0
  1 23  1  0
  1 24  1  0
  2 25  1  0
  2 26  1  0
  5 27  1  0
  5 28  1  0
  5 29  1  0
 10 30  1  0
 10 31  1  0
 10 32  1  0
 11 33  1  0
 12 34  1  0
 13 35  1  0
 17 36  1  0
 17 37  1  0
 18 38  1  0
 18 39  1  0
 21 40  1  0
M  END
$$$$
