
     RDKit          3D

 43 45  0  0  0  0  0  0  0  0999 V2000
    4.3252    2.7978   -0.4725 C   0  0  0  0  0  0  0  0  0  0  0  0
    3.5866    1.5135   -0.1881 C   0  0  0  0  0  0  0  0  0  0  0  0
    3.7174    0.4126   -1.1902 C   0  0  0  0  0  0  0  0  0  0  0  0
    3.0526   -0.7309   -0.9351 C   0  0  0  0  0  0  0  0  0  0  0  0
    3.1272   -1.8768   -1.8972 C   0  0  0  0  0  0  0  0  0  0  0  0
    2.2920   -0.8041    0.2470 N   0  0  0  0  0  0  0  0  0  0  0  0
    1.4780   -1.7549    0.8306 C   0  0  0  0  0  0  0  0  0  0  0  0
    1.0585   -3.2973    0.1593 S   0  0  0  0  0  0  0  0  0  0  0  0
   -0.7471   -3.2463    0.4534 C   0  0  0  0  0  0  0  0  0  0  0  0
   -1.3553   -2.0085   -0.2126 C   0  0  0  0  0  0  0  0  0  0  0  0
   -1.0183   -1.6949   -1.3609 O   0  0  0  0  0  0  0  0  0  0  0  0
   -2.2842   -1.2291    0.4931 N   0  0  0  0  0  0  0  0  0  0  0  0
   -2.6031   -1.4730    1.8973 C   0  0  0  0  0  0  0  0  0  0  0  0
   -2.5550    0.1053   -0.0741 C   0  0  0  0  0  0  0  0  0  0  0  0
   -3.8652    0.7799    0.3603 C   0  0  0  0  0  0  0  0  0  0  0  0
   -3.8545    2.1427   -0.3213 C   0  0  0  0  0  0  0  0  0  0  0  0
   -2.1584    2.6957   -0.2153 S   0  0  0  0  0  6  0  0  0  0  0  0
   -1.7134    3.0608   -1.5444 O   0  0  0  0  0  0  0  0  0  0  0  0
   -2.0456    3.5986    0.9111 O   0  0  0  0  0  0  0  0  0  0  0  0
   -1.4463    1.1198    0.2278 C   0  0  0  0  0  0  0  0  0  0  0  0
    0.9648   -1.3041    1.9521 N   0  0  0  0  0  0  0  0  0  0  0  0
    1.4291   -0.0327    2.1405 N   0  0  0  0  0  0  0  0  0  0  0  0
    2.2235    0.2773    1.1347 C   0  0  0  0  0  0  0  0  0  0  0  0
    2.8874    1.4445    0.9034 N   0  0  0  0  0  0  0  0  0  0  0  0
    4.8796    2.7446   -1.4128 H   0  0  0  0  0  0  0  0  0  0  0  0
    5.0283    2.9968    0.3415 H   0  0  0  0  0  0  0  0  0  0  0  0
    3.6067    3.6206   -0.5320 H   0  0  0  0  0  0  0  0  0  0  0  0
    4.3247    0.5736   -2.0718 H   0  0  0  0  0  0  0  0  0  0  0  0
    3.5358   -2.7691   -1.4131 H   0  0  0  0  0  0  0  0  0  0  0  0
    2.1419   -2.1000   -2.3177 H   0  0  0  0  0  0  0  0  0  0  0  0
    3.7858   -1.6510   -2.7441 H   0  0  0  0  0  0  0  0  0  0  0  0
   -0.8906   -3.2844    1.5313 H   0  0  0  0  0  0  0  0  0  0  0  0
   -1.2094   -4.1338    0.0116 H   0  0  0  0  0  0  0  0  0  0  0  0
   -3.5869   -1.0698    2.1435 H   0  0  0  0  0  0  0  0  0  0  0  0
   -2.6539   -2.5435    2.1051 H   0  0  0  0  0  0  0  0  0  0  0  0
   -1.8380   -1.0092    2.5247 H   0  0  0  0  0  0  0  0  0  0  0  0
   -2.6141   -0.0128   -1.1656 H   0  0  0  0  0  0  0  0  0  0  0  0
   -4.7453    0.1945    0.0767 H   0  0  0  0  0  0  0  0  0  0  0  0
   -3.8934    0.9299    1.4457 H   0  0  0  0  0  0  0  0  0  0  0  0
   -4.5112    2.8633    0.1701 H   0  0  0  0  0  0  0  0  0  0  0  0
   -4.1161    2.0572   -1.3800 H   0  0  0  0  0  0  0  0  0  0  0  0
   -0.5433    0.9491   -0.3623 H   0  0  0  0  0  0  0  0  0  0  0  0
   -1.1965    1.1480    1.2922 H   0  0  0  0  0  0  0  0  0  0  0  0
  1  2  1  0
  2  3  1  0
  3  4  2  0
  4  5  1  0
  4  6  1  0
  6  7  1  0
  7  8  1  0
  8  9  1  0
  9 10  1  0
 10 11  2  0
 10 12  1  0
 12 13  1  0
 12 14  1  0
 14 15  1  0
 15 16  1  0
 16 17  1  0
 17 18  2  0
 17 19  2  0
 17 20  1  0
  7 21  2  0
 21 22  1  0
 22 23  2  0
 23 24  1  0
 24  2  2  0
 23  6  1  0
 20 14  1  0
  1 25  1  0
  1 26  1  0
  1 27  1  0
  3 28  1  0
  5 29  1  0
  5 30  1  0
  5 31  1  0
  9 32  1  0
  9 33  1  0
 13 34  1  0
 13 35  1  0
 13 36  1  0
 14 37  1  0
 15 38  1  0
 15 39  1  0
 16 40  1  0
 16 41  1  0
 20 42  1  0
 20 43  1  0
M  END
$$$$
