
     RDKit          3D

 52 54  0  0  0  0  0  0  0  0999 V2000
    5.9858   -1.8230    0.3143 C   0  0  0  0  0  0  0  0  0  0  0  0
    5.3730   -0.7331   -0.4343 N   0  0  0  0  0  0  0  0  0  0  0  0
    4.9102   -1.0394   -1.7949 C   0  0  0  0  0  0  0  0  0  0  0  0
    6.0350   -1.3451   -2.7894 C   0  0  0  0  0  0  0  0  0  0  0  0
    6.7558   -0.1283   -3.1760 C   0  0  0  0  0  0  0  0  0  0  0  0
    7.3004    0.8459   -3.4915 N   0  0  0  0  0  0  0  0  0  0  0  0
    5.5530    0.5556    0.0760 C   0  0  0  0  0  0  0  0  0  0  0  0
    6.2916    0.7664    1.0415 O   0  0  0  0  0  0  0  0  0  0  0  0
    4.8294    1.7268   -0.6076 C   0  0  0  0  0  0  0  0  0  0  0  0
    3.4392    1.5391   -0.8744 O   0  0  0  0  0  0  0  0  0  0  0  0
    2.6506    1.4912    0.2249 C   0  0  0  0  0  0  0  0  0  0  0  0
    3.0186    1.5830    1.3822 O   0  0  0  0  0  0  0  0  0  0  0  0
    1.2298    1.2798   -0.1639 C   0  0  0  0  0  0  0  0  0  0  0  0
    0.7926    1.4005   -1.5079 C   0  0  0  0  0  0  0  0  0  0  0  0
   -0.5509    1.1994   -1.8498 C   0  0  0  0  0  0  0  0  0  0  0  0
   -1.4237    0.8835   -0.8270 C   0  0  0  0  0  0  0  0  0  0  0  0
   -1.0040    0.7678    0.4839 C   0  0  0  0  0  0  0  0  0  0  0  0
    0.3141    0.9603    0.8522 C   0  0  0  0  0  0  0  0  0  0  0  0
   -2.1714    0.4177    1.2903 C   0  0  0  0  0  0  0  0  0  0  0  0
   -2.1182    0.2033    2.4855 O   0  0  0  0  0  0  0  0  0  0  0  0
   -3.2420    0.3710    0.4357 N   0  0  0  0  0  0  0  0  0  0  0  0
   -4.6080    0.0104    0.8110 C   0  0  0  0  0  0  0  0  0  0  0  0
   -4.7011   -1.4537    1.2665 C   0  0  0  0  0  0  0  0  0  0  0  0
   -6.1317   -1.8319    1.6437 C   0  0  0  0  0  0  0  0  0  0  0  0
   -6.7088   -0.8825    2.6900 C   0  0  0  0  0  0  0  0  0  0  0  0
   -6.6175    0.5736    2.2421 C   0  0  0  0  0  0  0  0  0  0  0  0
   -5.1869    0.9589    1.8714 C   0  0  0  0  0  0  0  0  0  0  0  0
   -2.8583    0.6108   -0.8577 C   0  0  0  0  0  0  0  0  0  0  0  0
   -3.5185    0.6007   -1.8787 O   0  0  0  0  0  0  0  0  0  0  0  0
    7.0154   -1.9572   -0.0292 H   0  0  0  0  0  0  0  0  0  0  0  0
    5.9971   -1.6039    1.3861 H   0  0  0  0  0  0  0  0  0  0  0  0
    5.4159   -2.7430    0.1555 H   0  0  0  0  0  0  0  0  0  0  0  0
    4.2564   -1.9162   -1.7116 H   0  0  0  0  0  0  0  0  0  0  0  0
    4.2939   -0.2283   -2.1869 H   0  0  0  0  0  0  0  0  0  0  0  0
    5.5925   -1.7892   -3.6891 H   0  0  0  0  0  0  0  0  0  0  0  0
    6.7323   -2.0842   -2.3822 H   0  0  0  0  0  0  0  0  0  0  0  0
    4.9615    2.6294    0.0025 H   0  0  0  0  0  0  0  0  0  0  0  0
    5.3278    1.9252   -1.5610 H   0  0  0  0  0  0  0  0  0  0  0  0
    1.4966    1.6614   -2.2967 H   0  0  0  0  0  0  0  0  0  0  0  0
   -0.8979    1.2903   -2.8749 H   0  0  0  0  0  0  0  0  0  0  0  0
    0.6203    0.8644    1.8911 H   0  0  0  0  0  0  0  0  0  0  0  0
   -5.2266    0.1120   -0.0911 H   0  0  0  0  0  0  0  0  0  0  0  0
   -4.0464   -1.6286    2.1291 H   0  0  0  0  0  0  0  0  0  0  0  0
   -4.3461   -2.1164    0.4678 H   0  0  0  0  0  0  0  0  0  0  0  0
   -6.7624   -1.8128    0.7464 H   0  0  0  0  0  0  0  0  0  0  0  0
   -6.1526   -2.8585    2.0263 H   0  0  0  0  0  0  0  0  0  0  0  0
   -6.1654   -1.0079    3.6348 H   0  0  0  0  0  0  0  0  0  0  0  0
   -7.7550   -1.1426    2.8864 H   0  0  0  0  0  0  0  0  0  0  0  0
   -7.2740    0.7320    1.3777 H   0  0  0  0  0  0  0  0  0  0  0  0
   -6.9798    1.2286    3.0425 H   0  0  0  0  0  0  0  0  0  0  0  0
   -5.1700    1.9900    1.4979 H   0  0  0  0  0  0  0  0  0  0  0  0
   -4.5717    0.9468    2.7789 H   0  0  0  0  0  0  0  0  0  0  0  0
  1  2  1  0
  2  3  1  0
  3  4  1  0
  4  5  1  0
  5  6  3  0
  2  7  1  0
  7  8  2  0
  7  9  1  0
  9 10  1  0
 10 11  1  0
 11 12  2  0
 11 13  1  0
 13 14  2  0
 14 15  1  0
 15 16  2  0
 16 17  1  0
 17 18  2  0
 17 19  1  0
 19 20  2  0
 19 21  1  0
 21 22  1  0
 22 23  1  0
 23 24  1  0
 24 25  1  0
 25 26  1  0
 26 27  1  0
 21 28  1  0
 28 29  2  0
 18 13  1  0
 27 22  1  0
 28 16  1  0
  1 30  1  0
  1 31  1  0
  1 32  1  0
  3 33  1  0
  3 34  1  0
  4 35  1  0
  4 36  1  0
  9 37  1  0
  9 38  1  0
 14 39  1  0
 15 40  1  0
 18 41  1  0
 22 42  1  0
 23 43  1  0
 23 44  1  0
 24 45  1  0
 24 46  1  0
 25 47  1  0
 25 48  1  0
 26 49  1  0
 26 50  1  0
 27 51  1  0
 27 52  1  0
M  END
$$$$
