
     RDKit          3D

 43 46  0  0  0  0  0  0  0  0999 V2000
   -4.5841   -2.7835    0.0057 C   0  0  0  0  0  0  0  0  0  0  0  0
   -4.0377   -1.7293   -0.8358 N   0  0  0  0  0  0  0  0  0  0  0  0
   -4.6569   -1.4930   -2.0618 C   0  0  0  0  0  0  0  0  0  0  0  0
   -5.6260   -2.1304   -2.4669 O   0  0  0  0  0  0  0  0  0  0  0  0
   -4.0920   -0.3779   -2.9492 C   0  0  0  0  0  0  0  0  0  0  0  0
   -4.6298   -0.1621   -4.0325 O   0  0  0  0  0  0  0  0  0  0  0  0
   -2.9899    0.3351   -2.4805 N   0  0  0  0  0  0  0  0  0  0  0  0
   -2.4657    1.4008   -3.3229 C   0  0  0  0  0  0  0  0  0  0  0  0
   -2.3909    0.0488   -1.2230 C   0  0  0  0  0  0  0  0  0  0  0  0
   -1.2739    0.7791   -0.7785 C   0  0  0  0  0  0  0  0  0  0  0  0
   -0.6833    0.4916    0.4542 C   0  0  0  0  0  0  0  0  0  0  0  0
    0.7324    1.4187    1.0117 S   0  0  0  0  0  6  0  0  0  0  0  0
    0.3957    1.9013    2.3341 O   0  0  0  0  0  0  0  0  0  0  0  0
    1.1075    2.3270   -0.0535 O   0  0  0  0  0  0  0  0  0  0  0  0
    1.9229    0.1979    1.1147 N   0  0  0  0  0  0  0  0  0  0  0  0
    2.3188   -0.4400   -0.1912 C   0  0  0  0  0  0  0  0  0  0  0  0
    3.7950   -0.0903   -0.4376 C   0  0  0  0  0  0  0  0  0  0  0  0
    4.2376    0.3910    0.9021 C   0  0  0  0  0  0  0  0  0  0  0  0
    5.5264    0.6856    1.3180 C   0  0  0  0  0  0  0  0  0  0  0  0
    5.7083    1.1770    2.6127 C   0  0  0  0  0  0  0  0  0  0  0  0
    4.6096    1.3696    3.4645 C   0  0  0  0  0  0  0  0  0  0  0  0
    3.3144    1.0753    3.0311 C   0  0  0  0  0  0  0  0  0  0  0  0
    3.1482    0.5988    1.7428 C   0  0  0  0  0  0  0  0  0  0  0  0
   -1.1960   -0.5094    1.2706 C   0  0  0  0  0  0  0  0  0  0  0  0
   -2.3036   -1.2377    0.8378 C   0  0  0  0  0  0  0  0  0  0  0  0
   -2.9120   -0.9749   -0.4061 C   0  0  0  0  0  0  0  0  0  0  0  0
   -5.4472   -3.2736   -0.4535 H   0  0  0  0  0  0  0  0  0  0  0  0
   -3.8192   -3.5484    0.1738 H   0  0  0  0  0  0  0  0  0  0  0  0
   -4.9140   -2.3555    0.9577 H   0  0  0  0  0  0  0  0  0  0  0  0
   -1.4278    1.1768   -3.5893 H   0  0  0  0  0  0  0  0  0  0  0  0
   -3.0308    1.5081   -4.2530 H   0  0  0  0  0  0  0  0  0  0  0  0
   -2.5272    2.3529   -2.7862 H   0  0  0  0  0  0  0  0  0  0  0  0
   -0.8488    1.5805   -1.3764 H   0  0  0  0  0  0  0  0  0  0  0  0
    2.1968   -1.5245   -0.0772 H   0  0  0  0  0  0  0  0  0  0  0  0
    1.6974   -0.1329   -1.0373 H   0  0  0  0  0  0  0  0  0  0  0  0
    4.3593   -0.9631   -0.7780 H   0  0  0  0  0  0  0  0  0  0  0  0
    3.8839    0.7161   -1.1733 H   0  0  0  0  0  0  0  0  0  0  0  0
    6.3763    0.5470    0.6571 H   0  0  0  0  0  0  0  0  0  0  0  0
    6.7093    1.4167    2.9647 H   0  0  0  0  0  0  0  0  0  0  0  0
    4.7673    1.7511    4.4707 H   0  0  0  0  0  0  0  0  0  0  0  0
    2.4702    1.2139    3.6981 H   0  0  0  0  0  0  0  0  0  0  0  0
   -0.7446   -0.7228    2.2379 H   0  0  0  0  0  0  0  0  0  0  0  0
   -2.6758   -2.0115    1.5038 H   0  0  0  0  0  0  0  0  0  0  0  0
  1  2  1  0
  2  3  1  0
  3  4  2  0
  3  5  1  0
  5  6  2  0
  5  7  1  0
  7  8  1  0
  7  9  1  0
  9 10  2  0
 10 11  1  0
 11 12  1  0
 12 13  2  0
 12 14  2  0
 12 15  1  0
 15 16  1  0
 16 17  1  0
 17 18  1  0
 18 19  2  0
 19 20  1  0
 20 21  2  0
 21 22  1  0
 22 23  2  0
 11 24  2  0
 24 25  1  0
 25 26  2  0
 26  2  1  0
 26  9  1  0
 23 15  1  0
 23 18  1  0
  1 27  1  0
  1 28  1  0
  1 29  1  0
  8 30  1  0
  8 31  1  0
  8 32  1  0
 10 33  1  0
 16 34  1  0
 16 35  1  0
 17 36  1  0
 17 37  1  0
 19 38  1  0
 20 39  1  0
 21 40  1  0
 22 41  1  0
 24 42  1  0
 25 43  1  0
M  END
$$$$
