
     RDKit          3D

 61 65  0  0  0  0  0  0  0  0999 V2000
   -4.0249   -3.4310    1.0368 C   0  0  0  0  0  0  0  0  0  0  0  0
   -3.1088   -2.7494    0.1149 N   0  0  0  0  0  0  0  0  0  0  0  0
   -1.8243   -3.4617    0.0872 C   0  0  0  0  0  0  0  0  0  0  0  0
   -2.9437   -1.3385    0.5166 C   0  0  0  0  0  0  0  0  0  0  0  0
   -2.3735   -0.4518   -0.6093 C   0  0  0  0  0  0  0  0  0  0  0  0
   -2.0703    0.9210   -0.1363 N   0  0  0  0  0  0  0  0  0  0  0  0
   -0.8379    1.2375    0.4555 C   0  0  0  0  0  0  0  0  0  0  0  0
   -0.5377    2.2423    1.0972 O   0  0  0  0  0  0  0  0  0  0  0  0
    0.2605    0.2561    0.3365 C   0  0  0  0  0  0  0  0  0  0  0  0
    0.9488    0.1217   -0.8754 C   0  0  0  0  0  0  0  0  0  0  0  0
    1.9976   -0.7930   -0.9720 C   0  0  0  0  0  0  0  0  0  0  0  0
    2.3715   -1.5378    0.1542 C   0  0  0  0  0  0  0  0  0  0  0  0
    3.7059   -2.7224    0.0218 S   0  0  0  0  0  6  0  0  0  0  0  0
    3.7034   -3.2114   -1.3425 O   0  0  0  0  0  0  0  0  0  0  0  0
    3.5572   -3.6474    1.1297 O   0  0  0  0  0  0  0  0  0  0  0  0
    5.0972   -1.7886    0.3046 N   0  0  0  0  0  0  0  0  0  0  0  0
    5.2758   -1.2209    1.6798 C   0  0  0  0  0  0  0  0  0  0  0  0
    5.3407    0.3099    1.5139 C   0  0  0  0  0  0  0  0  0  0  0  0
    5.6045    0.4633    0.0506 C   0  0  0  0  0  0  0  0  0  0  0  0
    5.9401    1.6172   -0.6421 C   0  0  0  0  0  0  0  0  0  0  0  0
    6.1134    1.5314   -2.0263 C   0  0  0  0  0  0  0  0  0  0  0  0
    5.9490    0.3063   -2.6936 C   0  0  0  0  0  0  0  0  0  0  0  0
    5.6003   -0.8482   -1.9856 C   0  0  0  0  0  0  0  0  0  0  0  0
    5.4152   -0.7443   -0.6184 C   0  0  0  0  0  0  0  0  0  0  0  0
    1.6820   -1.4018    1.3668 C   0  0  0  0  0  0  0  0  0  0  0  0
    0.6322   -0.4878    1.4619 C   0  0  0  0  0  0  0  0  0  0  0  0
   -3.1330    1.8408   -0.1343 C   0  0  0  0  0  0  0  0  0  0  0  0
   -4.3586    1.4980   -0.4714 N   0  0  0  0  0  0  0  0  0  0  0  0
   -5.2081    2.5871   -0.4019 C   0  0  0  0  0  0  0  0  0  0  0  0
   -6.5921    2.5768   -0.6770 C   0  0  0  0  0  0  0  0  0  0  0  0
   -7.3295    3.7601   -0.5596 C   0  0  0  0  0  0  0  0  0  0  0  0
   -6.6987    4.9342   -0.1740 C   0  0  0  0  0  0  0  0  0  0  0  0
   -7.4225    6.0580   -0.0655 F   0  0  0  0  0  0  0  0  0  0  0  0
   -5.3337    4.9802    0.1013 C   0  0  0  0  0  0  0  0  0  0  0  0
   -4.6049    3.7863   -0.0228 C   0  0  0  0  0  0  0  0  0  0  0  0
   -2.9304    3.5016    0.2242 S   0  0  0  0  0  0  0  0  0  0  0  0
   -3.6582   -3.4200    2.0704 H   0  0  0  0  0  0  0  0  0  0  0  0
   -4.1719   -4.4735    0.7336 H   0  0  0  0  0  0  0  0  0  0  0  0
   -5.0141   -2.9586    1.0137 H   0  0  0  0  0  0  0  0  0  0  0  0
   -1.9696   -4.5038   -0.2187 H   0  0  0  0  0  0  0  0  0  0  0  0
   -1.1395   -3.0240   -0.6453 H   0  0  0  0  0  0  0  0  0  0  0  0
   -1.3298   -3.4587    1.0659 H   0  0  0  0  0  0  0  0  0  0  0  0
   -2.3244   -1.2661    1.4198 H   0  0  0  0  0  0  0  0  0  0  0  0
   -3.9226   -0.9227    0.7907 H   0  0  0  0  0  0  0  0  0  0  0  0
   -3.0814   -0.3963   -1.4457 H   0  0  0  0  0  0  0  0  0  0  0  0
   -1.4726   -0.8976   -1.0325 H   0  0  0  0  0  0  0  0  0  0  0  0
    0.6694    0.7224   -1.7385 H   0  0  0  0  0  0  0  0  0  0  0  0
    2.5214   -0.9140   -1.9185 H   0  0  0  0  0  0  0  0  0  0  0  0
    4.4925   -1.5098    2.3872 H   0  0  0  0  0  0  0  0  0  0  0  0
    6.2286   -1.6021    2.0740 H   0  0  0  0  0  0  0  0  0  0  0  0
    4.3791    0.7697    1.7703 H   0  0  0  0  0  0  0  0  0  0  0  0
    6.1332    0.7431    2.1289 H   0  0  0  0  0  0  0  0  0  0  0  0
    6.0695    2.5657   -0.1285 H   0  0  0  0  0  0  0  0  0  0  0  0
    6.3877    2.4196   -2.5936 H   0  0  0  0  0  0  0  0  0  0  0  0
    6.1031    0.2536   -3.7697 H   0  0  0  0  0  0  0  0  0  0  0  0
    5.4997   -1.7988   -2.5009 H   0  0  0  0  0  0  0  0  0  0  0  0
    1.9584   -1.9964    2.2360 H   0  0  0  0  0  0  0  0  0  0  0  0
    0.1064   -0.3524    2.4045 H   0  0  0  0  0  0  0  0  0  0  0  0
   -7.0729    1.6502   -0.9748 H   0  0  0  0  0  0  0  0  0  0  0  0
   -8.3951    3.7666   -0.7674 H   0  0  0  0  0  0  0  0  0  0  0  0
   -4.8597    5.9101    0.3934 H   0  0  0  0  0  0  0  0  0  0  0  0
  1  2  1  0
  2  3  1  0
  2  4  1  0
  4  5  1  0
  5  6  1  0
  6  7  1  0
  7  8  2  0
  7  9  1  0
  9 10  2  0
 10 11  1  0
 11 12  2  0
 12 13  1  0
 13 14  2  0
 13 15  2  0
 13 16  1  0
 16 17  1  0
 17 18  1  0
 18 19  1  0
 19 20  2  0
 20 21  1  0
 21 22  2  0
 22 23  1  0
 23 24  2  0
 12 25  1  0
 25 26  2  0
  6 27  1  0
 27 28  2  0
 28 29  1  0
 29 30  2  0
 30 31  1  0
 31 32  2  0
 32 33  1  0
 32 34  1  0
 34 35  2  0
 35 36  1  0
 26  9  1  0
 36 27  1  0
 24 16  1  0
 35 29  1  0
 24 19  1  0
  1 37  1  0
  1 38  1  0
  1 39  1  0
  3 40  1  0
  3 41  1  0
  3 42  1  0
  4 43  1  0
  4 44  1  0
  5 45  1  0
  5 46  1  0
 10 47  1  0
 11 48  1  0
 17 49  1  0
 17 50  1  0
 18 51  1  0
 18 52  1  0
 20 53  1  0
 21 54  1  0
 22 55  1  0
 23 56  1  0
 25 57  1  0
 26 58  1  0
 30 59  1  0
 31 60  1  0
 34 61  1  0
M  END
$$$$
