
     RDKit          3D

 47 50  0  0  0  0  0  0  0  0999 V2000
   -3.0475   -0.0780   -1.6277 O   0  0  0  0  0  0  0  0  0  0  0  0
   -3.2451    0.1217   -0.4159 C   0  0  0  0  0  0  0  0  0  0  0  0
   -4.5557    0.8211   -0.0195 C   0  0  0  0  0  0  0  0  0  0  0  0
   -4.5277    2.2461    0.5822 C   0  0  0  0  0  0  0  0  0  0  0  0
   -5.8370    1.8947    1.3157 C   0  0  0  0  0  0  0  0  0  0  0  0
   -5.4618    0.4064    1.1601 C   0  0  0  0  0  0  0  0  0  0  0  0
   -2.3004   -0.2451    0.5428 N   0  0  0  0  0  0  0  0  0  0  0  0
   -2.4047   -0.1281    2.0082 C   0  0  0  0  0  0  0  0  0  0  0  0
   -1.0138   -0.3896    2.5946 C   0  0  0  0  0  0  0  0  0  0  0  0
   -0.3236   -1.0332    1.4378 C   0  0  0  0  0  0  0  0  0  0  0  0
    0.9262   -1.6364    1.4411 C   0  0  0  0  0  0  0  0  0  0  0  0
    1.4145   -2.1257    0.2275 C   0  0  0  0  0  0  0  0  0  0  0  0
    3.0220   -2.8766    0.1591 S   0  0  0  0  0  6  0  0  0  0  0  0
    3.6588   -2.7288    1.4488 O   0  0  0  0  0  0  0  0  0  0  0  0
    2.8702   -4.1630   -0.4809 O   0  0  0  0  0  0  0  0  0  0  0  0
    3.8127   -1.8844   -0.9189 N   0  0  0  0  0  0  0  0  0  0  0  0
    4.3616   -0.6169   -0.4371 C   0  0  0  0  0  0  0  0  0  0  0  0
    4.4582    0.3986   -1.5553 C   0  0  0  0  0  0  0  0  0  0  0  0
    3.3220    1.0960   -1.9649 C   0  0  0  0  0  0  0  0  0  0  0  0
    3.4298    1.9935   -3.0231 C   0  0  0  0  0  0  0  0  0  0  0  0
    4.6591    2.1654   -3.6471 C   0  0  0  0  0  0  0  0  0  0  0  0
    5.7352    1.4250   -3.1883 C   0  0  0  0  0  0  0  0  0  0  0  0
    5.6620    0.5451   -2.1651 N   0  0  0  0  0  0  0  0  0  0  0  0
    0.6669   -2.0099   -0.9563 C   0  0  0  0  0  0  0  0  0  0  0  0
   -0.5855   -1.3858   -0.9389 C   0  0  0  0  0  0  0  0  0  0  0  0
   -1.0752   -0.9003    0.2648 C   0  0  0  0  0  0  0  0  0  0  0  0
   -5.1881    0.8431   -0.9280 H   0  0  0  0  0  0  0  0  0  0  0  0
   -4.6099    3.0608   -0.1435 H   0  0  0  0  0  0  0  0  0  0  0  0
   -3.6874    2.4650    1.2464 H   0  0  0  0  0  0  0  0  0  0  0  0
   -6.7397    2.1799    0.7636 H   0  0  0  0  0  0  0  0  0  0  0  0
   -5.9169    2.2592    2.3429 H   0  0  0  0  0  0  0  0  0  0  0  0
   -6.2953   -0.2515    0.8950 H   0  0  0  0  0  0  0  0  0  0  0  0
   -4.9828   -0.0020    2.0493 H   0  0  0  0  0  0  0  0  0  0  0  0
   -2.7901    0.8449    2.3142 H   0  0  0  0  0  0  0  0  0  0  0  0
   -3.0962   -0.9082    2.3464 H   0  0  0  0  0  0  0  0  0  0  0  0
   -1.0619   -1.0366    3.4750 H   0  0  0  0  0  0  0  0  0  0  0  0
   -0.5149    0.5509    2.8509 H   0  0  0  0  0  0  0  0  0  0  0  0
    1.5045   -1.7165    2.3572 H   0  0  0  0  0  0  0  0  0  0  0  0
    4.3200   -2.3620   -1.6623 H   0  0  0  0  0  0  0  0  0  0  0  0
    5.3631   -0.7976   -0.0303 H   0  0  0  0  0  0  0  0  0  0  0  0
    3.7495   -0.1927    0.3665 H   0  0  0  0  0  0  0  0  0  0  0  0
    2.3650    0.9382   -1.4768 H   0  0  0  0  0  0  0  0  0  0  0  0
    2.5593    2.5486   -3.3613 H   0  0  0  0  0  0  0  0  0  0  0  0
    4.7751    2.8555   -4.4753 H   0  0  0  0  0  0  0  0  0  0  0  0
    6.7153    1.5206   -3.6470 H   0  0  0  0  0  0  0  0  0  0  0  0
    1.0576   -2.4020   -1.8935 H   0  0  0  0  0  0  0  0  0  0  0  0
   -1.1472   -1.3095   -1.8637 H   0  0  0  0  0  0  0  0  0  0  0  0
  1  2  2  0
  2  3  1  0
  3  4  1  0
  4  5  1  0
  5  6  1  0
  2  7  1  0
  7  8  1  0
  8  9  1  0
  9 10  1  0
 10 11  2  0
 11 12  1  0
 12 13  1  0
 13 14  2  0
 13 15  2  0
 13 16  1  0
 16 17  1  0
 17 18  1  0
 18 19  2  0
 19 20  1  0
 20 21  2  0
 21 22  1  0
 22 23  2  0
 12 24  2  0
 24 25  1  0
 25 26  2  0
  6  3  1  0
 26  7  1  0
 26 10  1  0
 23 18  1  0
  3 27  1  0
  4 28  1  0
  4 29  1  0
  5 30  1  0
  5 31  1  0
  6 32  1  0
  6 33  1  0
  8 34  1  0
  8 35  1  0
  9 36  1  0
  9 37  1  0
 11 38  1  0
 16 39  1  0
 17 40  1  0
 17 41  1  0
 19 42  1  0
 20 43  1  0
 21 44  1  0
 22 45  1  0
 24 46  1  0
 25 47  1  0
M  END
$$$$
