
     RDKit          3D

 42 44  0  0  0  0  0  0  0  0999 V2000
    4.6346    0.2366    0.2963 C   0  0  0  0  0  0  0  0  0  0  0  0
    3.8143   -0.8856   -0.3215 C   0  0  0  0  0  0  0  0  0  0  0  0
    2.4257   -1.0496    0.3050 C   0  0  0  0  0  0  0  0  0  0  0  0
    1.4816    0.1176   -0.0015 C   0  0  0  0  0  0  0  0  0  0  0  0
    0.0915    0.0373    0.6879 C   0  0  0  0  0  0  0  0  0  0  0  0
   -0.7350   -1.1273    0.1789 C   0  0  0  0  0  0  0  0  0  0  0  0
   -1.7136   -0.9553   -0.7302 C   0  0  0  0  0  0  0  0  0  0  0  0
   -2.5282   -2.0685   -1.3209 C   0  0  0  0  0  0  0  0  0  0  0  0
   -1.8341   -3.4148   -1.1608 C   0  0  0  0  0  0  0  0  0  0  0  0
   -1.3975   -3.6285    0.2783 C   0  0  0  0  0  0  0  0  0  0  0  0
   -0.5571   -2.4768    0.7897 C   0  0  0  0  0  0  0  0  0  0  0  0
    0.2040   -2.6347    1.7425 O   0  0  0  0  0  0  0  0  0  0  0  0
   -2.0618    0.3046   -1.2027 O   0  0  0  0  0  0  0  0  0  0  0  0
   -1.6322    1.4187   -0.4913 C   0  0  0  0  0  0  0  0  0  0  0  0
   -0.6429    1.3381    0.4175 C   0  0  0  0  0  0  0  0  0  0  0  0
   -0.2474    2.5591    1.1761 C   0  0  0  0  0  0  0  0  0  0  0  0
    0.6228    2.5010    2.0424 O   0  0  0  0  0  0  0  0  0  0  0  0
   -0.8920    3.8776    0.8053 C   0  0  0  0  0  0  0  0  0  0  0  0
   -2.3238    3.6802    0.3359 C   0  0  0  0  0  0  0  0  0  0  0  0
   -2.3937    2.6731   -0.8060 C   0  0  0  0  0  0  0  0  0  0  0  0
    4.1999    1.2176    0.0855 H   0  0  0  0  0  0  0  0  0  0  0  0
    5.6486    0.2302   -0.1165 H   0  0  0  0  0  0  0  0  0  0  0  0
    4.7107    0.1167    1.3816 H   0  0  0  0  0  0  0  0  0  0  0  0
    3.7213   -0.7204   -1.4011 H   0  0  0  0  0  0  0  0  0  0  0  0
    4.3642   -1.8255   -0.1911 H   0  0  0  0  0  0  0  0  0  0  0  0
    2.5267   -1.1734    1.3895 H   0  0  0  0  0  0  0  0  0  0  0  0
    2.0005   -1.9766   -0.0939 H   0  0  0  0  0  0  0  0  0  0  0  0
    1.9727    1.0483    0.3041 H   0  0  0  0  0  0  0  0  0  0  0  0
    1.3520    0.1874   -1.0907 H   0  0  0  0  0  0  0  0  0  0  0  0
    0.2185   -0.0657    1.7732 H   0  0  0  0  0  0  0  0  0  0  0  0
   -3.5116   -2.0879   -0.8362 H   0  0  0  0  0  0  0  0  0  0  0  0
   -2.6952   -1.8829   -2.3885 H   0  0  0  0  0  0  0  0  0  0  0  0
   -0.9562   -3.4530   -1.8191 H   0  0  0  0  0  0  0  0  0  0  0  0
   -2.5050   -4.2221   -1.4749 H   0  0  0  0  0  0  0  0  0  0  0  0
   -2.2676   -3.7315    0.9362 H   0  0  0  0  0  0  0  0  0  0  0  0
   -0.8033   -4.5465    0.3421 H   0  0  0  0  0  0  0  0  0  0  0  0
   -0.2837    4.3488    0.0254 H   0  0  0  0  0  0  0  0  0  0  0  0
   -0.8878    4.5280    1.6867 H   0  0  0  0  0  0  0  0  0  0  0  0
   -2.7507    4.6374    0.0163 H   0  0  0  0  0  0  0  0  0  0  0  0
   -2.9355    3.3206    1.1739 H   0  0  0  0  0  0  0  0  0  0  0  0
   -1.9879    3.1134   -1.7246 H   0  0  0  0  0  0  0  0  0  0  0  0
   -3.4462    2.4342   -0.9991 H   0  0  0  0  0  0  0  0  0  0  0  0
  1  2  1  0
  2  3  1  0
  3  4  1  0
  4  5  1  0
  5  6  1  0
  6  7  2  0
  7  8  1  0
  8  9  1  0
  9 10  1  0
 10 11  1  0
 11 12  2  0
  7 13  1  0
 13 14  1  0
 14 15  2  0
 15 16  1  0
 16 17  2  0
 16 18  1  0
 18 19  1  0
 19 20  1  0
 15  5  1  0
 11  6  1  0
 20 14  1  0
  1 21  1  0
  1 22  1  0
  1 23  1  0
  2 24  1  0
  2 25  1  0
  3 26  1  0
  3 27  1  0
  4 28  1  0
  4 29  1  0
  5 30  1  0
  8 31  1  0
  8 32  1  0
  9 33  1  0
  9 34  1  0
 10 35  1  0
 10 36  1  0
 18 37  1  0
 18 38  1  0
 19 39  1  0
 19 40  1  0
 20 41  1  0
 20 42  1  0
M  END
$$$$
