
     RDKit          3D

 53 56  0  0  0  0  0  0  0  0999 V2000
    7.9169    0.4094    1.1634 C   0  0  0  0  0  0  0  0  0  0  0  0
    7.1244   -0.8069    1.6099 C   0  0  0  0  0  0  0  0  0  0  0  0
    5.8675   -0.4157    2.1607 O   0  0  0  0  0  0  0  0  0  0  0  0
    4.7797   -0.3635    1.3371 C   0  0  0  0  0  0  0  0  0  0  0  0
    4.7895   -0.4310   -0.0522 C   0  0  0  0  0  0  0  0  0  0  0  0
    3.5870   -0.3616   -0.7704 C   0  0  0  0  0  0  0  0  0  0  0  0
    2.3447   -0.2268   -0.1252 C   0  0  0  0  0  0  0  0  0  0  0  0
    1.0916   -0.1766   -0.9054 C   0  0  0  0  0  0  0  0  0  0  0  0
   -0.1031   -0.6989   -0.4423 C   0  0  0  0  0  0  0  0  0  0  0  0
   -1.2280   -0.6046   -1.2613 C   0  0  0  0  0  0  0  0  0  0  0  0
   -2.4881   -1.1769   -0.7482 C   0  0  0  0  0  0  0  0  0  0  0  0
   -2.9074   -2.2082   -1.2645 O   0  0  0  0  0  0  0  0  0  0  0  0
   -3.1182   -0.5284    0.3045 N   0  0  0  0  0  0  0  0  0  0  0  0
   -2.7580    0.8023    0.8129 C   0  0  0  0  0  0  0  0  0  0  0  0
   -3.9675    1.5223    1.4366 C   0  0  0  0  0  0  0  0  0  0  0  0
   -4.5799    0.7758    2.5527 N   0  0  0  0  0  0  0  0  0  0  0  0
   -5.9384    1.2508    2.8052 C   0  0  0  0  0  0  0  0  0  0  0  0
   -4.5415   -0.6875    2.3420 C   0  0  0  0  0  0  0  0  0  0  0  0
   -4.3138   -1.1376    0.8880 C   0  0  0  0  0  0  0  0  0  0  0  0
   -1.1601   -0.0203   -2.5401 C   0  0  0  0  0  0  0  0  0  0  0  0
   -2.2530    0.0947   -3.4351 C   0  0  0  0  0  0  0  0  0  0  0  0
   -2.0970    0.6989   -4.6803 C   0  0  0  0  0  0  0  0  0  0  0  0
   -0.8537    1.1949   -5.0461 C   0  0  0  0  0  0  0  0  0  0  0  0
    0.2248    1.0799   -4.1654 C   0  0  0  0  0  0  0  0  0  0  0  0
    0.0967    0.4803   -2.9195 C   0  0  0  0  0  0  0  0  0  0  0  0
    1.1813    0.4062   -2.1275 N   0  0  0  0  0  0  0  0  0  0  0  0
    2.3593   -0.1393    1.2765 C   0  0  0  0  0  0  0  0  0  0  0  0
    3.5600   -0.2047    1.9944 C   0  0  0  0  0  0  0  0  0  0  0  0
    8.9131    0.1155    0.8208 H   0  0  0  0  0  0  0  0  0  0  0  0
    7.4123    0.9389    0.3506 H   0  0  0  0  0  0  0  0  0  0  0  0
    8.0241    1.1226    1.9875 H   0  0  0  0  0  0  0  0  0  0  0  0
    7.0244   -1.5539    0.8143 H   0  0  0  0  0  0  0  0  0  0  0  0
    7.6759   -1.3016    2.4183 H   0  0  0  0  0  0  0  0  0  0  0  0
    5.7093   -0.5284   -0.6173 H   0  0  0  0  0  0  0  0  0  0  0  0
    3.6244   -0.4175   -1.8581 H   0  0  0  0  0  0  0  0  0  0  0  0
   -0.1707   -1.1948    0.5200 H   0  0  0  0  0  0  0  0  0  0  0  0
   -2.3491    1.4119    0.0014 H   0  0  0  0  0  0  0  0  0  0  0  0
   -1.9709    0.6638    1.5634 H   0  0  0  0  0  0  0  0  0  0  0  0
   -4.7051    1.6894    0.6400 H   0  0  0  0  0  0  0  0  0  0  0  0
   -3.6513    2.5074    1.7986 H   0  0  0  0  0  0  0  0  0  0  0  0
   -6.3504    0.7774    3.7033 H   0  0  0  0  0  0  0  0  0  0  0  0
   -6.6096    1.0395    1.9652 H   0  0  0  0  0  0  0  0  0  0  0  0
   -5.9421    2.3307    2.9898 H   0  0  0  0  0  0  0  0  0  0  0  0
   -3.7052   -1.0661    2.9444 H   0  0  0  0  0  0  0  0  0  0  0  0
   -5.4387   -1.1771    2.7404 H   0  0  0  0  0  0  0  0  0  0  0  0
   -5.1664   -0.8489    0.2615 H   0  0  0  0  0  0  0  0  0  0  0  0
   -4.2282   -2.2289    0.8455 H   0  0  0  0  0  0  0  0  0  0  0  0
   -3.2321   -0.3003   -3.1677 H   0  0  0  0  0  0  0  0  0  0  0  0
   -2.9414    0.7750   -5.3609 H   0  0  0  0  0  0  0  0  0  0  0  0
   -0.7148    1.6668   -6.0151 H   0  0  0  0  0  0  0  0  0  0  0  0
    1.1969    1.4688   -4.4616 H   0  0  0  0  0  0  0  0  0  0  0  0
    1.4378   -0.0025    1.8359 H   0  0  0  0  0  0  0  0  0  0  0  0
    3.5417   -0.1325    3.0797 H   0  0  0  0  0  0  0  0  0  0  0  0
  1  2  1  0
  2  3  1  0
  3  4  1  0
  4  5  2  0
  5  6  1  0
  6  7  2  0
  7  8  1  0
  8  9  2  0
  9 10  1  0
 10 11  1  0
 11 12  2  0
 11 13  1  0
 13 14  1  0
 14 15  1  0
 15 16  1  0
 16 17  1  0
 16 18  1  0
 18 19  1  0
 10 20  2  0
 20 21  1  0
 21 22  2  0
 22 23  1  0
 23 24  2  0
 24 25  1  0
 25 26  2  0
  7 27  1  0
 27 28  2  0
 28  4  1  0
 26  8  1  0
 19 13  1  0
 25 20  1  0
  1 29  1  0
  1 30  1  0
  1 31  1  0
  2 32  1  0
  2 33  1  0
  5 34  1  0
  6 35  1  0
  9 36  1  0
 14 37  1  0
 14 38  1  0
 15 39  1  0
 15 40  1  0
 17 41  1  0
 17 42  1  0
 17 43  1  0
 18 44  1  0
 18 45  1  0
 19 46  1  0
 19 47  1  0
 21 48  1  0
 22 49  1  0
 23 50  1  0
 24 51  1  0
 27 52  1  0
 28 53  1  0
M  END
$$$$
