
     RDKit          3D

 57 60  0  0  0  0  0  0  0  0999 V2000
    3.6011   -1.2662    2.2542 C   0  0  0  0  0  0  0  0  0  0  0  0
    4.4689   -0.1491    1.6920 C   0  0  0  0  0  0  0  0  0  0  0  0
    5.1820   -0.5575    0.4186 C   0  0  0  0  0  0  0  0  0  0  0  0
    6.5355   -0.9271    0.5392 C   0  0  0  0  0  0  0  0  0  0  0  0
    7.2641   -1.3462   -0.5657 C   0  0  0  0  0  0  0  0  0  0  0  0
    6.6551   -1.3838   -1.8126 C   0  0  0  0  0  0  0  0  0  0  0  0
    5.3076   -1.0079   -1.9794 C   0  0  0  0  0  0  0  0  0  0  0  0
    4.7936   -0.9929   -3.3938 C   0  0  0  0  0  0  0  0  0  0  0  0
    4.5458   -0.6389   -0.8465 C   0  0  0  0  0  0  0  0  0  0  0  0
    3.1783   -0.2730   -0.9209 N   0  0  0  0  0  0  0  0  0  0  0  0
    2.2039   -0.8871   -1.6885 C   0  0  0  0  0  0  0  0  0  0  0  0
    2.3268   -1.9042   -2.3575 O   0  0  0  0  0  0  0  0  0  0  0  0
    0.8588   -0.2518   -1.5938 C   0  0  0  0  0  0  0  0  0  0  0  0
    0.7178    1.1365   -1.4717 C   0  0  0  0  0  0  0  0  0  0  0  0
   -0.5560    1.7069   -1.3990 C   0  0  0  0  0  0  0  0  0  0  0  0
   -1.7010    0.8986   -1.4484 C   0  0  0  0  0  0  0  0  0  0  0  0
   -3.0843    1.5164   -1.4023 C   0  0  0  0  0  0  0  0  0  0  0  0
   -3.9265    0.9827   -0.3250 N   0  0  0  0  0  0  0  0  0  0  0  0
   -5.3364    1.3477   -0.5372 C   0  0  0  0  0  0  0  0  0  0  0  0
   -6.2906    1.1833    0.6674 C   0  0  0  0  0  0  0  0  0  0  0  0
   -5.6626    0.5950    1.9009 C   0  0  0  0  0  0  0  0  0  0  0  0
   -6.4425   -0.0159    2.8899 C   0  0  0  0  0  0  0  0  0  0  0  0
   -5.8419   -0.5185    4.0426 C   0  0  0  0  0  0  0  0  0  0  0  0
   -4.4643   -0.4004    4.2199 C   0  0  0  0  0  0  0  0  0  0  0  0
   -3.6826    0.2145    3.2426 C   0  0  0  0  0  0  0  0  0  0  0  0
   -4.2752    0.7096    2.0760 C   0  0  0  0  0  0  0  0  0  0  0  0
   -3.4644    1.3962    1.0035 C   0  0  0  0  0  0  0  0  0  0  0  0
   -1.5486   -0.4905   -1.5815 C   0  0  0  0  0  0  0  0  0  0  0  0
   -0.2778   -1.0626   -1.6590 C   0  0  0  0  0  0  0  0  0  0  0  0
    2.7672   -1.5044    1.5871 H   0  0  0  0  0  0  0  0  0  0  0  0
    3.1824   -0.9693    3.2209 H   0  0  0  0  0  0  0  0  0  0  0  0
    4.1808   -2.1823    2.4045 H   0  0  0  0  0  0  0  0  0  0  0  0
    5.2067    0.1359    2.4541 H   0  0  0  0  0  0  0  0  0  0  0  0
    3.8771    0.7566    1.5233 H   0  0  0  0  0  0  0  0  0  0  0  0
    7.0288   -0.9000    1.5072 H   0  0  0  0  0  0  0  0  0  0  0  0
    8.3064   -1.6336   -0.4593 H   0  0  0  0  0  0  0  0  0  0  0  0
    7.2457   -1.6914   -2.6751 H   0  0  0  0  0  0  0  0  0  0  0  0
    4.0299   -0.2249   -3.5434 H   0  0  0  0  0  0  0  0  0  0  0  0
    4.4058   -1.9747   -3.6701 H   0  0  0  0  0  0  0  0  0  0  0  0
    5.6003   -0.7461   -4.0922 H   0  0  0  0  0  0  0  0  0  0  0  0
    2.8124    0.2420   -0.1333 H   0  0  0  0  0  0  0  0  0  0  0  0
    1.5882    1.7866   -1.4649 H   0  0  0  0  0  0  0  0  0  0  0  0
   -0.6494    2.7876   -1.3156 H   0  0  0  0  0  0  0  0  0  0  0  0
   -3.0131    2.6096   -1.3260 H   0  0  0  0  0  0  0  0  0  0  0  0
   -3.5459    1.3054   -2.3767 H   0  0  0  0  0  0  0  0  0  0  0  0
   -5.4229    2.3871   -0.8919 H   0  0  0  0  0  0  0  0  0  0  0  0
   -5.7244    0.7246   -1.3539 H   0  0  0  0  0  0  0  0  0  0  0  0
   -7.1494    0.5752    0.3615 H   0  0  0  0  0  0  0  0  0  0  0  0
   -6.6716    2.1722    0.9408 H   0  0  0  0  0  0  0  0  0  0  0  0
   -7.5176   -0.1051    2.7653 H   0  0  0  0  0  0  0  0  0  0  0  0
   -6.4491   -1.0054    4.8026 H   0  0  0  0  0  0  0  0  0  0  0  0
   -3.9994   -0.7931    5.1199 H   0  0  0  0  0  0  0  0  0  0  0  0
   -2.6103    0.2986    3.3929 H   0  0  0  0  0  0  0  0  0  0  0  0
   -3.5448    2.4816    1.1362 H   0  0  0  0  0  0  0  0  0  0  0  0
   -2.4131    1.1250    1.1416 H   0  0  0  0  0  0  0  0  0  0  0  0
   -2.4282   -1.1311   -1.6229 H   0  0  0  0  0  0  0  0  0  0  0  0
   -0.1771   -2.1403   -1.7691 H   0  0  0  0  0  0  0  0  0  0  0  0
  1  2  1  0
  2  3  1  0
  3  4  2  0
  4  5  1  0
  5  6  2  0
  6  7  1  0
  7  8  1  0
  7  9  2  0
  9 10  1  0
 10 11  1  0
 11 12  2  0
 11 13  1  0
 13 14  2  0
 14 15  1  0
 15 16  2  0
 16 17  1  0
 17 18  1  0
 18 19  1  0
 19 20  1  0
 20 21  1  0
 21 22  2  0
 22 23  1  0
 23 24  2  0
 24 25  1  0
 25 26  2  0
 26 27  1  0
 16 28  1  0
 28 29  2  0
  9  3  1  0
 29 13  1  0
 27 18  1  0
 26 21  1  0
  1 30  1  0
  1 31  1  0
  1 32  1  0
  2 33  1  0
  2 34  1  0
  4 35  1  0
  5 36  1  0
  6 37  1  0
  8 38  1  0
  8 39  1  0
  8 40  1  0
 10 41  1  0
 14 42  1  0
 15 43  1  0
 17 44  1  0
 17 45  1  0
 19 46  1  0
 19 47  1  0
 20 48  1  0
 20 49  1  0
 22 50  1  0
 23 51  1  0
 24 52  1  0
 25 53  1  0
 27 54  1  0
 27 55  1  0
 28 56  1  0
 29 57  1  0
M  END
$$$$
