
     RDKit          3D

 49 52  0  0  0  0  0  0  0  0999 V2000
   -1.4528    5.4935    0.9147 C   0  0  0  0  0  0  0  0  0  0  0  0
   -1.2158    4.1250    0.3486 C   0  0  0  0  0  0  0  0  0  0  0  0
   -1.2007    3.9219   -1.0350 C   0  0  0  0  0  0  0  0  0  0  0  0
   -1.0100    2.6418   -1.5622 C   0  0  0  0  0  0  0  0  0  0  0  0
   -0.8343    1.5356   -0.7159 C   0  0  0  0  0  0  0  0  0  0  0  0
   -0.6561    0.1506   -1.3199 C   0  0  0  0  0  0  0  0  0  0  0  0
   -1.9805   -0.6149   -1.3351 C   0  0  0  0  0  0  0  0  0  0  0  0
   -1.6866   -1.6885   -0.3241 C   0  0  0  0  0  0  0  0  0  0  0  0
   -2.7325   -2.6293    0.1417 C   0  0  0  0  0  0  0  0  0  0  0  0
   -4.0329   -2.5927   -0.3744 C   0  0  0  0  0  0  0  0  0  0  0  0
   -4.9948   -3.4950    0.0883 C   0  0  0  0  0  0  0  0  0  0  0  0
   -4.6629   -4.4345    1.0636 C   0  0  0  0  0  0  0  0  0  0  0  0
   -3.3690   -4.4763    1.5794 C   0  0  0  0  0  0  0  0  0  0  0  0
   -2.4053   -3.5767    1.1200 C   0  0  0  0  0  0  0  0  0  0  0  0
   -0.4531   -1.7424    0.0789 N   0  0  0  0  0  0  0  0  0  0  0  0
    0.2181   -0.7207   -0.5303 N   0  0  0  0  0  0  0  0  0  0  0  0
    1.6080   -0.6407   -0.4623 C   0  0  0  0  0  0  0  0  0  0  0  0
    2.3462   -1.5901    0.2704 C   0  0  0  0  0  0  0  0  0  0  0  0
    3.7404   -1.5344    0.3661 C   0  0  0  0  0  0  0  0  0  0  0  0
    4.4260   -0.5040   -0.2718 C   0  0  0  0  0  0  0  0  0  0  0  0
    6.1893   -0.4190   -0.1387 S   0  0  0  0  0  6  0  0  0  0  0  0
    6.3749    0.3522    1.3484 N   0  0  0  0  0  0  0  0  0  0  0  0
    6.6829    0.5177   -1.1226 O   0  0  0  0  0  0  0  0  0  0  0  0
    6.7077   -1.7600   -0.0142 O   0  0  0  0  0  0  0  0  0  0  0  0
    3.7339    0.4474   -1.0176 C   0  0  0  0  0  0  0  0  0  0  0  0
    2.3380    0.3741   -1.1048 C   0  0  0  0  0  0  0  0  0  0  0  0
   -0.8739    1.7440    0.6713 C   0  0  0  0  0  0  0  0  0  0  0  0
   -1.0644    3.0240    1.1973 C   0  0  0  0  0  0  0  0  0  0  0  0
   -0.9522    5.6083    1.8818 H   0  0  0  0  0  0  0  0  0  0  0  0
   -1.0535    6.2661    0.2491 H   0  0  0  0  0  0  0  0  0  0  0  0
   -2.5257    5.6621    1.0492 H   0  0  0  0  0  0  0  0  0  0  0  0
   -1.3375    4.7617   -1.7130 H   0  0  0  0  0  0  0  0  0  0  0  0
   -1.0011    2.5170   -2.6430 H   0  0  0  0  0  0  0  0  0  0  0  0
   -0.2783    0.2374   -2.3468 H   0  0  0  0  0  0  0  0  0  0  0  0
   -2.8494   -0.0134   -1.0544 H   0  0  0  0  0  0  0  0  0  0  0  0
   -2.1504   -1.0856   -2.3094 H   0  0  0  0  0  0  0  0  0  0  0  0
   -4.3223   -1.8764   -1.1370 H   0  0  0  0  0  0  0  0  0  0  0  0
   -6.0049   -3.4662   -0.3133 H   0  0  0  0  0  0  0  0  0  0  0  0
   -5.4128   -5.1359    1.4215 H   0  0  0  0  0  0  0  0  0  0  0  0
   -3.1077   -5.2091    2.3389 H   0  0  0  0  0  0  0  0  0  0  0  0
   -1.3983   -3.6202    1.5302 H   0  0  0  0  0  0  0  0  0  0  0  0
    1.8228   -2.3991    0.7774 H   0  0  0  0  0  0  0  0  0  0  0  0
    4.2718   -2.2950    0.9338 H   0  0  0  0  0  0  0  0  0  0  0  0
    5.5009    0.4301    1.8680 H   0  0  0  0  0  0  0  0  0  0  0  0
    6.8078    1.2640    1.1928 H   0  0  0  0  0  0  0  0  0  0  0  0
    4.2609    1.2478   -1.5321 H   0  0  0  0  0  0  0  0  0  0  0  0
    1.8318    1.1394   -1.6861 H   0  0  0  0  0  0  0  0  0  0  0  0
   -0.7504    0.9054    1.3555 H   0  0  0  0  0  0  0  0  0  0  0  0
   -1.0912    3.1533    2.2771 H   0  0  0  0  0  0  0  0  0  0  0  0
  1  2  1  0
  2  3  2  0
  3  4  1  0
  4  5  2  0
  5  6  1  0
  6  7  1  0
  7  8  1  0
  8  9  1  0
  9 10  2  0
 10 11  1  0
 11 12  2  0
 12 13  1  0
 13 14  2  0
  8 15  2  0
 15 16  1  0
 16 17  1  0
 17 18  2  0
 18 19  1  0
 19 20  2  0
 20 21  1  0
 21 22  1  0
 21 23  2  0
 21 24  2  0
 20 25  1  0
 25 26  2  0
  5 27  1  0
 27 28  2  0
 28  2  1  0
 16  6  1  0
 26 17  1  0
 14  9  1  0
  1 29  1  0
  1 30  1  0
  1 31  1  0
  3 32  1  0
  4 33  1  0
  6 34  1  0
  7 35  1  0
  7 36  1  0
 10 37  1  0
 11 38  1  0
 12 39  1  0
 13 40  1  0
 14 41  1  0
 18 42  1  0
 19 43  1  0
 22 44  1  0
 22 45  1  0
 25 46  1  0
 26 47  1  0
 27 48  1  0
 28 49  1  0
M  END
$$$$
