
     RDKit          3D

 36 37  0  0  0  0  0  0  0  0999 V2000
    5.6797   -1.2956   -0.5190 C   0  0  0  0  0  0  0  0  0  0  0  0
    4.3235   -0.8683   -0.2258 N   0  0  0  0  0  0  0  0  0  0  0  0
    3.3801   -0.4826   -1.1618 C   0  0  0  0  0  0  0  0  0  0  0  0
    3.7029   -0.4375   -2.8128 S   0  0  0  0  0  0  0  0  0  0  0  0
    2.1469   -0.1187   -0.5929 N   0  0  0  0  0  0  0  0  0  0  0  0
    1.9885    0.1630    0.8443 C   0  0  0  0  0  0  0  0  0  0  0  0
    0.9048    1.1942    1.1567 C   0  0  0  0  0  0  0  0  0  0  0  0
   -0.3991    0.7530    0.5572 C   0  0  0  0  0  0  0  0  0  0  0  0
   -1.6200    0.9740    1.2065 C   0  0  0  0  0  0  0  0  0  0  0  0
   -2.8202    0.5610    0.6175 C   0  0  0  0  0  0  0  0  0  0  0  0
   -4.0601    0.7265    1.1847 O   0  0  0  0  0  0  0  0  0  0  0  0
   -4.1295    1.3840    2.4411 C   0  0  0  0  0  0  0  0  0  0  0  0
   -2.7961   -0.0696   -0.6428 C   0  0  0  0  0  0  0  0  0  0  0  0
   -4.0159   -0.4403   -1.1539 O   0  0  0  0  0  0  0  0  0  0  0  0
   -4.0324   -1.1031   -2.4097 C   0  0  0  0  0  0  0  0  0  0  0  0
   -1.5726   -0.2690   -1.2938 C   0  0  0  0  0  0  0  0  0  0  0  0
   -0.3685    0.1334   -0.6972 C   0  0  0  0  0  0  0  0  0  0  0  0
    0.9398   -0.0192   -1.4384 C   0  0  0  0  0  0  0  0  0  0  0  0
    6.2128   -1.4092    0.4283 H   0  0  0  0  0  0  0  0  0  0  0  0
    6.1877   -0.5488   -1.1343 H   0  0  0  0  0  0  0  0  0  0  0  0
    5.6498   -2.2565   -1.0395 H   0  0  0  0  0  0  0  0  0  0  0  0
    3.9379   -1.2648    0.6182 H   0  0  0  0  0  0  0  0  0  0  0  0
    2.9359    0.5225    1.2604 H   0  0  0  0  0  0  0  0  0  0  0  0
    1.7530   -0.7942    1.3269 H   0  0  0  0  0  0  0  0  0  0  0  0
    1.1733    2.1723    0.7399 H   0  0  0  0  0  0  0  0  0  0  0  0
    0.8152    1.3022    2.2436 H   0  0  0  0  0  0  0  0  0  0  0  0
   -1.6087    1.4681    2.1721 H   0  0  0  0  0  0  0  0  0  0  0  0
   -3.7516    2.4094    2.3726 H   0  0  0  0  0  0  0  0  0  0  0  0
   -5.1828    1.4376    2.7329 H   0  0  0  0  0  0  0  0  0  0  0  0
   -3.5999    0.8167    3.2135 H   0  0  0  0  0  0  0  0  0  0  0  0
   -5.0736   -1.3403   -2.6489 H   0  0  0  0  0  0  0  0  0  0  0  0
   -3.4786   -2.0467   -2.3669 H   0  0  0  0  0  0  0  0  0  0  0  0
   -3.6495   -0.4536   -3.2036 H   0  0  0  0  0  0  0  0  0  0  0  0
   -1.5293   -0.7313   -2.2749 H   0  0  0  0  0  0  0  0  0  0  0  0
    0.8947   -0.9209   -2.0609 H   0  0  0  0  0  0  0  0  0  0  0  0
    1.0618    0.8522   -2.0932 H   0  0  0  0  0  0  0  0  0  0  0  0
  1  2  1  0
  2  3  1  0
  3  4  2  0
  3  5  1  0
  5  6  1  0
  6  7  1  0
  7  8  1  0
  8  9  2  0
  9 10  1  0
 10 11  1  0
 11 12  1  0
 10 13  2  0
 13 14  1  0
 14 15  1  0
 13 16  1  0
 16 17  2  0
 17 18  1  0
 18  5  1  0
 17  8  1  0
  1 19  1  0
  1 20  1  0
  1 21  1  0
  2 22  1  0
  6 23  1  0
  6 24  1  0
  7 25  1  0
  7 26  1  0
  9 27  1  0
 12 28  1  0
 12 29  1  0
 12 30  1  0
 15 31  1  0
 15 32  1  0
 15 33  1  0
 16 34  1  0
 18 35  1  0
 18 36  1  0
M  END
$$$$
