
     RDKit          3D

 49 51  0  0  0  0  0  0  0  0999 V2000
   -8.4762    1.9476    4.5599 C   0  0  0  0  0  0  0  0  0  0  0  0
   -8.4296    1.8092    3.1454 O   0  0  0  0  0  0  0  0  0  0  0  0
   -7.1937    1.6895    2.5752 C   0  0  0  0  0  0  0  0  0  0  0  0
   -7.1976    1.5862    1.1840 C   0  0  0  0  0  0  0  0  0  0  0  0
   -6.0021    1.4555    0.4672 C   0  0  0  0  0  0  0  0  0  0  0  0
   -4.7806    1.4259    1.1373 C   0  0  0  0  0  0  0  0  0  0  0  0
   -3.5297    1.2865    0.4993 N   0  0  0  0  0  0  0  0  0  0  0  0
   -3.2870    1.2109   -0.8616 C   0  0  0  0  0  0  0  0  0  0  0  0
   -4.1082    1.3073   -1.7643 O   0  0  0  0  0  0  0  0  0  0  0  0
   -1.8445    1.0211   -1.1933 C   0  0  0  0  0  0  0  0  0  0  0  0
   -1.2796    1.8919   -2.1654 C   0  0  0  0  0  0  0  0  0  0  0  0
   -0.7772    2.6174   -2.9199 N   0  0  0  0  0  0  0  0  0  0  0  0
   -1.1896   -0.0095   -0.6226 C   0  0  0  0  0  0  0  0  0  0  0  0
    0.2135   -0.3803   -0.8498 C   0  0  0  0  0  0  0  0  0  0  0  0
    1.2631    0.5257   -0.6603 C   0  0  0  0  0  0  0  0  0  0  0  0
    2.5927    0.1296   -0.8560 C   0  0  0  0  0  0  0  0  0  0  0  0
    2.8869   -1.1803   -1.2317 C   0  0  0  0  0  0  0  0  0  0  0  0
    4.1327   -1.6971   -1.4526 O   0  0  0  0  0  0  0  0  0  0  0  0
    5.2412   -0.8021   -1.3320 C   0  0  0  0  0  0  0  0  0  0  0  0
    6.5258   -1.5237   -1.6545 C   0  0  0  0  0  0  0  0  0  0  0  0
    6.5843   -2.5547   -2.6038 C   0  0  0  0  0  0  0  0  0  0  0  0
    7.8001   -3.1758   -2.9043 C   0  0  0  0  0  0  0  0  0  0  0  0
    8.9730   -2.7669   -2.2701 C   0  0  0  0  0  0  0  0  0  0  0  0
    8.9312   -1.7315   -1.3391 C   0  0  0  0  0  0  0  0  0  0  0  0
    7.7164   -1.1176   -1.0450 C   0  0  0  0  0  0  0  0  0  0  0  0
    7.7019   -0.1109   -0.1590 F   0  0  0  0  0  0  0  0  0  0  0  0
    1.8415   -2.0892   -1.4047 C   0  0  0  0  0  0  0  0  0  0  0  0
    0.5142   -1.6965   -1.2122 C   0  0  0  0  0  0  0  0  0  0  0  0
   -4.7783    1.5279    2.5342 C   0  0  0  0  0  0  0  0  0  0  0  0
   -5.9758    1.6598    3.2500 C   0  0  0  0  0  0  0  0  0  0  0  0
   -8.0717    1.0595    5.0569 H   0  0  0  0  0  0  0  0  0  0  0  0
   -9.5263    2.0430    4.8522 H   0  0  0  0  0  0  0  0  0  0  0  0
   -7.9558    2.8548    4.8853 H   0  0  0  0  0  0  0  0  0  0  0  0
   -8.1425    1.6066    0.6450 H   0  0  0  0  0  0  0  0  0  0  0  0
   -6.0697    1.3763   -0.6132 H   0  0  0  0  0  0  0  0  0  0  0  0
   -2.7274    1.2734    1.1167 H   0  0  0  0  0  0  0  0  0  0  0  0
   -1.7202   -0.6898    0.0429 H   0  0  0  0  0  0  0  0  0  0  0  0
    1.0699    1.5524   -0.3567 H   0  0  0  0  0  0  0  0  0  0  0  0
    3.3698    0.8716   -0.7033 H   0  0  0  0  0  0  0  0  0  0  0  0
    5.2842   -0.4275   -0.3020 H   0  0  0  0  0  0  0  0  0  0  0  0
    5.1355    0.0326   -2.0358 H   0  0  0  0  0  0  0  0  0  0  0  0
    5.6804   -2.8823   -3.1142 H   0  0  0  0  0  0  0  0  0  0  0  0
    7.8302   -3.9790   -3.6369 H   0  0  0  0  0  0  0  0  0  0  0  0
    9.9173   -3.2509   -2.5056 H   0  0  0  0  0  0  0  0  0  0  0  0
    9.8361   -1.3955   -0.8429 H   0  0  0  0  0  0  0  0  0  0  0  0
    2.0624   -3.1142   -1.6940 H   0  0  0  0  0  0  0  0  0  0  0  0
   -0.2758   -2.4301   -1.3583 H   0  0  0  0  0  0  0  0  0  0  0  0
   -3.8460    1.5081    3.0929 H   0  0  0  0  0  0  0  0  0  0  0  0
   -5.9195    1.7348    4.3306 H   0  0  0  0  0  0  0  0  0  0  0  0
  1  2  1  0
  2  3  1  0
  3  4  2  0
  4  5  1  0
  5  6  2  0
  6  7  1  0
  7  8  1  0
  8  9  2  0
  8 10  1  0
 10 11  1  0
 11 12  3  0
 10 13  2  3
 13 14  1  0
 14 15  2  0
 15 16  1  0
 16 17  2  0
 17 18  1  0
 18 19  1  0
 19 20  1  0
 20 21  2  0
 21 22  1  0
 22 23  2  0
 23 24  1  0
 24 25  2  0
 25 26  1  0
 17 27  1  0
 27 28  2  0
  6 29  1  0
 29 30  2  0
 30  3  1  0
 28 14  1  0
 25 20  1  0
  1 31  1  0
  1 32  1  0
  1 33  1  0
  4 34  1  0
  5 35  1  0
  7 36  1  0
 13 37  1  0
 15 38  1  0
 16 39  1  0
 19 40  1  0
 19 41  1  0
 21 42  1  0
 22 43  1  0
 23 44  1  0
 24 45  1  0
 27 46  1  0
 28 47  1  0
 29 48  1  0
 30 49  1  0
M  END
$$$$
