
     RDKit          3D

 48 50  0  0  0  0  0  0  0  0999 V2000
   -1.0726    0.9383   -1.0349 O   0  0  0  0  0  0  0  0  0  0  0  0
   -1.1148    0.1957   -0.0501 C   0  0  0  0  0  0  0  0  0  0  0  0
   -0.0325    0.2530    1.0285 C   0  0  0  0  0  0  0  0  0  0  0  0
    1.2836    0.5637    0.4018 N   0  0  0  0  0  0  0  0  0  0  0  0
    1.9138    1.7639    0.8691 C   0  0  0  0  0  0  0  0  0  0  0  0
    2.6932    1.7960    2.0243 C   0  0  0  0  0  0  0  0  0  0  0  0
    3.2109    3.0106    2.4770 C   0  0  0  0  0  0  0  0  0  0  0  0
    2.9309    4.1991    1.7932 C   0  0  0  0  0  0  0  0  0  0  0  0
    3.6045    5.6569    2.4255 Cl  0  0  0  0  0  0  0  0  0  0  0  0
    2.1219    4.1878    0.6506 C   0  0  0  0  0  0  0  0  0  0  0  0
    1.7927    5.4516   -0.0949 C   0  0  0  0  0  0  0  0  0  0  0  0
    1.1119    6.3520    0.6672 F   0  0  0  0  0  0  0  0  0  0  0  0
    1.0047    5.2405   -1.1888 F   0  0  0  0  0  0  0  0  0  0  0  0
    2.8938    6.0989   -0.5650 F   0  0  0  0  0  0  0  0  0  0  0  0
    1.6061    2.9552    0.2064 C   0  0  0  0  0  0  0  0  0  0  0  0
    2.3186   -0.7652    0.1384 S   0  0  0  0  0  6  0  0  0  0  0  0
    2.4347   -1.4765    1.3978 O   0  0  0  0  0  0  0  0  0  0  0  0
    3.4970   -0.3213   -0.5755 O   0  0  0  0  0  0  0  0  0  0  0  0
    1.3879   -1.7864   -0.9784 C   0  0  0  0  0  0  0  0  0  0  0  0
    0.9725   -3.0616   -0.5844 C   0  0  0  0  0  0  0  0  0  0  0  0
    0.2422   -3.8485   -1.4749 C   0  0  0  0  0  0  0  0  0  0  0  0
   -0.0650   -3.3630   -2.7476 C   0  0  0  0  0  0  0  0  0  0  0  0
    0.3593   -2.0915   -3.1375 C   0  0  0  0  0  0  0  0  0  0  0  0
    1.0930   -1.2998   -2.2551 C   0  0  0  0  0  0  0  0  0  0  0  0
   -2.1471   -0.7134    0.1221 N   0  0  0  0  0  0  0  0  0  0  0  0
   -3.1242   -0.8959   -0.9539 C   0  0  0  0  0  0  0  0  0  0  0  0
   -3.6737   -2.3254   -0.9557 C   0  0  0  0  0  0  0  0  0  0  0  0
   -4.2813   -2.7210    0.2832 O   0  0  0  0  0  0  0  0  0  0  0  0
   -3.8406   -1.9697    1.4197 C   0  0  0  0  0  0  0  0  0  0  0  0
   -2.3781   -1.5230    1.3218 C   0  0  0  0  0  0  0  0  0  0  0  0
    0.0303   -0.6876    1.5803 H   0  0  0  0  0  0  0  0  0  0  0  0
   -0.3283    1.0262    1.7475 H   0  0  0  0  0  0  0  0  0  0  0  0
    2.9128    0.8879    2.5801 H   0  0  0  0  0  0  0  0  0  0  0  0
    3.8334    3.0235    3.3694 H   0  0  0  0  0  0  0  0  0  0  0  0
    0.9651    2.9173   -0.6757 H   0  0  0  0  0  0  0  0  0  0  0  0
    1.2186   -3.4521    0.4003 H   0  0  0  0  0  0  0  0  0  0  0  0
   -0.0820   -4.8446   -1.1822 H   0  0  0  0  0  0  0  0  0  0  0  0
   -0.6300   -3.9809   -3.4419 H   0  0  0  0  0  0  0  0  0  0  0  0
    0.1213   -1.7175   -4.1306 H   0  0  0  0  0  0  0  0  0  0  0  0
    1.4209   -0.3077   -2.5598 H   0  0  0  0  0  0  0  0  0  0  0  0
   -2.6737   -0.6618   -1.9238 H   0  0  0  0  0  0  0  0  0  0  0  0
   -3.9322   -0.1785   -0.7695 H   0  0  0  0  0  0  0  0  0  0  0  0
   -2.8681   -3.0386   -1.1616 H   0  0  0  0  0  0  0  0  0  0  0  0
   -4.4238   -2.4432   -1.7440 H   0  0  0  0  0  0  0  0  0  0  0  0
   -3.9865   -2.5944    2.3065 H   0  0  0  0  0  0  0  0  0  0  0  0
   -4.4997   -1.0993    1.5207 H   0  0  0  0  0  0  0  0  0  0  0  0
   -1.7221   -2.3970    1.2418 H   0  0  0  0  0  0  0  0  0  0  0  0
   -2.0990   -0.9524    2.2124 H   0  0  0  0  0  0  0  0  0  0  0  0
  1  2  2  0
  2  3  1  0
  3  4  1  0
  4  5  1  0
  5  6  2  0
  6  7  1  0
  7  8  2  0
  8  9  1  0
  8 10  1  0
 10 11  1  0
 11 12  1  0
 11 13  1  0
 11 14  1  0
 10 15  2  0
  4 16  1  0
 16 17  2  0
 16 18  2  0
 16 19  1  0
 19 20  2  0
 20 21  1  0
 21 22  2  0
 22 23  1  0
 23 24  2  0
  2 25  1  0
 25 26  1  0
 26 27  1  0
 27 28  1  0
 28 29  1  0
 29 30  1  0
 15  5  1  0
 24 19  1  0
 30 25  1  0
  3 31  1  0
  3 32  1  0
  6 33  1  0
  7 34  1  0
 15 35  1  0
 20 36  1  0
 21 37  1  0
 22 38  1  0
 23 39  1  0
 24 40  1  0
 26 41  1  0
 26 42  1  0
 27 43  1  0
 27 44  1  0
 29 45  1  0
 29 46  1  0
 30 47  1  0
 30 48  1  0
M  END
$$$$
