
     RDKit          3D

 67 70  0  0  0  0  0  0  0  0999 V2000
   -1.8816    0.6920    4.4088 C   0  0  0  0  0  0  0  0  0  0  0  0
   -1.4006    0.4076    3.1017 O   0  0  0  0  0  0  0  0  0  0  0  0
   -1.7896    1.2281    2.0728 C   0  0  0  0  0  0  0  0  0  0  0  0
   -2.7752    2.2206    2.2024 C   0  0  0  0  0  0  0  0  0  0  0  0
   -3.1394    3.0280    1.1174 C   0  0  0  0  0  0  0  0  0  0  0  0
   -4.0913    4.0161    1.1719 O   0  0  0  0  0  0  0  0  0  0  0  0
   -4.8118    4.1811    2.3866 C   0  0  0  0  0  0  0  0  0  0  0  0
   -2.5044    2.8432   -0.1198 C   0  0  0  0  0  0  0  0  0  0  0  0
   -2.8345    3.6435   -1.2985 C   0  0  0  0  0  0  0  0  0  0  0  0
   -2.2155    3.4298   -2.4620 C   0  0  0  0  0  0  0  0  0  0  0  0
   -1.1792    2.4011   -2.6163 C   0  0  0  0  0  0  0  0  0  0  0  0
   -0.6164    2.2285   -3.6904 O   0  0  0  0  0  0  0  0  0  0  0  0
   -0.8780    1.6604   -1.4856 O   0  0  0  0  0  0  0  0  0  0  0  0
   -1.5253    1.8497   -0.2394 C   0  0  0  0  0  0  0  0  0  0  0  0
   -1.1486    1.0190    0.8339 C   0  0  0  0  0  0  0  0  0  0  0  0
   -0.0926   -0.0853    0.6734 C   0  0  0  0  0  0  0  0  0  0  0  0
    1.3045    0.5116    0.3593 C   0  0  0  0  0  0  0  0  0  0  0  0
    2.4347   -0.5049    0.6026 C   0  0  0  0  0  0  0  0  0  0  0  0
    3.7641    0.0262    0.2576 N   0  0  0  0  0  0  0  0  0  0  0  0
    4.1528    1.1727    1.0963 C   0  0  0  0  0  0  0  0  0  0  0  0
    5.6698    1.3643    1.2386 C   0  0  0  0  0  0  0  0  0  0  0  0
    6.4052    0.9247   -0.0176 C   0  0  0  0  0  0  0  0  0  0  0  0
    6.0811   -0.5300   -0.3618 C   0  0  0  0  0  0  0  0  0  0  0  0
    4.7791   -1.0287    0.2756 C   0  0  0  0  0  0  0  0  0  0  0  0
   -0.5832   -1.2140   -0.2326 C   0  0  0  0  0  0  0  0  0  0  0  0
   -0.1888   -1.3627   -1.5629 C   0  0  0  0  0  0  0  0  0  0  0  0
   -0.6832   -2.4148   -2.3514 C   0  0  0  0  0  0  0  0  0  0  0  0
   -1.6005   -3.3602   -1.8635 C   0  0  0  0  0  0  0  0  0  0  0  0
   -2.0766   -4.4199   -2.6480 N   0  0  0  0  0  0  0  0  0  0  0  0
   -3.3039   -5.0975   -2.2324 C   0  0  0  0  0  0  0  0  0  0  0  0
   -1.8288   -4.3984   -4.0888 C   0  0  0  0  0  0  0  0  0  0  0  0
   -1.9764   -3.1994   -0.5196 C   0  0  0  0  0  0  0  0  0  0  0  0
   -1.4903   -2.1507    0.2766 C   0  0  0  0  0  0  0  0  0  0  0  0
   -2.9612    0.5206    4.4749 H   0  0  0  0  0  0  0  0  0  0  0  0
   -1.3926    0.0006    5.1027 H   0  0  0  0  0  0  0  0  0  0  0  0
   -1.6200    1.7104    4.7157 H   0  0  0  0  0  0  0  0  0  0  0  0
   -3.2671    2.3595    3.1561 H   0  0  0  0  0  0  0  0  0  0  0  0
   -5.3673    3.2730    2.6420 H   0  0  0  0  0  0  0  0  0  0  0  0
   -4.1472    4.4845    3.2018 H   0  0  0  0  0  0  0  0  0  0  0  0
   -5.5397    4.9841    2.2364 H   0  0  0  0  0  0  0  0  0  0  0  0
   -3.5963    4.4114   -1.2128 H   0  0  0  0  0  0  0  0  0  0  0  0
   -2.4474    4.0072   -3.3482 H   0  0  0  0  0  0  0  0  0  0  0  0
    0.0486   -0.5671    1.6501 H   0  0  0  0  0  0  0  0  0  0  0  0
    1.4606    1.3800    1.0124 H   0  0  0  0  0  0  0  0  0  0  0  0
    1.3668    0.8869   -0.6676 H   0  0  0  0  0  0  0  0  0  0  0  0
    2.2420   -1.3881   -0.0161 H   0  0  0  0  0  0  0  0  0  0  0  0
    2.4186   -0.8405    1.6475 H   0  0  0  0  0  0  0  0  0  0  0  0
    3.7290    2.0793    0.6478 H   0  0  0  0  0  0  0  0  0  0  0  0
    3.7353    1.0893    2.1080 H   0  0  0  0  0  0  0  0  0  0  0  0
    6.0355    0.7789    2.0919 H   0  0  0  0  0  0  0  0  0  0  0  0
    5.8907    2.4149    1.4570 H   0  0  0  0  0  0  0  0  0  0  0  0
    6.1068    1.5690   -0.8541 H   0  0  0  0  0  0  0  0  0  0  0  0
    7.4872    1.0500    0.1040 H   0  0  0  0  0  0  0  0  0  0  0  0
    6.9023   -1.1786   -0.0323 H   0  0  0  0  0  0  0  0  0  0  0  0
    6.0271   -0.6298   -1.4531 H   0  0  0  0  0  0  0  0  0  0  0  0
    4.4446   -1.9039   -0.2959 H   0  0  0  0  0  0  0  0  0  0  0  0
    4.9635   -1.3735    1.3021 H   0  0  0  0  0  0  0  0  0  0  0  0
    0.5065   -0.6660   -2.0252 H   0  0  0  0  0  0  0  0  0  0  0  0
   -0.3213   -2.4602   -3.3739 H   0  0  0  0  0  0  0  0  0  0  0  0
   -3.5917   -5.8730   -2.9509 H   0  0  0  0  0  0  0  0  0  0  0  0
   -3.1693   -5.6124   -1.2757 H   0  0  0  0  0  0  0  0  0  0  0  0
   -4.1382   -4.3914   -2.1579 H   0  0  0  0  0  0  0  0  0  0  0  0
   -0.7567   -4.3878   -4.3095 H   0  0  0  0  0  0  0  0  0  0  0  0
   -2.3125   -3.5354   -4.5581 H   0  0  0  0  0  0  0  0  0  0  0  0
   -2.2221   -5.3016   -4.5677 H   0  0  0  0  0  0  0  0  0  0  0  0
   -2.6607   -3.8946   -0.0443 H   0  0  0  0  0  0  0  0  0  0  0  0
   -1.8295   -2.0772    1.3081 H   0  0  0  0  0  0  0  0  0  0  0  0
  1  2  1  0
  2  3  1  0
  3  4  2  0
  4  5  1  0
  5  6  1  0
  6  7  1  0
  5  8  2  0
  8  9  1  0
  9 10  2  0
 10 11  1  0
 11 12  2  0
 11 13  1  0
 13 14  1  0
 14 15  2  0
 15 16  1  0
 16 17  1  0
 17 18  1  0
 18 19  1  0
 19 20  1  0
 20 21  1  0
 21 22  1  0
 22 23  1  0
 23 24  1  0
 16 25  1  0
 25 26  2  0
 26 27  1  0
 27 28  2  0
 28 29  1  0
 29 30  1  0
 29 31  1  0
 28 32  1  0
 32 33  2  0
 15  3  1  0
 24 19  1  0
 33 25  1  0
 14  8  1  0
  1 34  1  0
  1 35  1  0
  1 36  1  0
  4 37  1  0
  7 38  1  0
  7 39  1  0
  7 40  1  0
  9 41  1  0
 10 42  1  0
 16 43  1  0
 17 44  1  0
 17 45  1  0
 18 46  1  0
 18 47  1  0
 20 48  1  0
 20 49  1  0
 21 50  1  0
 21 51  1  0
 22 52  1  0
 22 53  1  0
 23 54  1  0
 23 55  1  0
 24 56  1  0
 24 57  1  0
 26 58  1  0
 27 59  1  0
 30 60  1  0
 30 61  1  0
 30 62  1  0
 31 63  1  0
 31 64  1  0
 31 65  1  0
 32 66  1  0
 33 67  1  0
M  END
$$$$
