
     RDKit          3D

 30 33  0  0  0  0  0  0  0  0999 V2000
    1.8610    1.2062   -0.0940 O   0  0  0  0  0  0  0  0  0  0  0  0
    1.4498    0.0922    0.1642 C   0  0  0  0  0  0  0  0  0  0  0  0
    2.1751   -1.2019    0.4217 C   0  0  0  0  0  0  0  0  0  0  0  0
    3.4959   -1.4073    0.5322 C   0  0  0  0  0  0  0  0  0  0  0  0
    4.4719   -0.3783    0.5253 C   0  0  0  0  0  0  0  0  0  0  0  0
    5.7630   -0.4124    0.0103 C   0  0  0  0  0  0  0  0  0  0  0  0
    6.3680    0.8407    0.2691 C   0  0  0  0  0  0  0  0  0  0  0  0
    5.4298    1.5738    0.9480 C   0  0  0  0  0  0  0  0  0  0  0  0
    4.3015    0.8464    1.1242 O   0  0  0  0  0  0  0  0  0  0  0  0
    1.0515   -2.5666    0.5590 S   0  0  0  0  0  0  0  0  0  0  0  0
   -0.2697   -1.4925    0.3964 C   0  0  0  0  0  0  0  0  0  0  0  0
   -1.5648   -1.6178    0.3805 N   0  0  0  0  0  0  0  0  0  0  0  0
   -1.9744   -0.3012    0.1889 C   0  0  0  0  0  0  0  0  0  0  0  0
   -3.3864    0.0403    0.0752 C   0  0  0  0  0  0  0  0  0  0  0  0
   -4.1982   -0.7929   -0.7173 C   0  0  0  0  0  0  0  0  0  0  0  0
   -5.5574   -0.5224   -0.8896 C   0  0  0  0  0  0  0  0  0  0  0  0
   -6.1280    0.5825   -0.2665 C   0  0  0  0  0  0  0  0  0  0  0  0
   -5.3425    1.4101    0.5360 C   0  0  0  0  0  0  0  0  0  0  0  0
   -3.9774    1.1421    0.7135 C   0  0  0  0  0  0  0  0  0  0  0  0
   -3.0378    2.2969    1.8991 Br  0  0  0  0  0  0  0  0  0  0  0  0
   -0.9652    0.5816    0.0341 N   0  0  0  0  0  0  0  0  0  0  0  0
    0.1047   -0.2143    0.2052 N   0  0  0  0  0  0  0  0  0  0  0  0
    3.8746   -2.4190    0.6565 H   0  0  0  0  0  0  0  0  0  0  0  0
    6.2113   -1.2499   -0.5068 H   0  0  0  0  0  0  0  0  0  0  0  0
    7.3613    1.1674   -0.0039 H   0  0  0  0  0  0  0  0  0  0  0  0
    5.4082    2.5742    1.3575 H   0  0  0  0  0  0  0  0  0  0  0  0
   -3.7669   -1.6618   -1.2126 H   0  0  0  0  0  0  0  0  0  0  0  0
   -6.1669   -1.1749   -1.5101 H   0  0  0  0  0  0  0  0  0  0  0  0
   -7.1858    0.7970   -0.3976 H   0  0  0  0  0  0  0  0  0  0  0  0
   -5.8062    2.2618    1.0289 H   0  0  0  0  0  0  0  0  0  0  0  0
  1  2  2  0
  2  3  1  0
  3  4  2  3
  4  5  1  0
  5  6  2  0
  6  7  1  0
  7  8  2  0
  8  9  1  0
  3 10  1  0
 10 11  1  0
 11 12  2  0
 12 13  1  0
 13 14  1  0
 14 15  2  0
 15 16  1  0
 16 17  2  0
 17 18  1  0
 18 19  2  0
 19 20  1  0
 13 21  2  0
 21 22  1  0
 22  2  1  0
  9  5  1  0
 22 11  1  0
 19 14  1  0
  4 23  1  0
  6 24  1  0
  7 25  1  0
  8 26  1  0
 15 27  1  0
 16 28  1  0
 17 29  1  0
 18 30  1  0
M  END
$$$$
