
     RDKit          3D

 53 55  0  0  0  0  0  0  0  0999 V2000
    7.0296   -1.3414    3.0613 C   0  0  0  0  0  0  0  0  0  0  0  0
    7.0765   -0.3954    2.0008 O   0  0  0  0  0  0  0  0  0  0  0  0
    6.0011   -0.3550    1.1566 C   0  0  0  0  0  0  0  0  0  0  0  0
    6.1116    0.5707    0.1196 C   0  0  0  0  0  0  0  0  0  0  0  0
    5.0860    0.7175   -0.8166 C   0  0  0  0  0  0  0  0  0  0  0  0
    3.9246   -0.0624   -0.7290 C   0  0  0  0  0  0  0  0  0  0  0  0
    2.8808    0.0727   -1.6603 C   0  0  0  0  0  0  0  0  0  0  0  0
    1.7163   -0.7058   -1.5662 C   0  0  0  0  0  0  0  0  0  0  0  0
    0.5938   -0.5231   -2.5774 C   0  0  0  0  0  0  0  0  0  0  0  0
    0.5027   -1.7354   -3.5065 C   0  0  0  0  0  0  0  0  0  0  0  0
   -0.7577   -0.2213   -1.9055 C   0  0  0  0  0  0  0  0  0  0  0  0
   -1.7471   -0.9267   -2.0846 O   0  0  0  0  0  0  0  0  0  0  0  0
   -0.7153    0.9145   -1.1062 N   0  0  0  0  0  0  0  0  0  0  0  0
   -1.7933    1.5102   -0.4229 C   0  0  0  0  0  0  0  0  0  0  0  0
   -1.4871    2.4720    0.5496 C   0  0  0  0  0  0  0  0  0  0  0  0
   -2.5003    3.1002    1.2798 C   0  0  0  0  0  0  0  0  0  0  0  0
   -3.8330    2.7739    1.0431 C   0  0  0  0  0  0  0  0  0  0  0  0
   -4.1405    1.8200    0.0700 C   0  0  0  0  0  0  0  0  0  0  0  0
   -5.8426    1.4257   -0.2771 S   0  0  0  0  0  6  0  0  0  0  0  0
   -6.6593    2.4100    0.4039 O   0  0  0  0  0  0  0  0  0  0  0  0
   -5.9594    1.2275   -1.7058 O   0  0  0  0  0  0  0  0  0  0  0  0
   -6.0677   -0.0686    0.5058 N   0  0  0  0  0  0  0  0  0  0  0  0
   -6.0228   -0.0566    1.9774 C   0  0  0  0  0  0  0  0  0  0  0  0
   -5.4073   -1.2464   -0.0861 C   0  0  0  0  0  0  0  0  0  0  0  0
   -3.1297    1.2060   -0.6788 C   0  0  0  0  0  0  0  0  0  0  0  0
    1.6123   -1.6406   -0.5288 C   0  0  0  0  0  0  0  0  0  0  0  0
    2.6434   -1.7847    0.4021 C   0  0  0  0  0  0  0  0  0  0  0  0
    3.8050   -1.0022    0.3183 C   0  0  0  0  0  0  0  0  0  0  0  0
    4.8493   -1.1380    1.2528 C   0  0  0  0  0  0  0  0  0  0  0  0
    6.9696   -2.3646    2.6759 H   0  0  0  0  0  0  0  0  0  0  0  0
    6.2019   -1.1263    3.7451 H   0  0  0  0  0  0  0  0  0  0  0  0
    7.9611   -1.2537    3.6288 H   0  0  0  0  0  0  0  0  0  0  0  0
    7.0068    1.1826    0.0376 H   0  0  0  0  0  0  0  0  0  0  0  0
    5.2065    1.4463   -1.6147 H   0  0  0  0  0  0  0  0  0  0  0  0
    2.9821    0.7927   -2.4712 H   0  0  0  0  0  0  0  0  0  0  0  0
    0.8135    0.3516   -3.2055 H   0  0  0  0  0  0  0  0  0  0  0  0
    1.4575   -1.9163   -4.0125 H   0  0  0  0  0  0  0  0  0  0  0  0
    0.2339   -2.6476   -2.9618 H   0  0  0  0  0  0  0  0  0  0  0  0
   -0.2612   -1.5771   -4.2759 H   0  0  0  0  0  0  0  0  0  0  0  0
    0.2070    1.2745   -0.8871 H   0  0  0  0  0  0  0  0  0  0  0  0
   -0.4542    2.7401    0.7600 H   0  0  0  0  0  0  0  0  0  0  0  0
   -2.2478    3.8455    2.0305 H   0  0  0  0  0  0  0  0  0  0  0  0
   -4.6197    3.2712    1.6065 H   0  0  0  0  0  0  0  0  0  0  0  0
   -4.9963    0.0519    2.3388 H   0  0  0  0  0  0  0  0  0  0  0  0
   -6.6405    0.7483    2.3847 H   0  0  0  0  0  0  0  0  0  0  0  0
   -6.4289   -0.9960    2.3668 H   0  0  0  0  0  0  0  0  0  0  0  0
   -4.3586   -1.3063    0.2172 H   0  0  0  0  0  0  0  0  0  0  0  0
   -5.4729   -1.2366   -1.1772 H   0  0  0  0  0  0  0  0  0  0  0  0
   -5.9164   -2.1550    0.2525 H   0  0  0  0  0  0  0  0  0  0  0  0
   -3.4094    0.5102   -1.4643 H   0  0  0  0  0  0  0  0  0  0  0  0
    0.7262   -2.2668   -0.4336 H   0  0  0  0  0  0  0  0  0  0  0  0
    2.5312   -2.5198    1.1967 H   0  0  0  0  0  0  0  0  0  0  0  0
    4.7386   -1.8663    2.0497 H   0  0  0  0  0  0  0  0  0  0  0  0
  1  2  1  0
  2  3  1  0
  3  4  2  0
  4  5  1  0
  5  6  2  0
  6  7  1  0
  7  8  2  0
  8  9  1  0
  9 10  1  0
  9 11  1  0
 11 12  2  0
 11 13  1  0
 13 14  1  0
 14 15  2  0
 15 16  1  0
 16 17  2  0
 17 18  1  0
 18 19  1  0
 19 20  2  0
 19 21  2  0
 19 22  1  0
 22 23  1  0
 22 24  1  0
 18 25  2  0
  8 26  1  0
 26 27  2  0
 27 28  1  0
 28 29  2  0
 29  3  1  0
 28  6  1  0
 25 14  1  0
  1 30  1  0
  1 31  1  0
  1 32  1  0
  4 33  1  0
  5 34  1  0
  7 35  1  0
  9 36  1  0
 10 37  1  0
 10 38  1  0
 10 39  1  0
 13 40  1  0
 15 41  1  0
 16 42  1  0
 17 43  1  0
 23 44  1  0
 23 45  1  0
 23 46  1  0
 24 47  1  0
 24 48  1  0
 24 49  1  0
 25 50  1  0
 26 51  1  0
 27 52  1  0
 29 53  1  0
M  END
$$$$
