
     RDKit          3D

 47 50  0  0  0  0  0  0  0  0999 V2000
   -6.3180   -1.5446   -0.9363 C   0  0  0  0  0  0  0  0  0  0  0  0
   -5.9408   -1.3525    0.5246 C   0  0  0  0  0  0  0  0  0  0  0  0
   -5.0849   -0.1727    0.7085 N   0  0  0  0  0  0  0  0  0  0  0  0
   -5.7733    1.1148    0.8823 C   0  0  0  0  0  0  0  0  0  0  0  0
   -5.6175    2.0097   -0.3402 C   0  0  0  0  0  0  0  0  0  0  0  0
   -3.6974   -0.2770    0.7312 C   0  0  0  0  0  0  0  0  0  0  0  0
   -2.8753    0.7565    1.2130 C   0  0  0  0  0  0  0  0  0  0  0  0
   -1.4753    0.6594    1.2384 C   0  0  0  0  0  0  0  0  0  0  0  0
   -0.8403   -0.4869    0.7688 C   0  0  0  0  0  0  0  0  0  0  0  0
    0.6178   -0.6231    0.7932 C   0  0  0  0  0  0  0  0  0  0  0  0
    1.4859    0.0955    0.0676 C   0  0  0  0  0  0  0  0  0  0  0  0
    1.1198    1.3514   -1.0929 S   0  0  0  0  0  0  0  0  0  0  0  0
    2.7965    1.5433   -1.3976 C   0  0  0  0  0  0  0  0  0  0  0  0
    3.5038    2.2734   -2.2110 N   0  0  0  0  0  0  0  0  0  0  0  0
    4.8280    1.9248   -1.9785 N   0  0  0  0  0  0  0  0  0  0  0  0
    4.8693    1.0127   -1.0128 C   0  0  0  0  0  0  0  0  0  0  0  0
    6.0685    0.3995   -0.4568 C   0  0  0  0  0  0  0  0  0  0  0  0
    6.8944   -0.3460   -1.3134 C   0  0  0  0  0  0  0  0  0  0  0  0
    8.0540   -0.9581   -0.8324 C   0  0  0  0  0  0  0  0  0  0  0  0
    8.4079   -0.8244    0.5080 C   0  0  0  0  0  0  0  0  0  0  0  0
    7.6090   -0.0690    1.3666 C   0  0  0  0  0  0  0  0  0  0  0  0
    6.4478    0.5469    0.8878 C   0  0  0  0  0  0  0  0  0  0  0  0
    5.5410    1.5176    1.9990 Cl  0  0  0  0  0  0  0  0  0  0  0  0
    3.5772    0.7243   -0.6592 N   0  0  0  0  0  0  0  0  0  0  0  0
    2.9518   -0.1607    0.1828 C   0  0  0  0  0  0  0  0  0  0  0  0
    3.5492   -0.9884    0.8440 O   0  0  0  0  0  0  0  0  0  0  0  0
   -1.6239   -1.5343    0.2938 C   0  0  0  0  0  0  0  0  0  0  0  0
   -3.0230   -1.4234    0.2758 C   0  0  0  0  0  0  0  0  0  0  0  0
   -6.9159   -0.7041   -1.3022 H   0  0  0  0  0  0  0  0  0  0  0  0
   -5.4349   -1.6298   -1.5765 H   0  0  0  0  0  0  0  0  0  0  0  0
   -6.9145   -2.4547   -1.0549 H   0  0  0  0  0  0  0  0  0  0  0  0
   -6.8602   -1.2381    1.1129 H   0  0  0  0  0  0  0  0  0  0  0  0
   -5.4724   -2.2599    0.9232 H   0  0  0  0  0  0  0  0  0  0  0  0
   -6.8467    0.9494    1.0386 H   0  0  0  0  0  0  0  0  0  0  0  0
   -5.4329    1.6273    1.7888 H   0  0  0  0  0  0  0  0  0  0  0  0
   -5.9957    1.5185   -1.2420 H   0  0  0  0  0  0  0  0  0  0  0  0
   -6.1805    2.9379   -0.1997 H   0  0  0  0  0  0  0  0  0  0  0  0
   -4.5728    2.2775   -0.5225 H   0  0  0  0  0  0  0  0  0  0  0  0
   -3.3047    1.6752    1.6003 H   0  0  0  0  0  0  0  0  0  0  0  0
   -0.9003    1.4928    1.6348 H   0  0  0  0  0  0  0  0  0  0  0  0
    0.9842   -1.4017    1.4617 H   0  0  0  0  0  0  0  0  0  0  0  0
    6.6374   -0.4517   -2.3665 H   0  0  0  0  0  0  0  0  0  0  0  0
    8.6823   -1.5360   -1.5064 H   0  0  0  0  0  0  0  0  0  0  0  0
    9.3112   -1.2996    0.8830 H   0  0  0  0  0  0  0  0  0  0  0  0
    7.9011    0.0430    2.4080 H   0  0  0  0  0  0  0  0  0  0  0  0
   -1.1651   -2.4475   -0.0779 H   0  0  0  0  0  0  0  0  0  0  0  0
   -3.5717   -2.2673   -0.1308 H   0  0  0  0  0  0  0  0  0  0  0  0
  1  2  1  0
  2  3  1  0
  3  4  1  0
  4  5  1  0
  3  6  1  0
  6  7  2  0
  7  8  1  0
  8  9  2  0
  9 10  1  0
 10 11  2  3
 11 12  1  0
 12 13  1  0
 13 14  2  0
 14 15  1  0
 15 16  2  0
 16 17  1  0
 17 18  2  0
 18 19  1  0
 19 20  2  0
 20 21  1  0
 21 22  2  0
 22 23  1  0
 16 24  1  0
 24 25  1  0
 25 26  2  0
  9 27  1  0
 27 28  2  0
 28  6  1  0
 25 11  1  0
 24 13  1  0
 22 17  1  0
  1 29  1  0
  1 30  1  0
  1 31  1  0
  2 32  1  0
  2 33  1  0
  4 34  1  0
  4 35  1  0
  5 36  1  0
  5 37  1  0
  5 38  1  0
  7 39  1  0
  8 40  1  0
 10 41  1  0
 18 42  1  0
 19 43  1  0
 20 44  1  0
 21 45  1  0
 27 46  1  0
 28 47  1  0
M  END
$$$$
