
     RDKit          3D

 46 47  0  0  0  0  0  0  0  0999 V2000
    3.8150   -3.1552    3.3480 C   0  0  0  0  0  0  0  0  0  0  0  0
    2.7645   -2.8681    2.2931 C   0  0  0  0  0  0  0  0  0  0  0  0
    2.4420   -1.4754    2.3534 O   0  0  0  0  0  0  0  0  0  0  0  0
    1.4862   -1.0878    1.4614 C   0  0  0  0  0  0  0  0  0  0  0  0
    0.9782   -1.8188    0.6206 O   0  0  0  0  0  0  0  0  0  0  0  0
    1.1727    0.3308    1.5706 C   0  0  0  0  0  0  0  0  0  0  0  0
    2.1049    1.3622    1.6400 C   0  0  0  0  0  0  0  0  0  0  0  0
    3.5921    1.3265    1.6635 C   0  0  0  0  0  0  0  0  0  0  0  0
    1.4207    2.5519    1.6741 N   0  0  0  0  0  0  0  0  0  0  0  0
    0.0684    2.3235    1.6185 C   0  0  0  0  0  0  0  0  0  0  0  0
   -0.9043    3.4478    1.6341 C   0  0  0  0  0  0  0  0  0  0  0  0
   -0.1170    0.9470    1.6017 C   0  0  0  0  0  0  0  0  0  0  0  0
   -1.6437    0.1115    1.6361 S   0  0  0  0  0  6  0  0  0  0  0  0
   -1.3549   -1.2147    2.1262 O   0  0  0  0  0  0  0  0  0  0  0  0
   -2.5158    1.0099    2.3614 O   0  0  0  0  0  0  0  0  0  0  0  0
   -2.2355    0.0385    0.0722 N   0  0  0  0  0  0  0  0  0  0  0  0
   -1.4957   -0.7808   -0.8885 C   0  0  0  0  0  0  0  0  0  0  0  0
   -2.1409   -0.6932   -2.2567 C   0  0  0  0  0  0  0  0  0  0  0  0
   -3.2058   -1.5640   -2.5498 C   0  0  0  0  0  0  0  0  0  0  0  0
   -3.8527   -1.5152   -3.7835 C   0  0  0  0  0  0  0  0  0  0  0  0
   -3.4498   -0.5900   -4.7400 C   0  0  0  0  0  0  0  0  0  0  0  0
   -2.4059    0.2921   -4.4607 C   0  0  0  0  0  0  0  0  0  0  0  0
   -1.7484    0.2619   -3.2198 C   0  0  0  0  0  0  0  0  0  0  0  0
   -0.6284    1.2339   -2.9664 C   0  0  0  0  0  0  0  0  0  0  0  0
    4.7104   -2.5488    3.1751 H   0  0  0  0  0  0  0  0  0  0  0  0
    3.4421   -2.8951    4.3442 H   0  0  0  0  0  0  0  0  0  0  0  0
    4.0968   -4.2117    3.3408 H   0  0  0  0  0  0  0  0  0  0  0  0
    1.8678   -3.4659    2.4916 H   0  0  0  0  0  0  0  0  0  0  0  0
    3.1610   -3.1137    1.3016 H   0  0  0  0  0  0  0  0  0  0  0  0
    3.9731    0.6141    0.9248 H   0  0  0  0  0  0  0  0  0  0  0  0
    3.9479    1.0240    2.6534 H   0  0  0  0  0  0  0  0  0  0  0  0
    4.0203    2.3073    1.4323 H   0  0  0  0  0  0  0  0  0  0  0  0
    1.8521    3.4670    1.7302 H   0  0  0  0  0  0  0  0  0  0  0  0
   -1.3488    3.5543    2.6285 H   0  0  0  0  0  0  0  0  0  0  0  0
   -1.7049    3.2775    0.9074 H   0  0  0  0  0  0  0  0  0  0  0  0
   -0.4212    4.3960    1.3760 H   0  0  0  0  0  0  0  0  0  0  0  0
   -2.5092    0.9557   -0.2729 H   0  0  0  0  0  0  0  0  0  0  0  0
   -0.4588   -0.4447   -0.9613 H   0  0  0  0  0  0  0  0  0  0  0  0
   -1.4822   -1.8266   -0.5618 H   0  0  0  0  0  0  0  0  0  0  0  0
   -3.5378   -2.2866   -1.8058 H   0  0  0  0  0  0  0  0  0  0  0  0
   -4.6712   -2.1980   -3.9949 H   0  0  0  0  0  0  0  0  0  0  0  0
   -3.9507   -0.5515   -5.7037 H   0  0  0  0  0  0  0  0  0  0  0  0
   -2.1095    1.0096   -5.2232 H   0  0  0  0  0  0  0  0  0  0  0  0
    0.3280    0.7039   -2.9185 H   0  0  0  0  0  0  0  0  0  0  0  0
   -0.7940    1.7774   -2.0307 H   0  0  0  0  0  0  0  0  0  0  0  0
   -0.5573    1.9812   -3.7640 H   0  0  0  0  0  0  0  0  0  0  0  0
  1  2  1  0
  2  3  1  0
  3  4  1  0
  4  5  2  0
  4  6  1  0
  6  7  2  0
  7  8  1  0
  7  9  1  0
  9 10  1  0
 10 11  1  0
 10 12  2  0
 12 13  1  0
 13 14  2  0
 13 15  2  0
 13 16  1  0
 16 17  1  0
 17 18  1  0
 18 19  2  0
 19 20  1  0
 20 21  2  0
 21 22  1  0
 22 23  2  0
 23 24  1  0
 12  6  1  0
 23 18  1  0
  1 25  1  0
  1 26  1  0
  1 27  1  0
  2 28  1  0
  2 29  1  0
  8 30  1  0
  8 31  1  0
  8 32  1  0
  9 33  1  0
 11 34  1  0
 11 35  1  0
 11 36  1  0
 16 37  1  0
 17 38  1  0
 17 39  1  0
 19 40  1  0
 20 41  1  0
 21 42  1  0
 22 43  1  0
 24 44  1  0
 24 45  1  0
 24 46  1  0
M  END
$$$$
