
     RDKit          3D

 36 37  0  0  0  0  0  0  0  0999 V2000
    3.4388   -3.5154    0.7459 C   0  0  0  0  0  0  0  0  0  0  0  0
    3.7126   -2.1596    1.0771 O   0  0  0  0  0  0  0  0  0  0  0  0
    3.0526   -1.2007    0.3593 C   0  0  0  0  0  0  0  0  0  0  0  0
    3.4045    0.1144    0.6840 C   0  0  0  0  0  0  0  0  0  0  0  0
    2.8074    1.1958    0.0331 C   0  0  0  0  0  0  0  0  0  0  0  0
    1.8387    0.9538   -0.9421 C   0  0  0  0  0  0  0  0  0  0  0  0
    1.0773    2.3218   -1.7848 S   0  0  0  0  0  6  0  0  0  0  0  0
    2.0388    3.4040   -1.8321 O   0  0  0  0  0  0  0  0  0  0  0  0
    0.4483    1.8150   -2.9870 O   0  0  0  0  0  0  0  0  0  0  0  0
   -0.1574    2.8155   -0.6940 N   0  0  0  0  0  0  0  0  0  0  0  0
   -0.7480    1.7893    0.2065 N   0  0  0  0  0  0  0  0  0  0  0  0
   -1.9430    1.3732   -0.1004 C   0  0  0  0  0  0  0  0  0  0  0  0
   -2.7377    1.9113   -1.2721 C   0  0  0  0  0  0  0  0  0  0  0  0
   -2.5627    0.3236    0.7625 C   0  0  0  0  0  0  0  0  0  0  0  0
   -1.7293   -0.5521    1.4621 C   0  0  0  0  0  0  0  0  0  0  0  0
   -2.3177   -1.5155    2.2600 C   0  0  0  0  0  0  0  0  0  0  0  0
   -3.6526   -1.6543    2.4027 N   0  0  0  0  0  0  0  0  0  0  0  0
   -4.4348   -0.7860    1.7276 C   0  0  0  0  0  0  0  0  0  0  0  0
   -3.9450    0.2133    0.9041 C   0  0  0  0  0  0  0  0  0  0  0  0
    1.4888   -0.3552   -1.2866 C   0  0  0  0  0  0  0  0  0  0  0  0
    2.0943   -1.4317   -0.6304 C   0  0  0  0  0  0  0  0  0  0  0  0
    3.7064   -3.7304   -0.2939 H   0  0  0  0  0  0  0  0  0  0  0  0
    2.3916   -3.7654    0.9453 H   0  0  0  0  0  0  0  0  0  0  0  0
    4.0599   -4.1481    1.3873 H   0  0  0  0  0  0  0  0  0  0  0  0
    4.1560    0.2954    1.4495 H   0  0  0  0  0  0  0  0  0  0  0  0
    3.0992    2.2102    0.2928 H   0  0  0  0  0  0  0  0  0  0  0  0
    0.1776    3.6558   -0.2116 H   0  0  0  0  0  0  0  0  0  0  0  0
   -3.5684    1.2545   -1.5402 H   0  0  0  0  0  0  0  0  0  0  0  0
   -3.1281    2.9004   -1.0164 H   0  0  0  0  0  0  0  0  0  0  0  0
   -2.1066    1.9937   -2.1595 H   0  0  0  0  0  0  0  0  0  0  0  0
   -0.6480   -0.4932    1.3907 H   0  0  0  0  0  0  0  0  0  0  0  0
   -1.7142   -2.2218    2.8234 H   0  0  0  0  0  0  0  0  0  0  0  0
   -5.5035   -0.9168    1.8758 H   0  0  0  0  0  0  0  0  0  0  0  0
   -4.6381    0.8856    0.4133 H   0  0  0  0  0  0  0  0  0  0  0  0
    0.7452   -0.5447   -2.0578 H   0  0  0  0  0  0  0  0  0  0  0  0
    1.7973   -2.4354   -0.9168 H   0  0  0  0  0  0  0  0  0  0  0  0
  1  2  1  0
  2  3  1  0
  3  4  2  0
  4  5  1  0
  5  6  2  0
  6  7  1  0
  7  8  2  0
  7  9  2  0
  7 10  1  0
 10 11  1  0
 11 12  2  3
 12 13  1  0
 12 14  1  0
 14 15  2  0
 15 16  1  0
 16 17  2  0
 17 18  1  0
 18 19  2  0
  6 20  1  0
 20 21  2  0
 21  3  1  0
 19 14  1  0
  1 22  1  0
  1 23  1  0
  1 24  1  0
  4 25  1  0
  5 26  1  0
 10 27  1  0
 13 28  1  0
 13 29  1  0
 13 30  1  0
 15 31  1  0
 16 32  1  0
 18 33  1  0
 19 34  1  0
 20 35  1  0
 21 36  1  0
M  END
$$$$
