
     RDKit          3D

 37 37  0  0  0  0  0  0  0  0999 V2000
    5.3177    0.8184   -1.7059 C   0  0  0  0  0  0  0  0  0  0  0  0
    4.1885    1.2569   -0.7872 C   0  0  0  0  0  0  0  0  0  0  0  0
    3.2277    0.1054   -0.4920 C   0  0  0  0  0  0  0  0  0  0  0  0
    2.0931    0.5507    0.4321 C   0  0  0  0  0  0  0  0  0  0  0  0
    1.1307   -0.6020    0.7273 C   0  0  0  0  0  0  0  0  0  0  0  0
   -0.0050   -0.1517    1.6486 C   0  0  0  0  0  0  0  0  0  0  0  0
   -0.9555   -1.2872    2.0430 C   0  0  0  0  0  0  0  0  0  0  0  0
   -1.7570   -1.9049    0.8918 C   0  0  0  0  0  0  0  0  0  0  0  0
   -2.6821   -0.9356    0.2794 N   0  0  0  0  0  0  0  0  0  0  0  0
   -2.4059   -0.3480   -0.9491 C   0  0  0  0  0  0  0  0  0  0  0  0
   -3.1987    0.5411   -1.5619 C   0  0  0  0  0  0  0  0  0  0  0  0
   -4.4658    0.9280   -0.8870 C   0  0  0  0  0  0  0  0  0  0  0  0
   -5.2997    1.7795   -1.3900 N   0  0  0  0  0  0  0  0  0  0  0  0
   -4.7586    0.2899    0.4194 C   0  0  0  0  0  0  0  0  0  0  0  0
   -3.8700   -0.5830    0.9100 C   0  0  0  0  0  0  0  0  0  0  0  0
    5.9022    0.0119   -1.2518 H   0  0  0  0  0  0  0  0  0  0  0  0
    5.9926    1.6571   -1.9038 H   0  0  0  0  0  0  0  0  0  0  0  0
    4.9276    0.4627   -2.6649 H   0  0  0  0  0  0  0  0  0  0  0  0
    3.6444    2.0850   -1.2562 H   0  0  0  0  0  0  0  0  0  0  0  0
    4.6136    1.6367    0.1491 H   0  0  0  0  0  0  0  0  0  0  0  0
    2.8087   -0.2736   -1.4321 H   0  0  0  0  0  0  0  0  0  0  0  0
    3.7774   -0.7218   -0.0266 H   0  0  0  0  0  0  0  0  0  0  0  0
    1.5430    1.3775   -0.0337 H   0  0  0  0  0  0  0  0  0  0  0  0
    2.5124    0.9297    1.3721 H   0  0  0  0  0  0  0  0  0  0  0  0
    0.7259   -0.9797   -0.2174 H   0  0  0  0  0  0  0  0  0  0  0  0
    1.6794   -1.4269    1.1976 H   0  0  0  0  0  0  0  0  0  0  0  0
   -0.5655    0.6660    1.1815 H   0  0  0  0  0  0  0  0  0  0  0  0
    0.4292    0.2596    2.5688 H   0  0  0  0  0  0  0  0  0  0  0  0
   -1.6475   -0.9054    2.8040 H   0  0  0  0  0  0  0  0  0  0  0  0
   -0.3751   -2.0823    2.5275 H   0  0  0  0  0  0  0  0  0  0  0  0
   -2.3372   -2.7518    1.2810 H   0  0  0  0  0  0  0  0  0  0  0  0
   -1.0843   -2.3328    0.1393 H   0  0  0  0  0  0  0  0  0  0  0  0
   -1.4713   -0.6595   -1.4058 H   0  0  0  0  0  0  0  0  0  0  0  0
   -2.9518    0.9801   -2.5171 H   0  0  0  0  0  0  0  0  0  0  0  0
   -4.9593    2.1296   -2.2896 H   0  0  0  0  0  0  0  0  0  0  0  0
   -5.6775    0.5542    0.9232 H   0  0  0  0  0  0  0  0  0  0  0  0
   -4.0463   -1.0740    1.8627 H   0  0  0  0  0  0  0  0  0  0  0  0
  1  2  1  0
  2  3  1  0
  3  4  1  0
  4  5  1  0
  5  6  1  0
  6  7  1  0
  7  8  1  0
  8  9  1  0
  9 10  1  0
 10 11  2  0
 11 12  1  0
 12 13  2  3
 12 14  1  0
 14 15  2  0
 15  9  1  0
  1 16  1  0
  1 17  1  0
  1 18  1  0
  2 19  1  0
  2 20  1  0
  3 21  1  0
  3 22  1  0
  4 23  1  0
  4 24  1  0
  5 25  1  0
  5 26  1  0
  6 27  1  0
  6 28  1  0
  7 29  1  0
  7 30  1  0
  8 31  1  0
  8 32  1  0
 10 33  1  0
 11 34  1  0
 13 35  1  0
 14 36  1  0
 15 37  1  0
M  END
$$$$
