
     RDKit          3D

 66 68  0  0  0  0  0  0  0  0999 V2000
    1.4936   -0.9883    5.4258 C   0  0  0  0  0  0  0  0  0  0  0  0
    0.6267   -0.7896    4.1953 C   0  0  0  0  0  0  0  0  0  0  0  0
    1.0793    0.4082    3.3720 C   0  0  0  0  0  0  0  0  0  0  0  0
    0.2487    0.5078    2.2262 O   0  0  0  0  0  0  0  0  0  0  0  0
    0.7374    1.5112    1.0412 P   0  0  0  0  0  5  0  0  0  0  0  0
    1.1463    2.8463    1.6267 O   0  0  0  0  0  0  0  0  0  0  0  0
    1.9849    0.6421    0.1360 C   0  0  0  0  0  0  0  0  0  0  0  0
    1.9272   -0.7378   -0.0652 C   0  0  0  0  0  0  0  0  0  0  0  0
    2.9201   -1.3953   -0.8050 C   0  0  0  0  0  0  0  0  0  0  0  0
    4.0211   -0.7155   -1.3536 C   0  0  0  0  0  0  0  0  0  0  0  0
    4.9901   -1.3915   -2.1107 N   0  0  0  0  0  0  0  0  0  0  0  0
    5.3473   -2.7421   -1.6700 C   0  0  0  0  0  0  0  0  0  0  0  0
    6.0906   -0.6262   -2.6951 C   0  0  0  0  0  0  0  0  0  0  0  0
    4.0577    0.6718   -1.1365 C   0  0  0  0  0  0  0  0  0  0  0  0
    3.0671    1.3383   -0.4011 C   0  0  0  0  0  0  0  0  0  0  0  0
   -0.7866    1.7194   -0.0179 C   0  0  0  0  0  0  0  0  0  0  0  0
   -1.6646    2.6732    0.7098 N   0  0  0  0  0  0  0  0  0  0  0  0
   -2.4637    3.5688   -0.0156 C   0  0  0  0  0  0  0  0  0  0  0  0
   -3.0209    3.2779   -1.2656 C   0  0  0  0  0  0  0  0  0  0  0  0
   -3.8727    4.1830   -1.9090 C   0  0  0  0  0  0  0  0  0  0  0  0
   -4.2060    5.3877   -1.2975 C   0  0  0  0  0  0  0  0  0  0  0  0
   -3.7015    5.6775   -0.0341 C   0  0  0  0  0  0  0  0  0  0  0  0
   -2.8523    4.7674    0.6036 C   0  0  0  0  0  0  0  0  0  0  0  0
   -1.4945    0.4234   -0.3651 C   0  0  0  0  0  0  0  0  0  0  0  0
   -1.1934   -0.2465   -1.5553 C   0  0  0  0  0  0  0  0  0  0  0  0
   -1.8199   -1.4594   -1.8703 C   0  0  0  0  0  0  0  0  0  0  0  0
   -2.7692   -2.0499   -1.0196 C   0  0  0  0  0  0  0  0  0  0  0  0
   -3.3837   -3.2598   -1.3843 N   0  0  0  0  0  0  0  0  0  0  0  0
   -2.4414   -4.3492   -1.6579 C   0  0  0  0  0  0  0  0  0  0  0  0
   -4.5835   -3.6670   -0.6543 C   0  0  0  0  0  0  0  0  0  0  0  0
   -3.0750   -1.3549    0.1593 C   0  0  0  0  0  0  0  0  0  0  0  0
   -2.4466   -0.1463    0.4872 C   0  0  0  0  0  0  0  0  0  0  0  0
    1.4587   -0.1086    6.0764 H   0  0  0  0  0  0  0  0  0  0  0  0
    1.1447   -1.8523    6.0006 H   0  0  0  0  0  0  0  0  0  0  0  0
    2.5359   -1.1668    5.1440 H   0  0  0  0  0  0  0  0  0  0  0  0
    0.6473   -1.6933    3.5746 H   0  0  0  0  0  0  0  0  0  0  0  0
   -0.4189   -0.6537    4.4949 H   0  0  0  0  0  0  0  0  0  0  0  0
    0.9929    1.3310    3.9533 H   0  0  0  0  0  0  0  0  0  0  0  0
    2.1223    0.2868    3.0631 H   0  0  0  0  0  0  0  0  0  0  0  0
    1.0964   -1.3151    0.3369 H   0  0  0  0  0  0  0  0  0  0  0  0
    2.7865   -2.4585   -0.9702 H   0  0  0  0  0  0  0  0  0  0  0  0
    4.5088   -3.4383   -1.7722 H   0  0  0  0  0  0  0  0  0  0  0  0
    5.6961   -2.7379   -0.6295 H   0  0  0  0  0  0  0  0  0  0  0  0
    6.1536   -3.1512   -2.2900 H   0  0  0  0  0  0  0  0  0  0  0  0
    5.7142    0.1879   -3.3240 H   0  0  0  0  0  0  0  0  0  0  0  0
    6.7496   -0.2204   -1.9184 H   0  0  0  0  0  0  0  0  0  0  0  0
    6.6983   -1.2607   -3.3508 H   0  0  0  0  0  0  0  0  0  0  0  0
    4.8708    1.2780   -1.5261 H   0  0  0  0  0  0  0  0  0  0  0  0
    3.1471    2.4148   -0.2484 H   0  0  0  0  0  0  0  0  0  0  0  0
   -0.4128    2.2034   -0.9294 H   0  0  0  0  0  0  0  0  0  0  0  0
   -1.1117    3.1848    1.4055 H   0  0  0  0  0  0  0  0  0  0  0  0
   -2.8228    2.3336   -1.7639 H   0  0  0  0  0  0  0  0  0  0  0  0
   -4.2898    3.9313   -2.8799 H   0  0  0  0  0  0  0  0  0  0  0  0
   -4.8752    6.0846   -1.7941 H   0  0  0  0  0  0  0  0  0  0  0  0
   -3.9755    6.6034    0.4631 H   0  0  0  0  0  0  0  0  0  0  0  0
   -2.4912    5.0038    1.6026 H   0  0  0  0  0  0  0  0  0  0  0  0
   -0.4673    0.1609   -2.2569 H   0  0  0  0  0  0  0  0  0  0  0  0
   -1.5776   -1.9271   -2.8213 H   0  0  0  0  0  0  0  0  0  0  0  0
   -1.7844   -4.1245   -2.5054 H   0  0  0  0  0  0  0  0  0  0  0  0
   -2.9829   -5.2651   -1.9249 H   0  0  0  0  0  0  0  0  0  0  0  0
   -1.8270   -4.5688   -0.7765 H   0  0  0  0  0  0  0  0  0  0  0  0
   -5.3283   -2.8633   -0.6378 H   0  0  0  0  0  0  0  0  0  0  0  0
   -4.3480   -3.9723    0.3721 H   0  0  0  0  0  0  0  0  0  0  0  0
   -5.0571   -4.5189   -1.1550 H   0  0  0  0  0  0  0  0  0  0  0  0
   -3.8010   -1.7410    0.8681 H   0  0  0  0  0  0  0  0  0  0  0  0
   -2.7137    0.3492    1.4197 H   0  0  0  0  0  0  0  0  0  0  0  0
  1  2  1  0
  2  3  1  0
  3  4  1  0
  4  5  1  0
  5  6  2  0
  5  7  1  0
  7  8  2  0
  8  9  1  0
  9 10  2  0
 10 11  1  0
 11 12  1  0
 11 13  1  0
 10 14  1  0
 14 15  2  0
  5 16  1  0
 16 17  1  0
 17 18  1  0
 18 19  2  0
 19 20  1  0
 20 21  2  0
 21 22  1  0
 22 23  2  0
 16 24  1  0
 24 25  2  0
 25 26  1  0
 26 27  2  0
 27 28  1  0
 28 29  1  0
 28 30  1  0
 27 31  1  0
 31 32  2  0
 15  7  1  0
 23 18  1  0
 32 24  1  0
  1 33  1  0
  1 34  1  0
  1 35  1  0
  2 36  1  0
  2 37  1  0
  3 38  1  0
  3 39  1  0
  8 40  1  0
  9 41  1  0
 12 42  1  0
 12 43  1  0
 12 44  1  0
 13 45  1  0
 13 46  1  0
 13 47  1  0
 14 48  1  0
 15 49  1  0
 16 50  1  0
 17 51  1  0
 19 52  1  0
 20 53  1  0
 21 54  1  0
 22 55  1  0
 23 56  1  0
 25 57  1  0
 26 58  1  0
 29 59  1  0
 29 60  1  0
 29 61  1  0
 30 62  1  0
 30 63  1  0
 30 64  1  0
 31 65  1  0
 32 66  1  0
M  END
$$$$
