
     RDKit          3D

 55 58  0  0  0  0  0  0  0  0999 V2000
   -7.2472   -1.9105   -1.1292 C   0  0  0  0  0  0  0  0  0  0  0  0
   -6.6737   -0.6116   -1.1520 O   0  0  0  0  0  0  0  0  0  0  0  0
   -5.3973   -0.4696   -0.6678 C   0  0  0  0  0  0  0  0  0  0  0  0
   -4.6177   -1.5172   -0.1737 C   0  0  0  0  0  0  0  0  0  0  0  0
   -3.3213   -1.2767    0.2978 C   0  0  0  0  0  0  0  0  0  0  0  0
   -2.7644    0.0120    0.2839 C   0  0  0  0  0  0  0  0  0  0  0  0
   -1.3932    0.2807    0.7664 C   0  0  0  0  0  0  0  0  0  0  0  0
   -0.3600   -0.6321    0.6489 C   0  0  0  0  0  0  0  0  0  0  0  0
    0.8982   -0.2701    1.1300 C   0  0  0  0  0  0  0  0  0  0  0  0
    1.9862   -1.2528    0.9756 C   0  0  0  0  0  0  0  0  0  0  0  0
    2.3703   -1.8437    1.9801 O   0  0  0  0  0  0  0  0  0  0  0  0
    2.5041   -1.4714   -0.3015 N   0  0  0  0  0  0  0  0  0  0  0  0
    2.3649   -0.5308   -1.4156 C   0  0  0  0  0  0  0  0  0  0  0  0
    3.6457    0.2925   -1.5535 C   0  0  0  0  0  0  0  0  0  0  0  0
    4.8766   -0.6130   -1.6728 C   0  0  0  0  0  0  0  0  0  0  0  0
    4.9376   -1.6439   -0.5295 C   0  0  0  0  0  0  0  0  0  0  0  0
    6.0801   -2.6179   -0.7259 C   0  0  0  0  0  0  0  0  0  0  0  0
    6.1559   -3.5013    0.2915 F   0  0  0  0  0  0  0  0  0  0  0  0
    5.9383   -3.3209   -1.8709 F   0  0  0  0  0  0  0  0  0  0  0  0
    7.2633   -1.9681   -0.7886 F   0  0  0  0  0  0  0  0  0  0  0  0
    3.6179   -2.4103   -0.4407 C   0  0  0  0  0  0  0  0  0  0  0  0
    1.1223    0.9735    1.7494 C   0  0  0  0  0  0  0  0  0  0  0  0
    2.3632    1.3971    2.2871 C   0  0  0  0  0  0  0  0  0  0  0  0
    2.4979    2.6558    2.8680 C   0  0  0  0  0  0  0  0  0  0  0  0
    1.4006    3.5037    2.9193 C   0  0  0  0  0  0  0  0  0  0  0  0
    0.1761    3.0850    2.3924 C   0  0  0  0  0  0  0  0  0  0  0  0
    0.0145    1.8348    1.8096 C   0  0  0  0  0  0  0  0  0  0  0  0
   -1.1946    1.5029    1.3222 N   0  0  0  0  0  0  0  0  0  0  0  0
   -3.5689    1.0592   -0.2070 C   0  0  0  0  0  0  0  0  0  0  0  0
   -4.8701    0.8343   -0.6786 C   0  0  0  0  0  0  0  0  0  0  0  0
   -5.6938    1.8148   -1.1761 O   0  0  0  0  0  0  0  0  0  0  0  0
   -5.2582    3.1615   -1.0547 C   0  0  0  0  0  0  0  0  0  0  0  0
   -7.3307   -2.2883   -0.1048 H   0  0  0  0  0  0  0  0  0  0  0  0
   -8.2592   -1.8366   -1.5390 H   0  0  0  0  0  0  0  0  0  0  0  0
   -6.6825   -2.6026   -1.7625 H   0  0  0  0  0  0  0  0  0  0  0  0
   -4.9888   -2.5357   -0.1340 H   0  0  0  0  0  0  0  0  0  0  0  0
   -2.7600   -2.1195    0.6962 H   0  0  0  0  0  0  0  0  0  0  0  0
   -0.5049   -1.6001    0.1820 H   0  0  0  0  0  0  0  0  0  0  0  0
    2.1862   -1.1174   -2.3242 H   0  0  0  0  0  0  0  0  0  0  0  0
    1.5123    0.1383   -1.2836 H   0  0  0  0  0  0  0  0  0  0  0  0
    3.5774    0.9446   -2.4310 H   0  0  0  0  0  0  0  0  0  0  0  0
    3.7627    0.9397   -0.6757 H   0  0  0  0  0  0  0  0  0  0  0  0
    4.8444   -1.1305   -2.6403 H   0  0  0  0  0  0  0  0  0  0  0  0
    5.7833    0.0033   -1.6717 H   0  0  0  0  0  0  0  0  0  0  0  0
    5.0980   -1.1017    0.4117 H   0  0  0  0  0  0  0  0  0  0  0  0
    3.4381   -2.9965   -1.3503 H   0  0  0  0  0  0  0  0  0  0  0  0
    3.6329   -3.1132    0.3992 H   0  0  0  0  0  0  0  0  0  0  0  0
    3.2298    0.7383    2.2674 H   0  0  0  0  0  0  0  0  0  0  0  0
    3.4526    2.9673    3.2843 H   0  0  0  0  0  0  0  0  0  0  0  0
    1.4882    4.4876    3.3731 H   0  0  0  0  0  0  0  0  0  0  0  0
   -0.6805    3.7540    2.4427 H   0  0  0  0  0  0  0  0  0  0  0  0
   -3.1444    2.0594   -0.2168 H   0  0  0  0  0  0  0  0  0  0  0  0
   -4.3744    3.3453   -1.6740 H   0  0  0  0  0  0  0  0  0  0  0  0
   -5.0732    3.4278   -0.0087 H   0  0  0  0  0  0  0  0  0  0  0  0
   -6.0609    3.8069   -1.4242 H   0  0  0  0  0  0  0  0  0  0  0  0
  1  2  1  0
  2  3  1  0
  3  4  2  0
  4  5  1  0
  5  6  2  0
  6  7  1  0
  7  8  2  0
  8  9  1  0
  9 10  1  0
 10 11  2  0
 10 12  1  0
 12 13  1  0
 13 14  1  0
 14 15  1  0
 15 16  1  0
 16 17  1  0
 17 18  1  0
 17 19  1  0
 17 20  1  0
 16 21  1  0
  9 22  2  0
 22 23  1  0
 23 24  2  0
 24 25  1  0
 25 26  2  0
 26 27  1  0
 27 28  2  0
  6 29  1  0
 29 30  2  0
 30 31  1  0
 31 32  1  0
 30  3  1  0
 28  7  1  0
 21 12  1  0
 27 22  1  0
  1 33  1  0
  1 34  1  0
  1 35  1  0
  4 36  1  0
  5 37  1  0
  8 38  1  0
 13 39  1  0
 13 40  1  0
 14 41  1  0
 14 42  1  0
 15 43  1  0
 15 44  1  0
 16 45  1  0
 21 46  1  0
 21 47  1  0
 23 48  1  0
 24 49  1  0
 25 50  1  0
 26 51  1  0
 29 52  1  0
 32 53  1  0
 32 54  1  0
 32 55  1  0
M  END
$$$$
