
     RDKit          3D

 57 61  0  0  0  0  0  0  0  0999 V2000
    7.3338    0.2559   -0.8979 C   0  0  0  0  0  0  0  0  0  0  0  0
    6.2663   -0.7796   -1.0938 C   0  0  0  0  0  0  0  0  0  0  0  0
    5.0902   -0.4644   -1.7851 C   0  0  0  0  0  0  0  0  0  0  0  0
    4.0795   -1.4169   -1.9363 C   0  0  0  0  0  0  0  0  0  0  0  0
    4.2250   -2.7012   -1.3937 C   0  0  0  0  0  0  0  0  0  0  0  0
    3.1260   -3.7236   -1.5378 C   0  0  0  0  0  0  0  0  0  0  0  0
    2.2821   -3.7623   -0.3619 N   0  0  0  0  0  0  0  0  0  0  0  0
    2.4818   -4.6881    0.6100 N   0  0  0  0  0  0  0  0  0  0  0  0
    1.5624   -4.4900    1.5552 N   0  0  0  0  0  0  0  0  0  0  0  0
    0.7838   -3.4512    1.1495 C   0  0  0  0  0  0  0  0  0  0  0  0
   -0.3443   -2.8185    1.7750 C   0  0  0  0  0  0  0  0  0  0  0  0
   -0.8425   -3.1259    2.8528 O   0  0  0  0  0  0  0  0  0  0  0  0
   -0.8503   -1.7752    1.0079 N   0  0  0  0  0  0  0  0  0  0  0  0
   -0.3409   -1.3934   -0.2287 C   0  0  0  0  0  0  0  0  0  0  0  0
   -1.0385   -0.2307   -0.9210 C   0  0  0  0  0  0  0  0  0  0  0  0
   -0.8847    1.0555   -0.1038 C   0  0  0  0  0  0  0  0  0  0  0  0
   -1.6963    2.1976   -0.7049 C   0  0  0  0  0  0  0  0  0  0  0  0
   -3.0950    1.7969   -0.9821 N   0  0  0  0  0  0  0  0  0  0  0  0
   -4.2818    3.0108   -0.9261 S   0  0  0  0  0  6  0  0  0  0  0  0
   -3.7051    4.2257   -1.4611 O   0  0  0  0  0  0  0  0  0  0  0  0
   -5.5159    2.4664   -1.4490 O   0  0  0  0  0  0  0  0  0  0  0  0
   -4.5174    3.2538    0.8265 C   0  0  0  0  0  0  0  0  0  0  0  0
   -5.4698    2.4830    1.5078 C   0  0  0  0  0  0  0  0  0  0  0  0
   -5.6818    2.6987    2.8708 C   0  0  0  0  0  0  0  0  0  0  0  0
   -4.9537    3.6832    3.5320 C   0  0  0  0  0  0  0  0  0  0  0  0
   -5.1566    3.8834    4.8418 F   0  0  0  0  0  0  0  0  0  0  0  0
   -4.0228    4.4666    2.8560 C   0  0  0  0  0  0  0  0  0  0  0  0
   -3.8064    4.2598    1.4920 C   0  0  0  0  0  0  0  0  0  0  0  0
   -3.4818    0.4290   -0.6000 C   0  0  0  0  0  0  0  0  0  0  0  0
   -2.5074   -0.5587   -1.2368 C   0  0  0  0  0  0  0  0  0  0  0  0
    0.6782   -1.9665   -0.8073 N   0  0  0  0  0  0  0  0  0  0  0  0
    1.2017   -2.9784   -0.0713 C   0  0  0  0  0  0  0  0  0  0  0  0
    5.3953   -3.0083   -0.6837 C   0  0  0  0  0  0  0  0  0  0  0  0
    6.4045   -2.0544   -0.5331 C   0  0  0  0  0  0  0  0  0  0  0  0
    7.3525    0.9618   -1.7355 H   0  0  0  0  0  0  0  0  0  0  0  0
    8.3238   -0.2090   -0.8417 H   0  0  0  0  0  0  0  0  0  0  0  0
    7.1500    0.8108    0.0274 H   0  0  0  0  0  0  0  0  0  0  0  0
    4.9522    0.5285   -2.2084 H   0  0  0  0  0  0  0  0  0  0  0  0
    3.1710   -1.1445   -2.4729 H   0  0  0  0  0  0  0  0  0  0  0  0
    3.5456   -4.7243   -1.6953 H   0  0  0  0  0  0  0  0  0  0  0  0
    2.4895   -3.5051   -2.4033 H   0  0  0  0  0  0  0  0  0  0  0  0
   -1.6420   -1.3080    1.4206 H   0  0  0  0  0  0  0  0  0  0  0  0
   -0.5227   -0.0806   -1.8803 H   0  0  0  0  0  0  0  0  0  0  0  0
   -1.2023    0.8986    0.9347 H   0  0  0  0  0  0  0  0  0  0  0  0
    0.1728    1.3412   -0.0516 H   0  0  0  0  0  0  0  0  0  0  0  0
   -1.6561    3.0478   -0.0165 H   0  0  0  0  0  0  0  0  0  0  0  0
   -1.2402    2.5162   -1.6514 H   0  0  0  0  0  0  0  0  0  0  0  0
   -6.0568    1.7310    0.9847 H   0  0  0  0  0  0  0  0  0  0  0  0
   -6.4169    2.1165    3.4201 H   0  0  0  0  0  0  0  0  0  0  0  0
   -3.4814    5.2393    3.3938 H   0  0  0  0  0  0  0  0  0  0  0  0
   -3.0976    4.8891    0.9582 H   0  0  0  0  0  0  0  0  0  0  0  0
   -3.4810    0.3235    0.4894 H   0  0  0  0  0  0  0  0  0  0  0  0
   -4.4886    0.1945   -0.9588 H   0  0  0  0  0  0  0  0  0  0  0  0
   -2.6387   -0.5224   -2.3270 H   0  0  0  0  0  0  0  0  0  0  0  0
   -2.7740   -1.5790   -0.9336 H   0  0  0  0  0  0  0  0  0  0  0  0
    5.5241   -3.9914   -0.2316 H   0  0  0  0  0  0  0  0  0  0  0  0
    7.2992   -2.3132    0.0307 H   0  0  0  0  0  0  0  0  0  0  0  0
  1  2  1  0
  2  3  2  0
  3  4  1  0
  4  5  2  0
  5  6  1  0
  6  7  1  0
  7  8  1  0
  8  9  2  0
  9 10  1  0
 10 11  1  0
 11 12  2  0
 11 13  1  0
 13 14  1  0
 14 15  1  0
 15 16  1  0
 16 17  1  0
 17 18  1  0
 18 19  1  0
 19 20  2  0
 19 21  2  0
 19 22  1  0
 22 23  2  0
 23 24  1  0
 24 25  2  0
 25 26  1  0
 25 27  1  0
 27 28  2  0
 18 29  1  0
 29 30  1  0
 14 31  2  0
 31 32  1  0
  5 33  1  0
 33 34  2  0
 34  2  1  0
 32  7  1  0
 32 10  2  0
 30 15  1  0
 28 22  1  0
  1 35  1  0
  1 36  1  0
  1 37  1  0
  3 38  1  0
  4 39  1  0
  6 40  1  0
  6 41  1  0
 13 42  1  0
 15 43  1  0
 16 44  1  0
 16 45  1  0
 17 46  1  0
 17 47  1  0
 23 48  1  0
 24 49  1  0
 27 50  1  0
 28 51  1  0
 29 52  1  0
 29 53  1  0
 30 54  1  0
 30 55  1  0
 33 56  1  0
 34 57  1  0
M  END
$$$$
