
     RDKit          3D

 54 56  0  0  0  0  0  0  0  0999 V2000
    8.5497    1.5648   -0.7686 C   0  0  0  0  0  0  0  0  0  0  0  0
    7.9667    0.4686   -1.4617 O   0  0  0  0  0  0  0  0  0  0  0  0
    6.6140    0.3089   -1.3356 C   0  0  0  0  0  0  0  0  0  0  0  0
    5.7566    1.1204   -0.5938 C   0  0  0  0  0  0  0  0  0  0  0  0
    4.3861    0.8407   -0.5515 C   0  0  0  0  0  0  0  0  0  0  0  0
    3.8527   -0.2517   -1.2500 C   0  0  0  0  0  0  0  0  0  0  0  0
    2.3712   -0.5454   -1.1948 C   0  0  0  0  0  0  0  0  0  0  0  0
    1.9769   -0.9670    0.1505 N   0  0  0  0  0  0  0  0  0  0  0  0
    0.5870   -1.4248    0.2204 C   0  0  0  0  0  0  0  0  0  0  0  0
   -0.4213   -0.2703    0.1347 C   0  0  0  0  0  0  0  0  0  0  0  0
   -1.8899   -0.7588    0.2281 C   0  0  0  0  0  0  0  0  0  0  0  0
   -2.2142   -1.3883    1.5809 C   0  0  0  0  0  0  0  0  0  0  0  0
   -2.1170   -0.6510    2.7740 C   0  0  0  0  0  0  0  0  0  0  0  0
   -2.4186   -1.2433    4.0015 C   0  0  0  0  0  0  0  0  0  0  0  0
   -2.8204   -2.5718    4.0414 C   0  0  0  0  0  0  0  0  0  0  0  0
   -3.1097   -3.1396    5.2197 F   0  0  0  0  0  0  0  0  0  0  0  0
   -2.9286   -3.3206    2.8767 C   0  0  0  0  0  0  0  0  0  0  0  0
   -2.6281   -2.7309    1.6477 C   0  0  0  0  0  0  0  0  0  0  0  0
   -2.9234    0.3025   -0.1532 C   0  0  0  0  0  0  0  0  0  0  0  0
   -2.7110    1.6746    0.0356 C   0  0  0  0  0  0  0  0  0  0  0  0
   -3.6952    2.6035   -0.3168 C   0  0  0  0  0  0  0  0  0  0  0  0
   -4.9130    2.1874   -0.8557 C   0  0  0  0  0  0  0  0  0  0  0  0
   -5.7833    3.1991   -1.1536 O   0  0  0  0  0  0  0  0  0  0  0  0
   -7.0468    2.8227   -1.6861 C   0  0  0  0  0  0  0  0  0  0  0  0
   -5.1415    0.8258   -1.0391 C   0  0  0  0  0  0  0  0  0  0  0  0
   -4.1571   -0.1062   -0.6886 C   0  0  0  0  0  0  0  0  0  0  0  0
    4.7198   -1.0651   -1.9886 C   0  0  0  0  0  0  0  0  0  0  0  0
    6.0879   -0.7828   -2.0299 C   0  0  0  0  0  0  0  0  0  0  0  0
    8.4120    1.4664    0.3133 H   0  0  0  0  0  0  0  0  0  0  0  0
    8.1538    2.5183   -1.1335 H   0  0  0  0  0  0  0  0  0  0  0  0
    9.6254    1.5529   -0.9692 H   0  0  0  0  0  0  0  0  0  0  0  0
    6.1178    1.9758   -0.0336 H   0  0  0  0  0  0  0  0  0  0  0  0
    3.7287    1.4756    0.0397 H   0  0  0  0  0  0  0  0  0  0  0  0
    2.1262   -1.3250   -1.9267 H   0  0  0  0  0  0  0  0  0  0  0  0
    1.8370    0.3624   -1.4974 H   0  0  0  0  0  0  0  0  0  0  0  0
    2.5910   -1.7331    0.4299 H   0  0  0  0  0  0  0  0  0  0  0  0
    0.3885   -2.1750   -0.5544 H   0  0  0  0  0  0  0  0  0  0  0  0
    0.4675   -1.9328    1.1838 H   0  0  0  0  0  0  0  0  0  0  0  0
   -0.1964    0.4583    0.9238 H   0  0  0  0  0  0  0  0  0  0  0  0
   -0.2927    0.2514   -0.8219 H   0  0  0  0  0  0  0  0  0  0  0  0
   -1.9795   -1.5422   -0.5399 H   0  0  0  0  0  0  0  0  0  0  0  0
   -1.8117    0.3929    2.7558 H   0  0  0  0  0  0  0  0  0  0  0  0
   -2.3453   -0.6755    4.9234 H   0  0  0  0  0  0  0  0  0  0  0  0
   -3.2475   -4.3563    2.9329 H   0  0  0  0  0  0  0  0  0  0  0  0
   -2.7201   -3.3270    0.7426 H   0  0  0  0  0  0  0  0  0  0  0  0
   -1.7842    2.0480    0.4626 H   0  0  0  0  0  0  0  0  0  0  0  0
   -3.5107    3.6643   -0.1647 H   0  0  0  0  0  0  0  0  0  0  0  0
   -7.6083    2.2083   -0.9745 H   0  0  0  0  0  0  0  0  0  0  0  0
   -7.6214    3.7373   -1.8616 H   0  0  0  0  0  0  0  0  0  0  0  0
   -6.9333    2.3113   -2.6477 H   0  0  0  0  0  0  0  0  0  0  0  0
   -6.0737    0.4518   -1.4480 H   0  0  0  0  0  0  0  0  0  0  0  0
   -4.3656   -1.1646   -0.8327 H   0  0  0  0  0  0  0  0  0  0  0  0
    4.3412   -1.9238   -2.5375 H   0  0  0  0  0  0  0  0  0  0  0  0
    6.7515   -1.4211   -2.6082 H   0  0  0  0  0  0  0  0  0  0  0  0
  1  2  1  0
  2  3  1  0
  3  4  2  0
  4  5  1  0
  5  6  2  0
  6  7  1  0
  7  8  1  0
  8  9  1  0
  9 10  1  0
 10 11  1  0
 11 12  1  0
 12 13  2  0
 13 14  1  0
 14 15  2  0
 15 16  1  0
 15 17  1  0
 17 18  2  0
 11 19  1  0
 19 20  2  0
 20 21  1  0
 21 22  2  0
 22 23  1  0
 23 24  1  0
 22 25  1  0
 25 26  2  0
  6 27  1  0
 27 28  2  0
 28  3  1  0
 18 12  1  0
 26 19  1  0
  1 29  1  0
  1 30  1  0
  1 31  1  0
  4 32  1  0
  5 33  1  0
  7 34  1  0
  7 35  1  0
  8 36  1  0
  9 37  1  0
  9 38  1  0
 10 39  1  0
 10 40  1  0
 11 41  1  0
 13 42  1  0
 14 43  1  0
 17 44  1  0
 18 45  1  0
 20 46  1  0
 21 47  1  0
 24 48  1  0
 24 49  1  0
 24 50  1  0
 25 51  1  0
 26 52  1  0
 27 53  1  0
 28 54  1  0
M  END
$$$$
