
     RDKit          3D

 25 27  0  0  0  0  0  0  0  0999 V2000
    2.4196    1.9306    2.1503 O   0  0  0  0  0  0  0  0  0  0  0  0
    1.7987    0.9809    1.6790 C   0  0  0  0  0  0  0  0  0  0  0  0
    0.7060    1.1766    0.6997 C   0  0  0  0  0  0  0  0  0  0  0  0
    0.3130    2.4808    0.3831 C   0  0  0  0  0  0  0  0  0  0  0  0
   -0.7067    2.6870   -0.5343 C   0  0  0  0  0  0  0  0  0  0  0  0
   -1.3323    1.5931   -1.1335 C   0  0  0  0  0  0  0  0  0  0  0  0
   -0.9577    0.2573   -0.8311 C   0  0  0  0  0  0  0  0  0  0  0  0
   -1.5451   -0.9017   -1.4083 C   0  0  0  0  0  0  0  0  0  0  0  0
   -2.6340   -0.7830   -2.3644 N   0  0  0  0  0  4  0  0  0  0  0  0
   -2.4356   -1.2380   -3.4979 O   0  0  0  0  0  0  0  0  0  0  0  0
   -3.6807   -0.2543   -1.9689 O   0  0  0  0  0  1  0  0  0  0  0  0
   -1.1207   -2.2006   -1.1028 C   0  0  0  0  0  0  0  0  0  0  0  0
   -0.0919   -2.3744   -0.1861 C   0  0  0  0  0  0  0  0  0  0  0  0
    0.5057   -1.2576    0.4165 C   0  0  0  0  0  0  0  0  0  0  0  0
    0.0914    0.0563    0.1061 C   0  0  0  0  0  0  0  0  0  0  0  0
    1.6012   -1.4808    1.3976 C   0  0  0  0  0  0  0  0  0  0  0  0
    2.0054   -2.6216    1.5993 O   0  0  0  0  0  0  0  0  0  0  0  0
    2.0844   -0.3331    1.9987 N   0  0  0  0  0  0  0  0  0  0  0  0
    3.1602   -0.5108    2.8996 O   0  0  0  0  0  0  0  0  0  0  0  0
    0.7995    3.3364    0.8493 H   0  0  0  0  0  0  0  0  0  0  0  0
   -1.0188    3.6988   -0.7862 H   0  0  0  0  0  0  0  0  0  0  0  0
   -2.1272    1.8068   -1.8488 H   0  0  0  0  0  0  0  0  0  0  0  0
   -1.5835   -3.0690   -1.5689 H   0  0  0  0  0  0  0  0  0  0  0  0
    0.2448   -3.3813    0.0610 H   0  0  0  0  0  0  0  0  0  0  0  0
    3.5041    0.4015    2.9911 H   0  0  0  0  0  0  0  0  0  0  0  0
  1  2  2  0
  2  3  1  0
  3  4  1  0
  4  5  2  0
  5  6  1  0
  6  7  2  0
  7  8  1  0
  8  9  1  0
  9 10  2  0
  9 11  1  0
  8 12  2  0
 12 13  1  0
 13 14  2  0
 14 15  1  0
 14 16  1  0
 16 17  2  0
 16 18  1  0
 18 19  1  0
 18  2  1  0
 15  3  2  0
 15  7  1  0
  4 20  1  0
  5 21  1  0
  6 22  1  0
 12 23  1  0
 13 24  1  0
 19 25  1  0
M  CHG  2   9   1  11  -1
M  END
$$$$
