
     RDKit          3D

 50 52  0  0  0  0  0  0  0  0999 V2000
    7.9214   -1.2166    2.5436 C   0  0  0  0  0  0  0  0  0  0  0  0
    7.4557   -2.0369    1.3487 C   0  0  0  0  0  0  0  0  0  0  0  0
    6.4250   -1.3101    0.5472 C   0  0  0  0  0  0  0  0  0  0  0  0
    5.1326   -1.3226    0.8018 N   0  0  0  0  0  0  0  0  0  0  0  0
    4.4182   -0.5641   -0.1049 N   0  0  0  0  0  0  0  0  0  0  0  0
    5.2026    0.0066   -0.9879 C   0  0  0  0  0  0  0  0  0  0  0  0
    4.6842    0.8253   -2.0580 N   0  0  0  0  0  0  0  0  0  0  0  0
    4.0937    2.3037   -1.5184 S   0  0  0  0  0  6  0  0  0  0  0  0
    4.2754    3.2111   -2.6355 O   0  0  0  0  0  0  0  0  0  0  0  0
    4.6438    2.6286   -0.2201 O   0  0  0  0  0  0  0  0  0  0  0  0
    2.3565    1.9906   -1.3587 C   0  0  0  0  0  0  0  0  0  0  0  0
    1.5061    2.1955   -2.4448 C   0  0  0  0  0  0  0  0  0  0  0  0
    0.1348    1.9684   -2.2937 C   0  0  0  0  0  0  0  0  0  0  0  0
   -0.4050    1.5645   -1.0605 C   0  0  0  0  0  0  0  0  0  0  0  0
   -1.7999    1.3570   -1.0298 N   0  0  0  0  0  0  0  0  0  0  0  0
   -2.7039    1.1880   -0.0064 C   0  0  0  0  0  0  0  0  0  0  0  0
   -2.4961    1.3590    1.6418 S   0  0  0  0  0  0  0  0  0  0  0  0
   -3.9845    0.8500   -0.4176 N   0  0  0  0  0  0  0  0  0  0  0  0
   -4.4582    0.6344   -1.6946 C   0  0  0  0  0  0  0  0  0  0  0  0
   -3.8272    0.9065   -2.7144 O   0  0  0  0  0  0  0  0  0  0  0  0
   -5.8579    0.1433   -1.8189 C   0  0  0  0  0  0  0  0  0  0  0  0
   -6.5943   -0.6018   -0.9791 C   0  0  0  0  0  0  0  0  0  0  0  0
   -6.1968   -1.1349    0.3232 C   0  0  0  0  0  0  0  0  0  0  0  0
   -6.8615   -0.6853    1.4717 C   0  0  0  0  0  0  0  0  0  0  0  0
   -6.4739   -1.1421    2.7322 C   0  0  0  0  0  0  0  0  0  0  0  0
   -5.4271   -2.0562    2.8523 C   0  0  0  0  0  0  0  0  0  0  0  0
   -4.7752   -2.5230    1.7106 C   0  0  0  0  0  0  0  0  0  0  0  0
   -5.1603   -2.0680    0.4468 C   0  0  0  0  0  0  0  0  0  0  0  0
    0.4637    1.3629    0.0131 C   0  0  0  0  0  0  0  0  0  0  0  0
    1.8393    1.5825   -0.1283 C   0  0  0  0  0  0  0  0  0  0  0  0
    6.8561   -0.3796   -0.8386 S   0  0  0  0  0  0  0  0  0  0  0  0
    8.6779   -1.7729    3.1097 H   0  0  0  0  0  0  0  0  0  0  0  0
    8.3658   -0.2639    2.2291 H   0  0  0  0  0  0  0  0  0  0  0  0
    7.0864   -0.9923    3.2224 H   0  0  0  0  0  0  0  0  0  0  0  0
    7.0254   -2.9819    1.7041 H   0  0  0  0  0  0  0  0  0  0  0  0
    8.3186   -2.2994    0.7258 H   0  0  0  0  0  0  0  0  0  0  0  0
    5.3074    0.9621   -2.8480 H   0  0  0  0  0  0  0  0  0  0  0  0
    1.8930    2.5327   -3.4050 H   0  0  0  0  0  0  0  0  0  0  0  0
   -0.5149    2.1290   -3.1536 H   0  0  0  0  0  0  0  0  0  0  0  0
   -2.2473    1.3915   -1.9474 H   0  0  0  0  0  0  0  0  0  0  0  0
   -4.6191    0.7085    0.3565 H   0  0  0  0  0  0  0  0  0  0  0  0
   -6.3024    0.4255   -2.7730 H   0  0  0  0  0  0  0  0  0  0  0  0
   -7.6133   -0.8551   -1.2707 H   0  0  0  0  0  0  0  0  0  0  0  0
   -7.6776    0.0330    1.3962 H   0  0  0  0  0  0  0  0  0  0  0  0
   -6.9817   -0.7836    3.6258 H   0  0  0  0  0  0  0  0  0  0  0  0
   -5.1222   -2.4053    3.8364 H   0  0  0  0  0  0  0  0  0  0  0  0
   -3.9609   -3.2388    1.8059 H   0  0  0  0  0  0  0  0  0  0  0  0
   -4.6398   -2.4386   -0.4354 H   0  0  0  0  0  0  0  0  0  0  0  0
    0.1212    0.9991    0.9747 H   0  0  0  0  0  0  0  0  0  0  0  0
    2.4964    1.4136    0.7239 H   0  0  0  0  0  0  0  0  0  0  0  0
  1  2  1  0
  2  3  1  0
  3  4  2  0
  4  5  1  0
  5  6  2  0
  6  7  1  0
  7  8  1  0
  8  9  2  0
  8 10  2  0
  8 11  1  0
 11 12  2  0
 12 13  1  0
 13 14  2  0
 14 15  1  0
 15 16  1  0
 16 17  2  0
 16 18  1  0
 18 19  1  0
 19 20  2  0
 19 21  1  0
 21 22  2  3
 22 23  1  0
 23 24  2  0
 24 25  1  0
 25 26  2  0
 26 27  1  0
 27 28  2  0
 14 29  1  0
 29 30  2  0
  6 31  1  0
 31  3  1  0
 30 11  1  0
 28 23  1  0
  1 32  1  0
  1 33  1  0
  1 34  1  0
  2 35  1  0
  2 36  1  0
  7 37  1  0
 12 38  1  0
 13 39  1  0
 15 40  1  0
 18 41  1  0
 21 42  1  0
 22 43  1  0
 24 44  1  0
 25 45  1  0
 26 46  1  0
 27 47  1  0
 28 48  1  0
 29 49  1  0
 30 50  1  0
M  END
$$$$
