
     RDKit          3D

 39 41  0  0  0  0  0  0  0  0999 V2000
   -3.1648   -2.5950    0.5072 C   0  0  0  0  0  0  0  0  0  0  0  0
   -2.9694   -1.3792   -0.3268 C   0  0  0  0  0  0  0  0  0  0  0  0
   -3.9558   -0.9151   -1.1577 N   0  0  0  0  0  0  0  0  0  0  0  0
   -3.5320    0.2048   -1.8312 C   0  0  0  0  0  0  0  0  0  0  0  0
   -4.2075    0.9873   -2.7761 C   0  0  0  0  0  0  0  0  0  0  0  0
   -3.5172    2.0585   -3.3465 C   0  0  0  0  0  0  0  0  0  0  0  0
   -2.1986    2.3248   -2.9941 C   0  0  0  0  0  0  0  0  0  0  0  0
   -1.5390    1.5333   -2.0455 C   0  0  0  0  0  0  0  0  0  0  0  0
   -2.2202    0.4610   -1.4276 C   0  0  0  0  0  0  0  0  0  0  0  0
   -1.8791   -0.5250   -0.4417 C   0  0  0  0  0  0  0  0  0  0  0  0
   -0.6410   -0.6752    0.3266 C   0  0  0  0  0  0  0  0  0  0  0  0
   -0.1423   -1.7874    0.5187 O   0  0  0  0  0  0  0  0  0  0  0  0
   -0.0262    0.5769    0.9777 C   0  0  0  0  0  0  0  0  0  0  0  0
   -0.7863    0.8876    2.2626 C   0  0  0  0  0  0  0  0  0  0  0  0
    1.3433    0.3506    1.3476 O   0  0  0  0  0  0  0  0  0  0  0  0
    2.2013    0.3020    0.2860 C   0  0  0  0  0  0  0  0  0  0  0  0
    1.8775    0.5572   -0.8673 O   0  0  0  0  0  0  0  0  0  0  0  0
    3.5211   -0.0662    0.7436 C   0  0  0  0  0  0  0  0  0  0  0  0
    4.0118   -0.4360    1.9885 C   0  0  0  0  0  0  0  0  0  0  0  0
    5.3982   -0.6926    1.8348 C   0  0  0  0  0  0  0  0  0  0  0  0
    5.6640   -0.4602    0.5073 C   0  0  0  0  0  0  0  0  0  0  0  0
    6.8748   -0.5472   -0.2475 N   0  0  0  0  0  4  0  0  0  0  0  0
    6.8331   -0.2569   -1.4491 O   0  0  0  0  0  0  0  0  0  0  0  0
    7.8822   -0.9065    0.3777 O   0  0  0  0  0  1  0  0  0  0  0  0
    4.5488   -0.0804   -0.1692 O   0  0  0  0  0  0  0  0  0  0  0  0
   -2.8728   -2.4010    1.5443 H   0  0  0  0  0  0  0  0  0  0  0  0
   -4.2112   -2.9172    0.5094 H   0  0  0  0  0  0  0  0  0  0  0  0
   -2.5564   -3.4199    0.1234 H   0  0  0  0  0  0  0  0  0  0  0  0
   -4.8641   -1.3420   -1.2799 H   0  0  0  0  0  0  0  0  0  0  0  0
   -5.2287    0.7667   -3.0702 H   0  0  0  0  0  0  0  0  0  0  0  0
   -4.0117    2.6805   -4.0892 H   0  0  0  0  0  0  0  0  0  0  0  0
   -1.6673    3.1467   -3.4683 H   0  0  0  0  0  0  0  0  0  0  0  0
   -0.4963    1.7429   -1.8231 H   0  0  0  0  0  0  0  0  0  0  0  0
   -0.0835    1.4482    0.3220 H   0  0  0  0  0  0  0  0  0  0  0  0
   -1.8392    1.1106    2.0642 H   0  0  0  0  0  0  0  0  0  0  0  0
   -0.7419    0.0417    2.9583 H   0  0  0  0  0  0  0  0  0  0  0  0
   -0.3375    1.7449    2.7758 H   0  0  0  0  0  0  0  0  0  0  0  0
    3.4266   -0.5167    2.8958 H   0  0  0  0  0  0  0  0  0  0  0  0
    6.1073   -1.0066    2.5890 H   0  0  0  0  0  0  0  0  0  0  0  0
  1  2  1  0
  2  3  1  0
  3  4  1  0
  4  5  2  0
  5  6  1  0
  6  7  2  0
  7  8  1  0
  8  9  2  0
  9 10  1  0
 10 11  1  0
 11 12  2  0
 11 13  1  0
 13 14  1  0
 13 15  1  0
 15 16  1  0
 16 17  2  0
 16 18  1  0
 18 19  2  0
 19 20  1  0
 20 21  2  0
 21 22  1  0
 22 23  2  0
 22 24  1  0
 21 25  1  0
 10  2  2  0
 25 18  1  0
  9  4  1  0
  1 26  1  0
  1 27  1  0
  1 28  1  0
  3 29  1  0
  5 30  1  0
  6 31  1  0
  7 32  1  0
  8 33  1  0
 13 34  1  0
 14 35  1  0
 14 36  1  0
 14 37  1  0
 19 38  1  0
 20 39  1  0
M  CHG  2  22   1  24  -1
M  END
$$$$
