
     RDKit          3D

 59 62  0  0  0  0  0  0  0  0999 V2000
   -4.2804    3.3972   -0.6269 C   0  0  0  0  0  0  0  0  0  0  0  0
   -3.9090    2.0676   -1.2601 C   0  0  0  0  0  0  0  0  0  0  0  0
   -4.4912    0.9375   -0.5610 N   0  0  0  0  0  0  0  0  0  0  0  0
   -3.8965    0.1366    0.3970 C   0  0  0  0  0  0  0  0  0  0  0  0
   -2.5506    0.3488    0.9164 C   0  0  0  0  0  0  0  0  0  0  0  0
   -2.1123    1.4818    1.1095 O   0  0  0  0  0  0  0  0  0  0  0  0
   -1.7627   -0.7734    1.1776 N   0  0  0  0  0  0  0  0  0  0  0  0
   -1.9849   -2.0866    0.5636 C   0  0  0  0  0  0  0  0  0  0  0  0
   -0.6811   -2.8626    0.3495 C   0  0  0  0  0  0  0  0  0  0  0  0
    0.4238   -1.9374   -0.1607 C   0  0  0  0  0  0  0  0  0  0  0  0
    0.6678   -0.7438    0.7876 C   0  0  0  0  0  0  0  0  0  0  0  0
    1.9766   -0.8717    1.5533 C   0  0  0  0  0  0  0  0  0  0  0  0
    2.5337   -1.9459    1.7539 O   0  0  0  0  0  0  0  0  0  0  0  0
    2.4435    0.3291    2.0486 N   0  0  0  0  0  0  0  0  0  0  0  0
    3.7531    0.4446    2.6663 C   0  0  0  0  0  0  0  0  0  0  0  0
    4.7419    1.2391    1.8007 C   0  0  0  0  0  0  0  0  0  0  0  0
    4.9580    0.7103    0.4016 C   0  0  0  0  0  0  0  0  0  0  0  0
    5.2595   -0.6362    0.1670 C   0  0  0  0  0  0  0  0  0  0  0  0
    5.4586   -1.1065   -1.1336 C   0  0  0  0  0  0  0  0  0  0  0  0
    5.3635   -0.2399   -2.2261 C   0  0  0  0  0  0  0  0  0  0  0  0
    5.6042   -0.7378   -3.6195 C   0  0  0  0  0  0  0  0  0  0  0  0
    5.0942    1.1118   -1.9943 C   0  0  0  0  0  0  0  0  0  0  0  0
    4.8935    1.5821   -0.6940 C   0  0  0  0  0  0  0  0  0  0  0  0
   -0.4619   -0.5830    1.8096 C   0  0  0  0  0  0  0  0  0  0  0  0
   -4.8323   -0.8115    0.7938 C   0  0  0  0  0  0  0  0  0  0  0  0
   -5.9946   -0.5947    0.0067 C   0  0  0  0  0  0  0  0  0  0  0  0
   -7.5763   -1.2643   -0.2072 S   0  0  0  0  0  0  0  0  0  0  0  0
   -7.9109   -0.0777   -1.4073 C   0  0  0  0  0  0  0  0  0  0  0  0
   -6.8721    0.7973   -1.6407 C   0  0  0  0  0  0  0  0  0  0  0  0
   -5.7665    0.4728   -0.8056 C   0  0  0  0  0  0  0  0  0  0  0  0
   -3.9970    3.4306    0.4292 H   0  0  0  0  0  0  0  0  0  0  0  0
   -5.3591    3.5744   -0.6865 H   0  0  0  0  0  0  0  0  0  0  0  0
   -3.7737    4.2170   -1.1438 H   0  0  0  0  0  0  0  0  0  0  0  0
   -4.2518    2.0300   -2.3005 H   0  0  0  0  0  0  0  0  0  0  0  0
   -2.8226    1.9384   -1.2855 H   0  0  0  0  0  0  0  0  0  0  0  0
   -2.6455   -2.6637    1.2193 H   0  0  0  0  0  0  0  0  0  0  0  0
   -2.4837   -1.9531   -0.4029 H   0  0  0  0  0  0  0  0  0  0  0  0
   -0.3611   -3.3228    1.2921 H   0  0  0  0  0  0  0  0  0  0  0  0
   -0.8511   -3.6818   -0.3573 H   0  0  0  0  0  0  0  0  0  0  0  0
    1.3380   -2.5130   -0.3422 H   0  0  0  0  0  0  0  0  0  0  0  0
    0.1161   -1.5452   -1.1394 H   0  0  0  0  0  0  0  0  0  0  0  0
    0.7330    0.1582    0.1633 H   0  0  0  0  0  0  0  0  0  0  0  0
    1.9673    1.1840    1.7876 H   0  0  0  0  0  0  0  0  0  0  0  0
    4.1516   -0.5475    2.9011 H   0  0  0  0  0  0  0  0  0  0  0  0
    3.6061    0.9702    3.6159 H   0  0  0  0  0  0  0  0  0  0  0  0
    5.7139    1.2804    2.3067 H   0  0  0  0  0  0  0  0  0  0  0  0
    4.3807    2.2736    1.7404 H   0  0  0  0  0  0  0  0  0  0  0  0
    5.3287   -1.3431    0.9918 H   0  0  0  0  0  0  0  0  0  0  0  0
    5.6842   -2.1598   -1.2838 H   0  0  0  0  0  0  0  0  0  0  0  0
    4.9333   -0.2419   -4.3288 H   0  0  0  0  0  0  0  0  0  0  0  0
    6.6402   -0.5437   -3.9133 H   0  0  0  0  0  0  0  0  0  0  0  0
    5.4148   -1.8139   -3.6913 H   0  0  0  0  0  0  0  0  0  0  0  0
    5.0397    1.8099   -2.8262 H   0  0  0  0  0  0  0  0  0  0  0  0
    4.6863    2.6394   -0.5450 H   0  0  0  0  0  0  0  0  0  0  0  0
   -0.4027    0.3992    2.2936 H   0  0  0  0  0  0  0  0  0  0  0  0
   -0.3798   -1.3213    2.6189 H   0  0  0  0  0  0  0  0  0  0  0  0
   -4.7061   -1.5623    1.5616 H   0  0  0  0  0  0  0  0  0  0  0  0
   -8.8796   -0.0840   -1.8887 H   0  0  0  0  0  0  0  0  0  0  0  0
   -6.9084    1.6082   -2.3571 H   0  0  0  0  0  0  0  0  0  0  0  0
  1  2  1  0
  2  3  1  0
  3  4  1  0
  4  5  1  0
  5  6  2  0
  5  7  1  0
  7  8  1  0
  8  9  1  0
  9 10  1  0
 10 11  1  0
 11 12  1  0
 12 13  2  0
 12 14  1  0
 14 15  1  0
 15 16  1  0
 16 17  1  0
 17 18  2  0
 18 19  1  0
 19 20  2  0
 20 21  1  0
 20 22  1  0
 22 23  2  0
 11 24  1  0
  4 25  2  0
 25 26  1  0
 26 27  1  0
 27 28  1  0
 28 29  2  0
 29 30  1  0
 30  3  1  0
 24  7  1  0
 30 26  2  0
 23 17  1  0
  1 31  1  0
  1 32  1  0
  1 33  1  0
  2 34  1  0
  2 35  1  0
  8 36  1  0
  8 37  1  0
  9 38  1  0
  9 39  1  0
 10 40  1  0
 10 41  1  0
 11 42  1  0
 14 43  1  0
 15 44  1  0
 15 45  1  0
 16 46  1  0
 16 47  1  0
 18 48  1  0
 19 49  1  0
 21 50  1  0
 21 51  1  0
 21 52  1  0
 22 53  1  0
 23 54  1  0
 24 55  1  0
 24 56  1  0
 25 57  1  0
 28 58  1  0
 29 59  1  0
M  END
$$$$
