
     RDKit          3D

 81 85  0  0  0  0  0  0  0  0999 V2000
   -6.2064    2.3077   -0.2829 C   0  0  0  0  0  0  0  0  0  0  0  0
   -5.5411    1.1605    0.5025 C   0  0  0  0  0  0  0  0  0  0  0  0
   -6.1928    1.1097    1.8995 C   0  0  0  0  0  0  0  0  0  0  0  0
   -5.8132   -0.1910   -0.2035 C   0  0  0  0  0  0  0  0  0  0  0  0
   -4.9316   -0.4347   -1.4289 C   0  0  0  0  0  0  0  0  0  0  0  0
   -3.4120   -0.3113   -1.1338 C   0  0  0  0  0  0  0  0  0  0  0  0
   -2.8128    0.5716   -2.2422 C   0  0  0  0  0  0  0  0  0  0  0  0
   -2.1021    0.2056   -3.1665 O   0  0  0  0  0  0  0  0  0  0  0  0
   -3.1924    1.8615   -2.1973 O   0  0  0  0  0  0  0  0  0  0  0  0
   -2.7361   -1.7112   -1.2321 C   0  0  0  0  0  0  0  0  0  0  0  0
   -1.2391   -1.7223   -0.8349 C   0  0  0  0  0  0  0  0  0  0  0  0
   -0.9013   -1.0346    0.5287 C   0  0  0  0  0  0  0  0  0  0  0  0
   -1.4753   -1.9484    1.6547 C   0  0  0  0  0  0  0  0  0  0  0  0
   -1.6402    0.3268    0.5145 C   0  0  0  0  0  0  0  0  0  0  0  0
   -0.9949    1.5076    0.5359 C   0  0  0  0  0  0  0  0  0  0  0  0
    0.4927    1.6683    0.4451 C   0  0  0  0  0  0  0  0  0  0  0  0
    1.1933    0.3915   -0.0828 C   0  0  0  0  0  0  0  0  0  0  0  0
    2.7624    0.5769   -0.3558 C   0  0  0  0  0  0  0  0  0  0  0  0
    2.8455    1.4370   -1.6580 C   0  0  0  0  0  0  0  0  0  0  0  0
    3.4635    1.3781    0.7726 C   0  0  0  0  0  0  0  0  0  0  0  0
    4.9821    1.4560    0.6601 C   0  0  0  0  0  0  0  0  0  0  0  0
    5.6191    0.0763    0.5448 C   0  0  0  0  0  0  0  0  0  0  0  0
    7.0375    0.2263    0.4843 O   0  0  0  0  0  0  0  0  0  0  0  0
    5.0847   -0.7505   -0.6532 C   0  0  0  0  0  0  0  0  0  0  0  0
    5.7159   -2.1700   -0.5725 C   0  0  0  0  0  0  0  0  0  0  0  0
    5.5946   -0.1887   -2.0064 C   0  0  0  0  0  0  0  0  0  0  0  0
    3.4929   -0.8090   -0.6100 C   0  0  0  0  0  0  0  0  0  0  0  0
    3.0004   -1.8862    0.3828 C   0  0  0  0  0  0  0  0  0  0  0  0
    1.4917   -2.0807    0.3222 C   0  0  0  0  0  0  0  0  0  0  0  0
    0.7015   -0.8359    0.7657 C   0  0  0  0  0  0  0  0  0  0  0  0
    0.9672   -0.6243    2.2889 C   0  0  0  0  0  0  0  0  0  0  0  0
   -3.1487    0.2304    0.3017 C   0  0  0  0  0  0  0  0  0  0  0  0
   -4.0197    1.4528    0.6527 C   0  0  0  0  0  0  0  0  0  0  0  0
   -7.2867    2.1495   -0.3774 H   0  0  0  0  0  0  0  0  0  0  0  0
   -5.7956    2.3966   -1.2935 H   0  0  0  0  0  0  0  0  0  0  0  0
   -6.0559    3.2691    0.2214 H   0  0  0  0  0  0  0  0  0  0  0  0
   -7.2655    0.8968    1.8288 H   0  0  0  0  0  0  0  0  0  0  0  0
   -5.7372    0.3290    2.5192 H   0  0  0  0  0  0  0  0  0  0  0  0
   -6.0773    2.0633    2.4271 H   0  0  0  0  0  0  0  0  0  0  0  0
   -5.6595   -1.0203    0.5002 H   0  0  0  0  0  0  0  0  0  0  0  0
   -6.8675   -0.2540   -0.5030 H   0  0  0  0  0  0  0  0  0  0  0  0
   -5.2400    0.2608   -2.2194 H   0  0  0  0  0  0  0  0  0  0  0  0
   -5.1632   -1.4313   -1.8263 H   0  0  0  0  0  0  0  0  0  0  0  0
   -2.7408    2.2587   -2.9710 H   0  0  0  0  0  0  0  0  0  0  0  0
   -3.2799   -2.4216   -0.5969 H   0  0  0  0  0  0  0  0  0  0  0  0
   -2.8228   -2.1067   -2.2530 H   0  0  0  0  0  0  0  0  0  0  0  0
   -0.9227   -2.7729   -0.8107 H   0  0  0  0  0  0  0  0  0  0  0  0
   -0.6682   -1.2556   -1.6442 H   0  0  0  0  0  0  0  0  0  0  0  0
   -1.5351   -1.4224    2.6140 H   0  0  0  0  0  0  0  0  0  0  0  0
   -0.8633   -2.8459    1.7910 H   0  0  0  0  0  0  0  0  0  0  0  0
   -2.4838   -2.3146    1.4433 H   0  0  0  0  0  0  0  0  0  0  0  0
   -1.5496    2.4422    0.5139 H   0  0  0  0  0  0  0  0  0  0  0  0
    0.6801    2.5086   -0.2299 H   0  0  0  0  0  0  0  0  0  0  0  0
    0.8735    1.9695    1.4264 H   0  0  0  0  0  0  0  0  0  0  0  0
    0.7835    0.2181   -1.0893 H   0  0  0  0  0  0  0  0  0  0  0  0
    2.5459    0.8539   -2.5360 H   0  0  0  0  0  0  0  0  0  0  0  0
    3.8360    1.8440   -1.8469 H   0  0  0  0  0  0  0  0  0  0  0  0
    2.1927    2.3131   -1.6179 H   0  0  0  0  0  0  0  0  0  0  0  0
    3.2417    0.9461    1.7478 H   0  0  0  0  0  0  0  0  0  0  0  0
    3.0799    2.4053    0.8034 H   0  0  0  0  0  0  0  0  0  0  0  0
    5.2821    2.0979   -0.1750 H   0  0  0  0  0  0  0  0  0  0  0  0
    5.3825    1.9608    1.5492 H   0  0  0  0  0  0  0  0  0  0  0  0
    5.4157   -0.4689    1.4747 H   0  0  0  0  0  0  0  0  0  0  0  0
    7.2492    0.8286   -0.2485 H   0  0  0  0  0  0  0  0  0  0  0  0
    6.8008   -2.1404   -0.7300 H   0  0  0  0  0  0  0  0  0  0  0  0
    5.2938   -2.8312   -1.3378 H   0  0  0  0  0  0  0  0  0  0  0  0
    5.5671   -2.6316    0.4094 H   0  0  0  0  0  0  0  0  0  0  0  0
    5.5507    0.8974   -2.0701 H   0  0  0  0  0  0  0  0  0  0  0  0
    6.6488   -0.4412   -2.1749 H   0  0  0  0  0  0  0  0  0  0  0  0
    5.0306   -0.6083   -2.8466 H   0  0  0  0  0  0  0  0  0  0  0  0
    3.1679   -1.1660   -1.5988 H   0  0  0  0  0  0  0  0  0  0  0  0
    3.3359   -1.6669    1.4006 H   0  0  0  0  0  0  0  0  0  0  0  0
    3.4259   -2.8609    0.1218 H   0  0  0  0  0  0  0  0  0  0  0  0
    1.2450   -2.3532   -0.7097 H   0  0  0  0  0  0  0  0  0  0  0  0
    1.2254   -2.9458    0.9405 H   0  0  0  0  0  0  0  0  0  0  0  0
    0.3262    0.1486    2.7234 H   0  0  0  0  0  0  0  0  0  0  0  0
    0.7904   -1.5454    2.8561 H   0  0  0  0  0  0  0  0  0  0  0  0
    1.9958   -0.3513    2.5117 H   0  0  0  0  0  0  0  0  0  0  0  0
   -3.4964   -0.5236    1.0188 H   0  0  0  0  0  0  0  0  0  0  0  0
   -3.7981    1.7569    1.6850 H   0  0  0  0  0  0  0  0  0  0  0  0
   -3.7432    2.3197    0.0455 H   0  0  0  0  0  0  0  0  0  0  0  0
  1  2  1  0
  2  3  1  0
  2  4  1  0
  4  5  1  0
  5  6  1  0
  6  7  1  0
  7  8  2  0
  7  9  1  0
  6 10  1  0
 10 11  1  0
 11 12  1  0
 12 13  1  0
 12 14  1  0
 14 15  2  0
 15 16  1  0
 16 17  1  0
 17 18  1  0
 18 19  1  0
 18 20  1  0
 20 21  1  0
 21 22  1  0
 22 23  1  0
 22 24  1  0
 24 25  1  0
 24 26  1  0
 24 27  1  0
 27 28  1  0
 28 29  1  0
 29 30  1  0
 30 31  1  0
 14 32  1  0
 32 33  1  0
 33  2  1  0
 32  6  1  0
 30 12  1  0
 30 17  1  0
 27 18  1  0
  1 34  1  0
  1 35  1  0
  1 36  1  0
  3 37  1  0
  3 38  1  0
  3 39  1  0
  4 40  1  0
  4 41  1  0
  5 42  1  0
  5 43  1  0
  9 44  1  0
 10 45  1  0
 10 46  1  0
 11 47  1  0
 11 48  1  0
 13 49  1  0
 13 50  1  0
 13 51  1  0
 15 52  1  0
 16 53  1  0
 16 54  1  0
 17 55  1  0
 19 56  1  0
 19 57  1  0
 19 58  1  0
 20 59  1  0
 20 60  1  0
 21 61  1  0
 21 62  1  0
 22 63  1  0
 23 64  1  0
 25 65  1  0
 25 66  1  0
 25 67  1  0
 26 68  1  0
 26 69  1  0
 26 70  1  0
 27 71  1  0
 28 72  1  0
 28 73  1  0
 29 74  1  0
 29 75  1  0
 31 76  1  0
 31 77  1  0
 31 78  1  0
 32 79  1  0
 33 80  1  0
 33 81  1  0
M  END
$$$$
