
     RDKit          3D

 92 93  0  0  0  0  0  0  0  0999 V2000
   11.4734    1.0960    2.5199 C   0  0  0  0  0  0  0  0  0  0  0  0
   10.3751    0.8139    1.5021 C   0  0  0  0  0  0  0  0  0  0  0  0
   10.2587   -0.6795    1.2080 C   0  0  0  0  0  0  0  0  0  0  0  0
    9.2193   -1.0102    0.1329 C   0  0  0  0  0  0  0  0  0  0  0  0
    7.7781   -0.5858    0.4429 C   0  0  0  0  0  0  0  0  0  0  0  0
    7.2314   -1.2103    1.7263 C   0  0  0  0  0  0  0  0  0  0  0  0
    5.7618   -0.8609    2.0022 C   0  0  0  0  0  0  0  0  0  0  0  0
    4.7492   -1.8888    1.4869 C   0  0  0  0  0  0  0  0  0  0  0  0
    4.5692   -1.9743   -0.0305 C   0  0  0  0  0  0  0  0  0  0  0  0
    4.1284   -0.6787   -0.7154 C   0  0  0  0  0  0  0  0  0  0  0  0
    2.8308   -0.0559   -0.1916 C   0  0  0  0  0  0  0  0  0  0  0  0
    1.6053   -0.9549   -0.3873 C   0  0  0  0  0  0  0  0  0  0  0  0
    0.2948   -0.3229    0.1026 C   0  0  0  0  0  0  0  0  0  0  0  0
   -0.1026    0.9265   -0.6886 C   0  0  0  0  0  0  0  0  0  0  0  0
   -1.4860    1.4703   -0.3331 C   0  0  0  0  0  0  0  0  0  0  0  0
   -2.7159    0.5652   -0.4913 C   0  0  0  0  0  0  0  0  0  0  0  0
   -3.0808    0.1300   -1.9305 N   0  0  0  0  0  4  0  0  0  0  0  0
   -2.2782   -1.1157   -2.3254 C   0  0  0  0  0  0  0  0  0  0  0  0
   -2.8602    1.2107   -2.9747 C   0  0  0  0  0  0  0  0  0  0  0  0
   -4.5877   -0.3178   -1.9451 C   0  0  0  0  0  0  0  0  0  0  0  0
   -5.6151    0.8409   -1.9040 C   0  0  0  0  0  0  0  0  0  0  0  0
   -6.9106    0.3387   -1.4492 N   0  0  0  0  0  0  0  0  0  0  0  0
   -7.5618    0.9485   -0.2885 C   0  0  0  0  0  0  0  0  0  0  0  0
   -6.6299    0.9092    0.9130 C   0  0  0  0  0  0  0  0  0  0  0  0
   -6.0941    2.0856    1.4556 C   0  0  0  0  0  0  0  0  0  0  0  0
   -5.1845    2.0287    2.5174 C   0  0  0  0  0  0  0  0  0  0  0  0
   -4.8093    0.7947    3.0523 C   0  0  0  0  0  0  0  0  0  0  0  0
   -3.8949    0.6128    4.0500 O   0  0  0  0  0  0  0  0  0  0  0  0
   -3.6787    1.7284    4.9091 C   0  0  0  0  0  0  0  0  0  0  0  0
   -5.3541   -0.3764    2.5264 C   0  0  0  0  0  0  0  0  0  0  0  0
   -6.2692   -0.3236    1.4762 C   0  0  0  0  0  0  0  0  0  0  0  0
   -7.7458   -0.1751   -2.4333 C   0  0  0  0  0  0  0  0  0  0  0  0
   -9.0359   -0.4046   -2.1455 N   0  0  0  0  0  0  0  0  0  0  0  0
   -9.8220   -0.9218   -3.1149 C   0  0  0  0  0  0  0  0  0  0  0  0
   -9.3712   -1.2155   -4.3720 C   0  0  0  0  0  0  0  0  0  0  0  0
   -8.0373   -0.9625   -4.5802 C   0  0  0  0  0  0  0  0  0  0  0  0
   -7.2104   -0.4594   -3.6364 N   0  0  0  0  0  0  0  0  0  0  0  0
   12.4529    0.7754    2.1481 H   0  0  0  0  0  0  0  0  0  0  0  0
   11.2716    0.5755    3.4610 H   0  0  0  0  0  0  0  0  0  0  0  0
   11.5210    2.1675    2.7291 H   0  0  0  0  0  0  0  0  0  0  0  0
   10.5938    1.3567    0.5777 H   0  0  0  0  0  0  0  0  0  0  0  0
    9.4313    1.1985    1.8948 H   0  0  0  0  0  0  0  0  0  0  0  0
   10.0360   -1.2265    2.1291 H   0  0  0  0  0  0  0  0  0  0  0  0
   11.2338   -1.0533    0.8720 H   0  0  0  0  0  0  0  0  0  0  0  0
    9.2387   -2.0917   -0.0433 H   0  0  0  0  0  0  0  0  0  0  0  0
    9.5208   -0.5399   -0.8123 H   0  0  0  0  0  0  0  0  0  0  0  0
    7.7167    0.5069    0.5115 H   0  0  0  0  0  0  0  0  0  0  0  0
    7.1663   -0.8758   -0.4144 H   0  0  0  0  0  0  0  0  0  0  0  0
    7.8185   -0.8282    2.5696 H   0  0  0  0  0  0  0  0  0  0  0  0
    7.3670   -2.2983    1.7128 H   0  0  0  0  0  0  0  0  0  0  0  0
    5.5196    0.1460    1.6411 H   0  0  0  0  0  0  0  0  0  0  0  0
    5.6396   -0.8297    3.0916 H   0  0  0  0  0  0  0  0  0  0  0  0
    5.0363   -2.8841    1.8522 H   0  0  0  0  0  0  0  0  0  0  0  0
    3.7743   -1.6788    1.9484 H   0  0  0  0  0  0  0  0  0  0  0  0
    5.5003   -2.3204   -0.4931 H   0  0  0  0  0  0  0  0  0  0  0  0
    3.8361   -2.7583   -0.2480 H   0  0  0  0  0  0  0  0  0  0  0  0
    4.9268    0.0694   -0.6324 H   0  0  0  0  0  0  0  0  0  0  0  0
    4.0186   -0.8774   -1.7895 H   0  0  0  0  0  0  0  0  0  0  0  0
    2.9372    0.2119    0.8632 H   0  0  0  0  0  0  0  0  0  0  0  0
    2.6858    0.8813   -0.7388 H   0  0  0  0  0  0  0  0  0  0  0  0
    1.5049   -1.2172   -1.4507 H   0  0  0  0  0  0  0  0  0  0  0  0
    1.7457   -1.8968    0.1574 H   0  0  0  0  0  0  0  0  0  0  0  0
   -0.4876   -1.0855    0.0222 H   0  0  0  0  0  0  0  0  0  0  0  0
    0.3800   -0.0712    1.1686 H   0  0  0  0  0  0  0  0  0  0  0  0
   -0.0196    0.7420   -1.7642 H   0  0  0  0  0  0  0  0  0  0  0  0
    0.6179    1.7261   -0.4718 H   0  0  0  0  0  0  0  0  0  0  0  0
   -1.6486    2.4057   -0.8831 H   0  0  0  0  0  0  0  0  0  0  0  0
   -1.4516    1.7632    0.7265 H   0  0  0  0  0  0  0  0  0  0  0  0
   -2.6332   -0.3416    0.1160 H   0  0  0  0  0  0  0  0  0  0  0  0
   -3.5698    1.1282   -0.1083 H   0  0  0  0  0  0  0  0  0  0  0  0
   -2.4456   -1.8891   -1.5699 H   0  0  0  0  0  0  0  0  0  0  0  0
   -1.2233   -0.8602   -2.3917 H   0  0  0  0  0  0  0  0  0  0  0  0
   -2.6269   -1.4594   -3.3048 H   0  0  0  0  0  0  0  0  0  0  0  0
   -1.7866    1.3745   -3.0945 H   0  0  0  0  0  0  0  0  0  0  0  0
   -3.3522    2.1290   -2.6465 H   0  0  0  0  0  0  0  0  0  0  0  0
   -3.2797    0.8592   -3.9186 H   0  0  0  0  0  0  0  0  0  0  0  0
   -4.7059   -0.9850   -1.0821 H   0  0  0  0  0  0  0  0  0  0  0  0
   -4.7274   -0.9112   -2.8522 H   0  0  0  0  0  0  0  0  0  0  0  0
   -5.6876    1.3203   -2.8879 H   0  0  0  0  0  0  0  0  0  0  0  0
   -5.2703    1.6434   -1.2463 H   0  0  0  0  0  0  0  0  0  0  0  0
   -8.4767    0.4207    0.0164 H   0  0  0  0  0  0  0  0  0  0  0  0
   -7.8535    1.9796   -0.5219 H   0  0  0  0  0  0  0  0  0  0  0  0
   -6.3668    3.0585    1.0495 H   0  0  0  0  0  0  0  0  0  0  0  0
   -4.7790    2.9617    2.8986 H   0  0  0  0  0  0  0  0  0  0  0  0
   -4.6245    2.1289    5.2853 H   0  0  0  0  0  0  0  0  0  0  0  0
   -3.0960    1.3850    5.7667 H   0  0  0  0  0  0  0  0  0  0  0  0
   -3.0967    2.5051    4.4023 H   0  0  0  0  0  0  0  0  0  0  0  0
   -5.0739   -1.3411    2.9507 H   0  0  0  0  0  0  0  0  0  0  0  0
   -6.6920   -1.2489    1.0876 H   0  0  0  0  0  0  0  0  0  0  0  0
  -10.8590   -1.0849   -2.8324 H   0  0  0  0  0  0  0  0  0  0  0  0
  -10.0128   -1.6242   -5.1391 H   0  0  0  0  0  0  0  0  0  0  0  0
   -7.5838   -1.1470   -5.5458 H   0  0  0  0  0  0  0  0  0  0  0  0
  1  2  1  0
  2  3  1  0
  3  4  1  0
  4  5  1  0
  5  6  1  0
  6  7  1  0
  7  8  1  0
  8  9  1  0
  9 10  1  0
 10 11  1  0
 11 12  1  0
 12 13  1  0
 13 14  1  0
 14 15  1  0
 15 16  1  0
 16 17  1  0
 17 18  1  0
 17 19  1  0
 17 20  1  0
 20 21  1  0
 21 22  1  0
 22 23  1  0
 23 24  1  0
 24 25  2  0
 25 26  1  0
 26 27  2  0
 27 28  1  0
 28 29  1  0
 27 30  1  0
 30 31  2  0
 22 32  1  0
 32 33  2  0
 33 34  1  0
 34 35  2  0
 35 36  1  0
 36 37  2  0
 31 24  1  0
 37 32  1  0
  1 38  1  0
  1 39  1  0
  1 40  1  0
  2 41  1  0
  2 42  1  0
  3 43  1  0
  3 44  1  0
  4 45  1  0
  4 46  1  0
  5 47  1  0
  5 48  1  0
  6 49  1  0
  6 50  1  0
  7 51  1  0
  7 52  1  0
  8 53  1  0
  8 54  1  0
  9 55  1  0
  9 56  1  0
 10 57  1  0
 10 58  1  0
 11 59  1  0
 11 60  1  0
 12 61  1  0
 12 62  1  0
 13 63  1  0
 13 64  1  0
 14 65  1  0
 14 66  1  0
 15 67  1  0
 15 68  1  0
 16 69  1  0
 16 70  1  0
 18 71  1  0
 18 72  1  0
 18 73  1  0
 19 74  1  0
 19 75  1  0
 19 76  1  0
 20 77  1  0
 20 78  1  0
 21 79  1  0
 21 80  1  0
 23 81  1  0
 23 82  1  0
 25 83  1  0
 26 84  1  0
 29 85  1  0
 29 86  1  0
 29 87  1  0
 30 88  1  0
 31 89  1  0
 34 90  1  0
 35 91  1  0
 36 92  1  0
M  CHG  1  17   1
M  END
$$$$
