
     RDKit          3D

 64 67  0  0  0  0  0  0  0  0999 V2000
   10.4736   -1.2112    0.4855 C   0  0  0  0  0  0  0  0  0  0  0  0
    9.3403   -2.1441    0.8861 C   0  0  0  0  0  0  0  0  0  0  0  0
    7.9904   -1.5604    0.5551 C   0  0  0  0  0  0  0  0  0  0  0  0
    7.4051   -1.7830   -0.6956 C   0  0  0  0  0  0  0  0  0  0  0  0
    6.1607   -1.2239   -1.0104 C   0  0  0  0  0  0  0  0  0  0  0  0
    5.4765   -0.4251   -0.0839 C   0  0  0  0  0  0  0  0  0  0  0  0
    4.1738    0.1740   -0.4051 C   0  0  0  0  0  0  0  0  0  0  0  0
    3.4237    0.0612   -1.6124 C   0  0  0  0  0  0  0  0  0  0  0  0
    2.2903    0.8124   -1.4111 C   0  0  0  0  0  0  0  0  0  0  0  0
    1.1479    1.1167   -2.2164 C   0  0  0  0  0  0  0  0  0  0  0  0
    1.0049    0.6795   -3.3535 O   0  0  0  0  0  0  0  0  0  0  0  0
    0.2131    1.9628   -1.5860 N   0  0  0  0  0  0  0  0  0  0  0  0
   -0.9943    2.3470   -2.3194 C   0  0  0  0  0  0  0  0  0  0  0  0
   -2.1468    1.3707   -2.0844 C   0  0  0  0  0  0  0  0  0  0  0  0
   -3.0834    1.2667   -2.8724 O   0  0  0  0  0  0  0  0  0  0  0  0
   -2.1268    0.7330   -0.8625 N   0  0  0  0  0  0  0  0  0  0  0  0
   -3.1610   -0.1927   -0.4418 C   0  0  0  0  0  0  0  0  0  0  0  0
   -4.4961    0.5011   -0.1016 C   0  0  0  0  0  0  0  0  0  0  0  0
   -5.4515   -0.3679    0.6152 N   0  0  0  0  0  0  0  0  0  0  0  0
   -5.9016   -1.4992   -0.2120 C   0  0  0  0  0  0  0  0  0  0  0  0
   -6.7985   -2.4530    0.5800 C   0  0  0  0  0  0  0  0  0  0  0  0
   -7.9808   -1.7262    1.2065 C   0  0  0  0  0  0  0  0  0  0  0  0
   -7.4902   -0.5288    2.0134 C   0  0  0  0  0  0  0  0  0  0  0  0
   -6.5802    0.4023    1.1895 C   0  0  0  0  0  0  0  0  0  0  0  0
   -7.4041    1.2135    0.1753 C   0  0  0  0  0  0  0  0  0  0  0  0
    0.3327    2.4436   -0.2740 N   0  0  0  0  0  0  0  0  0  0  0  0
    1.4066    2.1301    0.3946 C   0  0  0  0  0  0  0  0  0  0  0  0
    1.6587    2.5953    1.7931 C   0  0  0  0  0  0  0  0  0  0  0  0
    2.3917    1.3193   -0.1580 N   0  0  0  0  0  0  0  0  0  0  0  0
    3.5167    0.9483    0.4818 N   0  0  0  0  0  0  0  0  0  0  0  0
    6.0725   -0.2029    1.1666 C   0  0  0  0  0  0  0  0  0  0  0  0
    7.3150   -0.7618    1.4830 C   0  0  0  0  0  0  0  0  0  0  0  0
   11.4390   -1.6529    0.7501 H   0  0  0  0  0  0  0  0  0  0  0  0
   10.4710   -1.0223   -0.5938 H   0  0  0  0  0  0  0  0  0  0  0  0
   10.3922   -0.2445    0.9946 H   0  0  0  0  0  0  0  0  0  0  0  0
    9.4595   -3.1104    0.3808 H   0  0  0  0  0  0  0  0  0  0  0  0
    9.3959   -2.3540    1.9612 H   0  0  0  0  0  0  0  0  0  0  0  0
    7.9153   -2.3934   -1.4377 H   0  0  0  0  0  0  0  0  0  0  0  0
    5.7468   -1.4271   -1.9938 H   0  0  0  0  0  0  0  0  0  0  0  0
    3.6692   -0.4869   -2.5116 H   0  0  0  0  0  0  0  0  0  0  0  0
   -0.7807    2.3732   -3.3929 H   0  0  0  0  0  0  0  0  0  0  0  0
   -1.3053    3.3449   -1.9927 H   0  0  0  0  0  0  0  0  0  0  0  0
   -1.4215    1.0341   -0.1956 H   0  0  0  0  0  0  0  0  0  0  0  0
   -3.3028   -0.9135   -1.2534 H   0  0  0  0  0  0  0  0  0  0  0  0
   -2.7679   -0.7246    0.4308 H   0  0  0  0  0  0  0  0  0  0  0  0
   -4.9424    0.8958   -1.0230 H   0  0  0  0  0  0  0  0  0  0  0  0
   -4.2633    1.3675    0.5327 H   0  0  0  0  0  0  0  0  0  0  0  0
   -6.4264   -1.1512   -1.1098 H   0  0  0  0  0  0  0  0  0  0  0  0
   -5.0431   -2.0869   -0.5552 H   0  0  0  0  0  0  0  0  0  0  0  0
   -6.2091   -2.9338    1.3725 H   0  0  0  0  0  0  0  0  0  0  0  0
   -7.1602   -3.2534   -0.0771 H   0  0  0  0  0  0  0  0  0  0  0  0
   -8.6717   -1.3976    0.4217 H   0  0  0  0  0  0  0  0  0  0  0  0
   -8.5381   -2.4113    1.8556 H   0  0  0  0  0  0  0  0  0  0  0  0
   -8.3503    0.0262    2.4082 H   0  0  0  0  0  0  0  0  0  0  0  0
   -6.9312   -0.8929    2.8859 H   0  0  0  0  0  0  0  0  0  0  0  0
   -6.1599    1.1233    1.9048 H   0  0  0  0  0  0  0  0  0  0  0  0
   -6.8061    2.0130   -0.2729 H   0  0  0  0  0  0  0  0  0  0  0  0
   -8.2606    1.6917    0.6670 H   0  0  0  0  0  0  0  0  0  0  0  0
   -7.7989    0.5925   -0.6351 H   0  0  0  0  0  0  0  0  0  0  0  0
    0.8607    3.2747    2.1082 H   0  0  0  0  0  0  0  0  0  0  0  0
    2.6105    3.1312    1.8517 H   0  0  0  0  0  0  0  0  0  0  0  0
    1.6762    1.7406    2.4756 H   0  0  0  0  0  0  0  0  0  0  0  0
    5.5737    0.4144    1.9110 H   0  0  0  0  0  0  0  0  0  0  0  0
    7.7507   -0.5638    2.4600 H   0  0  0  0  0  0  0  0  0  0  0  0
  1  2  1  0
  2  3  1  0
  3  4  2  0
  4  5  1  0
  5  6  2  0
  6  7  1  0
  7  8  1  0
  8  9  2  0
  9 10  1  0
 10 11  2  0
 10 12  1  0
 12 13  1  0
 13 14  1  0
 14 15  2  0
 14 16  1  0
 16 17  1  0
 17 18  1  0
 18 19  1  0
 19 20  1  0
 20 21  1  0
 21 22  1  0
 22 23  1  0
 23 24  1  0
 24 25  1  0
 12 26  1  0
 26 27  2  0
 27 28  1  0
 27 29  1  0
 29 30  1  0
  6 31  1  0
 31 32  2  0
 32  3  1  0
 30  7  2  0
 29  9  1  0
 24 19  1  0
  1 33  1  0
  1 34  1  0
  1 35  1  0
  2 36  1  0
  2 37  1  0
  4 38  1  0
  5 39  1  0
  8 40  1  0
 13 41  1  0
 13 42  1  0
 16 43  1  0
 17 44  1  0
 17 45  1  0
 18 46  1  0
 18 47  1  0
 20 48  1  0
 20 49  1  0
 21 50  1  0
 21 51  1  0
 22 52  1  0
 22 53  1  0
 23 54  1  0
 23 55  1  0
 24 56  1  0
 25 57  1  0
 25 58  1  0
 25 59  1  0
 28 60  1  0
 28 61  1  0
 28 62  1  0
 31 63  1  0
 32 64  1  0
M  END
$$$$
