
     RDKit          3D

 55 57  0  0  0  0  0  0  0  0999 V2000
   -6.4516   -2.2887   -0.0529 C   0  0  0  0  0  0  0  0  0  0  0  0
   -5.6540   -1.2688   -0.8099 C   0  0  0  0  0  0  0  0  0  0  0  0
   -5.1881   -1.5451   -2.0983 C   0  0  0  0  0  0  0  0  0  0  0  0
   -4.4316   -0.6013   -2.7994 C   0  0  0  0  0  0  0  0  0  0  0  0
   -4.1131    0.6390   -2.2261 C   0  0  0  0  0  0  0  0  0  0  0  0
   -3.3196    1.6252   -3.0339 C   0  0  0  0  0  0  0  0  0  0  0  0
   -4.5368    0.8900   -0.9099 C   0  0  0  0  0  0  0  0  0  0  0  0
   -4.1922    2.1320   -0.1753 C   0  0  0  0  0  0  0  0  0  0  0  0
   -5.1017    2.8400    0.2524 O   0  0  0  0  0  0  0  0  0  0  0  0
   -2.7247    2.4721    0.0361 C   0  0  0  0  0  0  0  0  0  0  0  0
   -1.9143    1.2974    0.0094 O   0  0  0  0  0  0  0  0  0  0  0  0
   -0.5827    1.5326   -0.0070 C   0  0  0  0  0  0  0  0  0  0  0  0
   -0.0514    2.6294    0.0292 O   0  0  0  0  0  0  0  0  0  0  0  0
    0.1689    0.2512   -0.0846 C   0  0  0  0  0  0  0  0  0  0  0  0
   -0.4686   -0.9921   -0.1448 C   0  0  0  0  0  0  0  0  0  0  0  0
    0.2858   -2.1665   -0.2305 C   0  0  0  0  0  0  0  0  0  0  0  0
    1.6908   -2.1301   -0.2579 C   0  0  0  0  0  0  0  0  0  0  0  0
    2.4340   -3.4311   -0.3749 C   0  0  0  0  0  0  0  0  0  0  0  0
    2.3243   -0.8770   -0.1712 C   0  0  0  0  0  0  0  0  0  0  0  0
    4.1012   -0.6932   -0.1496 S   0  0  0  0  0  6  0  0  0  0  0  0
    4.7108   -1.8919    0.3846 O   0  0  0  0  0  0  0  0  0  0  0  0
    4.4777   -0.1580   -1.4392 O   0  0  0  0  0  0  0  0  0  0  0  0
    4.3489    0.5222    1.0251 N   0  0  0  0  0  0  0  0  0  0  0  0
    4.0276    0.1316    2.4391 C   0  0  0  0  0  0  0  0  0  0  0  0
    5.3068   -0.1046    3.2476 C   0  0  0  0  0  0  0  0  0  0  0  0
    6.1277    1.0682    3.3481 O   0  0  0  0  0  0  0  0  0  0  0  0
    6.0283    1.9310    2.2052 C   0  0  0  0  0  0  0  0  0  0  0  0
    5.6929    1.1808    0.9131 C   0  0  0  0  0  0  0  0  0  0  0  0
    1.5661    0.3047   -0.1004 C   0  0  0  0  0  0  0  0  0  0  0  0
   -5.3152   -0.0488   -0.2161 C   0  0  0  0  0  0  0  0  0  0  0  0
   -7.0563   -2.8959   -0.7350 H   0  0  0  0  0  0  0  0  0  0  0  0
   -7.1401   -1.8054    0.6480 H   0  0  0  0  0  0  0  0  0  0  0  0
   -5.7800   -2.9463    0.5067 H   0  0  0  0  0  0  0  0  0  0  0  0
   -5.4225   -2.4956   -2.5740 H   0  0  0  0  0  0  0  0  0  0  0  0
   -4.1014   -0.8408   -3.8088 H   0  0  0  0  0  0  0  0  0  0  0  0
   -3.4557    1.4517   -4.1072 H   0  0  0  0  0  0  0  0  0  0  0  0
   -2.2538    1.5322   -2.8048 H   0  0  0  0  0  0  0  0  0  0  0  0
   -3.6479    2.6514   -2.8404 H   0  0  0  0  0  0  0  0  0  0  0  0
   -2.4207    3.1841   -0.7382 H   0  0  0  0  0  0  0  0  0  0  0  0
   -2.6309    2.9315    1.0264 H   0  0  0  0  0  0  0  0  0  0  0  0
   -1.5540   -1.0689   -0.1361 H   0  0  0  0  0  0  0  0  0  0  0  0
   -0.2395   -3.1197   -0.2863 H   0  0  0  0  0  0  0  0  0  0  0  0
    3.2024   -3.3732   -1.1517 H   0  0  0  0  0  0  0  0  0  0  0  0
    2.8825   -3.7014    0.5854 H   0  0  0  0  0  0  0  0  0  0  0  0
    1.7620   -4.2466   -0.6653 H   0  0  0  0  0  0  0  0  0  0  0  0
    3.3925   -0.7589    2.4730 H   0  0  0  0  0  0  0  0  0  0  0  0
    3.4504    0.9550    2.8761 H   0  0  0  0  0  0  0  0  0  0  0  0
    5.0564   -0.4149    4.2672 H   0  0  0  0  0  0  0  0  0  0  0  0
    5.9117   -0.9025    2.8019 H   0  0  0  0  0  0  0  0  0  0  0  0
    6.9862    2.4507    2.1035 H   0  0  0  0  0  0  0  0  0  0  0  0
    5.2656    2.6877    2.4225 H   0  0  0  0  0  0  0  0  0  0  0  0
    6.4622    0.4228    0.7234 H   0  0  0  0  0  0  0  0  0  0  0  0
    5.6691    1.8856    0.0752 H   0  0  0  0  0  0  0  0  0  0  0  0
    2.0679    1.2717   -0.0640 H   0  0  0  0  0  0  0  0  0  0  0  0
   -5.6519    0.1763    0.7945 H   0  0  0  0  0  0  0  0  0  0  0  0
  1  2  1  0
  2  3  2  0
  3  4  1  0
  4  5  2  0
  5  6  1  0
  5  7  1  0
  7  8  1  0
  8  9  2  0
  8 10  1  0
 10 11  1  0
 11 12  1  0
 12 13  2  0
 12 14  1  0
 14 15  2  0
 15 16  1  0
 16 17  2  0
 17 18  1  0
 17 19  1  0
 19 20  1  0
 20 21  2  0
 20 22  2  0
 20 23  1  0
 23 24  1  0
 24 25  1  0
 25 26  1  0
 26 27  1  0
 27 28  1  0
 19 29  2  0
  7 30  2  0
 30  2  1  0
 29 14  1  0
 28 23  1  0
  1 31  1  0
  1 32  1  0
  1 33  1  0
  3 34  1  0
  4 35  1  0
  6 36  1  0
  6 37  1  0
  6 38  1  0
 10 39  1  0
 10 40  1  0
 15 41  1  0
 16 42  1  0
 18 43  1  0
 18 44  1  0
 18 45  1  0
 24 46  1  0
 24 47  1  0
 25 48  1  0
 25 49  1  0
 27 50  1  0
 27 51  1  0
 28 52  1  0
 28 53  1  0
 29 54  1  0
 30 55  1  0
M  END
$$$$
