
     RDKit          3D

 55 57  0  0  0  0  0  0  0  0999 V2000
   -7.8457    2.6546   -1.5843 C   0  0  0  0  0  0  0  0  0  0  0  0
   -7.4108    1.8231   -0.5185 O   0  0  0  0  0  0  0  0  0  0  0  0
   -6.0798    1.4909   -0.4702 C   0  0  0  0  0  0  0  0  0  0  0  0
   -5.1236    1.9204   -1.3955 C   0  0  0  0  0  0  0  0  0  0  0  0
   -3.7881    1.5290   -1.2658 C   0  0  0  0  0  0  0  0  0  0  0  0
   -3.3927    0.7005   -0.2133 C   0  0  0  0  0  0  0  0  0  0  0  0
   -1.9778    0.3299   -0.0908 C   0  0  0  0  0  0  0  0  0  0  0  0
   -1.4764   -0.9122   -0.1302 C   0  0  0  0  0  0  0  0  0  0  0  0
   -2.3165   -2.3917   -0.3448 S   0  0  0  0  0  0  0  0  0  0  0  0
   -0.8439   -3.3520   -0.2693 C   0  0  0  0  0  0  0  0  0  0  0  0
   -0.8696   -5.0141   -0.4058 S   0  0  0  0  0  0  0  0  0  0  0  0
    0.2477   -2.5238   -0.0856 N   0  0  0  0  0  0  0  0  0  0  0  0
    1.6336   -2.9922    0.0266 C   0  0  0  0  0  0  0  0  0  0  0  0
    2.3270   -3.1590   -1.3319 C   0  0  0  0  0  0  0  0  0  0  0  0
    2.7085   -1.8529   -2.0288 C   0  0  0  0  0  0  0  0  0  0  0  0
    3.8862   -1.1752   -1.3489 C   0  0  0  0  0  0  0  0  0  0  0  0
    5.0278   -1.5683   -1.5651 O   0  0  0  0  0  0  0  0  0  0  0  0
    3.5121   -0.1653   -0.4860 N   0  0  0  0  0  0  0  0  0  0  0  0
    4.3512    0.6612    0.2909 C   0  0  0  0  0  0  0  0  0  0  0  0
    3.7192    1.5750    1.1463 C   0  0  0  0  0  0  0  0  0  0  0  0
    4.4651    2.4359    1.9531 C   0  0  0  0  0  0  0  0  0  0  0  0
    5.8561    2.3925    1.9102 C   0  0  0  0  0  0  0  0  0  0  0  0
    6.5019    1.4880    1.0590 C   0  0  0  0  0  0  0  0  0  0  0  0
    7.9853    1.4846    1.0477 C   0  0  0  0  0  0  0  0  0  0  0  0
    8.7014    2.2013    1.7231 O   0  0  0  0  0  0  0  0  0  0  0  0
    8.5040    0.5877    0.1931 O   0  0  0  0  0  0  0  0  0  0  0  0
    5.7471    0.6236    0.2503 C   0  0  0  0  0  0  0  0  0  0  0  0
   -0.0173   -1.1678   -0.0150 C   0  0  0  0  0  0  0  0  0  0  0  0
    0.8193   -0.2792    0.0999 O   0  0  0  0  0  0  0  0  0  0  0  0
   -4.3446    0.2792    0.7240 C   0  0  0  0  0  0  0  0  0  0  0  0
   -5.6870    0.6590    0.5975 C   0  0  0  0  0  0  0  0  0  0  0  0
   -6.6811    0.2870    1.4694 O   0  0  0  0  0  0  0  0  0  0  0  0
   -6.3693   -0.7034    2.4386 C   0  0  0  0  0  0  0  0  0  0  0  0
   -8.9224    2.8117   -1.4682 H   0  0  0  0  0  0  0  0  0  0  0  0
   -7.3608    3.6355   -1.5433 H   0  0  0  0  0  0  0  0  0  0  0  0
   -7.6833    2.1722   -2.5538 H   0  0  0  0  0  0  0  0  0  0  0  0
   -5.3844    2.5618   -2.2306 H   0  0  0  0  0  0  0  0  0  0  0  0
   -3.0636    1.8770   -1.9991 H   0  0  0  0  0  0  0  0  0  0  0  0
   -1.3036    1.1785    0.0200 H   0  0  0  0  0  0  0  0  0  0  0  0
    2.1966   -2.3054    0.6673 H   0  0  0  0  0  0  0  0  0  0  0  0
    1.6344   -3.9582    0.5427 H   0  0  0  0  0  0  0  0  0  0  0  0
    1.6835   -3.7355   -2.0065 H   0  0  0  0  0  0  0  0  0  0  0  0
    3.2355   -3.7549   -1.1779 H   0  0  0  0  0  0  0  0  0  0  0  0
    1.8582   -1.1715   -2.1199 H   0  0  0  0  0  0  0  0  0  0  0  0
    3.0241   -2.0721   -3.0568 H   0  0  0  0  0  0  0  0  0  0  0  0
    2.5096   -0.0187   -0.3518 H   0  0  0  0  0  0  0  0  0  0  0  0
    2.6334    1.6258    1.1965 H   0  0  0  0  0  0  0  0  0  0  0  0
    3.9621    3.1386    2.6126 H   0  0  0  0  0  0  0  0  0  0  0  0
    6.4361    3.0651    2.5394 H   0  0  0  0  0  0  0  0  0  0  0  0
    9.4729    0.6935    0.2878 H   0  0  0  0  0  0  0  0  0  0  0  0
    6.2686   -0.0658   -0.4058 H   0  0  0  0  0  0  0  0  0  0  0  0
   -4.0192   -0.3389    1.5541 H   0  0  0  0  0  0  0  0  0  0  0  0
   -7.2919   -0.9508    2.9726 H   0  0  0  0  0  0  0  0  0  0  0  0
   -5.6535   -0.3208    3.1733 H   0  0  0  0  0  0  0  0  0  0  0  0
   -6.0016   -1.6212    1.9675 H   0  0  0  0  0  0  0  0  0  0  0  0
  1  2  1  0
  2  3  1  0
  3  4  2  0
  4  5  1  0
  5  6  2  0
  6  7  1  0
  7  8  2  3
  8  9  1  0
  9 10  1  0
 10 11  2  0
 10 12  1  0
 12 13  1  0
 13 14  1  0
 14 15  1  0
 15 16  1  0
 16 17  2  0
 16 18  1  0
 18 19  1  0
 19 20  2  0
 20 21  1  0
 21 22  2  0
 22 23  1  0
 23 24  1  0
 24 25  2  0
 24 26  1  0
 23 27  2  0
 12 28  1  0
 28 29  2  0
  6 30  1  0
 30 31  2  0
 31 32  1  0
 32 33  1  0
 31  3  1  0
 28  8  1  0
 27 19  1  0
  1 34  1  0
  1 35  1  0
  1 36  1  0
  4 37  1  0
  5 38  1  0
  7 39  1  0
 13 40  1  0
 13 41  1  0
 14 42  1  0
 14 43  1  0
 15 44  1  0
 15 45  1  0
 18 46  1  0
 20 47  1  0
 21 48  1  0
 22 49  1  0
 26 50  1  0
 27 51  1  0
 30 52  1  0
 33 53  1  0
 33 54  1  0
 33 55  1  0
M  END
$$$$
