
     RDKit          3D

 90 96  0  0  0  0  0  0  0  0999 V2000
   -4.8460    1.2453   -1.8942 C   0  0  0  0  0  0  0  0  0  0  0  0
   -4.4909    1.3131   -0.4125 C   0  0  0  0  0  0  0  0  0  0  0  0
   -3.1173    0.7278   -0.1181 C   0  0  0  0  0  0  0  0  0  0  0  0
   -2.0874    1.5189    0.2551 C   0  0  0  0  0  0  0  0  0  0  0  0
   -2.2464    2.9041    0.3877 O   0  0  0  0  0  0  0  0  0  0  0  0
   -2.6052    3.2736    1.6658 C   0  0  0  0  0  0  0  0  0  0  0  0
   -2.8000    2.4835    2.5871 O   0  0  0  0  0  0  0  0  0  0  0  0
   -2.7581    4.6490    1.7987 N   0  0  0  0  0  0  0  0  0  0  0  0
   -3.2077    5.1924    3.0740 C   0  0  0  0  0  0  0  0  0  0  0  0
   -2.0434    5.5001    4.0032 C   0  0  0  0  0  0  0  0  0  0  0  0
   -2.4057    5.5825    0.7327 C   0  0  0  0  0  0  0  0  0  0  0  0
   -3.6018    5.8990   -0.1515 C   0  0  0  0  0  0  0  0  0  0  0  0
   -0.8108    1.0222    0.4202 N   0  0  0  0  0  0  0  0  0  0  0  0
    0.3149    1.7829    0.6185 C   0  0  0  0  0  0  0  0  0  0  0  0
    0.4061    2.9765    0.8518 O   0  0  0  0  0  0  0  0  0  0  0  0
    1.3888    0.9839    0.4340 O   0  0  0  0  0  0  0  0  0  0  0  0
    0.9289   -0.2181    0.0156 C   0  0  0  0  0  0  0  0  0  0  0  0
    1.6605   -1.0445   -0.6455 N   0  0  0  0  0  0  0  0  0  0  0  0
    3.0576   -0.6555   -0.9134 C   0  0  0  0  0  0  0  0  0  0  0  0
    3.1479    0.3229   -2.0909 C   0  0  0  0  0  0  0  0  0  0  0  0
    4.5184    0.3818   -2.6946 C   0  0  0  0  0  0  0  0  0  0  0  0
    4.8510    0.0011   -3.9832 C   0  0  0  0  0  0  0  0  0  0  0  0
    6.1961    0.1810   -4.1530 N   0  0  0  0  0  0  0  0  0  0  0  0
    6.7588    0.6813   -3.0000 C   0  0  0  0  0  0  0  0  0  0  0  0
    8.0917    1.0057   -2.7169 C   0  0  0  0  0  0  0  0  0  0  0  0
    8.3803    1.5055   -1.4416 C   0  0  0  0  0  0  0  0  0  0  0  0
    7.3722    1.6819   -0.4952 C   0  0  0  0  0  0  0  0  0  0  0  0
    6.0431    1.3513   -0.7945 C   0  0  0  0  0  0  0  0  0  0  0  0
    5.7275    0.8340   -2.0704 C   0  0  0  0  0  0  0  0  0  0  0  0
   -0.5204   -0.4292    0.4220 C   0  0  0  0  0  0  0  0  0  0  0  0
   -0.5966   -0.9351    1.8974 C   0  0  0  0  0  0  0  0  0  0  0  0
   -0.0790   -2.3156    2.2278 C   0  0  0  0  0  0  0  0  0  0  0  0
    1.2947   -2.5882    2.2702 C   0  0  0  0  0  0  0  0  0  0  0  0
    1.7574   -3.8692    2.5798 C   0  0  0  0  0  0  0  0  0  0  0  0
    0.8547   -4.8892    2.8673 C   0  0  0  0  0  0  0  0  0  0  0  0
   -0.5111   -4.6266    2.8552 C   0  0  0  0  0  0  0  0  0  0  0  0
   -0.9736   -3.3458    2.5493 C   0  0  0  0  0  0  0  0  0  0  0  0
   -1.4417   -1.1470   -0.6073 C   0  0  0  0  0  0  0  0  0  0  0  0
   -2.9072   -0.7234   -0.2717 C   0  0  0  0  0  0  0  0  0  0  0  0
   -3.9143   -1.6007   -0.0657 C   0  0  0  0  0  0  0  0  0  0  0  0
   -3.8080   -3.0957   -0.1353 C   0  0  0  0  0  0  0  0  0  0  0  0
   -2.4530   -3.5397   -0.5382 C   0  0  0  0  0  0  0  0  0  0  0  0
   -1.3345   -2.6649   -0.7612 C   0  0  0  0  0  0  0  0  0  0  0  0
   -0.3193   -3.4860   -1.2345 C   0  0  0  0  0  0  0  0  0  0  0  0
    0.9017   -3.2406   -1.6914 O   0  0  0  0  0  0  0  0  0  0  0  0
   -0.7524   -4.7933   -1.1862 N   0  0  0  0  0  0  0  0  0  0  0  0
    0.0636   -5.9432   -1.5139 C   0  0  0  0  0  0  0  0  0  0  0  0
   -2.0605   -4.8382   -0.7750 C   0  0  0  0  0  0  0  0  0  0  0  0
   -2.7739   -5.9539   -0.6560 O   0  0  0  0  0  0  0  0  0  0  0  0
   -4.1043    1.7783   -2.4992 H   0  0  0  0  0  0  0  0  0  0  0  0
   -4.8997    0.2144   -2.2589 H   0  0  0  0  0  0  0  0  0  0  0  0
   -5.8229    1.7107   -2.0681 H   0  0  0  0  0  0  0  0  0  0  0  0
   -4.5437    2.3653   -0.1192 H   0  0  0  0  0  0  0  0  0  0  0  0
   -5.2616    0.8213    0.1893 H   0  0  0  0  0  0  0  0  0  0  0  0
   -3.7976    6.0949    2.8833 H   0  0  0  0  0  0  0  0  0  0  0  0
   -3.8727    4.4693    3.5595 H   0  0  0  0  0  0  0  0  0  0  0  0
   -1.3812    6.2552    3.5693 H   0  0  0  0  0  0  0  0  0  0  0  0
   -2.4105    5.8801    4.9620 H   0  0  0  0  0  0  0  0  0  0  0  0
   -1.4451    4.6041    4.1956 H   0  0  0  0  0  0  0  0  0  0  0  0
   -1.6021    5.1605    0.1188 H   0  0  0  0  0  0  0  0  0  0  0  0
   -2.0123    6.5011    1.1806 H   0  0  0  0  0  0  0  0  0  0  0  0
   -4.0240    4.9888   -0.5901 H   0  0  0  0  0  0  0  0  0  0  0  0
   -4.3964    6.3920    0.4198 H   0  0  0  0  0  0  0  0  0  0  0  0
   -3.3062    6.5679   -0.9662 H   0  0  0  0  0  0  0  0  0  0  0  0
    3.5356   -0.2502   -0.0116 H   0  0  0  0  0  0  0  0  0  0  0  0
    3.6023   -1.5785   -1.1542 H   0  0  0  0  0  0  0  0  0  0  0  0
    2.8537    1.3299   -1.7672 H   0  0  0  0  0  0  0  0  0  0  0  0
    2.4277    0.0257   -2.8668 H   0  0  0  0  0  0  0  0  0  0  0  0
    4.2384   -0.3814   -4.7921 H   0  0  0  0  0  0  0  0  0  0  0  0
    6.7091   -0.0223   -5.0004 H   0  0  0  0  0  0  0  0  0  0  0  0
    8.8773    0.8723   -3.4542 H   0  0  0  0  0  0  0  0  0  0  0  0
    9.4076    1.7630   -1.1859 H   0  0  0  0  0  0  0  0  0  0  0  0
    7.6181    2.0767    0.4913 H   0  0  0  0  0  0  0  0  0  0  0  0
    5.2697    1.4957   -0.0466 H   0  0  0  0  0  0  0  0  0  0  0  0
   -0.0471   -0.2439    2.5548 H   0  0  0  0  0  0  0  0  0  0  0  0
   -1.6320   -0.8507    2.2527 H   0  0  0  0  0  0  0  0  0  0  0  0
    2.0259   -1.8102    2.0699 H   0  0  0  0  0  0  0  0  0  0  0  0
    2.8254   -4.0680    2.5980 H   0  0  0  0  0  0  0  0  0  0  0  0
    1.2140   -5.8858    3.1062 H   0  0  0  0  0  0  0  0  0  0  0  0
   -1.2211   -5.4175    3.0781 H   0  0  0  0  0  0  0  0  0  0  0  0
   -2.0461   -3.1666    2.5482 H   0  0  0  0  0  0  0  0  0  0  0  0
   -1.2233   -0.7433   -1.6097 H   0  0  0  0  0  0  0  0  0  0  0  0
   -4.9093   -1.2637    0.2087 H   0  0  0  0  0  0  0  0  0  0  0  0
   -4.0616   -3.5183    0.8445 H   0  0  0  0  0  0  0  0  0  0  0  0
   -4.5454   -3.4683   -0.8568 H   0  0  0  0  0  0  0  0  0  0  0  0
    1.1694   -2.3477   -1.3874 H   0  0  0  0  0  0  0  0  0  0  0  0
    1.0535   -5.6327   -1.8564 H   0  0  0  0  0  0  0  0  0  0  0  0
    0.1617   -6.5575   -0.6127 H   0  0  0  0  0  0  0  0  0  0  0  0
   -0.4387   -6.5017   -2.3115 H   0  0  0  0  0  0  0  0  0  0  0  0
   -2.2343   -6.7169   -0.9168 H   0  0  0  0  0  0  0  0  0  0  0  0
  1  2  1  0
  2  3  1  0
  3  4  2  0
  4  5  1  0
  5  6  1  0
  6  7  2  0
  6  8  1  0
  8  9  1  0
  9 10  1  0
  8 11  1  0
 11 12  1  0
  4 13  1  0
 13 14  1  0
 14 15  2  0
 14 16  1  0
 16 17  1  0
 17 18  2  3
 18 19  1  0
 19 20  1  0
 20 21  1  0
 21 22  2  0
 22 23  1  0
 23 24  1  0
 24 25  2  0
 25 26  1  0
 26 27  2  0
 27 28  1  0
 28 29  2  0
 17 30  1  0
 30 31  1  0
 31 32  1  0
 32 33  2  0
 33 34  1  0
 34 35  2  0
 35 36  1  0
 36 37  2  0
 30 38  1  0
 38 39  1  0
 39 40  2  0
 40 41  1  0
 41 42  1  0
 42 43  1  0
 43 44  2  0
 44 45  1  0
 44 46  1  0
 46 47  1  0
 46 48  1  0
 48 49  1  0
 39  3  1  0
 48 42  2  0
 30 13  1  0
 37 32  1  0
 43 38  1  0
 29 21  1  0
 29 24  1  0
  1 50  1  0
  1 51  1  0
  1 52  1  0
  2 53  1  0
  2 54  1  0
  9 55  1  0
  9 56  1  0
 10 57  1  0
 10 58  1  0
 10 59  1  0
 11 60  1  0
 11 61  1  0
 12 62  1  0
 12 63  1  0
 12 64  1  0
 19 65  1  0
 19 66  1  0
 20 67  1  0
 20 68  1  0
 22 69  1  0
 23 70  1  0
 25 71  1  0
 26 72  1  0
 27 73  1  0
 28 74  1  0
 31 75  1  0
 31 76  1  0
 33 77  1  0
 34 78  1  0
 35 79  1  0
 36 80  1  0
 37 81  1  0
 38 82  1  0
 40 83  1  0
 41 84  1  0
 41 85  1  0
 45 86  1  0
 47 87  1  0
 47 88  1  0
 47 89  1  0
 49 90  1  0
M  END
$$$$
