
     RDKit          3D

 63 65  0  0  0  0  0  0  0  0999 V2000
    1.9160   -3.8865    1.0305 C   0  0  0  0  0  0  0  0  0  0  0  0
    1.2935   -2.9106    0.0391 C   0  0  0  0  0  0  0  0  0  0  0  0
    0.6705   -1.7384    0.6903 N   0  0  0  0  0  0  0  0  0  0  0  0
    0.2276   -0.7497   -0.3330 C   0  0  0  0  0  0  0  0  0  0  0  0
    1.4199    0.0283   -0.9229 C   0  0  0  0  0  0  0  0  0  0  0  0
    1.3553    0.5238   -2.0459 O   0  0  0  0  0  0  0  0  0  0  0  0
    2.4762    0.1340   -0.0350 N   0  0  0  0  0  0  0  0  0  0  0  0
    3.7085    0.7864   -0.2114 C   0  0  0  0  0  0  0  0  0  0  0  0
    4.6324    0.7110    0.8345 C   0  0  0  0  0  0  0  0  0  0  0  0
    5.8859    1.3311    0.7379 C   0  0  0  0  0  0  0  0  0  0  0  0
    6.2333    2.0449   -0.4070 C   0  0  0  0  0  0  0  0  0  0  0  0
    7.4662    2.7087   -0.5853 N   0  0  0  0  0  0  0  0  0  0  0  0
    8.5274    2.7692    0.3000 C   0  0  0  0  0  0  0  0  0  0  0  0
    9.6809    3.5761   -0.2411 C   0  0  0  0  0  0  0  0  0  0  0  0
    8.6031    2.2348    1.4007 O   0  0  0  0  0  0  0  0  0  0  0  0
    5.3057    2.1226   -1.4515 C   0  0  0  0  0  0  0  0  0  0  0  0
    4.0544    1.4982   -1.3565 C   0  0  0  0  0  0  0  0  0  0  0  0
   -0.4511   -2.0950    1.5973 C   0  0  0  0  0  0  0  0  0  0  0  0
   -1.6418   -2.7705    0.8916 C   0  0  0  0  0  0  0  0  0  0  0  0
   -1.5823   -3.9404    0.5219 O   0  0  0  0  0  0  0  0  0  0  0  0
   -2.7231   -1.9195    0.7348 N   0  0  0  0  0  0  0  0  0  0  0  0
   -3.9792   -2.1739    0.1239 C   0  0  0  0  0  0  0  0  0  0  0  0
   -4.2796   -3.3937   -0.4888 C   0  0  0  0  0  0  0  0  0  0  0  0
   -5.5336   -3.6161   -1.0717 C   0  0  0  0  0  0  0  0  0  0  0  0
   -6.5082   -2.6217   -1.0515 C   0  0  0  0  0  0  0  0  0  0  0  0
   -6.2315   -1.3976   -0.4517 C   0  0  0  0  0  0  0  0  0  0  0  0
   -4.9655   -1.1555    0.1211 C   0  0  0  0  0  0  0  0  0  0  0  0
   -4.6791    0.1735    0.7440 C   0  0  0  0  0  0  0  0  0  0  0  0
   -3.8174    0.2685    1.6196 O   0  0  0  0  0  0  0  0  0  0  0  0
   -5.3900    1.4015    0.3257 C   0  0  0  0  0  0  0  0  0  0  0  0
   -5.8636    2.2690    1.3178 C   0  0  0  0  0  0  0  0  0  0  0  0
   -6.5285    3.4391    0.9509 C   0  0  0  0  0  0  0  0  0  0  0  0
   -6.7058    3.7478   -0.3991 C   0  0  0  0  0  0  0  0  0  0  0  0
   -6.2163    2.8918   -1.3882 C   0  0  0  0  0  0  0  0  0  0  0  0
   -5.5475    1.7216   -1.0297 C   0  0  0  0  0  0  0  0  0  0  0  0
    2.5190   -4.6285    0.4936 H   0  0  0  0  0  0  0  0  0  0  0  0
    1.1585   -4.4351    1.6019 H   0  0  0  0  0  0  0  0  0  0  0  0
    2.5735   -3.3652    1.7312 H   0  0  0  0  0  0  0  0  0  0  0  0
    2.1085   -2.5674   -0.6128 H   0  0  0  0  0  0  0  0  0  0  0  0
    0.5920   -3.4368   -0.6179 H   0  0  0  0  0  0  0  0  0  0  0  0
   -0.4231    0.0074    0.1228 H   0  0  0  0  0  0  0  0  0  0  0  0
   -0.3193   -1.2351   -1.1516 H   0  0  0  0  0  0  0  0  0  0  0  0
    2.3354   -0.3839    0.8279 H   0  0  0  0  0  0  0  0  0  0  0  0
    4.3968    0.1679    1.7456 H   0  0  0  0  0  0  0  0  0  0  0  0
    6.5640    1.2325    1.5808 H   0  0  0  0  0  0  0  0  0  0  0  0
    7.5757    3.2040   -1.4612 H   0  0  0  0  0  0  0  0  0  0  0  0
   10.2721    3.9683    0.5935 H   0  0  0  0  0  0  0  0  0  0  0  0
   10.3088    2.9354   -0.8632 H   0  0  0  0  0  0  0  0  0  0  0  0
    9.3251    4.4257   -0.8287 H   0  0  0  0  0  0  0  0  0  0  0  0
    5.5320    2.6682   -2.3624 H   0  0  0  0  0  0  0  0  0  0  0  0
    3.3722    1.5915   -2.1969 H   0  0  0  0  0  0  0  0  0  0  0  0
   -0.1089   -2.7639    2.3955 H   0  0  0  0  0  0  0  0  0  0  0  0
   -0.7859   -1.1894    2.1208 H   0  0  0  0  0  0  0  0  0  0  0  0
   -2.6622   -1.0076    1.1940 H   0  0  0  0  0  0  0  0  0  0  0  0
   -3.5581   -4.2033   -0.5293 H   0  0  0  0  0  0  0  0  0  0  0  0
   -5.7472   -4.5753   -1.5353 H   0  0  0  0  0  0  0  0  0  0  0  0
   -7.4876   -2.8086   -1.4907 H   0  0  0  0  0  0  0  0  0  0  0  0
   -7.0222   -0.6457   -0.4279 H   0  0  0  0  0  0  0  0  0  0  0  0
   -5.7195    2.0323    2.3734 H   0  0  0  0  0  0  0  0  0  0  0  0
   -6.8986    4.1146    1.7198 H   0  0  0  0  0  0  0  0  0  0  0  0
   -7.2225    4.6615   -0.6842 H   0  0  0  0  0  0  0  0  0  0  0  0
   -6.3450    3.1452   -2.4392 H   0  0  0  0  0  0  0  0  0  0  0  0
   -5.1463    1.0781   -1.8106 H   0  0  0  0  0  0  0  0  0  0  0  0
  1  2  1  0
  2  3  1  0
  3  4  1  0
  4  5  1  0
  5  6  2  0
  5  7  1  0
  7  8  1  0
  8  9  2  0
  9 10  1  0
 10 11  2  0
 11 12  1  0
 12 13  1  0
 13 14  1  0
 13 15  2  0
 11 16  1  0
 16 17  2  0
  3 18  1  0
 18 19  1  0
 19 20  2  0
 19 21  1  0
 21 22  1  0
 22 23  2  0
 23 24  1  0
 24 25  2  0
 25 26  1  0
 26 27  2  0
 27 28  1  0
 28 29  2  0
 28 30  1  0
 30 31  2  0
 31 32  1  0
 32 33  2  0
 33 34  1  0
 34 35  2  0
 17  8  1  0
 27 22  1  0
 35 30  1  0
  1 36  1  0
  1 37  1  0
  1 38  1  0
  2 39  1  0
  2 40  1  0
  4 41  1  0
  4 42  1  0
  7 43  1  0
  9 44  1  0
 10 45  1  0
 12 46  1  0
 14 47  1  0
 14 48  1  0
 14 49  1  0
 16 50  1  0
 17 51  1  0
 18 52  1  0
 18 53  1  0
 21 54  1  0
 23 55  1  0
 24 56  1  0
 25 57  1  0
 26 58  1  0
 31 59  1  0
 32 60  1  0
 33 61  1  0
 34 62  1  0
 35 63  1  0
M  END
$$$$
