
     RDKit          3D

 47 48  0  0  0  0  0  0  0  0999 V2000
    5.1609   -0.7352   -0.6345 C   0  0  0  0  0  0  0  0  0  0  0  0
    3.7626   -0.4894   -0.5555 O   0  0  0  0  0  0  0  0  0  0  0  0
    3.3440    0.8015   -0.7394 C   0  0  0  0  0  0  0  0  0  0  0  0
    4.1378    1.8298   -1.2576 C   0  0  0  0  0  0  0  0  0  0  0  0
    3.6193    3.1224   -1.4041 C   0  0  0  0  0  0  0  0  0  0  0  0
    2.3070    3.4049   -1.0285 C   0  0  0  0  0  0  0  0  0  0  0  0
    1.5025    2.3901   -0.5177 C   0  0  0  0  0  0  0  0  0  0  0  0
    2.0117    1.0889   -0.4087 C   0  0  0  0  0  0  0  0  0  0  0  0
    1.1535    0.0751    0.2156 C   0  0  0  0  0  0  0  0  0  0  0  0
    1.2237   -0.0365    1.4436 O   0  0  0  0  0  0  0  0  0  0  0  0
    0.2649   -0.6824   -0.5493 N   0  0  0  0  0  0  0  0  0  0  0  0
   -0.6165   -1.4785    0.2474 N   0  0  0  0  0  0  0  0  0  0  0  0
   -1.7420   -0.8568    0.7585 C   0  0  0  0  0  0  0  0  0  0  0  0
   -2.2664    0.1458    0.2859 O   0  0  0  0  0  0  0  0  0  0  0  0
   -2.1721   -1.5545    1.8778 O   0  0  0  0  0  0  0  0  0  0  0  0
   -3.2517   -0.9570    2.5310 C   0  0  0  0  0  0  0  0  0  0  0  0
   -4.5186   -1.5156    2.3775 C   0  0  0  0  0  0  0  0  0  0  0  0
   -5.5945   -0.9580    3.0670 C   0  0  0  0  0  0  0  0  0  0  0  0
   -5.3924    0.1381    3.9097 C   0  0  0  0  0  0  0  0  0  0  0  0
   -4.1135    0.6774    4.0692 C   0  0  0  0  0  0  0  0  0  0  0  0
   -3.0332    0.1247    3.3830 C   0  0  0  0  0  0  0  0  0  0  0  0
    0.0488   -0.8127   -2.0326 C   0  0  0  0  0  0  0  0  0  0  0  0
   -1.0275   -1.8764   -2.3863 C   0  0  0  0  0  0  0  0  0  0  0  0
    1.3446   -1.2717   -2.7285 C   0  0  0  0  0  0  0  0  0  0  0  0
   -0.4189    0.5162   -2.6518 C   0  0  0  0  0  0  0  0  0  0  0  0
    5.7196   -0.0921    0.0537 H   0  0  0  0  0  0  0  0  0  0  0  0
    5.5192   -0.6212   -1.6626 H   0  0  0  0  0  0  0  0  0  0  0  0
    5.3346   -1.7734   -0.3355 H   0  0  0  0  0  0  0  0  0  0  0  0
    5.1669    1.6609   -1.5578 H   0  0  0  0  0  0  0  0  0  0  0  0
    4.2488    3.9148   -1.8032 H   0  0  0  0  0  0  0  0  0  0  0  0
    1.9152    4.4144   -1.1252 H   0  0  0  0  0  0  0  0  0  0  0  0
    0.4839    2.6065   -0.2019 H   0  0  0  0  0  0  0  0  0  0  0  0
   -0.1326   -2.0432    0.9405 H   0  0  0  0  0  0  0  0  0  0  0  0
   -4.6684   -2.3709    1.7265 H   0  0  0  0  0  0  0  0  0  0  0  0
   -6.5906   -1.3763    2.9498 H   0  0  0  0  0  0  0  0  0  0  0  0
   -6.2332    0.5723    4.4448 H   0  0  0  0  0  0  0  0  0  0  0  0
   -3.9596    1.5280    4.7279 H   0  0  0  0  0  0  0  0  0  0  0  0
   -2.0358    0.5366    3.5062 H   0  0  0  0  0  0  0  0  0  0  0  0
   -1.1365   -1.9855   -3.4721 H   0  0  0  0  0  0  0  0  0  0  0  0
   -2.0137   -1.6027   -1.9956 H   0  0  0  0  0  0  0  0  0  0  0  0
   -0.7627   -2.8624   -1.9868 H   0  0  0  0  0  0  0  0  0  0  0  0
    1.7730   -2.1463   -2.2262 H   0  0  0  0  0  0  0  0  0  0  0  0
    1.1605   -1.5424   -3.7750 H   0  0  0  0  0  0  0  0  0  0  0  0
    2.1033   -0.4876   -2.7479 H   0  0  0  0  0  0  0  0  0  0  0  0
   -0.7304    0.3788   -3.6941 H   0  0  0  0  0  0  0  0  0  0  0  0
    0.3733    1.2670   -2.6675 H   0  0  0  0  0  0  0  0  0  0  0  0
   -1.2685    0.9347   -2.1028 H   0  0  0  0  0  0  0  0  0  0  0  0
  1  2  1  0
  2  3  1  0
  3  4  2  0
  4  5  1  0
  5  6  2  0
  6  7  1  0
  7  8  2  0
  8  9  1  0
  9 10  2  0
  9 11  1  0
 11 12  1  0
 12 13  1  0
 13 14  2  0
 13 15  1  0
 15 16  1  0
 16 17  2  0
 17 18  1  0
 18 19  2  0
 19 20  1  0
 20 21  2  0
 11 22  1  0
 22 23  1  0
 22 24  1  0
 22 25  1  0
  8  3  1  0
 21 16  1  0
  1 26  1  0
  1 27  1  0
  1 28  1  0
  4 29  1  0
  5 30  1  0
  6 31  1  0
  7 32  1  0
 12 33  1  0
 17 34  1  0
 18 35  1  0
 19 36  1  0
 20 37  1  0
 21 38  1  0
 23 39  1  0
 23 40  1  0
 23 41  1  0
 24 42  1  0
 24 43  1  0
 24 44  1  0
 25 45  1  0
 25 46  1  0
 25 47  1  0
M  END
$$$$
