
     RDKit          3D

 50 51  0  0  0  0  0  0  0  0999 V2000
    7.8036   -2.8671    1.3687 C   0  0  0  0  0  0  0  0  0  0  0  0
    6.7938   -2.0988    0.7128 O   0  0  0  0  0  0  0  0  0  0  0  0
    6.3758   -1.0205    1.4226 C   0  0  0  0  0  0  0  0  0  0  0  0
    6.7849   -0.6904    2.5246 O   0  0  0  0  0  0  0  0  0  0  0  0
    5.3301   -0.2710    0.6736 C   0  0  0  0  0  0  0  0  0  0  0  0
    4.8634   -0.6817   -0.5821 C   0  0  0  0  0  0  0  0  0  0  0  0
    3.8773    0.0571   -1.2441 C   0  0  0  0  0  0  0  0  0  0  0  0
    3.3491    1.2190   -0.6648 C   0  0  0  0  0  0  0  0  0  0  0  0
    2.2691    2.0073   -1.3614 C   0  0  0  0  0  0  0  0  0  0  0  0
    0.9672    1.6424   -0.8564 N   0  0  0  0  0  0  0  0  0  0  0  0
    0.3024    2.4067    0.0779 C   0  0  0  0  0  0  0  0  0  0  0  0
    0.7324    3.4719    0.5123 O   0  0  0  0  0  0  0  0  0  0  0  0
   -0.9966    1.7828    0.5930 C   0  0  0  0  0  0  0  0  0  0  0  0
   -1.5283    0.7533   -0.2455 O   0  0  0  0  0  0  0  0  0  0  0  0
   -2.2701    1.2039   -1.2941 C   0  0  0  0  0  0  0  0  0  0  0  0
   -2.4398    2.3795   -1.5826 O   0  0  0  0  0  0  0  0  0  0  0  0
   -2.8170    0.0537   -2.1016 C   0  0  0  0  0  0  0  0  0  0  0  0
   -3.6198   -0.9673   -1.2929 C   0  0  0  0  0  0  0  0  0  0  0  0
   -5.0712   -0.5373   -0.9985 C   0  0  0  0  0  0  0  0  0  0  0  0
   -5.2187    0.5318    0.0850 C   0  0  0  0  0  0  0  0  0  0  0  0
   -5.1011   -0.2248    1.4036 C   0  0  0  0  0  0  0  0  0  0  0  0
   -5.5538   -1.6533    1.1055 C   0  0  0  0  0  0  0  0  0  0  0  0
   -5.8747   -1.6908   -0.3863 C   0  0  0  0  0  0  0  0  0  0  0  0
    3.8137    1.6221    0.5951 C   0  0  0  0  0  0  0  0  0  0  0  0
    4.7979    0.8848    1.2584 C   0  0  0  0  0  0  0  0  0  0  0  0
    7.4253   -3.2708    2.3132 H   0  0  0  0  0  0  0  0  0  0  0  0
    8.6991   -2.2605    1.5361 H   0  0  0  0  0  0  0  0  0  0  0  0
    8.0694   -3.7037    0.7167 H   0  0  0  0  0  0  0  0  0  0  0  0
    5.2576   -1.5760   -1.0586 H   0  0  0  0  0  0  0  0  0  0  0  0
    3.5277   -0.2809   -2.2175 H   0  0  0  0  0  0  0  0  0  0  0  0
    2.4472    3.0821   -1.2442 H   0  0  0  0  0  0  0  0  0  0  0  0
    2.2726    1.7932   -2.4358 H   0  0  0  0  0  0  0  0  0  0  0  0
    0.6339    0.7017   -1.0208 H   0  0  0  0  0  0  0  0  0  0  0  0
   -1.7381    2.5722    0.7626 H   0  0  0  0  0  0  0  0  0  0  0  0
   -0.7746    1.3247    1.5626 H   0  0  0  0  0  0  0  0  0  0  0  0
   -1.9561   -0.4400   -2.5686 H   0  0  0  0  0  0  0  0  0  0  0  0
   -3.4281    0.4590   -2.9161 H   0  0  0  0  0  0  0  0  0  0  0  0
   -3.0945   -1.2290   -0.3676 H   0  0  0  0  0  0  0  0  0  0  0  0
   -3.6594   -1.8874   -1.8910 H   0  0  0  0  0  0  0  0  0  0  0  0
   -5.5414   -0.2085   -1.9325 H   0  0  0  0  0  0  0  0  0  0  0  0
   -4.5022    1.3511    0.0174 H   0  0  0  0  0  0  0  0  0  0  0  0
   -6.2196    0.9778    0.0176 H   0  0  0  0  0  0  0  0  0  0  0  0
   -4.0620   -0.2275    1.7524 H   0  0  0  0  0  0  0  0  0  0  0  0
   -5.7082    0.2402    2.1868 H   0  0  0  0  0  0  0  0  0  0  0  0
   -6.4252   -1.9368    1.7046 H   0  0  0  0  0  0  0  0  0  0  0  0
   -4.7490   -2.3578    1.3445 H   0  0  0  0  0  0  0  0  0  0  0  0
   -6.9469   -1.5055   -0.5296 H   0  0  0  0  0  0  0  0  0  0  0  0
   -5.6488   -2.6644   -0.8322 H   0  0  0  0  0  0  0  0  0  0  0  0
    3.4060    2.5159    1.0673 H   0  0  0  0  0  0  0  0  0  0  0  0
    5.1457    1.2176    2.2349 H   0  0  0  0  0  0  0  0  0  0  0  0
  1  2  1  0
  2  3  1  0
  3  4  2  0
  3  5  1  0
  5  6  2  0
  6  7  1  0
  7  8  2  0
  8  9  1  0
  9 10  1  0
 10 11  1  0
 11 12  2  0
 11 13  1  0
 13 14  1  0
 14 15  1  0
 15 16  2  0
 15 17  1  0
 17 18  1  0
 18 19  1  0
 19 20  1  0
 20 21  1  0
 21 22  1  0
 22 23  1  0
  8 24  1  0
 24 25  2  0
 25  5  1  0
 23 19  1  0
  1 26  1  0
  1 27  1  0
  1 28  1  0
  6 29  1  0
  7 30  1  0
  9 31  1  0
  9 32  1  0
 10 33  1  0
 13 34  1  0
 13 35  1  0
 17 36  1  0
 17 37  1  0
 18 38  1  0
 18 39  1  0
 19 40  1  0
 20 41  1  0
 20 42  1  0
 21 43  1  0
 21 44  1  0
 22 45  1  0
 22 46  1  0
 23 47  1  0
 23 48  1  0
 24 49  1  0
 25 50  1  0
M  END
$$$$
