
     RDKit          3D

 62 65  0  0  0  0  0  0  0  0999 V2000
   -4.2725   -3.6076    1.6776 C   0  0  0  0  0  0  0  0  0  0  0  0
   -4.4307   -2.9983    0.2968 C   0  0  0  0  0  0  0  0  0  0  0  0
   -3.1723   -2.4336   -0.0945 O   0  0  0  0  0  0  0  0  0  0  0  0
   -3.1056   -2.0728   -1.4032 C   0  0  0  0  0  0  0  0  0  0  0  0
   -3.9796   -2.2208   -2.2409 O   0  0  0  0  0  0  0  0  0  0  0  0
   -1.7748   -1.4677   -1.6581 C   0  0  0  0  0  0  0  0  0  0  0  0
   -0.8945   -2.1348   -2.4515 C   0  0  0  0  0  0  0  0  0  0  0  0
   -1.2192   -3.3842   -3.2387 C   0  0  0  0  0  0  0  0  0  0  0  0
    0.4535   -1.7948   -2.5537 N   0  0  0  0  0  0  0  0  0  0  0  0
    0.9088   -1.0022   -1.6395 C   0  0  0  0  0  0  0  0  0  0  0  0
    2.6045   -0.7034   -1.4057 S   0  0  0  0  0  0  0  0  0  0  0  0
    2.3234   -0.1503    0.2307 C   0  0  0  0  0  0  0  0  0  0  0  0
    3.3066    0.0090    1.1410 C   0  0  0  0  0  0  0  0  0  0  0  0
    3.0382    0.3772    2.4539 O   0  0  0  0  0  0  0  0  0  0  0  0
    4.7355   -0.2334    0.8735 C   0  0  0  0  0  0  0  0  0  0  0  0
    5.3436   -1.3994    1.3470 C   0  0  0  0  0  0  0  0  0  0  0  0
    6.7021   -1.6245    1.1143 C   0  0  0  0  0  0  0  0  0  0  0  0
    7.4691   -0.6909    0.4089 C   0  0  0  0  0  0  0  0  0  0  0  0
    8.7836   -1.0336    0.2506 O   0  0  0  0  0  0  0  0  0  0  0  0
    9.5789   -0.1711   -0.5536 C   0  0  0  0  0  0  0  0  0  0  0  0
    6.8649    0.4745   -0.0592 C   0  0  0  0  0  0  0  0  0  0  0  0
    5.5042    0.7055    0.1751 C   0  0  0  0  0  0  0  0  0  0  0  0
    0.8782    0.0606    0.4442 C   0  0  0  0  0  0  0  0  0  0  0  0
    0.4248    0.5981    1.6364 N   0  0  0  0  0  0  0  0  0  0  0  0
    0.1096   -0.3100   -0.6008 C   0  0  0  0  0  0  0  0  0  0  0  0
   -1.3233   -0.2589   -0.9144 C   0  0  0  0  0  0  0  0  0  0  0  0
   -2.1178    0.8373   -0.7046 C   0  0  0  0  0  0  0  0  0  0  0  0
   -3.5118    0.9172   -1.2018 C   0  0  0  0  0  0  0  0  0  0  0  0
   -4.3554    1.8631   -0.7497 C   0  0  0  0  0  0  0  0  0  0  0  0
   -3.8941    2.8790    0.2070 C   0  0  0  0  0  0  0  0  0  0  0  0
   -4.7842    3.7020    0.8128 C   0  0  0  0  0  0  0  0  0  0  0  0
   -4.4029    4.6707    1.7217 O   0  0  0  0  0  0  0  0  0  0  0  0
   -6.1392    3.5599    0.5568 O   0  0  0  0  0  0  0  0  0  0  0  0
   -6.8728    4.7666    0.7417 C   0  0  0  0  0  0  0  0  0  0  0  0
   -2.4407    3.0416    0.3503 C   0  0  0  0  0  0  0  0  0  0  0  0
   -1.6035    2.0886   -0.1008 C   0  0  0  0  0  0  0  0  0  0  0  0
   -3.5153   -4.4018    1.6633 H   0  0  0  0  0  0  0  0  0  0  0  0
   -5.2180   -4.0314    2.0283 H   0  0  0  0  0  0  0  0  0  0  0  0
   -3.9324   -2.8562    2.3988 H   0  0  0  0  0  0  0  0  0  0  0  0
   -4.7396   -3.7758   -0.4131 H   0  0  0  0  0  0  0  0  0  0  0  0
   -5.1835   -2.2014    0.3249 H   0  0  0  0  0  0  0  0  0  0  0  0
   -2.2585   -3.7087   -3.1650 H   0  0  0  0  0  0  0  0  0  0  0  0
   -0.5940   -4.2162   -2.8934 H   0  0  0  0  0  0  0  0  0  0  0  0
   -1.0053   -3.2168   -4.3002 H   0  0  0  0  0  0  0  0  0  0  0  0
    3.8951    0.4861    2.9059 H   0  0  0  0  0  0  0  0  0  0  0  0
    4.7642   -2.1444    1.8896 H   0  0  0  0  0  0  0  0  0  0  0  0
    7.1677   -2.5370    1.4786 H   0  0  0  0  0  0  0  0  0  0  0  0
    9.1765   -0.0935   -1.5717 H   0  0  0  0  0  0  0  0  0  0  0  0
    9.6760    0.8175   -0.0943 H   0  0  0  0  0  0  0  0  0  0  0  0
   10.5799   -0.6113   -0.6236 H   0  0  0  0  0  0  0  0  0  0  0  0
    7.4227    1.2285   -0.6090 H   0  0  0  0  0  0  0  0  0  0  0  0
    5.0485    1.6231   -0.1962 H   0  0  0  0  0  0  0  0  0  0  0  0
    1.1039    0.4625    2.3907 H   0  0  0  0  0  0  0  0  0  0  0  0
   -0.5104    0.2887    1.8894 H   0  0  0  0  0  0  0  0  0  0  0  0
   -3.8670    0.2553   -1.9787 H   0  0  0  0  0  0  0  0  0  0  0  0
   -5.3728    1.9108   -1.1250 H   0  0  0  0  0  0  0  0  0  0  0  0
   -3.5439    4.4070    2.0942 H   0  0  0  0  0  0  0  0  0  0  0  0
   -7.9074    4.5782    0.4421 H   0  0  0  0  0  0  0  0  0  0  0  0
   -6.4752    5.5670    0.1071 H   0  0  0  0  0  0  0  0  0  0  0  0
   -6.8793    5.0717    1.7948 H   0  0  0  0  0  0  0  0  0  0  0  0
   -2.0308    3.9652    0.7456 H   0  0  0  0  0  0  0  0  0  0  0  0
   -0.5356    2.2744   -0.0525 H   0  0  0  0  0  0  0  0  0  0  0  0
  1  2  1  0
  2  3  1  0
  3  4  1  0
  4  5  2  0
  4  6  1  0
  6  7  2  0
  7  8  1  0
  7  9  1  0
  9 10  2  0
 10 11  1  0
 11 12  1  0
 12 13  2  3
 13 14  1  0
 13 15  1  0
 15 16  2  0
 16 17  1  0
 17 18  2  0
 18 19  1  0
 19 20  1  0
 18 21  1  0
 21 22  2  0
 12 23  1  0
 23 24  1  0
 23 25  2  0
 25 26  1  0
 26 27  2  3
 27 28  1  0
 28 29  2  0
 29 30  1  0
 30 31  2  3
 31 32  1  0
 31 33  1  0
 33 34  1  0
 30 35  1  0
 35 36  2  0
 26  6  1  0
 36 27  1  0
 25 10  1  0
 22 15  1  0
  1 37  1  0
  1 38  1  0
  1 39  1  0
  2 40  1  0
  2 41  1  0
  8 42  1  0
  8 43  1  0
  8 44  1  0
 14 45  1  0
 16 46  1  0
 17 47  1  0
 20 48  1  0
 20 49  1  0
 20 50  1  0
 21 51  1  0
 22 52  1  0
 24 53  1  0
 24 54  1  0
 28 55  1  0
 29 56  1  0
 32 57  1  0
 34 58  1  0
 34 59  1  0
 34 60  1  0
 35 61  1  0
 36 62  1  0
M  END
$$$$
