
     RDKit          3D

 38 39  0  0  0  0  0  0  0  0999 V2000
   -1.5404    3.1581   -0.0826 C   0  0  0  0  0  0  0  0  0  0  0  0
   -2.1623    1.9289    0.3837 N   0  0  0  0  0  0  0  0  0  0  0  0
   -2.3005    0.9593   -0.7025 C   0  0  0  0  0  0  0  0  0  0  0  0
   -2.8641   -0.3483   -0.1901 C   0  0  0  0  0  0  0  0  0  0  0  0
   -4.2573   -0.4744   -0.0462 C   0  0  0  0  0  0  0  0  0  0  0  0
   -4.8210   -1.6566    0.4284 C   0  0  0  0  0  0  0  0  0  0  0  0
   -3.9985   -2.7247    0.7706 C   0  0  0  0  0  0  0  0  0  0  0  0
   -2.6112   -2.6102    0.6498 C   0  0  0  0  0  0  0  0  0  0  0  0
   -2.0344   -1.4245    0.1803 C   0  0  0  0  0  0  0  0  0  0  0  0
   -0.6866   -1.2177    0.0436 O   0  0  0  0  0  0  0  0  0  0  0  0
    0.1888   -2.2342    0.5290 C   0  0  0  0  0  0  0  0  0  0  0  0
    1.6548   -1.8069    0.3955 C   0  0  0  0  0  0  0  0  0  0  0  0
    2.5568   -2.5489    0.7746 O   0  0  0  0  0  0  0  0  0  0  0  0
    1.7982   -0.5548   -0.1741 N   0  0  0  0  0  0  0  0  0  0  0  0
    2.9828    0.1531   -0.4425 C   0  0  0  0  0  0  0  0  0  0  0  0
    4.2604   -0.3262   -0.1509 C   0  0  0  0  0  0  0  0  0  0  0  0
    5.3900    0.4432   -0.4488 C   0  0  0  0  0  0  0  0  0  0  0  0
    5.2505    1.6966   -1.0403 C   0  0  0  0  0  0  0  0  0  0  0  0
    3.9801    2.1834   -1.3356 C   0  0  0  0  0  0  0  0  0  0  0  0
    2.8519    1.4147   -1.0379 C   0  0  0  0  0  0  0  0  0  0  0  0
   -0.5283    2.9783   -0.4596 H   0  0  0  0  0  0  0  0  0  0  0  0
   -1.4688    3.8683    0.7468 H   0  0  0  0  0  0  0  0  0  0  0  0
   -2.1366    3.6304   -0.8700 H   0  0  0  0  0  0  0  0  0  0  0  0
   -1.5948    1.5145    1.1225 H   0  0  0  0  0  0  0  0  0  0  0  0
   -1.3386    0.7861   -1.1999 H   0  0  0  0  0  0  0  0  0  0  0  0
   -2.9737    1.3537   -1.4747 H   0  0  0  0  0  0  0  0  0  0  0  0
   -4.9063    0.3618   -0.2994 H   0  0  0  0  0  0  0  0  0  0  0  0
   -5.8994   -1.7411    0.5336 H   0  0  0  0  0  0  0  0  0  0  0  0
   -4.4366   -3.6491    1.1393 H   0  0  0  0  0  0  0  0  0  0  0  0
   -2.0123   -3.4702    0.9321 H   0  0  0  0  0  0  0  0  0  0  0  0
    0.0656   -3.1492   -0.0613 H   0  0  0  0  0  0  0  0  0  0  0  0
    0.0055   -2.4178    1.5940 H   0  0  0  0  0  0  0  0  0  0  0  0
    0.9235   -0.1049   -0.4272 H   0  0  0  0  0  0  0  0  0  0  0  0
    4.4143   -1.2965    0.3106 H   0  0  0  0  0  0  0  0  0  0  0  0
    6.3796    0.0579   -0.2157 H   0  0  0  0  0  0  0  0  0  0  0  0
    6.1308    2.2910   -1.2700 H   0  0  0  0  0  0  0  0  0  0  0  0
    3.8667    3.1606   -1.7975 H   0  0  0  0  0  0  0  0  0  0  0  0
    1.8715    1.8163   -1.2790 H   0  0  0  0  0  0  0  0  0  0  0  0
  1  2  1  0
  2  3  1  0
  3  4  1  0
  4  5  2  0
  5  6  1  0
  6  7  2  0
  7  8  1  0
  8  9  2  0
  9 10  1  0
 10 11  1  0
 11 12  1  0
 12 13  2  0
 12 14  1  0
 14 15  1  0
 15 16  2  0
 16 17  1  0
 17 18  2  0
 18 19  1  0
 19 20  2  0
  9  4  1  0
 20 15  1  0
  1 21  1  0
  1 22  1  0
  1 23  1  0
  2 24  1  0
  3 25  1  0
  3 26  1  0
  5 27  1  0
  6 28  1  0
  7 29  1  0
  8 30  1  0
 11 31  1  0
 11 32  1  0
 14 33  1  0
 16 34  1  0
 17 35  1  0
 18 36  1  0
 19 37  1  0
 20 38  1  0
M  END
$$$$
