
     RDKit          3D

 57 58  0  0  0  0  0  0  0  0999 V2000
    9.1434    0.0178    0.2734 C   0  0  0  0  0  0  0  0  0  0  0  0
    8.0512   -0.1581    1.3152 C   0  0  0  0  0  0  0  0  0  0  0  0
    7.1532   -1.3544    0.9872 C   0  0  0  0  0  0  0  0  0  0  0  0
    6.0918   -1.5931    2.0614 C   0  0  0  0  0  0  0  0  0  0  0  0
    5.2610   -0.4516    2.2572 O   0  0  0  0  0  0  0  0  0  0  0  0
    4.1792   -0.2678    1.4450 C   0  0  0  0  0  0  0  0  0  0  0  0
    3.7623   -1.1039    0.4120 C   0  0  0  0  0  0  0  0  0  0  0  0
    2.6221   -0.7893   -0.3403 C   0  0  0  0  0  0  0  0  0  0  0  0
    1.8815    0.3711   -0.0788 C   0  0  0  0  0  0  0  0  0  0  0  0
    0.6172    0.7428   -0.8364 C   0  0  0  0  0  0  0  0  0  0  0  0
    0.5428    0.2169   -2.2707 C   0  0  0  0  0  0  0  0  0  0  0  0
   -0.5357    0.2700   -0.0846 N   0  0  0  0  0  0  0  0  0  0  0  0
   -1.3854    1.1281    0.5704 C   0  0  0  0  0  0  0  0  0  0  0  0
   -1.2689    2.3473    0.5637 O   0  0  0  0  0  0  0  0  0  0  0  0
   -2.4507    0.4181    1.3818 C   0  0  0  0  0  0  0  0  0  0  0  0
   -3.6672    1.3031    1.5940 C   0  0  0  0  0  0  0  0  0  0  0  0
   -4.7479    1.3309    0.1672 S   0  0  0  0  0  6  0  0  0  0  0  0
   -3.9559    1.0520   -1.0161 O   0  0  0  0  0  0  0  0  0  0  0  0
   -5.5550    2.5337    0.2710 O   0  0  0  0  0  0  0  0  0  0  0  0
   -5.8166   -0.0770    0.4730 C   0  0  0  0  0  0  0  0  0  0  0  0
   -6.7926   -0.2301   -0.6639 C   0  0  0  0  0  0  0  0  0  0  0  0
   -7.9787    0.5199   -0.6935 C   0  0  0  0  0  0  0  0  0  0  0  0
   -8.8795    0.3869   -1.7519 C   0  0  0  0  0  0  0  0  0  0  0  0
   -8.6064   -0.4972   -2.7942 C   0  0  0  0  0  0  0  0  0  0  0  0
   -7.4314   -1.2448   -2.7736 C   0  0  0  0  0  0  0  0  0  0  0  0
   -7.0911   -2.3371   -4.0603 Cl  0  0  0  0  0  0  0  0  0  0  0  0
   -6.5261   -1.1153   -1.7187 C   0  0  0  0  0  0  0  0  0  0  0  0
    2.3079    1.2020    0.9685 C   0  0  0  0  0  0  0  0  0  0  0  0
    3.4448    0.8861    1.7162 C   0  0  0  0  0  0  0  0  0  0  0  0
    9.7730    0.8776    0.5244 H   0  0  0  0  0  0  0  0  0  0  0  0
    9.7844   -0.8667    0.2238 H   0  0  0  0  0  0  0  0  0  0  0  0
    8.7164    0.1877   -0.7188 H   0  0  0  0  0  0  0  0  0  0  0  0
    8.5122   -0.2972    2.2990 H   0  0  0  0  0  0  0  0  0  0  0  0
    7.4579    0.7609    1.3605 H   0  0  0  0  0  0  0  0  0  0  0  0
    7.7625   -2.2601    0.8901 H   0  0  0  0  0  0  0  0  0  0  0  0
    6.6732   -1.1798    0.0176 H   0  0  0  0  0  0  0  0  0  0  0  0
    6.5946   -1.7747    3.0183 H   0  0  0  0  0  0  0  0  0  0  0  0
    5.5084   -2.4984    1.8645 H   0  0  0  0  0  0  0  0  0  0  0  0
    4.2992   -2.0106    0.1575 H   0  0  0  0  0  0  0  0  0  0  0  0
    2.3282   -1.4738   -1.1323 H   0  0  0  0  0  0  0  0  0  0  0  0
    0.5817    1.8376   -0.9067 H   0  0  0  0  0  0  0  0  0  0  0  0
    1.4251    0.5133   -2.8489 H   0  0  0  0  0  0  0  0  0  0  0  0
    0.4593   -0.8748   -2.3048 H   0  0  0  0  0  0  0  0  0  0  0  0
   -0.3430    0.6179   -2.7753 H   0  0  0  0  0  0  0  0  0  0  0  0
   -0.5908   -0.7225    0.0971 H   0  0  0  0  0  0  0  0  0  0  0  0
   -1.9977    0.1852    2.3527 H   0  0  0  0  0  0  0  0  0  0  0  0
   -2.7265   -0.5280    0.9047 H   0  0  0  0  0  0  0  0  0  0  0  0
   -4.2654    0.9479    2.4391 H   0  0  0  0  0  0  0  0  0  0  0  0
   -3.3954    2.3420    1.8052 H   0  0  0  0  0  0  0  0  0  0  0  0
   -5.1876   -0.9666    0.5753 H   0  0  0  0  0  0  0  0  0  0  0  0
   -6.3434    0.0913    1.4170 H   0  0  0  0  0  0  0  0  0  0  0  0
   -8.2025    1.2325    0.0991 H   0  0  0  0  0  0  0  0  0  0  0  0
   -9.7895    0.9836   -1.7684 H   0  0  0  0  0  0  0  0  0  0  0  0
   -9.3066   -0.5911   -3.6203 H   0  0  0  0  0  0  0  0  0  0  0  0
   -5.6066   -1.6956   -1.7322 H   0  0  0  0  0  0  0  0  0  0  0  0
    1.7511    2.1070    1.2093 H   0  0  0  0  0  0  0  0  0  0  0  0
    3.7584    1.5482    2.5197 H   0  0  0  0  0  0  0  0  0  0  0  0
  1  2  1  0
  2  3  1  0
  3  4  1  0
  4  5  1  0
  5  6  1  0
  6  7  2  0
  7  8  1  0
  8  9  2  0
  9 10  1  0
 10 11  1  0
 10 12  1  0
 12 13  1  0
 13 14  2  0
 13 15  1  0
 15 16  1  0
 16 17  1  0
 17 18  2  0
 17 19  2  0
 17 20  1  0
 20 21  1  0
 21 22  2  0
 22 23  1  0
 23 24  2  0
 24 25  1  0
 25 26  1  0
 25 27  2  0
  9 28  1  0
 28 29  2  0
 29  6  1  0
 27 21  1  0
  1 30  1  0
  1 31  1  0
  1 32  1  0
  2 33  1  0
  2 34  1  0
  3 35  1  0
  3 36  1  0
  4 37  1  0
  4 38  1  0
  7 39  1  0
  8 40  1  0
 10 41  1  0
 11 42  1  0
 11 43  1  0
 11 44  1  0
 12 45  1  0
 15 46  1  0
 15 47  1  0
 16 48  1  0
 16 49  1  0
 20 50  1  0
 20 51  1  0
 22 52  1  0
 23 53  1  0
 24 54  1  0
 27 55  1  0
 28 56  1  0
 29 57  1  0
M  END
$$$$
