
     RDKit          3D

 51 54  0  0  0  0  0  0  0  0999 V2000
   -0.9659   -2.7150   -1.3681 O   0  0  0  0  0  0  0  0  0  0  0  0
   -1.1044   -1.6011   -0.8557 C   0  0  0  0  0  0  0  0  0  0  0  0
    0.0549   -0.6978   -0.7639 C   0  0  0  0  0  0  0  0  0  0  0  0
    1.4192   -1.0889   -0.8542 C   0  0  0  0  0  0  0  0  0  0  0  0
    2.1314    0.0807   -0.7563 C   0  0  0  0  0  0  0  0  0  0  0  0
    3.5714    0.4246   -0.7790 C   0  0  0  0  0  0  0  0  0  0  0  0
    4.2322   -0.5200    0.0629 O   0  0  0  0  0  0  0  0  0  0  0  0
    5.5871   -0.3984    0.1986 C   0  0  0  0  0  0  0  0  0  0  0  0
    6.1659   -1.3163    1.0799 C   0  0  0  0  0  0  0  0  0  0  0  0
    7.5398   -1.3067    1.3184 C   0  0  0  0  0  0  0  0  0  0  0  0
    8.3497   -0.3752    0.6702 C   0  0  0  0  0  0  0  0  0  0  0  0
    7.7899    0.5502   -0.2242 C   0  0  0  0  0  0  0  0  0  0  0  0
    8.6560    1.5808   -0.9063 C   0  0  0  0  0  0  0  0  0  0  0  0
    8.6671    2.7666   -0.2375 F   0  0  0  0  0  0  0  0  0  0  0  0
    8.2386    1.8688   -2.1717 F   0  0  0  0  0  0  0  0  0  0  0  0
    9.9585    1.2009   -1.0215 F   0  0  0  0  0  0  0  0  0  0  0  0
    6.4000    0.5341   -0.4495 C   0  0  0  0  0  0  0  0  0  0  0  0
    1.2608    1.1178   -0.6388 O   0  0  0  0  0  0  0  0  0  0  0  0
   -0.0346    0.6407   -0.6583 N   0  0  0  0  0  0  0  0  0  0  0  0
   -2.3545   -1.1922   -0.3674 N   0  0  0  0  0  0  0  0  0  0  0  0
   -3.5141   -2.0199   -0.6869 C   0  0  0  0  0  0  0  0  0  0  0  0
   -4.7990   -1.2021   -0.6839 C   0  0  0  0  0  0  0  0  0  0  0  0
   -5.0636   -0.6018    0.7078 C   0  0  0  0  0  0  0  0  0  0  0  0
   -6.0310    0.5669    0.6394 C   0  0  0  0  0  0  0  0  0  0  0  0
   -5.7059    1.7671   -0.0033 C   0  0  0  0  0  0  0  0  0  0  0  0
   -6.6396    2.7938   -0.0219 C   0  0  0  0  0  0  0  0  0  0  0  0
   -7.8596    2.7115    0.5481 N   0  0  0  0  0  0  0  0  0  0  0  0
   -8.1596    1.5479    1.1621 C   0  0  0  0  0  0  0  0  0  0  0  0
   -7.2945    0.4651    1.2328 C   0  0  0  0  0  0  0  0  0  0  0  0
   -3.7630   -0.2570    1.4606 C   0  0  0  0  0  0  0  0  0  0  0  0
   -2.5623   -0.0575    0.5364 C   0  0  0  0  0  0  0  0  0  0  0  0
    1.8119   -2.0899   -0.9706 H   0  0  0  0  0  0  0  0  0  0  0  0
    3.7225    1.4423   -0.3982 H   0  0  0  0  0  0  0  0  0  0  0  0
    3.9402    0.3463   -1.8092 H   0  0  0  0  0  0  0  0  0  0  0  0
    5.5377   -2.0439    1.5916 H   0  0  0  0  0  0  0  0  0  0  0  0
    7.9757   -2.0243    2.0115 H   0  0  0  0  0  0  0  0  0  0  0  0
    9.4212   -0.3724    0.8666 H   0  0  0  0  0  0  0  0  0  0  0  0
    5.9857    1.2646   -1.1395 H   0  0  0  0  0  0  0  0  0  0  0  0
   -3.3764   -2.4847   -1.6703 H   0  0  0  0  0  0  0  0  0  0  0  0
   -3.5619   -2.8267    0.0553 H   0  0  0  0  0  0  0  0  0  0  0  0
   -4.7161   -0.4161   -1.4464 H   0  0  0  0  0  0  0  0  0  0  0  0
   -5.6467   -1.8319   -0.9813 H   0  0  0  0  0  0  0  0  0  0  0  0
   -5.5489   -1.3898    1.3039 H   0  0  0  0  0  0  0  0  0  0  0  0
   -4.7488    1.9145   -0.4906 H   0  0  0  0  0  0  0  0  0  0  0  0
   -6.4219    3.7385   -0.5129 H   0  0  0  0  0  0  0  0  0  0  0  0
   -9.1470    1.5040    1.6128 H   0  0  0  0  0  0  0  0  0  0  0  0
   -7.6100   -0.4378    1.7460 H   0  0  0  0  0  0  0  0  0  0  0  0
   -3.5279   -1.0987    2.1283 H   0  0  0  0  0  0  0  0  0  0  0  0
   -3.8878    0.6178    2.1107 H   0  0  0  0  0  0  0  0  0  0  0  0
   -2.6992    0.8349   -0.0839 H   0  0  0  0  0  0  0  0  0  0  0  0
   -1.6733    0.0860    1.1588 H   0  0  0  0  0  0  0  0  0  0  0  0
  1  2  2  0
  2  3  1  0
  3  4  1  0
  4  5  2  0
  5  6  1  0
  6  7  1  0
  7  8  1  0
  8  9  2  0
  9 10  1  0
 10 11  2  0
 11 12  1  0
 12 13  1  0
 13 14  1  0
 13 15  1  0
 13 16  1  0
 12 17  2  0
  5 18  1  0
 18 19  1  0
  2 20  1  0
 20 21  1  0
 21 22  1  0
 22 23  1  0
 23 24  1  0
 24 25  2  0
 25 26  1  0
 26 27  2  0
 27 28  1  0
 28 29  2  0
 23 30  1  0
 30 31  1  0
 19  3  2  0
 31 20  1  0
 17  8  1  0
 29 24  1  0
  4 32  1  0
  6 33  1  0
  6 34  1  0
  9 35  1  0
 10 36  1  0
 11 37  1  0
 17 38  1  0
 21 39  1  0
 21 40  1  0
 22 41  1  0
 22 42  1  0
 23 43  1  0
 25 44  1  0
 26 45  1  0
 28 46  1  0
 29 47  1  0
 30 48  1  0
 30 49  1  0
 31 50  1  0
 31 51  1  0
M  END
$$$$
