
     RDKit          3D

 49 51  0  0  0  0  0  0  0  0999 V2000
   -1.5317    2.5612    0.7337 C   0  0  0  0  0  0  0  0  0  0  0  0
   -0.7955    1.4207    1.4218 C   0  0  0  0  0  0  0  0  0  0  0  0
   -1.5923    0.1241    1.6855 C   0  0  0  0  0  0  0  0  0  0  0  0
   -2.9783    0.3490    2.2990 C   0  0  0  0  0  0  0  0  0  0  0  0
   -1.6200   -0.7919    0.5111 N   0  0  0  0  0  0  0  0  0  0  0  0
   -0.8204   -1.9401    0.3994 C   0  0  0  0  0  0  0  0  0  0  0  0
   -0.9507   -2.7106   -0.5582 O   0  0  0  0  0  0  0  0  0  0  0  0
    0.1774   -2.2998    1.4767 C   0  0  0  0  0  0  0  0  0  0  0  0
    1.3156   -1.4167    1.4815 N   0  0  0  0  0  0  0  0  0  0  0  0
    1.6861   -0.7603    2.5941 N   0  0  0  0  0  0  0  0  0  0  0  0
    2.7701   -0.0857    2.2413 N   0  0  0  0  0  0  0  0  0  0  0  0
    3.0214   -0.3895    0.9221 C   0  0  0  0  0  0  0  0  0  0  0  0
    4.1444    0.1673    0.1790 C   0  0  0  0  0  0  0  0  0  0  0  0
    4.3560   -0.1762   -1.1673 C   0  0  0  0  0  0  0  0  0  0  0  0
    5.4327    0.3619   -1.8773 C   0  0  0  0  0  0  0  0  0  0  0  0
    6.2992    1.2436   -1.2434 C   0  0  0  0  0  0  0  0  0  0  0  0
    7.3306    1.7597   -1.9239 F   0  0  0  0  0  0  0  0  0  0  0  0
    6.1108    1.5977    0.0870 C   0  0  0  0  0  0  0  0  0  0  0  0
    5.0344    1.0604    0.7986 C   0  0  0  0  0  0  0  0  0  0  0  0
    2.1132   -1.2408    0.4128 N   0  0  0  0  0  0  0  0  0  0  0  0
   -2.5296   -0.4594   -0.6077 C   0  0  0  0  0  0  0  0  0  0  0  0
   -1.8313   -0.2414   -1.9632 C   0  0  0  0  0  0  0  0  0  0  0  0
   -2.9478    0.0273   -2.9656 C   0  0  0  0  0  0  0  0  0  0  0  0
   -4.3347   -0.9624   -2.4216 S   0  0  0  0  0  6  0  0  0  0  0  0
   -5.4448   -0.0709   -2.1497 O   0  0  0  0  0  0  0  0  0  0  0  0
   -4.4682   -2.1142   -3.2873 O   0  0  0  0  0  0  0  0  0  0  0  0
   -3.6437   -1.4779   -0.8597 C   0  0  0  0  0  0  0  0  0  0  0  0
   -2.4282    2.8577    1.2851 H   0  0  0  0  0  0  0  0  0  0  0  0
   -0.8783    3.4388    0.6787 H   0  0  0  0  0  0  0  0  0  0  0  0
   -1.8140    2.3088   -0.2900 H   0  0  0  0  0  0  0  0  0  0  0  0
   -0.4496    1.8026    2.3914 H   0  0  0  0  0  0  0  0  0  0  0  0
    0.1058    1.1910    0.8421 H   0  0  0  0  0  0  0  0  0  0  0  0
   -1.0392   -0.3883    2.4744 H   0  0  0  0  0  0  0  0  0  0  0  0
   -3.6622    0.8825    1.6337 H   0  0  0  0  0  0  0  0  0  0  0  0
   -3.4459   -0.6111    2.5443 H   0  0  0  0  0  0  0  0  0  0  0  0
   -2.8966    0.9290    3.2245 H   0  0  0  0  0  0  0  0  0  0  0  0
    0.5635   -3.3077    1.2846 H   0  0  0  0  0  0  0  0  0  0  0  0
   -0.2931   -2.3218    2.4631 H   0  0  0  0  0  0  0  0  0  0  0  0
    3.6829   -0.8677   -1.6719 H   0  0  0  0  0  0  0  0  0  0  0  0
    5.5988    0.0972   -2.9168 H   0  0  0  0  0  0  0  0  0  0  0  0
    6.8010    2.2876    0.5625 H   0  0  0  0  0  0  0  0  0  0  0  0
    4.8983    1.3449    1.8406 H   0  0  0  0  0  0  0  0  0  0  0  0
   -3.0210    0.4875   -0.3631 H   0  0  0  0  0  0  0  0  0  0  0  0
   -1.1179    0.5882   -1.9294 H   0  0  0  0  0  0  0  0  0  0  0  0
   -1.2751   -1.1271   -2.2845 H   0  0  0  0  0  0  0  0  0  0  0  0
   -3.2551    1.0768   -2.9373 H   0  0  0  0  0  0  0  0  0  0  0  0
   -2.6700   -0.2524   -3.9839 H   0  0  0  0  0  0  0  0  0  0  0  0
   -4.4173   -1.4479   -0.0886 H   0  0  0  0  0  0  0  0  0  0  0  0
   -3.2898   -2.5035   -0.9781 H   0  0  0  0  0  0  0  0  0  0  0  0
  1  2  1  0
  2  3  1  0
  3  4  1  0
  3  5  1  0
  5  6  1  0
  6  7  2  0
  6  8  1  0
  8  9  1  0
  9 10  1  0
 10 11  2  0
 11 12  1  0
 12 13  1  0
 13 14  2  0
 14 15  1  0
 15 16  2  0
 16 17  1  0
 16 18  1  0
 18 19  2  0
 12 20  2  0
  5 21  1  0
 21 22  1  0
 22 23  1  0
 23 24  1  0
 24 25  2  0
 24 26  2  0
 24 27  1  0
 20  9  1  0
 27 21  1  0
 19 13  1  0
  1 28  1  0
  1 29  1  0
  1 30  1  0
  2 31  1  0
  2 32  1  0
  3 33  1  0
  4 34  1  0
  4 35  1  0
  4 36  1  0
  8 37  1  0
  8 38  1  0
 14 39  1  0
 15 40  1  0
 18 41  1  0
 19 42  1  0
 21 43  1  0
 22 44  1  0
 22 45  1  0
 23 46  1  0
 23 47  1  0
 27 48  1  0
 27 49  1  0
M  END
$$$$
