
     RDKit          3D

 53 57  0  0  0  0  0  0  0  0999 V2000
    4.8643    0.7644    0.0313 C   0  0  0  0  0  0  0  0  0  0  0  0
    4.3907    0.2989    1.3792 C   0  0  0  0  0  0  0  0  0  0  0  0
    5.0911    0.7353    2.5188 C   0  0  0  0  0  0  0  0  0  0  0  0
    4.7114    0.3318    3.8009 C   0  0  0  0  0  0  0  0  0  0  0  0
    3.6220   -0.5163    3.9714 C   0  0  0  0  0  0  0  0  0  0  0  0
    2.9081   -0.9560    2.8586 C   0  0  0  0  0  0  0  0  0  0  0  0
    3.2788   -0.5446    1.5660 C   0  0  0  0  0  0  0  0  0  0  0  0
    2.2806   -1.1477    0.2144 S   0  0  0  0  0  6  0  0  0  0  0  0
    2.4204   -0.3035   -0.9535 O   0  0  0  0  0  0  0  0  0  0  0  0
    2.5426   -2.5702    0.1192 O   0  0  0  0  0  0  0  0  0  0  0  0
    0.7041   -1.0091    0.7684 N   0  0  0  0  0  0  0  0  0  0  0  0
    0.1219    0.2767    0.6314 C   0  0  0  0  0  0  0  0  0  0  0  0
    0.7112    1.2662    1.3239 N   0  0  0  0  0  0  0  0  0  0  0  0
    0.1174    2.4670    1.2332 C   0  0  0  0  0  0  0  0  0  0  0  0
    0.6734    3.5473    1.9057 C   0  0  0  0  0  0  0  0  0  0  0  0
    0.0922    4.8148    1.8483 C   0  0  0  0  0  0  0  0  0  0  0  0
   -1.0656    5.0054    1.1049 C   0  0  0  0  0  0  0  0  0  0  0  0
   -1.6330    3.9274    0.4231 C   0  0  0  0  0  0  0  0  0  0  0  0
   -1.0653    2.6603    0.4702 C   0  0  0  0  0  0  0  0  0  0  0  0
   -1.6486    1.6488   -0.2069 N   0  0  0  0  0  0  0  0  0  0  0  0
   -1.0497    0.4406   -0.1400 C   0  0  0  0  0  0  0  0  0  0  0  0
   -1.5838   -0.6795   -0.8350 N   0  0  0  0  0  0  0  0  0  0  0  0
   -0.9933   -0.7529   -2.1866 C   0  0  0  0  0  0  0  0  0  0  0  0
   -1.3400   -2.1142   -2.7992 C   0  0  0  0  0  0  0  0  0  0  0  0
   -2.8037   -2.4577   -2.6510 C   0  0  0  0  0  0  0  0  0  0  0  0
   -3.3530   -3.5019   -3.4075 C   0  0  0  0  0  0  0  0  0  0  0  0
   -4.6938   -3.8536   -3.2543 C   0  0  0  0  0  0  0  0  0  0  0  0
   -5.4946   -3.1705   -2.3425 C   0  0  0  0  0  0  0  0  0  0  0  0
   -4.9555   -2.1361   -1.5768 C   0  0  0  0  0  0  0  0  0  0  0  0
   -3.6053   -1.7774   -1.7120 C   0  0  0  0  0  0  0  0  0  0  0  0
   -3.0559   -0.6158   -0.9027 C   0  0  0  0  0  0  0  0  0  0  0  0
    4.1594    1.4871   -0.3896 H   0  0  0  0  0  0  0  0  0  0  0  0
    4.9946   -0.0841   -0.6484 H   0  0  0  0  0  0  0  0  0  0  0  0
    5.8392    1.2606    0.0988 H   0  0  0  0  0  0  0  0  0  0  0  0
    5.9509    1.3958    2.4140 H   0  0  0  0  0  0  0  0  0  0  0  0
    5.2692    0.6793    4.6673 H   0  0  0  0  0  0  0  0  0  0  0  0
    3.3240   -0.8319    4.9684 H   0  0  0  0  0  0  0  0  0  0  0  0
    2.0551   -1.6164    3.0038 H   0  0  0  0  0  0  0  0  0  0  0  0
    0.1122   -1.7537    0.3962 H   0  0  0  0  0  0  0  0  0  0  0  0
    1.5820    3.3967    2.4859 H   0  0  0  0  0  0  0  0  0  0  0  0
    0.5458    5.6462    2.3823 H   0  0  0  0  0  0  0  0  0  0  0  0
   -1.5283    5.9884    1.0523 H   0  0  0  0  0  0  0  0  0  0  0  0
   -2.5382    4.0787   -0.1604 H   0  0  0  0  0  0  0  0  0  0  0  0
   -1.3805    0.0575   -2.8204 H   0  0  0  0  0  0  0  0  0  0  0  0
    0.0974   -0.6548   -2.1632 H   0  0  0  0  0  0  0  0  0  0  0  0
   -0.7578   -2.8960   -2.2949 H   0  0  0  0  0  0  0  0  0  0  0  0
   -1.0569   -2.1123   -3.8580 H   0  0  0  0  0  0  0  0  0  0  0  0
   -2.7367   -4.0474   -4.1187 H   0  0  0  0  0  0  0  0  0  0  0  0
   -5.1139   -4.6623   -3.8473 H   0  0  0  0  0  0  0  0  0  0  0  0
   -6.5403   -3.4439   -2.2271 H   0  0  0  0  0  0  0  0  0  0  0  0
   -5.5954   -1.6084   -0.8733 H   0  0  0  0  0  0  0  0  0  0  0  0
   -3.4651   -0.6655    0.1143 H   0  0  0  0  0  0  0  0  0  0  0  0
   -3.4058    0.3085   -1.3824 H   0  0  0  0  0  0  0  0  0  0  0  0
  1  2  1  0
  2  3  2  0
  3  4  1  0
  4  5  2  0
  5  6  1  0
  6  7  2  0
  7  8  1  0
  8  9  2  0
  8 10  2  0
  8 11  1  0
 11 12  1  0
 12 13  2  0
 13 14  1  0
 14 15  2  0
 15 16  1  0
 16 17  2  0
 17 18  1  0
 18 19  2  0
 19 20  1  0
 20 21  2  0
 21 22  1  0
 22 23  1  0
 23 24  1  0
 24 25  1  0
 25 26  2  0
 26 27  1  0
 27 28  2  0
 28 29  1  0
 29 30  2  0
 30 31  1  0
  7  2  1  0
 21 12  1  0
 31 22  1  0
 19 14  1  0
 30 25  1  0
  1 32  1  0
  1 33  1  0
  1 34  1  0
  3 35  1  0
  4 36  1  0
  5 37  1  0
  6 38  1  0
 11 39  1  0
 15 40  1  0
 16 41  1  0
 17 42  1  0
 18 43  1  0
 23 44  1  0
 23 45  1  0
 24 46  1  0
 24 47  1  0
 26 48  1  0
 27 49  1  0
 28 50  1  0
 29 51  1  0
 31 52  1  0
 31 53  1  0
M  END
$$$$
