
     RDKit          3D

 53 56  0  0  0  0  0  0  0  0999 V2000
    7.0048   -1.6713    0.0348 C   0  0  0  0  0  0  0  0  0  0  0  0
    6.0411   -1.3514    1.0298 O   0  0  0  0  0  0  0  0  0  0  0  0
    4.7374   -1.1154    0.4902 C   0  0  0  0  0  0  0  0  0  0  0  0
    4.5911    0.3205   -0.0067 C   0  0  0  0  0  0  0  0  0  0  0  0
    3.2551    0.5944   -0.5170 N   0  0  0  0  0  0  0  0  0  0  0  0
    2.8730    0.4496   -1.8342 C   0  0  0  0  0  0  0  0  0  0  0  0
    3.7802   -0.0224   -2.9159 C   0  0  0  0  0  0  0  0  0  0  0  0
    1.5465    0.8174   -1.9198 C   0  0  0  0  0  0  0  0  0  0  0  0
    1.0957    1.2035   -0.6268 C   0  0  0  0  0  0  0  0  0  0  0  0
   -0.2403    1.6874   -0.2394 C   0  0  0  0  0  0  0  0  0  0  0  0
   -0.4567    2.1655    0.8784 O   0  0  0  0  0  0  0  0  0  0  0  0
   -1.3680    1.6537   -1.2558 C   0  0  0  0  0  0  0  0  0  0  0  0
   -1.9631   -0.0259   -1.6164 S   0  0  0  0  0  0  0  0  0  0  0  0
   -2.3345   -0.5476    0.0289 C   0  0  0  0  0  0  0  0  0  0  0  0
   -1.3335   -1.0755    0.7571 N   0  0  0  0  0  0  0  0  0  0  0  0
   -1.5848   -1.4456    2.0249 C   0  0  0  0  0  0  0  0  0  0  0  0
   -0.4407   -2.0181    2.8042 C   0  0  0  0  0  0  0  0  0  0  0  0
   -2.7686   -1.3784    2.6480 N   0  0  0  0  0  0  0  0  0  0  0  0
   -3.7418   -0.8580    1.8826 C   0  0  0  0  0  0  0  0  0  0  0  0
   -5.3335   -0.6736    2.5120 S   0  0  0  0  0  0  0  0  0  0  0  0
   -5.8493   -0.0223    1.0635 C   0  0  0  0  0  0  0  0  0  0  0  0
   -4.8746    0.0638    0.1069 C   0  0  0  0  0  0  0  0  0  0  0  0
   -3.6168   -0.4186    0.5645 C   0  0  0  0  0  0  0  0  0  0  0  0
   -5.4180    0.6494   -1.1462 C   0  0  0  0  0  0  0  0  0  0  0  0
   -6.9595    0.5875   -0.9066 C   0  0  0  0  0  0  0  0  0  0  0  0
   -7.1741    0.4795    0.6328 C   0  0  0  0  0  0  0  0  0  0  0  0
    2.1820    1.0401    0.2314 C   0  0  0  0  0  0  0  0  0  0  0  0
    2.2467    1.2832    1.7055 C   0  0  0  0  0  0  0  0  0  0  0  0
    7.9613   -1.8548    0.5319 H   0  0  0  0  0  0  0  0  0  0  0  0
    6.7138   -2.5790   -0.5026 H   0  0  0  0  0  0  0  0  0  0  0  0
    7.1340   -0.8430   -0.6669 H   0  0  0  0  0  0  0  0  0  0  0  0
    4.5101   -1.8460   -0.2955 H   0  0  0  0  0  0  0  0  0  0  0  0
    4.0242   -1.2993    1.3013 H   0  0  0  0  0  0  0  0  0  0  0  0
    4.8172    1.0387    0.7891 H   0  0  0  0  0  0  0  0  0  0  0  0
    5.3116    0.5408   -0.8008 H   0  0  0  0  0  0  0  0  0  0  0  0
    3.2300   -0.1606   -3.8525 H   0  0  0  0  0  0  0  0  0  0  0  0
    4.5739    0.7086   -3.0994 H   0  0  0  0  0  0  0  0  0  0  0  0
    4.2370   -0.9818   -2.6549 H   0  0  0  0  0  0  0  0  0  0  0  0
    0.9682    0.8076   -2.8353 H   0  0  0  0  0  0  0  0  0  0  0  0
   -1.0402    2.1355   -2.1822 H   0  0  0  0  0  0  0  0  0  0  0  0
   -2.2044    2.2479   -0.8707 H   0  0  0  0  0  0  0  0  0  0  0  0
   -0.4363   -1.6162    3.8220 H   0  0  0  0  0  0  0  0  0  0  0  0
   -0.5356   -3.1068    2.8527 H   0  0  0  0  0  0  0  0  0  0  0  0
    0.5159   -1.7700    2.3339 H   0  0  0  0  0  0  0  0  0  0  0  0
   -5.1423    0.0814   -2.0386 H   0  0  0  0  0  0  0  0  0  0  0  0
   -5.0899    1.6882   -1.2573 H   0  0  0  0  0  0  0  0  0  0  0  0
   -7.4821    1.4456   -1.3407 H   0  0  0  0  0  0  0  0  0  0  0  0
   -7.3577   -0.3166   -1.3863 H   0  0  0  0  0  0  0  0  0  0  0  0
   -7.9955   -0.2013    0.8719 H   0  0  0  0  0  0  0  0  0  0  0  0
   -7.3754    1.4659    1.0628 H   0  0  0  0  0  0  0  0  0  0  0  0
    2.3309    2.3562    1.9045 H   0  0  0  0  0  0  0  0  0  0  0  0
    1.3447    0.9071    2.1987 H   0  0  0  0  0  0  0  0  0  0  0  0
    3.0909    0.7806    2.1834 H   0  0  0  0  0  0  0  0  0  0  0  0
  1  2  1  0
  2  3  1  0
  3  4  1  0
  4  5  1  0
  5  6  1  0
  6  7  1  0
  6  8  2  0
  8  9  1  0
  9 10  1  0
 10 11  2  0
 10 12  1  0
 12 13  1  0
 13 14  1  0
 14 15  2  0
 15 16  1  0
 16 17  1  0
 16 18  2  0
 18 19  1  0
 19 20  1  0
 20 21  1  0
 21 22  2  0
 22 23  1  0
 22 24  1  0
 24 25  1  0
 25 26  1  0
  9 27  2  0
 27 28  1  0
 27  5  1  0
 23 14  1  0
 23 19  2  0
 26 21  1  0
  1 29  1  0
  1 30  1  0
  1 31  1  0
  3 32  1  0
  3 33  1  0
  4 34  1  0
  4 35  1  0
  7 36  1  0
  7 37  1  0
  7 38  1  0
  8 39  1  0
 12 40  1  0
 12 41  1  0
 17 42  1  0
 17 43  1  0
 17 44  1  0
 24 45  1  0
 24 46  1  0
 25 47  1  0
 25 48  1  0
 26 49  1  0
 26 50  1  0
 28 51  1  0
 28 52  1  0
 28 53  1  0
M  END
$$$$
