
     RDKit          3D

 29 31  0  0  0  0  0  0  0  0999 V2000
    5.8347   -1.5345    0.0369 C   0  0  0  0  0  0  0  0  0  0  0  0
    5.4836   -0.2106   -0.3472 O   0  0  0  0  0  0  0  0  0  0  0  0
    4.1520    0.1090   -0.3312 C   0  0  0  0  0  0  0  0  0  0  0  0
    3.8715    1.4197   -0.7174 C   0  0  0  0  0  0  0  0  0  0  0  0
    2.5570    1.8991   -0.7529 C   0  0  0  0  0  0  0  0  0  0  0  0
    1.4981    1.0451   -0.3930 C   0  0  0  0  0  0  0  0  0  0  0  0
    0.1530    1.3750   -0.3791 N   0  0  0  0  0  0  0  0  0  0  0  0
   -0.5526    0.3396    0.0069 C   0  0  0  0  0  0  0  0  0  0  0  0
   -1.9161    0.4240    0.0993 N   0  0  0  0  0  0  0  0  0  0  0  0
   -2.8041   -0.5551    0.4835 C   0  0  0  0  0  0  0  0  0  0  0  0
   -2.4953   -1.6958    0.8140 O   0  0  0  0  0  0  0  0  0  0  0  0
   -4.2078   -0.1339    0.4740 C   0  0  0  0  0  0  0  0  0  0  0  0
   -5.3022   -0.9113    0.8130 C   0  0  0  0  0  0  0  0  0  0  0  0
   -6.5360   -0.2084    0.7004 C   0  0  0  0  0  0  0  0  0  0  0  0
   -6.3501    1.0879    0.2780 C   0  0  0  0  0  0  0  0  0  0  0  0
   -4.6994    1.4476    0.0214 S   0  0  0  0  0  0  0  0  0  0  0  0
    0.3232   -1.0701    0.3721 S   0  0  0  0  0  0  0  0  0  0  0  0
    1.7947   -0.2628   -0.0091 C   0  0  0  0  0  0  0  0  0  0  0  0
    3.1133   -0.7550    0.0301 C   0  0  0  0  0  0  0  0  0  0  0  0
    6.9233   -1.6241   -0.0299 H   0  0  0  0  0  0  0  0  0  0  0  0
    5.5472   -1.7335    1.0746 H   0  0  0  0  0  0  0  0  0  0  0  0
    5.3973   -2.2720   -0.6441 H   0  0  0  0  0  0  0  0  0  0  0  0
    4.6873    2.0835   -0.9965 H   0  0  0  0  0  0  0  0  0  0  0  0
    2.3489    2.9205   -1.0548 H   0  0  0  0  0  0  0  0  0  0  0  0
   -2.2823    1.3313   -0.1530 H   0  0  0  0  0  0  0  0  0  0  0  0
   -5.2119   -1.9453    1.1291 H   0  0  0  0  0  0  0  0  0  0  0  0
   -7.5085   -0.6331    0.9183 H   0  0  0  0  0  0  0  0  0  0  0  0
   -7.1059    1.8429    0.1074 H   0  0  0  0  0  0  0  0  0  0  0  0
    3.2868   -1.7796    0.3360 H   0  0  0  0  0  0  0  0  0  0  0  0
  1  2  1  0
  2  3  1  0
  3  4  2  0
  4  5  1  0
  5  6  2  0
  6  7  1  0
  7  8  2  0
  8  9  1  0
  9 10  1  0
 10 11  2  0
 10 12  1  0
 12 13  2  0
 13 14  1  0
 14 15  2  0
 15 16  1  0
  8 17  1  0
 17 18  1  0
 18 19  2  0
 19  3  1  0
 18  6  1  0
 16 12  1  0
  1 20  1  0
  1 21  1  0
  1 22  1  0
  4 23  1  0
  5 24  1  0
  9 25  1  0
 13 26  1  0
 14 27  1  0
 15 28  1  0
 19 29  1  0
M  END
$$$$
