
     RDKit          3D

 39 41  0  0  0  0  0  0  0  0999 V2000
    4.9112   -0.8206    0.6548 C   0  0  0  0  0  0  0  0  0  0  0  0
    4.2749    0.5512    0.4319 C   0  0  0  0  0  0  0  0  0  0  0  0
    4.7310    1.1426   -0.9018 C   0  0  0  0  0  0  0  0  0  0  0  0
    2.7410    0.5138    0.5624 C   0  0  0  0  0  0  0  0  0  0  0  0
    2.0174   -0.3668   -0.4646 C   0  0  0  0  0  0  0  0  0  0  0  0
    0.5692   -0.3394   -0.2622 N   0  0  0  0  0  0  0  0  0  0  0  0
    0.0243   -1.2596    0.6303 C   0  0  0  0  0  0  0  0  0  0  0  0
    0.6909   -2.0841    1.2517 O   0  0  0  0  0  0  0  0  0  0  0  0
   -1.4428   -1.2146    0.8321 C   0  0  0  0  0  0  0  0  0  0  0  0
   -2.0370   -2.1643    1.6716 C   0  0  0  0  0  0  0  0  0  0  0  0
   -3.4111   -2.1532    1.8642 C   0  0  0  0  0  0  0  0  0  0  0  0
   -4.1904   -1.1852    1.2298 C   0  0  0  0  0  0  0  0  0  0  0  0
   -3.6204   -0.1995    0.3906 C   0  0  0  0  0  0  0  0  0  0  0  0
   -4.3871    0.8180   -0.2443 C   0  0  0  0  0  0  0  0  0  0  0  0
   -5.7929    0.8625   -0.1569 N   0  0  0  0  0  0  0  0  0  0  0  0
   -3.7637    1.6879   -1.1471 C   0  0  0  0  0  0  0  0  0  0  0  0
   -2.3876    1.6438   -1.3448 C   0  0  0  0  0  0  0  0  0  0  0  0
   -1.6163    0.6922   -0.6723 C   0  0  0  0  0  0  0  0  0  0  0  0
   -2.2137   -0.2388    0.1843 C   0  0  0  0  0  0  0  0  0  0  0  0
   -0.1525    0.6683   -0.8974 C   0  0  0  0  0  0  0  0  0  0  0  0
    0.3583    1.5270   -1.6127 O   0  0  0  0  0  0  0  0  0  0  0  0
    4.6669   -1.5194   -0.1515 H   0  0  0  0  0  0  0  0  0  0  0  0
    4.5750   -1.2574    1.6009 H   0  0  0  0  0  0  0  0  0  0  0  0
    6.0024   -0.7343    0.6969 H   0  0  0  0  0  0  0  0  0  0  0  0
    4.6435    1.2145    1.2258 H   0  0  0  0  0  0  0  0  0  0  0  0
    4.2651    2.1181   -1.0756 H   0  0  0  0  0  0  0  0  0  0  0  0
    4.4825    0.4890   -1.7439 H   0  0  0  0  0  0  0  0  0  0  0  0
    5.8169    1.2865   -0.9054 H   0  0  0  0  0  0  0  0  0  0  0  0
    2.4831    0.1729    1.5736 H   0  0  0  0  0  0  0  0  0  0  0  0
    2.3576    1.5401    0.4896 H   0  0  0  0  0  0  0  0  0  0  0  0
    2.3638   -1.4031   -0.3905 H   0  0  0  0  0  0  0  0  0  0  0  0
    2.2373   -0.0263   -1.4820 H   0  0  0  0  0  0  0  0  0  0  0  0
   -1.4307   -2.9199    2.1681 H   0  0  0  0  0  0  0  0  0  0  0  0
   -3.8788   -2.8975    2.5043 H   0  0  0  0  0  0  0  0  0  0  0  0
   -5.2645   -1.2195    1.3941 H   0  0  0  0  0  0  0  0  0  0  0  0
   -6.1905    1.7586   -0.4235 H   0  0  0  0  0  0  0  0  0  0  0  0
   -6.1609    0.5495    0.7347 H   0  0  0  0  0  0  0  0  0  0  0  0
   -4.3490    2.4196   -1.6993 H   0  0  0  0  0  0  0  0  0  0  0  0
   -1.9223    2.3477   -2.0324 H   0  0  0  0  0  0  0  0  0  0  0  0
  1  2  1  0
  2  3  1  0
  2  4  1  0
  4  5  1  0
  5  6  1  0
  6  7  1  0
  7  8  2  0
  7  9  1  0
  9 10  1  0
 10 11  2  0
 11 12  1  0
 12 13  2  0
 13 14  1  0
 14 15  1  0
 14 16  2  0
 16 17  1  0
 17 18  2  0
 18 19  1  0
 18 20  1  0
 20 21  2  0
 20  6  1  0
 19  9  2  0
 19 13  1  0
  1 22  1  0
  1 23  1  0
  1 24  1  0
  2 25  1  0
  3 26  1  0
  3 27  1  0
  3 28  1  0
  4 29  1  0
  4 30  1  0
  5 31  1  0
  5 32  1  0
 10 33  1  0
 11 34  1  0
 12 35  1  0
 15 36  1  0
 15 37  1  0
 16 38  1  0
 17 39  1  0
M  END
$$$$
