
     RDKit          3D

 42 44  0  0  0  0  0  0  0  0999 V2000
   -5.6363    1.9683    4.1944 C   0  0  0  0  0  0  0  0  0  0  0  0
   -4.3350    1.4847    4.8209 C   0  0  0  0  0  0  0  0  0  0  0  0
   -3.2450    1.1740    3.7921 C   0  0  0  0  0  0  0  0  0  0  0  0
   -2.7602    2.4138    3.0333 C   0  0  0  0  0  0  0  0  0  0  0  0
   -1.6094    2.0878    2.1142 C   0  0  0  0  0  0  0  0  0  0  0  0
   -0.2873    2.2934    2.5257 C   0  0  0  0  0  0  0  0  0  0  0  0
    0.7804    1.9738    1.6786 C   0  0  0  0  0  0  0  0  0  0  0  0
    0.5459    1.4400    0.4039 C   0  0  0  0  0  0  0  0  0  0  0  0
    1.6332    1.0923   -0.5065 C   0  0  0  0  0  0  0  0  0  0  0  0
    2.8891    1.6640   -0.4862 C   0  0  0  0  0  0  0  0  0  0  0  0
    3.8668    0.9988   -1.7274 S   0  0  0  0  0  0  0  0  0  0  0  0
    2.5418   -0.0024   -2.2291 C   0  0  0  0  0  0  0  0  0  0  0  0
    2.7010   -0.8854   -3.3374 C   0  0  0  0  0  0  0  0  0  0  0  0
    2.1616   -0.4701   -4.5907 C   0  0  0  0  0  0  0  0  0  0  0  0
    1.7035   -0.0963   -5.5921 N   0  0  0  0  0  0  0  0  0  0  0  0
    3.2999   -2.0722   -3.1061 C   0  0  0  0  0  0  0  0  0  0  0  0
    3.5212   -3.0797   -4.0876 C   0  0  0  0  0  0  0  0  0  0  0  0
    4.0475   -4.3555   -3.9041 C   0  0  0  0  0  0  0  0  0  0  0  0
    4.0710   -5.0059   -5.1621 C   0  0  0  0  0  0  0  0  0  0  0  0
    3.5710   -4.0985   -6.0599 C   0  0  0  0  0  0  0  0  0  0  0  0
    3.2481   -2.9439   -5.4299 O   0  0  0  0  0  0  0  0  0  0  0  0
    1.4485    0.1492   -1.5081 N   0  0  0  0  0  0  0  0  0  0  0  0
   -0.7803    1.2244    0.0021 C   0  0  0  0  0  0  0  0  0  0  0  0
   -1.8474    1.5461    0.8462 C   0  0  0  0  0  0  0  0  0  0  0  0
   -6.4029    2.0912    4.9668 H   0  0  0  0  0  0  0  0  0  0  0  0
   -6.0089    1.2462    3.4586 H   0  0  0  0  0  0  0  0  0  0  0  0
   -5.5093    2.9367    3.6998 H   0  0  0  0  0  0  0  0  0  0  0  0
   -3.9731    2.2361    5.5369 H   0  0  0  0  0  0  0  0  0  0  0  0
   -4.5416    0.5713    5.3945 H   0  0  0  0  0  0  0  0  0  0  0  0
   -3.6138    0.4182    3.0855 H   0  0  0  0  0  0  0  0  0  0  0  0
   -2.3976    0.7160    4.3191 H   0  0  0  0  0  0  0  0  0  0  0  0
   -2.4536    3.1934    3.7433 H   0  0  0  0  0  0  0  0  0  0  0  0
   -3.5720    2.8474    2.4372 H   0  0  0  0  0  0  0  0  0  0  0  0
   -0.0775    2.6993    3.5133 H   0  0  0  0  0  0  0  0  0  0  0  0
    1.7915    2.1347    2.0430 H   0  0  0  0  0  0  0  0  0  0  0  0
    3.2792    2.4319    0.1648 H   0  0  0  0  0  0  0  0  0  0  0  0
    3.6405   -2.3078   -2.0995 H   0  0  0  0  0  0  0  0  0  0  0  0
    4.3711   -4.7708   -2.9608 H   0  0  0  0  0  0  0  0  0  0  0  0
    4.4080   -6.0086   -5.3841 H   0  0  0  0  0  0  0  0  0  0  0  0
    3.3874   -4.1153   -7.1267 H   0  0  0  0  0  0  0  0  0  0  0  0
   -0.9928    0.8045   -0.9801 H   0  0  0  0  0  0  0  0  0  0  0  0
   -2.8640    1.3679    0.5041 H   0  0  0  0  0  0  0  0  0  0  0  0
  1  2  1  0
  2  3  1  0
  3  4  1  0
  4  5  1  0
  5  6  2  0
  6  7  1  0
  7  8  2  0
  8  9  1  0
  9 10  2  0
 10 11  1  0
 11 12  1  0
 12 13  1  0
 13 14  1  0
 14 15  3  0
 13 16  2  3
 16 17  1  0
 17 18  2  0
 18 19  1  0
 19 20  2  0
 20 21  1  0
 12 22  2  0
  8 23  1  0
 23 24  2  0
 24  5  1  0
 22  9  1  0
 21 17  1  0
  1 25  1  0
  1 26  1  0
  1 27  1  0
  2 28  1  0
  2 29  1  0
  3 30  1  0
  3 31  1  0
  4 32  1  0
  4 33  1  0
  6 34  1  0
  7 35  1  0
 10 36  1  0
 16 37  1  0
 18 38  1  0
 19 39  1  0
 20 40  1  0
 23 41  1  0
 24 42  1  0
M  END
$$$$
