
     RDKit          3D

 37 37  0  0  0  0  0  0  0  0999 V2000
   -3.8695   -2.1316    0.7829 C   0  0  0  0  0  0  0  0  0  0  0  0
   -3.4116   -0.9786    1.6629 C   0  0  0  0  0  0  0  0  0  0  0  0
   -2.9296    0.1539    0.8589 N   0  0  0  0  0  0  0  0  0  0  0  0
   -3.9492    1.1115    0.4048 C   0  0  0  0  0  0  0  0  0  0  0  0
   -4.2000    1.0033   -1.0935 C   0  0  0  0  0  0  0  0  0  0  0  0
   -1.5799    0.3108    0.5601 C   0  0  0  0  0  0  0  0  0  0  0  0
   -0.6492   -0.7320    0.7242 C   0  0  0  0  0  0  0  0  0  0  0  0
    0.7132   -0.5821    0.4266 C   0  0  0  0  0  0  0  0  0  0  0  0
    1.1874    0.6348   -0.0491 C   0  0  0  0  0  0  0  0  0  0  0  0
    2.6146    0.8294   -0.3691 C   0  0  0  0  0  0  0  0  0  0  0  0
    3.4842   -0.1145   -0.2224 N   0  0  0  0  0  0  0  0  0  0  0  0
    4.8726    0.2662   -0.5934 C   0  0  0  0  0  0  0  0  0  0  0  0
    5.0291    0.1873   -2.0554 C   0  0  0  0  0  0  0  0  0  0  0  0
    5.1531    0.1616   -3.2094 N   0  0  0  0  0  0  0  0  0  0  0  0
    5.7949   -0.7236    0.0693 C   0  0  0  0  0  0  0  0  0  0  0  0
    5.4309   -1.7874    0.7195 N   0  0  0  0  0  0  0  0  0  0  0  0
    7.2191   -0.4926    0.0307 C   0  0  0  0  0  0  0  0  0  0  0  0
    8.3517   -0.2382   -0.0195 N   0  0  0  0  0  0  0  0  0  0  0  0
    0.3033    1.6925   -0.2287 C   0  0  0  0  0  0  0  0  0  0  0  0
   -1.0564    1.5233    0.0735 C   0  0  0  0  0  0  0  0  0  0  0  0
   -3.0756   -2.4702    0.1104 H   0  0  0  0  0  0  0  0  0  0  0  0
   -4.7269   -1.8409    0.1680 H   0  0  0  0  0  0  0  0  0  0  0  0
   -4.1763   -2.9799    1.4028 H   0  0  0  0  0  0  0  0  0  0  0  0
   -4.2545   -0.6567    2.2875 H   0  0  0  0  0  0  0  0  0  0  0  0
   -2.6549   -1.3186    2.3794 H   0  0  0  0  0  0  0  0  0  0  0  0
   -3.6819    2.1367    0.6839 H   0  0  0  0  0  0  0  0  0  0  0  0
   -4.9009    0.9192    0.9162 H   0  0  0  0  0  0  0  0  0  0  0  0
   -4.5085   -0.0089   -1.3721 H   0  0  0  0  0  0  0  0  0  0  0  0
   -3.3089    1.2503   -1.6778 H   0  0  0  0  0  0  0  0  0  0  0  0
   -4.9961    1.6931   -1.3913 H   0  0  0  0  0  0  0  0  0  0  0  0
   -0.9648   -1.7110    1.0730 H   0  0  0  0  0  0  0  0  0  0  0  0
    1.3829   -1.4264    0.5671 H   0  0  0  0  0  0  0  0  0  0  0  0
    2.8989    1.8311   -0.7430 H   0  0  0  0  0  0  0  0  0  0  0  0
    5.1192    1.2680   -0.2203 H   0  0  0  0  0  0  0  0  0  0  0  0
    4.3961   -1.8209    0.6858 H   0  0  0  0  0  0  0  0  0  0  0  0
    0.6431    2.6553   -0.6001 H   0  0  0  0  0  0  0  0  0  0  0  0
   -1.6997    2.3854   -0.0756 H   0  0  0  0  0  0  0  0  0  0  0  0
  1  2  1  0
  2  3  1  0
  3  4  1  0
  4  5  1  0
  3  6  1  0
  6  7  2  0
  7  8  1  0
  8  9  2  0
  9 10  1  0
 10 11  2  3
 11 12  1  0
 12 13  1  0
 13 14  3  0
 12 15  1  0
 15 16  2  3
 15 17  1  0
 17 18  3  0
  9 19  1  0
 19 20  2  0
 20  6  1  0
  1 21  1  0
  1 22  1  0
  1 23  1  0
  2 24  1  0
  2 25  1  0
  4 26  1  0
  4 27  1  0
  5 28  1  0
  5 29  1  0
  5 30  1  0
  7 31  1  0
  8 32  1  0
 10 33  1  0
 12 34  1  0
 16 35  1  0
 19 36  1  0
 20 37  1  0
M  END
$$$$
