
     RDKit          3D

 52 55  0  0  0  0  0  0  0  0999 V2000
    0.3475   -1.3718    2.1871 O   0  0  0  0  0  0  0  0  0  0  0  0
    0.3753   -0.7957    1.0989 C   0  0  0  0  0  0  0  0  0  0  0  0
    0.0389   -1.4491   -0.0732 N   0  0  0  0  0  0  0  0  0  0  0  0
   -0.4495   -2.8081   -0.0843 C   0  0  0  0  0  0  0  0  0  0  0  0
   -1.9342   -2.9043    0.2566 C   0  0  0  0  0  0  0  0  0  0  0  0
   -2.3808   -4.2419   -0.3290 C   0  0  0  0  0  0  0  0  0  0  0  0
   -1.3169   -4.6406   -1.3525 C   0  0  0  0  0  0  0  0  0  0  0  0
   -0.3848   -3.4424   -1.4678 C   0  0  0  0  0  0  0  0  0  0  0  0
    0.8182    0.6928    0.9407 C   0  0  0  0  0  0  0  0  0  0  0  0
    0.2603    1.6916    1.9689 C   0  0  0  0  0  0  0  0  0  0  0  0
    0.7567    3.0066    1.9757 C   0  0  0  0  0  0  0  0  0  0  0  0
    0.2658    3.9135    2.9027 C   0  0  0  0  0  0  0  0  0  0  0  0
   -0.6668    3.6091    3.8263 N   0  0  0  0  0  0  0  0  0  0  0  0
   -1.1288    2.3421    3.8191 C   0  0  0  0  0  0  0  0  0  0  0  0
   -0.7065    1.3656    2.9271 C   0  0  0  0  0  0  0  0  0  0  0  0
    0.7309    1.1843   -0.4755 N   0  0  0  0  0  0  0  0  0  0  0  0
    1.8628    1.1409   -1.3426 C   0  0  0  0  0  0  0  0  0  0  0  0
    1.8563    1.6473   -2.4653 O   0  0  0  0  0  0  0  0  0  0  0  0
    3.0787    0.4519   -0.9231 C   0  0  0  0  0  0  0  0  0  0  0  0
    4.3974    0.6893   -1.2735 C   0  0  0  0  0  0  0  0  0  0  0  0
    5.1795   -0.3120   -0.6500 C   0  0  0  0  0  0  0  0  0  0  0  0
    4.2944   -1.1226    0.0174 C   0  0  0  0  0  0  0  0  0  0  0  0
    3.0236   -0.6809   -0.1574 O   0  0  0  0  0  0  0  0  0  0  0  0
   -0.5275    1.7676   -0.9208 C   0  0  0  0  0  0  0  0  0  0  0  0
   -0.5742    2.7952   -1.8756 C   0  0  0  0  0  0  0  0  0  0  0  0
   -1.7871    3.3563   -2.2958 C   0  0  0  0  0  0  0  0  0  0  0  0
   -2.9883    2.9039   -1.7662 C   0  0  0  0  0  0  0  0  0  0  0  0
   -2.9741    1.8943   -0.8134 C   0  0  0  0  0  0  0  0  0  0  0  0
   -1.7591    1.3378   -0.3950 C   0  0  0  0  0  0  0  0  0  0  0  0
   -0.0314   -0.8979   -0.9216 H   0  0  0  0  0  0  0  0  0  0  0  0
    0.1338   -3.4025    0.6307 H   0  0  0  0  0  0  0  0  0  0  0  0
   -2.1193   -2.8429    1.3336 H   0  0  0  0  0  0  0  0  0  0  0  0
   -2.4957   -2.0892   -0.2175 H   0  0  0  0  0  0  0  0  0  0  0  0
   -2.4536   -5.0050    0.4541 H   0  0  0  0  0  0  0  0  0  0  0  0
   -3.3695   -4.1529   -0.7915 H   0  0  0  0  0  0  0  0  0  0  0  0
   -0.7630   -5.5133   -0.9867 H   0  0  0  0  0  0  0  0  0  0  0  0
   -1.7556   -4.9100   -2.3182 H   0  0  0  0  0  0  0  0  0  0  0  0
   -0.7565   -2.7516   -2.2353 H   0  0  0  0  0  0  0  0  0  0  0  0
    0.6327   -3.7320   -1.7482 H   0  0  0  0  0  0  0  0  0  0  0  0
    1.8758    0.6731    1.2245 H   0  0  0  0  0  0  0  0  0  0  0  0
    1.5096    3.3298    1.2638 H   0  0  0  0  0  0  0  0  0  0  0  0
    0.6233    4.9389    2.9258 H   0  0  0  0  0  0  0  0  0  0  0  0
   -1.8745    2.1179    4.5767 H   0  0  0  0  0  0  0  0  0  0  0  0
   -1.1384    0.3736    3.0059 H   0  0  0  0  0  0  0  0  0  0  0  0
    4.7403    1.4930   -1.9116 H   0  0  0  0  0  0  0  0  0  0  0  0
    6.2522   -0.4381   -0.6961 H   0  0  0  0  0  0  0  0  0  0  0  0
    4.4011   -2.0127    0.6229 H   0  0  0  0  0  0  0  0  0  0  0  0
    0.3289    3.2280   -2.2963 H   0  0  0  0  0  0  0  0  0  0  0  0
   -1.7837    4.1560   -3.0325 H   0  0  0  0  0  0  0  0  0  0  0  0
   -3.9290    3.3407   -2.0899 H   0  0  0  0  0  0  0  0  0  0  0  0
   -3.9091    1.5348   -0.3902 H   0  0  0  0  0  0  0  0  0  0  0  0
   -1.8260    0.5415    0.3383 H   0  0  0  0  0  0  0  0  0  0  0  0
  1  2  2  0
  2  3  1  0
  3  4  1  0
  4  5  1  0
  5  6  1  0
  6  7  1  0
  7  8  1  0
  2  9  1  0
  9 10  1  0
 10 11  2  0
 11 12  1  0
 12 13  2  0
 13 14  1  0
 14 15  2  0
  9 16  1  0
 16 17  1  0
 17 18  2  0
 17 19  1  0
 19 20  2  0
 20 21  1  0
 21 22  2  0
 22 23  1  0
 16 24  1  0
 24 25  2  0
 25 26  1  0
 26 27  2  0
 27 28  1  0
 28 29  2  0
  8  4  1  0
 15 10  1  0
 23 19  1  0
 29 24  1  0
  3 30  1  0
  4 31  1  0
  5 32  1  0
  5 33  1  0
  6 34  1  0
  6 35  1  0
  7 36  1  0
  7 37  1  0
  8 38  1  0
  8 39  1  0
  9 40  1  0
 11 41  1  0
 12 42  1  0
 14 43  1  0
 15 44  1  0
 20 45  1  0
 21 46  1  0
 22 47  1  0
 25 48  1  0
 26 49  1  0
 27 50  1  0
 28 51  1  0
 29 52  1  0
M  END
$$$$
