
     RDKit          3D

 44 46  0  0  0  0  0  0  0  0999 V2000
   -2.6572   -1.9476    2.4908 C   0  0  0  0  0  0  0  0  0  0  0  0
   -3.0608   -1.0813    1.3330 C   0  0  0  0  0  0  0  0  0  0  0  0
   -3.9010    0.0159    1.5346 C   0  0  0  0  0  0  0  0  0  0  0  0
   -4.2880    0.8148    0.4586 C   0  0  0  0  0  0  0  0  0  0  0  0
   -3.8470    0.5253   -0.8387 C   0  0  0  0  0  0  0  0  0  0  0  0
   -4.2642    1.4149   -1.9808 C   0  0  0  0  0  0  0  0  0  0  0  0
   -3.0164   -0.5898   -1.0541 C   0  0  0  0  0  0  0  0  0  0  0  0
   -2.6240   -0.7805   -2.3551 O   0  0  0  0  0  0  0  0  0  0  0  0
   -1.7219   -1.8468   -2.6722 C   0  0  0  0  0  0  0  0  0  0  0  0
   -0.3381   -1.4503   -2.3215 C   0  0  0  0  0  0  0  0  0  0  0  0
    0.2752   -0.2716   -1.9798 C   0  0  0  0  0  0  0  0  0  0  0  0
    1.6241   -0.6258   -1.7207 C   0  0  0  0  0  0  0  0  0  0  0  0
    2.7225    0.2418   -1.2851 C   0  0  0  0  0  0  0  0  0  0  0  0
    3.7933    0.2636   -1.8918 O   0  0  0  0  0  0  0  0  0  0  0  0
    2.4918    1.0830   -0.1898 N   0  0  0  0  0  0  0  0  0  0  0  0
    1.3649    0.9616    0.7293 C   0  0  0  0  0  0  0  0  0  0  0  0
    3.5427    2.0363    0.1671 C   0  0  0  0  0  0  0  0  0  0  0  0
    4.5392    1.4074    1.1064 C   0  0  0  0  0  0  0  0  0  0  0  0
    4.2494    0.9508    2.3138 N   0  0  0  0  0  0  0  0  0  0  0  0
    5.3893    0.4505    2.9114 C   0  0  0  0  0  0  0  0  0  0  0  0
    6.5399    0.5323    2.1578 C   0  0  0  0  0  0  0  0  0  0  0  0
    6.1957    1.2708    0.6496 S   0  0  0  0  0  0  0  0  0  0  0  0
    1.8170   -1.9348   -1.9553 N   0  0  0  0  0  0  0  0  0  0  0  0
    0.5850   -2.4485   -2.3105 O   0  0  0  0  0  0  0  0  0  0  0  0
   -2.6364   -1.3886    0.0313 C   0  0  0  0  0  0  0  0  0  0  0  0
   -3.3871   -2.7499    2.6307 H   0  0  0  0  0  0  0  0  0  0  0  0
   -2.5928   -1.3582    3.4122 H   0  0  0  0  0  0  0  0  0  0  0  0
   -1.6697   -2.3913    2.3224 H   0  0  0  0  0  0  0  0  0  0  0  0
   -4.2567    0.2607    2.5340 H   0  0  0  0  0  0  0  0  0  0  0  0
   -4.9363    1.6687    0.6413 H   0  0  0  0  0  0  0  0  0  0  0  0
   -3.3823    1.8287   -2.4817 H   0  0  0  0  0  0  0  0  0  0  0  0
   -4.8636    0.8507   -2.7039 H   0  0  0  0  0  0  0  0  0  0  0  0
   -4.8706    2.2591   -1.6334 H   0  0  0  0  0  0  0  0  0  0  0  0
   -2.0310   -2.7926   -2.2146 H   0  0  0  0  0  0  0  0  0  0  0  0
   -1.7795   -1.9882   -3.7575 H   0  0  0  0  0  0  0  0  0  0  0  0
   -0.1865    0.7019   -1.9053 H   0  0  0  0  0  0  0  0  0  0  0  0
    0.9065   -0.0288    0.6913 H   0  0  0  0  0  0  0  0  0  0  0  0
    0.6219    1.7212    0.4585 H   0  0  0  0  0  0  0  0  0  0  0  0
    1.6907    1.1365    1.7572 H   0  0  0  0  0  0  0  0  0  0  0  0
    4.0268    2.4050   -0.7429 H   0  0  0  0  0  0  0  0  0  0  0  0
    3.0735    2.8993    0.6545 H   0  0  0  0  0  0  0  0  0  0  0  0
    5.3247    0.0285    3.9079 H   0  0  0  0  0  0  0  0  0  0  0  0
    7.5359    0.2022    2.4119 H   0  0  0  0  0  0  0  0  0  0  0  0
   -1.9988   -2.2570   -0.0990 H   0  0  0  0  0  0  0  0  0  0  0  0
  1  2  1  0
  2  3  2  0
  3  4  1  0
  4  5  2  0
  5  6  1  0
  5  7  1  0
  7  8  1  0
  8  9  1  0
  9 10  1  0
 10 11  2  0
 11 12  1  0
 12 13  1  0
 13 14  2  0
 13 15  1  0
 15 16  1  0
 15 17  1  0
 17 18  1  0
 18 19  2  0
 19 20  1  0
 20 21  2  0
 21 22  1  0
 12 23  2  0
 23 24  1  0
  7 25  2  0
 25  2  1  0
 24 10  1  0
 22 18  1  0
  1 26  1  0
  1 27  1  0
  1 28  1  0
  3 29  1  0
  4 30  1  0
  6 31  1  0
  6 32  1  0
  6 33  1  0
  9 34  1  0
  9 35  1  0
 11 36  1  0
 16 37  1  0
 16 38  1  0
 16 39  1  0
 17 40  1  0
 17 41  1  0
 20 42  1  0
 21 43  1  0
 25 44  1  0
M  END
$$$$
