
     RDKit          3D

 50 52  0  0  0  0  0  0  0  0999 V2000
   -6.0461   -1.8261   -0.3699 O   0  0  0  0  0  0  0  0  0  0  0  0
   -4.9739   -1.2984   -0.0860 C   0  0  0  0  0  0  0  0  0  0  0  0
   -4.5578   -1.0283    1.3624 C   0  0  0  0  0  0  0  0  0  0  0  0
   -3.1819   -0.6710    1.5234 O   0  0  0  0  0  0  0  0  0  0  0  0
   -2.3277   -1.7234    1.5740 C   0  0  0  0  0  0  0  0  0  0  0  0
   -2.6357   -2.8992    1.4760 O   0  0  0  0  0  0  0  0  0  0  0  0
   -0.9254   -1.2529    1.7444 C   0  0  0  0  0  0  0  0  0  0  0  0
   -0.5976    0.1057    1.8743 C   0  0  0  0  0  0  0  0  0  0  0  0
    0.7360    0.4946    2.0263 C   0  0  0  0  0  0  0  0  0  0  0  0
    1.7418   -0.4769    2.0445 C   0  0  0  0  0  0  0  0  0  0  0  0
    3.4318    0.0398    2.2515 S   0  0  0  0  0  6  0  0  0  0  0  0
    4.2665   -1.1417    2.2736 O   0  0  0  0  0  0  0  0  0  0  0  0
    3.4425    0.9858    3.3469 O   0  0  0  0  0  0  0  0  0  0  0  0
    3.7362    0.8841    0.8043 N   0  0  0  0  0  0  0  0  0  0  0  0
    3.6910    0.1251   -0.4716 C   0  0  0  0  0  0  0  0  0  0  0  0
    5.0208   -0.5519   -0.7881 C   0  0  0  0  0  0  0  0  0  0  0  0
    6.1862    0.4299   -0.7257 C   0  0  0  0  0  0  0  0  0  0  0  0
    6.1938    1.1836    0.6001 C   0  0  0  0  0  0  0  0  0  0  0  0
    4.8529    1.8623    0.8479 C   0  0  0  0  0  0  0  0  0  0  0  0
    1.4291   -1.8331    1.9275 C   0  0  0  0  0  0  0  0  0  0  0  0
    0.0946   -2.2174    1.7741 C   0  0  0  0  0  0  0  0  0  0  0  0
   -4.0764   -0.8505   -1.0295 N   0  0  0  0  0  0  0  0  0  0  0  0
   -4.3793   -0.8700   -2.4404 C   0  0  0  0  0  0  0  0  0  0  0  0
   -4.8971    0.4659   -2.8218 C   0  0  0  0  0  0  0  0  0  0  0  0
   -6.1685    0.9806   -2.9688 C   0  0  0  0  0  0  0  0  0  0  0  0
   -6.0095    2.3361   -3.3429 C   0  0  0  0  0  0  0  0  0  0  0  0
   -4.6544    2.5632   -3.3957 C   0  0  0  0  0  0  0  0  0  0  0  0
   -3.9689    1.4350   -3.0761 O   0  0  0  0  0  0  0  0  0  0  0  0
   -4.8147   -1.8953    1.9822 H   0  0  0  0  0  0  0  0  0  0  0  0
   -5.1524   -0.1799    1.7172 H   0  0  0  0  0  0  0  0  0  0  0  0
   -1.3680    0.8732    1.8670 H   0  0  0  0  0  0  0  0  0  0  0  0
    0.9878    1.5481    2.1348 H   0  0  0  0  0  0  0  0  0  0  0  0
    3.4344    0.8312   -1.2715 H   0  0  0  0  0  0  0  0  0  0  0  0
    2.8860   -0.6155   -0.4588 H   0  0  0  0  0  0  0  0  0  0  0  0
    5.2040   -1.3733   -0.0871 H   0  0  0  0  0  0  0  0  0  0  0  0
    4.9735   -1.0009   -1.7868 H   0  0  0  0  0  0  0  0  0  0  0  0
    7.1327   -0.1063   -0.8561 H   0  0  0  0  0  0  0  0  0  0  0  0
    6.1060    1.1454   -1.5534 H   0  0  0  0  0  0  0  0  0  0  0  0
    6.9910    1.9353    0.5902 H   0  0  0  0  0  0  0  0  0  0  0  0
    6.4207    0.4874    1.4161 H   0  0  0  0  0  0  0  0  0  0  0  0
    4.8660    2.3979    1.8025 H   0  0  0  0  0  0  0  0  0  0  0  0
    4.6678    2.6244    0.0805 H   0  0  0  0  0  0  0  0  0  0  0  0
    2.2088   -2.5916    1.9574 H   0  0  0  0  0  0  0  0  0  0  0  0
   -0.1483   -3.2756    1.6822 H   0  0  0  0  0  0  0  0  0  0  0  0
   -3.3341   -0.2357   -0.7219 H   0  0  0  0  0  0  0  0  0  0  0  0
   -5.1069   -1.6548   -2.6696 H   0  0  0  0  0  0  0  0  0  0  0  0
   -3.4499   -1.0904   -2.9747 H   0  0  0  0  0  0  0  0  0  0  0  0
   -7.0921    0.4380   -2.8165 H   0  0  0  0  0  0  0  0  0  0  0  0
   -6.7864    3.0596   -3.5464 H   0  0  0  0  0  0  0  0  0  0  0  0
   -4.0489    3.4275   -3.6302 H   0  0  0  0  0  0  0  0  0  0  0  0
  1  2  2  0
  2  3  1  0
  3  4  1  0
  4  5  1  0
  5  6  2  0
  5  7  1  0
  7  8  2  0
  8  9  1  0
  9 10  2  0
 10 11  1  0
 11 12  2  0
 11 13  2  0
 11 14  1  0
 14 15  1  0
 15 16  1  0
 16 17  1  0
 17 18  1  0
 18 19  1  0
 10 20  1  0
 20 21  2  0
  2 22  1  0
 22 23  1  0
 23 24  1  0
 24 25  2  0
 25 26  1  0
 26 27  2  0
 27 28  1  0
 21  7  1  0
 28 24  1  0
 19 14  1  0
  3 29  1  0
  3 30  1  0
  8 31  1  0
  9 32  1  0
 15 33  1  0
 15 34  1  0
 16 35  1  0
 16 36  1  0
 17 37  1  0
 17 38  1  0
 18 39  1  0
 18 40  1  0
 19 41  1  0
 19 42  1  0
 20 43  1  0
 21 44  1  0
 22 45  1  0
 23 46  1  0
 23 47  1  0
 25 48  1  0
 26 49  1  0
 27 50  1  0
M  END
$$$$
