
     RDKit          3D

 71 76  0  0  0  0  0  0  0  0999 V2000
   -4.0632   -3.8863    3.4699 C   0  0  0  0  0  0  0  0  0  0  0  0
   -3.1857   -2.9477    2.8619 O   0  0  0  0  0  0  0  0  0  0  0  0
   -3.0643   -2.9975    1.4998 C   0  0  0  0  0  0  0  0  0  0  0  0
   -3.6973   -3.9280    0.6534 C   0  0  0  0  0  0  0  0  0  0  0  0
   -3.5030   -3.8898   -0.7331 C   0  0  0  0  0  0  0  0  0  0  0  0
   -2.6760   -2.9088   -1.2344 C   0  0  0  0  0  0  0  0  0  0  0  0
   -2.0435   -1.9730   -0.4142 C   0  0  0  0  0  0  0  0  0  0  0  0
   -2.2263   -2.0144    0.9595 C   0  0  0  0  0  0  0  0  0  0  0  0
   -1.2360   -1.0479   -1.2725 C   0  0  1  0  0  0  0  0  0  0  0  0
   -1.4707   -1.6090   -2.7034 C   0  0  0  0  0  0  0  0  0  0  0  0
   -0.9954   -1.2306   -3.7634 O   0  0  0  0  0  0  0  0  0  0  0  0
   -2.3455   -2.6921   -2.5657 N   0  0  0  0  0  0  0  0  0  0  0  0
   -1.7352    0.3426   -1.0983 C   0  0  0  0  0  0  0  0  0  0  0  0
   -0.6448    1.2412   -1.0853 C   0  0  0  0  0  0  0  0  0  0  0  0
   -1.1257    2.5128   -0.9367 C   0  0  0  0  0  0  0  0  0  0  0  0
   -0.5291    3.6973   -0.9012 O   0  0  0  0  0  0  0  0  0  0  0  0
   -2.5038    2.3945   -0.8155 N   0  0  0  0  0  0  0  0  0  0  0  0
   -3.4215    3.5116   -0.6297 C   0  0  0  0  0  0  0  0  0  0  0  0
   -3.6727    3.7924    0.8324 C   0  0  0  0  0  0  0  0  0  0  0  0
   -4.7304    3.1661    1.5078 C   0  0  0  0  0  0  0  0  0  0  0  0
   -4.9561    3.4180    2.8619 C   0  0  0  0  0  0  0  0  0  0  0  0
   -4.1252    4.2948    3.5566 C   0  0  0  0  0  0  0  0  0  0  0  0
   -3.0654    4.9167    2.8993 C   0  0  0  0  0  0  0  0  0  0  0  0
   -2.8383    4.6657    1.5452 C   0  0  0  0  0  0  0  0  0  0  0  0
   -2.8885    1.0660   -0.9384 C   0  0  0  0  0  0  0  0  0  0  0  0
   -4.1652    0.7081   -0.8741 O   0  0  0  0  0  0  0  0  0  0  0  0
    0.6151    0.4983   -1.2921 C   0  0  1  0  0  0  0  0  0  0  0  0
    1.8431    0.8785   -0.4751 C   0  0  0  0  0  0  0  0  0  0  0  0
    2.9176   -0.1110   -0.6666 N   0  0  0  0  0  0  0  0  0  0  0  0
    4.2201    0.3010   -0.4435 C   0  0  0  0  0  0  0  0  0  0  0  0
    4.5379    1.4732   -0.2890 O   0  0  0  0  0  0  0  0  0  0  0  0
    5.0903   -0.7405   -0.4241 O   0  0  0  0  0  0  0  0  0  0  0  0
    6.5098   -0.5261   -0.2163 C   0  0  0  0  0  0  0  0  0  0  0  0
    6.7874    0.0811    1.1633 C   0  0  0  0  0  0  0  0  0  0  0  0
    7.1256   -1.9330   -0.2638 C   0  0  0  0  0  0  0  0  0  0  0  0
    7.1181    0.3119   -1.3462 C   0  0  0  0  0  0  0  0  0  0  0  0
    2.5270   -1.5325   -0.5911 C   0  0  0  0  0  0  0  0  0  0  0  0
    1.1800   -1.8573   -1.2905 C   0  0  0  0  0  0  0  0  0  0  0  0
    0.1831   -0.8797   -0.8890 N   0  0  0  0  0  0  0  0  0  0  0  0
   -5.0898   -3.7576    3.1109 H   0  0  0  0  0  0  0  0  0  0  0  0
   -4.0608   -3.6965    4.5476 H   0  0  0  0  0  0  0  0  0  0  0  0
   -3.7143   -4.9118    3.3113 H   0  0  0  0  0  0  0  0  0  0  0  0
   -4.3481   -4.7005    1.0515 H   0  0  0  0  0  0  0  0  0  0  0  0
   -3.9896   -4.6116   -1.3796 H   0  0  0  0  0  0  0  0  0  0  0  0
   -1.7348   -1.2906    1.6045 H   0  0  0  0  0  0  0  0  0  0  0  0
   -2.6593   -3.2395   -3.3532 H   0  0  0  0  0  0  0  0  0  0  0  0
    0.4286    3.5531   -0.9965 H   0  0  0  0  0  0  0  0  0  0  0  0
   -3.0020    4.3916   -1.1310 H   0  0  0  0  0  0  0  0  0  0  0  0
   -4.3573    3.2782   -1.1511 H   0  0  0  0  0  0  0  0  0  0  0  0
   -5.3790    2.4698    0.9799 H   0  0  0  0  0  0  0  0  0  0  0  0
   -5.7776    2.9254    3.3747 H   0  0  0  0  0  0  0  0  0  0  0  0
   -4.2990    4.4884    4.6115 H   0  0  0  0  0  0  0  0  0  0  0  0
   -2.4110    5.5936    3.4417 H   0  0  0  0  0  0  0  0  0  0  0  0
   -1.9997    5.1479    1.0466 H   0  0  0  0  0  0  0  0  0  0  0  0
   -4.1945   -0.2650   -0.8417 H   0  0  0  0  0  0  0  0  0  0  0  0
    0.8604    0.5179   -2.3641 H   0  0  0  0  0  0  0  0  0  0  0  0
    2.1955    1.8751   -0.7638 H   0  0  0  0  0  0  0  0  0  0  0  0
    1.6195    0.9154    0.5992 H   0  0  0  0  0  0  0  0  0  0  0  0
    7.8591    0.0835    1.3889 H   0  0  0  0  0  0  0  0  0  0  0  0
    6.2664   -0.4795    1.9478 H   0  0  0  0  0  0  0  0  0  0  0  0
    6.4385    1.1159    1.2324 H   0  0  0  0  0  0  0  0  0  0  0  0
    6.9158   -2.4175   -1.2245 H   0  0  0  0  0  0  0  0  0  0  0  0
    8.2107   -1.9084   -0.1184 H   0  0  0  0  0  0  0  0  0  0  0  0
    6.6876   -2.5762    0.5085 H   0  0  0  0  0  0  0  0  0  0  0  0
    6.7774    1.3509   -1.3140 H   0  0  0  0  0  0  0  0  0  0  0  0
    8.2125    0.3252   -1.2889 H   0  0  0  0  0  0  0  0  0  0  0  0
    6.8256   -0.0850   -2.3251 H   0  0  0  0  0  0  0  0  0  0  0  0
    2.4587   -1.7794    0.4758 H   0  0  0  0  0  0  0  0  0  0  0  0
    3.3128   -2.1604   -1.0234 H   0  0  0  0  0  0  0  0  0  0  0  0
    0.8737   -2.8693   -1.0039 H   0  0  0  0  0  0  0  0  0  0  0  0
    1.3280   -1.8492   -2.3769 H   0  0  0  0  0  0  0  0  0  0  0  0
  1  2  1  0
  2  3  1  0
  3  4  2  0
  4  5  1  0
  5  6  2  0
  6  7  1  0
  7  8  2  0
  7  9  1  0
  9 10  1  0
 10 11  2  0
 10 12  1  0
  9 13  1  0
 13 14  1  0
 14 15  2  0
 15 16  1  0
 15 17  1  0
 17 18  1  0
 18 19  1  0
 19 20  2  0
 20 21  1  0
 21 22  2  0
 22 23  1  0
 23 24  2  0
 17 25  1  0
 25 26  1  0
 14 27  1  0
 27 28  1  0
 28 29  1  0
 29 30  1  0
 30 31  2  0
 30 32  1  0
 32 33  1  0
 33 34  1  0
 33 35  1  0
 33 36  1  0
 29 37  1  0
 37 38  1  0
 38 39  1  0
  8  3  1  0
  9 39  1  1
 12  6  1  0
 25 13  2  0
 39 27  1  0
 24 19  1  0
  1 40  1  0
  1 41  1  0
  1 42  1  0
  4 43  1  0
  5 44  1  0
  8 45  1  0
 12 46  1  0
 16 47  1  0
 18 48  1  0
 18 49  1  0
 20 50  1  0
 21 51  1  0
 22 52  1  0
 23 53  1  0
 24 54  1  0
 26 55  1  0
 27 56  1  6
 28 57  1  0
 28 58  1  0
 34 59  1  0
 34 60  1  0
 34 61  1  0
 35 62  1  0
 35 63  1  0
 35 64  1  0
 36 65  1  0
 36 66  1  0
 36 67  1  0
 37 68  1  0
 37 69  1  0
 38 70  1  0
 38 71  1  0
M  END
$$$$
