
     RDKit          3D

 49 52  0  0  0  0  0  0  0  0999 V2000
   -0.7945    2.7425    4.2964 C   0  0  0  0  0  0  0  0  0  0  0  0
   -0.6767    1.6995    3.1964 C   0  0  0  0  0  0  0  0  0  0  0  0
   -0.6437    2.3472    1.8131 C   0  0  0  0  0  0  0  0  0  0  0  0
   -0.4829    1.3097    0.7364 C   0  0  0  0  0  0  0  0  0  0  0  0
    0.7671    1.0338    0.3194 N   0  0  0  0  0  0  0  0  0  0  0  0
    0.9493    0.0735   -0.6112 C   0  0  0  0  0  0  0  0  0  0  0  0
    2.2560   -0.1948   -1.0283 N   0  0  0  0  0  0  0  0  0  0  0  0
    2.7187   -1.5953   -0.9152 C   0  0  0  0  0  0  0  0  0  0  0  0
    4.0898   -1.7083   -0.2028 C   0  0  0  0  0  0  0  0  0  0  0  0
    5.1666   -0.8478   -0.7335 N   0  0  0  0  0  0  0  0  0  0  0  0
    5.9527   -1.5299   -1.7574 C   0  0  0  0  0  0  0  0  0  0  0  0
    4.6302    0.4314   -1.2547 C   0  0  0  0  0  0  0  0  0  0  0  0
    3.2595    0.8225   -0.6592 C   0  0  0  0  0  0  0  0  0  0  0  0
   -0.1522   -0.5766   -1.1434 C   0  0  0  0  0  0  0  0  0  0  0  0
   -0.2709   -1.8221   -2.3862 S   0  0  0  0  0  0  0  0  0  0  0  0
   -2.0428   -1.8511   -2.2727 C   0  0  0  0  0  0  0  0  0  0  0  0
   -2.9359   -2.8069   -3.3162 S   0  0  0  0  0  0  0  0  0  0  0  0
   -2.4641   -0.9417   -1.2961 N   0  0  0  0  0  0  0  0  0  0  0  0
   -3.8086   -0.7115   -0.8789 C   0  0  0  0  0  0  0  0  0  0  0  0
   -4.3027    0.5897   -0.6938 C   0  0  0  0  0  0  0  0  0  0  0  0
   -5.6245    0.8112   -0.2939 C   0  0  0  0  0  0  0  0  0  0  0  0
   -6.4764   -0.2667   -0.0700 C   0  0  0  0  0  0  0  0  0  0  0  0
   -6.0054   -1.5642   -0.2431 C   0  0  0  0  0  0  0  0  0  0  0  0
   -4.6827   -1.7839   -0.6433 C   0  0  0  0  0  0  0  0  0  0  0  0
   -1.4025   -0.2116   -0.6791 C   0  0  0  0  0  0  0  0  0  0  0  0
   -1.5888    0.7076    0.2805 N   0  0  0  0  0  0  0  0  0  0  0  0
    0.0510    3.4360    4.2674 H   0  0  0  0  0  0  0  0  0  0  0  0
   -1.7194    3.3240    4.1929 H   0  0  0  0  0  0  0  0  0  0  0  0
   -0.8046    2.2578    5.2785 H   0  0  0  0  0  0  0  0  0  0  0  0
    0.2315    1.1058    3.3582 H   0  0  0  0  0  0  0  0  0  0  0  0
   -1.5239    1.0053    3.2680 H   0  0  0  0  0  0  0  0  0  0  0  0
    0.1847    3.0645    1.7493 H   0  0  0  0  0  0  0  0  0  0  0  0
   -1.5681    2.9105    1.6340 H   0  0  0  0  0  0  0  0  0  0  0  0
    2.0075   -2.2165   -0.3568 H   0  0  0  0  0  0  0  0  0  0  0  0
    2.8090   -2.0111   -1.9254 H   0  0  0  0  0  0  0  0  0  0  0  0
    3.9453   -1.4268    0.8488 H   0  0  0  0  0  0  0  0  0  0  0  0
    4.4050   -2.7589   -0.1764 H   0  0  0  0  0  0  0  0  0  0  0  0
    6.7544   -0.8781   -2.1264 H   0  0  0  0  0  0  0  0  0  0  0  0
    6.4398   -2.4189   -1.3390 H   0  0  0  0  0  0  0  0  0  0  0  0
    5.3396   -1.8427   -2.6102 H   0  0  0  0  0  0  0  0  0  0  0  0
    4.5134    0.3851   -2.3468 H   0  0  0  0  0  0  0  0  0  0  0  0
    5.3582    1.2232   -1.0418 H   0  0  0  0  0  0  0  0  0  0  0  0
    2.9696    1.7978   -1.0700 H   0  0  0  0  0  0  0  0  0  0  0  0
    3.3462    0.9227    0.4312 H   0  0  0  0  0  0  0  0  0  0  0  0
   -3.6745    1.4568   -0.8856 H   0  0  0  0  0  0  0  0  0  0  0  0
   -5.9866    1.8277   -0.1634 H   0  0  0  0  0  0  0  0  0  0  0  0
   -7.5041   -0.0960    0.2402 H   0  0  0  0  0  0  0  0  0  0  0  0
   -6.6642   -2.4107   -0.0618 H   0  0  0  0  0  0  0  0  0  0  0  0
   -4.3445   -2.8131   -0.7283 H   0  0  0  0  0  0  0  0  0  0  0  0
  1  2  1  0
  2  3  1  0
  3  4  1  0
  4  5  2  0
  5  6  1  0
  6  7  1  0
  7  8  1  0
  8  9  1  0
  9 10  1  0
 10 11  1  0
 10 12  1  0
 12 13  1  0
  6 14  2  0
 14 15  1  0
 15 16  1  0
 16 17  2  0
 16 18  1  0
 18 19  1  0
 19 20  2  0
 20 21  1  0
 21 22  2  0
 22 23  1  0
 23 24  2  0
 18 25  1  0
 25 26  2  0
 26  4  1  0
 13  7  1  0
 25 14  1  0
 24 19  1  0
  1 27  1  0
  1 28  1  0
  1 29  1  0
  2 30  1  0
  2 31  1  0
  3 32  1  0
  3 33  1  0
  8 34  1  0
  8 35  1  0
  9 36  1  0
  9 37  1  0
 11 38  1  0
 11 39  1  0
 11 40  1  0
 12 41  1  0
 12 42  1  0
 13 43  1  0
 13 44  1  0
 20 45  1  0
 21 46  1  0
 22 47  1  0
 23 48  1  0
 24 49  1  0
M  END
$$$$
