
     RDKit          3D

 37 38  0  0  0  0  0  0  0  0999 V2000
   -3.5528   -0.7889    1.6488 C   0  0  0  0  0  0  0  0  0  0  0  0
   -3.7905   -0.8245    0.1326 C   0  0  0  0  0  0  0  0  0  0  0  0
   -5.2959   -1.0018   -0.1129 C   0  0  0  0  0  0  0  0  0  0  0  0
   -3.2382    0.4553   -0.5510 C   0  0  0  0  0  0  0  0  0  0  0  0
   -3.3293    0.4204   -2.0817 C   0  0  0  0  0  0  0  0  0  0  0  0
   -2.4223    0.2167   -2.8732 O   0  0  0  0  0  0  0  0  0  0  0  0
   -4.5671    0.6942   -2.5439 O   0  0  0  0  0  0  0  0  0  0  0  0
   -1.8298    0.8006   -0.2276 N   0  0  0  0  0  0  0  0  0  0  0  0
   -0.8389   -0.1678   -0.3035 C   0  0  0  0  0  0  0  0  0  0  0  0
   -0.9972   -1.3567   -0.5441 O   0  0  0  0  0  0  0  0  0  0  0  0
    0.4997    0.4284   -0.0461 C   0  0  0  0  0  0  0  0  0  0  0  0
    1.6131   -0.3184   -0.0395 C   0  0  0  0  0  0  0  0  0  0  0  0
    2.9662    0.1474    0.1988 C   0  0  0  0  0  0  0  0  0  0  0  0
    4.0281   -0.6733    0.1823 C   0  0  0  0  0  0  0  0  0  0  0  0
    5.3418   -0.1816    0.4214 C   0  0  0  0  0  0  0  0  0  0  0  0
    6.5405   -0.8871    0.4324 C   0  0  0  0  0  0  0  0  0  0  0  0
    7.5839    0.0257    0.7160 C   0  0  0  0  0  0  0  0  0  0  0  0
    6.9801    1.2469    0.8661 C   0  0  0  0  0  0  0  0  0  0  0  0
    5.6414    1.1367    0.6930 O   0  0  0  0  0  0  0  0  0  0  0  0
    0.3534    2.1151    0.2134 S   0  0  0  0  0  0  0  0  0  0  0  0
   -1.3870    2.0966   -0.0354 C   0  0  0  0  0  0  0  0  0  0  0  0
   -2.2810    3.5067   -0.0113 S   0  0  0  0  0  0  0  0  0  0  0  0
   -4.0207    0.0927    2.1005 H   0  0  0  0  0  0  0  0  0  0  0  0
   -2.4869   -0.7692    1.8933 H   0  0  0  0  0  0  0  0  0  0  0  0
   -3.9758   -1.6779    2.1294 H   0  0  0  0  0  0  0  0  0  0  0  0
   -3.3050   -1.7171   -0.2755 H   0  0  0  0  0  0  0  0  0  0  0  0
   -5.6860   -1.8521    0.4575 H   0  0  0  0  0  0  0  0  0  0  0  0
   -5.5060   -1.2061   -1.1667 H   0  0  0  0  0  0  0  0  0  0  0  0
   -5.8572   -0.1102    0.1862 H   0  0  0  0  0  0  0  0  0  0  0  0
   -3.8673    1.2913   -0.2273 H   0  0  0  0  0  0  0  0  0  0  0  0
   -4.4719    0.6605   -3.5202 H   0  0  0  0  0  0  0  0  0  0  0  0
    1.5094   -1.3871   -0.2327 H   0  0  0  0  0  0  0  0  0  0  0  0
    3.1112    1.2082    0.3972 H   0  0  0  0  0  0  0  0  0  0  0  0
    3.9123   -1.7348   -0.0151 H   0  0  0  0  0  0  0  0  0  0  0  0
    6.6422   -1.9487    0.2530 H   0  0  0  0  0  0  0  0  0  0  0  0
    8.6411   -0.1816    0.7997 H   0  0  0  0  0  0  0  0  0  0  0  0
    7.3422    2.2414    1.0860 H   0  0  0  0  0  0  0  0  0  0  0  0
  1  2  1  0
  2  3  1  0
  2  4  1  0
  4  5  1  0
  5  6  2  0
  5  7  1  0
  4  8  1  0
  8  9  1  0
  9 10  2  0
  9 11  1  0
 11 12  2  3
 12 13  1  0
 13 14  2  3
 14 15  1  0
 15 16  2  0
 16 17  1  0
 17 18  2  0
 18 19  1  0
 11 20  1  0
 20 21  1  0
 21 22  2  0
 21  8  1  0
 19 15  1  0
  1 23  1  0
  1 24  1  0
  1 25  1  0
  2 26  1  0
  3 27  1  0
  3 28  1  0
  3 29  1  0
  4 30  1  0
  7 31  1  0
 12 32  1  0
 13 33  1  0
 14 34  1  0
 16 35  1  0
 17 36  1  0
 18 37  1  0
M  END
$$$$
