
     RDKit          3D

 36 38  0  0  0  0  0  0  0  0999 V2000
   -0.7134   -2.6411    2.6725 O   0  0  0  0  0  0  0  0  0  0  0  0
   -0.3601   -1.9046    1.7567 C   0  0  0  0  0  0  0  0  0  0  0  0
   -1.1113   -1.6081    0.6412 N   0  0  0  0  0  0  0  0  0  0  0  0
   -2.1710   -2.5099    0.3696 O   0  0  0  0  0  0  0  0  0  0  0  0
   -3.4157   -1.8729    0.6834 C   0  0  0  0  0  0  0  0  0  0  0  0
   -3.8082   -0.8896   -0.3927 C   0  0  0  0  0  0  0  0  0  0  0  0
   -3.9892    0.4671   -0.0906 C   0  0  0  0  0  0  0  0  0  0  0  0
   -4.3525    1.3714   -1.0901 C   0  0  0  0  0  0  0  0  0  0  0  0
   -4.5388    0.9292   -2.3987 C   0  0  0  0  0  0  0  0  0  0  0  0
   -4.3617   -0.4175   -2.7105 C   0  0  0  0  0  0  0  0  0  0  0  0
   -3.9984   -1.3231   -1.7129 C   0  0  0  0  0  0  0  0  0  0  0  0
    0.9370   -1.2475    1.7331 C   0  0  0  0  0  0  0  0  0  0  0  0
    1.9071   -1.3172    2.7040 C   0  0  0  0  0  0  0  0  0  0  0  0
    2.9685   -0.5674    2.3005 O   0  0  0  0  0  0  0  0  0  0  0  0
    2.5919   -0.0683    1.0790 C   0  0  0  0  0  0  0  0  0  0  0  0
    3.5525    0.7921    0.3926 C   0  0  0  0  0  0  0  0  0  0  0  0
    3.2214    1.3448   -0.8544 C   0  0  0  0  0  0  0  0  0  0  0  0
    4.1205    2.1711   -1.5338 C   0  0  0  0  0  0  0  0  0  0  0  0
    5.3638    2.4558   -0.9741 C   0  0  0  0  0  0  0  0  0  0  0  0
    5.7089    1.9158    0.2629 C   0  0  0  0  0  0  0  0  0  0  0  0
    4.8091    1.0893    0.9422 C   0  0  0  0  0  0  0  0  0  0  0  0
    1.3861   -0.4476    0.6923 N   0  0  0  0  0  0  0  0  0  0  0  0
   -0.6204   -1.2422   -0.1707 H   0  0  0  0  0  0  0  0  0  0  0  0
   -4.1819   -2.6537    0.7478 H   0  0  0  0  0  0  0  0  0  0  0  0
   -3.3612   -1.4006    1.6723 H   0  0  0  0  0  0  0  0  0  0  0  0
   -3.8456    0.8291    0.9250 H   0  0  0  0  0  0  0  0  0  0  0  0
   -4.4904    2.4220   -0.8475 H   0  0  0  0  0  0  0  0  0  0  0  0
   -4.8222    1.6342   -3.1757 H   0  0  0  0  0  0  0  0  0  0  0  0
   -4.5060   -0.7632   -3.7308 H   0  0  0  0  0  0  0  0  0  0  0  0
   -3.8587   -2.3720   -1.9673 H   0  0  0  0  0  0  0  0  0  0  0  0
    1.9931   -1.8138    3.6597 H   0  0  0  0  0  0  0  0  0  0  0  0
    2.2536    1.1327   -1.3057 H   0  0  0  0  0  0  0  0  0  0  0  0
    3.8486    2.5912   -2.4989 H   0  0  0  0  0  0  0  0  0  0  0  0
    6.0640    3.0984   -1.5019 H   0  0  0  0  0  0  0  0  0  0  0  0
    6.6791    2.1369    0.7011 H   0  0  0  0  0  0  0  0  0  0  0  0
    5.1017    0.6792    1.9067 H   0  0  0  0  0  0  0  0  0  0  0  0
  1  2  2  0
  2  3  1  0
  3  4  1  0
  4  5  1  0
  5  6  1  0
  6  7  2  0
  7  8  1  0
  8  9  2  0
  9 10  1  0
 10 11  2  0
  2 12  1  0
 12 13  2  0
 13 14  1  0
 14 15  1  0
 15 16  1  0
 16 17  2  0
 17 18  1  0
 18 19  2  0
 19 20  1  0
 20 21  2  0
 15 22  2  0
 11  6  1  0
 22 12  1  0
 21 16  1  0
  3 23  1  0
  5 24  1  0
  5 25  1  0
  7 26  1  0
  8 27  1  0
  9 28  1  0
 10 29  1  0
 11 30  1  0
 13 31  1  0
 17 32  1  0
 18 33  1  0
 19 34  1  0
 20 35  1  0
 21 36  1  0
M  END
$$$$
