
     RDKit          3D

 41 43  0  0  0  0  0  0  0  0999 V2000
    2.6826   -2.9221    0.5435 Cl  0  0  0  0  0  0  0  0  0  0  0  0
    3.7133   -1.9070   -0.4041 C   0  0  0  0  0  0  0  0  0  0  0  0
    4.8050   -2.5144   -1.0338 C   0  0  0  0  0  0  0  0  0  0  0  0
    5.6857   -1.7563   -1.8036 C   0  0  0  0  0  0  0  0  0  0  0  0
    5.4778   -0.3880   -1.9461 C   0  0  0  0  0  0  0  0  0  0  0  0
    4.3894    0.2218   -1.3196 C   0  0  0  0  0  0  0  0  0  0  0  0
    3.4873   -0.5268   -0.5383 C   0  0  0  0  0  0  0  0  0  0  0  0
    2.3221    0.1823    0.1067 C   0  0  0  0  0  0  0  0  0  0  0  0
    1.0262    0.6956   -1.0610 S   0  0  0  0  0  0  0  0  0  0  0  0
    0.4606   -0.8433   -1.6083 C   0  0  0  0  0  0  0  0  0  0  0  0
    0.8810   -1.4960   -2.6683 N   0  0  0  0  0  0  0  0  0  0  0  0
    0.2074   -2.7009   -2.7083 N   0  0  0  0  0  0  0  0  0  0  0  0
   -0.6044   -2.7366   -1.6740 C   0  0  0  0  0  0  0  0  0  0  0  0
   -0.5167   -1.5681   -0.9728 N   0  0  0  0  0  0  0  0  0  0  0  0
   -1.2541   -1.2316    0.2146 N   0  0  0  0  0  0  0  0  0  0  0  0
   -2.6447   -0.8820   -0.0794 C   0  0  0  0  0  0  0  0  0  0  0  0
   -2.7789    0.3693   -0.8985 C   0  0  0  0  0  0  0  0  0  0  0  0
   -3.0335    1.6094   -0.4502 C   0  0  0  0  0  0  0  0  0  0  0  0
   -3.1771    1.9632    0.9609 C   0  0  0  0  0  0  0  0  0  0  0  0
   -4.4122    1.8332    1.6032 C   0  0  0  0  0  0  0  0  0  0  0  0
   -4.5366    2.1599    2.9546 C   0  0  0  0  0  0  0  0  0  0  0  0
   -3.4292    2.6207    3.6665 C   0  0  0  0  0  0  0  0  0  0  0  0
   -2.1956    2.7524    3.0299 C   0  0  0  0  0  0  0  0  0  0  0  0
   -2.0688    2.4245    1.6789 C   0  0  0  0  0  0  0  0  0  0  0  0
    4.9715   -3.5837   -0.9323 H   0  0  0  0  0  0  0  0  0  0  0  0
    6.5281   -2.2344   -2.2963 H   0  0  0  0  0  0  0  0  0  0  0  0
    6.1579    0.2052   -2.5530 H   0  0  0  0  0  0  0  0  0  0  0  0
    4.2395    1.2918   -1.4560 H   0  0  0  0  0  0  0  0  0  0  0  0
    2.7005    1.0897    0.5938 H   0  0  0  0  0  0  0  0  0  0  0  0
    1.8677   -0.4001    0.9127 H   0  0  0  0  0  0  0  0  0  0  0  0
   -1.2608   -3.5475   -1.3974 H   0  0  0  0  0  0  0  0  0  0  0  0
   -0.8331   -0.4359    0.6931 H   0  0  0  0  0  0  0  0  0  0  0  0
   -3.1516   -1.7061   -0.5967 H   0  0  0  0  0  0  0  0  0  0  0  0
   -3.1719   -0.7812    0.8757 H   0  0  0  0  0  0  0  0  0  0  0  0
   -2.6734    0.2401   -1.9754 H   0  0  0  0  0  0  0  0  0  0  0  0
   -3.1133    2.4382   -1.1503 H   0  0  0  0  0  0  0  0  0  0  0  0
   -5.2821    1.4764    1.0569 H   0  0  0  0  0  0  0  0  0  0  0  0
   -5.4980    2.0574    3.4515 H   0  0  0  0  0  0  0  0  0  0  0  0
   -3.5283    2.8776    4.7183 H   0  0  0  0  0  0  0  0  0  0  0  0
   -1.3344    3.1150    3.5847 H   0  0  0  0  0  0  0  0  0  0  0  0
   -1.1045    2.5379    1.1892 H   0  0  0  0  0  0  0  0  0  0  0  0
  1  2  1  0
  2  3  2  0
  3  4  1  0
  4  5  2  0
  5  6  1  0
  6  7  2  0
  7  8  1  0
  8  9  1  0
  9 10  1  0
 10 11  2  0
 11 12  1  0
 12 13  2  0
 13 14  1  0
 14 15  1  0
 15 16  1  0
 16 17  1  0
 17 18  2  3
 18 19  1  0
 19 20  2  0
 20 21  1  0
 21 22  2  0
 22 23  1  0
 23 24  2  0
  7  2  1  0
 14 10  1  0
 24 19  1  0
  3 25  1  0
  4 26  1  0
  5 27  1  0
  6 28  1  0
  8 29  1  0
  8 30  1  0
 13 31  1  0
 15 32  1  0
 16 33  1  0
 16 34  1  0
 17 35  1  0
 18 36  1  0
 20 37  1  0
 21 38  1  0
 22 39  1  0
 23 40  1  0
 24 41  1  0
M  END
$$$$
