
     RDKit          3D

 71 74  0  0  0  0  0  0  0  0999 V2000
   -5.1957    2.1030    2.1046 C   0  0  0  0  0  0  0  0  0  0  0  0
   -5.6507    0.8800    2.8928 C   0  0  0  0  0  0  0  0  0  0  0  0
   -6.0336   -0.3164    1.9929 C   0  0  0  0  0  0  0  0  0  0  0  0
   -6.6839   -1.4334    2.8283 C   0  0  0  0  0  0  0  0  0  0  0  0
   -7.3350   -2.5004    1.9433 C   0  0  0  0  0  0  0  0  0  0  0  0
   -6.8685   -2.4170    0.4926 C   0  0  0  0  0  0  0  0  0  0  0  0
   -5.3748   -2.1041    0.4241 C   0  0  0  0  0  0  0  0  0  0  0  0
   -4.9726   -0.8523    1.1053 N   0  0  0  0  0  0  0  0  0  0  0  0
   -3.6469   -1.0048    1.7317 C   0  0  0  0  0  0  0  0  0  0  0  0
   -2.5131   -1.2672    0.7271 C   0  0  0  0  0  0  0  0  0  0  0  0
   -2.3222   -0.1067   -0.2454 C   0  0  0  0  0  0  0  0  0  0  0  0
   -1.1962   -0.3528   -1.1280 N   0  0  0  0  0  0  0  0  0  0  0  0
   -0.4999    0.6930   -1.7016 C   0  0  0  0  0  0  0  0  0  0  0  0
   -0.7351    1.8754   -1.4611 O   0  0  0  0  0  0  0  0  0  0  0  0
    0.5117    0.2847   -2.7749 C   0  0  0  0  0  0  0  0  0  0  0  0
    1.3337   -0.8681   -2.4030 N   0  0  0  0  0  0  0  0  0  0  0  0
    0.9025   -2.1312   -2.7782 C   0  0  0  0  0  0  0  0  0  0  0  0
   -0.1998   -2.3418   -3.2828 O   0  0  0  0  0  0  0  0  0  0  0  0
    1.9211   -3.2417   -2.5745 C   0  0  0  0  0  0  0  0  0  0  0  0
    2.7652   -3.1675   -1.4436 O   0  0  0  0  0  0  0  0  0  0  0  0
    3.1435   -1.8926   -1.1200 C   0  0  0  0  0  0  0  0  0  0  0  0
    4.2359   -1.8123   -0.2492 C   0  0  0  0  0  0  0  0  0  0  0  0
    4.6925   -0.5737    0.1873 C   0  0  0  0  0  0  0  0  0  0  0  0
    4.0420    0.5803   -0.2500 C   0  0  0  0  0  0  0  0  0  0  0  0
    4.6240    2.1543    0.3345 S   0  0  0  0  0  6  0  0  0  0  0  0
    4.6889    2.0697    1.7777 O   0  0  0  0  0  0  0  0  0  0  0  0
    3.8777    3.1993   -0.3334 O   0  0  0  0  0  0  0  0  0  0  0  0
    6.2224    2.2042   -0.2679 N   0  0  0  0  0  0  0  0  0  0  0  0
    6.3349    2.3037   -1.7602 C   0  0  0  0  0  0  0  0  0  0  0  0
    7.8112    2.2190   -2.1634 C   0  0  0  0  0  0  0  0  0  0  0  0
    8.5777    3.2676   -1.5519 O   0  0  0  0  0  0  0  0  0  0  0  0
    8.4968    3.1791   -0.1217 C   0  0  0  0  0  0  0  0  0  0  0  0
    7.0472    3.2859    0.3663 C   0  0  0  0  0  0  0  0  0  0  0  0
    2.9364    0.5096   -1.1094 C   0  0  0  0  0  0  0  0  0  0  0  0
    2.4753   -0.7357   -1.5609 C   0  0  0  0  0  0  0  0  0  0  0  0
   -4.9839    2.9314    2.7876 H   0  0  0  0  0  0  0  0  0  0  0  0
   -4.2884    1.9068    1.5278 H   0  0  0  0  0  0  0  0  0  0  0  0
   -5.9768    2.4315    1.4119 H   0  0  0  0  0  0  0  0  0  0  0  0
   -4.8876    0.5971    3.6269 H   0  0  0  0  0  0  0  0  0  0  0  0
   -6.5318    1.1750    3.4781 H   0  0  0  0  0  0  0  0  0  0  0  0
   -6.8144    0.0817    1.3284 H   0  0  0  0  0  0  0  0  0  0  0  0
   -7.4463   -1.0208    3.5009 H   0  0  0  0  0  0  0  0  0  0  0  0
   -5.9317   -1.9029    3.4760 H   0  0  0  0  0  0  0  0  0  0  0  0
   -8.4264   -2.3984    1.9740 H   0  0  0  0  0  0  0  0  0  0  0  0
   -7.1063   -3.4918    2.3548 H   0  0  0  0  0  0  0  0  0  0  0  0
   -7.4380   -1.6462   -0.0416 H   0  0  0  0  0  0  0  0  0  0  0  0
   -7.0785   -3.3642   -0.0170 H   0  0  0  0  0  0  0  0  0  0  0  0
   -5.0725   -2.0390   -0.6276 H   0  0  0  0  0  0  0  0  0  0  0  0
   -4.8512   -2.9685    0.8546 H   0  0  0  0  0  0  0  0  0  0  0  0
   -3.3612   -0.0986    2.2740 H   0  0  0  0  0  0  0  0  0  0  0  0
   -3.6655   -1.8131    2.4741 H   0  0  0  0  0  0  0  0  0  0  0  0
   -2.6792   -2.2005    0.1745 H   0  0  0  0  0  0  0  0  0  0  0  0
   -1.5819   -1.4170    1.2903 H   0  0  0  0  0  0  0  0  0  0  0  0
   -2.1546    0.8271    0.3035 H   0  0  0  0  0  0  0  0  0  0  0  0
   -3.2025    0.0297   -0.8824 H   0  0  0  0  0  0  0  0  0  0  0  0
   -1.2085   -1.2190   -1.6607 H   0  0  0  0  0  0  0  0  0  0  0  0
   -0.0610    0.0500   -3.6808 H   0  0  0  0  0  0  0  0  0  0  0  0
    1.1505    1.1348   -3.0334 H   0  0  0  0  0  0  0  0  0  0  0  0
    1.3679   -4.1850   -2.4986 H   0  0  0  0  0  0  0  0  0  0  0  0
    2.5420   -3.2990   -3.4775 H   0  0  0  0  0  0  0  0  0  0  0  0
    4.7233   -2.7218    0.0949 H   0  0  0  0  0  0  0  0  0  0  0  0
    5.5362   -0.5102    0.8711 H   0  0  0  0  0  0  0  0  0  0  0  0
    5.7886    1.4863   -2.2391 H   0  0  0  0  0  0  0  0  0  0  0  0
    5.9187    3.2626   -2.0923 H   0  0  0  0  0  0  0  0  0  0  0  0
    7.9091    2.3257   -3.2479 H   0  0  0  0  0  0  0  0  0  0  0  0
    8.2427    1.2506   -1.8826 H   0  0  0  0  0  0  0  0  0  0  0  0
    8.9534    2.2363    0.2021 H   0  0  0  0  0  0  0  0  0  0  0  0
    9.0909    3.9993    0.2939 H   0  0  0  0  0  0  0  0  0  0  0  0
    6.6325    4.2643    0.0947 H   0  0  0  0  0  0  0  0  0  0  0  0
    7.0340    3.1796    1.4553 H   0  0  0  0  0  0  0  0  0  0  0  0
    2.4458    1.4372   -1.3899 H   0  0  0  0  0  0  0  0  0  0  0  0
  1  2  1  0
  2  3  1  0
  3  4  1  0
  4  5  1  0
  5  6  1  0
  6  7  1  0
  7  8  1  0
  8  9  1  0
  9 10  1  0
 10 11  1  0
 11 12  1  0
 12 13  1  0
 13 14  2  0
 13 15  1  0
 15 16  1  0
 16 17  1  0
 17 18  2  0
 17 19  1  0
 19 20  1  0
 20 21  1  0
 21 22  2  0
 22 23  1  0
 23 24  2  0
 24 25  1  0
 25 26  2  0
 25 27  2  0
 25 28  1  0
 28 29  1  0
 29 30  1  0
 30 31  1  0
 31 32  1  0
 32 33  1  0
 24 34  1  0
 34 35  2  0
  8  3  1  0
 35 16  1  0
 35 21  1  0
 33 28  1  0
  1 36  1  0
  1 37  1  0
  1 38  1  0
  2 39  1  0
  2 40  1  0
  3 41  1  0
  4 42  1  0
  4 43  1  0
  5 44  1  0
  5 45  1  0
  6 46  1  0
  6 47  1  0
  7 48  1  0
  7 49  1  0
  9 50  1  0
  9 51  1  0
 10 52  1  0
 10 53  1  0
 11 54  1  0
 11 55  1  0
 12 56  1  0
 15 57  1  0
 15 58  1  0
 19 59  1  0
 19 60  1  0
 22 61  1  0
 23 62  1  0
 29 63  1  0
 29 64  1  0
 30 65  1  0
 30 66  1  0
 32 67  1  0
 32 68  1  0
 33 69  1  0
 33 70  1  0
 34 71  1  0
M  END
$$$$
