
     RDKit          3D

 50 53  0  0  0  0  0  0  0  0999 V2000
    0.4186   -3.5115    1.6623 O   0  0  0  0  0  0  0  0  0  0  0  0
    0.1082   -2.3751    1.3575 C   0  0  0  0  0  0  0  0  0  0  0  0
   -1.1105   -1.6417    1.8962 C   0  0  0  0  0  0  0  0  0  0  0  0
   -1.8790   -2.0938    2.7197 O   0  0  0  0  0  0  0  0  0  0  0  0
   -1.1621   -0.4195    1.2370 N   0  0  0  0  0  0  0  0  0  0  0  0
   -2.4308    0.3104    1.2078 C   0  0  0  0  0  0  0  0  0  0  0  0
   -3.3383   -0.0532    0.0112 C   0  0  0  0  0  0  0  0  0  0  0  0
   -4.7949    0.3081    0.2513 C   0  0  0  0  0  0  0  0  0  0  0  0
   -5.3383   -0.9446    0.8935 C   0  0  0  0  0  0  0  0  0  0  0  0
   -4.5720   -2.0351    0.1766 C   0  0  0  0  0  0  0  0  0  0  0  0
   -3.3135   -1.4745   -0.2246 O   0  0  0  0  0  0  0  0  0  0  0  0
   -0.2159   -0.4019    0.1210 C   0  0  0  0  0  0  0  0  0  0  0  0
    0.3107    0.9857   -0.2189 C   0  0  0  0  0  0  0  0  0  0  0  0
    0.5931    1.9005    0.8159 C   0  0  0  0  0  0  0  0  0  0  0  0
    1.0788    3.1836    0.5449 C   0  0  0  0  0  0  0  0  0  0  0  0
    1.2990    3.5910   -0.7681 C   0  0  0  0  0  0  0  0  0  0  0  0
    1.0425    2.7120   -1.8166 C   0  0  0  0  0  0  0  0  0  0  0  0
    0.5618    1.4220   -1.5383 C   0  0  0  0  0  0  0  0  0  0  0  0
    0.3476    0.5422   -2.6812 N   0  0  0  0  0  4  0  0  0  0  0  0
   -0.2998    0.9950   -3.6336 O   0  0  0  0  0  0  0  0  0  0  0  0
    0.8237   -0.5985   -2.6116 O   0  0  0  0  0  1  0  0  0  0  0  0
    0.8532   -1.4798    0.4200 C   0  0  0  0  0  0  0  0  0  0  0  0
    2.0986   -0.9306    1.0751 C   0  0  0  0  0  0  0  0  0  0  0  0
    2.1058   -0.5930    2.2586 O   0  0  0  0  0  0  0  0  0  0  0  0
    3.3197   -0.6942    0.2518 C   0  0  0  0  0  0  0  0  0  0  0  0
    3.6349   -1.4637   -0.8731 C   0  0  0  0  0  0  0  0  0  0  0  0
    4.7780   -1.1700   -1.6230 C   0  0  0  0  0  0  0  0  0  0  0  0
    5.6090   -0.1151   -1.2508 C   0  0  0  0  0  0  0  0  0  0  0  0
    5.3109    0.6430   -0.1203 C   0  0  0  0  0  0  0  0  0  0  0  0
    4.1714    0.3525    0.6317 C   0  0  0  0  0  0  0  0  0  0  0  0
   -2.9494    0.1009    2.1507 H   0  0  0  0  0  0  0  0  0  0  0  0
   -2.2213    1.3851    1.1995 H   0  0  0  0  0  0  0  0  0  0  0  0
   -2.9572    0.4412   -0.8892 H   0  0  0  0  0  0  0  0  0  0  0  0
   -5.2981    0.4674   -0.7106 H   0  0  0  0  0  0  0  0  0  0  0  0
   -4.9337    1.2074    0.8588 H   0  0  0  0  0  0  0  0  0  0  0  0
   -5.0947   -0.9561    1.9624 H   0  0  0  0  0  0  0  0  0  0  0  0
   -6.4215   -1.0520    0.7948 H   0  0  0  0  0  0  0  0  0  0  0  0
   -4.3989   -2.9119    0.8080 H   0  0  0  0  0  0  0  0  0  0  0  0
   -5.0958   -2.3564   -0.7305 H   0  0  0  0  0  0  0  0  0  0  0  0
   -0.8091   -0.7669   -0.7265 H   0  0  0  0  0  0  0  0  0  0  0  0
    0.4441    1.6172    1.8598 H   0  0  0  0  0  0  0  0  0  0  0  0
    1.2873    3.8655    1.3675 H   0  0  0  0  0  0  0  0  0  0  0  0
    1.6758    4.5911   -0.9716 H   0  0  0  0  0  0  0  0  0  0  0  0
    1.2262    3.0339   -2.8408 H   0  0  0  0  0  0  0  0  0  0  0  0
    1.0716   -2.0526   -0.4815 H   0  0  0  0  0  0  0  0  0  0  0  0
    3.0269   -2.3087   -1.1850 H   0  0  0  0  0  0  0  0  0  0  0  0
    5.0214   -1.7711   -2.4958 H   0  0  0  0  0  0  0  0  0  0  0  0
    6.4977    0.1094   -1.8359 H   0  0  0  0  0  0  0  0  0  0  0  0
    5.9691    1.4555    0.1800 H   0  0  0  0  0  0  0  0  0  0  0  0
    3.9495    0.9510    1.5140 H   0  0  0  0  0  0  0  0  0  0  0  0
  1  2  2  0
  2  3  1  0
  3  4  2  0
  3  5  1  0
  5  6  1  0
  6  7  1  0
  7  8  1  0
  8  9  1  0
  9 10  1  0
 10 11  1  0
  5 12  1  0
 12 13  1  0
 13 14  2  0
 14 15  1  0
 15 16  2  0
 16 17  1  0
 17 18  2  0
 18 19  1  0
 19 20  2  0
 19 21  1  0
 12 22  1  0
 22 23  1  0
 23 24  2  0
 23 25  1  0
 25 26  2  0
 26 27  1  0
 27 28  2  0
 28 29  1  0
 29 30  2  0
 22  2  1  0
 30 25  1  0
 11  7  1  0
 18 13  1  0
  6 31  1  0
  6 32  1  0
  7 33  1  0
  8 34  1  0
  8 35  1  0
  9 36  1  0
  9 37  1  0
 10 38  1  0
 10 39  1  0
 12 40  1  0
 14 41  1  0
 15 42  1  0
 16 43  1  0
 17 44  1  0
 22 45  1  0
 26 46  1  0
 27 47  1  0
 28 48  1  0
 29 49  1  0
 30 50  1  0
M  CHG  2  19   1  21  -1
M  END
$$$$
