
     RDKit          3D

 62 65  0  0  0  0  0  0  0  0999 V2000
   -1.9054    2.0002    0.2535 O   0  0  0  0  0  0  0  0  0  0  0  0
   -1.8080    0.8651   -0.2006 C   0  0  0  0  0  0  0  0  0  0  0  0
   -2.8937    0.0333   -0.3905 N   0  0  0  0  0  0  0  0  0  0  0  0
   -4.2457    0.5166   -0.1674 C   0  0  0  0  0  0  0  0  0  0  0  0
   -5.2316   -0.6406    0.0014 C   0  0  0  0  0  0  0  0  0  0  0  0
   -6.6584   -0.1807    0.1953 C   0  0  0  0  0  0  0  0  0  0  0  0
   -7.2927   -0.3219    1.3742 C   0  0  0  0  0  0  0  0  0  0  0  0
   -8.7030    0.1297    1.6252 C   0  0  0  0  0  0  0  0  0  0  0  0
   -9.2551    1.0304    0.5208 C   0  0  0  0  0  0  0  0  0  0  0  0
   -8.8701    0.5060   -0.8578 C   0  0  0  0  0  0  0  0  0  0  0  0
   -7.3491    0.4182   -1.0094 C   0  0  0  0  0  0  0  0  0  0  0  0
   -0.4775    0.2386   -0.6211 C   0  0  0  0  0  0  0  0  0  0  0  0
   -0.1657   -1.0015    0.2275 C   0  0  0  0  0  0  0  0  0  0  0  0
    1.1889   -1.6110   -0.1285 C   0  0  0  0  0  0  0  0  0  0  0  0
    2.3257   -0.5846   -0.0195 C   0  0  0  0  0  0  0  0  0  0  0  0
    3.6645   -1.2292   -0.4205 C   0  0  0  0  0  0  0  0  0  0  0  0
    4.7747   -0.3528   -0.0699 N   0  0  0  0  0  0  0  0  0  0  0  0
    6.1199   -0.6103   -0.3065 C   0  0  0  0  0  0  0  0  0  0  0  0
    6.4619   -1.5303   -1.2623 N   0  0  0  0  0  0  0  0  0  0  0  0
    7.7360   -1.8950   -1.6077 C   0  0  0  0  0  0  0  0  0  0  0  0
    7.9165   -3.0331   -2.8265 S   0  0  0  0  0  0  0  0  0  0  0  0
    8.7835   -1.3244   -0.9431 N   0  0  0  0  0  0  0  0  0  0  0  0
    8.5055   -0.4435   -0.0361 C   0  0  0  0  0  0  0  0  0  0  0  0
    9.6329    0.1881    0.7069 C   0  0  0  0  0  0  0  0  0  0  0  0
    9.4035    1.1127    1.6488 C   0  0  0  0  0  0  0  0  0  0  0  0
    8.0715    1.5538    1.9802 C   0  0  0  0  0  0  0  0  0  0  0  0
    6.9941    1.0372    1.3722 C   0  0  0  0  0  0  0  0  0  0  0  0
    7.1269    0.0073    0.3539 C   0  0  0  0  0  0  0  0  0  0  0  0
    2.0134    0.6466   -0.8861 C   0  0  0  0  0  0  0  0  0  0  0  0
    0.6634    1.2612   -0.5256 C   0  0  0  0  0  0  0  0  0  0  0  0
   -2.7745   -0.7427   -1.0287 H   0  0  0  0  0  0  0  0  0  0  0  0
   -4.2543    1.1609    0.7193 H   0  0  0  0  0  0  0  0  0  0  0  0
   -4.5067    1.1371   -1.0316 H   0  0  0  0  0  0  0  0  0  0  0  0
   -5.1860   -1.3014   -0.8738 H   0  0  0  0  0  0  0  0  0  0  0  0
   -4.9092   -1.2578    0.8505 H   0  0  0  0  0  0  0  0  0  0  0  0
   -6.7816   -0.7799    2.2186 H   0  0  0  0  0  0  0  0  0  0  0  0
   -9.3358   -0.7599    1.7269 H   0  0  0  0  0  0  0  0  0  0  0  0
   -8.7495    0.6668    2.5797 H   0  0  0  0  0  0  0  0  0  0  0  0
  -10.3455    1.0962    0.6092 H   0  0  0  0  0  0  0  0  0  0  0  0
   -8.8638    2.0478    0.6450 H   0  0  0  0  0  0  0  0  0  0  0  0
   -9.2817    1.1572   -1.6369 H   0  0  0  0  0  0  0  0  0  0  0  0
   -9.3127   -0.4869   -1.0062 H   0  0  0  0  0  0  0  0  0  0  0  0
   -6.9453    1.4231   -1.1801 H   0  0  0  0  0  0  0  0  0  0  0  0
   -7.1243   -0.1770   -1.9025 H   0  0  0  0  0  0  0  0  0  0  0  0
   -0.5808   -0.0623   -1.6730 H   0  0  0  0  0  0  0  0  0  0  0  0
   -0.1790   -0.7340    1.2924 H   0  0  0  0  0  0  0  0  0  0  0  0
   -0.9409   -1.7653    0.0937 H   0  0  0  0  0  0  0  0  0  0  0  0
    1.1469   -2.0148   -1.1481 H   0  0  0  0  0  0  0  0  0  0  0  0
    1.3858   -2.4580    0.5399 H   0  0  0  0  0  0  0  0  0  0  0  0
    2.3890   -0.2603    1.0291 H   0  0  0  0  0  0  0  0  0  0  0  0
    3.6643   -1.4336   -1.4972 H   0  0  0  0  0  0  0  0  0  0  0  0
    3.7892   -2.1839    0.1040 H   0  0  0  0  0  0  0  0  0  0  0  0
    4.6178    0.1553    0.7946 H   0  0  0  0  0  0  0  0  0  0  0  0
    5.7289   -1.9716   -1.7951 H   0  0  0  0  0  0  0  0  0  0  0  0
   10.6330   -0.1400    0.4497 H   0  0  0  0  0  0  0  0  0  0  0  0
   10.2328    1.5645    2.1854 H   0  0  0  0  0  0  0  0  0  0  0  0
    7.9656    2.3289    2.7343 H   0  0  0  0  0  0  0  0  0  0  0  0
    6.0121    1.4103    1.6366 H   0  0  0  0  0  0  0  0  0  0  0  0
    2.0082    0.3648   -1.9477 H   0  0  0  0  0  0  0  0  0  0  0  0
    2.7937    1.4074   -0.7640 H   0  0  0  0  0  0  0  0  0  0  0  0
    0.7161    1.6761    0.4907 H   0  0  0  0  0  0  0  0  0  0  0  0
    0.4614    2.1078   -1.1955 H   0  0  0  0  0  0  0  0  0  0  0  0
  1  2  2  0
  2  3  1  0
  3  4  1  0
  4  5  1  0
  5  6  1  0
  6  7  2  0
  7  8  1  0
  8  9  1  0
  9 10  1  0
 10 11  1  0
  2 12  1  0
 12 13  1  0
 13 14  1  0
 14 15  1  0
 15 16  1  0
 16 17  1  0
 17 18  1  0
 18 19  1  0
 19 20  1  0
 20 21  2  0
 20 22  1  0
 22 23  2  0
 23 24  1  0
 24 25  2  0
 25 26  1  0
 26 27  2  0
 27 28  1  0
 15 29  1  0
 29 30  1  0
 11  6  1  0
 30 12  1  0
 28 18  2  0
 28 23  1  0
  3 31  1  0
  4 32  1  0
  4 33  1  0
  5 34  1  0
  5 35  1  0
  7 36  1  0
  8 37  1  0
  8 38  1  0
  9 39  1  0
  9 40  1  0
 10 41  1  0
 10 42  1  0
 11 43  1  0
 11 44  1  0
 12 45  1  0
 13 46  1  0
 13 47  1  0
 14 48  1  0
 14 49  1  0
 15 50  1  0
 16 51  1  0
 16 52  1  0
 17 53  1  0
 19 54  1  0
 24 55  1  0
 25 56  1  0
 26 57  1  0
 27 58  1  0
 29 59  1  0
 29 60  1  0
 30 61  1  0
 30 62  1  0
M  END
$$$$
