
     RDKit          3D

 57 60  0  0  0  0  0  0  0  0999 V2000
    7.8130   -2.3110    0.4307 C   0  0  0  0  0  0  0  0  0  0  0  0
    6.5323   -2.2423    1.0473 O   0  0  0  0  0  0  0  0  0  0  0  0
    5.5606   -1.5467    0.3817 C   0  0  0  0  0  0  0  0  0  0  0  0
    5.7088   -0.9046   -0.8419 C   0  0  0  0  0  0  0  0  0  0  0  0
    4.6240   -0.2287   -1.4061 C   0  0  0  0  0  0  0  0  0  0  0  0
    3.3753   -0.1813   -0.7592 C   0  0  0  0  0  0  0  0  0  0  0  0
    2.2936    0.5802   -1.4715 C   0  0  0  0  0  0  0  0  0  0  0  0
    2.4963    1.0441   -2.5906 O   0  0  0  0  0  0  0  0  0  0  0  0
    1.0923    0.7338   -0.8258 N   0  0  0  0  0  0  0  0  0  0  0  0
   -0.0465    1.3824   -1.4374 C   0  0  0  0  0  0  0  0  0  0  0  0
   -0.7520    0.4795   -2.4779 C   0  0  0  0  0  0  0  0  0  0  0  0
   -1.7528   -0.5624   -1.8840 C   0  0  0  0  0  0  0  0  0  0  0  0
   -1.0222   -1.6350   -1.0512 C   0  0  0  0  0  0  0  0  0  0  0  0
   -2.4540   -1.2809   -3.0549 C   0  0  0  0  0  0  0  0  0  0  0  0
   -2.8370    0.1435   -1.0111 C   0  0  0  0  0  0  0  0  0  0  0  0
   -2.2459    1.2164   -0.1573 C   0  0  0  0  0  0  0  0  0  0  0  0
   -0.9894    1.7641   -0.3505 C   0  0  0  0  0  0  0  0  0  0  0  0
   -0.8325    2.6784    0.6949 C   0  0  0  0  0  0  0  0  0  0  0  0
   -1.8882    2.7072    1.5033 N   0  0  0  0  0  0  0  0  0  0  0  0
   -2.8002    1.8526    0.9486 N   0  0  0  0  0  0  0  0  0  0  0  0
   -4.0967    1.7511    1.5460 C   0  0  0  0  0  0  0  0  0  0  0  0
   -5.1697    1.0975    0.9307 C   0  0  0  0  0  0  0  0  0  0  0  0
   -6.4174    1.0288    1.5639 C   0  0  0  0  0  0  0  0  0  0  0  0
   -6.6091    1.6160    2.8118 C   0  0  0  0  0  0  0  0  0  0  0  0
   -5.5564    2.2838    3.4283 C   0  0  0  0  0  0  0  0  0  0  0  0
   -4.3110    2.3559    2.7988 C   0  0  0  0  0  0  0  0  0  0  0  0
    3.2217   -0.8344    0.4807 C   0  0  0  0  0  0  0  0  0  0  0  0
    1.9910   -0.7811    1.0864 O   0  0  0  0  0  0  0  0  0  0  0  0
    1.8327   -1.4294    2.3443 C   0  0  0  0  0  0  0  0  0  0  0  0
    4.3219   -1.5086    1.0335 C   0  0  0  0  0  0  0  0  0  0  0  0
    8.4677   -2.8949    1.0847 H   0  0  0  0  0  0  0  0  0  0  0  0
    8.2529   -1.3140    0.3226 H   0  0  0  0  0  0  0  0  0  0  0  0
    7.7586   -2.8275   -0.5332 H   0  0  0  0  0  0  0  0  0  0  0  0
    6.6475   -0.9065   -1.3859 H   0  0  0  0  0  0  0  0  0  0  0  0
    4.7598    0.2694   -2.3656 H   0  0  0  0  0  0  0  0  0  0  0  0
    0.9725    0.2738    0.0709 H   0  0  0  0  0  0  0  0  0  0  0  0
    0.3169    2.2830   -1.9479 H   0  0  0  0  0  0  0  0  0  0  0  0
   -1.3206    1.1390   -3.1497 H   0  0  0  0  0  0  0  0  0  0  0  0
   -0.0114   -0.0286   -3.1083 H   0  0  0  0  0  0  0  0  0  0  0  0
   -0.1772   -2.0569   -1.6059 H   0  0  0  0  0  0  0  0  0  0  0  0
   -1.6967   -2.4614   -0.7985 H   0  0  0  0  0  0  0  0  0  0  0  0
   -0.6442   -1.2408   -0.1044 H   0  0  0  0  0  0  0  0  0  0  0  0
   -1.7316   -1.8250   -3.6741 H   0  0  0  0  0  0  0  0  0  0  0  0
   -3.1939   -2.0025   -2.6906 H   0  0  0  0  0  0  0  0  0  0  0  0
   -2.9772   -0.5684   -3.7027 H   0  0  0  0  0  0  0  0  0  0  0  0
   -3.3449   -0.6095   -0.3980 H   0  0  0  0  0  0  0  0  0  0  0  0
   -3.5793    0.6095   -1.6715 H   0  0  0  0  0  0  0  0  0  0  0  0
    0.0176    3.3113    0.9157 H   0  0  0  0  0  0  0  0  0  0  0  0
   -5.1012    0.6572   -0.0540 H   0  0  0  0  0  0  0  0  0  0  0  0
   -7.2450    0.5212    1.0743 H   0  0  0  0  0  0  0  0  0  0  0  0
   -7.5794    1.5616    3.2981 H   0  0  0  0  0  0  0  0  0  0  0  0
   -5.6999    2.7518    4.3989 H   0  0  0  0  0  0  0  0  0  0  0  0
   -3.5074    2.8860    3.3077 H   0  0  0  0  0  0  0  0  0  0  0  0
    2.4885   -0.9874    3.1015 H   0  0  0  0  0  0  0  0  0  0  0  0
    0.7991   -1.2751    2.6688 H   0  0  0  0  0  0  0  0  0  0  0  0
    1.9950   -2.5085    2.2543 H   0  0  0  0  0  0  0  0  0  0  0  0
    4.2514   -2.0254    1.9857 H   0  0  0  0  0  0  0  0  0  0  0  0
  1  2  1  0
  2  3  1  0
  3  4  2  0
  4  5  1  0
  5  6  2  0
  6  7  1  0
  7  8  2  0
  7  9  1  0
  9 10  1  0
 10 11  1  0
 11 12  1  0
 12 13  1  0
 12 14  1  0
 12 15  1  0
 15 16  1  0
 16 17  2  0
 17 18  1  0
 18 19  2  0
 19 20  1  0
 20 21  1  0
 21 22  2  0
 22 23  1  0
 23 24  2  0
 24 25  1  0
 25 26  2  0
  6 27  1  0
 27 28  1  0
 28 29  1  0
 27 30  2  0
 30  3  1  0
 17 10  1  0
 26 21  1  0
 20 16  1  0
  1 31  1  0
  1 32  1  0
  1 33  1  0
  4 34  1  0
  5 35  1  0
  9 36  1  0
 10 37  1  0
 11 38  1  0
 11 39  1  0
 13 40  1  0
 13 41  1  0
 13 42  1  0
 14 43  1  0
 14 44  1  0
 14 45  1  0
 15 46  1  0
 15 47  1  0
 18 48  1  0
 22 49  1  0
 23 50  1  0
 24 51  1  0
 25 52  1  0
 26 53  1  0
 29 54  1  0
 29 55  1  0
 29 56  1  0
 30 57  1  0
M  END
$$$$
