
     RDKit          3D

 43 45  0  0  0  0  0  0  0  0999 V2000
    7.2842    1.6984    0.1552 C   0  0  0  0  0  0  0  0  0  0  0  0
    5.9435    1.3978    0.5196 O   0  0  0  0  0  0  0  0  0  0  0  0
    5.1894    0.7140   -0.3955 C   0  0  0  0  0  0  0  0  0  0  0  0
    5.5889    0.3673   -1.6853 C   0  0  0  0  0  0  0  0  0  0  0  0
    4.7057   -0.3067   -2.5295 C   0  0  0  0  0  0  0  0  0  0  0  0
    3.4268   -0.6433   -2.0826 C   0  0  0  0  0  0  0  0  0  0  0  0
    3.0227   -0.3289   -0.7805 C   0  0  0  0  0  0  0  0  0  0  0  0
    1.7023   -0.6706   -0.4140 N   0  0  0  0  0  0  0  0  0  0  0  0
    1.1293   -0.8799    0.8341 C   0  0  0  0  0  0  0  0  0  0  0  0
    1.9751   -1.3169    2.2203 S   0  0  0  0  0  0  0  0  0  0  0  0
   -0.2738   -0.7576    0.7961 N   0  0  0  0  0  0  0  0  0  0  0  0
   -0.9783    0.0046   -0.2537 C   0  0  0  0  0  0  0  0  0  0  0  0
   -2.1970    0.7927    0.2693 C   0  0  0  0  0  0  0  0  0  0  0  0
   -3.1331   -0.0580    1.0208 N   0  0  0  0  0  0  0  0  0  0  0  0
   -4.4809   -0.0367    0.6739 C   0  0  0  0  0  0  0  0  0  0  0  0
   -5.1309    1.1686    0.3989 C   0  0  0  0  0  0  0  0  0  0  0  0
   -6.4864    1.1775    0.0696 C   0  0  0  0  0  0  0  0  0  0  0  0
   -7.1794   -0.0207    0.0288 C   0  0  0  0  0  0  0  0  0  0  0  0
   -6.4814   -1.1739    0.3281 C   0  0  0  0  0  0  0  0  0  0  0  0
   -5.1678   -1.2007    0.6486 N   0  0  0  0  0  0  0  0  0  0  0  0
   -2.6154   -1.3526    1.4910 C   0  0  0  0  0  0  0  0  0  0  0  0
   -1.1381   -1.2266    1.9017 C   0  0  0  0  0  0  0  0  0  0  0  0
    3.9048    0.3702    0.0461 C   0  0  0  0  0  0  0  0  0  0  0  0
    7.7563    2.2028    1.0038 H   0  0  0  0  0  0  0  0  0  0  0  0
    7.8539    0.7856   -0.0485 H   0  0  0  0  0  0  0  0  0  0  0  0
    7.3157    2.3835   -0.6984 H   0  0  0  0  0  0  0  0  0  0  0  0
    6.5733    0.6158   -2.0669 H   0  0  0  0  0  0  0  0  0  0  0  0
    5.0145   -0.5698   -3.5380 H   0  0  0  0  0  0  0  0  0  0  0  0
    2.7604   -1.1694   -2.7609 H   0  0  0  0  0  0  0  0  0  0  0  0
    1.1296   -1.0255   -1.1679 H   0  0  0  0  0  0  0  0  0  0  0  0
   -0.2925    0.7053   -0.7409 H   0  0  0  0  0  0  0  0  0  0  0  0
   -1.3031   -0.7260   -1.0045 H   0  0  0  0  0  0  0  0  0  0  0  0
   -1.8504    1.5870    0.9412 H   0  0  0  0  0  0  0  0  0  0  0  0
   -2.6713    1.2763   -0.5930 H   0  0  0  0  0  0  0  0  0  0  0  0
   -4.5981    2.1109    0.4661 H   0  0  0  0  0  0  0  0  0  0  0  0
   -6.9921    2.1152   -0.1397 H   0  0  0  0  0  0  0  0  0  0  0  0
   -8.2338   -0.0554   -0.2181 H   0  0  0  0  0  0  0  0  0  0  0  0
   -6.9723   -2.1426    0.3220 H   0  0  0  0  0  0  0  0  0  0  0  0
   -2.7016   -2.1082    0.6988 H   0  0  0  0  0  0  0  0  0  0  0  0
   -3.1885   -1.6963    2.3609 H   0  0  0  0  0  0  0  0  0  0  0  0
   -1.0394   -0.5028    2.7201 H   0  0  0  0  0  0  0  0  0  0  0  0
   -0.7789   -2.1988    2.2549 H   0  0  0  0  0  0  0  0  0  0  0  0
    3.6081    0.6943    1.0385 H   0  0  0  0  0  0  0  0  0  0  0  0
  1  2  1  0
  2  3  1  0
  3  4  2  0
  4  5  1  0
  5  6  2  0
  6  7  1  0
  7  8  1  0
  8  9  1  0
  9 10  2  0
  9 11  1  0
 11 12  1  0
 12 13  1  0
 13 14  1  0
 14 15  1  0
 15 16  2  0
 16 17  1  0
 17 18  2  0
 18 19  1  0
 19 20  2  0
 14 21  1  0
 21 22  1  0
  7 23  2  0
 23  3  1  0
 22 11  1  0
 20 15  1  0
  1 24  1  0
  1 25  1  0
  1 26  1  0
  4 27  1  0
  5 28  1  0
  6 29  1  0
  8 30  1  0
 12 31  1  0
 12 32  1  0
 13 33  1  0
 13 34  1  0
 16 35  1  0
 17 36  1  0
 18 37  1  0
 19 38  1  0
 21 39  1  0
 21 40  1  0
 22 41  1  0
 22 42  1  0
 23 43  1  0
M  END
$$$$
