
     RDKit          3D

 43 45  0  0  0  0  0  0  0  0999 V2000
   -7.9615    1.5850   -0.0766 C   0  0  0  0  0  0  0  0  0  0  0  0
   -6.6044    0.9014   -0.0525 C   0  0  0  0  0  0  0  0  0  0  0  0
   -5.7882    1.3217    1.1667 C   0  0  0  0  0  0  0  0  0  0  0  0
   -4.4687    0.6117    1.1810 C   0  0  0  0  0  0  0  0  0  0  0  0
   -4.2966   -0.5693    1.6849 N   0  0  0  0  0  0  0  0  0  0  0  0
   -2.9790   -0.9324    1.5182 N   0  0  0  0  0  0  0  0  0  0  0  0
   -2.4909   -2.1392    1.9666 C   0  0  0  0  0  0  0  0  0  0  0  0
   -3.1168   -3.0190    2.5494 O   0  0  0  0  0  0  0  0  0  0  0  0
   -1.0491   -2.3322    1.6898 C   0  0  0  0  0  0  0  0  0  0  0  0
   -0.3561   -1.3751    1.0482 C   0  0  0  0  0  0  0  0  0  0  0  0
    1.1214   -1.5493    0.7723 C   0  0  0  0  0  0  0  0  0  0  0  0
    1.3960   -2.0985   -0.9483 S   0  0  0  0  0  0  0  0  0  0  0  0
    1.4062   -0.4742   -1.7888 C   0  0  0  0  0  0  0  0  0  0  0  0
    2.6350    0.3517   -1.4253 C   0  0  0  0  0  0  0  0  0  0  0  0
    2.5309    1.5416   -1.1428 O   0  0  0  0  0  0  0  0  0  0  0  0
    3.8163   -0.3683   -1.5094 N   0  0  0  0  0  0  0  0  0  0  0  0
    5.1283    0.0865   -1.2804 C   0  0  0  0  0  0  0  0  0  0  0  0
    6.1567   -0.8638   -1.3693 C   0  0  0  0  0  0  0  0  0  0  0  0
    7.4871   -0.4940   -1.1563 C   0  0  0  0  0  0  0  0  0  0  0  0
    7.7892    0.8269   -0.8556 C   0  0  0  0  0  0  0  0  0  0  0  0
    9.0637    1.1832   -0.6509 F   0  0  0  0  0  0  0  0  0  0  0  0
    6.7859    1.7821   -0.7653 C   0  0  0  0  0  0  0  0  0  0  0  0
    5.4540    1.4121   -0.9785 C   0  0  0  0  0  0  0  0  0  0  0  0
   -0.9108   -0.1788    0.6396 N   0  0  0  0  0  0  0  0  0  0  0  0
   -2.1677   -0.0277    0.8880 C   0  0  0  0  0  0  0  0  0  0  0  0
   -3.0777    1.3833    0.4577 S   0  0  0  0  0  0  0  0  0  0  0  0
   -8.5290    1.2703   -0.9580 H   0  0  0  0  0  0  0  0  0  0  0  0
   -7.8517    2.6736   -0.1141 H   0  0  0  0  0  0  0  0  0  0  0  0
   -8.5458    1.3285    0.8129 H   0  0  0  0  0  0  0  0  0  0  0  0
   -6.0600    1.1459   -0.9724 H   0  0  0  0  0  0  0  0  0  0  0  0
   -6.7464   -0.1861   -0.0522 H   0  0  0  0  0  0  0  0  0  0  0  0
   -5.6311    2.4061    1.1699 H   0  0  0  0  0  0  0  0  0  0  0  0
   -6.3264    1.0643    2.0865 H   0  0  0  0  0  0  0  0  0  0  0  0
   -0.6153   -3.2677    2.0194 H   0  0  0  0  0  0  0  0  0  0  0  0
    1.6739   -0.6292    0.9885 H   0  0  0  0  0  0  0  0  0  0  0  0
    1.5427   -2.3219    1.4255 H   0  0  0  0  0  0  0  0  0  0  0  0
    1.4228   -0.6444   -2.8703 H   0  0  0  0  0  0  0  0  0  0  0  0
    0.4983    0.0862   -1.5552 H   0  0  0  0  0  0  0  0  0  0  0  0
    3.7052   -1.3591   -1.7027 H   0  0  0  0  0  0  0  0  0  0  0  0
    5.9377   -1.9024   -1.6043 H   0  0  0  0  0  0  0  0  0  0  0  0
    8.2855   -1.2259   -1.2235 H   0  0  0  0  0  0  0  0  0  0  0  0
    7.0404    2.8109   -0.5308 H   0  0  0  0  0  0  0  0  0  0  0  0
    4.6957    2.1853   -0.9034 H   0  0  0  0  0  0  0  0  0  0  0  0
  1  2  1  0
  2  3  1  0
  3  4  1  0
  4  5  2  0
  5  6  1  0
  6  7  1  0
  7  8  2  0
  7  9  1  0
  9 10  2  0
 10 11  1  0
 11 12  1  0
 12 13  1  0
 13 14  1  0
 14 15  2  0
 14 16  1  0
 16 17  1  0
 17 18  2  0
 18 19  1  0
 19 20  2  0
 20 21  1  0
 20 22  1  0
 22 23  2  0
 10 24  1  0
 24 25  2  0
 25 26  1  0
 26  4  1  0
 25  6  1  0
 23 17  1  0
  1 27  1  0
  1 28  1  0
  1 29  1  0
  2 30  1  0
  2 31  1  0
  3 32  1  0
  3 33  1  0
  9 34  1  0
 11 35  1  0
 11 36  1  0
 13 37  1  0
 13 38  1  0
 16 39  1  0
 18 40  1  0
 19 41  1  0
 22 42  1  0
 23 43  1  0
M  END
$$$$
