
     RDKit          3D

 40 43  0  0  0  0  0  0  0  0999 V2000
   -0.4910   -0.6012    3.4236 C   0  0  0  0  0  0  0  0  0  0  0  0
   -1.3865    0.5840    3.4354 C   0  0  0  0  0  0  0  0  0  0  0  0
   -1.7390    1.1053    4.6780 N   0  0  0  0  0  0  0  0  0  0  0  0
   -2.4907    2.1867    4.5678 N   0  0  0  0  0  0  0  0  0  0  0  0
   -2.7854    2.6135    2.9796 S   0  0  0  0  0  0  0  0  0  0  0  0
   -1.9206    1.2700    2.3519 C   0  0  0  0  0  0  0  0  0  0  0  0
   -1.8141    1.0381    0.9525 C   0  0  0  0  0  0  0  0  0  0  0  0
   -1.4195    1.9429    0.0738 N   0  0  0  0  0  0  0  0  0  0  0  0
   -1.3522    1.3388   -1.1639 N   0  0  0  0  0  0  0  0  0  0  0  0
   -1.7406    0.0916   -1.0156 C   0  0  0  0  0  0  0  0  0  0  0  0
   -1.6723   -1.1390   -2.2278 S   0  0  0  0  0  0  0  0  0  0  0  0
   -0.0177   -0.7810   -2.8989 C   0  0  0  0  0  0  0  0  0  0  0  0
    1.0579   -0.8233   -1.8215 C   0  0  0  0  0  0  0  0  0  0  0  0
    0.9438   -1.4535   -0.7675 O   0  0  0  0  0  0  0  0  0  0  0  0
    2.3253   -0.0705   -2.0648 C   0  0  0  0  0  0  0  0  0  0  0  0
    3.1408    0.2317   -0.9640 C   0  0  0  0  0  0  0  0  0  0  0  0
    4.3371    0.9365   -1.1365 C   0  0  0  0  0  0  0  0  0  0  0  0
    4.7315    1.3414   -2.4153 C   0  0  0  0  0  0  0  0  0  0  0  0
    5.9580    2.0630   -2.6004 C   0  0  0  0  0  0  0  0  0  0  0  0
    6.9520    2.6411   -2.7553 N   0  0  0  0  0  0  0  0  0  0  0  0
    3.9259    1.0333   -3.5183 C   0  0  0  0  0  0  0  0  0  0  0  0
    2.7276    0.3282   -3.3462 C   0  0  0  0  0  0  0  0  0  0  0  0
   -2.0961   -0.1263    0.2836 N   0  0  0  0  0  0  0  0  0  0  0  0
   -2.6094   -1.3899    0.8622 C   0  0  0  0  0  0  0  0  0  0  0  0
   -3.8214   -1.4473    1.7670 C   0  0  0  0  0  0  0  0  0  0  0  0
   -3.8982   -2.0249    0.3880 C   0  0  0  0  0  0  0  0  0  0  0  0
   -1.0683   -1.5119    3.6168 H   0  0  0  0  0  0  0  0  0  0  0  0
    0.2739   -0.5100    4.2037 H   0  0  0  0  0  0  0  0  0  0  0  0
    0.0231   -0.7084    2.4626 H   0  0  0  0  0  0  0  0  0  0  0  0
   -0.0527    0.2059   -3.3696 H   0  0  0  0  0  0  0  0  0  0  0  0
    0.2216   -1.5337   -3.6560 H   0  0  0  0  0  0  0  0  0  0  0  0
    2.8450   -0.0744    0.0387 H   0  0  0  0  0  0  0  0  0  0  0  0
    4.9523    1.1663   -0.2677 H   0  0  0  0  0  0  0  0  0  0  0  0
    4.2270    1.3397   -4.5194 H   0  0  0  0  0  0  0  0  0  0  0  0
    2.1377    0.1001   -4.2295 H   0  0  0  0  0  0  0  0  0  0  0  0
   -1.7984   -2.0794    1.0843 H   0  0  0  0  0  0  0  0  0  0  0  0
   -3.7952   -2.1340    2.6072 H   0  0  0  0  0  0  0  0  0  0  0  0
   -4.3903   -0.5430    1.9594 H   0  0  0  0  0  0  0  0  0  0  0  0
   -4.5008   -1.5022   -0.3475 H   0  0  0  0  0  0  0  0  0  0  0  0
   -3.9199   -3.1041    0.2864 H   0  0  0  0  0  0  0  0  0  0  0  0
  1  2  1  0
  2  3  1  0
  3  4  2  0
  4  5  1  0
  5  6  1  0
  6  7  1  0
  7  8  2  0
  8  9  1  0
  9 10  2  0
 10 11  1  0
 11 12  1  0
 12 13  1  0
 13 14  2  0
 13 15  1  0
 15 16  2  0
 16 17  1  0
 17 18  2  0
 18 19  1  0
 19 20  3  0
 18 21  1  0
 21 22  2  0
 10 23  1  0
 23 24  1  0
 24 25  1  0
 25 26  1  0
  6  2  2  0
 23  7  1  0
 26 24  1  0
 22 15  1  0
  1 27  1  0
  1 28  1  0
  1 29  1  0
 12 30  1  0
 12 31  1  0
 16 32  1  0
 17 33  1  0
 21 34  1  0
 22 35  1  0
 24 36  1  0
 25 37  1  0
 25 38  1  0
 26 39  1  0
 26 40  1  0
M  END
$$$$
