
     RDKit          3D

 46 49  0  0  0  0  0  0  0  0999 V2000
    6.4800   -0.0353    0.2303 N   0  0  0  0  0  0  0  0  0  0  0  0
    5.9117    0.2854   -1.3234 S   0  0  0  0  0  6  0  0  0  0  0  0
    6.2932   -0.8178   -2.1726 O   0  0  0  0  0  0  0  0  0  0  0  0
    6.2939    1.6505   -1.6027 O   0  0  0  0  0  0  0  0  0  0  0  0
    4.1596    0.2254   -1.0744 C   0  0  0  0  0  0  0  0  0  0  0  0
    3.4945   -0.9961   -1.1637 C   0  0  0  0  0  0  0  0  0  0  0  0
    2.1096   -1.0457   -0.9625 C   0  0  0  0  0  0  0  0  0  0  0  0
    1.3622    0.1095   -0.6763 C   0  0  0  0  0  0  0  0  0  0  0  0
   -0.0151    0.0769   -0.4652 N   0  0  0  0  0  0  0  0  0  0  0  0
   -0.7132    1.2270   -0.2295 N   0  0  0  0  0  0  0  0  0  0  0  0
   -1.9764    0.9308   -0.2879 C   0  0  0  0  0  0  0  0  0  0  0  0
   -3.0528    1.9236   -0.0615 C   0  0  0  0  0  0  0  0  0  0  0  0
   -2.7047    3.2269    0.3155 C   0  0  0  0  0  0  0  0  0  0  0  0
   -3.6961    4.1844    0.5371 C   0  0  0  0  0  0  0  0  0  0  0  0
   -5.0390    3.8452    0.3826 C   0  0  0  0  0  0  0  0  0  0  0  0
   -5.3922    2.5501    0.0055 C   0  0  0  0  0  0  0  0  0  0  0  0
   -4.4027    1.5887   -0.2175 C   0  0  0  0  0  0  0  0  0  0  0  0
   -2.2790   -0.5001   -0.6382 C   0  0  0  0  0  0  0  0  0  0  0  0
   -0.8749   -1.1037   -0.5721 C   0  0  0  0  0  0  0  0  0  0  0  0
   -0.7415   -2.0509    0.6138 C   0  0  0  0  0  0  0  0  0  0  0  0
   -0.5228   -1.5793    1.9214 C   0  0  0  0  0  0  0  0  0  0  0  0
   -0.4270   -2.4688    2.9925 C   0  0  0  0  0  0  0  0  0  0  0  0
   -0.5557   -3.8322    2.7639 C   0  0  0  0  0  0  0  0  0  0  0  0
   -0.4646   -4.6861    3.7917 F   0  0  0  0  0  0  0  0  0  0  0  0
   -0.7804   -4.3240    1.4841 C   0  0  0  0  0  0  0  0  0  0  0  0
   -0.8765   -3.4365    0.4106 C   0  0  0  0  0  0  0  0  0  0  0  0
    2.0699    1.3253   -0.6075 C   0  0  0  0  0  0  0  0  0  0  0  0
    3.4526    1.3942   -0.8083 C   0  0  0  0  0  0  0  0  0  0  0  0
    5.7435   -0.3288    0.8715 H   0  0  0  0  0  0  0  0  0  0  0  0
    6.9750    0.7896    0.5737 H   0  0  0  0  0  0  0  0  0  0  0  0
    4.0389   -1.9112   -1.3887 H   0  0  0  0  0  0  0  0  0  0  0  0
    1.6284   -2.0167   -1.0333 H   0  0  0  0  0  0  0  0  0  0  0  0
   -1.6598    3.5048    0.4387 H   0  0  0  0  0  0  0  0  0  0  0  0
   -3.4187    5.1942    0.8293 H   0  0  0  0  0  0  0  0  0  0  0  0
   -5.8107    4.5917    0.5548 H   0  0  0  0  0  0  0  0  0  0  0  0
   -6.4409    2.2896   -0.1162 H   0  0  0  0  0  0  0  0  0  0  0  0
   -4.7110    0.5911   -0.5145 H   0  0  0  0  0  0  0  0  0  0  0  0
   -2.6737   -0.5358   -1.6593 H   0  0  0  0  0  0  0  0  0  0  0  0
   -2.9940   -0.9516    0.0548 H   0  0  0  0  0  0  0  0  0  0  0  0
   -0.6698   -1.6429   -1.5059 H   0  0  0  0  0  0  0  0  0  0  0  0
   -0.4166   -0.5114    2.1097 H   0  0  0  0  0  0  0  0  0  0  0  0
   -0.2519   -2.1051    3.9999 H   0  0  0  0  0  0  0  0  0  0  0  0
   -0.8795   -5.3942    1.3317 H   0  0  0  0  0  0  0  0  0  0  0  0
   -1.0554   -3.8350   -0.5862 H   0  0  0  0  0  0  0  0  0  0  0  0
    1.5296    2.2470   -0.3970 H   0  0  0  0  0  0  0  0  0  0  0  0
    3.9539    2.3576   -0.7560 H   0  0  0  0  0  0  0  0  0  0  0  0
  1  2  1  0
  2  3  2  0
  2  4  2  0
  2  5  1  0
  5  6  2  0
  6  7  1  0
  7  8  2  0
  8  9  1  0
  9 10  1  0
 10 11  2  0
 11 12  1  0
 12 13  2  0
 13 14  1  0
 14 15  2  0
 15 16  1  0
 16 17  2  0
 11 18  1  0
 18 19  1  0
 19 20  1  0
 20 21  2  0
 21 22  1  0
 22 23  2  0
 23 24  1  0
 23 25  1  0
 25 26  2  0
  8 27  1  0
 27 28  2  0
 28  5  1  0
 19  9  1  0
 26 20  1  0
 17 12  1  0
  1 29  1  0
  1 30  1  0
  6 31  1  0
  7 32  1  0
 13 33  1  0
 14 34  1  0
 15 35  1  0
 16 36  1  0
 17 37  1  0
 18 38  1  0
 18 39  1  0
 19 40  1  0
 21 41  1  0
 22 42  1  0
 25 43  1  0
 26 44  1  0
 27 45  1  0
 28 46  1  0
M  END
$$$$
