
     RDKit          3D

 56 59  0  0  0  0  0  0  0  0999 V2000
   -1.3049   -1.0650   -2.6107 C   0  0  0  0  0  0  0  0  0  0  0  0
   -1.4623   -2.4629   -2.0301 C   0  0  0  0  0  0  0  0  0  0  0  0
   -2.0657   -2.4616   -0.6903 N   0  0  0  0  0  0  0  0  0  0  0  0
   -3.5316   -2.4533   -0.6082 C   0  0  0  0  0  0  0  0  0  0  0  0
   -4.0830   -1.0241   -0.5006 C   0  0  0  0  0  0  0  0  0  0  0  0
   -4.6702   -0.5200   -1.5440 N   0  0  0  0  0  0  0  0  0  0  0  0
   -5.1469    0.7726   -1.4774 C   0  0  0  0  0  0  0  0  0  0  0  0
   -5.7689    1.2877   -2.4023 O   0  0  0  0  0  0  0  0  0  0  0  0
   -4.8932    1.5904   -0.2599 C   0  0  0  0  0  0  0  0  0  0  0  0
   -5.2893    2.9311   -0.1817 C   0  0  0  0  0  0  0  0  0  0  0  0
   -5.0326    3.6568    0.9848 C   0  0  0  0  0  0  0  0  0  0  0  0
   -4.3926    3.0355    2.0595 C   0  0  0  0  0  0  0  0  0  0  0  0
   -4.0868    3.9312    3.5021 Cl  0  0  0  0  0  0  0  0  0  0  0  0
   -4.0001    1.6959    1.9808 C   0  0  0  0  0  0  0  0  0  0  0  0
   -4.2347    0.9713    0.8087 C   0  0  0  0  0  0  0  0  0  0  0  0
   -3.9013   -0.3756    0.7000 N   0  0  0  0  0  0  0  0  0  0  0  0
   -1.3517   -2.2510    0.4905 C   0  0  0  0  0  0  0  0  0  0  0  0
   -1.8910   -1.9769    1.5632 O   0  0  0  0  0  0  0  0  0  0  0  0
    0.1190   -2.3328    0.4568 C   0  0  0  0  0  0  0  0  0  0  0  0
    0.7395   -3.5821    0.3907 C   0  0  0  0  0  0  0  0  0  0  0  0
    2.1308   -3.6507    0.3764 C   0  0  0  0  0  0  0  0  0  0  0  0
    2.8924   -2.4764    0.4298 C   0  0  0  0  0  0  0  0  0  0  0  0
    2.2671   -1.2263    0.5058 C   0  0  0  0  0  0  0  0  0  0  0  0
    2.8962   -0.0105    0.5602 O   0  0  0  0  0  0  0  0  0  0  0  0
    4.3227   -0.0115    0.4667 C   0  0  0  0  0  0  0  0  0  0  0  0
    4.8405    1.3805    0.4178 C   0  0  0  0  0  0  0  0  0  0  0  0
    4.6407    2.3465   -0.6072 C   0  0  0  0  0  0  0  0  0  0  0  0
    3.8559    2.2071   -1.8557 C   0  0  0  0  0  0  0  0  0  0  0  0
    5.2703    3.4947   -0.3314 N   0  0  0  0  0  0  0  0  0  0  0  0
    5.8835    3.3010    0.8914 O   0  0  0  0  0  0  0  0  0  0  0  0
    5.6263    2.0426    1.3373 C   0  0  0  0  0  0  0  0  0  0  0  0
    6.2166    1.6789    2.6406 C   0  0  0  0  0  0  0  0  0  0  0  0
    0.8732   -1.1590    0.5327 C   0  0  0  0  0  0  0  0  0  0  0  0
   -0.7644   -1.1115   -3.5649 H   0  0  0  0  0  0  0  0  0  0  0  0
   -0.7488   -0.4049   -1.9328 H   0  0  0  0  0  0  0  0  0  0  0  0
   -2.2796   -0.6043   -2.8021 H   0  0  0  0  0  0  0  0  0  0  0  0
   -0.4770   -2.9365   -1.9877 H   0  0  0  0  0  0  0  0  0  0  0  0
   -2.0763   -3.0858   -2.6931 H   0  0  0  0  0  0  0  0  0  0  0  0
   -3.9550   -2.9627   -1.4821 H   0  0  0  0  0  0  0  0  0  0  0  0
   -3.8419   -3.0074    0.2875 H   0  0  0  0  0  0  0  0  0  0  0  0
   -5.7931    3.4071   -1.0213 H   0  0  0  0  0  0  0  0  0  0  0  0
   -5.3346    4.7009    1.0496 H   0  0  0  0  0  0  0  0  0  0  0  0
   -3.5116    1.2230    2.8302 H   0  0  0  0  0  0  0  0  0  0  0  0
   -3.2567   -0.7925    1.3766 H   0  0  0  0  0  0  0  0  0  0  0  0
    0.1463   -4.4919    0.3562 H   0  0  0  0  0  0  0  0  0  0  0  0
    2.6261   -4.6189    0.3271 H   0  0  0  0  0  0  0  0  0  0  0  0
    3.9727   -2.5773    0.4175 H   0  0  0  0  0  0  0  0  0  0  0  0
    4.6403   -0.5270   -0.4512 H   0  0  0  0  0  0  0  0  0  0  0  0
    4.7464   -0.5357    1.3334 H   0  0  0  0  0  0  0  0  0  0  0  0
    2.7883    2.1352   -1.6264 H   0  0  0  0  0  0  0  0  0  0  0  0
    4.1529    1.3022   -2.3957 H   0  0  0  0  0  0  0  0  0  0  0  0
    4.0035    3.0611   -2.5233 H   0  0  0  0  0  0  0  0  0  0  0  0
    6.8543    2.4796    3.0268 H   0  0  0  0  0  0  0  0  0  0  0  0
    6.8346    0.7752    2.5456 H   0  0  0  0  0  0  0  0  0  0  0  0
    5.4284    1.4814    3.3756 H   0  0  0  0  0  0  0  0  0  0  0  0
    0.3774   -0.1931    0.6056 H   0  0  0  0  0  0  0  0  0  0  0  0
  1  2  1  0
  2  3  1  0
  3  4  1  0
  4  5  1  0
  5  6  2  0
  6  7  1  0
  7  8  2  0
  7  9  1  0
  9 10  2  0
 10 11  1  0
 11 12  2  0
 12 13  1  0
 12 14  1  0
 14 15  2  0
 15 16  1  0
  3 17  1  0
 17 18  2  0
 17 19  1  0
 19 20  2  0
 20 21  1  0
 21 22  2  0
 22 23  1  0
 23 24  1  0
 24 25  1  0
 25 26  1  0
 26 27  1  0
 27 28  1  0
 27 29  2  0
 29 30  1  0
 30 31  1  0
 31 32  1  0
 23 33  2  0
 16  5  1  0
 33 19  1  0
 15  9  1  0
 31 26  2  0
  1 34  1  0
  1 35  1  0
  1 36  1  0
  2 37  1  0
  2 38  1  0
  4 39  1  0
  4 40  1  0
 10 41  1  0
 11 42  1  0
 14 43  1  0
 16 44  1  0
 20 45  1  0
 21 46  1  0
 22 47  1  0
 25 48  1  0
 25 49  1  0
 28 50  1  0
 28 51  1  0
 28 52  1  0
 32 53  1  0
 32 54  1  0
 32 55  1  0
 33 56  1  0
M  END
$$$$
