
     RDKit          3D

 43 45  0  0  0  0  0  0  0  0999 V2000
    3.5268   -0.6425    1.8369 O   0  0  0  0  0  0  0  0  0  0  0  0
    2.6858    0.1320    1.3850 C   0  0  0  0  0  0  0  0  0  0  0  0
    1.9420    1.1198    2.2857 C   0  0  0  0  0  0  0  0  0  0  0  0
    0.5048    0.8990    2.3062 N   0  0  0  0  0  0  0  0  0  0  0  0
   -0.3363    1.3497    1.3171 C   0  0  0  0  0  0  0  0  0  0  0  0
    0.0920    1.9322    0.3206 O   0  0  0  0  0  0  0  0  0  0  0  0
   -1.8211    1.0459    1.5333 C   0  0  0  0  0  0  0  0  0  0  0  0
   -2.5959    2.3565    1.5229 C   0  0  0  0  0  0  0  0  0  0  0  0
   -4.0054    2.1169    1.6210 O   0  0  0  0  0  0  0  0  0  0  0  0
   -4.2934    1.1877    2.5869 C   0  0  0  0  0  0  0  0  0  0  0  0
   -5.6216    1.1022    2.9994 C   0  0  0  0  0  0  0  0  0  0  0  0
   -5.9856    0.1869    3.9880 C   0  0  0  0  0  0  0  0  0  0  0  0
   -5.0213   -0.6432    4.5610 C   0  0  0  0  0  0  0  0  0  0  0  0
   -3.6932   -0.5659    4.1412 C   0  0  0  0  0  0  0  0  0  0  0  0
   -3.3319    0.3409    3.1464 C   0  0  0  0  0  0  0  0  0  0  0  0
   -2.0131    0.3505    2.7734 O   0  0  0  0  0  0  0  0  0  0  0  0
    2.3328    0.2609    0.0488 N   0  0  0  0  0  0  0  0  0  0  0  0
    2.9251   -0.5115   -0.9031 N   0  0  0  0  0  0  0  0  0  0  0  0
    2.4939   -0.3181   -2.1084 C   0  0  0  0  0  0  0  0  0  0  0  0
    3.0424   -1.0608   -3.2588 C   0  0  0  0  0  0  0  0  0  0  0  0
    4.0903   -1.9718   -3.0928 C   0  0  0  0  0  0  0  0  0  0  0  0
    4.6059   -2.6464   -4.2015 C   0  0  0  0  0  0  0  0  0  0  0  0
    4.0720   -2.4170   -5.4707 C   0  0  0  0  0  0  0  0  0  0  0  0
    3.0200   -1.5155   -5.6193 C   0  0  0  0  0  0  0  0  0  0  0  0
    2.4646   -1.2677   -6.8397 O   0  0  0  0  0  0  0  0  0  0  0  0
    2.4998   -0.8329   -4.5251 C   0  0  0  0  0  0  0  0  0  0  0  0
    2.1534    2.1413    1.9480 H   0  0  0  0  0  0  0  0  0  0  0  0
    2.3052    1.0085    3.3129 H   0  0  0  0  0  0  0  0  0  0  0  0
    0.1114    0.2806    3.0117 H   0  0  0  0  0  0  0  0  0  0  0  0
   -2.1432    0.3791    0.7225 H   0  0  0  0  0  0  0  0  0  0  0  0
   -2.4223    2.9102    0.5930 H   0  0  0  0  0  0  0  0  0  0  0  0
   -2.2968    3.0072    2.3543 H   0  0  0  0  0  0  0  0  0  0  0  0
   -6.3705    1.7543    2.5589 H   0  0  0  0  0  0  0  0  0  0  0  0
   -7.0207    0.1240    4.3138 H   0  0  0  0  0  0  0  0  0  0  0  0
   -5.3058   -1.3573    5.3301 H   0  0  0  0  0  0  0  0  0  0  0  0
   -2.9463   -1.2189    4.5827 H   0  0  0  0  0  0  0  0  0  0  0  0
    1.6185    0.9433   -0.2150 H   0  0  0  0  0  0  0  0  0  0  0  0
    1.6963    0.4151   -2.3282 H   0  0  0  0  0  0  0  0  0  0  0  0
    4.5130   -2.1515   -2.1060 H   0  0  0  0  0  0  0  0  0  0  0  0
    5.4283   -3.3469   -4.0737 H   0  0  0  0  0  0  0  0  0  0  0  0
    4.4834   -2.9490   -6.3228 H   0  0  0  0  0  0  0  0  0  0  0  0
    2.9338   -1.7955   -7.5084 H   0  0  0  0  0  0  0  0  0  0  0  0
    1.6830   -0.1326   -4.6716 H   0  0  0  0  0  0  0  0  0  0  0  0
  1  2  2  0
  2  3  1  0
  3  4  1  0
  4  5  1  0
  5  6  2  0
  5  7  1  0
  7  8  1  0
  8  9  1  0
  9 10  1  0
 10 11  2  0
 11 12  1  0
 12 13  2  0
 13 14  1  0
 14 15  2  0
 15 16  1  0
  2 17  1  0
 17 18  1  0
 18 19  2  3
 19 20  1  0
 20 21  2  0
 21 22  1  0
 22 23  2  0
 23 24  1  0
 24 25  1  0
 24 26  2  0
 16  7  1  0
 26 20  1  0
 15 10  1  0
  3 27  1  0
  3 28  1  0
  4 29  1  0
  7 30  1  0
  8 31  1  0
  8 32  1  0
 11 33  1  0
 12 34  1  0
 13 35  1  0
 14 36  1  0
 17 37  1  0
 19 38  1  0
 21 39  1  0
 22 40  1  0
 23 41  1  0
 25 42  1  0
 26 43  1  0
M  END
$$$$
