
     RDKit          3D

 42 44  0  0  0  0  0  0  0  0999 V2000
    4.3464   -1.0108   -0.6074 C   0  0  0  0  0  0  0  0  0  0  0  0
    3.9893    0.0567    0.4153 C   0  0  0  0  0  0  0  0  0  0  0  0
    2.5966   -0.1225    1.0254 C   0  0  0  0  0  0  0  0  0  0  0  0
    1.4605    0.0671    0.0099 C   0  0  0  0  0  0  0  0  0  0  0  0
    0.0550   -0.0071    0.6699 C   0  0  0  0  0  0  0  0  0  0  0  0
   -0.7397   -1.1661    0.0978 C   0  0  0  0  0  0  0  0  0  0  0  0
   -1.8024   -0.9815   -0.7075 C   0  0  0  0  0  0  0  0  0  0  0  0
   -2.6295   -2.0908   -1.2914 C   0  0  0  0  0  0  0  0  0  0  0  0
   -2.4917   -3.3850   -0.4998 C   0  0  0  0  0  0  0  0  0  0  0  0
   -1.0312   -3.7095   -0.2395 C   0  0  0  0  0  0  0  0  0  0  0  0
   -0.3320   -2.5575    0.4490 C   0  0  0  0  0  0  0  0  0  0  0  0
    0.5847   -2.7600    1.2416 O   0  0  0  0  0  0  0  0  0  0  0  0
   -2.2584    0.2853   -1.0455 O   0  0  0  0  0  0  0  0  0  0  0  0
   -1.7535    1.3869   -0.3692 C   0  0  0  0  0  0  0  0  0  0  0  0
   -0.6919    1.2952    0.4529 C   0  0  0  0  0  0  0  0  0  0  0  0
   -0.2657    2.5015    1.2206 C   0  0  0  0  0  0  0  0  0  0  0  0
    0.6631    2.4349    2.0226 O   0  0  0  0  0  0  0  0  0  0  0  0
   -1.0491    3.7857    1.0499 C   0  0  0  0  0  0  0  0  0  0  0  0
   -1.6492    3.8898   -0.3414 C   0  0  0  0  0  0  0  0  0  0  0  0
   -2.4907    2.6614   -0.6628 C   0  0  0  0  0  0  0  0  0  0  0  0
    5.3863   -0.8904   -0.9278 H   0  0  0  0  0  0  0  0  0  0  0  0
    4.2366   -2.0140   -0.1836 H   0  0  0  0  0  0  0  0  0  0  0  0
    3.7164   -0.9401   -1.4988 H   0  0  0  0  0  0  0  0  0  0  0  0
    4.7285    0.0231    1.2246 H   0  0  0  0  0  0  0  0  0  0  0  0
    4.0708    1.0475   -0.0465 H   0  0  0  0  0  0  0  0  0  0  0  0
    2.4869    0.6072    1.8352 H   0  0  0  0  0  0  0  0  0  0  0  0
    2.5295   -1.1132    1.4871 H   0  0  0  0  0  0  0  0  0  0  0  0
    1.6056    1.0326   -0.4926 H   0  0  0  0  0  0  0  0  0  0  0  0
    1.5544   -0.6932   -0.7752 H   0  0  0  0  0  0  0  0  0  0  0  0
    0.1401   -0.1666    1.7533 H   0  0  0  0  0  0  0  0  0  0  0  0
   -2.3224   -2.2503   -2.3320 H   0  0  0  0  0  0  0  0  0  0  0  0
   -3.6869   -1.8010   -1.3077 H   0  0  0  0  0  0  0  0  0  0  0  0
   -3.0193   -3.2825    0.4577 H   0  0  0  0  0  0  0  0  0  0  0  0
   -2.9703   -4.2079   -1.0424 H   0  0  0  0  0  0  0  0  0  0  0  0
   -0.9669   -4.5928    0.4052 H   0  0  0  0  0  0  0  0  0  0  0  0
   -0.5009   -3.9250   -1.1736 H   0  0  0  0  0  0  0  0  0  0  0  0
   -0.3718    4.6309    1.2144 H   0  0  0  0  0  0  0  0  0  0  0  0
   -1.8306    3.8138    1.8171 H   0  0  0  0  0  0  0  0  0  0  0  0
   -0.8433    3.9824   -1.0813 H   0  0  0  0  0  0  0  0  0  0  0  0
   -2.2622    4.7946   -0.4210 H   0  0  0  0  0  0  0  0  0  0  0  0
   -2.7714    2.6952   -1.7222 H   0  0  0  0  0  0  0  0  0  0  0  0
   -3.4199    2.6764   -0.0806 H   0  0  0  0  0  0  0  0  0  0  0  0
  1  2  1  0
  2  3  1  0
  3  4  1  0
  4  5  1  0
  5  6  1  0
  6  7  2  0
  7  8  1  0
  8  9  1  0
  9 10  1  0
 10 11  1  0
 11 12  2  0
  7 13  1  0
 13 14  1  0
 14 15  2  0
 15 16  1  0
 16 17  2  0
 16 18  1  0
 18 19  1  0
 19 20  1  0
 15  5  1  0
 11  6  1  0
 20 14  1  0
  1 21  1  0
  1 22  1  0
  1 23  1  0
  2 24  1  0
  2 25  1  0
  3 26  1  0
  3 27  1  0
  4 28  1  0
  4 29  1  0
  5 30  1  0
  8 31  1  0
  8 32  1  0
  9 33  1  0
  9 34  1  0
 10 35  1  0
 10 36  1  0
 18 37  1  0
 18 38  1  0
 19 39  1  0
 19 40  1  0
 20 41  1  0
 20 42  1  0
M  END
$$$$
