
     RDKit          3D

 55 58  0  0  0  0  0  0  0  0999 V2000
   -8.5236   -2.2956    2.0858 C   0  0  0  0  0  0  0  0  0  0  0  0
   -8.7373   -0.8248    1.7467 C   0  0  0  0  0  0  0  0  0  0  0  0
   -9.3446   -0.0809    2.9299 C   0  0  0  0  0  0  0  0  0  0  0  0
   -7.4683   -0.2060    1.4638 O   0  0  0  0  0  0  0  0  0  0  0  0
   -7.0076   -0.3415    0.1953 C   0  0  0  0  0  0  0  0  0  0  0  0
   -7.5672   -0.9372   -0.7116 O   0  0  0  0  0  0  0  0  0  0  0  0
   -5.6971    0.3469    0.0394 C   0  0  0  0  0  0  0  0  0  0  0  0
   -5.0578    0.9992    1.1017 C   0  0  0  0  0  0  0  0  0  0  0  0
   -3.8257    1.6297    0.9016 C   0  0  0  0  0  0  0  0  0  0  0  0
   -3.2196    1.6248   -0.3623 C   0  0  0  0  0  0  0  0  0  0  0  0
   -1.8808    2.2848   -0.5746 C   0  0  0  0  0  0  0  0  0  0  0  0
   -0.8784    1.2717   -0.4654 O   0  0  0  0  0  0  0  0  0  0  0  0
    0.3821    1.7313   -0.6452 C   0  0  0  0  0  0  0  0  0  0  0  0
    0.6923    2.8891   -0.8744 O   0  0  0  0  0  0  0  0  0  0  0  0
    1.3654    0.6198   -0.5299 C   0  0  0  0  0  0  0  0  0  0  0  0
    0.9785   -0.6961   -0.2467 C   0  0  0  0  0  0  0  0  0  0  0  0
    1.9399   -1.7022   -0.1514 C   0  0  0  0  0  0  0  0  0  0  0  0
    3.2909   -1.4000   -0.3386 C   0  0  0  0  0  0  0  0  0  0  0  0
    3.7020   -0.0886   -0.6232 C   0  0  0  0  0  0  0  0  0  0  0  0
    5.1053    0.2507   -0.8247 C   0  0  0  0  0  0  0  0  0  0  0  0
    5.6660    1.4136   -1.0879 N   0  0  0  0  0  0  0  0  0  0  0  0
    7.0226    1.1816   -1.1872 N   0  0  0  0  0  0  0  0  0  0  0  0
    7.1996   -0.1078   -0.9781 C   0  0  0  0  0  0  0  0  0  0  0  0
    8.4253   -0.8962   -0.9683 C   0  0  0  0  0  0  0  0  0  0  0  0
    9.6558   -0.2675   -1.2152 C   0  0  0  0  0  0  0  0  0  0  0  0
   10.8468   -0.9983   -1.2129 C   0  0  0  0  0  0  0  0  0  0  0  0
   10.8227   -2.3685   -0.9633 C   0  0  0  0  0  0  0  0  0  0  0  0
    9.6103   -3.0086   -0.7161 C   0  0  0  0  0  0  0  0  0  0  0  0
    8.4187   -2.2775   -0.7185 C   0  0  0  0  0  0  0  0  0  0  0  0
    6.0205   -0.7670   -0.7391 O   0  0  0  0  0  0  0  0  0  0  0  0
    2.7247    0.9155   -0.7154 C   0  0  0  0  0  0  0  0  0  0  0  0
   -3.8566    0.9611   -1.4200 C   0  0  0  0  0  0  0  0  0  0  0  0
   -5.0874    0.3299   -1.2217 C   0  0  0  0  0  0  0  0  0  0  0  0
   -9.4667   -2.7809    2.3555 H   0  0  0  0  0  0  0  0  0  0  0  0
   -8.0910   -2.8334    1.2358 H   0  0  0  0  0  0  0  0  0  0  0  0
   -7.8197   -2.4074    2.9180 H   0  0  0  0  0  0  0  0  0  0  0  0
   -9.4137   -0.7238    0.8890 H   0  0  0  0  0  0  0  0  0  0  0  0
  -10.3185   -0.4972    3.2049 H   0  0  0  0  0  0  0  0  0  0  0  0
   -9.4745    0.9793    2.6862 H   0  0  0  0  0  0  0  0  0  0  0  0
   -8.6840   -0.1237    3.8031 H   0  0  0  0  0  0  0  0  0  0  0  0
   -5.5042    1.0234    2.0930 H   0  0  0  0  0  0  0  0  0  0  0  0
   -3.3405    2.1240    1.7414 H   0  0  0  0  0  0  0  0  0  0  0  0
   -1.8493    2.7485   -1.5685 H   0  0  0  0  0  0  0  0  0  0  0  0
   -1.7173    3.0630    0.1812 H   0  0  0  0  0  0  0  0  0  0  0  0
   -0.0680   -0.9537   -0.0979 H   0  0  0  0  0  0  0  0  0  0  0  0
    1.6369   -2.7238    0.0683 H   0  0  0  0  0  0  0  0  0  0  0  0
    4.0204   -2.2043   -0.2594 H   0  0  0  0  0  0  0  0  0  0  0  0
    9.6935    0.8033   -1.4126 H   0  0  0  0  0  0  0  0  0  0  0  0
   11.7914   -0.4958   -1.4063 H   0  0  0  0  0  0  0  0  0  0  0  0
   11.7494   -2.9373   -0.9616 H   0  0  0  0  0  0  0  0  0  0  0  0
    9.5912   -4.0782   -0.5212 H   0  0  0  0  0  0  0  0  0  0  0  0
    7.4856   -2.8012   -0.5228 H   0  0  0  0  0  0  0  0  0  0  0  0
    3.0247    1.9410   -0.9362 H   0  0  0  0  0  0  0  0  0  0  0  0
   -3.3954    0.9295   -2.4055 H   0  0  0  0  0  0  0  0  0  0  0  0
   -5.5679   -0.1776   -2.0566 H   0  0  0  0  0  0  0  0  0  0  0  0
  1  2  1  0
  2  3  1  0
  2  4  1  0
  4  5  1  0
  5  6  2  0
  5  7  1  0
  7  8  2  0
  8  9  1  0
  9 10  2  0
 10 11  1  0
 11 12  1  0
 12 13  1  0
 13 14  2  0
 13 15  1  0
 15 16  2  0
 16 17  1  0
 17 18  2  0
 18 19  1  0
 19 20  1  0
 20 21  2  0
 21 22  1  0
 22 23  2  0
 23 24  1  0
 24 25  2  0
 25 26  1  0
 26 27  2  0
 27 28  1  0
 28 29  2  0
 23 30  1  0
 19 31  2  0
 10 32  1  0
 32 33  2  0
 33  7  1  0
 31 15  1  0
 30 20  1  0
 29 24  1  0
  1 34  1  0
  1 35  1  0
  1 36  1  0
  2 37  1  0
  3 38  1  0
  3 39  1  0
  3 40  1  0
  8 41  1  0
  9 42  1  0
 11 43  1  0
 11 44  1  0
 16 45  1  0
 17 46  1  0
 18 47  1  0
 25 48  1  0
 26 49  1  0
 27 50  1  0
 28 51  1  0
 29 52  1  0
 31 53  1  0
 32 54  1  0
 33 55  1  0
M  END
$$$$
