
     RDKit          3D

 75 77  0  0  0  0  0  0  0  0999 V2000
   -4.4906    1.6874    5.5480 C   0  0  0  0  0  0  0  0  0  0  0  0
   -3.2958    0.7735    5.3354 C   0  0  0  0  0  0  0  0  0  0  0  0
   -3.1478    0.4622    3.9491 O   0  0  0  0  0  0  0  0  0  0  0  0
   -2.2311    1.1699    3.2240 C   0  0  0  0  0  0  0  0  0  0  0  0
   -1.6984    2.4103    3.5649 C   0  0  0  0  0  0  0  0  0  0  0  0
   -0.7722    3.0285    2.7213 C   0  0  0  0  0  0  0  0  0  0  0  0
   -0.3722    2.4075    1.5376 C   0  0  0  0  0  0  0  0  0  0  0  0
   -0.8977    1.1625    1.1872 C   0  0  0  0  0  0  0  0  0  0  0  0
   -0.5148    0.5237   -0.0244 N   0  0  0  0  0  0  0  0  0  0  0  0
    0.8128    0.2879   -0.3826 C   0  0  0  0  0  0  0  0  0  0  0  0
    1.1444   -0.0352   -1.5263 O   0  0  0  0  0  0  0  0  0  0  0  0
    1.8719    0.3947    0.7074 C   0  0  0  0  0  0  0  0  0  0  0  0
    3.1678   -0.2846    0.2717 C   0  0  0  0  0  0  0  0  0  0  0  0
    4.2706   -0.1275    1.2978 C   0  0  0  0  0  0  0  0  0  0  0  0
    4.0986    0.4409    2.3714 O   0  0  0  0  0  0  0  0  0  0  0  0
    5.4456   -0.6990    0.8673 N   0  0  0  0  0  0  0  0  0  0  0  0
    6.6386   -0.6811    1.5526 C   0  0  0  0  0  0  0  0  0  0  0  0
    6.9490   -0.1014    2.8020 C   0  0  0  0  0  0  0  0  0  0  0  0
    8.2824   -0.3740    2.9873 C   0  0  0  0  0  0  0  0  0  0  0  0
    9.2551   -0.0711    4.0499 C   0  0  0  0  0  0  0  0  0  0  0  0
    8.7456   -1.0695    1.9163 O   0  0  0  0  0  0  0  0  0  0  0  0
    7.7143   -1.2709    1.0189 N   0  0  0  0  0  0  0  0  0  0  0  0
   -1.5852    0.3282   -1.0345 C   0  0  0  0  0  0  0  0  0  0  0  0
   -1.3551    1.2400   -2.2802 C   0  0  0  0  0  0  0  0  0  0  0  0
   -0.7557    2.3148   -2.1891 O   0  0  0  0  0  0  0  0  0  0  0  0
   -1.9577    0.8294   -3.4594 N   0  0  0  0  0  0  0  0  0  0  0  0
   -1.7614    1.4842   -4.7618 C   0  0  0  0  0  0  0  0  0  0  0  0
   -0.2779    1.4616   -5.1642 C   0  0  0  0  0  0  0  0  0  0  0  0
   -2.5615    0.6945   -5.8148 C   0  0  0  0  0  0  0  0  0  0  0  0
   -2.2869    2.9288   -4.7503 C   0  0  0  0  0  0  0  0  0  0  0  0
   -1.9228   -1.1432   -1.2924 C   0  0  0  0  0  0  0  0  0  0  0  0
   -3.0940   -1.6905   -0.7375 C   0  0  0  0  0  0  0  0  0  0  0  0
   -3.4409   -3.0312   -0.9427 C   0  0  0  0  0  0  0  0  0  0  0  0
   -2.6242   -3.8553   -1.7099 C   0  0  0  0  0  0  0  0  0  0  0  0
   -2.8455   -5.1744   -1.9913 O   0  0  0  0  0  0  0  0  0  0  0  0
   -3.9668   -5.7865   -1.3672 C   0  0  0  0  0  0  0  0  0  0  0  0
   -1.4655   -3.3237   -2.2715 C   0  0  0  0  0  0  0  0  0  0  0  0
   -1.1141   -1.9866   -2.0660 C   0  0  0  0  0  0  0  0  0  0  0  0
   -1.8424    0.5619    2.0256 C   0  0  0  0  0  0  0  0  0  0  0  0
   -4.6694    1.8496    6.6159 H   0  0  0  0  0  0  0  0  0  0  0  0
   -4.3390    2.6599    5.0676 H   0  0  0  0  0  0  0  0  0  0  0  0
   -5.3905    1.2521    5.1013 H   0  0  0  0  0  0  0  0  0  0  0  0
   -3.4898   -0.1768    5.8469 H   0  0  0  0  0  0  0  0  0  0  0  0
   -2.3802    1.1748    5.7837 H   0  0  0  0  0  0  0  0  0  0  0  0
   -1.9943    2.9332    4.4687 H   0  0  0  0  0  0  0  0  0  0  0  0
   -0.3682    4.0043    2.9806 H   0  0  0  0  0  0  0  0  0  0  0  0
    0.3166    2.9280    0.8747 H   0  0  0  0  0  0  0  0  0  0  0  0
    2.0789    1.4517    0.8983 H   0  0  0  0  0  0  0  0  0  0  0  0
    1.5064   -0.0709    1.6294 H   0  0  0  0  0  0  0  0  0  0  0  0
    3.5228    0.1467   -0.6715 H   0  0  0  0  0  0  0  0  0  0  0  0
    2.9909   -1.3541    0.1096 H   0  0  0  0  0  0  0  0  0  0  0  0
    5.4950   -1.1549   -0.0334 H   0  0  0  0  0  0  0  0  0  0  0  0
    6.3007    0.4366    3.4768 H   0  0  0  0  0  0  0  0  0  0  0  0
    9.7844    0.8595    3.8241 H   0  0  0  0  0  0  0  0  0  0  0  0
    9.9952   -0.8717    4.1482 H   0  0  0  0  0  0  0  0  0  0  0  0
    8.7530    0.0455    5.0154 H   0  0  0  0  0  0  0  0  0  0  0  0
   -2.5022    0.7745   -0.6196 H   0  0  0  0  0  0  0  0  0  0  0  0
   -2.3113   -0.1198   -3.4858 H   0  0  0  0  0  0  0  0  0  0  0  0
   -0.1357    1.8643   -6.1730 H   0  0  0  0  0  0  0  0  0  0  0  0
    0.3400    2.0578   -4.4857 H   0  0  0  0  0  0  0  0  0  0  0  0
    0.1182    0.4395   -5.1488 H   0  0  0  0  0  0  0  0  0  0  0  0
   -2.2178   -0.3456   -5.8751 H   0  0  0  0  0  0  0  0  0  0  0  0
   -2.4610    1.1378   -6.8122 H   0  0  0  0  0  0  0  0  0  0  0  0
   -3.6276    0.6715   -5.5619 H   0  0  0  0  0  0  0  0  0  0  0  0
   -1.7307    3.5705   -4.0622 H   0  0  0  0  0  0  0  0  0  0  0  0
   -3.3388    2.9590   -4.4461 H   0  0  0  0  0  0  0  0  0  0  0  0
   -2.2108    3.3811   -5.7452 H   0  0  0  0  0  0  0  0  0  0  0  0
   -3.7613   -1.0723   -0.1364 H   0  0  0  0  0  0  0  0  0  0  0  0
   -4.3581   -3.3953   -0.4929 H   0  0  0  0  0  0  0  0  0  0  0  0
   -3.9795   -6.8395   -1.6645 H   0  0  0  0  0  0  0  0  0  0  0  0
   -4.9040   -5.3343   -1.7077 H   0  0  0  0  0  0  0  0  0  0  0  0
   -3.8817   -5.7492   -0.2760 H   0  0  0  0  0  0  0  0  0  0  0  0
   -0.8149   -3.9649   -2.8656 H   0  0  0  0  0  0  0  0  0  0  0  0
   -0.2011   -1.6218   -2.5310 H   0  0  0  0  0  0  0  0  0  0  0  0
   -2.2528   -0.4132    1.7837 H   0  0  0  0  0  0  0  0  0  0  0  0
  1  2  1  0
  2  3  1  0
  3  4  1  0
  4  5  2  0
  5  6  1  0
  6  7  2  0
  7  8  1  0
  8  9  1  0
  9 10  1  0
 10 11  2  0
 10 12  1  0
 12 13  1  0
 13 14  1  0
 14 15  2  0
 14 16  1  0
 16 17  1  0
 17 18  1  0
 18 19  2  0
 19 20  1  0
 19 21  1  0
 21 22  1  0
  9 23  1  0
 23 24  1  0
 24 25  2  0
 24 26  1  0
 26 27  1  0
 27 28  1  0
 27 29  1  0
 27 30  1  0
 23 31  1  0
 31 32  2  0
 32 33  1  0
 33 34  2  0
 34 35  1  0
 35 36  1  0
 34 37  1  0
 37 38  2  0
  8 39  2  0
 39  4  1  0
 22 17  2  0
 38 31  1  0
  1 40  1  0
  1 41  1  0
  1 42  1  0
  2 43  1  0
  2 44  1  0
  5 45  1  0
  6 46  1  0
  7 47  1  0
 12 48  1  0
 12 49  1  0
 13 50  1  0
 13 51  1  0
 16 52  1  0
 18 53  1  0
 20 54  1  0
 20 55  1  0
 20 56  1  0
 23 57  1  0
 26 58  1  0
 28 59  1  0
 28 60  1  0
 28 61  1  0
 29 62  1  0
 29 63  1  0
 29 64  1  0
 30 65  1  0
 30 66  1  0
 30 67  1  0
 32 68  1  0
 33 69  1  0
 36 70  1  0
 36 71  1  0
 36 72  1  0
 37 73  1  0
 38 74  1  0
 39 75  1  0
M  END
$$$$
