
     RDKit          3D

 40 41  0  0  0  0  0  0  0  0999 V2000
   -2.3700    0.1114   -2.7653 O   0  0  0  0  0  0  0  0  0  0  0  0
   -1.5855    0.2025   -1.8258 C   0  0  0  0  0  0  0  0  0  0  0  0
   -0.0721    0.1041   -2.0566 C   0  0  0  0  0  0  0  0  0  0  0  0
    0.6991   -0.1206   -0.8739 O   0  0  0  0  0  0  0  0  0  0  0  0
    0.7769   -1.4184   -0.4769 C   0  0  0  0  0  0  0  0  0  0  0  0
    0.1831   -2.3437   -1.0131 O   0  0  0  0  0  0  0  0  0  0  0  0
    1.6455   -1.5779    0.7503 C   0  0  0  0  0  0  0  0  0  0  0  0
    3.0762   -1.0481    0.6401 C   0  0  0  0  0  0  0  0  0  0  0  0
    3.8286   -1.4737   -0.6262 C   0  0  0  0  0  0  0  0  0  0  0  0
    4.8650   -0.3769   -0.8139 C   0  0  0  0  0  0  0  0  0  0  0  0
    4.0888    0.8834   -0.4690 C   0  0  0  0  0  0  0  0  0  0  0  0
    3.2162    0.4827    0.7171 C   0  0  0  0  0  0  0  0  0  0  0  0
   -1.9106    0.4652   -0.5059 N   0  0  0  0  0  0  0  0  0  0  0  0
   -3.1906    0.6011    0.0897 C   0  0  0  0  0  0  0  0  0  0  0  0
   -4.3644    0.4679   -0.6650 C   0  0  0  0  0  0  0  0  0  0  0  0
   -5.6293    0.5995   -0.0783 C   0  0  0  0  0  0  0  0  0  0  0  0
   -5.7528    0.8673    1.2798 C   0  0  0  0  0  0  0  0  0  0  0  0
   -4.6081    1.0049    2.0592 C   0  0  0  0  0  0  0  0  0  0  0  0
   -3.3337    0.8733    1.4717 C   0  0  0  0  0  0  0  0  0  0  0  0
   -2.1675    1.0361    2.3551 N   0  0  0  0  0  4  0  0  0  0  0  0
   -2.3571    1.5063    3.4860 O   0  0  0  0  0  0  0  0  0  0  0  0
   -1.0529    0.6974    1.9246 O   0  0  0  0  0  1  0  0  0  0  0  0
    0.2543    1.0626   -2.4741 H   0  0  0  0  0  0  0  0  0  0  0  0
    0.1313   -0.6685   -2.8074 H   0  0  0  0  0  0  0  0  0  0  0  0
    1.1260   -1.1234    1.6009 H   0  0  0  0  0  0  0  0  0  0  0  0
    1.6960   -2.6551    0.9560 H   0  0  0  0  0  0  0  0  0  0  0  0
    3.6252   -1.4533    1.5027 H   0  0  0  0  0  0  0  0  0  0  0  0
    3.1732   -1.5076   -1.5031 H   0  0  0  0  0  0  0  0  0  0  0  0
    4.2907   -2.4596   -0.5161 H   0  0  0  0  0  0  0  0  0  0  0  0
    5.2664   -0.3531   -1.8309 H   0  0  0  0  0  0  0  0  0  0  0  0
    5.6990   -0.5152   -0.1159 H   0  0  0  0  0  0  0  0  0  0  0  0
    4.7452    1.7265   -0.2348 H   0  0  0  0  0  0  0  0  0  0  0  0
    3.4537    1.1744   -1.3143 H   0  0  0  0  0  0  0  0  0  0  0  0
    3.7220    0.7514    1.6529 H   0  0  0  0  0  0  0  0  0  0  0  0
    2.2635    1.0195    0.7129 H   0  0  0  0  0  0  0  0  0  0  0  0
   -1.1105    0.5357    0.1257 H   0  0  0  0  0  0  0  0  0  0  0  0
   -4.3389    0.2533   -1.7298 H   0  0  0  0  0  0  0  0  0  0  0  0
   -6.5195    0.4884   -0.6946 H   0  0  0  0  0  0  0  0  0  0  0  0
   -6.7383    0.9674    1.7290 H   0  0  0  0  0  0  0  0  0  0  0  0
   -4.7240    1.2128    3.1217 H   0  0  0  0  0  0  0  0  0  0  0  0
  1  2  2  0
  2  3  1  0
  3  4  1  0
  4  5  1  0
  5  6  2  0
  5  7  1  0
  7  8  1  0
  8  9  1  0
  9 10  1  0
 10 11  1  0
 11 12  1  0
  2 13  1  0
 13 14  1  0
 14 15  2  0
 15 16  1  0
 16 17  2  0
 17 18  1  0
 18 19  2  0
 19 20  1  0
 20 21  2  0
 20 22  1  0
 12  8  1  0
 19 14  1  0
  3 23  1  0
  3 24  1  0
  7 25  1  0
  7 26  1  0
  8 27  1  0
  9 28  1  0
  9 29  1  0
 10 30  1  0
 10 31  1  0
 11 32  1  0
 11 33  1  0
 12 34  1  0
 12 35  1  0
 13 36  1  0
 15 37  1  0
 16 38  1  0
 17 39  1  0
 18 40  1  0
M  CHG  2  20   1  22  -1
M  END
$$$$
