
     RDKit          3D

 37 38  0  0  0  0  0  0  0  0999 V2000
   -4.2308   -0.3795   -2.0574 C   0  0  0  0  0  0  0  0  0  0  0  0
   -3.5195   -0.3355   -0.7804 N   0  0  0  0  0  0  0  0  0  0  0  0
   -2.1707   -0.6813   -0.7387 C   0  0  0  0  0  0  0  0  0  0  0  0
   -1.5458   -1.0896   -1.9132 N   0  0  0  0  0  0  0  0  0  0  0  0
   -1.5075   -0.6055    0.4371 C   0  0  0  0  0  0  0  0  0  0  0  0
   -0.0514   -0.9536    0.5106 C   0  0  0  0  0  0  0  0  0  0  0  0
    0.4249   -1.8158   -0.2378 O   0  0  0  0  0  0  0  0  0  0  0  0
    0.8251   -0.2007    1.5129 C   0  0  0  0  0  0  0  0  0  0  0  0
    2.1899   -0.1420    1.0839 O   0  0  0  0  0  0  0  0  0  0  0  0
    2.4017    0.7247    0.0540 C   0  0  0  0  0  0  0  0  0  0  0  0
    1.5394    1.4422   -0.4305 O   0  0  0  0  0  0  0  0  0  0  0  0
    3.8362    0.6789   -0.3819 C   0  0  0  0  0  0  0  0  0  0  0  0
    4.7092   -0.3100    0.0679 C   0  0  0  0  0  0  0  0  0  0  0  0
    6.0267   -0.2926   -0.3851 C   0  0  0  0  0  0  0  0  0  0  0  0
    6.4316    0.7017   -1.2683 C   0  0  0  0  0  0  0  0  0  0  0  0
    5.4993    1.6445   -1.6678 C   0  0  0  0  0  0  0  0  0  0  0  0
    4.2171    1.6567   -1.2473 N   0  0  0  0  0  0  0  0  0  0  0  0
   -2.2284   -0.1897    1.6571 C   0  0  0  0  0  0  0  0  0  0  0  0
   -1.6676   -0.2647    2.7504 O   0  0  0  0  0  0  0  0  0  0  0  0
   -3.5255    0.2388    1.5041 N   0  0  0  0  0  0  0  0  0  0  0  0
   -4.2493    0.6815    2.6818 C   0  0  0  0  0  0  0  0  0  0  0  0
   -4.2404    0.1061    0.3267 C   0  0  0  0  0  0  0  0  0  0  0  0
   -5.4467    0.3550    0.2767 O   0  0  0  0  0  0  0  0  0  0  0  0
   -4.3260   -1.4224   -2.3762 H   0  0  0  0  0  0  0  0  0  0  0  0
   -3.6778    0.1954   -2.8076 H   0  0  0  0  0  0  0  0  0  0  0  0
   -5.2355    0.0469   -1.9916 H   0  0  0  0  0  0  0  0  0  0  0  0
   -2.1153   -1.7302   -2.4564 H   0  0  0  0  0  0  0  0  0  0  0  0
   -0.6262   -1.5170   -1.7406 H   0  0  0  0  0  0  0  0  0  0  0  0
    0.4495    0.8115    1.6992 H   0  0  0  0  0  0  0  0  0  0  0  0
    0.8152   -0.7556    2.4561 H   0  0  0  0  0  0  0  0  0  0  0  0
    4.3826   -1.0880    0.7496 H   0  0  0  0  0  0  0  0  0  0  0  0
    6.7301   -1.0518   -0.0536 H   0  0  0  0  0  0  0  0  0  0  0  0
    7.4499    0.7400   -1.6398 H   0  0  0  0  0  0  0  0  0  0  0  0
    5.7669    2.4395   -2.3587 H   0  0  0  0  0  0  0  0  0  0  0  0
   -3.5690    1.0682    3.4461 H   0  0  0  0  0  0  0  0  0  0  0  0
   -4.7974   -0.1731    3.0914 H   0  0  0  0  0  0  0  0  0  0  0  0
   -4.9648    1.4670    2.4197 H   0  0  0  0  0  0  0  0  0  0  0  0
  1  2  1  0
  2  3  1  0
  3  4  1  0
  3  5  2  0
  5  6  1  0
  6  7  2  0
  6  8  1  0
  8  9  1  0
  9 10  1  0
 10 11  2  0
 10 12  1  0
 12 13  2  0
 13 14  1  0
 14 15  2  0
 15 16  1  0
 16 17  2  0
  5 18  1  0
 18 19  2  0
 18 20  1  0
 20 21  1  0
 20 22  1  0
 22 23  2  0
 22  2  1  0
 17 12  1  0
  1 24  1  0
  1 25  1  0
  1 26  1  0
  4 27  1  0
  4 28  1  0
  8 29  1  0
  8 30  1  0
 13 31  1  0
 14 32  1  0
 15 33  1  0
 16 34  1  0
 21 35  1  0
 21 36  1  0
 21 37  1  0
M  END
$$$$
