
     RDKit          3D

 61 63  0  0  0  0  0  0  0  0999 V2000
   -6.3736    1.1742    1.5577 C   0  0  0  0  0  0  0  0  0  0  0  0
   -6.0034   -0.2725    1.2622 C   0  0  0  0  0  0  0  0  0  0  0  0
   -4.4832   -0.4575    1.2079 C   0  0  0  0  0  0  0  0  0  0  0  0
   -4.0543   -1.8630    1.0897 N   0  0  0  0  0  0  0  0  0  0  0  0
   -4.4443   -2.4865   -0.1840 C   0  0  0  0  0  0  0  0  0  0  0  0
   -5.6863   -3.3780   -0.0378 C   0  0  0  0  0  0  0  0  0  0  0  0
   -5.4801   -4.5365    0.9292 C   0  0  0  0  0  0  0  0  0  0  0  0
   -2.6112   -2.0124    1.3769 C   0  0  0  0  0  0  0  0  0  0  0  0
   -1.5966   -1.1405    0.6014 C   0  0  0  0  0  0  0  0  0  0  0  0
   -1.6222   -1.4276   -0.8335 N   0  0  0  0  0  0  0  0  0  0  0  0
   -1.3402   -0.2197   -1.9502 S   0  0  0  0  0  6  0  0  0  0  0  0
   -2.2235    0.8869   -1.6600 O   0  0  0  0  0  0  0  0  0  0  0  0
   -1.3206   -0.8623   -3.2459 O   0  0  0  0  0  0  0  0  0  0  0  0
    0.3229    0.2737   -1.5624 C   0  0  0  0  0  0  0  0  0  0  0  0
    0.5425    1.3774   -0.7214 C   0  0  0  0  0  0  0  0  0  0  0  0
    1.8475    1.7765   -0.4125 C   0  0  0  0  0  0  0  0  0  0  0  0
    2.9077    1.0726   -0.9625 C   0  0  0  0  0  0  0  0  0  0  0  0
    2.6789   -0.0084   -1.8177 C   0  0  0  0  0  0  0  0  0  0  0  0
    1.3927   -0.4229   -2.1334 C   0  0  0  0  0  0  0  0  0  0  0  0
    3.9610   -0.5826   -2.3273 C   0  0  0  0  0  0  0  0  0  0  0  0
    5.0070    0.2516   -1.5782 C   0  0  0  0  0  0  0  0  0  0  0  0
    4.2911    1.2776   -0.8025 N   0  0  0  0  0  0  0  0  0  0  0  0
    4.8895    2.2622   -0.0202 C   0  0  0  0  0  0  0  0  0  0  0  0
    4.2413    3.0822    0.6403 O   0  0  0  0  0  0  0  0  0  0  0  0
    6.4520    2.2665   -0.0234 C   0  0  0  0  0  0  0  0  0  0  0  0
    7.1743    3.2552    0.9360 C   0  0  0  0  0  0  0  0  0  0  0  0
    7.2842    4.2372   -0.2428 C   0  0  0  0  0  0  0  0  0  0  0  0
    7.1523    3.0270   -1.1834 C   0  0  0  0  0  0  0  0  0  0  0  0
   -5.9790    1.4905    2.5287 H   0  0  0  0  0  0  0  0  0  0  0  0
   -5.9763    1.8454    0.7895 H   0  0  0  0  0  0  0  0  0  0  0  0
   -7.4617    1.2896    1.5802 H   0  0  0  0  0  0  0  0  0  0  0  0
   -6.4568   -0.5506    0.3051 H   0  0  0  0  0  0  0  0  0  0  0  0
   -6.4343   -0.9165    2.0376 H   0  0  0  0  0  0  0  0  0  0  0  0
   -4.0793    0.1459    0.3861 H   0  0  0  0  0  0  0  0  0  0  0  0
   -4.0705   -0.0449    2.1381 H   0  0  0  0  0  0  0  0  0  0  0  0
   -4.6144   -1.7359   -0.9660 H   0  0  0  0  0  0  0  0  0  0  0  0
   -3.6469   -3.1367   -0.5654 H   0  0  0  0  0  0  0  0  0  0  0  0
   -6.5567   -2.7977    0.2819 H   0  0  0  0  0  0  0  0  0  0  0  0
   -5.9336   -3.7882   -1.0246 H   0  0  0  0  0  0  0  0  0  0  0  0
   -5.3130   -4.1807    1.9505 H   0  0  0  0  0  0  0  0  0  0  0  0
   -4.6227   -5.1485    0.6315 H   0  0  0  0  0  0  0  0  0  0  0  0
   -6.3665   -5.1787    0.9405 H   0  0  0  0  0  0  0  0  0  0  0  0
   -2.4694   -1.8024    2.4456 H   0  0  0  0  0  0  0  0  0  0  0  0
   -2.3348   -3.0695    1.2647 H   0  0  0  0  0  0  0  0  0  0  0  0
   -1.7875   -0.0820    0.8006 H   0  0  0  0  0  0  0  0  0  0  0  0
   -0.5913   -1.3650    0.9757 H   0  0  0  0  0  0  0  0  0  0  0  0
   -1.4605   -2.3765   -1.1619 H   0  0  0  0  0  0  0  0  0  0  0  0
   -0.2959    1.9327   -0.3051 H   0  0  0  0  0  0  0  0  0  0  0  0
    2.0020    2.6287    0.2412 H   0  0  0  0  0  0  0  0  0  0  0  0
    1.2254   -1.2560   -2.8100 H   0  0  0  0  0  0  0  0  0  0  0  0
    4.0482   -0.4406   -3.4091 H   0  0  0  0  0  0  0  0  0  0  0  0
    4.0539   -1.6459   -2.0867 H   0  0  0  0  0  0  0  0  0  0  0  0
    5.5821   -0.3734   -0.8855 H   0  0  0  0  0  0  0  0  0  0  0  0
    5.7079    0.7317   -2.2689 H   0  0  0  0  0  0  0  0  0  0  0  0
    6.8481    1.2522    0.1167 H   0  0  0  0  0  0  0  0  0  0  0  0
    8.1429    2.8864    1.2944 H   0  0  0  0  0  0  0  0  0  0  0  0
    6.6012    3.6147    1.7947 H   0  0  0  0  0  0  0  0  0  0  0  0
    6.4468    4.9412   -0.3096 H   0  0  0  0  0  0  0  0  0  0  0  0
    8.2221    4.7934   -0.3127 H   0  0  0  0  0  0  0  0  0  0  0  0
    8.1115    2.5860   -1.4784 H   0  0  0  0  0  0  0  0  0  0  0  0
    6.5538    3.2013   -2.0817 H   0  0  0  0  0  0  0  0  0  0  0  0
  1  2  1  0
  2  3  1  0
  3  4  1  0
  4  5  1  0
  5  6  1  0
  6  7  1  0
  4  8  1  0
  8  9  1  0
  9 10  1  0
 10 11  1  0
 11 12  2  0
 11 13  2  0
 11 14  1  0
 14 15  2  0
 15 16  1  0
 16 17  2  0
 17 18  1  0
 18 19  2  0
 18 20  1  0
 20 21  1  0
 21 22  1  0
 22 23  1  0
 23 24  2  0
 23 25  1  0
 25 26  1  0
 26 27  1  0
 27 28  1  0
 19 14  1  0
 28 25  1  0
 22 17  1  0
  1 29  1  0
  1 30  1  0
  1 31  1  0
  2 32  1  0
  2 33  1  0
  3 34  1  0
  3 35  1  0
  5 36  1  0
  5 37  1  0
  6 38  1  0
  6 39  1  0
  7 40  1  0
  7 41  1  0
  7 42  1  0
  8 43  1  0
  8 44  1  0
  9 45  1  0
  9 46  1  0
 10 47  1  0
 15 48  1  0
 16 49  1  0
 19 50  1  0
 20 51  1  0
 20 52  1  0
 21 53  1  0
 21 54  1  0
 25 55  1  0
 26 56  1  0
 26 57  1  0
 27 58  1  0
 27 59  1  0
 28 60  1  0
 28 61  1  0
M  END
$$$$
