
     RDKit          3D

 46 48  0  0  0  0  0  0  0  0999 V2000
   -0.9854    0.9771    0.8184 O   0  0  0  0  0  0  0  0  0  0  0  0
   -0.7182    0.0851    0.0223 C   0  0  0  0  0  0  0  0  0  0  0  0
    0.7106   -0.3543   -0.2531 C   0  0  0  0  0  0  0  0  0  0  0  0
    1.7251    0.5667    0.4308 C   0  0  0  0  0  0  0  0  0  0  0  0
    3.1316    0.2780    0.0494 N   0  0  0  0  0  0  0  0  0  0  0  0
    3.5697   -1.0185    0.5909 C   0  0  0  0  0  0  0  0  0  0  0  0
    4.9841   -1.4700    0.2023 C   0  0  0  0  0  0  0  0  0  0  0  0
    6.0853   -0.6965    0.9165 C   0  0  0  0  0  0  0  0  0  0  0  0
    6.4476    0.6361    0.2759 C   0  0  0  0  0  0  0  0  0  0  0  0
    5.3004    1.4550   -0.3021 C   0  0  0  0  0  0  0  0  0  0  0  0
    3.9893    1.3995    0.4820 C   0  0  0  0  0  0  0  0  0  0  0  0
   -1.6241   -0.6660   -0.7120 N   0  0  0  0  0  0  0  0  0  0  0  0
   -3.0302   -0.5593   -0.7156 C   0  0  0  0  0  0  0  0  0  0  0  0
   -3.7328   -1.4516   -1.5398 C   0  0  0  0  0  0  0  0  0  0  0  0
   -5.1286   -1.4147   -1.6086 C   0  0  0  0  0  0  0  0  0  0  0  0
   -5.8330   -0.4822   -0.8560 C   0  0  0  0  0  0  0  0  0  0  0  0
   -5.1430    0.3927   -0.0108 C   0  0  0  0  0  0  0  0  0  0  0  0
   -3.7470    0.3658    0.0471 C   0  0  0  0  0  0  0  0  0  0  0  0
   -5.7732    1.3155    0.7856 O   0  0  0  0  0  0  0  0  0  0  0  0
   -7.1697    1.0269    0.9131 C   0  0  0  0  0  0  0  0  0  0  0  0
   -7.7744    0.7082   -0.4437 C   0  0  0  0  0  0  0  0  0  0  0  0
   -7.1978   -0.4843   -0.9896 O   0  0  0  0  0  0  0  0  0  0  0  0
    0.8050   -1.3831    0.1089 H   0  0  0  0  0  0  0  0  0  0  0  0
    0.8745   -0.3470   -1.3383 H   0  0  0  0  0  0  0  0  0  0  0  0
    1.6031    0.5307    1.5217 H   0  0  0  0  0  0  0  0  0  0  0  0
    1.4776    1.5924    0.1254 H   0  0  0  0  0  0  0  0  0  0  0  0
    2.9051   -1.8029    0.2107 H   0  0  0  0  0  0  0  0  0  0  0  0
    3.4731   -1.0292    1.6839 H   0  0  0  0  0  0  0  0  0  0  0  0
    5.0734   -2.5245    0.5030 H   0  0  0  0  0  0  0  0  0  0  0  0
    5.1191   -1.4480   -0.8854 H   0  0  0  0  0  0  0  0  0  0  0  0
    5.8070   -0.5373    1.9651 H   0  0  0  0  0  0  0  0  0  0  0  0
    6.9936   -1.3120    0.9383 H   0  0  0  0  0  0  0  0  0  0  0  0
    6.9752    1.2395    1.0262 H   0  0  0  0  0  0  0  0  0  0  0  0
    7.1778    0.4617   -0.5252 H   0  0  0  0  0  0  0  0  0  0  0  0
    5.1229    1.1518   -1.3425 H   0  0  0  0  0  0  0  0  0  0  0  0
    5.6331    2.5001   -0.3606 H   0  0  0  0  0  0  0  0  0  0  0  0
    4.1615    1.3905    1.5658 H   0  0  0  0  0  0  0  0  0  0  0  0
    3.4765    2.3464    0.2620 H   0  0  0  0  0  0  0  0  0  0  0  0
   -1.2330   -1.3727   -1.3233 H   0  0  0  0  0  0  0  0  0  0  0  0
   -3.2060   -2.1870   -2.1438 H   0  0  0  0  0  0  0  0  0  0  0  0
   -5.6613   -2.1019   -2.2581 H   0  0  0  0  0  0  0  0  0  0  0  0
   -3.2522    1.0734    0.7039 H   0  0  0  0  0  0  0  0  0  0  0  0
   -7.2916    0.1922    1.6148 H   0  0  0  0  0  0  0  0  0  0  0  0
   -7.6513    1.9086    1.3468 H   0  0  0  0  0  0  0  0  0  0  0  0
   -8.8511    0.5402   -0.3469 H   0  0  0  0  0  0  0  0  0  0  0  0
   -7.6179    1.5277   -1.1555 H   0  0  0  0  0  0  0  0  0  0  0  0
  1  2  2  0
  2  3  1  0
  3  4  1  0
  4  5  1  0
  5  6  1  0
  6  7  1  0
  7  8  1  0
  8  9  1  0
  9 10  1  0
 10 11  1  0
  2 12  1  0
 12 13  1  0
 13 14  2  0
 14 15  1  0
 15 16  2  0
 16 17  1  0
 17 18  2  0
 17 19  1  0
 19 20  1  0
 20 21  1  0
 21 22  1  0
 11  5  1  0
 18 13  1  0
 22 16  1  0
  3 23  1  0
  3 24  1  0
  4 25  1  0
  4 26  1  0
  6 27  1  0
  6 28  1  0
  7 29  1  0
  7 30  1  0
  8 31  1  0
  8 32  1  0
  9 33  1  0
  9 34  1  0
 10 35  1  0
 10 36  1  0
 11 37  1  0
 11 38  1  0
 12 39  1  0
 14 40  1  0
 15 41  1  0
 18 42  1  0
 20 43  1  0
 20 44  1  0
 21 45  1  0
 21 46  1  0
M  END
$$$$
