
     RDKit          3D

 53 56  0  0  0  0  0  0  0  0999 V2000
   -5.7431    2.5218   -0.0464 C   0  0  0  0  0  0  0  0  0  0  0  0
   -5.7435    1.0857    0.5227 C   0  0  0  0  0  0  0  0  0  0  0  0
   -6.3793    1.1549    1.9297 C   0  0  0  0  0  0  0  0  0  0  0  0
   -6.6540    0.1940   -0.3482 C   0  0  0  0  0  0  0  0  0  0  0  0
   -4.3123    0.5219    0.5149 C   0  0  0  0  0  0  0  0  0  0  0  0
   -3.6676    0.0726    1.6749 C   0  0  0  0  0  0  0  0  0  0  0  0
   -2.3643   -0.4416    1.6308 C   0  0  0  0  0  0  0  0  0  0  0  0
   -1.6511   -0.5142    0.4248 C   0  0  0  0  0  0  0  0  0  0  0  0
   -0.3232   -1.0448    0.4406 N   0  0  0  0  0  0  0  0  0  0  0  0
    0.1291   -1.6505    1.5804 N   0  0  0  0  0  0  0  0  0  0  0  0
    1.3401   -2.1146    1.2848 C   0  0  0  0  0  0  0  0  0  0  0  0
    1.7332   -1.7798   -0.0133 C   0  0  0  0  0  0  0  0  0  0  0  0
    0.6654   -1.0707   -0.5365 C   0  0  0  0  0  0  0  0  0  0  0  0
    0.6528   -0.4719   -1.9015 C   0  0  0  0  0  0  0  0  0  0  0  0
    2.0736   -0.4451   -2.5000 C   0  0  0  0  0  0  0  0  0  0  0  0
    2.8466   -1.7524   -2.2418 C   0  0  0  0  0  0  0  0  0  0  0  0
    3.0120   -2.0399   -0.7315 C   0  0  0  0  0  0  0  0  0  0  0  0
    4.0123   -1.1772   -0.1409 N   0  0  0  0  0  0  0  0  0  0  0  0
    5.3631   -1.4137   -0.2561 C   0  0  0  0  0  0  0  0  0  0  0  0
    5.8434   -2.4084   -0.7852 O   0  0  0  0  0  0  0  0  0  0  0  0
    6.2248   -0.3416    0.3149 C   0  0  0  0  0  0  0  0  0  0  0  0
    7.6043   -0.4767    0.3080 C   0  0  0  0  0  0  0  0  0  0  0  0
    8.4256    0.4782    0.8165 N   0  0  0  0  0  0  0  0  0  0  0  0
    7.8024    1.5655    1.3280 C   0  0  0  0  0  0  0  0  0  0  0  0
    6.4218    1.7009    1.3324 C   0  0  0  0  0  0  0  0  0  0  0  0
    5.5943    0.7569    0.8269 N   0  0  0  0  0  0  0  0  0  0  0  0
   -2.2856   -0.0823   -0.7390 C   0  0  0  0  0  0  0  0  0  0  0  0
   -3.5932    0.4269   -0.6904 C   0  0  0  0  0  0  0  0  0  0  0  0
   -5.0782    3.1753    0.5321 H   0  0  0  0  0  0  0  0  0  0  0  0
   -6.7483    2.9589   -0.0172 H   0  0  0  0  0  0  0  0  0  0  0  0
   -5.4112    2.5553   -1.0904 H   0  0  0  0  0  0  0  0  0  0  0  0
   -7.3950    1.5667    1.8846 H   0  0  0  0  0  0  0  0  0  0  0  0
   -5.7998    1.7983    2.6024 H   0  0  0  0  0  0  0  0  0  0  0  0
   -6.4557    0.1618    2.3885 H   0  0  0  0  0  0  0  0  0  0  0  0
   -6.6553   -0.8412    0.0142 H   0  0  0  0  0  0  0  0  0  0  0  0
   -6.3351    0.1743   -1.3965 H   0  0  0  0  0  0  0  0  0  0  0  0
   -7.6892    0.5542   -0.3339 H   0  0  0  0  0  0  0  0  0  0  0  0
   -4.1543    0.1048    2.6462 H   0  0  0  0  0  0  0  0  0  0  0  0
   -1.9150   -0.7766    2.5653 H   0  0  0  0  0  0  0  0  0  0  0  0
    1.8930   -2.6592    2.0399 H   0  0  0  0  0  0  0  0  0  0  0  0
    0.0132   -1.0773   -2.5541 H   0  0  0  0  0  0  0  0  0  0  0  0
    0.2703    0.5536   -1.8829 H   0  0  0  0  0  0  0  0  0  0  0  0
    2.0073   -0.2600   -3.5782 H   0  0  0  0  0  0  0  0  0  0  0  0
    2.6336    0.3958   -2.0705 H   0  0  0  0  0  0  0  0  0  0  0  0
    3.8247   -1.7015   -2.7351 H   0  0  0  0  0  0  0  0  0  0  0  0
    2.2944   -2.5794   -2.7078 H   0  0  0  0  0  0  0  0  0  0  0  0
    3.3269   -3.0814   -0.5963 H   0  0  0  0  0  0  0  0  0  0  0  0
    3.7385   -0.2780    0.2473 H   0  0  0  0  0  0  0  0  0  0  0  0
    8.0920   -1.3535   -0.1035 H   0  0  0  0  0  0  0  0  0  0  0  0
    8.4494    2.3325    1.7405 H   0  0  0  0  0  0  0  0  0  0  0  0
    5.9441    2.5813    1.7485 H   0  0  0  0  0  0  0  0  0  0  0  0
   -1.8285   -0.1485   -1.7158 H   0  0  0  0  0  0  0  0  0  0  0  0
   -4.0493    0.7439   -1.6269 H   0  0  0  0  0  0  0  0  0  0  0  0
  1  2  1  0
  2  3  1  0
  2  4  1  0
  2  5  1  0
  5  6  2  0
  6  7  1  0
  7  8  2  0
  8  9  1  0
  9 10  1  0
 10 11  2  0
 11 12  1  0
 12 13  2  0
 13 14  1  0
 14 15  1  0
 15 16  1  0
 16 17  1  0
 17 18  1  0
 18 19  1  0
 19 20  2  0
 19 21  1  0
 21 22  2  0
 22 23  1  0
 23 24  2  0
 24 25  1  0
 25 26  2  0
  8 27  1  0
 27 28  2  0
 28  5  1  0
 13  9  1  0
 26 21  1  0
 17 12  1  0
  1 29  1  0
  1 30  1  0
  1 31  1  0
  3 32  1  0
  3 33  1  0
  3 34  1  0
  4 35  1  0
  4 36  1  0
  4 37  1  0
  6 38  1  0
  7 39  1  0
 11 40  1  0
 14 41  1  0
 14 42  1  0
 15 43  1  0
 15 44  1  0
 16 45  1  0
 16 46  1  0
 17 47  1  0
 18 48  1  0
 22 49  1  0
 24 50  1  0
 25 51  1  0
 27 52  1  0
 28 53  1  0
M  END
$$$$
