
     RDKit          3D

 52 54  0  0  0  0  0  0  0  0999 V2000
   -4.9452   -2.4574   -2.6064 C   0  0  0  0  0  0  0  0  0  0  0  0
   -3.7533   -2.0448   -1.7574 C   0  0  0  0  0  0  0  0  0  0  0  0
   -4.1505   -1.0184   -0.6949 C   0  0  0  0  0  0  0  0  0  0  0  0
   -2.9450   -0.6126    0.1592 C   0  0  0  0  0  0  0  0  0  0  0  0
   -3.2402    0.5301    1.1567 C   0  0  0  0  0  0  0  0  0  0  0  0
   -4.4243    0.2395    2.1059 C   0  0  0  0  0  0  0  0  0  0  0  0
   -4.2637   -0.9953    2.9821 C   0  0  0  0  0  0  0  0  0  0  0  0
   -1.9769    0.9034    1.9738 C   0  0  0  0  0  0  0  0  0  0  0  0
   -0.9290    1.5369    1.1646 N   0  0  0  0  0  0  0  0  0  0  0  0
    0.1243    0.7584    0.7034 C   0  0  0  0  0  0  0  0  0  0  0  0
    0.2743   -0.4286    0.9549 O   0  0  0  0  0  0  0  0  0  0  0  0
    1.0571    1.5786   -0.1231 C   0  0  0  0  0  0  0  0  0  0  0  0
    2.1633    1.2003   -0.7824 C   0  0  0  0  0  0  0  0  0  0  0  0
    2.7367   -0.0979   -0.9221 C   0  0  0  0  0  0  0  0  0  0  0  0
    2.0608   -1.2604   -1.2058 C   0  0  0  0  0  0  0  0  0  0  0  0
    3.0101   -2.2301   -1.3060 N   0  0  0  0  0  0  0  0  0  0  0  0
    4.2634   -1.7735   -1.1787 N   0  0  0  0  0  0  0  0  0  0  0  0
    4.1210   -0.4626   -0.9143 C   0  0  0  0  0  0  0  0  0  0  0  0
    5.2947    0.3813   -0.6819 C   0  0  0  0  0  0  0  0  0  0  0  0
    6.4320    0.2387   -1.4893 C   0  0  0  0  0  0  0  0  0  0  0  0
    7.5542    1.0446   -1.2846 C   0  0  0  0  0  0  0  0  0  0  0  0
    7.5526    1.9956   -0.2659 C   0  0  0  0  0  0  0  0  0  0  0  0
    6.4334    2.1370    0.5530 C   0  0  0  0  0  0  0  0  0  0  0  0
    5.3100    1.3313    0.3487 C   0  0  0  0  0  0  0  0  0  0  0  0
    0.5273    3.2255   -0.1195 S   0  0  0  0  0  0  0  0  0  0  0  0
   -0.8938    2.8792    0.8514 C   0  0  0  0  0  0  0  0  0  0  0  0
   -1.9762    4.0738    1.2828 S   0  0  0  0  0  0  0  0  0  0  0  0
   -5.3736   -1.5947   -3.1266 H   0  0  0  0  0  0  0  0  0  0  0  0
   -4.6387   -3.1903   -3.3592 H   0  0  0  0  0  0  0  0  0  0  0  0
   -5.7280   -2.9107   -1.9899 H   0  0  0  0  0  0  0  0  0  0  0  0
   -2.9767   -1.6267   -2.4084 H   0  0  0  0  0  0  0  0  0  0  0  0
   -3.3294   -2.9337   -1.2758 H   0  0  0  0  0  0  0  0  0  0  0  0
   -4.9348   -1.4486   -0.0626 H   0  0  0  0  0  0  0  0  0  0  0  0
   -4.5718   -0.1308   -1.1818 H   0  0  0  0  0  0  0  0  0  0  0  0
   -2.5618   -1.4909    0.6925 H   0  0  0  0  0  0  0  0  0  0  0  0
   -2.1473   -0.2901   -0.5204 H   0  0  0  0  0  0  0  0  0  0  0  0
   -3.5325    1.4042    0.5603 H   0  0  0  0  0  0  0  0  0  0  0  0
   -5.3480    0.1422    1.5238 H   0  0  0  0  0  0  0  0  0  0  0  0
   -4.5786    1.1092    2.7572 H   0  0  0  0  0  0  0  0  0  0  0  0
   -4.1699   -1.9058    2.3837 H   0  0  0  0  0  0  0  0  0  0  0  0
   -5.1433   -1.1117    3.6239 H   0  0  0  0  0  0  0  0  0  0  0  0
   -3.3887   -0.9157    3.6334 H   0  0  0  0  0  0  0  0  0  0  0  0
   -2.2460    1.5939    2.7810 H   0  0  0  0  0  0  0  0  0  0  0  0
   -1.5664    0.0089    2.4564 H   0  0  0  0  0  0  0  0  0  0  0  0
    2.7313    1.9847   -1.2847 H   0  0  0  0  0  0  0  0  0  0  0  0
    1.0126   -1.4902   -1.3331 H   0  0  0  0  0  0  0  0  0  0  0  0
    2.8759   -3.2201   -1.4818 H   0  0  0  0  0  0  0  0  0  0  0  0
    6.4453   -0.5064   -2.2823 H   0  0  0  0  0  0  0  0  0  0  0  0
    8.4294    0.9243   -1.9177 H   0  0  0  0  0  0  0  0  0  0  0  0
    8.4278    2.6195   -0.1039 H   0  0  0  0  0  0  0  0  0  0  0  0
    6.4380    2.8681    1.3572 H   0  0  0  0  0  0  0  0  0  0  0  0
    4.4583    1.4392    1.0152 H   0  0  0  0  0  0  0  0  0  0  0  0
  1  2  1  0
  2  3  1  0
  3  4  1  0
  4  5  1  0
  5  6  1  0
  6  7  1  0
  5  8  1  0
  8  9  1  0
  9 10  1  0
 10 11  2  0
 10 12  1  0
 12 13  2  3
 13 14  1  0
 14 15  2  0
 15 16  1  0
 16 17  1  0
 17 18  2  0
 18 19  1  0
 19 20  2  0
 20 21  1  0
 21 22  2  0
 22 23  1  0
 23 24  2  0
 12 25  1  0
 25 26  1  0
 26 27  2  0
 26  9  1  0
 18 14  1  0
 24 19  1  0
  1 28  1  0
  1 29  1  0
  1 30  1  0
  2 31  1  0
  2 32  1  0
  3 33  1  0
  3 34  1  0
  4 35  1  0
  4 36  1  0
  5 37  1  0
  6 38  1  0
  6 39  1  0
  7 40  1  0
  7 41  1  0
  7 42  1  0
  8 43  1  0
  8 44  1  0
 13 45  1  0
 15 46  1  0
 16 47  1  0
 20 48  1  0
 21 49  1  0
 22 50  1  0
 23 51  1  0
 24 52  1  0
M  END
$$$$
