
     RDKit          3D

 46 48  0  0  0  0  0  0  0  0999 V2000
   -0.5524    3.3009   -0.9532 C   0  0  0  0  0  0  0  0  0  0  0  0
   -0.8189    2.3419    0.2017 C   0  0  0  0  0  0  0  0  0  0  0  0
   -1.3075    0.9704   -0.2888 C   0  0  0  0  0  0  0  0  0  0  0  0
   -1.8079   -0.0940    1.1288 S   0  0  0  0  0  0  0  0  0  0  0  0
   -3.3777    0.5286    1.4692 C   0  0  0  0  0  0  0  0  0  0  0  0
   -3.9560    1.5752    0.9369 N   0  0  0  0  0  0  0  0  0  0  0  0
   -5.1844    1.6459    1.5509 C   0  0  0  0  0  0  0  0  0  0  0  0
   -6.2245    2.5689    1.3727 C   0  0  0  0  0  0  0  0  0  0  0  0
   -7.3921    2.4201    2.1325 C   0  0  0  0  0  0  0  0  0  0  0  0
   -7.5212    1.3750    3.0507 C   0  0  0  0  0  0  0  0  0  0  0  0
   -6.4943    0.4436    3.2438 C   0  0  0  0  0  0  0  0  0  0  0  0
   -5.3423    0.6153    2.4741 C   0  0  0  0  0  0  0  0  0  0  0  0
   -4.1660   -0.0856    2.3963 N   0  0  0  0  0  0  0  0  0  0  0  0
   -0.2145    0.2348   -1.0828 C   0  0  0  0  0  0  0  0  0  0  0  0
   -0.3550    0.0271   -2.2866 O   0  0  0  0  0  0  0  0  0  0  0  0
    0.9007   -0.1027   -0.3306 N   0  0  0  0  0  0  0  0  0  0  0  0
    2.0945   -0.7039   -0.7731 C   0  0  0  0  0  0  0  0  0  0  0  0
    2.3768   -0.9976   -2.1048 C   0  0  0  0  0  0  0  0  0  0  0  0
    3.5976   -1.5883   -2.4584 C   0  0  0  0  0  0  0  0  0  0  0  0
    4.5580   -1.8936   -1.4879 C   0  0  0  0  0  0  0  0  0  0  0  0
    5.7601   -2.4821   -1.9311 N   0  0  0  0  0  0  0  0  0  0  0  0
    6.8429   -2.8676   -1.1628 C   0  0  0  0  0  0  0  0  0  0  0  0
    7.9659   -3.4518   -1.9853 C   0  0  0  0  0  0  0  0  0  0  0  0
    6.9585   -2.7595    0.0532 O   0  0  0  0  0  0  0  0  0  0  0  0
    4.2753   -1.5996   -0.1560 C   0  0  0  0  0  0  0  0  0  0  0  0
    3.0544   -1.0089    0.1971 C   0  0  0  0  0  0  0  0  0  0  0  0
    0.2542    2.9381   -1.5974 H   0  0  0  0  0  0  0  0  0  0  0  0
   -1.4497    3.4364   -1.5650 H   0  0  0  0  0  0  0  0  0  0  0  0
   -0.2557    4.2810   -0.5663 H   0  0  0  0  0  0  0  0  0  0  0  0
    0.0986    2.2491    0.7950 H   0  0  0  0  0  0  0  0  0  0  0  0
   -1.5684    2.8076    0.8514 H   0  0  0  0  0  0  0  0  0  0  0  0
   -2.1681    1.0845   -0.9587 H   0  0  0  0  0  0  0  0  0  0  0  0
   -6.1200    3.3760    0.6564 H   0  0  0  0  0  0  0  0  0  0  0  0
   -8.2076    3.1282    2.0032 H   0  0  0  0  0  0  0  0  0  0  0  0
   -8.4405    1.2817    3.6267 H   0  0  0  0  0  0  0  0  0  0  0  0
   -6.5969   -0.3672    3.9564 H   0  0  0  0  0  0  0  0  0  0  0  0
   -3.9175   -0.9104    2.9202 H   0  0  0  0  0  0  0  0  0  0  0  0
    0.8181    0.0438    0.6687 H   0  0  0  0  0  0  0  0  0  0  0  0
    1.6721   -0.7770   -2.9001 H   0  0  0  0  0  0  0  0  0  0  0  0
    3.7769   -1.8009   -3.5088 H   0  0  0  0  0  0  0  0  0  0  0  0
    5.8301   -2.6314   -2.9294 H   0  0  0  0  0  0  0  0  0  0  0  0
    7.6368   -3.7349   -2.9891 H   0  0  0  0  0  0  0  0  0  0  0  0
    8.3424   -4.3502   -1.4877 H   0  0  0  0  0  0  0  0  0  0  0  0
    8.7677   -2.7132   -2.0683 H   0  0  0  0  0  0  0  0  0  0  0  0
    4.9829   -1.8131    0.6387 H   0  0  0  0  0  0  0  0  0  0  0  0
    2.8750   -0.7934    1.2475 H   0  0  0  0  0  0  0  0  0  0  0  0
  1  2  1  0
  2  3  1  0
  3  4  1  0
  4  5  1  0
  5  6  2  0
  6  7  1  0
  7  8  2  0
  8  9  1  0
  9 10  2  0
 10 11  1  0
 11 12  2  0
 12 13  1  0
  3 14  1  0
 14 15  2  0
 14 16  1  0
 16 17  1  0
 17 18  2  0
 18 19  1  0
 19 20  2  0
 20 21  1  0
 21 22  1  0
 22 23  1  0
 22 24  2  0
 20 25  1  0
 25 26  2  0
 13  5  1  0
 26 17  1  0
 12  7  1  0
  1 27  1  0
  1 28  1  0
  1 29  1  0
  2 30  1  0
  2 31  1  0
  3 32  1  0
  8 33  1  0
  9 34  1  0
 10 35  1  0
 11 36  1  0
 13 37  1  0
 16 38  1  0
 18 39  1  0
 19 40  1  0
 21 41  1  0
 23 42  1  0
 23 43  1  0
 23 44  1  0
 25 45  1  0
 26 46  1  0
M  END
$$$$
