
     RDKit          3D

 45 47  0  0  0  0  0  0  0  0999 V2000
    5.5116    0.9127    3.2063 C   0  0  0  0  0  0  0  0  0  0  0  0
    4.4241    0.8237    2.1751 C   0  0  0  0  0  0  0  0  0  0  0  0
    3.0951    1.0925    2.5276 C   0  0  0  0  0  0  0  0  0  0  0  0
    2.0807    1.0427    1.5663 C   0  0  0  0  0  0  0  0  0  0  0  0
    2.3852    0.7258    0.2381 C   0  0  0  0  0  0  0  0  0  0  0  0
    1.2867    0.6785   -0.7711 C   0  0  0  0  0  0  0  0  0  0  0  0
    0.2229    1.4056   -0.5989 N   0  0  0  0  0  0  0  0  0  0  0  0
   -0.7694    1.3404   -1.5541 N   0  0  0  0  0  0  0  0  0  0  0  0
   -1.8327    2.3511   -1.4737 C   0  0  0  0  0  0  0  0  0  0  0  0
   -2.9526    1.8580   -0.5564 C   0  0  0  0  0  0  0  0  0  0  0  0
   -4.1320    2.1501   -0.7345 O   0  0  0  0  0  0  0  0  0  0  0  0
   -2.5160    1.1574    0.5452 N   0  0  0  0  0  0  0  0  0  0  0  0
   -3.4084    0.3268    1.3222 C   0  0  0  0  0  0  0  0  0  0  0  0
   -3.3494   -1.1085    0.8496 C   0  0  0  0  0  0  0  0  0  0  0  0
   -3.9396   -1.4775   -0.3587 C   0  0  0  0  0  0  0  0  0  0  0  0
   -3.7945   -2.7884   -0.8061 C   0  0  0  0  0  0  0  0  0  0  0  0
   -3.0706   -3.6947   -0.0408 C   0  0  0  0  0  0  0  0  0  0  0  0
   -2.5205   -3.2514    1.1519 C   0  0  0  0  0  0  0  0  0  0  0  0
   -2.6405   -1.9849    1.6106 N   0  0  0  0  0  0  0  0  0  0  0  0
   -0.9209    0.2825   -2.4481 C   0  0  0  0  0  0  0  0  0  0  0  0
   -1.8575    0.1756   -3.2370 O   0  0  0  0  0  0  0  0  0  0  0  0
    0.1181   -0.7979   -2.3286 C   0  0  0  0  0  0  0  0  0  0  0  0
    1.4580   -0.1916   -1.9932 C   0  0  0  0  0  0  0  0  0  0  0  0
    3.7157    0.4803   -0.1235 C   0  0  0  0  0  0  0  0  0  0  0  0
    4.7276    0.5308    0.8407 C   0  0  0  0  0  0  0  0  0  0  0  0
    5.7994    1.9578    3.3575 H   0  0  0  0  0  0  0  0  0  0  0  0
    5.1749    0.4941    4.1606 H   0  0  0  0  0  0  0  0  0  0  0  0
    6.3969    0.3482    2.8975 H   0  0  0  0  0  0  0  0  0  0  0  0
    2.8407    1.3436    3.5560 H   0  0  0  0  0  0  0  0  0  0  0  0
    1.0552    1.2489    1.8666 H   0  0  0  0  0  0  0  0  0  0  0  0
   -2.2408    2.5278   -2.4749 H   0  0  0  0  0  0  0  0  0  0  0  0
   -1.4250    3.2875   -1.0779 H   0  0  0  0  0  0  0  0  0  0  0  0
   -1.5298    0.9044    0.5397 H   0  0  0  0  0  0  0  0  0  0  0  0
   -4.4392    0.6984    1.2663 H   0  0  0  0  0  0  0  0  0  0  0  0
   -3.0795    0.3917    2.3664 H   0  0  0  0  0  0  0  0  0  0  0  0
   -4.4794   -0.7480   -0.9607 H   0  0  0  0  0  0  0  0  0  0  0  0
   -4.2434   -3.0901   -1.7467 H   0  0  0  0  0  0  0  0  0  0  0  0
   -2.9378   -4.7205   -0.3633 H   0  0  0  0  0  0  0  0  0  0  0  0
   -1.9364   -3.9188    1.7843 H   0  0  0  0  0  0  0  0  0  0  0  0
    0.1813   -1.3375   -3.2788 H   0  0  0  0  0  0  0  0  0  0  0  0
   -0.2077   -1.4967   -1.5509 H   0  0  0  0  0  0  0  0  0  0  0  0
    2.1843   -0.9893   -1.8253 H   0  0  0  0  0  0  0  0  0  0  0  0
    1.8146    0.4425   -2.8115 H   0  0  0  0  0  0  0  0  0  0  0  0
    3.9914    0.2693   -1.1524 H   0  0  0  0  0  0  0  0  0  0  0  0
    5.7590    0.3470    0.5407 H   0  0  0  0  0  0  0  0  0  0  0  0
  1  2  1  0
  2  3  2  0
  3  4  1  0
  4  5  2  0
  5  6  1  0
  6  7  2  0
  7  8  1  0
  8  9  1  0
  9 10  1  0
 10 11  2  0
 10 12  1  0
 12 13  1  0
 13 14  1  0
 14 15  2  0
 15 16  1  0
 16 17  2  0
 17 18  1  0
 18 19  2  0
  8 20  1  0
 20 21  2  0
 20 22  1  0
 22 23  1  0
  5 24  1  0
 24 25  2  0
 25  2  1  0
 23  6  1  0
 19 14  1  0
  1 26  1  0
  1 27  1  0
  1 28  1  0
  3 29  1  0
  4 30  1  0
  9 31  1  0
  9 32  1  0
 12 33  1  0
 13 34  1  0
 13 35  1  0
 15 36  1  0
 16 37  1  0
 17 38  1  0
 18 39  1  0
 22 40  1  0
 22 41  1  0
 23 42  1  0
 23 43  1  0
 24 44  1  0
 25 45  1  0
M  END
$$$$
