
     RDKit          3D

 53 56  0  0  0  0  0  0  0  0999 V2000
    4.6430   -2.7665   -4.4456 C   0  0  0  0  0  0  0  0  0  0  0  0
    3.7147   -1.7679   -4.0426 O   0  0  0  0  0  0  0  0  0  0  0  0
    2.8342   -2.1046   -3.0527 C   0  0  0  0  0  0  0  0  0  0  0  0
    2.7569   -3.3342   -2.4052 C   0  0  0  0  0  0  0  0  0  0  0  0
    1.8023   -3.5461   -1.4018 C   0  0  0  0  0  0  0  0  0  0  0  0
    0.9148   -2.5310   -1.0317 C   0  0  0  0  0  0  0  0  0  0  0  0
   -0.0558   -2.6609   -0.0751 O   0  0  0  0  0  0  0  0  0  0  0  0
   -0.0074   -3.8118    0.7566 C   0  0  0  0  0  0  0  0  0  0  0  0
    0.9807   -1.2882   -1.6840 C   0  0  0  0  0  0  0  0  0  0  0  0
    0.0692   -0.1411   -1.3107 C   0  0  0  0  0  0  0  0  0  0  0  0
    0.7565    0.7978   -0.4096 N   0  0  0  0  0  0  0  0  0  0  0  0
   -0.1160    1.8666   -0.0326 N   0  0  0  0  0  0  0  0  0  0  0  0
   -0.9001    1.7895    1.1242 C   0  0  0  0  0  0  0  0  0  0  0  0
   -0.7593    0.6223    2.0394 C   0  0  0  0  0  0  0  0  0  0  0  0
    0.4888    0.2257    2.5290 C   0  0  0  0  0  0  0  0  0  0  0  0
    0.5771   -0.8355    3.4302 C   0  0  0  0  0  0  0  0  0  0  0  0
   -0.5792   -1.4937    3.8531 C   0  0  0  0  0  0  0  0  0  0  0  0
   -1.8360   -1.1034    3.3736 C   0  0  0  0  0  0  0  0  0  0  0  0
   -3.0812   -1.7823    3.8611 C   0  0  0  0  0  0  0  0  0  0  0  0
   -1.9200   -0.0278    2.4792 C   0  0  0  0  0  0  0  0  0  0  0  0
   -1.7682    2.7054    1.4371 N   0  0  0  0  0  0  0  0  0  0  0  0
   -1.8980    3.8275    0.6083 C   0  0  0  0  0  0  0  0  0  0  0  0
   -2.8346    4.8059    0.9507 C   0  0  0  0  0  0  0  0  0  0  0  0
   -2.9936    5.9498    0.1629 C   0  0  0  0  0  0  0  0  0  0  0  0
   -2.2127    6.1267   -0.9789 C   0  0  0  0  0  0  0  0  0  0  0  0
   -1.2736    5.1591   -1.3328 C   0  0  0  0  0  0  0  0  0  0  0  0
   -1.1241    4.0173   -0.5359 C   0  0  0  0  0  0  0  0  0  0  0  0
   -0.1506    2.9717   -0.8886 C   0  0  0  0  0  0  0  0  0  0  0  0
    0.5673    3.0922   -1.8814 O   0  0  0  0  0  0  0  0  0  0  0  0
    1.9476   -1.0902   -2.6885 C   0  0  0  0  0  0  0  0  0  0  0  0
    5.2705   -2.3408   -5.2346 H   0  0  0  0  0  0  0  0  0  0  0  0
    4.1285   -3.6382   -4.8633 H   0  0  0  0  0  0  0  0  0  0  0  0
    5.2989   -3.0534   -3.6169 H   0  0  0  0  0  0  0  0  0  0  0  0
    3.4218   -4.1541   -2.6551 H   0  0  0  0  0  0  0  0  0  0  0  0
    1.7751   -4.5238   -0.9321 H   0  0  0  0  0  0  0  0  0  0  0  0
   -0.2209   -4.7195    0.1831 H   0  0  0  0  0  0  0  0  0  0  0  0
   -0.7897   -3.7107    1.5146 H   0  0  0  0  0  0  0  0  0  0  0  0
    0.9538   -3.8874    1.2757 H   0  0  0  0  0  0  0  0  0  0  0  0
   -0.8509   -0.5166   -0.8481 H   0  0  0  0  0  0  0  0  0  0  0  0
   -0.2475    0.3688   -2.2301 H   0  0  0  0  0  0  0  0  0  0  0  0
    1.5178    1.2272   -0.9461 H   0  0  0  0  0  0  0  0  0  0  0  0
    1.3935    0.7426    2.2218 H   0  0  0  0  0  0  0  0  0  0  0  0
    1.5482   -1.1435    3.8090 H   0  0  0  0  0  0  0  0  0  0  0  0
   -0.4939   -2.3116    4.5653 H   0  0  0  0  0  0  0  0  0  0  0  0
   -3.8617   -1.7646    3.0932 H   0  0  0  0  0  0  0  0  0  0  0  0
   -3.4551   -1.2795    4.7582 H   0  0  0  0  0  0  0  0  0  0  0  0
   -2.8849   -2.8330    4.0994 H   0  0  0  0  0  0  0  0  0  0  0  0
   -2.8906    0.3099    2.1219 H   0  0  0  0  0  0  0  0  0  0  0  0
   -3.4423    4.6733    1.8426 H   0  0  0  0  0  0  0  0  0  0  0  0
   -3.7266    6.7022    0.4440 H   0  0  0  0  0  0  0  0  0  0  0  0
   -2.3355    7.0166   -1.5915 H   0  0  0  0  0  0  0  0  0  0  0  0
   -0.6635    5.2925   -2.2233 H   0  0  0  0  0  0  0  0  0  0  0  0
    2.0125   -0.1286   -3.1955 H   0  0  0  0  0  0  0  0  0  0  0  0
  1  2  1  0
  2  3  1  0
  3  4  2  0
  4  5  1  0
  5  6  2  0
  6  7  1  0
  7  8  1  0
  6  9  1  0
  9 10  1  0
 10 11  1  0
 11 12  1  0
 12 13  1  0
 13 14  1  0
 14 15  2  0
 15 16  1  0
 16 17  2  0
 17 18  1  0
 18 19  1  0
 18 20  2  0
 13 21  2  0
 21 22  1  0
 22 23  2  0
 23 24  1  0
 24 25  2  0
 25 26  1  0
 26 27  2  0
 27 28  1  0
 28 29  2  0
  9 30  2  0
 30  3  1  0
 28 12  1  0
 20 14  1  0
 27 22  1  0
  1 31  1  0
  1 32  1  0
  1 33  1  0
  4 34  1  0
  5 35  1  0
  8 36  1  0
  8 37  1  0
  8 38  1  0
 10 39  1  0
 10 40  1  0
 11 41  1  0
 15 42  1  0
 16 43  1  0
 17 44  1  0
 19 45  1  0
 19 46  1  0
 19 47  1  0
 20 48  1  0
 23 49  1  0
 24 50  1  0
 25 51  1  0
 26 52  1  0
 30 53  1  0
M  END
$$$$
