
     RDKit          3D

 42 42  0  0  0  0  0  0  0  0999 V2000
   -1.0985   -3.9007    1.6728 C   0  0  0  0  0  0  0  0  0  0  0  0
   -2.2098   -2.8749    1.5119 C   0  0  0  0  0  0  0  0  0  0  0  0
   -1.7185   -1.4247    1.5686 C   0  0  0  0  0  0  0  0  0  0  0  0
   -0.7851   -1.0602    0.4026 C   0  0  0  0  0  0  0  0  0  0  0  0
   -0.4213    0.4406    0.3064 C   0  0  0  0  0  0  0  0  0  0  0  0
   -1.6316    1.3495    0.2091 C   0  0  0  0  0  0  0  0  0  0  0  0
   -1.7277    2.4487    0.7358 O   0  0  0  0  0  0  0  0  0  0  0  0
   -2.5596    0.8224   -0.6431 O   0  0  0  0  0  0  0  0  0  0  0  0
   -3.7419    1.6108   -0.8515 C   0  0  0  0  0  0  0  0  0  0  0  0
   -3.5173    2.5959   -1.9829 C   0  0  0  0  0  0  0  0  0  0  0  0
    0.4681    0.7234   -0.9071 C   0  0  0  0  0  0  0  0  0  0  0  0
    1.8861    0.8032   -0.3713 C   0  0  0  0  0  0  0  0  0  0  0  0
    2.6947   -0.4781   -0.6184 C   0  0  0  0  0  0  0  0  0  0  0  0
    4.4294   -0.3521   -0.0628 S   0  0  0  0  0  0  0  0  0  0  0  0
    5.0089    0.7757   -1.2390 C   0  0  0  0  0  0  0  0  0  0  0  0
    5.3214    0.3637   -2.4116 N   0  0  0  0  0  0  0  0  0  0  0  0
    5.1216    2.0600   -0.8511 N   0  0  0  0  0  0  0  0  0  0  0  0
    1.7497    1.0505    1.0295 O   0  0  0  0  0  0  0  0  0  0  0  0
    0.4735    0.8300    1.4530 C   0  0  0  0  0  0  0  0  0  0  0  0
    0.1487    0.8972    2.6280 O   0  0  0  0  0  0  0  0  0  0  0  0
   -0.5303   -3.7241    2.5915 H   0  0  0  0  0  0  0  0  0  0  0  0
   -1.5229   -4.9085    1.7254 H   0  0  0  0  0  0  0  0  0  0  0  0
   -0.4057   -3.8780    0.8266 H   0  0  0  0  0  0  0  0  0  0  0  0
   -2.7375   -3.0533    0.5678 H   0  0  0  0  0  0  0  0  0  0  0  0
   -2.9405   -3.0246    2.3157 H   0  0  0  0  0  0  0  0  0  0  0  0
   -1.2100   -1.2608    2.5248 H   0  0  0  0  0  0  0  0  0  0  0  0
   -2.5996   -0.7737    1.5625 H   0  0  0  0  0  0  0  0  0  0  0  0
   -1.2558   -1.3822   -0.5355 H   0  0  0  0  0  0  0  0  0  0  0  0
    0.1326   -1.6496    0.5032 H   0  0  0  0  0  0  0  0  0  0  0  0
   -4.5448    0.9168   -1.1209 H   0  0  0  0  0  0  0  0  0  0  0  0
   -4.0507    2.1183    0.0695 H   0  0  0  0  0  0  0  0  0  0  0  0
   -2.7156    3.2998   -1.7380 H   0  0  0  0  0  0  0  0  0  0  0  0
   -4.4290    3.1631   -2.1902 H   0  0  0  0  0  0  0  0  0  0  0  0
   -3.2123    2.0712   -2.8943 H   0  0  0  0  0  0  0  0  0  0  0  0
    0.3574   -0.0122   -1.7118 H   0  0  0  0  0  0  0  0  0  0  0  0
    0.2143    1.6939   -1.3557 H   0  0  0  0  0  0  0  0  0  0  0  0
    2.3848    1.6647   -0.8270 H   0  0  0  0  0  0  0  0  0  0  0  0
    2.6833   -0.7448   -1.6804 H   0  0  0  0  0  0  0  0  0  0  0  0
    2.2654   -1.3138   -0.0591 H   0  0  0  0  0  0  0  0  0  0  0  0
    5.1797   -0.6520   -2.4300 H   0  0  0  0  0  0  0  0  0  0  0  0
    5.7581    2.5844   -1.4406 H   0  0  0  0  0  0  0  0  0  0  0  0
    5.2881    2.1848    0.1406 H   0  0  0  0  0  0  0  0  0  0  0  0
  1  2  1  0
  2  3  1  0
  3  4  1  0
  4  5  1  0
  5  6  1  0
  6  7  2  0
  6  8  1  0
  8  9  1  0
  9 10  1  0
  5 11  1  0
 11 12  1  0
 12 13  1  0
 13 14  1  0
 14 15  1  0
 15 16  2  3
 15 17  1  0
 12 18  1  0
 18 19  1  0
 19 20  2  0
 19  5  1  0
  1 21  1  0
  1 22  1  0
  1 23  1  0
  2 24  1  0
  2 25  1  0
  3 26  1  0
  3 27  1  0
  4 28  1  0
  4 29  1  0
  9 30  1  0
  9 31  1  0
 10 32  1  0
 10 33  1  0
 10 34  1  0
 11 35  1  0
 11 36  1  0
 12 37  1  0
 13 38  1  0
 13 39  1  0
 16 40  1  0
 17 41  1  0
 17 42  1  0
M  END
$$$$
