
     RDKit          3D

 37 37  0  0  0  0  0  0  0  0999 V2000
   -4.1502   -1.9572    1.3221 C   0  0  0  0  0  0  0  0  0  0  0  0
   -3.9560   -1.0494    0.1160 C   0  0  0  0  0  0  0  0  0  0  0  0
   -2.9771    0.0081    0.4038 N   0  0  0  0  0  0  0  0  0  0  0  0
   -3.5355    1.2676    0.9165 C   0  0  0  0  0  0  0  0  0  0  0  0
   -3.8384    2.2340   -0.2200 C   0  0  0  0  0  0  0  0  0  0  0  0
   -1.6127   -0.1678    0.2020 C   0  0  0  0  0  0  0  0  0  0  0  0
   -0.6896    0.8850    0.3478 C   0  0  0  0  0  0  0  0  0  0  0  0
    0.6888    0.7169    0.1480 C   0  0  0  0  0  0  0  0  0  0  0  0
    1.1892   -0.5300   -0.2073 C   0  0  0  0  0  0  0  0  0  0  0  0
    2.6336   -0.7445   -0.4195 C   0  0  0  0  0  0  0  0  0  0  0  0
    3.4933    0.2118   -0.2915 N   0  0  0  0  0  0  0  0  0  0  0  0
    4.9021   -0.1919   -0.5408 C   0  0  0  0  0  0  0  0  0  0  0  0
    5.1579   -0.2099   -1.9906 C   0  0  0  0  0  0  0  0  0  0  0  0
    5.3592   -0.2674   -3.1323 N   0  0  0  0  0  0  0  0  0  0  0  0
    5.7808    0.8390    0.1189 C   0  0  0  0  0  0  0  0  0  0  0  0
    5.3762    1.9401    0.6761 N   0  0  0  0  0  0  0  0  0  0  0  0
    7.2033    0.6078    0.1931 C   0  0  0  0  0  0  0  0  0  0  0  0
    8.3359    0.3520    0.2390 N   0  0  0  0  0  0  0  0  0  0  0  0
    0.3154   -1.5992   -0.3646 C   0  0  0  0  0  0  0  0  0  0  0  0
   -1.0605   -1.4107   -0.1619 C   0  0  0  0  0  0  0  0  0  0  0  0
   -4.8927   -2.7294    1.0983 H   0  0  0  0  0  0  0  0  0  0  0  0
   -3.2194   -2.4548    1.6105 H   0  0  0  0  0  0  0  0  0  0  0  0
   -4.5036   -1.3884    2.1887 H   0  0  0  0  0  0  0  0  0  0  0  0
   -4.9245   -0.5980   -0.1348 H   0  0  0  0  0  0  0  0  0  0  0  0
   -3.6806   -1.6283   -0.7720 H   0  0  0  0  0  0  0  0  0  0  0  0
   -2.8797    1.7313    1.6621 H   0  0  0  0  0  0  0  0  0  0  0  0
   -4.4698    1.0642    1.4559 H   0  0  0  0  0  0  0  0  0  0  0  0
   -2.9406    2.4816   -0.7941 H   0  0  0  0  0  0  0  0  0  0  0  0
   -4.2546    3.1649    0.1774 H   0  0  0  0  0  0  0  0  0  0  0  0
   -4.5686    1.8066   -0.9149 H   0  0  0  0  0  0  0  0  0  0  0  0
   -1.0191    1.8855    0.6115 H   0  0  0  0  0  0  0  0  0  0  0  0
    1.3501    1.5702    0.2711 H   0  0  0  0  0  0  0  0  0  0  0  0
    2.9395   -1.7715   -0.6957 H   0  0  0  0  0  0  0  0  0  0  0  0
    5.1187   -1.1676   -0.0884 H   0  0  0  0  0  0  0  0  0  0  0  0
    4.3465    1.9695    0.5701 H   0  0  0  0  0  0  0  0  0  0  0  0
    0.6751   -2.5859   -0.6429 H   0  0  0  0  0  0  0  0  0  0  0  0
   -1.6926   -2.2843   -0.2905 H   0  0  0  0  0  0  0  0  0  0  0  0
  1  2  1  0
  2  3  1  0
  3  4  1  0
  4  5  1  0
  3  6  1  0
  6  7  2  0
  7  8  1  0
  8  9  2  0
  9 10  1  0
 10 11  2  3
 11 12  1  0
 12 13  1  0
 13 14  3  0
 12 15  1  0
 15 16  2  3
 15 17  1  0
 17 18  3  0
  9 19  1  0
 19 20  2  0
 20  6  1  0
  1 21  1  0
  1 22  1  0
  1 23  1  0
  2 24  1  0
  2 25  1  0
  4 26  1  0
  4 27  1  0
  5 28  1  0
  5 29  1  0
  5 30  1  0
  7 31  1  0
  8 32  1  0
 10 33  1  0
 12 34  1  0
 16 35  1  0
 19 36  1  0
 20 37  1  0
M  END
$$$$
