
     RDKit          3D

 73 78  0  0  0  0  0  0  0  0999 V2000
    9.1242   -3.0433    1.0462 C   0  0  0  0  0  0  0  0  0  0  0  0
    8.0317   -2.0533    0.7789 C   0  0  0  0  0  0  0  0  0  0  0  0
    6.6974   -2.3758    1.0161 C   0  0  0  0  0  0  0  0  0  0  0  0
    5.6872   -1.4369    0.7758 C   0  0  0  0  0  0  0  0  0  0  0  0
    5.9713   -0.1482    0.2992 C   0  0  0  0  0  0  0  0  0  0  0  0
    4.9653    0.7806    0.0147 N   0  0  0  0  0  0  0  0  0  0  0  0
    3.7474    0.8380    0.8521 C   0  0  0  0  0  0  0  0  0  0  0  0
    2.5487    0.0782    0.2410 C   0  0  0  0  0  0  0  0  0  0  0  0
    2.3579    0.4267   -1.1733 N   0  0  0  0  0  0  0  0  0  0  0  0
    1.4683    1.3912   -1.6330 C   0  0  0  0  0  0  0  0  0  0  0  0
    1.6628    1.9822   -2.6993 O   0  0  0  0  0  0  0  0  0  0  0  0
    0.2142    1.6726   -0.8037 C   0  0  0  0  0  0  0  0  0  0  0  0
   -0.5637    2.8734   -1.3587 C   0  0  0  0  0  0  0  0  0  0  0  0
   -1.8268    3.1643   -0.5456 C   0  0  0  0  0  0  0  0  0  0  0  0
   -2.2862    1.9927    0.3268 C   0  0  0  0  0  0  0  0  0  0  0  0
   -2.0632    0.7376   -0.3800 N   0  0  0  0  0  0  0  0  0  0  0  0
   -2.8794   -0.3633   -0.1027 C   0  0  0  0  0  0  0  0  0  0  0  0
   -2.3473   -1.6212   -0.2457 N   0  0  0  0  0  0  0  0  0  0  0  0
   -3.1104   -2.7074   -0.0107 C   0  0  0  0  0  0  0  0  0  0  0  0
   -4.3967   -2.7526    0.3690 N   0  0  0  0  0  0  0  0  0  0  0  0
   -4.9002   -1.5147    0.4905 C   0  0  0  0  0  0  0  0  0  0  0  0
   -4.2482   -0.3071    0.2797 C   0  0  0  0  0  0  0  0  0  0  0  0
   -5.1339    0.7417    0.4803 N   0  0  0  0  0  0  0  0  0  0  0  0
   -6.2882    0.1907    0.7978 C   0  0  0  0  0  0  0  0  0  0  0  0
   -6.1819   -1.1793    0.8318 N   0  0  0  0  0  0  0  0  0  0  0  0
   -7.2586   -2.1020    1.1201 C   0  0  0  0  0  0  0  0  0  0  0  0
   -8.4025   -2.0138    0.1116 C   0  0  0  0  0  0  0  0  0  0  0  0
   -9.3131   -0.7965    0.3042 C   0  0  0  0  0  0  0  0  0  0  0  0
   -8.6520    0.5621    0.0551 C   0  0  0  0  0  0  0  0  0  0  0  0
   -7.5607    0.9182    1.0644 C   0  0  0  0  0  0  0  0  0  0  0  0
   -0.6889    0.4291   -0.8012 C   0  0  0  0  0  0  0  0  0  0  0  0
    3.5688    0.1870   -1.9690 C   0  0  0  0  0  0  0  0  0  0  0  0
    4.7387    1.0326   -1.4332 C   0  0  0  0  0  0  0  0  0  0  0  0
    7.3310    0.1931    0.1125 C   0  0  0  0  0  0  0  0  0  0  0  0
    7.7557    1.5709   -0.3262 C   0  0  0  0  0  0  0  0  0  0  0  0
    8.3399   -0.7644    0.3362 C   0  0  0  0  0  0  0  0  0  0  0  0
    8.7367   -4.0680    1.0594 H   0  0  0  0  0  0  0  0  0  0  0  0
    9.8878   -2.9936    0.2620 H   0  0  0  0  0  0  0  0  0  0  0  0
    9.5899   -2.8349    2.0146 H   0  0  0  0  0  0  0  0  0  0  0  0
    6.4260   -3.3638    1.3805 H   0  0  0  0  0  0  0  0  0  0  0  0
    4.6653   -1.7513    0.9528 H   0  0  0  0  0  0  0  0  0  0  0  0
    3.4719    1.8971    0.9425 H   0  0  0  0  0  0  0  0  0  0  0  0
    3.9426    0.4857    1.8725 H   0  0  0  0  0  0  0  0  0  0  0  0
    1.6594    0.2849    0.8378 H   0  0  0  0  0  0  0  0  0  0  0  0
    2.7119   -1.0044    0.2772 H   0  0  0  0  0  0  0  0  0  0  0  0
    0.5245    1.9355    0.2154 H   0  0  0  0  0  0  0  0  0  0  0  0
    0.0711    3.7672   -1.3877 H   0  0  0  0  0  0  0  0  0  0  0  0
   -0.8541    2.6762   -2.3999 H   0  0  0  0  0  0  0  0  0  0  0  0
   -1.6653    4.0399    0.0956 H   0  0  0  0  0  0  0  0  0  0  0  0
   -2.6299    3.4437   -1.2404 H   0  0  0  0  0  0  0  0  0  0  0  0
   -3.3262    2.1799    0.5973 H   0  0  0  0  0  0  0  0  0  0  0  0
   -1.7204    1.9828    1.2674 H   0  0  0  0  0  0  0  0  0  0  0  0
   -2.6191   -3.6658   -0.1486 H   0  0  0  0  0  0  0  0  0  0  0  0
   -7.6025   -1.9012    2.1419 H   0  0  0  0  0  0  0  0  0  0  0  0
   -6.8464   -3.1167    1.1092 H   0  0  0  0  0  0  0  0  0  0  0  0
   -8.0113   -2.0277   -0.9138 H   0  0  0  0  0  0  0  0  0  0  0  0
   -9.0245   -2.9108    0.2235 H   0  0  0  0  0  0  0  0  0  0  0  0
  -10.1555   -0.8951   -0.3926 H   0  0  0  0  0  0  0  0  0  0  0  0
   -9.7463   -0.8146    1.3133 H   0  0  0  0  0  0  0  0  0  0  0  0
   -9.4353    1.3275    0.1211 H   0  0  0  0  0  0  0  0  0  0  0  0
   -8.2594    0.6009   -0.9689 H   0  0  0  0  0  0  0  0  0  0  0  0
   -7.8995    0.7271    2.0897 H   0  0  0  0  0  0  0  0  0  0  0  0
   -7.3617    1.9950    0.9981 H   0  0  0  0  0  0  0  0  0  0  0  0
   -0.2445   -0.3245   -0.1399 H   0  0  0  0  0  0  0  0  0  0  0  0
   -0.7209   -0.0093   -1.8088 H   0  0  0  0  0  0  0  0  0  0  0  0
    3.8035   -0.8818   -1.9003 H   0  0  0  0  0  0  0  0  0  0  0  0
    3.3915    0.4168   -3.0254 H   0  0  0  0  0  0  0  0  0  0  0  0
    5.6309    0.8339   -2.0357 H   0  0  0  0  0  0  0  0  0  0  0  0
    4.5044    2.0971   -1.5533 H   0  0  0  0  0  0  0  0  0  0  0  0
    7.0653    2.3393    0.0348 H   0  0  0  0  0  0  0  0  0  0  0  0
    7.8110    1.6197   -1.4176 H   0  0  0  0  0  0  0  0  0  0  0  0
    8.7397    1.8210    0.0848 H   0  0  0  0  0  0  0  0  0  0  0  0
    9.3810   -0.4909    0.1713 H   0  0  0  0  0  0  0  0  0  0  0  0
  1  2  1  0
  2  3  2  0
  3  4  1  0
  4  5  2  0
  5  6  1  0
  6  7  1  0
  7  8  1  0
  8  9  1  0
  9 10  1  0
 10 11  2  0
 10 12  1  0
 12 13  1  0
 13 14  1  0
 14 15  1  0
 15 16  1  0
 16 17  1  0
 17 18  2  0
 18 19  1  0
 19 20  2  0
 20 21  1  0
 21 22  2  0
 22 23  1  0
 23 24  2  0
 24 25  1  0
 25 26  1  0
 26 27  1  0
 27 28  1  0
 28 29  1  0
 29 30  1  0
 16 31  1  0
  9 32  1  0
 32 33  1  0
  5 34  1  0
 34 35  1  0
 34 36  2  0
 36  2  1  0
 33  6  1  0
 31 12  1  0
 22 17  1  0
 30 24  1  0
 25 21  1  0
  1 37  1  0
  1 38  1  0
  1 39  1  0
  3 40  1  0
  4 41  1  0
  7 42  1  0
  7 43  1  0
  8 44  1  0
  8 45  1  0
 12 46  1  0
 13 47  1  0
 13 48  1  0
 14 49  1  0
 14 50  1  0
 15 51  1  0
 15 52  1  0
 19 53  1  0
 26 54  1  0
 26 55  1  0
 27 56  1  0
 27 57  1  0
 28 58  1  0
 28 59  1  0
 29 60  1  0
 29 61  1  0
 30 62  1  0
 30 63  1  0
 31 64  1  0
 31 65  1  0
 32 66  1  0
 32 67  1  0
 33 68  1  0
 33 69  1  0
 35 70  1  0
 35 71  1  0
 35 72  1  0
 36 73  1  0
M  END
$$$$
