
     RDKit          3D

 44 46  0  0  0  0  0  0  0  0999 V2000
   -0.4416    0.5228    1.0112 O   0  0  0  0  0  0  0  0  0  0  0  0
   -0.7856   -0.4795    1.6314 C   0  0  0  0  0  0  0  0  0  0  0  0
    0.2083   -1.3907    2.3334 C   0  0  0  0  0  0  0  0  0  0  0  0
    0.6713   -2.7533    1.2213 S   0  0  0  0  0  0  0  0  0  0  0  0
    1.8173   -1.8666    0.1960 C   0  0  0  0  0  0  0  0  0  0  0  0
    1.5774   -1.6925   -1.1537 C   0  0  0  0  0  0  0  0  0  0  0  0
    2.5146   -0.9963   -1.9168 C   0  0  0  0  0  0  0  0  0  0  0  0
    3.6658   -0.5073   -1.3088 C   0  0  0  0  0  0  0  0  0  0  0  0
    4.7164    0.2386   -2.0259 C   0  0  0  0  0  0  0  0  0  0  0  0
    6.0686    0.1188   -1.6496 C   0  0  0  0  0  0  0  0  0  0  0  0
    7.0776    0.8186   -2.3183 C   0  0  0  0  0  0  0  0  0  0  0  0
    6.7549    1.6602   -3.3790 C   0  0  0  0  0  0  0  0  0  0  0  0
    5.4264    1.8030   -3.7685 C   0  0  0  0  0  0  0  0  0  0  0  0
    4.4189    1.1009   -3.0980 C   0  0  0  0  0  0  0  0  0  0  0  0
    3.8728   -0.7202    0.0120 N   0  0  0  0  0  0  0  0  0  0  0  0
    2.9445   -1.4013    0.7691 N   0  0  0  0  0  0  0  0  0  0  0  0
   -2.1014   -0.8949    1.7268 N   0  0  0  0  0  0  0  0  0  0  0  0
   -3.2004   -0.1066    1.1868 C   0  0  0  0  0  0  0  0  0  0  0  0
   -3.6263    0.9818    2.1810 C   0  0  0  0  0  0  0  0  0  0  0  0
   -4.8250    1.7769    1.6673 C   0  0  0  0  0  0  0  0  0  0  0  0
   -5.9932    0.8652    1.3027 C   0  0  0  0  0  0  0  0  0  0  0  0
   -5.5735   -0.2201    0.3156 C   0  0  0  0  0  0  0  0  0  0  0  0
   -4.3804   -1.0190    0.8336 C   0  0  0  0  0  0  0  0  0  0  0  0
   -0.2546   -1.8126    3.2321 H   0  0  0  0  0  0  0  0  0  0  0  0
    1.0751   -0.8091    2.6627 H   0  0  0  0  0  0  0  0  0  0  0  0
    0.6759   -2.0796   -1.6161 H   0  0  0  0  0  0  0  0  0  0  0  0
    2.3409   -0.8622   -2.9786 H   0  0  0  0  0  0  0  0  0  0  0  0
    6.3462   -0.5312   -0.8204 H   0  0  0  0  0  0  0  0  0  0  0  0
    8.1125    0.7075   -2.0038 H   0  0  0  0  0  0  0  0  0  0  0  0
    7.5366    2.2106   -3.8950 H   0  0  0  0  0  0  0  0  0  0  0  0
    5.1691    2.4697   -4.5886 H   0  0  0  0  0  0  0  0  0  0  0  0
    3.3886    1.2584   -3.4127 H   0  0  0  0  0  0  0  0  0  0  0  0
   -2.3233   -1.6679    2.3424 H   0  0  0  0  0  0  0  0  0  0  0  0
   -2.8456    0.3801    0.2694 H   0  0  0  0  0  0  0  0  0  0  0  0
   -3.8817    0.5230    3.1449 H   0  0  0  0  0  0  0  0  0  0  0  0
   -2.7912    1.6650    2.3764 H   0  0  0  0  0  0  0  0  0  0  0  0
   -5.1446    2.4963    2.4297 H   0  0  0  0  0  0  0  0  0  0  0  0
   -4.5260    2.3581    0.7862 H   0  0  0  0  0  0  0  0  0  0  0  0
   -6.8073    1.4598    0.8720 H   0  0  0  0  0  0  0  0  0  0  0  0
   -6.3873    0.3967    2.2132 H   0  0  0  0  0  0  0  0  0  0  0  0
   -5.3146    0.2399   -0.6457 H   0  0  0  0  0  0  0  0  0  0  0  0
   -6.4168   -0.8948    0.1289 H   0  0  0  0  0  0  0  0  0  0  0  0
   -4.6859   -1.5939    1.7182 H   0  0  0  0  0  0  0  0  0  0  0  0
   -4.0732   -1.7526    0.0783 H   0  0  0  0  0  0  0  0  0  0  0  0
  1  2  2  0
  2  3  1  0
  3  4  1  0
  4  5  1  0
  5  6  2  0
  6  7  1  0
  7  8  2  0
  8  9  1  0
  9 10  2  0
 10 11  1  0
 11 12  2  0
 12 13  1  0
 13 14  2  0
  8 15  1  0
 15 16  2  0
  2 17  1  0
 17 18  1  0
 18 19  1  0
 19 20  1  0
 20 21  1  0
 21 22  1  0
 22 23  1  0
 16  5  1  0
 23 18  1  0
 14  9  1  0
  3 24  1  0
  3 25  1  0
  6 26  1  0
  7 27  1  0
 10 28  1  0
 11 29  1  0
 12 30  1  0
 13 31  1  0
 14 32  1  0
 17 33  1  0
 18 34  1  0
 19 35  1  0
 19 36  1  0
 20 37  1  0
 20 38  1  0
 21 39  1  0
 21 40  1  0
 22 41  1  0
 22 42  1  0
 23 43  1  0
 23 44  1  0
M  END
$$$$
