
     RDKit          3D

 43 44  0  0  0  0  0  0  0  0999 V2000
   -4.7634   -0.7112   -2.9065 C   0  0  0  0  0  0  0  0  0  0  0  0
   -5.6512   -0.7455   -1.7989 O   0  0  0  0  0  0  0  0  0  0  0  0
   -5.1543   -0.3807   -0.5750 C   0  0  0  0  0  0  0  0  0  0  0  0
   -3.8307    0.0009   -0.3257 C   0  0  0  0  0  0  0  0  0  0  0  0
   -3.4170    0.3656    0.9670 C   0  0  0  0  0  0  0  0  0  0  0  0
   -2.0276    0.7470    1.2695 C   0  0  0  0  0  0  0  0  0  0  0  0
   -1.2733    1.4924    0.4489 C   0  0  0  0  0  0  0  0  0  0  0  0
    0.1305    1.9122    0.7130 C   0  0  0  0  0  0  0  0  0  0  0  0
    0.7091    2.5695   -0.1544 O   0  0  0  0  0  0  0  0  0  0  0  0
    0.8232    1.5528    1.9986 C   0  0  0  0  0  0  0  0  0  0  0  0
    1.2657    0.1171    2.0676 C   0  0  0  0  0  0  0  0  0  0  0  0
    0.6450   -0.7030    2.7473 O   0  0  0  0  0  0  0  0  0  0  0  0
    2.4647   -0.3576    1.3241 C   0  0  0  0  0  0  0  0  0  0  0  0
    3.2268    0.3968    0.5190 C   0  0  0  0  0  0  0  0  0  0  0  0
    4.4122   -0.1152   -0.1864 C   0  0  0  0  0  0  0  0  0  0  0  0
    4.4603   -1.4031   -0.7404 C   0  0  0  0  0  0  0  0  0  0  0  0
    5.5966   -1.8426   -1.4274 C   0  0  0  0  0  0  0  0  0  0  0  0
    6.6832   -0.9874   -1.5702 C   0  0  0  0  0  0  0  0  0  0  0  0
    7.8104   -1.3735   -2.2318 O   0  0  0  0  0  0  0  0  0  0  0  0
    6.6490    0.2972   -1.0441 C   0  0  0  0  0  0  0  0  0  0  0  0
    5.5131    0.7350   -0.3589 C   0  0  0  0  0  0  0  0  0  0  0  0
   -4.3405    0.3129    2.0185 C   0  0  0  0  0  0  0  0  0  0  0  0
   -5.6625   -0.0672    1.7836 C   0  0  0  0  0  0  0  0  0  0  0  0
   -6.0616   -0.4076    0.4926 C   0  0  0  0  0  0  0  0  0  0  0  0
   -7.3588   -0.7798    0.2591 O   0  0  0  0  0  0  0  0  0  0  0  0
   -5.3254   -1.0133   -3.7955 H   0  0  0  0  0  0  0  0  0  0  0  0
   -4.3863    0.3020   -3.0805 H   0  0  0  0  0  0  0  0  0  0  0  0
   -3.9415   -1.4228   -2.7756 H   0  0  0  0  0  0  0  0  0  0  0  0
   -3.1014    0.0066   -1.1284 H   0  0  0  0  0  0  0  0  0  0  0  0
   -1.6571    0.3892    2.2268 H   0  0  0  0  0  0  0  0  0  0  0  0
   -1.6601    1.8642   -0.4962 H   0  0  0  0  0  0  0  0  0  0  0  0
    1.6869    2.2117    2.1438 H   0  0  0  0  0  0  0  0  0  0  0  0
    0.1626    1.7713    2.8455 H   0  0  0  0  0  0  0  0  0  0  0  0
    2.6925   -1.4049    1.5031 H   0  0  0  0  0  0  0  0  0  0  0  0
    3.0198    1.4507    0.3511 H   0  0  0  0  0  0  0  0  0  0  0  0
    3.6110   -2.0768   -0.6562 H   0  0  0  0  0  0  0  0  0  0  0  0
    5.6096   -2.8446   -1.8445 H   0  0  0  0  0  0  0  0  0  0  0  0
    7.6898   -2.2842   -2.5467 H   0  0  0  0  0  0  0  0  0  0  0  0
    7.5018    0.9585   -1.1685 H   0  0  0  0  0  0  0  0  0  0  0  0
    5.5019    1.7457    0.0432 H   0  0  0  0  0  0  0  0  0  0  0  0
   -4.0402    0.5735    3.0314 H   0  0  0  0  0  0  0  0  0  0  0  0
   -6.3614   -0.0935    2.6137 H   0  0  0  0  0  0  0  0  0  0  0  0
   -7.8516   -0.7583    1.0935 H   0  0  0  0  0  0  0  0  0  0  0  0
  1  2  1  0
  2  3  1  0
  3  4  2  0
  4  5  1  0
  5  6  1  0
  6  7  2  3
  7  8  1  0
  8  9  2  0
  8 10  1  0
 10 11  1  0
 11 12  2  0
 11 13  1  0
 13 14  2  3
 14 15  1  0
 15 16  2  0
 16 17  1  0
 17 18  2  0
 18 19  1  0
 18 20  1  0
 20 21  2  0
  5 22  2  0
 22 23  1  0
 23 24  2  0
 24 25  1  0
 24  3  1  0
 21 15  1  0
  1 26  1  0
  1 27  1  0
  1 28  1  0
  4 29  1  0
  6 30  1  0
  7 31  1  0
 10 32  1  0
 10 33  1  0
 13 34  1  0
 14 35  1  0
 16 36  1  0
 17 37  1  0
 19 38  1  0
 20 39  1  0
 21 40  1  0
 22 41  1  0
 23 42  1  0
 25 43  1  0
M  END
$$$$
