
     RDKit          3D

 53 54  0  0  0  0  0  0  0  0999 V2000
    0.2538    4.3079    1.1738 C   0  0  0  0  0  0  0  0  0  0  0  0
   -1.1370    3.5048    2.0069 S   0  0  0  0  0  0  0  0  0  0  0  0
   -0.8659    1.7809    1.4728 C   0  0  0  0  0  0  0  0  0  0  0  0
    0.3109    1.1322    2.2049 C   0  0  0  0  0  0  0  0  0  0  0  0
    0.5460   -0.3288    1.7912 C   0  0  0  0  0  0  0  0  0  0  0  0
   -0.6047   -1.1782    2.0748 N   0  0  0  0  0  0  0  0  0  0  0  0
   -0.8853   -1.6667    3.3273 C   0  0  0  0  0  0  0  0  0  0  0  0
   -0.1800   -1.4335    4.3058 O   0  0  0  0  0  0  0  0  0  0  0  0
   -2.1421   -2.5332    3.4148 C   0  0  0  0  0  0  0  0  0  0  0  0
   -2.8163   -2.5763    2.1600 O   0  0  0  0  0  0  0  0  0  0  0  0
   -3.9861   -3.2826    2.1109 C   0  0  0  0  0  0  0  0  0  0  0  0
   -4.6411   -3.2401    0.8764 C   0  0  0  0  0  0  0  0  0  0  0  0
   -5.8478   -3.9159    0.6885 C   0  0  0  0  0  0  0  0  0  0  0  0
   -6.4066   -4.6429    1.7356 C   0  0  0  0  0  0  0  0  0  0  0  0
   -5.7575   -4.6928    2.9678 C   0  0  0  0  0  0  0  0  0  0  0  0
   -4.5490   -4.0144    3.1577 C   0  0  0  0  0  0  0  0  0  0  0  0
    0.9004   -0.4323    0.3054 C   0  0  0  0  0  0  0  0  0  0  0  0
    0.1450   -0.8657   -0.5561 O   0  0  0  0  0  0  0  0  0  0  0  0
    2.1519    0.0533    0.0754 O   0  0  0  0  0  0  0  0  0  0  0  0
    2.5656   -0.0057   -1.2969 C   0  0  0  0  0  0  0  0  0  0  0  0
    3.9674    0.5870   -1.4101 C   0  0  0  0  0  0  0  0  0  0  0  0
    4.4410    0.5495   -2.7540 O   0  0  0  0  0  0  0  0  0  0  0  0
    4.1823    1.6123   -3.5715 C   0  0  0  0  0  0  0  0  0  0  0  0
    3.3715    2.7089   -3.2751 C   0  0  0  0  0  0  0  0  0  0  0  0
    3.1928    3.7274   -4.2184 C   0  0  0  0  0  0  0  0  0  0  0  0
    3.8239    3.6469   -5.4581 C   0  0  0  0  0  0  0  0  0  0  0  0
    3.5828    5.0264   -6.7260 Br  0  0  0  0  0  0  0  0  0  0  0  0
    4.6295    2.5551   -5.7667 C   0  0  0  0  0  0  0  0  0  0  0  0
    4.8035    1.5410   -4.8228 C   0  0  0  0  0  0  0  0  0  0  0  0
    1.2034    3.9855    1.6052 H   0  0  0  0  0  0  0  0  0  0  0  0
    0.2403    4.0883    0.1032 H   0  0  0  0  0  0  0  0  0  0  0  0
    0.1695    5.3903    1.3042 H   0  0  0  0  0  0  0  0  0  0  0  0
   -1.7897    1.2340    1.6870 H   0  0  0  0  0  0  0  0  0  0  0  0
   -0.7254    1.7695    0.3877 H   0  0  0  0  0  0  0  0  0  0  0  0
    1.2289    1.6997    2.0130 H   0  0  0  0  0  0  0  0  0  0  0  0
    0.1321    1.1724    3.2871 H   0  0  0  0  0  0  0  0  0  0  0  0
    1.3914   -0.7371    2.3595 H   0  0  0  0  0  0  0  0  0  0  0  0
   -1.2180   -1.4545    1.3084 H   0  0  0  0  0  0  0  0  0  0  0  0
   -1.8201   -3.5394    3.7077 H   0  0  0  0  0  0  0  0  0  0  0  0
   -2.7875   -2.0841    4.1776 H   0  0  0  0  0  0  0  0  0  0  0  0
   -4.2094   -2.6755    0.0535 H   0  0  0  0  0  0  0  0  0  0  0  0
   -6.3491   -3.8733   -0.2739 H   0  0  0  0  0  0  0  0  0  0  0  0
   -7.3461   -5.1703    1.5927 H   0  0  0  0  0  0  0  0  0  0  0  0
   -6.1932   -5.2609    3.7862 H   0  0  0  0  0  0  0  0  0  0  0  0
   -4.0775   -4.0824    4.1315 H   0  0  0  0  0  0  0  0  0  0  0  0
    2.5755   -1.0480   -1.6410 H   0  0  0  0  0  0  0  0  0  0  0  0
    1.8594    0.5541   -1.9218 H   0  0  0  0  0  0  0  0  0  0  0  0
    4.6526   -0.0311   -0.8151 H   0  0  0  0  0  0  0  0  0  0  0  0
    4.0382    1.5851   -0.9602 H   0  0  0  0  0  0  0  0  0  0  0  0
    2.8592    2.8071   -2.3247 H   0  0  0  0  0  0  0  0  0  0  0  0
    2.5600    4.5776   -3.9755 H   0  0  0  0  0  0  0  0  0  0  0  0
    5.1235    2.4814   -6.7315 H   0  0  0  0  0  0  0  0  0  0  0  0
    5.4329    0.6871   -5.0641 H   0  0  0  0  0  0  0  0  0  0  0  0
  1  2  1  0
  2  3  1  0
  3  4  1  0
  4  5  1  0
  5  6  1  0
  6  7  1  0
  7  8  2  0
  7  9  1  0
  9 10  1  0
 10 11  1  0
 11 12  2  0
 12 13  1  0
 13 14  2  0
 14 15  1  0
 15 16  2  0
  5 17  1  0
 17 18  2  0
 17 19  1  0
 19 20  1  0
 20 21  1  0
 21 22  1  0
 22 23  1  0
 23 24  2  0
 24 25  1  0
 25 26  2  0
 26 27  1  0
 26 28  1  0
 28 29  2  0
 16 11  1  0
 29 23  1  0
  1 30  1  0
  1 31  1  0
  1 32  1  0
  3 33  1  0
  3 34  1  0
  4 35  1  0
  4 36  1  0
  5 37  1  0
  6 38  1  0
  9 39  1  0
  9 40  1  0
 12 41  1  0
 13 42  1  0
 14 43  1  0
 15 44  1  0
 16 45  1  0
 20 46  1  0
 20 47  1  0
 21 48  1  0
 21 49  1  0
 24 50  1  0
 25 51  1  0
 28 52  1  0
 29 53  1  0
M  END
$$$$
