
     RDKit          3D

 38 40  0  0  0  0  0  0  0  0999 V2000
   -4.3589    1.1132   -1.2777 C   0  0  0  0  0  0  0  0  0  0  0  0
   -4.4140    0.0338   -0.3523 O   0  0  0  0  0  0  0  0  0  0  0  0
   -3.2129   -0.4497    0.1001 C   0  0  0  0  0  0  0  0  0  0  0  0
   -1.9474   -0.0119   -0.2914 C   0  0  0  0  0  0  0  0  0  0  0  0
   -0.7912   -0.5986    0.2576 C   0  0  0  0  0  0  0  0  0  0  0  0
   -0.9175   -1.6294    1.2056 C   0  0  0  0  0  0  0  0  0  0  0  0
   -2.1819   -2.0824    1.5860 C   0  0  0  0  0  0  0  0  0  0  0  0
   -3.3092   -1.4871    1.0348 C   0  0  0  0  0  0  0  0  0  0  0  0
   -4.5379   -1.9440    1.4303 O   0  0  0  0  0  0  0  0  0  0  0  0
    0.3388   -2.2325    1.7634 C   0  0  0  0  0  0  0  0  0  0  0  0
    1.3693   -1.1313    1.9975 C   0  0  0  0  0  0  0  0  0  0  0  0
    1.6257   -0.2600    0.8432 N   0  0  0  0  0  0  0  0  0  0  0  0
    2.7537    0.5796    0.9509 C   0  0  0  0  0  0  0  0  0  0  0  0
    3.4570    0.5072    1.9648 O   0  0  0  0  0  0  0  0  0  0  0  0
    3.1103    1.5369   -0.0920 C   0  0  0  0  0  0  0  0  0  0  0  0
    4.1048    2.5040   -0.0742 C   0  0  0  0  0  0  0  0  0  0  0  0
    4.0726    3.1658   -1.3235 C   0  0  0  0  0  0  0  0  0  0  0  0
    3.0678    2.5651   -2.0401 C   0  0  0  0  0  0  0  0  0  0  0  0
    2.4851    1.5826   -1.3087 O   0  0  0  0  0  0  0  0  0  0  0  0
    0.5959   -0.1690   -0.2116 C   0  0  0  0  0  0  0  0  0  0  0  0
    0.9901   -1.0184   -1.4286 C   0  0  0  0  0  0  0  0  0  0  0  0
   -3.8666    0.8099   -2.2075 H   0  0  0  0  0  0  0  0  0  0  0  0
   -5.3873    1.3957   -1.5226 H   0  0  0  0  0  0  0  0  0  0  0  0
   -3.8694    1.9878   -0.8364 H   0  0  0  0  0  0  0  0  0  0  0  0
   -1.8277    0.7771   -1.0269 H   0  0  0  0  0  0  0  0  0  0  0  0
   -2.2981   -2.8858    2.3075 H   0  0  0  0  0  0  0  0  0  0  0  0
   -5.1789   -1.3994    0.9334 H   0  0  0  0  0  0  0  0  0  0  0  0
    0.7218   -2.9778    1.0569 H   0  0  0  0  0  0  0  0  0  0  0  0
    0.1380   -2.7448    2.7113 H   0  0  0  0  0  0  0  0  0  0  0  0
    2.3127   -1.5869    2.3216 H   0  0  0  0  0  0  0  0  0  0  0  0
    1.0325   -0.4763    2.8125 H   0  0  0  0  0  0  0  0  0  0  0  0
    4.7709    2.6932    0.7575 H   0  0  0  0  0  0  0  0  0  0  0  0
    4.7059    3.9746   -1.6601 H   0  0  0  0  0  0  0  0  0  0  0  0
    2.6663    2.7112   -3.0333 H   0  0  0  0  0  0  0  0  0  0  0  0
    0.5078    0.8821   -0.4994 H   0  0  0  0  0  0  0  0  0  0  0  0
    0.2903   -0.8635   -2.2575 H   0  0  0  0  0  0  0  0  0  0  0  0
    0.9863   -2.0885   -1.1921 H   0  0  0  0  0  0  0  0  0  0  0  0
    1.9954   -0.7824   -1.7885 H   0  0  0  0  0  0  0  0  0  0  0  0
  1  2  1  0
  2  3  1  0
  3  4  2  0
  4  5  1  0
  5  6  2  0
  6  7  1  0
  7  8  2  0
  8  9  1  0
  6 10  1  0
 10 11  1  0
 11 12  1  0
 12 13  1  0
 13 14  2  0
 13 15  1  0
 15 16  2  0
 16 17  1  0
 17 18  2  0
 18 19  1  0
 12 20  1  0
 20 21  1  0
  8  3  1  0
 19 15  1  0
 20  5  1  0
  1 22  1  0
  1 23  1  0
  1 24  1  0
  4 25  1  0
  7 26  1  0
  9 27  1  0
 10 28  1  0
 10 29  1  0
 11 30  1  0
 11 31  1  0
 16 32  1  0
 17 33  1  0
 18 34  1  0
 20 35  1  0
 21 36  1  0
 21 37  1  0
 21 38  1  0
M  END
$$$$
