
     RDKit          3D

 50 51  0  0  0  0  0  0  0  0999 V2000
    8.0553   -3.0091    1.3126 C   0  0  0  0  0  0  0  0  0  0  0  0
    6.9501   -2.2546    0.8145 O   0  0  0  0  0  0  0  0  0  0  0  0
    7.0054   -0.9334    1.1218 C   0  0  0  0  0  0  0  0  0  0  0  0
    7.8850   -0.3873    1.7682 O   0  0  0  0  0  0  0  0  0  0  0  0
    5.8251   -0.2158    0.5664 C   0  0  0  0  0  0  0  0  0  0  0  0
    5.6886    1.1481    0.8506 C   0  0  0  0  0  0  0  0  0  0  0  0
    4.5964    1.8633    0.3558 C   0  0  0  0  0  0  0  0  0  0  0  0
    3.6287    1.2304   -0.4389 C   0  0  0  0  0  0  0  0  0  0  0  0
    2.4373    2.0087   -0.9369 C   0  0  0  0  0  0  0  0  0  0  0  0
    1.3794    1.9885    0.0443 N   0  0  0  0  0  0  0  0  0  0  0  0
    0.3695    2.9222    0.0023 C   0  0  0  0  0  0  0  0  0  0  0  0
    0.3452    3.8637   -0.7889 O   0  0  0  0  0  0  0  0  0  0  0  0
   -0.7489    2.6710    1.0164 C   0  0  0  0  0  0  0  0  0  0  0  0
   -1.8691    1.9919    0.4453 O   0  0  0  0  0  0  0  0  0  0  0  0
   -1.6536    0.6836    0.1406 C   0  0  0  0  0  0  0  0  0  0  0  0
   -0.6132    0.0698    0.3586 O   0  0  0  0  0  0  0  0  0  0  0  0
   -2.8812    0.0800   -0.4920 C   0  0  0  0  0  0  0  0  0  0  0  0
   -3.7898   -0.5208    0.5762 C   0  0  0  0  0  0  0  0  0  0  0  0
   -5.1593   -1.0029    0.0829 C   0  0  0  0  0  0  0  0  0  0  0  0
   -6.1240    0.1208   -0.3197 C   0  0  0  0  0  0  0  0  0  0  0  0
   -7.0806   -0.5030   -1.3422 C   0  0  0  0  0  0  0  0  0  0  0  0
   -6.6047   -1.9355   -1.5593 C   0  0  0  0  0  0  0  0  0  0  0  0
   -5.1402   -1.9175   -1.1397 C   0  0  0  0  0  0  0  0  0  0  0  0
    3.7624   -0.1368   -0.7149 C   0  0  0  0  0  0  0  0  0  0  0  0
    4.8549   -0.8548   -0.2192 C   0  0  0  0  0  0  0  0  0  0  0  0
    8.0612   -2.9984    2.4070 H   0  0  0  0  0  0  0  0  0  0  0  0
    8.9987   -2.6207    0.9166 H   0  0  0  0  0  0  0  0  0  0  0  0
    7.9401   -4.0433    0.9725 H   0  0  0  0  0  0  0  0  0  0  0  0
    6.4291    1.6592    1.4642 H   0  0  0  0  0  0  0  0  0  0  0  0
    4.4975    2.9189    0.5976 H   0  0  0  0  0  0  0  0  0  0  0  0
    2.0451    1.5755   -1.8662 H   0  0  0  0  0  0  0  0  0  0  0  0
    2.7227    3.0449   -1.1623 H   0  0  0  0  0  0  0  0  0  0  0  0
    1.1093    1.0740    0.3971 H   0  0  0  0  0  0  0  0  0  0  0  0
   -1.0967    3.6473    1.3812 H   0  0  0  0  0  0  0  0  0  0  0  0
   -0.3696    2.1278    1.8937 H   0  0  0  0  0  0  0  0  0  0  0  0
   -3.3833    0.8522   -1.0817 H   0  0  0  0  0  0  0  0  0  0  0  0
   -2.5422   -0.6816   -1.2016 H   0  0  0  0  0  0  0  0  0  0  0  0
   -3.2644   -1.3705    1.0386 H   0  0  0  0  0  0  0  0  0  0  0  0
   -3.9434    0.2105    1.3827 H   0  0  0  0  0  0  0  0  0  0  0  0
   -5.6285   -1.5565    0.9111 H   0  0  0  0  0  0  0  0  0  0  0  0
   -6.6724    0.5044    0.5521 H   0  0  0  0  0  0  0  0  0  0  0  0
   -5.6034    0.9753   -0.7729 H   0  0  0  0  0  0  0  0  0  0  0  0
   -7.0397    0.0602   -2.2805 H   0  0  0  0  0  0  0  0  0  0  0  0
   -8.1183   -0.4780   -0.9934 H   0  0  0  0  0  0  0  0  0  0  0  0
   -6.7385   -2.2619   -2.5957 H   0  0  0  0  0  0  0  0  0  0  0  0
   -7.1734   -2.6194   -0.9151 H   0  0  0  0  0  0  0  0  0  0  0  0
   -4.5327   -1.5028   -1.9530 H   0  0  0  0  0  0  0  0  0  0  0  0
   -4.7646   -2.9211   -0.9052 H   0  0  0  0  0  0  0  0  0  0  0  0
    3.0152   -0.6530   -1.3149 H   0  0  0  0  0  0  0  0  0  0  0  0
    4.9339   -1.9136   -0.4517 H   0  0  0  0  0  0  0  0  0  0  0  0
  1  2  1  0
  2  3  1  0
  3  4  2  0
  3  5  1  0
  5  6  2  0
  6  7  1  0
  7  8  2  0
  8  9  1  0
  9 10  1  0
 10 11  1  0
 11 12  2  0
 11 13  1  0
 13 14  1  0
 14 15  1  0
 15 16  2  0
 15 17  1  0
 17 18  1  0
 18 19  1  0
 19 20  1  0
 20 21  1  0
 21 22  1  0
 22 23  1  0
  8 24  1  0
 24 25  2  0
 25  5  1  0
 23 19  1  0
  1 26  1  0
  1 27  1  0
  1 28  1  0
  6 29  1  0
  7 30  1  0
  9 31  1  0
  9 32  1  0
 10 33  1  0
 13 34  1  0
 13 35  1  0
 17 36  1  0
 17 37  1  0
 18 38  1  0
 18 39  1  0
 19 40  1  0
 20 41  1  0
 20 42  1  0
 21 43  1  0
 21 44  1  0
 22 45  1  0
 22 46  1  0
 23 47  1  0
 23 48  1  0
 24 49  1  0
 25 50  1  0
M  END
$$$$
