
     RDKit          3D

 39 41  0  0  0  0  0  0  0  0999 V2000
    4.8957   -0.8360   -0.5449 C   0  0  0  0  0  0  0  0  0  0  0  0
    4.2520    0.4604   -0.0513 C   0  0  0  0  0  0  0  0  0  0  0  0
    5.0029    0.9733    1.1800 C   0  0  0  0  0  0  0  0  0  0  0  0
    2.7600    0.2843    0.2833 C   0  0  0  0  0  0  0  0  0  0  0  0
    1.9022   -0.0864   -0.9326 C   0  0  0  0  0  0  0  0  0  0  0  0
    0.4805   -0.1180   -0.5936 N   0  0  0  0  0  0  0  0  0  0  0  0
   -0.0362   -1.3089   -0.0891 C   0  0  0  0  0  0  0  0  0  0  0  0
    0.6332   -2.3253    0.0810 O   0  0  0  0  0  0  0  0  0  0  0  0
   -1.4757   -1.3238    0.2612 C   0  0  0  0  0  0  0  0  0  0  0  0
   -2.0453   -2.5183    0.7181 C   0  0  0  0  0  0  0  0  0  0  0  0
   -3.3935   -2.5618    1.0434 C   0  0  0  0  0  0  0  0  0  0  0  0
   -4.1722   -1.4105    0.9215 C   0  0  0  0  0  0  0  0  0  0  0  0
   -3.6258   -0.1844    0.4745 C   0  0  0  0  0  0  0  0  0  0  0  0
   -4.3854    1.0125    0.3608 C   0  0  0  0  0  0  0  0  0  0  0  0
   -5.7793    1.0607    0.5735 N   0  0  0  0  0  0  0  0  0  0  0  0
   -3.7932    2.1643   -0.1686 C   0  0  0  0  0  0  0  0  0  0  0  0
   -2.4437    2.1820   -0.5014 C   0  0  0  0  0  0  0  0  0  0  0  0
   -1.6732    1.0266   -0.3451 C   0  0  0  0  0  0  0  0  0  0  0  0
   -2.2457   -0.1595    0.1296 C   0  0  0  0  0  0  0  0  0  0  0  0
   -0.2374    1.0701   -0.7075 C   0  0  0  0  0  0  0  0  0  0  0  0
    0.2555    2.1320   -1.0808 O   0  0  0  0  0  0  0  0  0  0  0  0
    5.9701   -0.6982   -0.7085 H   0  0  0  0  0  0  0  0  0  0  0  0
    4.7659   -1.6454    0.1814 H   0  0  0  0  0  0  0  0  0  0  0  0
    4.4634   -1.1586   -1.4968 H   0  0  0  0  0  0  0  0  0  0  0  0
    4.3489    1.2152   -0.8419 H   0  0  0  0  0  0  0  0  0  0  0  0
    4.9454    0.2579    2.0075 H   0  0  0  0  0  0  0  0  0  0  0  0
    4.5829    1.9245    1.5240 H   0  0  0  0  0  0  0  0  0  0  0  0
    6.0603    1.1411    0.9496 H   0  0  0  0  0  0  0  0  0  0  0  0
    2.3800    1.2205    0.7128 H   0  0  0  0  0  0  0  0  0  0  0  0
    2.6402   -0.4781    1.0638 H   0  0  0  0  0  0  0  0  0  0  0  0
    2.0659    0.6385   -1.7386 H   0  0  0  0  0  0  0  0  0  0  0  0
    2.1927   -1.0688   -1.3200 H   0  0  0  0  0  0  0  0  0  0  0  0
   -1.4393   -3.4174    0.8167 H   0  0  0  0  0  0  0  0  0  0  0  0
   -3.8400   -3.4894    1.3942 H   0  0  0  0  0  0  0  0  0  0  0  0
   -5.2230   -1.4897    1.1871 H   0  0  0  0  0  0  0  0  0  0  0  0
   -6.2845    0.9806   -0.3070 H   0  0  0  0  0  0  0  0  0  0  0  0
   -6.1176    0.3698    1.2338 H   0  0  0  0  0  0  0  0  0  0  0  0
   -4.3877    3.0662   -0.3007 H   0  0  0  0  0  0  0  0  0  0  0  0
   -1.9991    3.0980   -0.8860 H   0  0  0  0  0  0  0  0  0  0  0  0
  1  2  1  0
  2  3  1  0
  2  4  1  0
  4  5  1  0
  5  6  1  0
  6  7  1  0
  7  8  2  0
  7  9  1  0
  9 10  1  0
 10 11  2  0
 11 12  1  0
 12 13  2  0
 13 14  1  0
 14 15  1  0
 14 16  2  0
 16 17  1  0
 17 18  2  0
 18 19  1  0
 18 20  1  0
 20 21  2  0
 20  6  1  0
 19  9  2  0
 19 13  1  0
  1 22  1  0
  1 23  1  0
  1 24  1  0
  2 25  1  0
  3 26  1  0
  3 27  1  0
  3 28  1  0
  4 29  1  0
  4 30  1  0
  5 31  1  0
  5 32  1  0
 10 33  1  0
 11 34  1  0
 12 35  1  0
 15 36  1  0
 15 37  1  0
 16 38  1  0
 17 39  1  0
M  END
$$$$
