
     RDKit          3D

 34 35  0  0  0  0  0  0  0  0999 V2000
   -0.3841   -1.6550   -0.9879 C   0  0  0  0  0  0  0  0  0  0  0  0
   -0.8613   -0.4905   -0.1431 C   0  0  0  0  0  0  0  0  0  0  0  0
   -0.0551    0.3740    0.4244 N   0  0  0  0  0  0  0  0  0  0  0  0
    1.2854    0.2424    0.1650 N   0  0  0  0  0  0  0  0  0  0  0  0
    1.7541    0.9279   -1.0502 C   0  0  0  0  0  0  0  0  0  0  0  0
    3.1838    0.5174   -1.3883 C   0  0  0  0  0  0  0  0  0  0  0  0
    4.1167    0.7415   -0.1991 C   0  0  0  0  0  0  0  0  0  0  0  0
    3.5783    0.0492    1.0520 C   0  0  0  0  0  0  0  0  0  0  0  0
    2.1390    0.4667    1.3364 C   0  0  0  0  0  0  0  0  0  0  0  0
   -2.3303   -0.3413    0.0872 C   0  0  0  0  0  0  0  0  0  0  0  0
   -2.7749    0.2225    1.2250 C   0  0  0  0  0  0  0  0  0  0  0  0
   -1.9841    0.7462    2.2167 O   0  0  0  0  0  0  0  0  0  0  0  0
   -4.1018    0.3331    1.4998 N   0  0  0  0  0  0  0  0  0  0  0  0
   -5.0916   -0.1154    0.6782 C   0  0  0  0  0  0  0  0  0  0  0  0
   -6.2808    0.0126    0.9452 O   0  0  0  0  0  0  0  0  0  0  0  0
   -4.6660   -0.7136   -0.4725 N   0  0  0  0  0  0  0  0  0  0  0  0
   -3.3610   -0.8116   -0.8744 C   0  0  0  0  0  0  0  0  0  0  0  0
   -3.0736   -1.2480   -1.9848 O   0  0  0  0  0  0  0  0  0  0  0  0
   -0.2667   -1.3306   -2.0251 H   0  0  0  0  0  0  0  0  0  0  0  0
    0.5711   -2.0389   -0.6194 H   0  0  0  0  0  0  0  0  0  0  0  0
   -1.0955   -2.4842   -0.9453 H   0  0  0  0  0  0  0  0  0  0  0  0
    1.0909    0.6773   -1.8842 H   0  0  0  0  0  0  0  0  0  0  0  0
    1.6902    2.0090   -0.8776 H   0  0  0  0  0  0  0  0  0  0  0  0
    3.5403    1.0845   -2.2551 H   0  0  0  0  0  0  0  0  0  0  0  0
    3.2025   -0.5444   -1.6639 H   0  0  0  0  0  0  0  0  0  0  0  0
    4.2157    1.8172   -0.0086 H   0  0  0  0  0  0  0  0  0  0  0  0
    5.1172    0.3617   -0.4337 H   0  0  0  0  0  0  0  0  0  0  0  0
    3.6200   -1.0374    0.9055 H   0  0  0  0  0  0  0  0  0  0  0  0
    4.2130    0.2850    1.9131 H   0  0  0  0  0  0  0  0  0  0  0  0
    1.7405   -0.1225    2.1700 H   0  0  0  0  0  0  0  0  0  0  0  0
    2.0849    1.5283    1.6056 H   0  0  0  0  0  0  0  0  0  0  0  0
   -1.0609    0.7724    1.8723 H   0  0  0  0  0  0  0  0  0  0  0  0
   -4.3775    0.7777    2.3666 H   0  0  0  0  0  0  0  0  0  0  0  0
   -5.3782   -1.0132   -1.1205 H   0  0  0  0  0  0  0  0  0  0  0  0
  1  2  1  0
  2  3  2  3
  3  4  1  0
  4  5  1  0
  5  6  1  0
  6  7  1  0
  7  8  1  0
  8  9  1  0
  2 10  1  0
 10 11  2  0
 11 12  1  0
 11 13  1  0
 13 14  1  0
 14 15  2  0
 14 16  1  0
 16 17  1  0
 17 18  2  0
  9  4  1  0
 17 10  1  0
  1 19  1  0
  1 20  1  0
  1 21  1  0
  5 22  1  0
  5 23  1  0
  6 24  1  0
  6 25  1  0
  7 26  1  0
  7 27  1  0
  8 28  1  0
  8 29  1  0
  9 30  1  0
  9 31  1  0
 12 32  1  0
 13 33  1  0
 16 34  1  0
M  END
$$$$
