
     RDKit          3D

 44 45  0  0  0  0  0  0  0  0999 V2000
    5.2770   -2.0711   -1.7623 C   0  0  0  0  0  0  0  0  0  0  0  0
    3.9923   -1.3399   -1.4789 C   0  0  0  0  0  0  0  0  0  0  0  0
    2.9664   -1.9303   -1.1568 O   0  0  0  0  0  0  0  0  0  0  0  0
    4.0819    0.0274   -1.5978 N   0  0  0  0  0  0  0  0  0  0  0  0
    2.9439    0.8921   -1.3401 C   0  0  0  0  0  0  0  0  0  0  0  0
    2.6822    1.1047    0.1545 C   0  0  0  0  0  0  0  0  0  0  0  0
    1.7129    2.1333    0.3740 O   0  0  0  0  0  0  0  0  0  0  0  0
    0.4099    1.6786    0.3863 C   0  0  0  0  0  0  0  0  0  0  0  0
   -0.4715    2.5398    0.8637 N   0  0  0  0  0  0  0  0  0  0  0  0
   -1.7294    2.1193    0.8612 C   0  0  0  0  0  0  0  0  0  0  0  0
   -2.7224    2.9600    1.3781 N   0  0  0  0  0  0  0  0  0  0  0  0
   -4.0673    2.6596    0.9118 C   0  0  0  0  0  0  0  0  0  0  0  0
   -2.3511    4.3655    1.4419 C   0  0  0  0  0  0  0  0  0  0  0  0
   -2.0834    0.9148    0.4120 N   0  0  0  0  0  0  0  0  0  0  0  0
   -1.1301    0.1169   -0.0578 C   0  0  0  0  0  0  0  0  0  0  0  0
   -1.4742   -1.1277   -0.5593 N   0  0  0  0  0  0  0  0  0  0  0  0
   -0.3610   -2.0511   -0.8313 C   0  0  0  0  0  0  0  0  0  0  0  0
   -0.9135   -3.4119   -1.2797 C   0  0  0  0  0  0  0  0  0  0  0  0
   -1.7753   -4.0376   -0.3133 O   0  0  0  0  0  0  0  0  0  0  0  0
   -2.4320   -3.1026    0.5564 C   0  0  0  0  0  0  0  0  0  0  0  0
   -2.7243   -1.7455   -0.1037 C   0  0  0  0  0  0  0  0  0  0  0  0
    0.1409    0.4801   -0.1006 N   0  0  0  0  0  0  0  0  0  0  0  0
    5.0778   -2.8812   -2.4693 H   0  0  0  0  0  0  0  0  0  0  0  0
    5.6668   -2.4834   -0.8278 H   0  0  0  0  0  0  0  0  0  0  0  0
    6.0315   -1.4120   -2.2004 H   0  0  0  0  0  0  0  0  0  0  0  0
    4.9759    0.4558   -1.7998 H   0  0  0  0  0  0  0  0  0  0  0  0
    3.1487    1.8535   -1.8242 H   0  0  0  0  0  0  0  0  0  0  0  0
    2.0653    0.4691   -1.8379 H   0  0  0  0  0  0  0  0  0  0  0  0
    2.4335    0.1721    0.6779 H   0  0  0  0  0  0  0  0  0  0  0  0
    3.6094    1.4585    0.6222 H   0  0  0  0  0  0  0  0  0  0  0  0
   -4.1500    2.7753   -0.1752 H   0  0  0  0  0  0  0  0  0  0  0  0
   -4.3756    1.6457    1.1917 H   0  0  0  0  0  0  0  0  0  0  0  0
   -4.7911    3.3398    1.3751 H   0  0  0  0  0  0  0  0  0  0  0  0
   -1.4732    4.5237    2.0788 H   0  0  0  0  0  0  0  0  0  0  0  0
   -2.1524    4.7731    0.4438 H   0  0  0  0  0  0  0  0  0  0  0  0
   -3.1629    4.9528    1.8860 H   0  0  0  0  0  0  0  0  0  0  0  0
    0.2788   -1.6506   -1.6257 H   0  0  0  0  0  0  0  0  0  0  0  0
    0.2395   -2.1934    0.0765 H   0  0  0  0  0  0  0  0  0  0  0  0
   -1.4875   -3.3017   -2.2073 H   0  0  0  0  0  0  0  0  0  0  0  0
   -0.0916   -4.1054   -1.4844 H   0  0  0  0  0  0  0  0  0  0  0  0
   -1.7998   -2.9694    1.4423 H   0  0  0  0  0  0  0  0  0  0  0  0
   -3.3656   -3.5676    0.8888 H   0  0  0  0  0  0  0  0  0  0  0  0
   -3.3600   -1.9008   -0.9836 H   0  0  0  0  0  0  0  0  0  0  0  0
   -3.2897   -1.1281    0.6027 H   0  0  0  0  0  0  0  0  0  0  0  0
  1  2  1  0
  2  3  2  0
  2  4  1  0
  4  5  1  0
  5  6  1  0
  6  7  1  0
  7  8  1  0
  8  9  2  0
  9 10  1  0
 10 11  1  0
 11 12  1  0
 11 13  1  0
 10 14  2  0
 14 15  1  0
 15 16  1  0
 16 17  1  0
 17 18  1  0
 18 19  1  0
 19 20  1  0
 20 21  1  0
 15 22  2  0
 22  8  1  0
 21 16  1  0
  1 23  1  0
  1 24  1  0
  1 25  1  0
  4 26  1  0
  5 27  1  0
  5 28  1  0
  6 29  1  0
  6 30  1  0
 12 31  1  0
 12 32  1  0
 12 33  1  0
 13 34  1  0
 13 35  1  0
 13 36  1  0
 17 37  1  0
 17 38  1  0
 18 39  1  0
 18 40  1  0
 20 41  1  0
 20 42  1  0
 21 43  1  0
 21 44  1  0
M  END
$$$$
