
     RDKit          3D

 45 47  0  0  0  0  0  0  0  0999 V2000
    1.3096    2.3877   -0.2003 O   0  0  0  0  0  0  0  0  0  0  0  0
    0.9449    1.2324   -0.4197 C   0  0  0  0  0  0  0  0  0  0  0  0
    1.0352    0.5704   -1.7955 C   0  0  0  0  0  0  0  0  0  0  0  0
    1.6659    1.6767   -3.0980 S   0  0  0  0  0  0  0  0  0  0  0  0
    3.4133    1.5323   -2.7805 C   0  0  0  0  0  0  0  0  0  0  0  0
    4.1563    0.5220   -3.4003 C   0  0  0  0  0  0  0  0  0  0  0  0
    5.5279    0.4070   -3.1586 C   0  0  0  0  0  0  0  0  0  0  0  0
    6.1560    1.3082   -2.3007 C   0  0  0  0  0  0  0  0  0  0  0  0
    8.0104    1.1521   -1.9710 Br  0  0  0  0  0  0  0  0  0  0  0  0
    5.4269    2.3245   -1.6869 C   0  0  0  0  0  0  0  0  0  0  0  0
    4.0561    2.4378   -1.9317 C   0  0  0  0  0  0  0  0  0  0  0  0
    0.4069    0.4475    0.6007 N   0  0  0  0  0  0  0  0  0  0  0  0
   -0.0872   -0.9227    0.4227 C   0  0  0  0  0  0  0  0  0  0  0  0
   -0.3714   -1.6425    1.7489 C   0  0  0  0  0  0  0  0  0  0  0  0
   -1.2707   -0.8541    2.6307 N   0  0  0  0  0  0  0  0  0  0  0  0
   -2.8159   -1.4642    2.9581 S   0  0  0  0  0  6  0  0  0  0  0  0
   -3.4624   -0.5681    3.8927 O   0  0  0  0  0  0  0  0  0  0  0  0
   -2.6840   -2.8783    3.2393 O   0  0  0  0  0  0  0  0  0  0  0  0
   -3.6560   -1.3100    1.3943 C   0  0  0  0  0  0  0  0  0  0  0  0
   -3.6526   -2.3849    0.4986 C   0  0  0  0  0  0  0  0  0  0  0  0
   -4.3221   -2.2675   -0.7194 C   0  0  0  0  0  0  0  0  0  0  0  0
   -5.0039   -1.0901   -1.0306 C   0  0  0  0  0  0  0  0  0  0  0  0
   -5.0311   -0.0314   -0.1214 C   0  0  0  0  0  0  0  0  0  0  0  0
   -4.3653   -0.1417    1.0993 C   0  0  0  0  0  0  0  0  0  0  0  0
   -1.1257    0.6266    2.5434 C   0  0  0  0  0  0  0  0  0  0  0  0
    0.2222    1.0322    1.9347 C   0  0  0  0  0  0  0  0  0  0  0  0
    0.0276    0.2682   -2.0973 H   0  0  0  0  0  0  0  0  0  0  0  0
    1.6690   -0.3191   -1.7386 H   0  0  0  0  0  0  0  0  0  0  0  0
    3.6768   -0.1778   -4.0803 H   0  0  0  0  0  0  0  0  0  0  0  0
    6.0946   -0.3814   -3.6466 H   0  0  0  0  0  0  0  0  0  0  0  0
    5.9104    3.0338   -1.0204 H   0  0  0  0  0  0  0  0  0  0  0  0
    3.4933    3.2361   -1.4505 H   0  0  0  0  0  0  0  0  0  0  0  0
    0.6434   -1.4968   -0.1547 H   0  0  0  0  0  0  0  0  0  0  0  0
   -1.0034   -0.8528   -0.1738 H   0  0  0  0  0  0  0  0  0  0  0  0
   -0.7757   -2.6379    1.5434 H   0  0  0  0  0  0  0  0  0  0  0  0
    0.5669   -1.7990    2.2954 H   0  0  0  0  0  0  0  0  0  0  0  0
   -3.1450   -3.3147    0.7450 H   0  0  0  0  0  0  0  0  0  0  0  0
   -4.3267   -3.0982   -1.4215 H   0  0  0  0  0  0  0  0  0  0  0  0
   -5.5322   -1.0034   -1.9777 H   0  0  0  0  0  0  0  0  0  0  0  0
   -5.5821    0.8755   -0.3605 H   0  0  0  0  0  0  0  0  0  0  0  0
   -4.4097    0.6790    1.8119 H   0  0  0  0  0  0  0  0  0  0  0  0
   -1.9254    1.0454    1.9253 H   0  0  0  0  0  0  0  0  0  0  0  0
   -1.2069    1.0479    3.5509 H   0  0  0  0  0  0  0  0  0  0  0  0
    1.0482    0.6694    2.5582 H   0  0  0  0  0  0  0  0  0  0  0  0
    0.2934    2.1238    1.8977 H   0  0  0  0  0  0  0  0  0  0  0  0
  1  2  2  0
  2  3  1  0
  3  4  1  0
  4  5  1  0
  5  6  2  0
  6  7  1  0
  7  8  2  0
  8  9  1  0
  8 10  1  0
 10 11  2  0
  2 12  1  0
 12 13  1  0
 13 14  1  0
 14 15  1  0
 15 16  1  0
 16 17  2  0
 16 18  2  0
 16 19  1  0
 19 20  2  0
 20 21  1  0
 21 22  2  0
 22 23  1  0
 23 24  2  0
 15 25  1  0
 25 26  1  0
 11  5  1  0
 26 12  1  0
 24 19  1  0
  3 27  1  0
  3 28  1  0
  6 29  1  0
  7 30  1  0
 10 31  1  0
 11 32  1  0
 13 33  1  0
 13 34  1  0
 14 35  1  0
 14 36  1  0
 20 37  1  0
 21 38  1  0
 22 39  1  0
 23 40  1  0
 24 41  1  0
 25 42  1  0
 25 43  1  0
 26 44  1  0
 26 45  1  0
M  END
$$$$
