
     RDKit          3D

 34 35  0  0  0  0  0  0  0  0999 V2000
   -0.8269    0.3565   -2.7125 O   0  0  0  0  0  0  0  0  0  0  0  0
   -1.1978   -0.3426   -1.7605 N   0  0  0  0  0  4  0  0  0  0  0  0
   -0.9751   -1.5535   -1.6202 O   0  0  0  0  0  1  0  0  0  0  0  0
   -2.0277    0.2912   -0.7626 C   0  0  0  0  0  0  0  0  0  0  0  0
   -3.3888    0.4110   -1.1186 C   0  0  0  0  0  0  0  0  0  0  0  0
   -4.2983    1.0117   -0.2428 C   0  0  0  0  0  0  0  0  0  0  0  0
   -5.7603    1.1284   -0.5987 C   0  0  0  0  0  0  0  0  0  0  0  0
   -6.3573    2.2213   -0.0489 F   0  0  0  0  0  0  0  0  0  0  0  0
   -6.4783    0.0534   -0.1746 F   0  0  0  0  0  0  0  0  0  0  0  0
   -5.9751    1.2193   -1.9397 F   0  0  0  0  0  0  0  0  0  0  0  0
   -3.8192    1.4765    0.9843 C   0  0  0  0  0  0  0  0  0  0  0  0
   -2.4622    1.3486    1.3187 C   0  0  0  0  0  0  0  0  0  0  0  0
   -1.5185    0.7285    0.4716 C   0  0  0  0  0  0  0  0  0  0  0  0
   -0.2016    0.7565    0.9250 N   0  0  0  0  0  0  0  0  0  0  0  0
    0.9212    0.0378    0.3182 C   0  0  0  0  0  0  0  0  0  0  0  0
    2.1967    0.2649    1.1358 C   0  0  0  0  0  0  0  0  0  0  0  0
    3.3655   -0.4690    0.5351 C   0  0  0  0  0  0  0  0  0  0  0  0
    3.6138   -1.8003    0.8618 C   0  0  0  0  0  0  0  0  0  0  0  0
    4.6894   -2.4493    0.2621 C   0  0  0  0  0  0  0  0  0  0  0  0
    5.4823   -1.7582   -0.6453 C   0  0  0  0  0  0  0  0  0  0  0  0
    5.1644   -0.4390   -0.9168 C   0  0  0  0  0  0  0  0  0  0  0  0
    4.1278    0.2163   -0.3493 N   0  0  0  0  0  0  0  0  0  0  0  0
   -3.7325    0.0405   -2.0853 H   0  0  0  0  0  0  0  0  0  0  0  0
   -4.4953    1.9573    1.6914 H   0  0  0  0  0  0  0  0  0  0  0  0
   -2.1393    1.7591    2.2757 H   0  0  0  0  0  0  0  0  0  0  0  0
   -0.1374    0.8010    1.9404 H   0  0  0  0  0  0  0  0  0  0  0  0
    0.6996   -1.0348    0.2916 H   0  0  0  0  0  0  0  0  0  0  0  0
    1.0902    0.3946   -0.7031 H   0  0  0  0  0  0  0  0  0  0  0  0
    2.4254    1.3375    1.1788 H   0  0  0  0  0  0  0  0  0  0  0  0
    2.0525   -0.0562    2.1751 H   0  0  0  0  0  0  0  0  0  0  0  0
    2.9827   -2.3308    1.5675 H   0  0  0  0  0  0  0  0  0  0  0  0
    4.9044   -3.4876    0.4983 H   0  0  0  0  0  0  0  0  0  0  0  0
    6.3253   -2.2356   -1.1315 H   0  0  0  0  0  0  0  0  0  0  0  0
    5.7505    0.1449   -1.6206 H   0  0  0  0  0  0  0  0  0  0  0  0
  1  2  2  0
  2  3  1  0
  2  4  1  0
  4  5  2  0
  5  6  1  0
  6  7  1  0
  7  8  1  0
  7  9  1  0
  7 10  1  0
  6 11  2  0
 11 12  1  0
 12 13  2  0
 13 14  1  0
 14 15  1  0
 15 16  1  0
 16 17  1  0
 17 18  2  0
 18 19  1  0
 19 20  2  0
 20 21  1  0
 21 22  2  0
 13  4  1  0
 22 17  1  0
  5 23  1  0
 11 24  1  0
 12 25  1  0
 14 26  1  0
 15 27  1  0
 15 28  1  0
 16 29  1  0
 16 30  1  0
 18 31  1  0
 19 32  1  0
 20 33  1  0
 21 34  1  0
M  CHG  2   2   1   3  -1
M  END
$$$$
