
     RDKit          3D

 43 46  0  0  0  0  0  0  0  0999 V2000
    7.6150    1.9729    0.5841 C   0  0  0  0  0  0  0  0  0  0  0  0
    6.2138    1.4852    0.3590 C   0  0  0  0  0  0  0  0  0  0  0  0
    5.8891    0.7809   -0.8066 C   0  0  0  0  0  0  0  0  0  0  0  0
    4.5779    0.3564   -1.0340 C   0  0  0  0  0  0  0  0  0  0  0  0
    3.5751    0.6314   -0.0972 C   0  0  0  0  0  0  0  0  0  0  0  0
    2.1892    0.1568   -0.3792 C   0  0  0  0  0  0  0  0  0  0  0  0
    1.8278    0.0858   -1.5474 O   0  0  0  0  0  0  0  0  0  0  0  0
    1.4676   -0.1942    0.7332 N   0  0  0  0  0  0  0  0  0  0  0  0
    0.1547   -0.6351    0.7501 C   0  0  0  0  0  0  0  0  0  0  0  0
   -0.2860   -0.9861    1.9701 N   0  0  0  0  0  0  0  0  0  0  0  0
   -1.5627   -1.4257    2.0477 C   0  0  0  0  0  0  0  0  0  0  0  0
   -2.3986   -1.5154    0.9593 C   0  0  0  0  0  0  0  0  0  0  0  0
   -1.8668   -1.1153   -0.2462 C   0  0  0  0  0  0  0  0  0  0  0  0
   -0.5895   -0.6878   -0.3615 N   0  0  0  0  0  0  0  0  0  0  0  0
   -2.6731   -1.1869   -1.5130 C   0  0  0  0  0  0  0  0  0  0  0  0
   -4.1806   -1.0749   -1.2606 C   0  0  0  0  0  0  0  0  0  0  0  0
   -4.5950    0.3370   -0.9767 C   0  0  0  0  0  0  0  0  0  0  0  0
   -5.1590    1.3242   -1.7586 C   0  0  0  0  0  0  0  0  0  0  0  0
   -5.3121    2.4568   -0.9234 C   0  0  0  0  0  0  0  0  0  0  0  0
   -4.8335    2.0897    0.3116 C   0  0  0  0  0  0  0  0  0  0  0  0
   -4.3970    0.8053    0.2880 O   0  0  0  0  0  0  0  0  0  0  0  0
   -4.6353   -2.0509   -0.1724 C   0  0  0  0  0  0  0  0  0  0  0  0
   -3.7755   -2.0167    1.0745 C   0  0  0  0  0  0  0  0  0  0  0  0
   -4.1718   -2.4583    2.1500 O   0  0  0  0  0  0  0  0  0  0  0  0
    3.8883    1.3636    1.0549 C   0  0  0  0  0  0  0  0  0  0  0  0
    5.2017    1.7878    1.2786 C   0  0  0  0  0  0  0  0  0  0  0  0
    8.3430    1.2911    0.1320 H   0  0  0  0  0  0  0  0  0  0  0  0
    7.8422    2.0271    1.6540 H   0  0  0  0  0  0  0  0  0  0  0  0
    7.7402    2.9672    0.1445 H   0  0  0  0  0  0  0  0  0  0  0  0
    6.6538    0.5607   -1.5485 H   0  0  0  0  0  0  0  0  0  0  0  0
    4.3388   -0.1888   -1.9452 H   0  0  0  0  0  0  0  0  0  0  0  0
    1.8950   -0.2211    1.6441 H   0  0  0  0  0  0  0  0  0  0  0  0
   -1.8951   -1.7125    3.0421 H   0  0  0  0  0  0  0  0  0  0  0  0
   -2.3398   -0.4049   -2.2068 H   0  0  0  0  0  0  0  0  0  0  0  0
   -2.4563   -2.1533   -1.9861 H   0  0  0  0  0  0  0  0  0  0  0  0
   -4.6919   -1.3626   -2.1902 H   0  0  0  0  0  0  0  0  0  0  0  0
   -5.4234    1.2395   -2.8038 H   0  0  0  0  0  0  0  0  0  0  0  0
   -5.7185    3.4228   -1.1879 H   0  0  0  0  0  0  0  0  0  0  0  0
   -4.7379    2.5994    1.2605 H   0  0  0  0  0  0  0  0  0  0  0  0
   -4.5938   -3.0773   -0.5570 H   0  0  0  0  0  0  0  0  0  0  0  0
   -5.6710   -1.8402    0.1200 H   0  0  0  0  0  0  0  0  0  0  0  0
    3.1213    1.6418    1.7721 H   0  0  0  0  0  0  0  0  0  0  0  0
    5.4297    2.3659    2.1720 H   0  0  0  0  0  0  0  0  0  0  0  0
  1  2  1  0
  2  3  2  0
  3  4  1  0
  4  5  2  0
  5  6  1  0
  6  7  2  0
  6  8  1  0
  8  9  1  0
  9 10  2  0
 10 11  1  0
 11 12  2  0
 12 13  1  0
 13 14  2  0
 13 15  1  0
 15 16  1  0
 16 17  1  0
 17 18  2  0
 18 19  1  0
 19 20  2  0
 20 21  1  0
 16 22  1  0
 22 23  1  0
 23 24  2  0
  5 25  1  0
 25 26  2  0
 26  2  1  0
 14  9  1  0
 21 17  1  0
 23 12  1  0
  1 27  1  0
  1 28  1  0
  1 29  1  0
  3 30  1  0
  4 31  1  0
  8 32  1  0
 11 33  1  0
 15 34  1  0
 15 35  1  0
 16 36  1  0
 18 37  1  0
 19 38  1  0
 20 39  1  0
 22 40  1  0
 22 41  1  0
 25 42  1  0
 26 43  1  0
M  END
$$$$
