
     RDKit          3D

 45 47  0  0  0  0  0  0  0  0999 V2000
    2.7461    1.9588   -0.5995 O   0  0  0  0  0  0  0  0  0  0  0  0
    2.4288    0.7785   -0.4738 C   0  0  0  0  0  0  0  0  0  0  0  0
    3.3103   -0.2593   -0.7130 N   0  0  0  0  0  0  0  0  0  0  0  0
    4.6592    0.0903   -0.9119 N   0  0  0  0  0  0  0  0  0  0  0  0
    5.6303   -0.7004   -0.3184 C   0  0  0  0  0  0  0  0  0  0  0  0
    5.3321   -1.7948    0.1661 O   0  0  0  0  0  0  0  0  0  0  0  0
    6.9812   -0.1586   -0.2973 C   0  0  0  0  0  0  0  0  0  0  0  0
    8.1046   -0.7640    0.2382 C   0  0  0  0  0  0  0  0  0  0  0  0
    9.2781    0.0318    0.0994 C   0  0  0  0  0  0  0  0  0  0  0  0
    9.0167    1.2230   -0.5382 C   0  0  0  0  0  0  0  0  0  0  0  0
    7.3681    1.3737   -0.9635 S   0  0  0  0  0  0  0  0  0  0  0  0
    1.0624    0.4009   -0.0184 C   0  0  0  0  0  0  0  0  0  0  0  0
    0.3160    1.3517    0.6950 C   0  0  0  0  0  0  0  0  0  0  0  0
   -0.9728    1.0496    1.1409 C   0  0  0  0  0  0  0  0  0  0  0  0
   -1.5187   -0.2038    0.8556 C   0  0  0  0  0  0  0  0  0  0  0  0
   -3.1567   -0.6166    1.4140 S   0  0  0  0  0  6  0  0  0  0  0  0
   -3.0658   -1.9252    2.0258 O   0  0  0  0  0  0  0  0  0  0  0  0
   -3.6856    0.5156    2.1430 O   0  0  0  0  0  0  0  0  0  0  0  0
   -4.0169   -0.7619   -0.0484 N   0  0  0  0  0  0  0  0  0  0  0  0
   -4.1596    0.4470   -0.8996 C   0  0  0  0  0  0  0  0  0  0  0  0
   -5.3488    1.3076   -0.4848 C   0  0  0  0  0  0  0  0  0  0  0  0
   -6.6349    0.4929   -0.3957 C   0  0  0  0  0  0  0  0  0  0  0  0
   -6.4424   -0.7353    0.4878 C   0  0  0  0  0  0  0  0  0  0  0  0
   -5.2614   -1.5701    0.0097 C   0  0  0  0  0  0  0  0  0  0  0  0
   -0.7877   -1.1590    0.1415 C   0  0  0  0  0  0  0  0  0  0  0  0
    0.5024   -0.8540   -0.3009 C   0  0  0  0  0  0  0  0  0  0  0  0
    3.1656   -1.1815   -0.3020 H   0  0  0  0  0  0  0  0  0  0  0  0
    4.8428    1.0772   -1.0932 H   0  0  0  0  0  0  0  0  0  0  0  0
    8.0775   -1.7403    0.7101 H   0  0  0  0  0  0  0  0  0  0  0  0
   10.2621   -0.2555    0.4500 H   0  0  0  0  0  0  0  0  0  0  0  0
    9.7150    2.0143   -0.7755 H   0  0  0  0  0  0  0  0  0  0  0  0
    0.7415    2.3309    0.9107 H   0  0  0  0  0  0  0  0  0  0  0  0
   -1.5367    1.7914    1.7026 H   0  0  0  0  0  0  0  0  0  0  0  0
   -3.2428    1.0435   -0.8906 H   0  0  0  0  0  0  0  0  0  0  0  0
   -4.2878    0.1121   -1.9368 H   0  0  0  0  0  0  0  0  0  0  0  0
   -5.1543    1.7808    0.4837 H   0  0  0  0  0  0  0  0  0  0  0  0
   -5.4803    2.1215   -1.2070 H   0  0  0  0  0  0  0  0  0  0  0  0
   -7.4440    1.1157    0.0016 H   0  0  0  0  0  0  0  0  0  0  0  0
   -6.9377    0.1767   -1.4016 H   0  0  0  0  0  0  0  0  0  0  0  0
   -7.3535   -1.3438    0.4737 H   0  0  0  0  0  0  0  0  0  0  0  0
   -6.2851   -0.4190    1.5256 H   0  0  0  0  0  0  0  0  0  0  0  0
   -5.4591   -1.9632   -0.9955 H   0  0  0  0  0  0  0  0  0  0  0  0
   -5.1282   -2.4468    0.6515 H   0  0  0  0  0  0  0  0  0  0  0  0
   -1.2223   -2.1337   -0.0739 H   0  0  0  0  0  0  0  0  0  0  0  0
    1.0423   -1.5985   -0.8801 H   0  0  0  0  0  0  0  0  0  0  0  0
  1  2  2  0
  2  3  1  0
  3  4  1  0
  4  5  1  0
  5  6  2  0
  5  7  1  0
  7  8  2  0
  8  9  1  0
  9 10  2  0
 10 11  1  0
  2 12  1  0
 12 13  2  0
 13 14  1  0
 14 15  2  0
 15 16  1  0
 16 17  2  0
 16 18  2  0
 16 19  1  0
 19 20  1  0
 20 21  1  0
 21 22  1  0
 22 23  1  0
 23 24  1  0
 15 25  1  0
 25 26  2  0
 11  7  1  0
 26 12  1  0
 24 19  1  0
  3 27  1  0
  4 28  1  0
  8 29  1  0
  9 30  1  0
 10 31  1  0
 13 32  1  0
 14 33  1  0
 20 34  1  0
 20 35  1  0
 21 36  1  0
 21 37  1  0
 22 38  1  0
 22 39  1  0
 23 40  1  0
 23 41  1  0
 24 42  1  0
 24 43  1  0
 25 44  1  0
 26 45  1  0
M  END
$$$$
