
     RDKit          3D

 49 52  0  0  0  0  0  0  0  0999 V2000
   -1.4469    5.6651    0.4240 C   0  0  0  0  0  0  0  0  0  0  0  0
   -1.2321    4.2388    0.0129 C   0  0  0  0  0  0  0  0  0  0  0  0
   -1.0009    3.2517    0.9760 C   0  0  0  0  0  0  0  0  0  0  0  0
   -0.8284    1.9181    0.5978 C   0  0  0  0  0  0  0  0  0  0  0  0
   -0.8854    1.5409   -0.7524 C   0  0  0  0  0  0  0  0  0  0  0  0
   -0.7269    0.0944   -1.1961 C   0  0  0  0  0  0  0  0  0  0  0  0
   -2.0461   -0.6674   -1.0547 C   0  0  0  0  0  0  0  0  0  0  0  0
   -1.7006   -1.6021    0.0714 C   0  0  0  0  0  0  0  0  0  0  0  0
   -2.7212   -2.4663    0.7097 C   0  0  0  0  0  0  0  0  0  0  0  0
   -4.0427   -2.5005    0.2505 C   0  0  0  0  0  0  0  0  0  0  0  0
   -4.9796   -3.3271    0.8767 C   0  0  0  0  0  0  0  0  0  0  0  0
   -4.6018   -4.1204    1.9593 C   0  0  0  0  0  0  0  0  0  0  0  0
   -3.2866   -4.0912    2.4194 C   0  0  0  0  0  0  0  0  0  0  0  0
   -2.3477   -3.2669    1.7965 C   0  0  0  0  0  0  0  0  0  0  0  0
   -0.4476   -1.6123    0.4130 N   0  0  0  0  0  0  0  0  0  0  0  0
    0.1902   -0.6820   -0.3574 N   0  0  0  0  0  0  0  0  0  0  0  0
    1.5780   -0.5601   -0.3253 C   0  0  0  0  0  0  0  0  0  0  0  0
    2.3484   -1.3611    0.5397 C   0  0  0  0  0  0  0  0  0  0  0  0
    3.7424   -1.2652    0.5969 C   0  0  0  0  0  0  0  0  0  0  0  0
    4.3970   -0.3575   -0.2316 C   0  0  0  0  0  0  0  0  0  0  0  0
    6.1626   -0.2422   -0.1687 S   0  0  0  0  0  6  0  0  0  0  0  0
    6.6176   -1.5580   -1.1192 N   0  0  0  0  0  0  0  0  0  0  0  0
    6.5935   -0.4987    1.1844 O   0  0  0  0  0  0  0  0  0  0  0  0
    6.5782    0.9264   -0.9107 O   0  0  0  0  0  0  0  0  0  0  0  0
    3.6705    0.4630   -1.0914 C   0  0  0  0  0  0  0  0  0  0  0  0
    2.2745    0.3544   -1.1339 C   0  0  0  0  0  0  0  0  0  0  0  0
   -1.1412    2.5334   -1.7121 C   0  0  0  0  0  0  0  0  0  0  0  0
   -1.3149    3.8671   -1.3327 C   0  0  0  0  0  0  0  0  0  0  0  0
   -0.8755    5.9013    1.3279 H   0  0  0  0  0  0  0  0  0  0  0  0
   -1.1120    6.3523   -0.3601 H   0  0  0  0  0  0  0  0  0  0  0  0
   -2.5088    5.8421    0.6199 H   0  0  0  0  0  0  0  0  0  0  0  0
   -0.9481    3.5130    2.0307 H   0  0  0  0  0  0  0  0  0  0  0  0
   -0.6397    1.1723    1.3691 H   0  0  0  0  0  0  0  0  0  0  0  0
   -0.4006    0.0610   -2.2435 H   0  0  0  0  0  0  0  0  0  0  0  0
   -2.2548   -1.2601   -1.9518 H   0  0  0  0  0  0  0  0  0  0  0  0
   -2.9059   -0.0355   -0.8160 H   0  0  0  0  0  0  0  0  0  0  0  0
   -4.3680   -1.8977   -0.5917 H   0  0  0  0  0  0  0  0  0  0  0  0
   -6.0065   -3.3529    0.5198 H   0  0  0  0  0  0  0  0  0  0  0  0
   -5.3326   -4.7625    2.4452 H   0  0  0  0  0  0  0  0  0  0  0  0
   -2.9898   -4.7090    3.2633 H   0  0  0  0  0  0  0  0  0  0  0  0
   -1.3242   -3.2523    2.1659 H   0  0  0  0  0  0  0  0  0  0  0  0
    1.8495   -2.0738    1.1944 H   0  0  0  0  0  0  0  0  0  0  0  0
    4.2975   -1.8933    1.2902 H   0  0  0  0  0  0  0  0  0  0  0  0
    7.0920   -1.2097   -1.9537 H   0  0  0  0  0  0  0  0  0  0  0  0
    5.8366   -2.1706   -1.3520 H   0  0  0  0  0  0  0  0  0  0  0  0
    4.1698    1.1922   -1.7255 H   0  0  0  0  0  0  0  0  0  0  0  0
    1.7407    1.0154   -1.8108 H   0  0  0  0  0  0  0  0  0  0  0  0
   -1.2082    2.2770   -2.7673 H   0  0  0  0  0  0  0  0  0  0  0  0
   -1.5137    4.6164   -2.0959 H   0  0  0  0  0  0  0  0  0  0  0  0
  1  2  1  0
  2  3  2  0
  3  4  1  0
  4  5  2  0
  5  6  1  0
  6  7  1  0
  7  8  1  0
  8  9  1  0
  9 10  2  0
 10 11  1  0
 11 12  2  0
 12 13  1  0
 13 14  2  0
  8 15  2  0
 15 16  1  0
 16 17  1  0
 17 18  2  0
 18 19  1  0
 19 20  2  0
 20 21  1  0
 21 22  1  0
 21 23  2  0
 21 24  2  0
 20 25  1  0
 25 26  2  0
  5 27  1  0
 27 28  2  0
 28  2  1  0
 16  6  1  0
 26 17  1  0
 14  9  1  0
  1 29  1  0
  1 30  1  0
  1 31  1  0
  3 32  1  0
  4 33  1  0
  6 34  1  0
  7 35  1  0
  7 36  1  0
 10 37  1  0
 11 38  1  0
 12 39  1  0
 13 40  1  0
 14 41  1  0
 18 42  1  0
 19 43  1  0
 22 44  1  0
 22 45  1  0
 25 46  1  0
 26 47  1  0
 27 48  1  0
 28 49  1  0
M  END
$$$$
