
     RDKit          3D

 50 52  0  0  0  0  0  0  0  0999 V2000
    4.0175   -1.5294    0.9989 O   0  0  0  0  0  0  0  0  0  0  0  0
    3.2667   -0.9088    0.2604 C   0  0  0  0  0  0  0  0  0  0  0  0
    3.4764    0.5012   -0.2519 C   0  0  0  0  0  0  0  0  0  0  0  0
    4.9209    0.9454   -0.2486 C   0  0  0  0  0  0  0  0  0  0  0  0
    5.5260    1.3924    0.9374 C   0  0  0  0  0  0  0  0  0  0  0  0
    6.8643    1.7885    0.9410 C   0  0  0  0  0  0  0  0  0  0  0  0
    7.5979    1.7361   -0.2375 C   0  0  0  0  0  0  0  0  0  0  0  0
    8.8827    2.1153   -0.2330 F   0  0  0  0  0  0  0  0  0  0  0  0
    7.0190    1.2944   -1.4209 C   0  0  0  0  0  0  0  0  0  0  0  0
    5.6814    0.8959   -1.4277 C   0  0  0  0  0  0  0  0  0  0  0  0
    2.0653   -1.3785   -0.1815 O   0  0  0  0  0  0  0  0  0  0  0  0
    1.7721   -2.7118    0.2380 C   0  0  0  0  0  0  0  0  0  0  0  0
    0.3456   -3.0806   -0.1672 C   0  0  0  0  0  0  0  0  0  0  0  0
    0.1435   -3.9886   -0.9759 O   0  0  0  0  0  0  0  0  0  0  0  0
   -0.6975   -2.3734    0.4159 N   0  0  0  0  0  0  0  0  0  0  0  0
   -2.0743   -2.6408   -0.0065 C   0  0  0  0  0  0  0  0  0  0  0  0
   -2.8675   -1.3402   -0.1908 C   0  0  0  0  0  0  0  0  0  0  0  0
   -2.8703   -0.4756    1.0436 N   0  0  0  0  0  0  0  0  0  0  0  0
   -2.8823    1.2091    0.7474 S   0  0  0  0  0  6  0  0  0  0  0  0
   -3.0630    1.8859    2.0133 O   0  0  0  0  0  0  0  0  0  0  0  0
   -1.7463    1.5025   -0.1011 O   0  0  0  0  0  0  0  0  0  0  0  0
   -4.3726    1.4301   -0.1909 C   0  0  0  0  0  0  0  0  0  0  0  0
   -5.6043    1.1975    0.4302 C   0  0  0  0  0  0  0  0  0  0  0  0
   -6.7836    1.3664   -0.2974 C   0  0  0  0  0  0  0  0  0  0  0  0
   -6.7223    1.7723   -1.6318 C   0  0  0  0  0  0  0  0  0  0  0  0
   -8.1768    1.9786   -2.5261 Cl  0  0  0  0  0  0  0  0  0  0  0  0
   -5.4917    2.0109   -2.2471 C   0  0  0  0  0  0  0  0  0  0  0  0
   -4.3083    1.8409   -1.5253 C   0  0  0  0  0  0  0  0  0  0  0  0
   -1.8480   -0.8902    2.0604 C   0  0  0  0  0  0  0  0  0  0  0  0
   -0.5243   -1.3023    1.4033 C   0  0  0  0  0  0  0  0  0  0  0  0
    3.0870    0.5649   -1.2753 H   0  0  0  0  0  0  0  0  0  0  0  0
    2.8798    1.1830    0.3659 H   0  0  0  0  0  0  0  0  0  0  0  0
    4.9622    1.4227    1.8673 H   0  0  0  0  0  0  0  0  0  0  0  0
    7.3398    2.1298    1.8545 H   0  0  0  0  0  0  0  0  0  0  0  0
    7.6130    1.2595   -2.3277 H   0  0  0  0  0  0  0  0  0  0  0  0
    5.2390    0.5467   -2.3589 H   0  0  0  0  0  0  0  0  0  0  0  0
    1.8761   -2.8288    1.3224 H   0  0  0  0  0  0  0  0  0  0  0  0
    2.4583   -3.4037   -0.2648 H   0  0  0  0  0  0  0  0  0  0  0  0
   -2.0938   -3.2167   -0.9377 H   0  0  0  0  0  0  0  0  0  0  0  0
   -2.5336   -3.2631    0.7713 H   0  0  0  0  0  0  0  0  0  0  0  0
   -2.4358   -0.7941   -1.0375 H   0  0  0  0  0  0  0  0  0  0  0  0
   -3.9067   -1.5810   -0.4391 H   0  0  0  0  0  0  0  0  0  0  0  0
   -5.6474    0.8871    1.4721 H   0  0  0  0  0  0  0  0  0  0  0  0
   -7.7431    1.1838    0.1781 H   0  0  0  0  0  0  0  0  0  0  0  0
   -5.4498    2.3306   -3.2852 H   0  0  0  0  0  0  0  0  0  0  0  0
   -3.3515    2.0345   -2.0064 H   0  0  0  0  0  0  0  0  0  0  0  0
   -2.2693   -1.7301    2.6268 H   0  0  0  0  0  0  0  0  0  0  0  0
   -1.6710   -0.0952    2.7914 H   0  0  0  0  0  0  0  0  0  0  0  0
   -0.0805   -0.4469    0.8842 H   0  0  0  0  0  0  0  0  0  0  0  0
    0.1813   -1.6354    2.1702 H   0  0  0  0  0  0  0  0  0  0  0  0
  1  2  2  0
  2  3  1  0
  3  4  1  0
  4  5  2  0
  5  6  1  0
  6  7  2  0
  7  8  1  0
  7  9  1  0
  9 10  2  0
  2 11  1  0
 11 12  1  0
 12 13  1  0
 13 14  2  0
 13 15  1  0
 15 16  1  0
 16 17  1  0
 17 18  1  0
 18 19  1  0
 19 20  2  0
 19 21  2  0
 19 22  1  0
 22 23  2  0
 23 24  1  0
 24 25  2  0
 25 26  1  0
 25 27  1  0
 27 28  2  0
 18 29  1  0
 29 30  1  0
 10  4  1  0
 30 15  1  0
 28 22  1  0
  3 31  1  0
  3 32  1  0
  5 33  1  0
  6 34  1  0
  9 35  1  0
 10 36  1  0
 12 37  1  0
 12 38  1  0
 16 39  1  0
 16 40  1  0
 17 41  1  0
 17 42  1  0
 23 43  1  0
 24 44  1  0
 27 45  1  0
 28 46  1  0
 29 47  1  0
 29 48  1  0
 30 49  1  0
 30 50  1  0
M  END
$$$$
