
     RDKit          3D

 42 44  0  0  0  0  0  0  0  0999 V2000
    4.2846    0.6581   -0.3383 C   0  0  0  0  0  0  0  0  0  0  0  0
    3.8383    0.1969    1.0406 C   0  0  0  0  0  0  0  0  0  0  0  0
    2.3436    0.4086    1.3016 C   0  0  0  0  0  0  0  0  0  0  0  0
    1.4472   -0.4324    0.3869 C   0  0  0  0  0  0  0  0  0  0  0  0
   -0.0578   -0.4355    0.7708 C   0  0  0  0  0  0  0  0  0  0  0  0
   -0.7632   -1.4619   -0.0967 C   0  0  0  0  0  0  0  0  0  0  0  0
   -1.5261   -1.1017   -1.1451 C   0  0  0  0  0  0  0  0  0  0  0  0
   -2.2466   -2.0672   -2.0402 C   0  0  0  0  0  0  0  0  0  0  0  0
   -2.4740   -3.4111   -1.3580 C   0  0  0  0  0  0  0  0  0  0  0  0
   -1.1926   -3.9280   -0.7256 C   0  0  0  0  0  0  0  0  0  0  0  0
   -0.5958   -2.9088    0.2213 C   0  0  0  0  0  0  0  0  0  0  0  0
    0.0604   -3.2607    1.1993 O   0  0  0  0  0  0  0  0  0  0  0  0
   -1.7409    0.2332   -1.4668 O   0  0  0  0  0  0  0  0  0  0  0  0
   -1.4526    1.1989   -0.5097 C   0  0  0  0  0  0  0  0  0  0  0  0
   -0.6969    0.9251    0.5709 C   0  0  0  0  0  0  0  0  0  0  0  0
   -0.5977    1.9498    1.6507 C   0  0  0  0  0  0  0  0  0  0  0  0
   -0.0654    1.6752    2.7246 O   0  0  0  0  0  0  0  0  0  0  0  0
   -1.2451    3.3025    1.4384 C   0  0  0  0  0  0  0  0  0  0  0  0
   -1.3578    3.6512   -0.0356 C   0  0  0  0  0  0  0  0  0  0  0  0
   -2.0618    2.5388   -0.8016 C   0  0  0  0  0  0  0  0  0  0  0  0
    3.8370    0.0492   -1.1291 H   0  0  0  0  0  0  0  0  0  0  0  0
    5.3721    0.5714   -0.4293 H   0  0  0  0  0  0  0  0  0  0  0  0
    4.0127    1.7044   -0.5100 H   0  0  0  0  0  0  0  0  0  0  0  0
    4.4045    0.7558    1.7954 H   0  0  0  0  0  0  0  0  0  0  0  0
    4.0947   -0.8607    1.1722 H   0  0  0  0  0  0  0  0  0  0  0  0
    2.1152    1.4730    1.1817 H   0  0  0  0  0  0  0  0  0  0  0  0
    2.1420    0.1432    2.3460 H   0  0  0  0  0  0  0  0  0  0  0  0
    1.5564   -0.0796   -0.6474 H   0  0  0  0  0  0  0  0  0  0  0  0
    1.8286   -1.4616    0.3988 H   0  0  0  0  0  0  0  0  0  0  0  0
   -0.1774   -0.7334    1.8202 H   0  0  0  0  0  0  0  0  0  0  0  0
   -3.2189   -1.6532   -2.3326 H   0  0  0  0  0  0  0  0  0  0  0  0
   -1.6631   -2.2027   -2.9586 H   0  0  0  0  0  0  0  0  0  0  0  0
   -2.8559   -4.1382   -2.0833 H   0  0  0  0  0  0  0  0  0  0  0  0
   -3.2431   -3.2981   -0.5826 H   0  0  0  0  0  0  0  0  0  0  0  0
   -0.4443   -4.1648   -1.4899 H   0  0  0  0  0  0  0  0  0  0  0  0
   -1.4115   -4.8415   -0.1619 H   0  0  0  0  0  0  0  0  0  0  0  0
   -2.2346    3.2821    1.9085 H   0  0  0  0  0  0  0  0  0  0  0  0
   -0.6367    4.0612    1.9427 H   0  0  0  0  0  0  0  0  0  0  0  0
   -1.9019    4.5941   -0.1594 H   0  0  0  0  0  0  0  0  0  0  0  0
   -0.3539    3.8031   -0.4536 H   0  0  0  0  0  0  0  0  0  0  0  0
   -1.9951    2.7533   -1.8747 H   0  0  0  0  0  0  0  0  0  0  0  0
   -3.1264    2.5122   -0.5405 H   0  0  0  0  0  0  0  0  0  0  0  0
  1  2  1  0
  2  3  1  0
  3  4  1  0
  4  5  1  0
  5  6  1  0
  6  7  2  0
  7  8  1  0
  8  9  1  0
  9 10  1  0
 10 11  1  0
 11 12  2  0
  7 13  1  0
 13 14  1  0
 14 15  2  0
 15 16  1  0
 16 17  2  0
 16 18  1  0
 18 19  1  0
 19 20  1  0
 15  5  1  0
 11  6  1  0
 20 14  1  0
  1 21  1  0
  1 22  1  0
  1 23  1  0
  2 24  1  0
  2 25  1  0
  3 26  1  0
  3 27  1  0
  4 28  1  0
  4 29  1  0
  5 30  1  0
  8 31  1  0
  8 32  1  0
  9 33  1  0
  9 34  1  0
 10 35  1  0
 10 36  1  0
 18 37  1  0
 18 38  1  0
 19 39  1  0
 19 40  1  0
 20 41  1  0
 20 42  1  0
M  END
$$$$
