
     RDKit          3D

 40 43  0  0  0  0  0  0  0  0999 V2000
    7.2007    0.7520    1.1627 O   0  0  0  0  0  0  0  0  0  0  0  0
    6.2120    1.0567    1.8453 N   0  0  0  0  0  4  0  0  0  0  0  0
    6.2666    1.5260    2.9908 O   0  0  0  0  0  1  0  0  0  0  0  0
    4.8844    0.8400    1.2565 C   0  0  0  0  0  0  0  0  0  0  0  0
    4.7766    0.3369   -0.0473 C   0  0  0  0  0  0  0  0  0  0  0  0
    3.5105    0.1317   -0.6058 C   0  0  0  0  0  0  0  0  0  0  0  0
    2.3525    0.4207    0.1311 C   0  0  0  0  0  0  0  0  0  0  0  0
    1.0271    0.2083   -0.4471 C   0  0  0  0  0  0  0  0  0  0  0  0
    0.0131    1.1263   -0.2266 N   0  0  0  0  0  0  0  0  0  0  0  0
   -1.0707    0.6178   -0.9212 N   0  0  0  0  0  0  0  0  0  0  0  0
   -2.3509    1.2894   -0.9709 C   0  0  0  0  0  0  0  0  0  0  0  0
   -3.2688    0.8234    0.1323 C   0  0  0  0  0  0  0  0  0  0  0  0
   -3.0694    1.2536    1.4529 C   0  0  0  0  0  0  0  0  0  0  0  0
   -3.9159    0.8226    2.4752 C   0  0  0  0  0  0  0  0  0  0  0  0
   -4.9686   -0.0445    2.1897 C   0  0  0  0  0  0  0  0  0  0  0  0
   -5.1735   -0.4842    0.8832 C   0  0  0  0  0  0  0  0  0  0  0  0
   -4.3275   -0.0544   -0.1407 C   0  0  0  0  0  0  0  0  0  0  0  0
   -0.7061   -0.5337   -1.5260 C   0  0  0  0  0  0  0  0  0  0  0  0
   -1.2394   -1.4712   -2.3239 C   0  0  0  0  0  0  0  0  0  0  0  0
   -2.4754   -1.4716   -2.8006 O   0  0  0  0  0  0  0  0  0  0  0  0
   -0.2968   -2.4568   -2.5889 N   0  0  0  0  0  0  0  0  0  0  0  0
    0.8755   -2.0938   -1.9028 C   0  0  0  0  0  0  0  0  0  0  0  0
    1.9375   -2.8846   -1.9491 O   0  0  0  0  0  0  0  0  0  0  0  0
    0.6012   -0.9065   -1.2846 C   0  0  0  0  0  0  0  0  0  0  0  0
    2.4767    0.9341    1.4313 C   0  0  0  0  0  0  0  0  0  0  0  0
    3.7371    1.1421    1.9996 C   0  0  0  0  0  0  0  0  0  0  0  0
    5.6606    0.1133   -0.6415 H   0  0  0  0  0  0  0  0  0  0  0  0
    3.4381   -0.2261   -1.6312 H   0  0  0  0  0  0  0  0  0  0  0  0
   -2.1687    2.3669   -0.8816 H   0  0  0  0  0  0  0  0  0  0  0  0
   -2.7902    1.1235   -1.9606 H   0  0  0  0  0  0  0  0  0  0  0  0
   -2.2428    1.9218    1.6901 H   0  0  0  0  0  0  0  0  0  0  0  0
   -3.7500    1.1607    3.4946 H   0  0  0  0  0  0  0  0  0  0  0  0
   -5.6262   -0.3813    2.9865 H   0  0  0  0  0  0  0  0  0  0  0  0
   -5.9908   -1.1653    0.6615 H   0  0  0  0  0  0  0  0  0  0  0  0
   -4.4955   -0.4137   -1.1538 H   0  0  0  0  0  0  0  0  0  0  0  0
   -2.6140   -2.2715   -3.3370 H   0  0  0  0  0  0  0  0  0  0  0  0
   -0.4008   -3.2947   -3.1435 H   0  0  0  0  0  0  0  0  0  0  0  0
    2.5871   -2.5308   -1.3141 H   0  0  0  0  0  0  0  0  0  0  0  0
    1.5829    1.1764    2.0056 H   0  0  0  0  0  0  0  0  0  0  0  0
    3.8019    1.5408    3.0099 H   0  0  0  0  0  0  0  0  0  0  0  0
  1  2  2  0
  2  3  1  0
  2  4  1  0
  4  5  2  0
  5  6  1  0
  6  7  2  0
  7  8  1  0
  8  9  2  0
  9 10  1  0
 10 11  1  0
 11 12  1  0
 12 13  2  0
 13 14  1  0
 14 15  2  0
 15 16  1  0
 16 17  2  0
 10 18  1  0
 18 19  2  0
 19 20  1  0
 19 21  1  0
 21 22  1  0
 22 23  1  0
 22 24  2  0
  7 25  1  0
 25 26  2  0
 26  4  1  0
 24  8  1  0
 17 12  1  0
 24 18  1  0
  5 27  1  0
  6 28  1  0
 11 29  1  0
 11 30  1  0
 13 31  1  0
 14 32  1  0
 15 33  1  0
 16 34  1  0
 17 35  1  0
 20 36  1  0
 21 37  1  0
 23 38  1  0
 25 39  1  0
 26 40  1  0
M  CHG  2   2   1   3  -1
M  END
$$$$
