
     RDKit          3D

 39 41  0  0  0  0  0  0  0  0999 V2000
   -5.5865    3.4402    0.0027 C   0  0  0  0  0  0  0  0  0  0  0  0
   -6.0075    2.0257   -0.3591 C   0  0  0  0  0  0  0  0  0  0  0  0
   -5.2295    1.0638    0.3501 O   0  0  0  0  0  0  0  0  0  0  0  0
   -3.9891    0.7267   -0.1188 C   0  0  0  0  0  0  0  0  0  0  0  0
   -3.4188    1.1532   -1.3154 C   0  0  0  0  0  0  0  0  0  0  0  0
   -2.1278    0.7415   -1.6768 C   0  0  0  0  0  0  0  0  0  0  0  0
   -1.3928   -0.1077   -0.8241 C   0  0  0  0  0  0  0  0  0  0  0  0
   -0.1093   -0.5774   -1.0453 N   0  0  0  0  0  0  0  0  0  0  0  0
    0.2674   -1.3268   -0.0400 C   0  0  0  0  0  0  0  0  0  0  0  0
    1.5204   -1.8850   -0.0155 N   0  0  0  0  0  0  0  0  0  0  0  0
    2.0713   -2.6490    0.9842 C   0  0  0  0  0  0  0  0  0  0  0  0
    1.5420   -2.9972    2.0340 O   0  0  0  0  0  0  0  0  0  0  0  0
    3.5036   -3.0544    0.7008 C   0  0  0  0  0  0  0  0  0  0  0  0
    4.4727   -2.0121    1.2402 C   0  0  0  0  0  0  0  0  0  0  0  0
    4.4944   -0.7965    0.4353 N   0  0  0  0  0  0  0  0  0  0  0  0
    5.0672   -0.6835   -0.8063 C   0  0  0  0  0  0  0  0  0  0  0  0
    4.8356    0.5975   -1.2638 C   0  0  0  0  0  0  0  0  0  0  0  0
    4.1063    1.2781   -0.2581 C   0  0  0  0  0  0  0  0  0  0  0  0
    3.9082    0.3928    0.7799 C   0  0  0  0  0  0  0  0  0  0  0  0
   -0.8753   -1.5507    1.1981 S   0  0  0  0  0  0  0  0  0  0  0  0
   -1.9828   -0.5314    0.3642 C   0  0  0  0  0  0  0  0  0  0  0  0
   -3.2772   -0.1312    0.7310 C   0  0  0  0  0  0  0  0  0  0  0  0
   -6.2338    4.1761   -0.4831 H   0  0  0  0  0  0  0  0  0  0  0  0
   -5.6389    3.5892    1.0869 H   0  0  0  0  0  0  0  0  0  0  0  0
   -4.5517    3.6414   -0.2950 H   0  0  0  0  0  0  0  0  0  0  0  0
   -7.0446    1.8827   -0.0299 H   0  0  0  0  0  0  0  0  0  0  0  0
   -6.0077    1.8463   -1.4401 H   0  0  0  0  0  0  0  0  0  0  0  0
   -3.9424    1.8153   -2.0000 H   0  0  0  0  0  0  0  0  0  0  0  0
   -1.6860    1.0750   -2.6081 H   0  0  0  0  0  0  0  0  0  0  0  0
    2.0878   -1.6000   -0.8079 H   0  0  0  0  0  0  0  0  0  0  0  0
    3.6402   -3.2337   -0.3723 H   0  0  0  0  0  0  0  0  0  0  0  0
    3.6779   -4.0124    1.2025 H   0  0  0  0  0  0  0  0  0  0  0  0
    4.2230   -1.7250    2.2738 H   0  0  0  0  0  0  0  0  0  0  0  0
    5.4957   -2.4076    1.2437 H   0  0  0  0  0  0  0  0  0  0  0  0
    5.5920   -1.5125   -1.2670 H   0  0  0  0  0  0  0  0  0  0  0  0
    5.1598    0.9996   -2.2183 H   0  0  0  0  0  0  0  0  0  0  0  0
    3.7588    2.3029   -0.2891 H   0  0  0  0  0  0  0  0  0  0  0  0
    3.3947    0.5179    1.7271 H   0  0  0  0  0  0  0  0  0  0  0  0
   -3.7177   -0.4720    1.6638 H   0  0  0  0  0  0  0  0  0  0  0  0
  1  2  1  0
  2  3  1  0
  3  4  1  0
  4  5  2  0
  5  6  1  0
  6  7  2  0
  7  8  1  0
  8  9  2  0
  9 10  1  0
 10 11  1  0
 11 12  2  0
 11 13  1  0
 13 14  1  0
 14 15  1  0
 15 16  1  0
 16 17  2  0
 17 18  1  0
 18 19  2  0
  9 20  1  0
 20 21  1  0
 21 22  2  0
 22  4  1  0
 21  7  1  0
 19 15  1  0
  1 23  1  0
  1 24  1  0
  1 25  1  0
  2 26  1  0
  2 27  1  0
  5 28  1  0
  6 29  1  0
 10 30  1  0
 13 31  1  0
 13 32  1  0
 14 33  1  0
 14 34  1  0
 16 35  1  0
 17 36  1  0
 18 37  1  0
 19 38  1  0
 22 39  1  0
M  END
$$$$
