
     RDKit          3D

 31 34  0  0  0  0  0  0  0  0999 V2000
    4.3562   -1.9882    0.7027 O   0  0  0  0  0  0  0  0  0  0  0  0
    3.1550   -2.0594    0.5019 C   0  0  0  0  0  0  0  0  0  0  0  0
    2.4915   -3.1752    0.8776 O   0  0  0  0  0  0  0  0  0  0  0  0
    2.2703   -1.0721   -0.2550 C   0  0  0  0  0  0  0  0  0  0  0  0
    3.0621    0.5856   -0.2988 S   0  0  0  0  0  0  0  0  0  0  0  0
    1.7739    1.5376   -0.8694 C   0  0  0  0  0  0  0  0  0  0  0  0
    2.0313    2.8179   -1.2528 N   0  0  0  0  0  0  0  0  0  0  0  0
    0.9724    3.5330   -1.7433 C   0  0  0  0  0  0  0  0  0  0  0  0
    0.9771    4.6821   -2.1448 O   0  0  0  0  0  0  0  0  0  0  0  0
   -0.4407    2.4728   -1.7090 S   0  0  0  0  0  0  0  0  0  0  0  0
    0.4964    1.1608   -1.0122 C   0  0  0  0  0  0  0  0  0  0  0  0
   -0.0758   -0.1970   -0.6896 C   0  0  0  0  0  0  0  0  0  0  0  0
   -1.4671   -0.1745   -0.1075 C   0  0  0  0  0  0  0  0  0  0  0  0
   -2.6130   -0.1675   -0.9164 C   0  0  0  0  0  0  0  0  0  0  0  0
   -3.8815   -0.1239   -0.3325 C   0  0  0  0  0  0  0  0  0  0  0  0
   -5.4173   -0.1085   -1.4346 Br  0  0  0  0  0  0  0  0  0  0  0  0
   -4.0259   -0.0887    1.0541 C   0  0  0  0  0  0  0  0  0  0  0  0
   -2.8920   -0.1024    1.8645 C   0  0  0  0  0  0  0  0  0  0  0  0
   -1.6311   -0.1541    1.2738 C   0  0  0  0  0  0  0  0  0  0  0  0
   -0.5244   -0.1735    2.1339 O   0  0  0  0  0  0  0  0  0  0  0  0
    0.7311   -0.5649    1.6920 C   0  0  0  0  0  0  0  0  0  0  0  0
    1.6798   -0.5935    2.4685 O   0  0  0  0  0  0  0  0  0  0  0  0
    0.8148   -1.0352    0.2490 C   0  0  0  0  0  0  0  0  0  0  0  0
    3.1770   -3.6924    1.3564 H   0  0  0  0  0  0  0  0  0  0  0  0
    2.2665   -1.4348   -1.2916 H   0  0  0  0  0  0  0  0  0  0  0  0
    2.9513    3.2291   -1.1900 H   0  0  0  0  0  0  0  0  0  0  0  0
   -0.1332   -0.7451   -1.6423 H   0  0  0  0  0  0  0  0  0  0  0  0
   -2.5187   -0.1824   -2.0004 H   0  0  0  0  0  0  0  0  0  0  0  0
   -5.0121   -0.0491    1.5095 H   0  0  0  0  0  0  0  0  0  0  0  0
   -2.9922   -0.0749    2.9464 H   0  0  0  0  0  0  0  0  0  0  0  0
    0.4184   -2.0614    0.2601 H   0  0  0  0  0  0  0  0  0  0  0  0
  1  2  2  0
  2  3  1  0
  2  4  1  0
  4  5  1  0
  5  6  1  0
  6  7  1  0
  7  8  1  0
  8  9  2  0
  8 10  1  0
 10 11  1  0
 11 12  1  0
 12 13  1  0
 13 14  2  0
 14 15  1  0
 15 16  1  0
 15 17  2  0
 17 18  1  0
 18 19  2  0
 19 20  1  0
 20 21  1  0
 21 22  2  0
 21 23  1  0
 23  4  1  0
 11  6  2  0
 23 12  1  0
 19 13  1  0
  3 24  1  0
  4 25  1  0
  7 26  1  0
 12 27  1  0
 14 28  1  0
 17 29  1  0
 18 30  1  0
 23 31  1  0
M  END
$$$$
