
     RDKit          3D

 43 45  0  0  0  0  0  0  0  0999 V2000
    3.0945   -0.8049    1.3364 O   0  0  0  0  0  0  0  0  0  0  0  0
    2.6145    0.1011    0.6504 C   0  0  0  0  0  0  0  0  0  0  0  0
    3.3121    1.4804    0.5448 C   0  0  0  0  0  0  0  0  0  0  0  0
    4.2099    1.5332   -0.6823 C   0  0  0  0  0  0  0  0  0  0  0  0
    5.5259    1.0334   -0.1376 C   0  0  0  0  0  0  0  0  0  0  0  0
    5.5293    1.5908    1.2683 C   0  0  0  0  0  0  0  0  0  0  0  0
    4.1625    1.7553    1.6662 O   0  0  0  0  0  0  0  0  0  0  0  0
    1.4450   -0.0883   -0.0806 N   0  0  0  0  0  0  0  0  0  0  0  0
    0.7782    0.9442   -0.8825 C   0  0  0  0  0  0  0  0  0  0  0  0
   -0.2217    0.3570   -1.8872 C   0  0  0  0  0  0  0  0  0  0  0  0
   -1.2340   -0.5077   -1.2536 N   0  0  0  0  0  0  0  0  0  0  0  0
   -2.3461   -0.9537   -1.9539 C   0  0  0  0  0  0  0  0  0  0  0  0
   -2.5034   -0.9266   -3.6263 S   0  0  0  0  0  0  0  0  0  0  0  0
   -3.3687   -1.5381   -1.2580 N   0  0  0  0  0  0  0  0  0  0  0  0
   -3.9851   -1.1107   -0.0611 C   0  0  0  0  0  0  0  0  0  0  0  0
   -3.7124    0.1174    0.5505 C   0  0  0  0  0  0  0  0  0  0  0  0
   -4.3860    0.4894    1.7171 C   0  0  0  0  0  0  0  0  0  0  0  0
   -5.3411   -0.3607    2.2593 C   0  0  0  0  0  0  0  0  0  0  0  0
   -5.9873   -0.0021    3.3760 F   0  0  0  0  0  0  0  0  0  0  0  0
   -5.6424   -1.5729    1.6525 C   0  0  0  0  0  0  0  0  0  0  0  0
   -4.9698   -1.9441    0.4861 C   0  0  0  0  0  0  0  0  0  0  0  0
   -0.7837   -1.2046   -0.0281 C   0  0  0  0  0  0  0  0  0  0  0  0
    0.7420   -1.3718    0.0355 C   0  0  0  0  0  0  0  0  0  0  0  0
    2.5488    2.2634    0.5253 H   0  0  0  0  0  0  0  0  0  0  0  0
    4.3242    2.5728   -1.0122 H   0  0  0  0  0  0  0  0  0  0  0  0
    3.8566    0.9403   -1.5305 H   0  0  0  0  0  0  0  0  0  0  0  0
    5.5261   -0.0624   -0.1056 H   0  0  0  0  0  0  0  0  0  0  0  0
    6.3923    1.3520   -0.7235 H   0  0  0  0  0  0  0  0  0  0  0  0
    6.0432    0.9352    1.9770 H   0  0  0  0  0  0  0  0  0  0  0  0
    6.0047    2.5767    1.3005 H   0  0  0  0  0  0  0  0  0  0  0  0
    0.2568    1.6027   -0.1774 H   0  0  0  0  0  0  0  0  0  0  0  0
    1.5219    1.5435   -1.4138 H   0  0  0  0  0  0  0  0  0  0  0  0
    0.3193   -0.2516   -2.6226 H   0  0  0  0  0  0  0  0  0  0  0  0
   -0.7292    1.1674   -2.4219 H   0  0  0  0  0  0  0  0  0  0  0  0
   -3.9512   -2.1375   -1.8345 H   0  0  0  0  0  0  0  0  0  0  0  0
   -2.9990    0.8141    0.1210 H   0  0  0  0  0  0  0  0  0  0  0  0
   -4.1785    1.4404    2.1973 H   0  0  0  0  0  0  0  0  0  0  0  0
   -6.3979   -2.2190    2.0880 H   0  0  0  0  0  0  0  0  0  0  0  0
   -5.2128   -2.8962    0.0206 H   0  0  0  0  0  0  0  0  0  0  0  0
   -1.2602   -2.1873    0.0477 H   0  0  0  0  0  0  0  0  0  0  0  0
   -1.0999   -0.5956    0.8250 H   0  0  0  0  0  0  0  0  0  0  0  0
    1.0161   -1.8799    0.9657 H   0  0  0  0  0  0  0  0  0  0  0  0
    1.0868   -1.9951   -0.7983 H   0  0  0  0  0  0  0  0  0  0  0  0
  1  2  2  0
  2  3  1  0
  3  4  1  0
  4  5  1  0
  5  6  1  0
  6  7  1  0
  2  8  1  0
  8  9  1  0
  9 10  1  0
 10 11  1  0
 11 12  1  0
 12 13  2  0
 12 14  1  0
 14 15  1  0
 15 16  2  0
 16 17  1  0
 17 18  2  0
 18 19  1  0
 18 20  1  0
 20 21  2  0
 11 22  1  0
 22 23  1  0
  7  3  1  0
 23  8  1  0
 21 15  1  0
  3 24  1  0
  4 25  1  0
  4 26  1  0
  5 27  1  0
  5 28  1  0
  6 29  1  0
  6 30  1  0
  9 31  1  0
  9 32  1  0
 10 33  1  0
 10 34  1  0
 14 35  1  0
 16 36  1  0
 17 37  1  0
 20 38  1  0
 21 39  1  0
 22 40  1  0
 22 41  1  0
 23 42  1  0
 23 43  1  0
M  END
$$$$
