
     RDKit          3D

 85 88  0  0  0  0  0  0  0  0999 V2000
    7.4559   -1.3853    1.9969 C   0  0  0  0  0  0  0  0  0  0  0  0
    7.1016   -2.2103    0.7698 C   0  0  0  0  0  0  0  0  0  0  0  0
    6.4405   -1.3968   -0.3453 C   0  0  0  0  0  0  0  0  0  0  0  0
    5.1296   -0.6971    0.0285 C   0  0  0  0  0  0  0  0  0  0  0  0
    4.0295   -1.6693    0.4722 C   0  0  0  0  0  0  0  0  0  0  0  0
    2.6967   -0.9787    0.6667 C   0  0  0  0  0  0  0  0  0  0  0  0
    2.3397   -0.6417    1.9172 C   0  0  0  0  0  0  0  0  0  0  0  0
    1.0856    0.0278    2.2570 C   0  0  0  0  0  0  0  0  0  0  0  0
    0.8007    0.2944    3.4180 O   0  0  0  0  0  0  0  0  0  0  0  0
    0.2589    0.3243    1.1982 O   0  0  0  0  0  0  0  0  0  0  0  0
    0.5573   -0.0198   -0.1433 C   0  0  0  0  0  0  0  0  0  0  0  0
   -0.4238    0.3292   -1.1031 C   0  0  0  0  0  0  0  0  0  0  0  0
   -1.7166    1.0662   -0.7172 C   0  0  0  0  0  0  0  0  0  0  0  0
   -2.6277    0.2577    0.2446 C   0  0  0  0  0  0  0  0  0  0  0  0
   -3.0558   -1.0921   -0.3580 C   0  0  0  0  0  0  0  0  0  0  0  0
   -4.0156   -1.8059    0.4997 N   0  0  0  0  0  0  0  0  0  0  0  0
   -3.4075   -2.3651    1.7176 C   0  0  0  0  0  0  0  0  0  0  0  0
   -3.2116   -3.8789    1.6755 C   0  0  0  0  0  0  0  0  0  0  0  0
   -4.5267   -4.6184    1.4370 C   0  0  0  0  0  0  0  0  0  0  0  0
   -5.5217   -3.7899    0.6102 C   0  0  0  0  0  0  0  0  0  0  0  0
   -6.4340   -4.6994   -0.2107 C   0  0  0  0  0  0  0  0  0  0  0  0
   -4.7765   -2.7914   -0.2856 C   0  0  0  0  0  0  0  0  0  0  0  0
   -1.4424    2.5094   -0.2893 C   0  0  0  0  0  0  0  0  0  0  0  0
   -1.4690    2.9389    1.0384 C   0  0  0  0  0  0  0  0  0  0  0  0
   -1.2006    4.2774    1.3716 C   0  0  0  0  0  0  0  0  0  0  0  0
   -0.9088    5.2532    0.4042 C   0  0  0  0  0  0  0  0  0  0  0  0
   -0.6325    6.5875    0.7363 N   0  0  0  0  0  0  0  0  0  0  0  0
   -0.8651    7.6087   -0.2846 C   0  0  0  0  0  0  0  0  0  0  0  0
   -0.8244    7.0270    2.1166 C   0  0  0  0  0  0  0  0  0  0  0  0
   -0.8637    4.7959   -0.9228 C   0  0  0  0  0  0  0  0  0  0  0  0
   -1.1261    3.4609   -1.2661 C   0  0  0  0  0  0  0  0  0  0  0  0
   -0.1791   -0.0170   -2.4428 C   0  0  0  0  0  0  0  0  0  0  0  0
   -1.1554    0.3063   -3.3484 O   0  0  0  0  0  0  0  0  0  0  0  0
   -0.8758    0.1254   -4.7313 C   0  0  0  0  0  0  0  0  0  0  0  0
    1.0025   -0.6810   -2.7790 C   0  0  0  0  0  0  0  0  0  0  0  0
    1.9758   -0.9867   -1.8107 C   0  0  0  0  0  0  0  0  0  0  0  0
    3.1117   -1.6642   -2.1795 O   0  0  0  0  0  0  0  0  0  0  0  0
    3.7257   -1.2119   -3.3854 C   0  0  0  0  0  0  0  0  0  0  0  0
    1.7642   -0.6787   -0.4533 C   0  0  0  0  0  0  0  0  0  0  0  0
    8.0738   -0.5235    1.7264 H   0  0  0  0  0  0  0  0  0  0  0  0
    8.0195   -1.9956    2.7099 H   0  0  0  0  0  0  0  0  0  0  0  0
    6.5597   -1.0229    2.5090 H   0  0  0  0  0  0  0  0  0  0  0  0
    8.0223   -2.6542    0.3716 H   0  0  0  0  0  0  0  0  0  0  0  0
    6.4593   -3.0473    1.0646 H   0  0  0  0  0  0  0  0  0  0  0  0
    6.2569   -2.0621   -1.1977 H   0  0  0  0  0  0  0  0  0  0  0  0
    7.1495   -0.6366   -0.6960 H   0  0  0  0  0  0  0  0  0  0  0  0
    5.3128    0.0392    0.8204 H   0  0  0  0  0  0  0  0  0  0  0  0
    4.7978   -0.1171   -0.8400 H   0  0  0  0  0  0  0  0  0  0  0  0
    3.9391   -2.5241   -0.2050 H   0  0  0  0  0  0  0  0  0  0  0  0
    4.3384   -2.1236    1.4240 H   0  0  0  0  0  0  0  0  0  0  0  0
    2.9785   -0.8428    2.7704 H   0  0  0  0  0  0  0  0  0  0  0  0
   -2.3412    1.1795   -1.6139 H   0  0  0  0  0  0  0  0  0  0  0  0
   -2.1439    0.1031    1.2124 H   0  0  0  0  0  0  0  0  0  0  0  0
   -3.5312    0.8488    0.4512 H   0  0  0  0  0  0  0  0  0  0  0  0
   -2.1874   -1.7313   -0.5591 H   0  0  0  0  0  0  0  0  0  0  0  0
   -3.5272   -0.8799   -1.3271 H   0  0  0  0  0  0  0  0  0  0  0  0
   -4.0686   -2.1210    2.5589 H   0  0  0  0  0  0  0  0  0  0  0  0
   -2.4461   -1.8966    1.9549 H   0  0  0  0  0  0  0  0  0  0  0  0
   -2.5014   -4.1292    0.8768 H   0  0  0  0  0  0  0  0  0  0  0  0
   -2.7595   -4.2277    2.6113 H   0  0  0  0  0  0  0  0  0  0  0  0
   -4.3043   -5.5761    0.9505 H   0  0  0  0  0  0  0  0  0  0  0  0
   -4.9913   -4.8671    2.3993 H   0  0  0  0  0  0  0  0  0  0  0  0
   -6.1605   -3.2232    1.3022 H   0  0  0  0  0  0  0  0  0  0  0  0
   -5.8628   -5.2815   -0.9423 H   0  0  0  0  0  0  0  0  0  0  0  0
   -6.9693   -5.4001    0.4389 H   0  0  0  0  0  0  0  0  0  0  0  0
   -7.1793   -4.1107   -0.7561 H   0  0  0  0  0  0  0  0  0  0  0  0
   -4.1125   -3.3458   -0.9635 H   0  0  0  0  0  0  0  0  0  0  0  0
   -5.4985   -2.2536   -0.9123 H   0  0  0  0  0  0  0  0  0  0  0  0
   -1.6849    2.2467    1.8487 H   0  0  0  0  0  0  0  0  0  0  0  0
   -1.2337    4.5266    2.4278 H   0  0  0  0  0  0  0  0  0  0  0  0
   -1.8948    7.5678   -0.6573 H   0  0  0  0  0  0  0  0  0  0  0  0
   -0.1665    7.5014   -1.1207 H   0  0  0  0  0  0  0  0  0  0  0  0
   -0.6998    8.6157    0.1153 H   0  0  0  0  0  0  0  0  0  0  0  0
   -1.8784    6.9643    2.4081 H   0  0  0  0  0  0  0  0  0  0  0  0
   -0.5044    8.0672    2.2439 H   0  0  0  0  0  0  0  0  0  0  0  0
   -0.2127    6.4409    2.8106 H   0  0  0  0  0  0  0  0  0  0  0  0
   -0.6069    5.4679   -1.7351 H   0  0  0  0  0  0  0  0  0  0  0  0
   -1.0754    3.1706   -2.3137 H   0  0  0  0  0  0  0  0  0  0  0  0
    0.0188    0.6814   -5.0323 H   0  0  0  0  0  0  0  0  0  0  0  0
   -0.7854   -0.9381   -4.9768 H   0  0  0  0  0  0  0  0  0  0  0  0
   -1.7219    0.5262   -5.2980 H   0  0  0  0  0  0  0  0  0  0  0  0
    1.1719   -0.9973   -3.8015 H   0  0  0  0  0  0  0  0  0  0  0  0
    4.7727   -1.5287   -3.3642 H   0  0  0  0  0  0  0  0  0  0  0  0
    3.2555   -1.6807   -4.2555 H   0  0  0  0  0  0  0  0  0  0  0  0
    3.7080   -0.1192   -3.4709 H   0  0  0  0  0  0  0  0  0  0  0  0
  1  2  1  0
  2  3  1  0
  3  4  1  0
  4  5  1  0
  5  6  1  0
  6  7  2  0
  7  8  1  0
  8  9  2  0
  8 10  1  0
 10 11  1  0
 11 12  2  0
 12 13  1  0
 13 14  1  0
 14 15  1  0
 15 16  1  0
 16 17  1  0
 17 18  1  0
 18 19  1  0
 19 20  1  0
 20 21  1  0
 20 22  1  0
 13 23  1  0
 23 24  2  0
 24 25  1  0
 25 26  2  0
 26 27  1  0
 27 28  1  0
 27 29  1  0
 26 30  1  0
 30 31  2  0
 12 32  1  0
 32 33  1  0
 33 34  1  0
 32 35  2  0
 35 36  1  0
 36 37  1  0
 37 38  1  0
 36 39  2  0
 39  6  1  0
 39 11  1  0
 22 16  1  0
 31 23  1  0
  1 40  1  0
  1 41  1  0
  1 42  1  0
  2 43  1  0
  2 44  1  0
  3 45  1  0
  3 46  1  0
  4 47  1  0
  4 48  1  0
  5 49  1  0
  5 50  1  0
  7 51  1  0
 13 52  1  0
 14 53  1  0
 14 54  1  0
 15 55  1  0
 15 56  1  0
 17 57  1  0
 17 58  1  0
 18 59  1  0
 18 60  1  0
 19 61  1  0
 19 62  1  0
 20 63  1  0
 21 64  1  0
 21 65  1  0
 21 66  1  0
 22 67  1  0
 22 68  1  0
 24 69  1  0
 25 70  1  0
 28 71  1  0
 28 72  1  0
 28 73  1  0
 29 74  1  0
 29 75  1  0
 29 76  1  0
 30 77  1  0
 31 78  1  0
 34 79  1  0
 34 80  1  0
 34 81  1  0
 35 82  1  0
 38 83  1  0
 38 84  1  0
 38 85  1  0
M  END
$$$$
