
     RDKit          3D

 46 49  0  0  0  0  0  0  0  0999 V2000
    5.2511   -0.1058    0.4334 C   0  0  0  0  0  0  0  0  0  0  0  0
    4.2475   -0.2296   -0.4449 C   0  0  0  0  0  0  0  0  0  0  0  0
    2.8106   -0.4859   -0.0537 C   0  0  0  0  0  0  0  0  0  0  0  0
    1.8407    0.5743   -0.6370 C   0  0  0  0  0  0  0  0  0  0  0  0
    0.7798   -0.0252   -1.4959 N   0  0  0  0  0  0  0  0  0  0  0  0
    1.4607   -0.7822   -2.5791 C   0  0  0  0  0  0  0  0  0  0  0  0
    2.2571   -1.9730   -2.0272 C   0  0  0  0  0  0  0  0  0  0  0  0
    2.3109   -1.8820   -0.4937 C   0  0  0  0  0  0  0  0  0  0  0  0
    0.8634   -2.0043    0.0242 C   0  0  0  0  0  0  0  0  0  0  0  0
   -0.0454   -0.9808   -0.7103 C   0  0  0  0  0  0  0  0  0  0  0  0
   -1.0509   -0.3002    0.1976 C   0  0  0  0  0  0  0  0  0  0  0  0
   -1.6349   -1.0184    1.2224 N   0  0  0  0  0  0  0  0  0  0  0  0
   -2.5333   -0.2605    1.9255 C   0  0  0  0  0  0  0  0  0  0  0  0
   -3.3122   -0.5922    3.0410 C   0  0  0  0  0  0  0  0  0  0  0  0
   -4.1683    0.3883    3.5481 C   0  0  0  0  0  0  0  0  0  0  0  0
   -4.2420    1.6460    2.9573 C   0  0  0  0  0  0  0  0  0  0  0  0
   -3.4559    1.9554    1.8407 C   0  0  0  0  0  0  0  0  0  0  0  0
   -2.5766    0.9852    1.3118 C   0  0  0  0  0  0  0  0  0  0  0  0
   -1.6560    0.9596    0.2037 C   0  0  0  0  0  0  0  0  0  0  0  0
   -1.4526    2.1165   -0.7427 C   0  0  0  0  0  0  0  0  0  0  0  0
   -2.1152    1.9020   -2.1061 C   0  0  0  0  0  0  0  0  0  0  0  0
   -1.2372    1.2826   -3.0423 O   0  0  0  0  0  0  0  0  0  0  0  0
    5.0905   -0.1899    1.5039 H   0  0  0  0  0  0  0  0  0  0  0  0
    6.2651    0.0847    0.0943 H   0  0  0  0  0  0  0  0  0  0  0  0
    4.4718   -0.1294   -1.5053 H   0  0  0  0  0  0  0  0  0  0  0  0
    2.7371   -0.4330    1.0422 H   0  0  0  0  0  0  0  0  0  0  0  0
    1.3810    1.1293    0.1900 H   0  0  0  0  0  0  0  0  0  0  0  0
    2.3779    1.3342   -1.2197 H   0  0  0  0  0  0  0  0  0  0  0  0
    2.1226   -0.1093   -3.1389 H   0  0  0  0  0  0  0  0  0  0  0  0
    0.7211   -1.1358   -3.3083 H   0  0  0  0  0  0  0  0  0  0  0  0
    1.7752   -2.9129   -2.3237 H   0  0  0  0  0  0  0  0  0  0  0  0
    3.2644   -1.9852   -2.4575 H   0  0  0  0  0  0  0  0  0  0  0  0
    2.9351   -2.6799   -0.0763 H   0  0  0  0  0  0  0  0  0  0  0  0
    0.8659   -1.8574    1.1113 H   0  0  0  0  0  0  0  0  0  0  0  0
    0.4900   -3.0196   -0.1604 H   0  0  0  0  0  0  0  0  0  0  0  0
   -0.6672   -1.5409   -1.4256 H   0  0  0  0  0  0  0  0  0  0  0  0
   -1.4319   -1.9830    1.4408 H   0  0  0  0  0  0  0  0  0  0  0  0
   -3.2599   -1.5743    3.4990 H   0  0  0  0  0  0  0  0  0  0  0  0
   -4.7870    0.1638    4.4138 H   0  0  0  0  0  0  0  0  0  0  0  0
   -4.9159    2.3962    3.3632 H   0  0  0  0  0  0  0  0  0  0  0  0
   -3.5285    2.9409    1.3911 H   0  0  0  0  0  0  0  0  0  0  0  0
   -1.8960    3.0125   -0.2923 H   0  0  0  0  0  0  0  0  0  0  0  0
   -0.3871    2.3372   -0.8534 H   0  0  0  0  0  0  0  0  0  0  0  0
   -3.0253    1.2978   -2.0321 H   0  0  0  0  0  0  0  0  0  0  0  0
   -2.3891    2.8709   -2.5356 H   0  0  0  0  0  0  0  0  0  0  0  0
   -0.5508    0.8133   -2.5196 H   0  0  0  0  0  0  0  0  0  0  0  0
  1  2  2  0
  2  3  1  0
  3  4  1  0
  4  5  1  0
  5  6  1  0
  6  7  1  0
  7  8  1  0
  8  9  1  0
  9 10  1  0
 10 11  1  0
 11 12  1  0
 12 13  1  0
 13 14  2  0
 14 15  1  0
 15 16  2  0
 16 17  1  0
 17 18  2  0
 18 19  1  0
 19 20  1  0
 20 21  1  0
 21 22  1  0
  8  3  1  0
 19 11  2  0
 10  5  1  0
 18 13  1  0
  1 23  1  0
  1 24  1  0
  2 25  1  0
  3 26  1  0
  4 27  1  0
  4 28  1  0
  6 29  1  0
  6 30  1  0
  7 31  1  0
  7 32  1  0
  8 33  1  0
  9 34  1  0
  9 35  1  0
 10 36  1  0
 12 37  1  0
 14 38  1  0
 15 39  1  0
 16 40  1  0
 17 41  1  0
 20 42  1  0
 20 43  1  0
 21 44  1  0
 21 45  1  0
 22 46  1  0
M  END
$$$$
