
     RDKit          3D

 37 40  0  0  0  0  0  0  0  0999 V2000
   -2.8702    3.7181   -1.1147 C   0  0  0  0  0  0  0  0  0  0  0  0
   -2.0733    2.5836   -1.4305 O   0  0  0  0  0  0  0  0  0  0  0  0
   -2.2421    1.4723   -0.6542 C   0  0  0  0  0  0  0  0  0  0  0  0
   -3.1299    1.3391    0.4032 C   0  0  0  0  0  0  0  0  0  0  0  0
   -3.1940    0.1315    1.1064 C   0  0  0  0  0  0  0  0  0  0  0  0
   -2.3933   -0.9554    0.7865 C   0  0  0  0  0  0  0  0  0  0  0  0
   -2.5339   -2.0735    1.5165 N   0  0  0  0  0  0  0  0  0  0  0  0
   -1.7768   -3.1508    1.2205 C   0  0  0  0  0  0  0  0  0  0  0  0
   -1.9749   -4.3808    2.0543 C   0  0  0  0  0  0  0  0  0  0  0  0
   -0.8483   -3.1453    0.1951 C   0  0  0  0  0  0  0  0  0  0  0  0
   -0.6833   -1.9796   -0.5573 C   0  0  0  0  0  0  0  0  0  0  0  0
    0.5453   -2.0436   -1.8682 S   0  0  0  0  0  0  0  0  0  0  0  0
    1.7790   -1.0638   -1.0938 C   0  0  0  0  0  0  0  0  0  0  0  0
    2.0718    0.1267   -1.5617 N   0  0  0  0  0  0  0  0  0  0  0  0
    3.0633    0.7002   -0.7849 C   0  0  0  0  0  0  0  0  0  0  0  0
    3.6204    1.9815   -0.9709 C   0  0  0  0  0  0  0  0  0  0  0  0
    4.6223    2.4370   -0.1077 C   0  0  0  0  0  0  0  0  0  0  0  0
    5.0740    1.6329    0.9341 C   0  0  0  0  0  0  0  0  0  0  0  0
    4.5385    0.3576    1.1401 C   0  0  0  0  0  0  0  0  0  0  0  0
    3.5322   -0.0893    0.2677 C   0  0  0  0  0  0  0  0  0  0  0  0
    2.6869   -1.5895    0.2593 S   0  0  0  0  0  0  0  0  0  0  0  0
   -1.4801   -0.8398   -0.2799 C   0  0  0  0  0  0  0  0  0  0  0  0
   -1.4269    0.3889   -0.9900 C   0  0  0  0  0  0  0  0  0  0  0  0
   -3.9357    3.4986   -1.2395 H   0  0  0  0  0  0  0  0  0  0  0  0
   -2.6568    4.0817   -0.1041 H   0  0  0  0  0  0  0  0  0  0  0  0
   -2.6100    4.5155   -1.8174 H   0  0  0  0  0  0  0  0  0  0  0  0
   -3.7883    2.1442    0.7103 H   0  0  0  0  0  0  0  0  0  0  0  0
   -3.8963    0.0361    1.9321 H   0  0  0  0  0  0  0  0  0  0  0  0
   -2.2941   -5.2172    1.4248 H   0  0  0  0  0  0  0  0  0  0  0  0
   -1.0427   -4.6474    2.5621 H   0  0  0  0  0  0  0  0  0  0  0  0
   -2.7430   -4.2155    2.8167 H   0  0  0  0  0  0  0  0  0  0  0  0
   -0.2601   -4.0347   -0.0096 H   0  0  0  0  0  0  0  0  0  0  0  0
    3.2641    2.6057   -1.7847 H   0  0  0  0  0  0  0  0  0  0  0  0
    5.0484    3.4267   -0.2548 H   0  0  0  0  0  0  0  0  0  0  0  0
    5.8540    1.9999    1.5983 H   0  0  0  0  0  0  0  0  0  0  0  0
    4.8920   -0.2684    1.9538 H   0  0  0  0  0  0  0  0  0  0  0  0
   -0.7384    0.5167   -1.8236 H   0  0  0  0  0  0  0  0  0  0  0  0
  1  2  1  0
  2  3  1  0
  3  4  2  0
  4  5  1  0
  5  6  2  0
  6  7  1  0
  7  8  2  0
  8  9  1  0
  8 10  1  0
 10 11  2  0
 11 12  1  0
 12 13  1  0
 13 14  2  0
 14 15  1  0
 15 16  2  0
 16 17  1  0
 17 18  2  0
 18 19  1  0
 19 20  2  0
 20 21  1  0
 11 22  1  0
 22 23  2  0
 23  3  1  0
 22  6  1  0
 21 13  1  0
 20 15  1  0
  1 24  1  0
  1 25  1  0
  1 26  1  0
  4 27  1  0
  5 28  1  0
  9 29  1  0
  9 30  1  0
  9 31  1  0
 10 32  1  0
 16 33  1  0
 17 34  1  0
 18 35  1  0
 19 36  1  0
 23 37  1  0
M  END
$$$$
