
     RDKit          3D

 55 58  0  0  0  0  0  0  0  0999 V2000
   -9.1701   -0.5478   -1.3563 C   0  0  0  0  0  0  0  0  0  0  0  0
   -8.7785   -0.0425    0.0269 C   0  0  0  0  0  0  0  0  0  0  0  0
   -9.5920   -0.7447    1.1082 C   0  0  0  0  0  0  0  0  0  0  0  0
   -7.3811   -0.3397    0.2063 O   0  0  0  0  0  0  0  0  0  0  0  0
   -6.7141    0.4402    1.0930 C   0  0  0  0  0  0  0  0  0  0  0  0
   -7.1899    1.3594    1.7402 O   0  0  0  0  0  0  0  0  0  0  0  0
   -5.2878    0.0242    1.1848 C   0  0  0  0  0  0  0  0  0  0  0  0
   -4.4506    0.7229    2.0639 C   0  0  0  0  0  0  0  0  0  0  0  0
   -3.1033    0.3723    2.1862 C   0  0  0  0  0  0  0  0  0  0  0  0
   -2.5746   -0.6879    1.4377 C   0  0  0  0  0  0  0  0  0  0  0  0
   -1.1155   -1.0496    1.5507 C   0  0  0  0  0  0  0  0  0  0  0  0
   -0.4024   -0.2693    0.5889 O   0  0  0  0  0  0  0  0  0  0  0  0
    0.9310   -0.4984    0.5803 C   0  0  0  0  0  0  0  0  0  0  0  0
    1.5252   -1.2861    1.2990 O   0  0  0  0  0  0  0  0  0  0  0  0
    1.6029    0.3504   -0.4410 C   0  0  0  0  0  0  0  0  0  0  0  0
    0.8974    1.2474   -1.2527 C   0  0  0  0  0  0  0  0  0  0  0  0
    1.5773    2.0192   -2.1945 C   0  0  0  0  0  0  0  0  0  0  0  0
    2.9622    1.8986   -2.3290 C   0  0  0  0  0  0  0  0  0  0  0  0
    3.6900    1.0069   -1.5263 C   0  0  0  0  0  0  0  0  0  0  0  0
    5.1346    0.9048   -1.6906 C   0  0  0  0  0  0  0  0  0  0  0  0
    5.9397    1.5395   -2.5183 N   0  0  0  0  0  0  0  0  0  0  0  0
    7.2131    1.0730   -2.2610 N   0  0  0  0  0  0  0  0  0  0  0  0
    7.0994    0.1849   -1.2933 C   0  0  0  0  0  0  0  0  0  0  0  0
    8.1201   -0.6166   -0.6303 C   0  0  0  0  0  0  0  0  0  0  0  0
    9.4630   -0.4888   -1.0180 C   0  0  0  0  0  0  0  0  0  0  0  0
   10.4622   -1.2446   -0.3993 C   0  0  0  0  0  0  0  0  0  0  0  0
   10.1310   -2.1389    0.6159 C   0  0  0  0  0  0  0  0  0  0  0  0
    8.8031   -2.2784    1.0132 C   0  0  0  0  0  0  0  0  0  0  0  0
    7.8034   -1.5222    0.3942 C   0  0  0  0  0  0  0  0  0  0  0  0
    5.8019    0.0249   -0.8790 O   0  0  0  0  0  0  0  0  0  0  0  0
    2.9950    0.2352   -0.5822 C   0  0  0  0  0  0  0  0  0  0  0  0
   -3.4114   -1.3775    0.5494 C   0  0  0  0  0  0  0  0  0  0  0  0
   -4.7598   -1.0280    0.4258 C   0  0  0  0  0  0  0  0  0  0  0  0
   -8.5665   -0.0547   -2.1261 H   0  0  0  0  0  0  0  0  0  0  0  0
   -8.9819   -1.6231   -1.4508 H   0  0  0  0  0  0  0  0  0  0  0  0
  -10.2268   -0.3560   -1.5660 H   0  0  0  0  0  0  0  0  0  0  0  0
   -8.9488    1.0405    0.0621 H   0  0  0  0  0  0  0  0  0  0  0  0
   -9.4007   -1.8235    1.1034 H   0  0  0  0  0  0  0  0  0  0  0  0
  -10.6644   -0.5773    0.9684 H   0  0  0  0  0  0  0  0  0  0  0  0
   -9.3142   -0.3820    2.1032 H   0  0  0  0  0  0  0  0  0  0  0  0
   -4.8437    1.5473    2.6564 H   0  0  0  0  0  0  0  0  0  0  0  0
   -2.4683    0.9348    2.8681 H   0  0  0  0  0  0  0  0  0  0  0  0
   -0.7519   -0.8320    2.5626 H   0  0  0  0  0  0  0  0  0  0  0  0
   -0.9775   -2.1195    1.3512 H   0  0  0  0  0  0  0  0  0  0  0  0
   -0.1813    1.3568   -1.1637 H   0  0  0  0  0  0  0  0  0  0  0  0
    1.0298    2.7164   -2.8252 H   0  0  0  0  0  0  0  0  0  0  0  0
    3.4760    2.5106   -3.0705 H   0  0  0  0  0  0  0  0  0  0  0  0
    9.7403    0.2057   -1.8100 H   0  0  0  0  0  0  0  0  0  0  0  0
   11.4978   -1.1336   -0.7113 H   0  0  0  0  0  0  0  0  0  0  0  0
   10.9081   -2.7271    1.0977 H   0  0  0  0  0  0  0  0  0  0  0  0
    8.5434   -2.9762    1.8057 H   0  0  0  0  0  0  0  0  0  0  0  0
    6.7743   -1.6503    0.7236 H   0  0  0  0  0  0  0  0  0  0  0  0
    3.5355   -0.4650    0.0539 H   0  0  0  0  0  0  0  0  0  0  0  0
   -3.0165   -2.1914   -0.0558 H   0  0  0  0  0  0  0  0  0  0  0  0
   -5.3839   -1.5840   -0.2695 H   0  0  0  0  0  0  0  0  0  0  0  0
  1  2  1  0
  2  3  1  0
  2  4  1  0
  4  5  1  0
  5  6  2  0
  5  7  1  0
  7  8  2  0
  8  9  1  0
  9 10  2  0
 10 11  1  0
 11 12  1  0
 12 13  1  0
 13 14  2  0
 13 15  1  0
 15 16  2  0
 16 17  1  0
 17 18  2  0
 18 19  1  0
 19 20  1  0
 20 21  2  0
 21 22  1  0
 22 23  2  0
 23 24  1  0
 24 25  2  0
 25 26  1  0
 26 27  2  0
 27 28  1  0
 28 29  2  0
 23 30  1  0
 19 31  2  0
 10 32  1  0
 32 33  2  0
 33  7  1  0
 31 15  1  0
 30 20  1  0
 29 24  1  0
  1 34  1  0
  1 35  1  0
  1 36  1  0
  2 37  1  0
  3 38  1  0
  3 39  1  0
  3 40  1  0
  8 41  1  0
  9 42  1  0
 11 43  1  0
 11 44  1  0
 16 45  1  0
 17 46  1  0
 18 47  1  0
 25 48  1  0
 26 49  1  0
 27 50  1  0
 28 51  1  0
 29 52  1  0
 31 53  1  0
 32 54  1  0
 33 55  1  0
M  END
$$$$
