
     RDKit          3D

 48 52  0  0  0  0  0  0  0  0999 V2000
    5.2528   -0.9508   -2.1333 C   0  0  0  0  0  0  0  0  0  0  0  0
    4.0606   -0.5713   -1.3064 C   0  0  0  0  0  0  0  0  0  0  0  0
    4.1230   -0.6141    0.0897 C   0  0  0  0  0  0  0  0  0  0  0  0
    3.0025   -0.2916    0.8601 C   0  0  0  0  0  0  0  0  0  0  0  0
    1.7903    0.0755    0.2537 C   0  0  0  0  0  0  0  0  0  0  0  0
    0.6036    0.4221    1.1271 C   0  0  0  0  0  0  0  0  0  0  0  0
    0.1844    1.7988    0.7802 C   0  0  0  0  0  0  0  0  0  0  0  0
   -1.1596    1.8250    0.3757 C   0  0  0  0  0  0  0  0  0  0  0  0
   -1.4673    3.0986   -0.0190 C   0  0  0  0  0  0  0  0  0  0  0  0
   -2.5453    3.6009   -0.6068 O   0  0  0  0  0  0  0  0  0  0  0  0
   -0.3579    3.8738    0.2617 N   0  0  0  0  0  0  0  0  0  0  0  0
   -0.2624    5.2971    0.0301 C   0  0  0  0  0  0  0  0  0  0  0  0
    0.6819    3.0746    0.7059 C   0  0  0  0  0  0  0  0  0  0  0  0
    1.8865    3.5772    0.9423 O   0  0  0  0  0  0  0  0  0  0  0  0
   -1.7844    0.4835    0.4437 C   0  0  0  0  0  0  0  0  0  0  0  0
   -2.4398    0.0674   -0.8636 C   0  0  0  0  0  0  0  0  0  0  0  0
   -2.8402    0.8828   -1.7040 O   0  0  0  0  0  0  0  0  0  0  0  0
   -2.7932   -1.2404   -1.0431 N   0  0  0  0  0  0  0  0  0  0  0  0
   -2.7795   -2.3005   -0.1186 C   0  0  0  0  0  0  0  0  0  0  0  0
   -3.7362   -3.3021   -0.3832 C   0  0  0  0  0  0  0  0  0  0  0  0
   -3.9086   -4.3945    0.4675 C   0  0  0  0  0  0  0  0  0  0  0  0
   -3.1135   -4.5169    1.5954 C   0  0  0  0  0  0  0  0  0  0  0  0
   -2.1340   -3.5582    1.8507 C   0  0  0  0  0  0  0  0  0  0  0  0
   -1.9430   -2.4461    0.9998 C   0  0  0  0  0  0  0  0  0  0  0  0
   -0.7407   -1.6216    1.3116 C   0  0  0  0  0  0  0  0  0  0  0  0
    0.1404   -2.1124    2.0177 O   0  0  0  0  0  0  0  0  0  0  0  0
   -0.6214   -0.3516    0.8035 N   0  0  0  0  0  0  0  0  0  0  0  0
    1.7296    0.0875   -1.1506 C   0  0  0  0  0  0  0  0  0  0  0  0
    2.8512   -0.2322   -1.9204 C   0  0  0  0  0  0  0  0  0  0  0  0
    5.2427   -2.0267   -2.3329 H   0  0  0  0  0  0  0  0  0  0  0  0
    5.2534   -0.4133   -3.0874 H   0  0  0  0  0  0  0  0  0  0  0  0
    6.1839   -0.6951   -1.6165 H   0  0  0  0  0  0  0  0  0  0  0  0
    5.0439   -0.9073    0.5891 H   0  0  0  0  0  0  0  0  0  0  0  0
    3.0775   -0.3488    1.9447 H   0  0  0  0  0  0  0  0  0  0  0  0
    0.8221    0.3360    2.1979 H   0  0  0  0  0  0  0  0  0  0  0  0
   -3.0031    2.8483   -1.0382 H   0  0  0  0  0  0  0  0  0  0  0  0
    0.3997    5.7400    0.7785 H   0  0  0  0  0  0  0  0  0  0  0  0
    0.1370    5.4520   -0.9751 H   0  0  0  0  0  0  0  0  0  0  0  0
   -1.2537    5.7482    0.1209 H   0  0  0  0  0  0  0  0  0  0  0  0
    2.4930    2.8242    1.0668 H   0  0  0  0  0  0  0  0  0  0  0  0
   -2.5241    0.4376    1.2514 H   0  0  0  0  0  0  0  0  0  0  0  0
   -3.3570   -1.3538   -1.8787 H   0  0  0  0  0  0  0  0  0  0  0  0
   -4.3878   -3.2310   -1.2528 H   0  0  0  0  0  0  0  0  0  0  0  0
   -4.6639   -5.1451    0.2473 H   0  0  0  0  0  0  0  0  0  0  0  0
   -3.2323   -5.3661    2.2640 H   0  0  0  0  0  0  0  0  0  0  0  0
   -1.4881   -3.7001    2.7176 H   0  0  0  0  0  0  0  0  0  0  0  0
    0.8053    0.3544   -1.6589 H   0  0  0  0  0  0  0  0  0  0  0  0
    2.7716   -0.2136   -3.0050 H   0  0  0  0  0  0  0  0  0  0  0  0
  1  2  1  0
  2  3  2  0
  3  4  1  0
  4  5  2  0
  5  6  1  0
  6  7  1  0
  7  8  1  0
  8  9  2  0
  9 10  1  0
  9 11  1  0
 11 12  1  0
 11 13  1  0
 13 14  1  0
  8 15  1  0
 15 16  1  0
 16 17  2  0
 16 18  1  0
 18 19  1  0
 19 20  2  0
 20 21  1  0
 21 22  2  0
 22 23  1  0
 23 24  2  0
 24 25  1  0
 25 26  2  0
 25 27  1  0
  5 28  1  0
 28 29  2  0
 29  2  1  0
 27  6  1  0
 13  7  2  0
 27 15  1  0
 24 19  1  0
  1 30  1  0
  1 31  1  0
  1 32  1  0
  3 33  1  0
  4 34  1  0
  6 35  1  0
 10 36  1  0
 12 37  1  0
 12 38  1  0
 12 39  1  0
 14 40  1  0
 15 41  1  0
 18 42  1  0
 20 43  1  0
 21 44  1  0
 22 45  1  0
 23 46  1  0
 28 47  1  0
 29 48  1  0
M  END
$$$$
