
     RDKit          3D

 37 39  0  0  0  0  0  0  0  0999 V2000
    0.0104    2.4228    1.1657 C   0  0  0  0  0  0  0  0  0  0  0  0
   -0.7529    1.1391    0.9250 C   0  0  0  0  0  0  0  0  0  0  0  0
   -0.2342   -0.0567    0.8855 N   0  0  0  0  0  0  0  0  0  0  0  0
    1.1240   -0.1905    0.9877 N   0  0  0  0  0  0  0  0  0  0  0  0
    1.9531    0.2562   -0.0411 C   0  0  0  0  0  0  0  0  0  0  0  0
    1.5949    0.9567   -0.9820 O   0  0  0  0  0  0  0  0  0  0  0  0
    3.3683   -0.2038    0.0325 C   0  0  0  0  0  0  0  0  0  0  0  0
    3.9829   -0.5188    1.2536 C   0  0  0  0  0  0  0  0  0  0  0  0
    5.3139   -0.9421    1.2776 C   0  0  0  0  0  0  0  0  0  0  0  0
    6.0346   -1.0449    0.0873 C   0  0  0  0  0  0  0  0  0  0  0  0
    5.4265   -0.7167   -1.1239 C   0  0  0  0  0  0  0  0  0  0  0  0
    6.3241   -0.8384   -2.5866 Cl  0  0  0  0  0  0  0  0  0  0  0  0
    4.1002   -0.2927   -1.1583 C   0  0  0  0  0  0  0  0  0  0  0  0
   -2.2352    1.2739    0.6671 C   0  0  0  0  0  0  0  0  0  0  0  0
   -2.5453    1.3943   -0.8077 C   0  0  0  0  0  0  0  0  0  0  0  0
   -2.1914    2.2795   -1.5649 O   0  0  0  0  0  0  0  0  0  0  0  0
   -3.3953    0.2719   -1.2011 C   0  0  0  0  0  0  0  0  0  0  0  0
   -3.8869   -0.0395   -2.4551 C   0  0  0  0  0  0  0  0  0  0  0  0
   -4.6993   -1.1720   -2.5659 C   0  0  0  0  0  0  0  0  0  0  0  0
   -5.0021   -1.9567   -1.4353 C   0  0  0  0  0  0  0  0  0  0  0  0
   -4.4971   -1.6221   -0.1751 C   0  0  0  0  0  0  0  0  0  0  0  0
   -3.6928   -0.5009   -0.0878 C   0  0  0  0  0  0  0  0  0  0  0  0
   -3.0510    0.0723    1.0945 C   0  0  0  0  0  0  0  0  0  0  0  0
   -3.1975   -0.3592    2.2244 O   0  0  0  0  0  0  0  0  0  0  0  0
    0.9520    2.2472    1.6897 H   0  0  0  0  0  0  0  0  0  0  0  0
   -0.5926    3.0936    1.7847 H   0  0  0  0  0  0  0  0  0  0  0  0
    0.2045    2.9144    0.2091 H   0  0  0  0  0  0  0  0  0  0  0  0
    1.3933   -1.0833    1.3932 H   0  0  0  0  0  0  0  0  0  0  0  0
    3.4513   -0.4151    2.1964 H   0  0  0  0  0  0  0  0  0  0  0  0
    5.7933   -1.1828    2.2239 H   0  0  0  0  0  0  0  0  0  0  0  0
    7.0712   -1.3727    0.1104 H   0  0  0  0  0  0  0  0  0  0  0  0
    3.6332   -0.0332   -2.1064 H   0  0  0  0  0  0  0  0  0  0  0  0
   -2.6464    2.1522    1.1760 H   0  0  0  0  0  0  0  0  0  0  0  0
   -3.6471    0.5730   -3.3191 H   0  0  0  0  0  0  0  0  0  0  0  0
   -5.1032   -1.4524   -3.5373 H   0  0  0  0  0  0  0  0  0  0  0  0
   -5.6369   -2.8341   -1.5464 H   0  0  0  0  0  0  0  0  0  0  0  0
   -4.7244   -2.2188    0.7030 H   0  0  0  0  0  0  0  0  0  0  0  0
  1  2  1  0
  2  3  2  3
  3  4  1  0
  4  5  1  0
  5  6  2  0
  5  7  1  0
  7  8  2  0
  8  9  1  0
  9 10  2  0
 10 11  1  0
 11 12  1  0
 11 13  2  0
  2 14  1  0
 14 15  1  0
 15 16  2  0
 15 17  1  0
 17 18  2  0
 18 19  1  0
 19 20  2  0
 20 21  1  0
 21 22  2  0
 22 23  1  0
 23 24  2  0
 13  7  1  0
 23 14  1  0
 22 17  1  0
  1 25  1  0
  1 26  1  0
  1 27  1  0
  4 28  1  0
  8 29  1  0
  9 30  1  0
 10 31  1  0
 13 32  1  0
 14 33  1  0
 18 34  1  0
 19 35  1  0
 20 36  1  0
 21 37  1  0
M  END
$$$$
