
     RDKit          3D

 39 41  0  0  0  0  0  0  0  0999 V2000
   -6.1355    0.3912   -1.1186 C   0  0  0  0  0  0  0  0  0  0  0  0
   -4.7996   -0.0787   -1.2408 O   0  0  0  0  0  0  0  0  0  0  0  0
   -4.0037   -0.0201   -0.1265 C   0  0  0  0  0  0  0  0  0  0  0  0
   -4.4344    0.4077    1.1347 C   0  0  0  0  0  0  0  0  0  0  0  0
   -3.5508    0.4317    2.2168 C   0  0  0  0  0  0  0  0  0  0  0  0
   -2.2305    0.0288    2.0495 C   0  0  0  0  0  0  0  0  0  0  0  0
   -1.7919   -0.4013    0.7993 C   0  0  0  0  0  0  0  0  0  0  0  0
   -2.6687   -0.4344   -0.3001 C   0  0  0  0  0  0  0  0  0  0  0  0
   -2.1487   -0.8944   -1.6444 C   0  0  0  0  0  0  0  0  0  0  0  0
   -1.6008    0.4837   -2.6975 S   0  0  0  0  0  0  0  0  0  0  0  0
   -0.0239    0.7789   -2.0768 C   0  0  0  0  0  0  0  0  0  0  0  0
    0.7695   -0.0535   -1.4502 N   0  0  0  0  0  0  0  0  0  0  0  0
    1.9086    0.6723   -1.1677 C   0  0  0  0  0  0  0  0  0  0  0  0
    3.0476    0.1073   -0.4581 C   0  0  0  0  0  0  0  0  0  0  0  0
    4.1691    0.8768   -0.1120 C   0  0  0  0  0  0  0  0  0  0  0  0
    5.2478    0.3039    0.5731 C   0  0  0  0  0  0  0  0  0  0  0  0
    5.2077   -1.0526    0.9177 C   0  0  0  0  0  0  0  0  0  0  0  0
    6.3366   -1.6556    1.6367 N   0  0  0  0  0  4  0  0  0  0  0  0
    6.2594   -2.8572    1.9299 O   0  0  0  0  0  0  0  0  0  0  0  0
    7.3014   -0.9265    1.9095 O   0  0  0  0  0  1  0  0  0  0  0  0
    4.0989   -1.8361    0.5821 C   0  0  0  0  0  0  0  0  0  0  0  0
    3.0278   -1.2520   -0.1023 C   0  0  0  0  0  0  0  0  0  0  0  0
    1.7849    1.9599   -1.6507 C   0  0  0  0  0  0  0  0  0  0  0  0
    0.5456    2.0058   -2.2331 N   0  0  0  0  0  0  0  0  0  0  0  0
   -6.6112    0.3031   -2.1001 H   0  0  0  0  0  0  0  0  0  0  0  0
   -6.1592    1.4477   -0.8318 H   0  0  0  0  0  0  0  0  0  0  0  0
   -6.7069   -0.2244   -0.4163 H   0  0  0  0  0  0  0  0  0  0  0  0
   -5.4552    0.7288    1.3119 H   0  0  0  0  0  0  0  0  0  0  0  0
   -3.8962    0.7662    3.1916 H   0  0  0  0  0  0  0  0  0  0  0  0
   -1.5409    0.0497    2.8891 H   0  0  0  0  0  0  0  0  0  0  0  0
   -0.7541   -0.7086    0.6794 H   0  0  0  0  0  0  0  0  0  0  0  0
   -1.3417   -1.6253   -1.5152 H   0  0  0  0  0  0  0  0  0  0  0  0
   -2.9363   -1.4367   -2.1799 H   0  0  0  0  0  0  0  0  0  0  0  0
    4.2225    1.9324   -0.3660 H   0  0  0  0  0  0  0  0  0  0  0  0
    6.1029    0.9269    0.8278 H   0  0  0  0  0  0  0  0  0  0  0  0
    4.0486   -2.8918    0.8399 H   0  0  0  0  0  0  0  0  0  0  0  0
    2.1678   -1.8689   -0.3624 H   0  0  0  0  0  0  0  0  0  0  0  0
    2.4347    2.8224   -1.6411 H   0  0  0  0  0  0  0  0  0  0  0  0
    0.1087    2.7929   -2.6903 H   0  0  0  0  0  0  0  0  0  0  0  0
  1  2  1  0
  2  3  1  0
  3  4  2  0
  4  5  1  0
  5  6  2  0
  6  7  1  0
  7  8  2  0
  8  9  1  0
  9 10  1  0
 10 11  1  0
 11 12  2  0
 12 13  1  0
 13 14  1  0
 14 15  2  0
 15 16  1  0
 16 17  2  0
 17 18  1  0
 18 19  2  0
 18 20  1  0
 17 21  1  0
 21 22  2  0
 13 23  2  0
 23 24  1  0
  8  3  1  0
 24 11  1  0
 22 14  1  0
  1 25  1  0
  1 26  1  0
  1 27  1  0
  4 28  1  0
  5 29  1  0
  6 30  1  0
  7 31  1  0
  9 32  1  0
  9 33  1  0
 15 34  1  0
 16 35  1  0
 21 36  1  0
 22 37  1  0
 23 38  1  0
 24 39  1  0
M  CHG  2  18   1  20  -1
M  END
$$$$
