
     RDKit          3D

 33 34  0  0  0  0  0  0  0  0999 V2000
   -5.3995    1.7757    0.5509 C   0  0  0  0  0  0  0  0  0  0  0  0
   -4.7396    0.5152    0.5601 O   0  0  0  0  0  0  0  0  0  0  0  0
   -3.3725    0.5302    0.5488 C   0  0  0  0  0  0  0  0  0  0  0  0
   -2.5651    1.6646    0.5200 C   0  0  0  0  0  0  0  0  0  0  0  0
   -1.1725    1.5315    0.4886 C   0  0  0  0  0  0  0  0  0  0  0  0
   -0.5700    0.2636    0.4938 C   0  0  0  0  0  0  0  0  0  0  0  0
    0.9206    0.2165    0.4441 C   0  0  0  0  0  0  0  0  0  0  0  0
    1.5393    1.1651    0.9262 O   0  0  0  0  0  0  0  0  0  0  0  0
    1.5904   -0.9737   -0.2140 C   0  0  0  0  0  0  0  0  0  0  0  0
    2.9637   -0.6301   -0.6862 C   0  0  0  0  0  0  0  0  0  0  0  0
    4.0683   -1.1858   -0.2297 N   0  0  0  0  0  0  0  0  0  0  0  0
    5.1954   -0.7195   -0.8734 N   0  0  0  0  0  0  0  0  0  0  0  0
    4.9060    0.1701   -1.7993 C   0  0  0  0  0  0  0  0  0  0  0  0
    5.9034    0.8689   -2.6472 C   0  0  0  0  0  0  0  0  0  0  0  0
    3.2251    0.4740   -1.9820 S   0  0  0  0  0  0  0  0  0  0  0  0
   -1.3829   -0.8730    0.5737 C   0  0  0  0  0  0  0  0  0  0  0  0
   -0.8206   -2.1210    0.6104 O   0  0  0  0  0  0  0  0  0  0  0  0
   -1.1758   -2.8397    1.7953 C   0  0  0  0  0  0  0  0  0  0  0  0
   -2.7764   -0.7338    0.5712 C   0  0  0  0  0  0  0  0  0  0  0  0
   -5.1667    2.3361   -0.3608 H   0  0  0  0  0  0  0  0  0  0  0  0
   -5.1546    2.3557    1.4470 H   0  0  0  0  0  0  0  0  0  0  0  0
   -6.4779    1.5877    0.5595 H   0  0  0  0  0  0  0  0  0  0  0  0
   -2.9810    2.6679    0.5089 H   0  0  0  0  0  0  0  0  0  0  0  0
   -0.5560    2.4292    0.4571 H   0  0  0  0  0  0  0  0  0  0  0  0
    0.9972   -1.3182   -1.0681 H   0  0  0  0  0  0  0  0  0  0  0  0
    1.6622   -1.7804    0.5233 H   0  0  0  0  0  0  0  0  0  0  0  0
    6.9178    0.5518   -2.3832 H   0  0  0  0  0  0  0  0  0  0  0  0
    5.8440    1.9528   -2.5077 H   0  0  0  0  0  0  0  0  0  0  0  0
    5.7430    0.6407   -3.7064 H   0  0  0  0  0  0  0  0  0  0  0  0
   -0.4916   -3.6893    1.8842 H   0  0  0  0  0  0  0  0  0  0  0  0
   -2.1958   -3.2341    1.7254 H   0  0  0  0  0  0  0  0  0  0  0  0
   -1.0624   -2.2151    2.6905 H   0  0  0  0  0  0  0  0  0  0  0  0
   -3.4155   -1.6134    0.5790 H   0  0  0  0  0  0  0  0  0  0  0  0
  1  2  1  0
  2  3  1  0
  3  4  2  0
  4  5  1  0
  5  6  2  0
  6  7  1  0
  7  8  2  0
  7  9  1  0
  9 10  1  0
 10 11  2  0
 11 12  1  0
 12 13  2  0
 13 14  1  0
 13 15  1  0
  6 16  1  0
 16 17  1  0
 17 18  1  0
 16 19  2  0
 19  3  1  0
 15 10  1  0
  1 20  1  0
  1 21  1  0
  1 22  1  0
  4 23  1  0
  5 24  1  0
  9 25  1  0
  9 26  1  0
 14 27  1  0
 14 28  1  0
 14 29  1  0
 18 30  1  0
 18 31  1  0
 18 32  1  0
 19 33  1  0
M  END
$$$$
