
     RDKit          3D

 57 61  0  0  0  0  0  0  0  0999 V2000
   -7.9462    1.7269    3.6488 C   0  0  0  0  0  0  0  0  0  0  0  0
   -6.8893    1.3724    2.6466 C   0  0  0  0  0  0  0  0  0  0  0  0
   -6.8949    0.1272    2.0132 C   0  0  0  0  0  0  0  0  0  0  0  0
   -5.9285   -0.1830    1.0497 C   0  0  0  0  0  0  0  0  0  0  0  0
   -4.9321    0.7396    0.6841 C   0  0  0  0  0  0  0  0  0  0  0  0
   -3.9244    0.3988   -0.3409 C   0  0  0  0  0  0  0  0  0  0  0  0
   -2.6245    0.8706   -0.3040 C   0  0  0  0  0  0  0  0  0  0  0  0
   -1.7515    0.4993   -1.3272 C   0  0  0  0  0  0  0  0  0  0  0  0
   -0.3567    0.9819   -1.1990 C   0  0  0  0  0  0  0  0  0  0  0  0
   -0.1744    2.1865   -1.0886 O   0  0  0  0  0  0  0  0  0  0  0  0
    0.5868   -0.0268   -1.1682 N   0  0  0  0  0  0  0  0  0  0  0  0
    1.9860    0.1117   -1.0742 C   0  0  0  0  0  0  0  0  0  0  0  0
    2.7434   -1.0684   -1.0776 C   0  0  0  0  0  0  0  0  0  0  0  0
    4.1381   -1.0225   -1.0091 C   0  0  0  0  0  0  0  0  0  0  0  0
    4.7819    0.2113   -0.9226 C   0  0  0  0  0  0  0  0  0  0  0  0
    6.5567    0.2907   -0.9159 S   0  0  0  0  0  6  0  0  0  0  0  0
    6.9169    1.4465   -1.7155 O   0  0  0  0  0  0  0  0  0  0  0  0
    7.0915   -1.0120   -1.2553 O   0  0  0  0  0  0  0  0  0  0  0  0
    6.9362    0.6843    0.6512 N   0  0  0  0  0  0  0  0  0  0  0  0
    7.0210   -0.3631    1.5608 C   0  0  0  0  0  0  0  0  0  0  0  0
    6.0058   -1.2234    1.6589 N   0  0  0  0  0  0  0  0  0  0  0  0
    6.1022   -2.1173    2.6608 C   0  0  0  0  0  0  0  0  0  0  0  0
    7.1470   -2.1459    3.5563 C   0  0  0  0  0  0  0  0  0  0  0  0
    8.1090   -1.1797    3.3756 C   0  0  0  0  0  0  0  0  0  0  0  0
    8.0589   -0.2562    2.3969 N   0  0  0  0  0  0  0  0  0  0  0  0
    4.0417    1.3953   -0.9240 C   0  0  0  0  0  0  0  0  0  0  0  0
    2.6453    1.3412   -0.9958 C   0  0  0  0  0  0  0  0  0  0  0  0
   -2.1853   -0.2992   -2.4087 C   0  0  0  0  0  0  0  0  0  0  0  0
   -1.3973   -0.6517   -3.5353 C   0  0  0  0  0  0  0  0  0  0  0  0
   -1.9106   -1.4627   -4.5468 C   0  0  0  0  0  0  0  0  0  0  0  0
   -3.2163   -1.9218   -4.4556 C   0  0  0  0  0  0  0  0  0  0  0  0
   -4.0019   -1.5577   -3.3594 C   0  0  0  0  0  0  0  0  0  0  0  0
   -3.5159   -0.7485   -2.3407 C   0  0  0  0  0  0  0  0  0  0  0  0
   -4.3456   -0.4260   -1.3328 N   0  0  0  0  0  0  0  0  0  0  0  0
   -4.9541    1.9941    1.3194 C   0  0  0  0  0  0  0  0  0  0  0  0
   -5.9192    2.3084    2.2827 C   0  0  0  0  0  0  0  0  0  0  0  0
   -8.7685    2.2553    3.1577 H   0  0  0  0  0  0  0  0  0  0  0  0
   -8.3444    0.8300    4.1331 H   0  0  0  0  0  0  0  0  0  0  0  0
   -7.5332    2.3644    4.4375 H   0  0  0  0  0  0  0  0  0  0  0  0
   -7.6543   -0.6119    2.2577 H   0  0  0  0  0  0  0  0  0  0  0  0
   -5.9604   -1.1618    0.5719 H   0  0  0  0  0  0  0  0  0  0  0  0
   -2.2732    1.4982    0.5099 H   0  0  0  0  0  0  0  0  0  0  0  0
    0.2388   -0.9778   -1.2137 H   0  0  0  0  0  0  0  0  0  0  0  0
    2.2621   -2.0411   -1.1477 H   0  0  0  0  0  0  0  0  0  0  0  0
    4.7110   -1.9465   -1.0228 H   0  0  0  0  0  0  0  0  0  0  0  0
    7.7103    1.3371    0.7234 H   0  0  0  0  0  0  0  0  0  0  0  0
    5.2848   -2.8290    2.7297 H   0  0  0  0  0  0  0  0  0  0  0  0
    7.2037   -2.8733    4.3547 H   0  0  0  0  0  0  0  0  0  0  0  0
    8.9692   -1.1118    4.0368 H   0  0  0  0  0  0  0  0  0  0  0  0
    4.5398    2.3614   -0.8815 H   0  0  0  0  0  0  0  0  0  0  0  0
    2.1023    2.2812   -1.0006 H   0  0  0  0  0  0  0  0  0  0  0  0
   -0.3806   -0.2783   -3.6463 H   0  0  0  0  0  0  0  0  0  0  0  0
   -1.2975   -1.7209   -5.4063 H   0  0  0  0  0  0  0  0  0  0  0  0
   -3.6347   -2.5471   -5.2399 H   0  0  0  0  0  0  0  0  0  0  0  0
   -5.0308   -1.9070   -3.3029 H   0  0  0  0  0  0  0  0  0  0  0  0
   -4.2318    2.7617    1.0515 H   0  0  0  0  0  0  0  0  0  0  0  0
   -5.9121    3.2962    2.7386 H   0  0  0  0  0  0  0  0  0  0  0  0
  1  2  1  0
  2  3  2  0
  3  4  1  0
  4  5  2  0
  5  6  1  0
  6  7  2  0
  7  8  1  0
  8  9  1  0
  9 10  2  0
  9 11  1  0
 11 12  1  0
 12 13  2  0
 13 14  1  0
 14 15  2  0
 15 16  1  0
 16 17  2  0
 16 18  2  0
 16 19  1  0
 19 20  1  0
 20 21  2  0
 21 22  1  0
 22 23  2  0
 23 24  1  0
 24 25  2  0
 15 26  1  0
 26 27  2  0
  8 28  2  0
 28 29  1  0
 29 30  2  0
 30 31  1  0
 31 32  2  0
 32 33  1  0
 33 34  2  0
  5 35  1  0
 35 36  2  0
 36  2  1  0
 34  6  1  0
 27 12  1  0
 33 28  1  0
 25 20  1  0
  1 37  1  0
  1 38  1  0
  1 39  1  0
  3 40  1  0
  4 41  1  0
  7 42  1  0
 11 43  1  0
 13 44  1  0
 14 45  1  0
 19 46  1  0
 22 47  1  0
 23 48  1  0
 24 49  1  0
 26 50  1  0
 27 51  1  0
 29 52  1  0
 30 53  1  0
 31 54  1  0
 32 55  1  0
 35 56  1  0
 36 57  1  0
M  END
$$$$
