
     RDKit          3D

 40 41  0  0  0  0  0  0  0  0999 V2000
   -5.3532    1.7206    0.8543 C   0  0  0  0  0  0  0  0  0  0  0  0
   -4.3526    0.8097    0.1464 C   0  0  0  0  0  0  0  0  0  0  0  0
   -2.9850    1.4932    0.0205 C   0  0  0  0  0  0  0  0  0  0  0  0
   -1.9623    0.5662   -0.6289 C   0  0  0  0  0  0  0  0  0  0  0  0
   -1.8749   -0.7176    0.0720 N   0  0  0  0  0  0  0  0  0  0  0  0
   -0.7350   -1.5269   -0.0202 C   0  0  0  0  0  0  0  0  0  0  0  0
   -0.7726   -2.7556   -0.0129 O   0  0  0  0  0  0  0  0  0  0  0  0
    0.5976   -0.8804   -0.0942 C   0  0  0  0  0  0  0  0  0  0  0  0
    0.9516    0.1359    0.8018 C   0  0  0  0  0  0  0  0  0  0  0  0
    2.2222    0.7121    0.7327 C   0  0  0  0  0  0  0  0  0  0  0  0
    3.1355    0.2652   -0.2248 C   0  0  0  0  0  0  0  0  0  0  0  0
    4.4454    0.8249   -0.2695 N   0  0  0  0  0  0  0  0  0  0  0  0
    5.6411    0.0615    0.6591 S   0  0  0  0  0  6  0  0  0  0  0  0
    6.5051   -0.8678   -0.5878 C   0  0  0  0  0  0  0  0  0  0  0  0
    6.5174    1.1280    1.0963 O   0  0  0  0  0  0  0  0  0  0  0  0
    5.0407   -0.8540    1.6028 O   0  0  0  0  0  0  0  0  0  0  0  0
    2.8011   -0.7789   -1.0881 C   0  0  0  0  0  0  0  0  0  0  0  0
    1.5297   -1.3536   -1.0235 C   0  0  0  0  0  0  0  0  0  0  0  0
   -3.1481   -1.4134    0.2434 C   0  0  0  0  0  0  0  0  0  0  0  0
   -4.2017   -0.5205    0.8943 C   0  0  0  0  0  0  0  0  0  0  0  0
   -6.3361    1.2415    0.9176 H   0  0  0  0  0  0  0  0  0  0  0  0
   -5.0259    1.9591    1.8725 H   0  0  0  0  0  0  0  0  0  0  0  0
   -5.4741    2.6620    0.3075 H   0  0  0  0  0  0  0  0  0  0  0  0
   -4.7350    0.6033   -0.8621 H   0  0  0  0  0  0  0  0  0  0  0  0
   -3.0753    2.4107   -0.5727 H   0  0  0  0  0  0  0  0  0  0  0  0
   -2.6249    1.7862    1.0153 H   0  0  0  0  0  0  0  0  0  0  0  0
   -2.2490    0.3479   -1.6657 H   0  0  0  0  0  0  0  0  0  0  0  0
   -0.9943    1.0688   -0.6772 H   0  0  0  0  0  0  0  0  0  0  0  0
    0.2490    0.4651    1.5632 H   0  0  0  0  0  0  0  0  0  0  0  0
    2.4953    1.4896    1.4418 H   0  0  0  0  0  0  0  0  0  0  0  0
    4.4917    1.8294   -0.0871 H   0  0  0  0  0  0  0  0  0  0  0  0
    5.8426   -1.6367   -0.9873 H   0  0  0  0  0  0  0  0  0  0  0  0
    6.8378   -0.1859   -1.3729 H   0  0  0  0  0  0  0  0  0  0  0  0
    7.3704   -1.3376   -0.1155 H   0  0  0  0  0  0  0  0  0  0  0  0
    3.5168   -1.1474   -1.8165 H   0  0  0  0  0  0  0  0  0  0  0  0
    1.2672   -2.1738   -1.6880 H   0  0  0  0  0  0  0  0  0  0  0  0
   -3.4814   -1.7482   -0.7471 H   0  0  0  0  0  0  0  0  0  0  0  0
   -3.0040   -2.3079    0.8598 H   0  0  0  0  0  0  0  0  0  0  0  0
   -3.9109   -0.3254    1.9350 H   0  0  0  0  0  0  0  0  0  0  0  0
   -5.1618   -1.0493    0.9235 H   0  0  0  0  0  0  0  0  0  0  0  0
  1  2  1  0
  2  3  1  0
  3  4  1  0
  4  5  1  0
  5  6  1  0
  6  7  2  0
  6  8  1  0
  8  9  2  0
  9 10  1  0
 10 11  2  0
 11 12  1  0
 12 13  1  0
 13 14  1  0
 13 15  2  0
 13 16  2  0
 11 17  1  0
 17 18  2  0
  5 19  1  0
 19 20  1  0
 20  2  1  0
 18  8  1  0
  1 21  1  0
  1 22  1  0
  1 23  1  0
  2 24  1  0
  3 25  1  0
  3 26  1  0
  4 27  1  0
  4 28  1  0
  9 29  1  0
 10 30  1  0
 12 31  1  0
 14 32  1  0
 14 33  1  0
 14 34  1  0
 17 35  1  0
 18 36  1  0
 19 37  1  0
 19 38  1  0
 20 39  1  0
 20 40  1  0
M  END
$$$$
