
     RDKit          3D

 44 46  0  0  0  0  0  0  0  0999 V2000
    2.6777   -3.6125   -0.8999 O   0  0  0  0  0  0  0  0  0  0  0  0
    1.7168   -2.9227   -1.2402 C   0  0  0  0  0  0  0  0  0  0  0  0
    0.2872   -3.4567   -1.2758 C   0  0  0  0  0  0  0  0  0  0  0  0
   -0.4416   -3.1319   -0.0884 O   0  0  0  0  0  0  0  0  0  0  0  0
   -0.9527   -1.8678   -0.0572 C   0  0  0  0  0  0  0  0  0  0  0  0
   -0.7864   -1.0412   -0.9472 O   0  0  0  0  0  0  0  0  0  0  0  0
   -1.6493   -1.6141    1.2679 C   0  0  0  0  0  0  0  0  0  0  0  0
   -2.6031   -0.5219    1.1371 N   0  0  0  0  0  0  0  0  0  0  0  0
   -2.2225    0.7674    1.4178 C   0  0  0  0  0  0  0  0  0  0  0  0
   -2.9964    1.7962    1.3424 N   0  0  0  0  0  0  0  0  0  0  0  0
   -4.3171    1.5871    0.9222 C   0  0  0  0  0  0  0  0  0  0  0  0
   -5.1821    2.6805    0.8495 C   0  0  0  0  0  0  0  0  0  0  0  0
   -6.5022    2.5184    0.4260 C   0  0  0  0  0  0  0  0  0  0  0  0
   -6.9702    1.2552    0.0683 C   0  0  0  0  0  0  0  0  0  0  0  0
   -6.1181    0.1543    0.1369 C   0  0  0  0  0  0  0  0  0  0  0  0
   -4.7991    0.3288    0.5651 C   0  0  0  0  0  0  0  0  0  0  0  0
   -3.8692   -0.8115    0.6573 C   0  0  0  0  0  0  0  0  0  0  0  0
   -4.2262   -1.9346    0.3137 O   0  0  0  0  0  0  0  0  0  0  0  0
    1.8428   -1.5956   -1.6126 N   0  0  0  0  0  0  0  0  0  0  0  0
    3.0701   -0.9779   -1.3425 N   0  0  0  0  0  0  0  0  0  0  0  0
    3.0625    0.2700   -0.7508 C   0  0  0  0  0  0  0  0  0  0  0  0
    2.0329    0.9059   -0.5402 O   0  0  0  0  0  0  0  0  0  0  0  0
    4.3849    0.8408   -0.3907 C   0  0  0  0  0  0  0  0  0  0  0  0
    5.4638    0.0355   -0.0010 C   0  0  0  0  0  0  0  0  0  0  0  0
    6.6902    0.6217    0.3298 C   0  0  0  0  0  0  0  0  0  0  0  0
    6.8344    2.0079    0.2784 C   0  0  0  0  0  0  0  0  0  0  0  0
    8.4942    2.7969    0.7324 Br  0  0  0  0  0  0  0  0  0  0  0  0
    5.7604    2.8166   -0.0962 C   0  0  0  0  0  0  0  0  0  0  0  0
    4.5349    2.2334   -0.4248 C   0  0  0  0  0  0  0  0  0  0  0  0
    0.3360   -4.5479   -1.3468 H   0  0  0  0  0  0  0  0  0  0  0  0
   -0.2315   -3.1067   -2.1771 H   0  0  0  0  0  0  0  0  0  0  0  0
   -2.1755   -2.5221    1.5802 H   0  0  0  0  0  0  0  0  0  0  0  0
   -0.8882   -1.3573    2.0138 H   0  0  0  0  0  0  0  0  0  0  0  0
   -1.1738    0.8847    1.7344 H   0  0  0  0  0  0  0  0  0  0  0  0
   -4.8183    3.6666    1.1233 H   0  0  0  0  0  0  0  0  0  0  0  0
   -7.1597    3.3779    0.3753 H   0  0  0  0  0  0  0  0  0  0  0  0
   -7.9953    1.1294   -0.2663 H   0  0  0  0  0  0  0  0  0  0  0  0
   -6.4818   -0.8319   -0.1431 H   0  0  0  0  0  0  0  0  0  0  0  0
    1.0180   -0.9796   -1.5601 H   0  0  0  0  0  0  0  0  0  0  0  0
    3.9008   -1.5508   -1.4655 H   0  0  0  0  0  0  0  0  0  0  0  0
    5.3645   -1.0438    0.0791 H   0  0  0  0  0  0  0  0  0  0  0  0
    7.5223   -0.0117    0.6314 H   0  0  0  0  0  0  0  0  0  0  0  0
    5.8673    3.8977   -0.1322 H   0  0  0  0  0  0  0  0  0  0  0  0
    3.6987    2.8673   -0.7100 H   0  0  0  0  0  0  0  0  0  0  0  0
  1  2  2  0
  2  3  1  0
  3  4  1  0
  4  5  1  0
  5  6  2  0
  5  7  1  0
  7  8  1  0
  8  9  1  0
  9 10  2  0
 10 11  1  0
 11 12  2  0
 12 13  1  0
 13 14  2  0
 14 15  1  0
 15 16  2  0
 16 17  1  0
 17 18  2  0
  2 19  1  0
 19 20  1  0
 20 21  1  0
 21 22  2  0
 21 23  1  0
 23 24  2  0
 24 25  1  0
 25 26  2  0
 26 27  1  0
 26 28  1  0
 28 29  2  0
 17  8  1  0
 29 23  1  0
 16 11  1  0
  3 30  1  0
  3 31  1  0
  7 32  1  0
  7 33  1  0
  9 34  1  0
 12 35  1  0
 13 36  1  0
 14 37  1  0
 15 38  1  0
 19 39  1  0
 20 40  1  0
 24 41  1  0
 25 42  1  0
 28 43  1  0
 29 44  1  0
M  END
$$$$
