
     RDKit          3D

 45 46  0  0  0  0  0  0  0  0999 V2000
   -3.7836    1.2585    3.3976 C   0  0  0  0  0  0  0  0  0  0  0  0
   -3.2812    0.4426    2.3400 O   0  0  0  0  0  0  0  0  0  0  0  0
   -2.2692    1.0086    1.6285 C   0  0  0  0  0  0  0  0  0  0  0  0
   -1.7795    2.1122    1.8515 O   0  0  0  0  0  0  0  0  0  0  0  0
   -1.8081    0.0897    0.4980 C   0  0  0  0  0  0  0  0  0  0  0  0
   -2.5422    0.4423   -0.8032 C   0  0  0  0  0  0  0  0  0  0  0  0
   -3.9990    0.0460   -0.7979 C   0  0  0  0  0  0  0  0  0  0  0  0
   -4.3638   -1.3002   -0.9371 C   0  0  0  0  0  0  0  0  0  0  0  0
   -5.7080   -1.6735   -0.9159 C   0  0  0  0  0  0  0  0  0  0  0  0
   -6.6985   -0.7064   -0.7561 C   0  0  0  0  0  0  0  0  0  0  0  0
   -6.3462    0.6350   -0.6188 C   0  0  0  0  0  0  0  0  0  0  0  0
   -5.0024    1.0113   -0.6398 C   0  0  0  0  0  0  0  0  0  0  0  0
   -0.3596    0.2800    0.3503 N   0  0  0  0  0  0  0  0  0  0  0  0
    0.4405   -0.6587   -0.2547 C   0  0  0  0  0  0  0  0  0  0  0  0
    0.0027   -1.7056   -0.7183 O   0  0  0  0  0  0  0  0  0  0  0  0
    1.8949   -0.2527   -0.3168 C   0  0  0  0  0  0  0  0  0  0  0  0
    2.7606   -1.3899   -0.8428 C   0  0  0  0  0  0  0  0  0  0  0  0
    4.1493   -1.0011   -0.9835 N   0  0  0  0  0  0  0  0  0  0  0  0
    5.0049   -0.8800    0.0912 C   0  0  0  0  0  0  0  0  0  0  0  0
    4.6332   -1.0440    1.2501 O   0  0  0  0  0  0  0  0  0  0  0  0
    6.3635   -0.5374   -0.2748 C   0  0  0  0  0  0  0  0  0  0  0  0
    7.4898   -0.3341    0.5000 C   0  0  0  0  0  0  0  0  0  0  0  0
    8.5465   -0.0223   -0.3884 C   0  0  0  0  0  0  0  0  0  0  0  0
    8.0055   -0.0530   -1.6516 C   0  0  0  0  0  0  0  0  0  0  0  0
    6.6843   -0.3630   -1.5982 O   0  0  0  0  0  0  0  0  0  0  0  0
   -2.9992    1.4556    4.1349 H   0  0  0  0  0  0  0  0  0  0  0  0
   -4.1873    2.1950    3.0003 H   0  0  0  0  0  0  0  0  0  0  0  0
   -4.5938    0.7140    3.8903 H   0  0  0  0  0  0  0  0  0  0  0  0
   -1.9715   -0.9543    0.7905 H   0  0  0  0  0  0  0  0  0  0  0  0
   -2.4532    1.5182   -1.0062 H   0  0  0  0  0  0  0  0  0  0  0  0
   -2.0621   -0.0516   -1.6583 H   0  0  0  0  0  0  0  0  0  0  0  0
   -3.6009   -2.0667   -1.0648 H   0  0  0  0  0  0  0  0  0  0  0  0
   -5.9817   -2.7197   -1.0249 H   0  0  0  0  0  0  0  0  0  0  0  0
   -7.7452   -0.9984   -0.7405 H   0  0  0  0  0  0  0  0  0  0  0  0
   -7.1194    1.3890   -0.4964 H   0  0  0  0  0  0  0  0  0  0  0  0
   -4.7467    2.0630   -0.5307 H   0  0  0  0  0  0  0  0  0  0  0  0
    0.0373    1.1502    0.6946 H   0  0  0  0  0  0  0  0  0  0  0  0
    2.2208    0.0470    0.6856 H   0  0  0  0  0  0  0  0  0  0  0  0
    1.9812    0.6215   -0.9729 H   0  0  0  0  0  0  0  0  0  0  0  0
    2.7083   -2.2538   -0.1698 H   0  0  0  0  0  0  0  0  0  0  0  0
    2.4198   -1.7151   -1.8319 H   0  0  0  0  0  0  0  0  0  0  0  0
    4.5479   -0.8714   -1.9072 H   0  0  0  0  0  0  0  0  0  0  0  0
    7.5285   -0.4069    1.5787 H   0  0  0  0  0  0  0  0  0  0  0  0
    9.5754    0.1969   -0.1390 H   0  0  0  0  0  0  0  0  0  0  0  0
    8.4073    0.1140   -2.6416 H   0  0  0  0  0  0  0  0  0  0  0  0
  1  2  1  0
  2  3  1  0
  3  4  2  0
  3  5  1  0
  5  6  1  0
  6  7  1  0
  7  8  2  0
  8  9  1  0
  9 10  2  0
 10 11  1  0
 11 12  2  0
  5 13  1  0
 13 14  1  0
 14 15  2  0
 14 16  1  0
 16 17  1  0
 17 18  1  0
 18 19  1  0
 19 20  2  0
 19 21  1  0
 21 22  2  0
 22 23  1  0
 23 24  2  0
 24 25  1  0
 12  7  1  0
 25 21  1  0
  1 26  1  0
  1 27  1  0
  1 28  1  0
  5 29  1  0
  6 30  1  0
  6 31  1  0
  8 32  1  0
  9 33  1  0
 10 34  1  0
 11 35  1  0
 12 36  1  0
 13 37  1  0
 16 38  1  0
 16 39  1  0
 17 40  1  0
 17 41  1  0
 18 42  1  0
 22 43  1  0
 23 44  1  0
 24 45  1  0
M  END
$$$$
