
     RDKit          3D

 41 41  0  0  0  0  0  0  0  0999 V2000
    4.9051   -0.9438    1.3020 C   0  0  0  0  0  0  0  0  0  0  0  0
    3.8058   -1.1162    2.3388 C   0  0  0  0  0  0  0  0  0  0  0  0
    2.4430   -1.4590    1.7332 C   0  0  0  0  0  0  0  0  0  0  0  0
    1.8611   -0.3339    0.8724 C   0  0  0  0  0  0  0  0  0  0  0  0
    0.4502   -0.6861    0.3862 C   0  0  0  0  0  0  0  0  0  0  0  0
   -0.1384    0.3498   -0.5956 C   0  0  0  0  0  0  0  0  0  0  0  0
   -0.3703    1.7175    0.0612 C   0  0  0  0  0  0  0  0  0  0  0  0
   -0.9914    2.7161   -0.9044 C   0  0  0  0  0  0  0  0  0  0  0  0
   -0.8745    4.0099   -0.7937 N   0  0  0  0  0  0  0  0  0  0  0  0
   -0.1132    4.3711    0.3223 O   0  0  0  0  0  0  0  0  0  0  0  0
   -1.8201    2.1973   -2.0246 C   0  0  0  0  0  0  0  0  0  0  0  0
   -2.0390    0.8820   -2.1875 C   0  0  0  0  0  0  0  0  0  0  0  0
   -2.9205    0.3725   -3.2936 C   0  0  0  0  0  0  0  0  0  0  0  0
   -1.4234   -0.1701   -1.2825 C   0  0  0  0  0  0  0  0  0  0  0  0
   -2.4725   -0.6470   -0.2721 C   0  0  0  0  0  0  0  0  0  0  0  0
   -3.2286    0.0773    0.3613 O   0  0  0  0  0  0  0  0  0  0  0  0
   -2.4247   -2.0070   -0.1601 O   0  0  0  0  0  0  0  0  0  0  0  0
   -3.3556   -2.5440    0.7805 C   0  0  0  0  0  0  0  0  0  0  0  0
    4.7251   -0.0713    0.6674 H   0  0  0  0  0  0  0  0  0  0  0  0
    4.9842   -1.8282    0.6620 H   0  0  0  0  0  0  0  0  0  0  0  0
    5.8698   -0.7980    1.7987 H   0  0  0  0  0  0  0  0  0  0  0  0
    4.0950   -1.9240    3.0216 H   0  0  0  0  0  0  0  0  0  0  0  0
    3.7275   -0.2044    2.9423 H   0  0  0  0  0  0  0  0  0  0  0  0
    2.5265   -2.3761    1.1373 H   0  0  0  0  0  0  0  0  0  0  0  0
    1.7487   -1.6777    2.5541 H   0  0  0  0  0  0  0  0  0  0  0  0
    2.5059   -0.1546    0.0051 H   0  0  0  0  0  0  0  0  0  0  0  0
    1.8368    0.5890    1.4618 H   0  0  0  0  0  0  0  0  0  0  0  0
    0.4878   -1.6630   -0.1125 H   0  0  0  0  0  0  0  0  0  0  0  0
   -0.2076   -0.7965    1.2571 H   0  0  0  0  0  0  0  0  0  0  0  0
    0.6040    0.4972   -1.3951 H   0  0  0  0  0  0  0  0  0  0  0  0
   -1.0250    1.6375    0.9363 H   0  0  0  0  0  0  0  0  0  0  0  0
    0.5917    2.1135    0.4012 H   0  0  0  0  0  0  0  0  0  0  0  0
   -0.1464    5.3451    0.2896 H   0  0  0  0  0  0  0  0  0  0  0  0
   -2.2626    2.9469   -2.6724 H   0  0  0  0  0  0  0  0  0  0  0  0
   -3.3291    1.1861   -3.9023 H   0  0  0  0  0  0  0  0  0  0  0  0
   -3.7646   -0.1905   -2.8827 H   0  0  0  0  0  0  0  0  0  0  0  0
   -2.3527   -0.2866   -3.9582 H   0  0  0  0  0  0  0  0  0  0  0  0
   -1.1417   -1.0260   -1.9119 H   0  0  0  0  0  0  0  0  0  0  0  0
   -3.1470   -2.1636    1.7853 H   0  0  0  0  0  0  0  0  0  0  0  0
   -4.3819   -2.3099    0.4809 H   0  0  0  0  0  0  0  0  0  0  0  0
   -3.2375   -3.6310    0.7907 H   0  0  0  0  0  0  0  0  0  0  0  0
  1  2  1  0
  2  3  1  0
  3  4  1  0
  4  5  1  0
  5  6  1  0
  6  7  1  0
  7  8  1  0
  8  9  2  3
  9 10  1  0
  8 11  1  0
 11 12  2  0
 12 13  1  0
 12 14  1  0
 14 15  1  0
 15 16  2  0
 15 17  1  0
 17 18  1  0
 14  6  1  0
  1 19  1  0
  1 20  1  0
  1 21  1  0
  2 22  1  0
  2 23  1  0
  3 24  1  0
  3 25  1  0
  4 26  1  0
  4 27  1  0
  5 28  1  0
  5 29  1  0
  6 30  1  0
  7 31  1  0
  7 32  1  0
 10 33  1  0
 11 34  1  0
 13 35  1  0
 13 36  1  0
 13 37  1  0
 14 38  1  0
 18 39  1  0
 18 40  1  0
 18 41  1  0
M  END
$$$$
