
     RDKit          3D

 53 57  0  0  0  0  0  0  0  0999 V2000
    1.8784   -2.5006   -0.3097 C   0  0  0  0  0  0  0  0  0  0  0  0
    2.4619   -1.1623    0.0482 C   0  0  0  0  0  0  0  0  0  0  0  0
    3.1797   -0.4703   -0.9445 C   0  0  0  0  0  0  0  0  0  0  0  0
    3.7619    0.7723   -0.6846 C   0  0  0  0  0  0  0  0  0  0  0  0
    3.6511    1.3437    0.5783 C   0  0  0  0  0  0  0  0  0  0  0  0
    2.9587    0.6716    1.5833 C   0  0  0  0  0  0  0  0  0  0  0  0
    2.3588   -0.5730    1.3240 C   0  0  0  0  0  0  0  0  0  0  0  0
    1.5013   -1.3625    2.6871 S   0  0  0  0  0  6  0  0  0  0  0  0
    1.6711   -2.7952    2.5479 O   0  0  0  0  0  0  0  0  0  0  0  0
    1.9102   -0.7092    3.9132 O   0  0  0  0  0  0  0  0  0  0  0  0
   -0.1245   -1.0478    2.3832 N   0  0  0  0  0  0  0  0  0  0  0  0
   -0.4523    0.3017    2.0751 C   0  0  0  0  0  0  0  0  0  0  0  0
   -0.2218    1.2150    3.0289 N   0  0  0  0  0  0  0  0  0  0  0  0
   -0.4736    2.4898    2.6899 C   0  0  0  0  0  0  0  0  0  0  0  0
   -0.2496    3.4945    3.6217 C   0  0  0  0  0  0  0  0  0  0  0  0
   -0.4872    4.8345    3.3162 C   0  0  0  0  0  0  0  0  0  0  0  0
   -0.9562    5.1766    2.0546 C   0  0  0  0  0  0  0  0  0  0  0  0
   -1.1851    4.1759    1.1083 C   0  0  0  0  0  0  0  0  0  0  0  0
   -0.9549    2.8376    1.4005 C   0  0  0  0  0  0  0  0  0  0  0  0
   -1.1930    1.9040    0.4566 N   0  0  0  0  0  0  0  0  0  0  0  0
   -0.9496    0.6200    0.7916 C   0  0  0  0  0  0  0  0  0  0  0  0
   -1.1759   -0.4327   -0.1373 N   0  0  0  0  0  0  0  0  0  0  0  0
   -2.5606   -0.9269   -0.0131 C   0  0  0  0  0  0  0  0  0  0  0  0
   -2.6859   -2.2381   -0.7994 C   0  0  0  0  0  0  0  0  0  0  0  0
   -2.0577   -2.1611   -2.1708 C   0  0  0  0  0  0  0  0  0  0  0  0
   -2.3155   -3.1685   -3.1104 C   0  0  0  0  0  0  0  0  0  0  0  0
   -1.7114   -3.1327   -4.3668 C   0  0  0  0  0  0  0  0  0  0  0  0
   -0.8399   -2.0964   -4.6920 C   0  0  0  0  0  0  0  0  0  0  0  0
   -0.5681   -1.0935   -3.7615 C   0  0  0  0  0  0  0  0  0  0  0  0
   -1.1627   -1.1203   -2.4914 C   0  0  0  0  0  0  0  0  0  0  0  0
   -0.8921    0.0091   -1.5154 C   0  0  0  0  0  0  0  0  0  0  0  0
    1.8467   -2.6389   -1.3958 H   0  0  0  0  0  0  0  0  0  0  0  0
    2.4897   -3.3070    0.1112 H   0  0  0  0  0  0  0  0  0  0  0  0
    0.8466   -2.5941    0.0383 H   0  0  0  0  0  0  0  0  0  0  0  0
    3.2926   -0.8999   -1.9377 H   0  0  0  0  0  0  0  0  0  0  0  0
    4.3104    1.2896   -1.4685 H   0  0  0  0  0  0  0  0  0  0  0  0
    4.1097    2.3077    0.7841 H   0  0  0  0  0  0  0  0  0  0  0  0
    2.8840    1.1271    2.5696 H   0  0  0  0  0  0  0  0  0  0  0  0
   -0.4598   -1.6839    1.6592 H   0  0  0  0  0  0  0  0  0  0  0  0
    0.1211    3.2240    4.6082 H   0  0  0  0  0  0  0  0  0  0  0  0
   -0.3048    5.6039    4.0636 H   0  0  0  0  0  0  0  0  0  0  0  0
   -1.1451    6.2174    1.8037 H   0  0  0  0  0  0  0  0  0  0  0  0
   -1.5510    4.4457    0.1201 H   0  0  0  0  0  0  0  0  0  0  0  0
   -3.2721   -0.1839   -0.3999 H   0  0  0  0  0  0  0  0  0  0  0  0
   -2.8274   -1.1235    1.0331 H   0  0  0  0  0  0  0  0  0  0  0  0
   -2.1800   -3.0388   -0.2442 H   0  0  0  0  0  0  0  0  0  0  0  0
   -3.7454   -2.5048   -0.8835 H   0  0  0  0  0  0  0  0  0  0  0  0
   -2.9876   -3.9873   -2.8680 H   0  0  0  0  0  0  0  0  0  0  0  0
   -1.9198   -3.9157   -5.0921 H   0  0  0  0  0  0  0  0  0  0  0  0
   -0.3736   -2.0685   -5.6736 H   0  0  0  0  0  0  0  0  0  0  0  0
    0.1103   -0.2880   -4.0327 H   0  0  0  0  0  0  0  0  0  0  0  0
   -1.5210    0.8587   -1.8139 H   0  0  0  0  0  0  0  0  0  0  0  0
    0.1607    0.3046   -1.5930 H   0  0  0  0  0  0  0  0  0  0  0  0
  1  2  1  0
  2  3  2  0
  3  4  1  0
  4  5  2  0
  5  6  1  0
  6  7  2  0
  7  8  1  0
  8  9  2  0
  8 10  2  0
  8 11  1  0
 11 12  1  0
 12 13  2  0
 13 14  1  0
 14 15  2  0
 15 16  1  0
 16 17  2  0
 17 18  1  0
 18 19  2  0
 19 20  1  0
 20 21  2  0
 21 22  1  0
 22 23  1  0
 23 24  1  0
 24 25  1  0
 25 26  2  0
 26 27  1  0
 27 28  2  0
 28 29  1  0
 29 30  2  0
 30 31  1  0
  7  2  1  0
 21 12  1  0
 31 22  1  0
 19 14  1  0
 30 25  1  0
  1 32  1  0
  1 33  1  0
  1 34  1  0
  3 35  1  0
  4 36  1  0
  5 37  1  0
  6 38  1  0
 11 39  1  0
 15 40  1  0
 16 41  1  0
 17 42  1  0
 18 43  1  0
 23 44  1  0
 23 45  1  0
 24 46  1  0
 24 47  1  0
 26 48  1  0
 27 49  1  0
 28 50  1  0
 29 51  1  0
 31 52  1  0
 31 53  1  0
M  END
$$$$
