
     RDKit          3D

 41 44  0  0  0  0  0  0  0  0999 V2000
    2.4592   -3.5474    1.8319 N   0  0  0  0  0  0  0  0  0  0  0  0
    2.5093   -2.6579    1.0860 C   0  0  0  0  0  0  0  0  0  0  0  0
    2.5682   -1.5729    0.1557 C   0  0  0  0  0  0  0  0  0  0  0  0
    1.7227   -0.5231    0.2197 C   0  0  0  0  0  0  0  0  0  0  0  0
    0.7017   -0.3291    1.1941 C   0  0  0  0  0  0  0  0  0  0  0  0
    0.6553   -0.5972    2.5567 C   0  0  0  0  0  0  0  0  0  0  0  0
   -0.6074   -0.1798    3.0437 C   0  0  0  0  0  0  0  0  0  0  0  0
   -1.2891    0.3391    1.9659 C   0  0  0  0  0  0  0  0  0  0  0  0
   -2.6146    0.9233    1.7766 C   0  0  0  0  0  0  0  0  0  0  0  0
   -3.0796    1.2764    0.4986 C   0  0  0  0  0  0  0  0  0  0  0  0
   -4.3531    1.8228    0.3188 C   0  0  0  0  0  0  0  0  0  0  0  0
   -5.1782    2.0151    1.4255 C   0  0  0  0  0  0  0  0  0  0  0  0
   -6.7914    2.7103    1.1962 S   0  0  0  0  0  6  0  0  0  0  0  0
   -7.6996    1.3391    0.8407 N   0  0  0  0  0  0  0  0  0  0  0  0
   -6.7662    3.5452    0.0212 O   0  0  0  0  0  0  0  0  0  0  0  0
   -7.2789    3.1777    2.4744 O   0  0  0  0  0  0  0  0  0  0  0  0
   -4.7345    1.6887    2.7072 C   0  0  0  0  0  0  0  0  0  0  0  0
   -3.4592    1.1412    2.8763 C   0  0  0  0  0  0  0  0  0  0  0  0
   -0.4959    0.2634    0.8591 O   0  0  0  0  0  0  0  0  0  0  0  0
    3.5372   -1.5716   -0.9127 C   0  0  0  0  0  0  0  0  0  0  0  0
    3.8405   -0.5349   -1.6785 N   0  0  0  0  0  0  0  0  0  0  0  0
    4.8152   -0.8571   -2.6064 C   0  0  0  0  0  0  0  0  0  0  0  0
    5.3713    0.0213   -3.5586 C   0  0  0  0  0  0  0  0  0  0  0  0
    6.3548   -0.4426   -4.4372 C   0  0  0  0  0  0  0  0  0  0  0  0
    6.7892   -1.7635   -4.3776 C   0  0  0  0  0  0  0  0  0  0  0  0
    6.2533   -2.6522   -3.4407 C   0  0  0  0  0  0  0  0  0  0  0  0
    5.2667   -2.1731   -2.5625 C   0  0  0  0  0  0  0  0  0  0  0  0
    4.4394   -3.0063   -1.3096 S   0  0  0  0  0  0  0  0  0  0  0  0
    1.7601    0.2465   -0.5506 H   0  0  0  0  0  0  0  0  0  0  0  0
    1.4458   -1.0376    3.1501 H   0  0  0  0  0  0  0  0  0  0  0  0
   -0.9661   -0.2528    4.0609 H   0  0  0  0  0  0  0  0  0  0  0  0
   -2.4476    1.1307   -0.3746 H   0  0  0  0  0  0  0  0  0  0  0  0
   -4.6864    2.0971   -0.6801 H   0  0  0  0  0  0  0  0  0  0  0  0
   -7.1335    0.5065    0.6858 H   0  0  0  0  0  0  0  0  0  0  0  0
   -8.3914    1.2023    1.5788 H   0  0  0  0  0  0  0  0  0  0  0  0
   -5.3645    1.8583    3.5766 H   0  0  0  0  0  0  0  0  0  0  0  0
   -3.1311    0.8938    3.8834 H   0  0  0  0  0  0  0  0  0  0  0  0
    5.0331    1.0545   -3.5988 H   0  0  0  0  0  0  0  0  0  0  0  0
    6.7864    0.2394   -5.1687 H   0  0  0  0  0  0  0  0  0  0  0  0
    7.5598   -2.1136   -5.0643 H   0  0  0  0  0  0  0  0  0  0  0  0
    6.5993   -3.6802   -3.3888 H   0  0  0  0  0  0  0  0  0  0  0  0
  1  2  3  0
  2  3  1  0
  3  4  2  3
  4  5  1  0
  5  6  2  0
  6  7  1  0
  7  8  2  0
  8  9  1  0
  9 10  2  0
 10 11  1  0
 11 12  2  0
 12 13  1  0
 13 14  1  0
 13 15  2  0
 13 16  2  0
 12 17  1  0
 17 18  2  0
  8 19  1  0
  3 20  1  0
 20 21  2  0
 21 22  1  0
 22 23  2  0
 23 24  1  0
 24 25  2  0
 25 26  1  0
 26 27  2  0
 27 28  1  0
 19  5  1  0
 28 20  1  0
 18  9  1  0
 27 22  1  0
  4 29  1  0
  6 30  1  0
  7 31  1  0
 10 32  1  0
 11 33  1  0
 14 34  1  0
 14 35  1  0
 17 36  1  0
 18 37  1  0
 23 38  1  0
 24 39  1  0
 25 40  1  0
 26 41  1  0
M  END
$$$$
