
     RDKit          3D

 81 84  0  0  0  0  0  0  0  0999 V2000
   -6.4518   -0.7120    3.2688 O   0  0  0  0  0  0  0  0  0  0  0  0
   -6.3026   -0.0032    2.2825 C   0  0  0  0  0  0  0  0  0  0  0  0
   -7.3415    0.3159    1.4279 N   0  0  0  0  0  0  0  0  0  0  0  0
   -8.6408   -0.2968    1.6113 C   0  0  0  0  0  0  0  0  0  0  0  0
   -9.5850    0.0067    0.4433 C   0  0  0  0  0  0  0  0  0  0  0  0
   -9.1044   -0.6047   -0.8861 C   0  0  0  0  0  0  0  0  0  0  0  0
   -7.8546    0.0195   -1.3630 N   0  0  0  0  0  0  0  0  0  0  0  0
   -7.0871   -0.8931   -2.2462 C   0  0  0  0  0  0  0  0  0  0  0  0
   -7.6912   -1.0688   -3.6486 C   0  0  0  0  0  0  0  0  0  0  0  0
   -7.8369    0.1962   -4.3060 O   0  0  0  0  0  0  0  0  0  0  0  0
   -8.6620    1.0793   -3.5360 C   0  0  0  0  0  0  0  0  0  0  0  0
   -8.1072    1.2803   -2.1101 C   0  0  0  0  0  0  0  0  0  0  0  0
   -5.1387    0.5909    1.8510 N   0  0  0  0  0  0  0  0  0  0  0  0
   -3.8394    0.4207    2.3599 C   0  0  0  0  0  0  0  0  0  0  0  0
   -3.4987   -0.5237    3.3271 C   0  0  0  0  0  0  0  0  0  0  0  0
   -2.1729   -0.6485    3.7604 C   0  0  0  0  0  0  0  0  0  0  0  0
   -1.1590    0.1612    3.2285 C   0  0  0  0  0  0  0  0  0  0  0  0
    0.2520    0.0380    3.7614 C   0  0  0  0  0  0  0  0  0  0  0  0
    1.3576    0.2000    2.7426 C   0  0  0  0  0  0  0  0  0  0  0  0
    2.0835    1.3952    2.6683 C   0  0  0  0  0  0  0  0  0  0  0  0
    3.1126    1.5492    1.7342 C   0  0  0  0  0  0  0  0  0  0  0  0
    3.4346    0.5151    0.8545 C   0  0  0  0  0  0  0  0  0  0  0  0
    4.4822    0.5895   -0.0836 N   0  0  0  0  0  0  0  0  0  0  0  0
    5.2379    1.6933   -0.4110 C   0  0  0  0  0  0  0  0  0  0  0  0
    5.0543    2.8488   -0.0486 O   0  0  0  0  0  0  0  0  0  0  0  0
    6.2834    1.3316   -1.2431 N   0  0  0  0  0  0  0  0  0  0  0  0
    7.2925    2.3178   -1.5696 C   0  0  0  0  0  0  0  0  0  0  0  0
    8.4181    1.7341   -2.4208 C   0  0  0  0  0  0  0  0  0  0  0  0
    9.2438    0.6651   -1.6825 C   0  0  0  0  0  0  0  0  0  0  0  0
    8.4715   -0.5506   -1.3670 N   0  0  0  0  0  0  0  0  0  0  0  0
    8.2627   -1.4154   -2.5540 C   0  0  0  0  0  0  0  0  0  0  0  0
    9.1636   -2.6609   -2.5830 C   0  0  0  0  0  0  0  0  0  0  0  0
    8.9798   -3.5036   -1.4408 O   0  0  0  0  0  0  0  0  0  0  0  0
    8.6588   -2.7754   -0.2478 C   0  0  0  0  0  0  0  0  0  0  0  0
    9.1368   -1.3151   -0.2861 C   0  0  0  0  0  0  0  0  0  0  0  0
    2.7081   -0.6798    0.9249 C   0  0  0  0  0  0  0  0  0  0  0  0
    1.6750   -0.8349    1.8559 C   0  0  0  0  0  0  0  0  0  0  0  0
   -1.5123    1.1279    2.2774 C   0  0  0  0  0  0  0  0  0  0  0  0
   -2.8365    1.2460    1.8403 C   0  0  0  0  0  0  0  0  0  0  0  0
   -7.0618    0.3719    0.4494 H   0  0  0  0  0  0  0  0  0  0  0  0
   -8.5071   -1.3789    1.7237 H   0  0  0  0  0  0  0  0  0  0  0  0
   -9.0586    0.0854    2.5490 H   0  0  0  0  0  0  0  0  0  0  0  0
   -9.7163    1.0901    0.3429 H   0  0  0  0  0  0  0  0  0  0  0  0
  -10.5724   -0.4122    0.6796 H   0  0  0  0  0  0  0  0  0  0  0  0
   -8.9406   -1.6758   -0.7071 H   0  0  0  0  0  0  0  0  0  0  0  0
   -9.9055   -0.5436   -1.6315 H   0  0  0  0  0  0  0  0  0  0  0  0
   -6.0813   -0.4641   -2.3532 H   0  0  0  0  0  0  0  0  0  0  0  0
   -6.9500   -1.8683   -1.7635 H   0  0  0  0  0  0  0  0  0  0  0  0
   -7.0245   -1.6870   -4.2637 H   0  0  0  0  0  0  0  0  0  0  0  0
   -8.6648   -1.5682   -3.6119 H   0  0  0  0  0  0  0  0  0  0  0  0
   -9.6857    0.6886   -3.5245 H   0  0  0  0  0  0  0  0  0  0  0  0
   -8.6910    2.0413   -4.0589 H   0  0  0  0  0  0  0  0  0  0  0  0
   -7.1475    1.8038   -2.1836 H   0  0  0  0  0  0  0  0  0  0  0  0
   -8.7667    1.9455   -1.5431 H   0  0  0  0  0  0  0  0  0  0  0  0
   -5.2660    1.2996    1.1440 H   0  0  0  0  0  0  0  0  0  0  0  0
   -4.2422   -1.1875    3.7587 H   0  0  0  0  0  0  0  0  0  0  0  0
   -1.9425   -1.3971    4.5175 H   0  0  0  0  0  0  0  0  0  0  0  0
    0.3774    0.7751    4.5655 H   0  0  0  0  0  0  0  0  0  0  0  0
    0.3839   -0.9424    4.2380 H   0  0  0  0  0  0  0  0  0  0  0  0
    1.8550    2.2194    3.3408 H   0  0  0  0  0  0  0  0  0  0  0  0
    3.6532    2.4915    1.7275 H   0  0  0  0  0  0  0  0  0  0  0  0
    4.6343   -0.2181   -0.6712 H   0  0  0  0  0  0  0  0  0  0  0  0
    6.6743    0.4134   -1.0415 H   0  0  0  0  0  0  0  0  0  0  0  0
    7.6918    2.7294   -0.6352 H   0  0  0  0  0  0  0  0  0  0  0  0
    6.7995    3.1367   -2.1053 H   0  0  0  0  0  0  0  0  0  0  0  0
    9.0955    2.5503   -2.6972 H   0  0  0  0  0  0  0  0  0  0  0  0
    8.0111    1.3353   -3.3558 H   0  0  0  0  0  0  0  0  0  0  0  0
   10.1337    0.4120   -2.2729 H   0  0  0  0  0  0  0  0  0  0  0  0
    9.6069    1.1218   -0.7520 H   0  0  0  0  0  0  0  0  0  0  0  0
    7.2207   -1.7538   -2.5129 H   0  0  0  0  0  0  0  0  0  0  0  0
    8.3750   -0.8645   -3.4938 H   0  0  0  0  0  0  0  0  0  0  0  0
   10.2197   -2.3755   -2.6359 H   0  0  0  0  0  0  0  0  0  0  0  0
    8.9446   -3.2619   -3.4719 H   0  0  0  0  0  0  0  0  0  0  0  0
    7.5745   -2.8246   -0.0996 H   0  0  0  0  0  0  0  0  0  0  0  0
    9.1219   -3.3033    0.5915 H   0  0  0  0  0  0  0  0  0  0  0  0
   10.2258   -1.3101   -0.4298 H   0  0  0  0  0  0  0  0  0  0  0  0
    8.9211   -0.8349    0.6752 H   0  0  0  0  0  0  0  0  0  0  0  0
    2.9335   -1.5061    0.2571 H   0  0  0  0  0  0  0  0  0  0  0  0
    1.1190   -1.7699    1.8830 H   0  0  0  0  0  0  0  0  0  0  0  0
   -0.7634    1.7988    1.8615 H   0  0  0  0  0  0  0  0  0  0  0  0
   -3.0709    2.0020    1.0963 H   0  0  0  0  0  0  0  0  0  0  0  0
  1  2  2  0
  2  3  1  0
  3  4  1  0
  4  5  1  0
  5  6  1  0
  6  7  1  0
  7  8  1  0
  8  9  1  0
  9 10  1  0
 10 11  1  0
 11 12  1  0
  2 13  1  0
 13 14  1  0
 14 15  2  0
 15 16  1  0
 16 17  2  0
 17 18  1  0
 18 19  1  0
 19 20  2  0
 20 21  1  0
 21 22  2  0
 22 23  1  0
 23 24  1  0
 24 25  2  0
 24 26  1  0
 26 27  1  0
 27 28  1  0
 28 29  1  0
 29 30  1  0
 30 31  1  0
 31 32  1  0
 32 33  1  0
 33 34  1  0
 34 35  1  0
 22 36  1  0
 36 37  2  0
 17 38  1  0
 38 39  2  0
 12  7  1  0
 39 14  1  0
 37 19  1  0
 35 30  1  0
  3 40  1  0
  4 41  1  0
  4 42  1  0
  5 43  1  0
  5 44  1  0
  6 45  1  0
  6 46  1  0
  8 47  1  0
  8 48  1  0
  9 49  1  0
  9 50  1  0
 11 51  1  0
 11 52  1  0
 12 53  1  0
 12 54  1  0
 13 55  1  0
 15 56  1  0
 16 57  1  0
 18 58  1  0
 18 59  1  0
 20 60  1  0
 21 61  1  0
 23 62  1  0
 26 63  1  0
 27 64  1  0
 27 65  1  0
 28 66  1  0
 28 67  1  0
 29 68  1  0
 29 69  1  0
 31 70  1  0
 31 71  1  0
 32 72  1  0
 32 73  1  0
 34 74  1  0
 34 75  1  0
 35 76  1  0
 35 77  1  0
 36 78  1  0
 37 79  1  0
 38 80  1  0
 39 81  1  0
M  END
$$$$
