
     RDKit          3D

 43 46  0  0  0  0  0  0  0  0999 V2000
   -1.0311   -0.5120   -3.1630 O   0  0  0  0  0  0  0  0  0  0  0  0
   -0.8867   -0.2907   -1.6764 P   0  0  0  0  0  5  0  0  0  0  0  0
   -1.3679   -1.4783   -0.6001 N   0  0  0  0  0  0  0  0  0  0  0  0
   -2.6155   -1.3622    0.0842 C   0  0  0  0  0  0  0  0  0  0  0  0
   -2.6373   -1.2961    1.4963 C   0  0  0  0  0  0  0  0  0  0  0  0
   -1.1742   -1.4071    2.4184 Cl  0  0  0  0  0  0  0  0  0  0  0  0
   -3.8284   -1.1072    2.2052 C   0  0  0  0  0  0  0  0  0  0  0  0
   -5.0324   -0.9849    1.5194 C   0  0  0  0  0  0  0  0  0  0  0  0
   -5.0429   -1.0592    0.1279 C   0  0  0  0  0  0  0  0  0  0  0  0
   -3.8508   -1.2470   -0.5855 C   0  0  0  0  0  0  0  0  0  0  0  0
   -3.9915   -1.3773   -2.3040 Cl  0  0  0  0  0  0  0  0  0  0  0  0
   -1.2288    1.3698   -1.1018 C   0  0  0  0  0  0  0  0  0  0  0  0
   -2.0507    2.2060   -1.8760 C   0  0  0  0  0  0  0  0  0  0  0  0
   -2.3805    3.4882   -1.4328 C   0  0  0  0  0  0  0  0  0  0  0  0
   -1.8891    3.9543   -0.2147 C   0  0  0  0  0  0  0  0  0  0  0  0
   -1.0631    3.1407    0.5604 C   0  0  0  0  0  0  0  0  0  0  0  0
   -0.7394    1.8539    0.1251 C   0  0  0  0  0  0  0  0  0  0  0  0
    0.8283   -0.5267   -1.1914 C   0  0  0  0  0  0  0  0  0  0  0  0
    1.1781   -1.1020   -0.0466 N   0  0  0  0  0  0  0  0  0  0  0  0
    2.5519   -1.0591    0.0763 C   0  0  0  0  0  0  0  0  0  0  0  0
    3.2222   -0.4450   -0.9628 C   0  0  0  0  0  0  0  0  0  0  0  0
    2.1263    0.0676   -2.1595 S   0  0  0  0  0  0  0  0  0  0  0  0
    4.6983   -0.2519   -1.0353 C   0  0  0  0  0  0  0  0  0  0  0  0
    5.3101   -0.4127    0.3682 C   0  0  0  0  0  0  0  0  0  0  0  0
    4.7616   -1.6514    1.0978 C   0  0  0  0  0  0  0  0  0  0  0  0
    3.2372   -1.5808    1.2942 C   0  0  0  0  0  0  0  0  0  0  0  0
   -0.6304   -1.6854    0.0859 H   0  0  0  0  0  0  0  0  0  0  0  0
   -3.8170   -1.0474    3.2910 H   0  0  0  0  0  0  0  0  0  0  0  0
   -5.9587   -0.8305    2.0669 H   0  0  0  0  0  0  0  0  0  0  0  0
   -5.9898   -0.9687   -0.4010 H   0  0  0  0  0  0  0  0  0  0  0  0
   -2.4459    1.8460   -2.8260 H   0  0  0  0  0  0  0  0  0  0  0  0
   -3.0313    4.1203   -2.0324 H   0  0  0  0  0  0  0  0  0  0  0  0
   -2.1499    4.9521    0.1307 H   0  0  0  0  0  0  0  0  0  0  0  0
   -0.6811    3.5016    1.5132 H   0  0  0  0  0  0  0  0  0  0  0  0
   -0.1064    1.2300    0.7568 H   0  0  0  0  0  0  0  0  0  0  0  0
    5.1331   -1.0030   -1.7050 H   0  0  0  0  0  0  0  0  0  0  0  0
    4.9523    0.7381   -1.4332 H   0  0  0  0  0  0  0  0  0  0  0  0
    5.0955    0.4802    0.9675 H   0  0  0  0  0  0  0  0  0  0  0  0
    6.3985   -0.4798    0.2873 H   0  0  0  0  0  0  0  0  0  0  0  0
    5.0172   -2.5442    0.5147 H   0  0  0  0  0  0  0  0  0  0  0  0
    5.2478   -1.7591    2.0734 H   0  0  0  0  0  0  0  0  0  0  0  0
    2.8493   -2.5715    1.5549 H   0  0  0  0  0  0  0  0  0  0  0  0
    3.0130   -0.9078    2.1314 H   0  0  0  0  0  0  0  0  0  0  0  0
  1  2  2  0
  2  3  1  0
  3  4  1  0
  4  5  2  0
  5  6  1  0
  5  7  1  0
  7  8  2  0
  8  9  1  0
  9 10  2  0
 10 11  1  0
  2 12  1  0
 12 13  2  0
 13 14  1  0
 14 15  2  0
 15 16  1  0
 16 17  2  0
  2 18  1  0
 18 19  2  0
 19 20  1  0
 20 21  2  0
 21 22  1  0
 21 23  1  0
 23 24  1  0
 24 25  1  0
 25 26  1  0
 10  4  1  0
 17 12  1  0
 22 18  1  0
 26 20  1  0
  3 27  1  0
  7 28  1  0
  8 29  1  0
  9 30  1  0
 13 31  1  0
 14 32  1  0
 15 33  1  0
 16 34  1  0
 17 35  1  0
 23 36  1  0
 23 37  1  0
 24 38  1  0
 24 39  1  0
 25 40  1  0
 25 41  1  0
 26 42  1  0
 26 43  1  0
M  END
$$$$
