
     RDKit          3D

 40 42  0  0  0  0  0  0  0  0999 V2000
    3.1463    3.0300   -4.1352 N   0  0  0  0  0  0  0  0  0  0  0  0
    3.5721    2.2191   -3.4223 C   0  0  0  0  0  0  0  0  0  0  0  0
    4.0797    1.2153   -2.5449 C   0  0  0  0  0  0  0  0  0  0  0  0
    5.4700    0.9202   -2.6545 C   0  0  0  0  0  0  0  0  0  0  0  0
    6.6005    0.6700   -2.7344 N   0  0  0  0  0  0  0  0  0  0  0  0
    3.2878    0.5769   -1.6481 C   0  0  0  0  0  0  0  0  0  0  0  0
    1.8489    0.8209   -1.5298 C   0  0  0  0  0  0  0  0  0  0  0  0
    1.1376    0.4544   -0.4490 C   0  0  0  0  0  0  0  0  0  0  0  0
   -0.3139    0.5407   -0.4368 C   0  0  0  0  0  0  0  0  0  0  0  0
   -1.0974   -0.1794    0.3960 C   0  0  0  0  0  0  0  0  0  0  0  0
   -2.5015   -0.1101    0.3984 N   0  0  0  0  0  0  0  0  0  0  0  0
   -3.2888    0.5219   -0.6875 C   0  0  0  0  0  0  0  0  0  0  0  0
   -4.6947   -0.0926   -0.7774 C   0  0  0  0  0  0  0  0  0  0  0  0
   -5.4703    0.0554    0.4190 O   0  0  0  0  0  0  0  0  0  0  0  0
   -4.6641    0.1049    1.6033 C   0  0  0  0  0  0  0  0  0  0  0  0
   -3.3404   -0.6671    1.4857 C   0  0  0  0  0  0  0  0  0  0  0  0
   -0.4446   -1.1578    1.3755 C   0  0  0  0  0  0  0  0  0  0  0  0
    1.0469   -1.4301    1.1246 C   0  0  0  0  0  0  0  0  0  0  0  0
    1.7620   -0.1170    0.8059 C   0  0  0  0  0  0  0  0  0  0  0  0
    3.2886   -0.2637    0.7220 C   0  0  0  0  0  0  0  0  0  0  0  0
    3.7818   -0.5087   -0.7008 C   0  0  0  0  0  0  0  0  0  0  0  0
    1.3304    1.2619   -2.3804 H   0  0  0  0  0  0  0  0  0  0  0  0
   -0.7602    1.2116   -1.1642 H   0  0  0  0  0  0  0  0  0  0  0  0
   -3.3603    1.5970   -0.4859 H   0  0  0  0  0  0  0  0  0  0  0  0
   -2.7977    0.3783   -1.6562 H   0  0  0  0  0  0  0  0  0  0  0  0
   -4.6278   -1.1642   -0.9998 H   0  0  0  0  0  0  0  0  0  0  0  0
   -5.2573    0.3741   -1.5923 H   0  0  0  0  0  0  0  0  0  0  0  0
   -5.2639   -0.3002    2.4246 H   0  0  0  0  0  0  0  0  0  0  0  0
   -4.4706    1.1601    1.8300 H   0  0  0  0  0  0  0  0  0  0  0  0
   -3.5387   -1.7229    1.2678 H   0  0  0  0  0  0  0  0  0  0  0  0
   -2.8250   -0.6009    2.4493 H   0  0  0  0  0  0  0  0  0  0  0  0
   -0.5529   -0.7519    2.3895 H   0  0  0  0  0  0  0  0  0  0  0  0
   -0.9711   -2.1196    1.3497 H   0  0  0  0  0  0  0  0  0  0  0  0
    1.1605   -2.1425    0.2966 H   0  0  0  0  0  0  0  0  0  0  0  0
    1.4787   -1.9040    2.0141 H   0  0  0  0  0  0  0  0  0  0  0  0
    1.5652    0.5777    1.6363 H   0  0  0  0  0  0  0  0  0  0  0  0
    3.6405   -1.0629    1.3849 H   0  0  0  0  0  0  0  0  0  0  0  0
    3.7495    0.6631    1.0915 H   0  0  0  0  0  0  0  0  0  0  0  0
    3.4200   -1.4828   -1.0558 H   0  0  0  0  0  0  0  0  0  0  0  0
    4.8741   -0.5752   -0.6752 H   0  0  0  0  0  0  0  0  0  0  0  0
  1  2  3  0
  2  3  1  0
  3  4  1  0
  4  5  3  0
  3  6  2  3
  6  7  1  0
  7  8  2  0
  8  9  1  0
  9 10  2  0
 10 11  1  0
 11 12  1  0
 12 13  1  0
 13 14  1  0
 14 15  1  0
 15 16  1  0
 10 17  1  0
 17 18  1  0
 18 19  1  0
 19 20  1  0
 20 21  1  0
 21  6  1  0
 19  8  1  0
 16 11  1  0
  7 22  1  0
  9 23  1  0
 12 24  1  0
 12 25  1  0
 13 26  1  0
 13 27  1  0
 15 28  1  0
 15 29  1  0
 16 30  1  0
 16 31  1  0
 17 32  1  0
 17 33  1  0
 18 34  1  0
 18 35  1  0
 19 36  1  0
 20 37  1  0
 20 38  1  0
 21 39  1  0
 21 40  1  0
M  END
$$$$
