
     RDKit          3D

 35 37  0  0  0  0  0  0  0  0999 V2000
   -3.6601    2.2957    1.1028 C   0  0  0  0  0  0  0  0  0  0  0  0
   -3.1114    1.0797    0.4146 C   0  0  0  0  0  0  0  0  0  0  0  0
   -2.3526    1.2130   -0.7564 C   0  0  0  0  0  0  0  0  0  0  0  0
   -1.8205    0.0874   -1.3866 C   0  0  0  0  0  0  0  0  0  0  0  0
   -2.0283   -1.1762   -0.8281 C   0  0  0  0  0  0  0  0  0  0  0  0
   -1.3562   -2.6174   -1.6250 S   0  0  0  0  0  6  0  0  0  0  0  0
   -1.0487   -2.2754   -2.9968 O   0  0  0  0  0  0  0  0  0  0  0  0
   -2.2196   -3.7349   -1.3043 O   0  0  0  0  0  0  0  0  0  0  0  0
    0.0814   -2.8825   -0.7752 N   0  0  0  0  0  0  0  0  0  0  0  0
    1.0273   -1.8291   -0.6564 C   0  0  0  0  0  0  0  0  0  0  0  0
    1.2852   -1.2896    0.6042 C   0  0  0  0  0  0  0  0  0  0  0  0
    2.1824   -0.2247    0.7464 C   0  0  0  0  0  0  0  0  0  0  0  0
    2.8274    0.3023   -0.3815 C   0  0  0  0  0  0  0  0  0  0  0  0
    3.7348    1.3833   -0.2654 N   0  0  0  0  0  0  0  0  0  0  0  0
    4.1375    2.0711    0.8517 C   0  0  0  0  0  0  0  0  0  0  0  0
    4.9911    3.0065    0.5042 N   0  0  0  0  0  0  0  0  0  0  0  0
    5.1243    2.9002   -0.8544 N   0  0  0  0  0  0  0  0  0  0  0  0
    4.3689    1.9214   -1.3322 N   0  0  0  0  0  0  0  0  0  0  0  0
    2.5684   -0.2494   -1.6455 C   0  0  0  0  0  0  0  0  0  0  0  0
    1.6703   -1.3122   -1.7787 C   0  0  0  0  0  0  0  0  0  0  0  0
   -2.7852   -1.3256    0.3369 C   0  0  0  0  0  0  0  0  0  0  0  0
   -3.3160   -0.1952    0.9605 C   0  0  0  0  0  0  0  0  0  0  0  0
   -2.9299    2.6792    1.8219 H   0  0  0  0  0  0  0  0  0  0  0  0
   -3.8917    3.0835    0.3782 H   0  0  0  0  0  0  0  0  0  0  0  0
   -4.5888    2.0592    1.6326 H   0  0  0  0  0  0  0  0  0  0  0  0
   -2.1796    2.1963   -1.1899 H   0  0  0  0  0  0  0  0  0  0  0  0
   -1.2459    0.2045   -2.3030 H   0  0  0  0  0  0  0  0  0  0  0  0
   -0.0600   -3.4988    0.0230 H   0  0  0  0  0  0  0  0  0  0  0  0
    0.7827   -1.6800    1.4856 H   0  0  0  0  0  0  0  0  0  0  0  0
    2.3456    0.1663    1.7467 H   0  0  0  0  0  0  0  0  0  0  0  0
    3.7985    1.8660    1.8539 H   0  0  0  0  0  0  0  0  0  0  0  0
    3.0544    0.1320   -2.5430 H   0  0  0  0  0  0  0  0  0  0  0  0
    1.4860   -1.7324   -2.7655 H   0  0  0  0  0  0  0  0  0  0  0  0
   -2.9705   -2.3103    0.7596 H   0  0  0  0  0  0  0  0  0  0  0  0
   -3.9012   -0.3140    1.8704 H   0  0  0  0  0  0  0  0  0  0  0  0
  1  2  1  0
  2  3  2  0
  3  4  1  0
  4  5  2  0
  5  6  1  0
  6  7  2  0
  6  8  2  0
  6  9  1  0
  9 10  1  0
 10 11  2  0
 11 12  1  0
 12 13  2  0
 13 14  1  0
 14 15  1  0
 15 16  2  0
 16 17  1  0
 17 18  2  0
 13 19  1  0
 19 20  2  0
  5 21  1  0
 21 22  2  0
 22  2  1  0
 20 10  1  0
 18 14  1  0
  1 23  1  0
  1 24  1  0
  1 25  1  0
  3 26  1  0
  4 27  1  0
  9 28  1  0
 11 29  1  0
 12 30  1  0
 15 31  1  0
 19 32  1  0
 20 33  1  0
 21 34  1  0
 22 35  1  0
M  END
$$$$
