
     RDKit          3D

 39 41  0  0  0  0  0  0  0  0999 V2000
   -0.9138   -2.5668    0.2104 O   0  0  0  0  0  0  0  0  0  0  0  0
   -1.5600   -1.7129    0.8135 C   0  0  0  0  0  0  0  0  0  0  0  0
   -2.7488   -2.0623    1.7075 C   0  0  0  0  0  0  0  0  0  0  0  0
   -3.6799   -1.0039    1.8865 O   0  0  0  0  0  0  0  0  0  0  0  0
   -4.5355   -0.6905    0.8615 C   0  0  0  0  0  0  0  0  0  0  0  0
   -4.6190   -1.3824   -0.3513 C   0  0  0  0  0  0  0  0  0  0  0  0
   -5.5214   -0.9696   -1.3386 C   0  0  0  0  0  0  0  0  0  0  0  0
   -6.3450    0.1317   -1.1184 C   0  0  0  0  0  0  0  0  0  0  0  0
   -7.4512    0.6287   -2.3377 Cl  0  0  0  0  0  0  0  0  0  0  0  0
   -6.2769    0.8319    0.0805 C   0  0  0  0  0  0  0  0  0  0  0  0
   -5.3741    0.4213    1.0636 C   0  0  0  0  0  0  0  0  0  0  0  0
   -5.3057    1.3363    2.5309 Cl  0  0  0  0  0  0  0  0  0  0  0  0
   -1.2771   -0.3595    0.7665 N   0  0  0  0  0  0  0  0  0  0  0  0
   -0.0652    0.0237    0.1762 N   0  0  0  0  0  0  0  0  0  0  0  0
    1.0809    0.0319    0.9511 C   0  0  0  0  0  0  0  0  0  0  0  0
    1.1444   -0.1831    2.1544 O   0  0  0  0  0  0  0  0  0  0  0  0
    2.2426    0.3842    0.0894 C   0  0  0  0  0  0  0  0  0  0  0  0
    3.4888    0.4325    0.5790 C   0  0  0  0  0  0  0  0  0  0  0  0
    4.6976    0.7540   -0.1846 C   0  0  0  0  0  0  0  0  0  0  0  0
    5.6572   -0.2419   -0.4025 C   0  0  0  0  0  0  0  0  0  0  0  0
    6.8216    0.0467   -1.1192 C   0  0  0  0  0  0  0  0  0  0  0  0
    7.0298    1.3328   -1.6134 C   0  0  0  0  0  0  0  0  0  0  0  0
    8.4637    1.6882   -2.4949 Cl  0  0  0  0  0  0  0  0  0  0  0  0
    6.0851    2.3336   -1.3954 C   0  0  0  0  0  0  0  0  0  0  0  0
    4.9206    2.0454   -0.6787 C   0  0  0  0  0  0  0  0  0  0  0  0
    1.7263    0.6722   -1.5321 S   0  0  0  0  0  0  0  0  0  0  0  0
    0.0360    0.3381   -1.1634 C   0  0  0  0  0  0  0  0  0  0  0  0
   -1.1907    0.4415   -2.2897 S   0  0  0  0  0  0  0  0  0  0  0  0
   -2.3356   -2.2938    2.6959 H   0  0  0  0  0  0  0  0  0  0  0  0
   -3.2414   -2.9741    1.3522 H   0  0  0  0  0  0  0  0  0  0  0  0
   -3.9988   -2.2448   -0.5769 H   0  0  0  0  0  0  0  0  0  0  0  0
   -5.5718   -1.5126   -2.2801 H   0  0  0  0  0  0  0  0  0  0  0  0
   -6.9180    1.6928    0.2485 H   0  0  0  0  0  0  0  0  0  0  0  0
   -1.6365    0.2437    1.5021 H   0  0  0  0  0  0  0  0  0  0  0  0
    3.6666    0.1966    1.6277 H   0  0  0  0  0  0  0  0  0  0  0  0
    5.5048   -1.2500   -0.0226 H   0  0  0  0  0  0  0  0  0  0  0  0
    7.5586   -0.7340   -1.2877 H   0  0  0  0  0  0  0  0  0  0  0  0
    6.2481    3.3375   -1.7784 H   0  0  0  0  0  0  0  0  0  0  0  0
    4.1937    2.8369   -0.5107 H   0  0  0  0  0  0  0  0  0  0  0  0
  1  2  2  0
  2  3  1  0
  3  4  1  0
  4  5  1  0
  5  6  2  0
  6  7  1  0
  7  8  2  0
  8  9  1  0
  8 10  1  0
 10 11  2  0
 11 12  1  0
  2 13  1  0
 13 14  1  0
 14 15  1  0
 15 16  2  0
 15 17  1  0
 17 18  2  3
 18 19  1  0
 19 20  2  0
 20 21  1  0
 21 22  2  0
 22 23  1  0
 22 24  1  0
 24 25  2  0
 17 26  1  0
 26 27  1  0
 27 28  2  0
 11  5  1  0
 27 14  1  0
 25 19  1  0
  3 29  1  0
  3 30  1  0
  6 31  1  0
  7 32  1  0
 10 33  1  0
 13 34  1  0
 18 35  1  0
 20 36  1  0
 21 37  1  0
 24 38  1  0
 25 39  1  0
M  END
$$$$
