
     RDKit          3D

 44 46  0  0  0  0  0  0  0  0999 V2000
    7.1790   -2.1670   -1.6666 C   0  0  0  0  0  0  0  0  0  0  0  0
    6.2742   -1.2795   -2.3130 O   0  0  0  0  0  0  0  0  0  0  0  0
    5.2599   -0.7708   -1.5507 C   0  0  0  0  0  0  0  0  0  0  0  0
    5.0272   -1.0420   -0.2035 C   0  0  0  0  0  0  0  0  0  0  0  0
    3.9425   -0.4504    0.4621 C   0  0  0  0  0  0  0  0  0  0  0  0
    3.0782    0.4147   -0.2100 C   0  0  0  0  0  0  0  0  0  0  0  0
    1.9717    1.0468    0.3862 N   0  0  0  0  0  0  0  0  0  0  0  0
    1.5007    0.9025    1.6786 C   0  0  0  0  0  0  0  0  0  0  0  0
    1.9791    0.1839    2.5535 O   0  0  0  0  0  0  0  0  0  0  0  0
    0.2698    1.7717    1.9652 C   0  0  0  0  0  0  0  0  0  0  0  0
   -0.9361    1.2474    1.4324 O   0  0  0  0  0  0  0  0  0  0  0  0
   -1.2639    1.6292    0.1678 C   0  0  0  0  0  0  0  0  0  0  0  0
   -0.3929    2.3553   -0.5401 N   0  0  0  0  0  0  0  0  0  0  0  0
   -1.1859    2.6544   -1.9817 S   0  0  0  0  0  0  0  0  0  0  0  0
   -2.6136    1.8451   -1.7184 N   0  0  0  0  0  0  0  0  0  0  0  0
   -2.5268    1.2980   -0.4975 C   0  0  0  0  0  0  0  0  0  0  0  0
   -3.5351    0.5421    0.0555 N   0  0  0  0  0  0  0  0  0  0  0  0
   -3.2700   -0.4440    1.1072 C   0  0  0  0  0  0  0  0  0  0  0  0
   -4.2201   -1.6357    1.0020 C   0  0  0  0  0  0  0  0  0  0  0  0
   -5.6857   -1.2147    1.0570 C   0  0  0  0  0  0  0  0  0  0  0  0
   -5.9296    0.1515    0.4193 C   0  0  0  0  0  0  0  0  0  0  0  0
   -4.8485    0.5137   -0.5955 C   0  0  0  0  0  0  0  0  0  0  0  0
    3.3156    0.6846   -1.5615 C   0  0  0  0  0  0  0  0  0  0  0  0
    4.3980    0.0959   -2.2245 C   0  0  0  0  0  0  0  0  0  0  0  0
    7.9238   -2.4801   -2.4046 H   0  0  0  0  0  0  0  0  0  0  0  0
    7.7097   -1.6647   -0.8503 H   0  0  0  0  0  0  0  0  0  0  0  0
    6.6638   -3.0673   -1.3124 H   0  0  0  0  0  0  0  0  0  0  0  0
    5.6659   -1.7095    0.3668 H   0  0  0  0  0  0  0  0  0  0  0  0
    3.8037   -0.6898    1.5115 H   0  0  0  0  0  0  0  0  0  0  0  0
    1.4056    1.6371   -0.2217 H   0  0  0  0  0  0  0  0  0  0  0  0
    0.4576    2.8168    1.6889 H   0  0  0  0  0  0  0  0  0  0  0  0
    0.1470    1.7872    3.0559 H   0  0  0  0  0  0  0  0  0  0  0  0
   -2.2497   -0.8397    1.0304 H   0  0  0  0  0  0  0  0  0  0  0  0
   -3.3753    0.0365    2.0880 H   0  0  0  0  0  0  0  0  0  0  0  0
   -4.0340   -2.1551    0.0530 H   0  0  0  0  0  0  0  0  0  0  0  0
   -4.0108   -2.3594    1.7975 H   0  0  0  0  0  0  0  0  0  0  0  0
   -6.2925   -1.9770    0.5521 H   0  0  0  0  0  0  0  0  0  0  0  0
   -6.0294   -1.1889    2.0981 H   0  0  0  0  0  0  0  0  0  0  0  0
   -5.9480    0.9145    1.2093 H   0  0  0  0  0  0  0  0  0  0  0  0
   -6.9182    0.1681   -0.0543 H   0  0  0  0  0  0  0  0  0  0  0  0
   -4.8418   -0.2066   -1.4238 H   0  0  0  0  0  0  0  0  0  0  0  0
   -5.0995    1.4971   -1.0117 H   0  0  0  0  0  0  0  0  0  0  0  0
    2.6651    1.3526   -2.1203 H   0  0  0  0  0  0  0  0  0  0  0  0
    4.5689    0.3142   -3.2763 H   0  0  0  0  0  0  0  0  0  0  0  0
  1  2  1  0
  2  3  1  0
  3  4  2  0
  4  5  1  0
  5  6  2  0
  6  7  1  0
  7  8  1  0
  8  9  2  0
  8 10  1  0
 10 11  1  0
 11 12  1  0
 12 13  2  0
 13 14  1  0
 14 15  1  0
 15 16  2  0
 16 17  1  0
 17 18  1  0
 18 19  1  0
 19 20  1  0
 20 21  1  0
 21 22  1  0
  6 23  1  0
 23 24  2  0
 24  3  1  0
 16 12  1  0
 22 17  1  0
  1 25  1  0
  1 26  1  0
  1 27  1  0
  4 28  1  0
  5 29  1  0
  7 30  1  0
 10 31  1  0
 10 32  1  0
 18 33  1  0
 18 34  1  0
 19 35  1  0
 19 36  1  0
 20 37  1  0
 20 38  1  0
 21 39  1  0
 21 40  1  0
 22 41  1  0
 22 42  1  0
 23 43  1  0
 24 44  1  0
M  END
$$$$
