
     RDKit          3D

 42 43  0  0  0  0  0  0  0  0999 V2000
    5.2790    2.0348   -2.9270 C   0  0  0  0  0  0  0  0  0  0  0  0
    4.5662    2.1561   -1.6174 C   0  0  0  0  0  0  0  0  0  0  0  0
    5.3347    2.9500   -0.3186 S   0  0  0  0  0  0  0  0  0  0  0  0
    4.0183    2.6838    0.7178 C   0  0  0  0  0  0  0  0  0  0  0  0
    4.0708    3.1226    1.9868 N   0  0  0  0  0  0  0  0  0  0  0  0
    2.9707    2.8334    2.6790 C   0  0  0  0  0  0  0  0  0  0  0  0
    1.8879    2.1803    2.2449 N   0  0  0  0  0  0  0  0  0  0  0  0
    1.8759    1.7652    0.9614 C   0  0  0  0  0  0  0  0  0  0  0  0
    0.4278    0.9172    0.4156 S   0  0  0  0  0  0  0  0  0  0  0  0
    0.5501   -0.5257    1.5094 C   0  0  0  0  0  0  0  0  0  0  0  0
   -0.4732   -1.5568    1.0766 C   0  0  0  0  0  0  0  0  0  0  0  0
   -0.1877   -2.4972    0.3410 O   0  0  0  0  0  0  0  0  0  0  0  0
   -1.7424   -1.3374    1.5803 N   0  0  0  0  0  0  0  0  0  0  0  0
   -2.8801   -2.1559    1.1671 C   0  0  0  0  0  0  0  0  0  0  0  0
   -3.9257   -2.1648    2.2817 C   0  0  0  0  0  0  0  0  0  0  0  0
   -3.4227   -1.6950   -0.2118 C   0  0  0  0  0  0  0  0  0  0  0  0
   -4.3828   -2.7264   -0.8129 C   0  0  0  0  0  0  0  0  0  0  0  0
   -4.1005   -0.3235   -0.1692 C   0  0  0  0  0  0  0  0  0  0  0  0
    2.9715    2.0012    0.1118 C   0  0  0  0  0  0  0  0  0  0  0  0
    3.3010    1.6929   -1.2783 C   0  0  0  0  0  0  0  0  0  0  0  0
    2.4026    0.9650   -2.2326 C   0  0  0  0  0  0  0  0  0  0  0  0
    6.2786    2.4815   -2.9054 H   0  0  0  0  0  0  0  0  0  0  0  0
    4.7077    2.5320   -3.7161 H   0  0  0  0  0  0  0  0  0  0  0  0
    5.3936    0.9799   -3.1966 H   0  0  0  0  0  0  0  0  0  0  0  0
    2.9499    3.1639    3.7134 H   0  0  0  0  0  0  0  0  0  0  0  0
    1.5441   -0.9773    1.4512 H   0  0  0  0  0  0  0  0  0  0  0  0
    0.3661   -0.2379    2.5471 H   0  0  0  0  0  0  0  0  0  0  0  0
   -1.9395   -0.4091    1.9387 H   0  0  0  0  0  0  0  0  0  0  0  0
   -2.5079   -3.1824    1.0567 H   0  0  0  0  0  0  0  0  0  0  0  0
   -3.4934   -2.5698    3.2033 H   0  0  0  0  0  0  0  0  0  0  0  0
   -4.2787   -1.1549    2.5145 H   0  0  0  0  0  0  0  0  0  0  0  0
   -4.7875   -2.7861    2.0234 H   0  0  0  0  0  0  0  0  0  0  0  0
   -2.5714   -1.6116   -0.9021 H   0  0  0  0  0  0  0  0  0  0  0  0
   -4.6953   -2.4213   -1.8185 H   0  0  0  0  0  0  0  0  0  0  0  0
   -5.2859   -2.8429   -0.2046 H   0  0  0  0  0  0  0  0  0  0  0  0
   -3.8979   -3.7031   -0.9007 H   0  0  0  0  0  0  0  0  0  0  0  0
   -3.4366    0.4368    0.2534 H   0  0  0  0  0  0  0  0  0  0  0  0
   -4.3730   -0.0001   -1.1797 H   0  0  0  0  0  0  0  0  0  0  0  0
   -5.0188   -0.3470    0.4236 H   0  0  0  0  0  0  0  0  0  0  0  0
    1.4538    1.4992   -2.3477 H   0  0  0  0  0  0  0  0  0  0  0  0
    2.2097   -0.0514   -1.8775 H   0  0  0  0  0  0  0  0  0  0  0  0
    2.8410    0.8823   -3.2302 H   0  0  0  0  0  0  0  0  0  0  0  0
  1  2  1  0
  2  3  1  0
  3  4  1  0
  4  5  2  0
  5  6  1  0
  6  7  2  0
  7  8  1  0
  8  9  1  0
  9 10  1  0
 10 11  1  0
 11 12  2  0
 11 13  1  0
 13 14  1  0
 14 15  1  0
 14 16  1  0
 16 17  1  0
 16 18  1  0
  8 19  2  0
 19 20  1  0
 20 21  1  0
 20  2  2  0
 19  4  1  0
  1 22  1  0
  1 23  1  0
  1 24  1  0
  6 25  1  0
 10 26  1  0
 10 27  1  0
 13 28  1  0
 14 29  1  0
 15 30  1  0
 15 31  1  0
 15 32  1  0
 16 33  1  0
 17 34  1  0
 17 35  1  0
 17 36  1  0
 18 37  1  0
 18 38  1  0
 18 39  1  0
 21 40  1  0
 21 41  1  0
 21 42  1  0
M  END
$$$$
