
     RDKit          3D

 50 53  0  0  0  0  0  0  0  0999 V2000
   -5.4425   -0.6314   -2.0899 C   0  0  0  0  0  0  0  0  0  0  0  0
   -4.9465    0.3830   -1.0550 C   0  0  0  0  0  0  0  0  0  0  0  0
   -5.0821   -0.2088    0.3575 C   0  0  0  0  0  0  0  0  0  0  0  0
   -4.1291    0.4382    1.3631 C   0  0  0  0  0  0  0  0  0  0  0  0
   -4.4931    1.8992    1.6450 C   0  0  0  0  0  0  0  0  0  0  0  0
   -2.6666    0.2814    0.9054 C   0  0  0  0  0  0  0  0  0  0  0  0
   -2.5375    0.1736   -0.5504 N   0  0  0  0  0  0  0  0  0  0  0  0
   -1.2217    0.1903   -1.0081 C   0  0  0  0  0  0  0  0  0  0  0  0
   -0.9688    0.5391   -2.2820 N   0  0  0  0  0  0  0  0  0  0  0  0
    0.3122    0.5125   -2.7085 C   0  0  0  0  0  0  0  0  0  0  0  0
    1.3627    0.1515   -1.9046 C   0  0  0  0  0  0  0  0  0  0  0  0
    1.0388   -0.1846   -0.6105 C   0  0  0  0  0  0  0  0  0  0  0  0
   -0.2369   -0.1736   -0.1613 N   0  0  0  0  0  0  0  0  0  0  0  0
    2.0966   -0.6262    0.3639 C   0  0  0  0  0  0  0  0  0  0  0  0
    3.4542    0.0042    0.0188 C   0  0  0  0  0  0  0  0  0  0  0  0
    4.5403   -0.4221    0.9913 C   0  0  0  0  0  0  0  0  0  0  0  0
    4.9303   -1.7648    1.1217 C   0  0  0  0  0  0  0  0  0  0  0  0
    5.9317   -2.1315    2.0249 C   0  0  0  0  0  0  0  0  0  0  0  0
    6.5517   -1.1597    2.8052 C   0  0  0  0  0  0  0  0  0  0  0  0
    7.7839   -1.6121    3.9169 Cl  0  0  0  0  0  0  0  0  0  0  0  0
    6.1788    0.1763    2.6900 C   0  0  0  0  0  0  0  0  0  0  0  0
    5.1776    0.5434    1.7871 C   0  0  0  0  0  0  0  0  0  0  0  0
    3.8323   -0.3112   -1.4338 C   0  0  0  0  0  0  0  0  0  0  0  0
    2.7491    0.1278   -2.3944 C   0  0  0  0  0  0  0  0  0  0  0  0
    2.9898    0.4126   -3.5633 O   0  0  0  0  0  0  0  0  0  0  0  0
   -3.5167    0.8618   -1.3816 C   0  0  0  0  0  0  0  0  0  0  0  0
   -5.4500   -0.1916   -3.0929 H   0  0  0  0  0  0  0  0  0  0  0  0
   -6.4639   -0.9530   -1.8602 H   0  0  0  0  0  0  0  0  0  0  0  0
   -4.8020   -1.5195   -2.1144 H   0  0  0  0  0  0  0  0  0  0  0  0
   -5.6067    1.2575   -1.1301 H   0  0  0  0  0  0  0  0  0  0  0  0
   -4.8699   -1.2865    0.3315 H   0  0  0  0  0  0  0  0  0  0  0  0
   -6.1209   -0.1139    0.6975 H   0  0  0  0  0  0  0  0  0  0  0  0
   -4.2356   -0.0896    2.3204 H   0  0  0  0  0  0  0  0  0  0  0  0
   -4.3768    2.5399    0.7673 H   0  0  0  0  0  0  0  0  0  0  0  0
   -3.8562    2.3054    2.4383 H   0  0  0  0  0  0  0  0  0  0  0  0
   -5.5319    1.9781    1.9832 H   0  0  0  0  0  0  0  0  0  0  0  0
   -2.0648    1.1122    1.2977 H   0  0  0  0  0  0  0  0  0  0  0  0
   -2.2795   -0.6426    1.3562 H   0  0  0  0  0  0  0  0  0  0  0  0
    0.4591    0.7970   -3.7470 H   0  0  0  0  0  0  0  0  0  0  0  0
    1.8003   -0.3401    1.3810 H   0  0  0  0  0  0  0  0  0  0  0  0
    2.1464   -1.7217    0.3363 H   0  0  0  0  0  0  0  0  0  0  0  0
    3.3366    1.0960    0.0939 H   0  0  0  0  0  0  0  0  0  0  0  0
    4.4617   -2.5435    0.5236 H   0  0  0  0  0  0  0  0  0  0  0  0
    6.2221   -3.1751    2.1138 H   0  0  0  0  0  0  0  0  0  0  0  0
    6.6619    0.9366    3.2982 H   0  0  0  0  0  0  0  0  0  0  0  0
    4.9017    1.5938    1.7131 H   0  0  0  0  0  0  0  0  0  0  0  0
    4.7553    0.2201   -1.6957 H   0  0  0  0  0  0  0  0  0  0  0  0
    4.0020   -1.3825   -1.5923 H   0  0  0  0  0  0  0  0  0  0  0  0
   -3.3387    0.7113   -2.4537 H   0  0  0  0  0  0  0  0  0  0  0  0
   -3.4387    1.9427   -1.2088 H   0  0  0  0  0  0  0  0  0  0  0  0
  1  2  1  0
  2  3  1  0
  3  4  1  0
  4  5  1  0
  4  6  1  0
  6  7  1  0
  7  8  1  0
  8  9  2  0
  9 10  1  0
 10 11  2  0
 11 12  1  0
 12 13  2  0
 12 14  1  0
 14 15  1  0
 15 16  1  0
 16 17  2  0
 17 18  1  0
 18 19  2  0
 19 20  1  0
 19 21  1  0
 21 22  2  0
 15 23  1  0
 23 24  1  0
 24 25  2  0
  7 26  1  0
 26  2  1  0
 13  8  1  0
 22 16  1  0
 24 11  1  0
  1 27  1  0
  1 28  1  0
  1 29  1  0
  2 30  1  0
  3 31  1  0
  3 32  1  0
  4 33  1  0
  5 34  1  0
  5 35  1  0
  5 36  1  0
  6 37  1  0
  6 38  1  0
 10 39  1  0
 14 40  1  0
 14 41  1  0
 15 42  1  0
 17 43  1  0
 18 44  1  0
 21 45  1  0
 22 46  1  0
 23 47  1  0
 23 48  1  0
 26 49  1  0
 26 50  1  0
M  END
$$$$
