
     RDKit          3D

 43 45  0  0  0  0  0  0  0  0999 V2000
   -7.3181    0.4921   -0.2126 C   0  0  0  0  0  0  0  0  0  0  0  0
   -7.1547    0.0076    1.2206 C   0  0  0  0  0  0  0  0  0  0  0  0
   -6.0465    0.7414    1.9742 C   0  0  0  0  0  0  0  0  0  0  0  0
   -4.6833    0.3689    1.4710 C   0  0  0  0  0  0  0  0  0  0  0  0
   -4.0682    1.0085    0.5276 N   0  0  0  0  0  0  0  0  0  0  0  0
   -2.8552    0.3996    0.2976 N   0  0  0  0  0  0  0  0  0  0  0  0
   -1.9937    0.8394   -0.6821 C   0  0  0  0  0  0  0  0  0  0  0  0
   -2.1767    1.7705   -1.4586 O   0  0  0  0  0  0  0  0  0  0  0  0
   -0.7434    0.0492   -0.7660 C   0  0  0  0  0  0  0  0  0  0  0  0
   -0.5547   -0.9965    0.0578 C   0  0  0  0  0  0  0  0  0  0  0  0
    0.7063   -1.8306   -0.0360 C   0  0  0  0  0  0  0  0  0  0  0  0
    1.7151   -1.7528    1.4885 S   0  0  0  0  0  0  0  0  0  0  0  0
    2.1473    0.0155    1.5061 C   0  0  0  0  0  0  0  0  0  0  0  0
    2.9348    0.3966    0.2634 C   0  0  0  0  0  0  0  0  0  0  0  0
    2.4416    1.1296   -0.5888 O   0  0  0  0  0  0  0  0  0  0  0  0
    4.1922   -0.1828    0.2262 N   0  0  0  0  0  0  0  0  0  0  0  0
    5.1905   -0.0075   -0.7522 C   0  0  0  0  0  0  0  0  0  0  0  0
    6.3430   -0.7991   -0.6381 C   0  0  0  0  0  0  0  0  0  0  0  0
    7.3812   -0.6825   -1.5664 C   0  0  0  0  0  0  0  0  0  0  0  0
    7.2691    0.2295   -2.6063 C   0  0  0  0  0  0  0  0  0  0  0  0
    8.2637    0.3436   -3.4956 F   0  0  0  0  0  0  0  0  0  0  0  0
    6.1386    1.0254   -2.7332 C   0  0  0  0  0  0  0  0  0  0  0  0
    5.0983    0.9077   -1.8052 C   0  0  0  0  0  0  0  0  0  0  0  0
   -1.4879   -1.4059    0.9915 N   0  0  0  0  0  0  0  0  0  0  0  0
   -2.5628   -0.6967    1.0621 C   0  0  0  0  0  0  0  0  0  0  0  0
   -3.8674   -1.0153    2.1592 S   0  0  0  0  0  0  0  0  0  0  0  0
   -8.1813    0.0066   -0.6771 H   0  0  0  0  0  0  0  0  0  0  0  0
   -6.4378    0.2534   -0.8172 H   0  0  0  0  0  0  0  0  0  0  0  0
   -7.4781    1.5742   -0.2498 H   0  0  0  0  0  0  0  0  0  0  0  0
   -6.9662   -1.0721    1.2148 H   0  0  0  0  0  0  0  0  0  0  0  0
   -8.1012    0.1656    1.7502 H   0  0  0  0  0  0  0  0  0  0  0  0
   -6.1754    1.8260    1.8813 H   0  0  0  0  0  0  0  0  0  0  0  0
   -6.1116    0.4988    3.0409 H   0  0  0  0  0  0  0  0  0  0  0  0
   -0.0219    0.3686   -1.5084 H   0  0  0  0  0  0  0  0  0  0  0  0
    0.4258   -2.8792   -0.1900 H   0  0  0  0  0  0  0  0  0  0  0  0
    1.3259   -1.5499   -0.8943 H   0  0  0  0  0  0  0  0  0  0  0  0
    2.7603    0.2211    2.3900 H   0  0  0  0  0  0  0  0  0  0  0  0
    1.2492    0.6345    1.5855 H   0  0  0  0  0  0  0  0  0  0  0  0
    4.3803   -0.8762    0.9436 H   0  0  0  0  0  0  0  0  0  0  0  0
    6.4482   -1.5186    0.1696 H   0  0  0  0  0  0  0  0  0  0  0  0
    8.2730   -1.2956   -1.4842 H   0  0  0  0  0  0  0  0  0  0  0  0
    6.0688    1.7358   -3.5505 H   0  0  0  0  0  0  0  0  0  0  0  0
    4.2331    1.5517   -1.9311 H   0  0  0  0  0  0  0  0  0  0  0  0
  1  2  1  0
  2  3  1  0
  3  4  1  0
  4  5  2  0
  5  6  1  0
  6  7  1  0
  7  8  2  0
  7  9  1  0
  9 10  2  0
 10 11  1  0
 11 12  1  0
 12 13  1  0
 13 14  1  0
 14 15  2  0
 14 16  1  0
 16 17  1  0
 17 18  2  0
 18 19  1  0
 19 20  2  0
 20 21  1  0
 20 22  1  0
 22 23  2  0
 10 24  1  0
 24 25  2  0
 25 26  1  0
 26  4  1  0
 25  6  1  0
 23 17  1  0
  1 27  1  0
  1 28  1  0
  1 29  1  0
  2 30  1  0
  2 31  1  0
  3 32  1  0
  3 33  1  0
  9 34  1  0
 11 35  1  0
 11 36  1  0
 13 37  1  0
 13 38  1  0
 16 39  1  0
 18 40  1  0
 19 41  1  0
 22 42  1  0
 23 43  1  0
M  END
$$$$
