
     RDKit          3D

 57 60  0  0  0  0  0  0  0  0999 V2000
    8.1819   -2.0975    0.6732 C   0  0  0  0  0  0  0  0  0  0  0  0
    6.9775   -1.8377    1.3853 O   0  0  0  0  0  0  0  0  0  0  0  0
    5.8940   -1.4461    0.6477 C   0  0  0  0  0  0  0  0  0  0  0  0
    5.8694   -1.2549   -0.7293 C   0  0  0  0  0  0  0  0  0  0  0  0
    4.6850   -0.8536   -1.3524 C   0  0  0  0  0  0  0  0  0  0  0  0
    3.5073   -0.6360   -0.6132 C   0  0  0  0  0  0  0  0  0  0  0  0
    2.3032   -0.2107   -1.4046 C   0  0  0  0  0  0  0  0  0  0  0  0
    2.3506   -0.1737   -2.6312 O   0  0  0  0  0  0  0  0  0  0  0  0
    1.1685    0.1257   -0.7076 N   0  0  0  0  0  0  0  0  0  0  0  0
   -0.0826    0.4259   -1.3681 C   0  0  0  0  0  0  0  0  0  0  0  0
   -0.7876   -0.8736   -1.8248 C   0  0  0  0  0  0  0  0  0  0  0  0
   -2.3070   -0.6962   -2.1161 C   0  0  0  0  0  0  0  0  0  0  0  0
   -2.8989   -2.0632   -2.5090 C   0  0  0  0  0  0  0  0  0  0  0  0
   -2.5233    0.2722   -3.2968 C   0  0  0  0  0  0  0  0  0  0  0  0
   -3.0480   -0.1781   -0.8426 C   0  0  0  0  0  0  0  0  0  0  0  0
   -2.2756    0.9063   -0.1656 C   0  0  0  0  0  0  0  0  0  0  0  0
   -0.9431    1.1840   -0.4158 C   0  0  0  0  0  0  0  0  0  0  0  0
   -0.6753    2.3376    0.3280 C   0  0  0  0  0  0  0  0  0  0  0  0
   -1.7319    2.7483    1.0243 N   0  0  0  0  0  0  0  0  0  0  0  0
   -2.7186    1.8378    0.7660 N   0  0  0  0  0  0  0  0  0  0  0  0
   -3.9712    1.9686    1.4441 C   0  0  0  0  0  0  0  0  0  0  0  0
   -4.2326    3.1539    2.1564 C   0  0  0  0  0  0  0  0  0  0  0  0
   -5.4434    3.3334    2.8306 C   0  0  0  0  0  0  0  0  0  0  0  0
   -6.4051    2.3284    2.8127 C   0  0  0  0  0  0  0  0  0  0  0  0
   -6.1522    1.1426    2.1277 C   0  0  0  0  0  0  0  0  0  0  0  0
   -4.9409    0.9595    1.4491 C   0  0  0  0  0  0  0  0  0  0  0  0
    3.5300   -0.8293    0.7835 C   0  0  0  0  0  0  0  0  0  0  0  0
    2.3649   -0.6214    1.4797 O   0  0  0  0  0  0  0  0  0  0  0  0
    2.3934   -0.7754    2.8962 C   0  0  0  0  0  0  0  0  0  0  0  0
    4.7287   -1.2318    1.3937 C   0  0  0  0  0  0  0  0  0  0  0  0
    8.9398   -2.4036    1.4005 H   0  0  0  0  0  0  0  0  0  0  0  0
    8.0506   -2.9205   -0.0373 H   0  0  0  0  0  0  0  0  0  0  0  0
    8.5473   -1.1955    0.1715 H   0  0  0  0  0  0  0  0  0  0  0  0
    6.7461   -1.4073   -1.3504 H   0  0  0  0  0  0  0  0  0  0  0  0
    4.6856   -0.7084   -2.4328 H   0  0  0  0  0  0  0  0  0  0  0  0
    1.1599   -0.0479    0.2923 H   0  0  0  0  0  0  0  0  0  0  0  0
    0.1259    1.0533   -2.2436 H   0  0  0  0  0  0  0  0  0  0  0  0
   -0.6717   -1.6395   -1.0434 H   0  0  0  0  0  0  0  0  0  0  0  0
   -0.2738   -1.2724   -2.7095 H   0  0  0  0  0  0  0  0  0  0  0  0
   -2.7707   -2.7969   -1.7047 H   0  0  0  0  0  0  0  0  0  0  0  0
   -3.9717   -1.9838   -2.7186 H   0  0  0  0  0  0  0  0  0  0  0  0
   -2.4110   -2.4646   -3.4048 H   0  0  0  0  0  0  0  0  0  0  0  0
   -3.5866    0.3465   -3.5533 H   0  0  0  0  0  0  0  0  0  0  0  0
   -2.1722    1.2851   -3.0768 H   0  0  0  0  0  0  0  0  0  0  0  0
   -1.9914   -0.0759   -4.1896 H   0  0  0  0  0  0  0  0  0  0  0  0
   -4.0467    0.1711   -1.1277 H   0  0  0  0  0  0  0  0  0  0  0  0
   -3.1602   -1.0079   -0.1335 H   0  0  0  0  0  0  0  0  0  0  0  0
    0.2445    2.9061    0.3824 H   0  0  0  0  0  0  0  0  0  0  0  0
   -3.5008    3.9603    2.1863 H   0  0  0  0  0  0  0  0  0  0  0  0
   -5.6306    4.2601    3.3672 H   0  0  0  0  0  0  0  0  0  0  0  0
   -7.3466    2.4659    3.3378 H   0  0  0  0  0  0  0  0  0  0  0  0
   -6.8974    0.3506    2.1273 H   0  0  0  0  0  0  0  0  0  0  0  0
   -4.7894    0.0009    0.9725 H   0  0  0  0  0  0  0  0  0  0  0  0
    1.3900   -0.5533    3.2751 H   0  0  0  0  0  0  0  0  0  0  0  0
    2.6316   -1.8079    3.1748 H   0  0  0  0  0  0  0  0  0  0  0  0
    3.0879   -0.0642    3.3567 H   0  0  0  0  0  0  0  0  0  0  0  0
    4.7942   -1.3954    2.4651 H   0  0  0  0  0  0  0  0  0  0  0  0
  1  2  1  0
  2  3  1  0
  3  4  2  0
  4  5  1  0
  5  6  2  0
  6  7  1  0
  7  8  2  0
  7  9  1  0
  9 10  1  0
 10 11  1  0
 11 12  1  0
 12 13  1  0
 12 14  1  0
 12 15  1  0
 15 16  1  0
 16 17  2  0
 17 18  1  0
 18 19  2  0
 19 20  1  0
 20 21  1  0
 21 22  2  0
 22 23  1  0
 23 24  2  0
 24 25  1  0
 25 26  2  0
  6 27  1  0
 27 28  1  0
 28 29  1  0
 27 30  2  0
 30  3  1  0
 17 10  1  0
 26 21  1  0
 20 16  1  0
  1 31  1  0
  1 32  1  0
  1 33  1  0
  4 34  1  0
  5 35  1  0
  9 36  1  0
 10 37  1  0
 11 38  1  0
 11 39  1  0
 13 40  1  0
 13 41  1  0
 13 42  1  0
 14 43  1  0
 14 44  1  0
 14 45  1  0
 15 46  1  0
 15 47  1  0
 18 48  1  0
 22 49  1  0
 23 50  1  0
 24 51  1  0
 25 52  1  0
 26 53  1  0
 29 54  1  0
 29 55  1  0
 29 56  1  0
 30 57  1  0
M  END
$$$$
