
     RDKit          3D

 39 41  0  0  0  0  0  0  0  0999 V2000
   -3.4635   -0.4824    2.0847 C   0  0  0  0  0  0  0  0  0  0  0  0
   -3.1685   -0.0000    0.7091 C   0  0  0  0  0  0  0  0  0  0  0  0
   -4.1606    0.4652   -0.1144 N   0  0  0  0  0  0  0  0  0  0  0  0
   -3.6382    0.8667   -1.3199 C   0  0  0  0  0  0  0  0  0  0  0  0
   -4.2857    1.4092   -2.4370 C   0  0  0  0  0  0  0  0  0  0  0  0
   -3.4984    1.7779   -3.5296 C   0  0  0  0  0  0  0  0  0  0  0  0
   -2.1168    1.6222   -3.4969 C   0  0  0  0  0  0  0  0  0  0  0  0
   -1.4861    1.0757   -2.3723 C   0  0  0  0  0  0  0  0  0  0  0  0
   -2.2579    0.6643   -1.2629 C   0  0  0  0  0  0  0  0  0  0  0  0
   -1.9673    0.0766    0.0140 C   0  0  0  0  0  0  0  0  0  0  0  0
   -0.6817   -0.3696    0.5560 C   0  0  0  0  0  0  0  0  0  0  0  0
   -0.3735   -0.1448    1.7295 O   0  0  0  0  0  0  0  0  0  0  0  0
    0.2384   -1.2155   -0.3426 C   0  0  0  0  0  0  0  0  0  0  0  0
   -0.2618   -2.6559   -0.3427 C   0  0  0  0  0  0  0  0  0  0  0  0
    1.5815   -1.2405    0.1665 O   0  0  0  0  0  0  0  0  0  0  0  0
    2.2567   -0.0648    0.0010 C   0  0  0  0  0  0  0  0  0  0  0  0
    1.8252    0.8879   -0.6363 O   0  0  0  0  0  0  0  0  0  0  0  0
    3.5378   -0.1421    0.6641 C   0  0  0  0  0  0  0  0  0  0  0  0
    4.1236   -1.1173    1.4599 C   0  0  0  0  0  0  0  0  0  0  0  0
    5.4034   -0.6377    1.8391 C   0  0  0  0  0  0  0  0  0  0  0  0
    5.5165    0.5972    1.2484 C   0  0  0  0  0  0  0  0  0  0  0  0
    6.5714    1.5617    1.2601 N   0  0  0  0  0  4  0  0  0  0  0  0
    6.4139    2.6036    0.6125 O   0  0  0  0  0  0  0  0  0  0  0  0
    7.5740    1.2648    1.9246 O   0  0  0  0  0  1  0  0  0  0  0  0
    4.4056    0.9161    0.5344 O   0  0  0  0  0  0  0  0  0  0  0  0
   -4.5402   -0.5934    2.2496 H   0  0  0  0  0  0  0  0  0  0  0  0
   -3.0776    0.2249    2.8255 H   0  0  0  0  0  0  0  0  0  0  0  0
   -2.9967   -1.4572    2.2587 H   0  0  0  0  0  0  0  0  0  0  0  0
   -5.1397    0.5270    0.1295 H   0  0  0  0  0  0  0  0  0  0  0  0
   -5.3612    1.5537   -2.4553 H   0  0  0  0  0  0  0  0  0  0  0  0
   -3.9705    2.2094   -4.4094 H   0  0  0  0  0  0  0  0  0  0  0  0
   -1.5164    1.9398   -4.3463 H   0  0  0  0  0  0  0  0  0  0  0  0
   -0.4018    1.0058   -2.3629 H   0  0  0  0  0  0  0  0  0  0  0  0
    0.2497   -0.8526   -1.3725 H   0  0  0  0  0  0  0  0  0  0  0  0
    0.4047   -3.2933   -0.9336 H   0  0  0  0  0  0  0  0  0  0  0  0
   -0.2753   -3.0660    0.6737 H   0  0  0  0  0  0  0  0  0  0  0  0
   -1.2733   -2.7314   -0.7538 H   0  0  0  0  0  0  0  0  0  0  0  0
    3.6681   -2.0598    1.7363 H   0  0  0  0  0  0  0  0  0  0  0  0
    6.1423   -1.1252    2.4609 H   0  0  0  0  0  0  0  0  0  0  0  0
  1  2  1  0
  2  3  1  0
  3  4  1  0
  4  5  2  0
  5  6  1  0
  6  7  2  0
  7  8  1  0
  8  9  2  0
  9 10  1  0
 10 11  1  0
 11 12  2  0
 11 13  1  0
 13 14  1  0
 13 15  1  0
 15 16  1  0
 16 17  2  0
 16 18  1  0
 18 19  2  0
 19 20  1  0
 20 21  2  0
 21 22  1  0
 22 23  2  0
 22 24  1  0
 21 25  1  0
 10  2  2  0
 25 18  1  0
  9  4  1  0
  1 26  1  0
  1 27  1  0
  1 28  1  0
  3 29  1  0
  5 30  1  0
  6 31  1  0
  7 32  1  0
  8 33  1  0
 13 34  1  0
 14 35  1  0
 14 36  1  0
 14 37  1  0
 19 38  1  0
 20 39  1  0
M  CHG  2  22   1  24  -1
M  END
$$$$
