
     RDKit          3D

 57 58  0  0  0  0  0  0  0  0999 V2000
    5.2183   -3.6166    0.0310 C   0  0  0  0  0  0  0  0  0  0  0  0
    5.8152   -2.7474   -1.0646 C   0  0  0  0  0  0  0  0  0  0  0  0
    5.2572   -1.3249   -1.0794 C   0  0  0  0  0  0  0  0  0  0  0  0
    5.6300   -0.5079    0.1581 C   0  0  0  0  0  0  0  0  0  0  0  0
    5.1521    0.8330    0.0323 O   0  0  0  0  0  0  0  0  0  0  0  0
    3.8883    1.1258    0.4619 C   0  0  0  0  0  0  0  0  0  0  0  0
    2.9471    0.2221    0.9517 C   0  0  0  0  0  0  0  0  0  0  0  0
    1.6821    0.6695    1.3546 C   0  0  0  0  0  0  0  0  0  0  0  0
    1.3379    2.0288    1.2850 C   0  0  0  0  0  0  0  0  0  0  0  0
   -0.0535    2.4723    1.7065 C   0  0  0  0  0  0  0  0  0  0  0  0
   -0.0282    3.7379    2.5730 C   0  0  0  0  0  0  0  0  0  0  0  0
   -0.8793    2.6378    0.5183 N   0  0  0  0  0  0  0  0  0  0  0  0
   -2.2482    2.6931    0.6081 C   0  0  0  0  0  0  0  0  0  0  0  0
   -2.8742    2.7702    1.6594 O   0  0  0  0  0  0  0  0  0  0  0  0
   -2.9616    2.6284   -0.7205 C   0  0  0  0  0  0  0  0  0  0  0  0
   -3.5396    1.2407   -0.9482 C   0  0  0  0  0  0  0  0  0  0  0  0
   -2.2596    0.0242   -1.2415 S   0  0  0  0  0  6  0  0  0  0  0  0
   -1.6743   -0.3574    0.0295 O   0  0  0  0  0  0  0  0  0  0  0  0
   -1.4031    0.5590   -2.2870 O   0  0  0  0  0  0  0  0  0  0  0  0
   -3.1151   -1.3910   -1.9360 C   0  0  0  0  0  0  0  0  0  0  0  0
   -4.2545   -1.8259   -1.0526 C   0  0  0  0  0  0  0  0  0  0  0  0
   -5.5830   -1.5741   -1.4298 C   0  0  0  0  0  0  0  0  0  0  0  0
   -6.6427   -1.9743   -0.6117 C   0  0  0  0  0  0  0  0  0  0  0  0
   -6.3881   -2.6374    0.5881 C   0  0  0  0  0  0  0  0  0  0  0  0
   -5.0742   -2.9023    0.9648 C   0  0  0  0  0  0  0  0  0  0  0  0
   -4.7596   -3.7299    2.4397 Cl  0  0  0  0  0  0  0  0  0  0  0  0
   -4.0115   -2.5041    0.1525 C   0  0  0  0  0  0  0  0  0  0  0  0
    2.2814    2.9260    0.7655 C   0  0  0  0  0  0  0  0  0  0  0  0
    3.5433    2.4763    0.3650 C   0  0  0  0  0  0  0  0  0  0  0  0
    5.5690   -4.6510   -0.0769 H   0  0  0  0  0  0  0  0  0  0  0  0
    4.1246   -3.6219   -0.0250 H   0  0  0  0  0  0  0  0  0  0  0  0
    5.5143   -3.2664    1.0263 H   0  0  0  0  0  0  0  0  0  0  0  0
    6.9064   -2.7223   -0.9585 H   0  0  0  0  0  0  0  0  0  0  0  0
    5.6021   -3.2153   -2.0338 H   0  0  0  0  0  0  0  0  0  0  0  0
    4.1678   -1.3557   -1.2032 H   0  0  0  0  0  0  0  0  0  0  0  0
    5.6346   -0.8048   -1.9687 H   0  0  0  0  0  0  0  0  0  0  0  0
    6.7230   -0.4382    0.2176 H   0  0  0  0  0  0  0  0  0  0  0  0
    5.3104   -0.9670    1.0982 H   0  0  0  0  0  0  0  0  0  0  0  0
    3.1516   -0.8413    1.0239 H   0  0  0  0  0  0  0  0  0  0  0  0
    0.9551   -0.0594    1.7148 H   0  0  0  0  0  0  0  0  0  0  0  0
   -0.5097    1.6761    2.3113 H   0  0  0  0  0  0  0  0  0  0  0  0
    0.6639    3.6238    3.4152 H   0  0  0  0  0  0  0  0  0  0  0  0
   -1.0181    3.9535    2.9888 H   0  0  0  0  0  0  0  0  0  0  0  0
    0.2736    4.6220    1.9995 H   0  0  0  0  0  0  0  0  0  0  0  0
   -0.4768    2.2951   -0.3481 H   0  0  0  0  0  0  0  0  0  0  0  0
   -2.2878    2.9275   -1.5314 H   0  0  0  0  0  0  0  0  0  0  0  0
   -3.7699    3.3699   -0.6951 H   0  0  0  0  0  0  0  0  0  0  0  0
   -4.1308    0.9053   -0.0913 H   0  0  0  0  0  0  0  0  0  0  0  0
   -4.1723    1.2555   -1.8414 H   0  0  0  0  0  0  0  0  0  0  0  0
   -3.4690   -1.1005   -2.9316 H   0  0  0  0  0  0  0  0  0  0  0  0
   -2.3860   -2.1990   -2.0594 H   0  0  0  0  0  0  0  0  0  0  0  0
   -5.8109   -1.0681   -2.3669 H   0  0  0  0  0  0  0  0  0  0  0  0
   -7.6696   -1.7743   -0.9112 H   0  0  0  0  0  0  0  0  0  0  0  0
   -7.2161   -2.9474    1.2219 H   0  0  0  0  0  0  0  0  0  0  0  0
   -2.9912   -2.7172    0.4679 H   0  0  0  0  0  0  0  0  0  0  0  0
    2.0447    3.9823    0.6571 H   0  0  0  0  0  0  0  0  0  0  0  0
    4.2647    3.1869   -0.0329 H   0  0  0  0  0  0  0  0  0  0  0  0
  1  2  1  0
  2  3  1  0
  3  4  1  0
  4  5  1  0
  5  6  1  0
  6  7  2  0
  7  8  1  0
  8  9  2  0
  9 10  1  0
 10 11  1  0
 10 12  1  0
 12 13  1  0
 13 14  2  0
 13 15  1  0
 15 16  1  0
 16 17  1  0
 17 18  2  0
 17 19  2  0
 17 20  1  0
 20 21  1  0
 21 22  2  0
 22 23  1  0
 23 24  2  0
 24 25  1  0
 25 26  1  0
 25 27  2  0
  9 28  1  0
 28 29  2  0
 29  6  1  0
 27 21  1  0
  1 30  1  0
  1 31  1  0
  1 32  1  0
  2 33  1  0
  2 34  1  0
  3 35  1  0
  3 36  1  0
  4 37  1  0
  4 38  1  0
  7 39  1  0
  8 40  1  0
 10 41  1  0
 11 42  1  0
 11 43  1  0
 11 44  1  0
 12 45  1  0
 15 46  1  0
 15 47  1  0
 16 48  1  0
 16 49  1  0
 20 50  1  0
 20 51  1  0
 22 52  1  0
 23 53  1  0
 24 54  1  0
 27 55  1  0
 28 56  1  0
 29 57  1  0
M  END
$$$$
