
     RDKit          3D

 45 47  0  0  0  0  0  0  0  0999 V2000
    6.8862   -0.6724   -2.4334 C   0  0  0  0  0  0  0  0  0  0  0  0
    5.4531   -1.0069   -2.1003 C   0  0  0  0  0  0  0  0  0  0  0  0
    5.0208   -2.2268   -2.1611 N   0  0  0  0  0  0  0  0  0  0  0  0
    4.5191    0.1293   -1.7490 C   0  0  0  0  0  0  0  0  0  0  0  0
    3.9231    0.6695   -2.9726 C   0  0  0  0  0  0  0  0  0  0  0  0
    3.4912    1.0902   -3.9644 N   0  0  0  0  0  0  0  0  0  0  0  0
    3.4733   -0.2441   -0.7262 C   0  0  0  0  0  0  0  0  0  0  0  0
    3.5838    0.1513    0.4421 O   0  0  0  0  0  0  0  0  0  0  0  0
    2.3269   -1.1717   -1.1439 C   0  0  0  0  0  0  0  0  0  0  0  0
    1.1868   -1.0577   -0.2864 O   0  0  0  0  0  0  0  0  0  0  0  0
    0.5551    0.1379   -0.3744 C   0  0  0  0  0  0  0  0  0  0  0  0
    0.8452    1.0505   -1.1297 O   0  0  0  0  0  0  0  0  0  0  0  0
   -0.6302    0.1443    0.5023 C   0  0  0  0  0  0  0  0  0  0  0  0
   -1.8368    0.4819   -0.1149 C   0  0  0  0  0  0  0  0  0  0  0  0
   -2.9927    0.4822    0.6452 C   0  0  0  0  0  0  0  0  0  0  0  0
   -4.3230    0.8150    0.0938 C   0  0  0  0  0  0  0  0  0  0  0  0
   -5.4851    0.2101    0.6123 C   0  0  0  0  0  0  0  0  0  0  0  0
   -6.7547    0.5038    0.1051 C   0  0  0  0  0  0  0  0  0  0  0  0
   -6.8928    1.4183   -0.9344 C   0  0  0  0  0  0  0  0  0  0  0  0
   -5.7600    2.0358   -1.4554 C   0  0  0  0  0  0  0  0  0  0  0  0
   -5.9419    3.2890   -2.8608 Br  0  0  0  0  0  0  0  0  0  0  0  0
   -4.4895    1.7434   -0.9506 C   0  0  0  0  0  0  0  0  0  0  0  0
   -2.9679    0.1558    1.9606 N   0  0  0  0  0  0  0  0  0  0  0  0
   -1.8021   -0.1381    2.5614 C   0  0  0  0  0  0  0  0  0  0  0  0
   -1.8222   -0.4309    3.9187 C   0  0  0  0  0  0  0  0  0  0  0  0
   -0.6579   -0.7263    4.6306 C   0  0  0  0  0  0  0  0  0  0  0  0
    0.5641   -0.7253    3.9756 C   0  0  0  0  0  0  0  0  0  0  0  0
    0.6108   -0.4381    2.6126 C   0  0  0  0  0  0  0  0  0  0  0  0
   -0.5715   -0.1529    1.8809 C   0  0  0  0  0  0  0  0  0  0  0  0
    7.4786   -1.5794   -2.5794 H   0  0  0  0  0  0  0  0  0  0  0  0
    7.3232   -0.0936   -1.6152 H   0  0  0  0  0  0  0  0  0  0  0  0
    6.9144   -0.0765   -3.3495 H   0  0  0  0  0  0  0  0  0  0  0  0
    5.7696   -2.8783   -2.4358 H   0  0  0  0  0  0  0  0  0  0  0  0
    5.1287    0.9209   -1.2933 H   0  0  0  0  0  0  0  0  0  0  0  0
    2.0198   -0.9975   -2.1793 H   0  0  0  0  0  0  0  0  0  0  0  0
    2.6768   -2.2044   -1.0644 H   0  0  0  0  0  0  0  0  0  0  0  0
   -1.8578    0.7149   -1.1750 H   0  0  0  0  0  0  0  0  0  0  0  0
   -5.4013   -0.5075    1.4282 H   0  0  0  0  0  0  0  0  0  0  0  0
   -7.6313    0.0182    0.5259 H   0  0  0  0  0  0  0  0  0  0  0  0
   -7.8811    1.6454   -1.3246 H   0  0  0  0  0  0  0  0  0  0  0  0
   -3.6285    2.2617   -1.3666 H   0  0  0  0  0  0  0  0  0  0  0  0
   -2.7761   -0.4216    4.4421 H   0  0  0  0  0  0  0  0  0  0  0  0
   -0.7116   -0.9468    5.6934 H   0  0  0  0  0  0  0  0  0  0  0  0
    1.4803   -0.9425    4.5191 H   0  0  0  0  0  0  0  0  0  0  0  0
    1.5854   -0.4300    2.1282 H   0  0  0  0  0  0  0  0  0  0  0  0
  1  2  1  0
  2  3  2  3
  2  4  1  0
  4  5  1  0
  5  6  3  0
  4  7  1  0
  7  8  2  0
  7  9  1  0
  9 10  1  0
 10 11  1  0
 11 12  2  0
 11 13  1  0
 13 14  2  0
 14 15  1  0
 15 16  1  0
 16 17  2  0
 17 18  1  0
 18 19  2  0
 19 20  1  0
 20 21  1  0
 20 22  2  0
 15 23  2  0
 23 24  1  0
 24 25  2  0
 25 26  1  0
 26 27  2  0
 27 28  1  0
 28 29  2  0
 29 13  1  0
 22 16  1  0
 29 24  1  0
  1 30  1  0
  1 31  1  0
  1 32  1  0
  3 33  1  0
  4 34  1  0
  9 35  1  0
  9 36  1  0
 14 37  1  0
 17 38  1  0
 18 39  1  0
 19 40  1  0
 22 41  1  0
 25 42  1  0
 26 43  1  0
 27 44  1  0
 28 45  1  0
M  END
$$$$
