
     RDKit          3D

 61 66  0  0  0  0  0  0  0  0999 V2000
   -3.3476    5.5814    1.6719 C   0  0  0  0  0  0  0  0  0  0  0  0
   -2.4191    4.3943    1.4120 C   0  0  0  0  0  0  0  0  0  0  0  0
   -3.2386    3.1147    1.1248 C   0  0  0  0  0  0  0  0  0  0  0  0
   -2.3407    1.8814    0.9391 C   0  0  0  0  0  0  0  0  0  0  0  0
   -1.1299    2.1723    0.1012 C   0  0  0  0  0  0  0  0  0  0  0  0
   -0.7360    3.4664   -0.1834 C   0  0  0  0  0  0  0  0  0  0  0  0
    0.6728    3.5286   -1.1316 S   0  0  0  0  0  0  0  0  0  0  0  0
    0.7955    1.8289   -1.1638 C   0  0  0  0  0  0  0  0  0  0  0  0
    1.8114    1.2413   -1.8129 N   0  0  0  0  0  0  0  0  0  0  0  0
    1.7732   -0.0977   -1.7410 C   0  0  0  0  0  0  0  0  0  0  0  0
    2.9273   -0.8565   -2.3907 C   0  0  0  0  0  0  0  0  0  0  0  0
    4.0562   -1.1694   -1.4817 N   0  0  0  0  0  0  0  0  0  0  0  0
    4.6909    0.0645   -0.9646 C   0  0  0  0  0  0  0  0  0  0  0  0
    6.1234   -0.1966   -0.4773 C   0  0  0  0  0  0  0  0  0  0  0  0
    7.0004   -0.6233   -1.5290 O   0  0  0  0  0  0  0  0  0  0  0  0
    6.3162   -1.2940   -2.5960 C   0  0  0  0  0  0  0  0  0  0  0  0
    5.0558   -2.0398   -2.1322 C   0  0  0  0  0  0  0  0  0  0  0  0
    0.8317   -0.8301   -1.1101 N   0  0  0  0  0  0  0  0  0  0  0  0
   -0.1775   -0.2119   -0.4550 C   0  0  0  0  0  0  0  0  0  0  0  0
   -1.1425   -0.9723    0.2302 N   0  0  0  0  0  0  0  0  0  0  0  0
   -0.6399   -1.3402    1.5621 C   0  0  0  0  0  0  0  0  0  0  0  0
   -1.8064   -1.8847    2.3954 C   0  0  0  0  0  0  0  0  0  0  0  0
   -2.6372   -2.8982    1.6435 C   0  0  0  0  0  0  0  0  0  0  0  0
   -3.5534   -3.7020    2.3356 C   0  0  0  0  0  0  0  0  0  0  0  0
   -4.3518   -4.6171    1.6482 C   0  0  0  0  0  0  0  0  0  0  0  0
   -4.2451   -4.7305    0.2635 C   0  0  0  0  0  0  0  0  0  0  0  0
   -3.3439   -3.9267   -0.4357 C   0  0  0  0  0  0  0  0  0  0  0  0
   -2.5441   -2.9938    0.2408 C   0  0  0  0  0  0  0  0  0  0  0  0
   -1.5463   -2.1579   -0.5412 C   0  0  0  0  0  0  0  0  0  0  0  0
   -0.2238    1.1989   -0.4680 C   0  0  0  0  0  0  0  0  0  0  0  0
   -1.4552    4.7074    0.2458 C   0  0  0  0  0  0  0  0  0  0  0  0
   -4.0079    5.3819    2.5220 H   0  0  0  0  0  0  0  0  0  0  0  0
   -2.7706    6.4821    1.9028 H   0  0  0  0  0  0  0  0  0  0  0  0
   -3.9761    5.7953    0.7984 H   0  0  0  0  0  0  0  0  0  0  0  0
   -1.8275    4.2198    2.3233 H   0  0  0  0  0  0  0  0  0  0  0  0
   -3.9284    2.9200    1.9534 H   0  0  0  0  0  0  0  0  0  0  0  0
   -3.8580    3.2625    0.2298 H   0  0  0  0  0  0  0  0  0  0  0  0
   -1.9992    1.5393    1.9250 H   0  0  0  0  0  0  0  0  0  0  0  0
   -2.9332    1.0685    0.4995 H   0  0  0  0  0  0  0  0  0  0  0  0
    2.5068   -1.7963   -2.7732 H   0  0  0  0  0  0  0  0  0  0  0  0
    3.2788   -0.2920   -3.2648 H   0  0  0  0  0  0  0  0  0  0  0  0
    4.0970    0.4589   -0.1344 H   0  0  0  0  0  0  0  0  0  0  0  0
    4.7358    0.8319   -1.7479 H   0  0  0  0  0  0  0  0  0  0  0  0
    6.1358   -0.9594    0.3097 H   0  0  0  0  0  0  0  0  0  0  0  0
    6.5475    0.7173   -0.0483 H   0  0  0  0  0  0  0  0  0  0  0  0
    6.0663   -0.5531   -3.3634 H   0  0  0  0  0  0  0  0  0  0  0  0
    7.0237   -1.9983   -3.0440 H   0  0  0  0  0  0  0  0  0  0  0  0
    5.3570   -2.7844   -1.3853 H   0  0  0  0  0  0  0  0  0  0  0  0
    4.6250   -2.6026   -2.9687 H   0  0  0  0  0  0  0  0  0  0  0  0
    0.1548   -2.0968    1.4823 H   0  0  0  0  0  0  0  0  0  0  0  0
   -0.2194   -0.4726    2.0867 H   0  0  0  0  0  0  0  0  0  0  0  0
   -1.4098   -2.3297    3.3156 H   0  0  0  0  0  0  0  0  0  0  0  0
   -2.4646   -1.0531    2.6788 H   0  0  0  0  0  0  0  0  0  0  0  0
   -3.6500   -3.6168    3.4156 H   0  0  0  0  0  0  0  0  0  0  0  0
   -5.0588   -5.2353    2.1949 H   0  0  0  0  0  0  0  0  0  0  0  0
   -4.8638   -5.4432   -0.2766 H   0  0  0  0  0  0  0  0  0  0  0  0
   -3.2677   -4.0295   -1.5161 H   0  0  0  0  0  0  0  0  0  0  0  0
   -0.6919   -2.8054   -0.7806 H   0  0  0  0  0  0  0  0  0  0  0  0
   -2.0161   -1.8311   -1.4776 H   0  0  0  0  0  0  0  0  0  0  0  0
   -0.7429    5.4845    0.5556 H   0  0  0  0  0  0  0  0  0  0  0  0
   -2.0184    5.1000   -0.6126 H   0  0  0  0  0  0  0  0  0  0  0  0
  1  2  1  0
  2  3  1  0
  3  4  1  0
  4  5  1  0
  5  6  2  0
  6  7  1  0
  7  8  1  0
  8  9  2  0
  9 10  1  0
 10 11  1  0
 11 12  1  0
 12 13  1  0
 13 14  1  0
 14 15  1  0
 15 16  1  0
 16 17  1  0
 10 18  2  0
 18 19  1  0
 19 20  1  0
 20 21  1  0
 21 22  1  0
 22 23  1  0
 23 24  2  0
 24 25  1  0
 25 26  2  0
 26 27  1  0
 27 28  2  0
 28 29  1  0
 19 30  2  0
  6 31  1  0
 31  2  1  0
 30  5  1  0
 30  8  1  0
 17 12  1  0
 29 20  1  0
 28 23  1  0
  1 32  1  0
  1 33  1  0
  1 34  1  0
  2 35  1  0
  3 36  1  0
  3 37  1  0
  4 38  1  0
  4 39  1  0
 11 40  1  0
 11 41  1  0
 13 42  1  0
 13 43  1  0
 14 44  1  0
 14 45  1  0
 16 46  1  0
 16 47  1  0
 17 48  1  0
 17 49  1  0
 21 50  1  0
 21 51  1  0
 22 52  1  0
 22 53  1  0
 24 54  1  0
 25 55  1  0
 26 56  1  0
 27 57  1  0
 29 58  1  0
 29 59  1  0
 31 60  1  0
 31 61  1  0
M  END
$$$$
