
     RDKit          3D

 42 44  0  0  0  0  0  0  0  0999 V2000
    6.1230   -3.8060    1.8918 N   0  0  0  0  0  0  0  0  0  0  0  0
    5.1871   -3.1370    2.0453 C   0  0  0  0  0  0  0  0  0  0  0  0
    4.0317   -2.3186    2.2175 C   0  0  0  0  0  0  0  0  0  0  0  0
    3.8249   -1.7881    3.5254 C   0  0  0  0  0  0  0  0  0  0  0  0
    3.6456   -1.3530    4.5866 N   0  0  0  0  0  0  0  0  0  0  0  0
    3.1780   -2.0728    1.1906 C   0  0  0  0  0  0  0  0  0  0  0  0
    1.9643   -1.2603    1.3374 C   0  0  0  0  0  0  0  0  0  0  0  0
    1.1738   -0.8992    0.3084 C   0  0  0  0  0  0  0  0  0  0  0  0
   -0.0219   -0.0984    0.5301 C   0  0  0  0  0  0  0  0  0  0  0  0
   -0.7949    0.4202   -0.4486 C   0  0  0  0  0  0  0  0  0  0  0  0
   -1.9581    1.1785   -0.2064 N   0  0  0  0  0  0  0  0  0  0  0  0
   -2.2320    1.8039    1.1042 C   0  0  0  0  0  0  0  0  0  0  0  0
   -3.1077    3.0446    0.9598 C   0  0  0  0  0  0  0  0  0  0  0  0
   -4.4559    2.7189    0.3259 C   0  0  0  0  0  0  0  0  0  0  0  0
   -4.3715    1.5365   -0.6337 C   0  0  0  0  0  0  0  0  0  0  0  0
   -2.9817    1.4000   -1.2479 C   0  0  0  0  0  0  0  0  0  0  0  0
   -0.3883    0.2072   -1.9024 C   0  0  0  0  0  0  0  0  0  0  0  0
    1.0856   -0.1610   -2.0808 C   0  0  0  0  0  0  0  0  0  0  0  0
    1.4789   -1.2856   -1.1220 C   0  0  0  0  0  0  0  0  0  0  0  0
    2.9567   -1.6523   -1.2976 C   0  0  0  0  0  0  0  0  0  0  0  0
    3.3974   -2.6316   -0.2105 C   0  0  0  0  0  0  0  0  0  0  0  0
    1.6903   -0.9264    2.3377 H   0  0  0  0  0  0  0  0  0  0  0  0
   -0.3002    0.0604    1.5680 H   0  0  0  0  0  0  0  0  0  0  0  0
   -2.7132    1.0710    1.7628 H   0  0  0  0  0  0  0  0  0  0  0  0
   -1.2948    2.1172    1.5793 H   0  0  0  0  0  0  0  0  0  0  0  0
   -3.2627    3.5172    1.9362 H   0  0  0  0  0  0  0  0  0  0  0  0
   -2.5863    3.7813    0.3348 H   0  0  0  0  0  0  0  0  0  0  0  0
   -4.8252    3.6067   -0.2013 H   0  0  0  0  0  0  0  0  0  0  0  0
   -5.1943    2.4938    1.1047 H   0  0  0  0  0  0  0  0  0  0  0  0
   -4.6153    0.6150   -0.0891 H   0  0  0  0  0  0  0  0  0  0  0  0
   -5.1269    1.6442   -1.4202 H   0  0  0  0  0  0  0  0  0  0  0  0
   -3.0116    0.5545   -1.9443 H   0  0  0  0  0  0  0  0  0  0  0  0
   -2.7270    2.2970   -1.8247 H   0  0  0  0  0  0  0  0  0  0  0  0
   -0.5723    1.1190   -2.4833 H   0  0  0  0  0  0  0  0  0  0  0  0
   -1.0128   -0.5872   -2.3301 H   0  0  0  0  0  0  0  0  0  0  0  0
    1.7067    0.7272   -1.9015 H   0  0  0  0  0  0  0  0  0  0  0  0
    1.2614   -0.4655   -3.1196 H   0  0  0  0  0  0  0  0  0  0  0  0
    0.8735   -2.1718   -1.3623 H   0  0  0  0  0  0  0  0  0  0  0  0
    3.1127   -2.1039   -2.2847 H   0  0  0  0  0  0  0  0  0  0  0  0
    3.5853   -0.7524   -1.2567 H   0  0  0  0  0  0  0  0  0  0  0  0
    4.4489   -2.8773   -0.3934 H   0  0  0  0  0  0  0  0  0  0  0  0
    2.8289   -3.5657   -0.3085 H   0  0  0  0  0  0  0  0  0  0  0  0
  1  2  3  0
  2  3  1  0
  3  4  1  0
  4  5  3  0
  3  6  2  3
  6  7  1  0
  7  8  2  0
  8  9  1  0
  9 10  2  0
 10 11  1  0
 11 12  1  0
 12 13  1  0
 13 14  1  0
 14 15  1  0
 15 16  1  0
 10 17  1  0
 17 18  1  0
 18 19  1  0
 19 20  1  0
 20 21  1  0
 21  6  1  0
 19  8  1  0
 16 11  1  0
  7 22  1  0
  9 23  1  0
 12 24  1  0
 12 25  1  0
 13 26  1  0
 13 27  1  0
 14 28  1  0
 14 29  1  0
 15 30  1  0
 15 31  1  0
 16 32  1  0
 16 33  1  0
 17 34  1  0
 17 35  1  0
 18 36  1  0
 18 37  1  0
 19 38  1  0
 20 39  1  0
 20 40  1  0
 21 41  1  0
 21 42  1  0
M  END
$$$$
