
     RDKit          3D

 42 45  0  0  0  0  0  0  0  0999 V2000
    1.7663   -0.0708   -2.2025 O   0  0  0  0  0  0  0  0  0  0  0  0
    0.7338    0.4100   -1.7542 C   0  0  0  0  0  0  0  0  0  0  0  0
   -0.3374    0.6047   -2.5744 N   0  0  0  0  0  0  0  0  0  0  0  0
   -1.6414    0.5934   -2.1858 C   0  0  0  0  0  0  0  0  0  0  0  0
   -2.5115    0.3636   -3.0237 O   0  0  0  0  0  0  0  0  0  0  0  0
   -1.8957    0.8023   -0.8465 N   0  0  0  0  0  0  0  0  0  0  0  0
   -3.2923    0.8851   -0.4178 C   0  0  0  0  0  0  0  0  0  0  0  0
   -3.8110   -0.3813    0.2911 C   0  0  0  0  0  0  0  0  0  0  0  0
   -3.8219   -1.6385   -0.5686 C   0  0  0  0  0  0  0  0  0  0  0  0
   -5.1775   -1.5794   -1.2251 C   0  0  0  0  0  0  0  0  0  0  0  0
   -6.0329   -1.0113   -0.1155 C   0  0  0  0  0  0  0  0  0  0  0  0
   -5.1886   -0.1495    0.6617 O   0  0  0  0  0  0  0  0  0  0  0  0
   -0.9151    0.9211    0.1273 C   0  0  0  0  0  0  0  0  0  0  0  0
   -1.1798    1.1309    1.3102 O   0  0  0  0  0  0  0  0  0  0  0  0
    0.4919    0.7603   -0.3388 C   0  0  0  0  0  0  0  0  0  0  0  0
    1.4552    0.9298    0.5903 C   0  0  0  0  0  0  0  0  0  0  0  0
    2.8760    0.8955    0.4534 C   0  0  0  0  0  0  0  0  0  0  0  0
    3.6114    1.4991   -0.5415 C   0  0  0  0  0  0  0  0  0  0  0  0
    4.9363    1.2488   -0.2964 N   0  0  0  0  0  0  0  0  0  0  0  0
    5.0805    0.5398    0.8741 C   0  0  0  0  0  0  0  0  0  0  0  0
    6.2394    0.0922    1.5200 C   0  0  0  0  0  0  0  0  0  0  0  0
    6.0832   -0.6137    2.7164 C   0  0  0  0  0  0  0  0  0  0  0  0
    4.8181   -0.8623    3.2427 C   0  0  0  0  0  0  0  0  0  0  0  0
    3.6694   -0.4100    2.5828 C   0  0  0  0  0  0  0  0  0  0  0  0
    3.7977    0.3065    1.3736 C   0  0  0  0  0  0  0  0  0  0  0  0
   -0.1885    0.3230   -3.5338 H   0  0  0  0  0  0  0  0  0  0  0  0
   -3.3911    1.7344    0.2715 H   0  0  0  0  0  0  0  0  0  0  0  0
   -3.9399    1.1333   -1.2674 H   0  0  0  0  0  0  0  0  0  0  0  0
   -3.2378   -0.5555    1.2078 H   0  0  0  0  0  0  0  0  0  0  0  0
   -3.7812   -2.5208    0.0829 H   0  0  0  0  0  0  0  0  0  0  0  0
   -2.9944   -1.7194   -1.2759 H   0  0  0  0  0  0  0  0  0  0  0  0
   -5.1539   -0.8886   -2.0756 H   0  0  0  0  0  0  0  0  0  0  0  0
   -5.5345   -2.5487   -1.5828 H   0  0  0  0  0  0  0  0  0  0  0  0
   -6.4004   -1.8026    0.5465 H   0  0  0  0  0  0  0  0  0  0  0  0
   -6.8896   -0.4456   -0.4922 H   0  0  0  0  0  0  0  0  0  0  0  0
    1.1372    1.1262    1.6155 H   0  0  0  0  0  0  0  0  0  0  0  0
    3.3191    2.0676   -1.4139 H   0  0  0  0  0  0  0  0  0  0  0  0
    5.7028    1.5509   -0.8811 H   0  0  0  0  0  0  0  0  0  0  0  0
    7.2266    0.2832    1.1124 H   0  0  0  0  0  0  0  0  0  0  0  0
    6.9638   -0.9747    3.2427 H   0  0  0  0  0  0  0  0  0  0  0  0
    4.7190   -1.4147    4.1738 H   0  0  0  0  0  0  0  0  0  0  0  0
    2.6884   -0.6145    3.0014 H   0  0  0  0  0  0  0  0  0  0  0  0
  1  2  2  0
  2  3  1  0
  3  4  1  0
  4  5  2  0
  4  6  1  0
  6  7  1  0
  7  8  1  0
  8  9  1  0
  9 10  1  0
 10 11  1  0
 11 12  1  0
  6 13  1  0
 13 14  2  0
 13 15  1  0
 15 16  2  3
 16 17  1  0
 17 18  2  0
 18 19  1  0
 19 20  1  0
 20 21  2  0
 21 22  1  0
 22 23  2  0
 23 24  1  0
 24 25  2  0
 15  2  1  0
 25 17  1  0
 12  8  1  0
 25 20  1  0
  3 26  1  0
  7 27  1  0
  7 28  1  0
  8 29  1  0
  9 30  1  0
  9 31  1  0
 10 32  1  0
 10 33  1  0
 11 34  1  0
 11 35  1  0
 16 36  1  0
 18 37  1  0
 19 38  1  0
 21 39  1  0
 22 40  1  0
 23 41  1  0
 24 42  1  0
M  END
$$$$
