
     RDKit          3D

 35 36  0  0  0  0  0  0  0  0999 V2000
   -5.8655    0.3772   -0.1850 C   0  0  0  0  0  0  0  0  0  0  0  0
   -4.3841    0.2267   -0.0061 C   0  0  0  0  0  0  0  0  0  0  0  0
   -3.4987    0.7079   -0.9760 C   0  0  0  0  0  0  0  0  0  0  0  0
   -2.1160    0.5429   -0.8289 C   0  0  0  0  0  0  0  0  0  0  0  0
   -1.5981   -0.1295    0.2831 C   0  0  0  0  0  0  0  0  0  0  0  0
   -0.1934   -0.3105    0.4783 N   0  0  0  0  0  0  0  0  0  0  0  0
    0.2589   -0.6171    1.7241 N   0  0  0  0  0  0  0  0  0  0  0  0
    1.5814   -0.4766    1.6568 C   0  0  0  0  0  0  0  0  0  0  0  0
    2.4004   -0.6328    2.8849 C   0  0  0  0  0  0  0  0  0  0  0  0
    2.0178   -0.1924    0.3386 C   0  0  0  0  0  0  0  0  0  0  0  0
    3.3426   -0.0170   -0.0316 N   0  0  0  0  0  0  0  0  0  0  0  0
    3.8219    0.5753   -1.1841 C   0  0  0  0  0  0  0  0  0  0  0  0
    3.1441    1.0685   -2.0826 O   0  0  0  0  0  0  0  0  0  0  0  0
    5.3366    0.5396   -1.3178 C   0  0  0  0  0  0  0  0  0  0  0  0
    6.1499    0.5832    0.2657 Cl  0  0  0  0  0  0  0  0  0  0  0  0
    0.8656   -0.2352   -0.4273 C   0  0  0  0  0  0  0  0  0  0  0  0
    0.6934   -0.3156   -1.9030 C   0  0  0  0  0  0  0  0  0  0  0  0
   -2.4880   -0.6009    1.2621 C   0  0  0  0  0  0  0  0  0  0  0  0
   -3.8681   -0.4359    1.1109 C   0  0  0  0  0  0  0  0  0  0  0  0
   -6.3713    0.4460    0.7839 H   0  0  0  0  0  0  0  0  0  0  0  0
   -6.1011    1.2918   -0.7393 H   0  0  0  0  0  0  0  0  0  0  0  0
   -6.2652   -0.4816   -0.7327 H   0  0  0  0  0  0  0  0  0  0  0  0
   -3.8788    1.2309   -1.8514 H   0  0  0  0  0  0  0  0  0  0  0  0
   -1.4782    0.9922   -1.5813 H   0  0  0  0  0  0  0  0  0  0  0  0
    1.7768   -0.8079    3.7678 H   0  0  0  0  0  0  0  0  0  0  0  0
    3.0844   -1.4811    2.7804 H   0  0  0  0  0  0  0  0  0  0  0  0
    2.9934    0.2696    3.0653 H   0  0  0  0  0  0  0  0  0  0  0  0
    4.0280   -0.1535    0.7056 H   0  0  0  0  0  0  0  0  0  0  0  0
    5.6712    1.4129   -1.8838 H   0  0  0  0  0  0  0  0  0  0  0  0
    5.6316   -0.3760   -1.8370 H   0  0  0  0  0  0  0  0  0  0  0  0
   -0.1897   -0.9011   -2.1777 H   0  0  0  0  0  0  0  0  0  0  0  0
    0.6140    0.6802   -2.3477 H   0  0  0  0  0  0  0  0  0  0  0  0
    1.5395   -0.8370   -2.3629 H   0  0  0  0  0  0  0  0  0  0  0  0
   -2.1207   -1.1165    2.1479 H   0  0  0  0  0  0  0  0  0  0  0  0
   -4.5344   -0.8268    1.8767 H   0  0  0  0  0  0  0  0  0  0  0  0
  1  2  1  0
  2  3  2  0
  3  4  1  0
  4  5  2  0
  5  6  1  0
  6  7  1  0
  7  8  2  0
  8  9  1  0
  8 10  1  0
 10 11  1  0
 11 12  1  0
 12 13  2  0
 12 14  1  0
 14 15  1  0
 10 16  2  0
 16 17  1  0
  5 18  1  0
 18 19  2  0
 19  2  1  0
 16  6  1  0
  1 20  1  0
  1 21  1  0
  1 22  1  0
  3 23  1  0
  4 24  1  0
  9 25  1  0
  9 26  1  0
  9 27  1  0
 11 28  1  0
 14 29  1  0
 14 30  1  0
 17 31  1  0
 17 32  1  0
 17 33  1  0
 18 34  1  0
 19 35  1  0
M  END
$$$$
