
     RDKit          3D

 49 52  0  0  0  0  0  0  0  0999 V2000
   -7.6810   -2.9875   -1.4013 C   0  0  0  0  0  0  0  0  0  0  0  0
   -7.2416   -1.6418   -1.5310 O   0  0  0  0  0  0  0  0  0  0  0  0
   -6.4298   -1.1580   -0.5423 C   0  0  0  0  0  0  0  0  0  0  0  0
   -5.9875   -1.8639    0.5765 C   0  0  0  0  0  0  0  0  0  0  0  0
   -5.1544   -1.2454    1.5165 C   0  0  0  0  0  0  0  0  0  0  0  0
   -4.7589    0.0888    1.3534 C   0  0  0  0  0  0  0  0  0  0  0  0
   -3.8424    0.7513    2.3485 C   0  0  0  0  0  0  0  0  0  0  0  0
   -2.4735    0.6906    1.8985 N   0  0  0  0  0  0  0  0  0  0  0  0
   -1.8489    1.7546    1.2846 C   0  0  0  0  0  0  0  0  0  0  0  0
   -2.3808    2.8603    1.2082 O   0  0  0  0  0  0  0  0  0  0  0  0
   -0.5271    1.4806    0.7319 C   0  0  0  0  0  0  0  0  0  0  0  0
    0.2936    2.3835    0.0587 C   0  0  0  0  0  0  0  0  0  0  0  0
    1.5010    1.7752   -0.3389 C   0  0  0  0  0  0  0  0  0  0  0  0
    1.5606    0.4704    0.0320 C   0  0  0  0  0  0  0  0  0  0  0  0
    0.2188   -0.0828    0.8506 S   0  0  0  0  0  0  0  0  0  0  0  0
    2.8242   -0.1686   -0.3739 C   0  0  0  0  0  0  0  0  0  0  0  0
    3.6525    0.9891   -0.8698 N   0  0  0  0  0  0  0  0  0  0  0  0
    4.7043    1.3330    0.1045 C   0  0  0  0  0  0  0  0  0  0  0  0
    5.7907    0.2808    0.2070 C   0  0  0  0  0  0  0  0  0  0  0  0
    6.4546   -0.1781   -0.9408 C   0  0  0  0  0  0  0  0  0  0  0  0
    7.4670   -1.1336   -0.8419 C   0  0  0  0  0  0  0  0  0  0  0  0
    7.8319   -1.6360    0.4054 C   0  0  0  0  0  0  0  0  0  0  0  0
    7.1865   -1.1826    1.5543 C   0  0  0  0  0  0  0  0  0  0  0  0
    6.1731   -0.2270    1.4573 C   0  0  0  0  0  0  0  0  0  0  0  0
    2.7313    2.1685   -1.0578 C   0  0  0  0  0  0  0  0  0  0  0  0
   -5.1991    0.7889    0.2237 C   0  0  0  0  0  0  0  0  0  0  0  0
   -6.0295    0.1688   -0.7125 C   0  0  0  0  0  0  0  0  0  0  0  0
   -6.8351   -3.6826   -1.4196 H   0  0  0  0  0  0  0  0  0  0  0  0
   -8.2836   -3.1209   -0.4968 H   0  0  0  0  0  0  0  0  0  0  0  0
   -8.3176   -3.2158   -2.2616 H   0  0  0  0  0  0  0  0  0  0  0  0
   -6.2698   -2.8971    0.7478 H   0  0  0  0  0  0  0  0  0  0  0  0
   -4.8179   -1.8164    2.3791 H   0  0  0  0  0  0  0  0  0  0  0  0
   -4.1546    1.7872    2.5218 H   0  0  0  0  0  0  0  0  0  0  0  0
   -3.8900    0.2342    3.3132 H   0  0  0  0  0  0  0  0  0  0  0  0
   -2.0365   -0.2171    1.8143 H   0  0  0  0  0  0  0  0  0  0  0  0
    0.0118    3.4143   -0.1234 H   0  0  0  0  0  0  0  0  0  0  0  0
    2.6543   -0.8565   -1.2094 H   0  0  0  0  0  0  0  0  0  0  0  0
    3.2873   -0.7248    0.4469 H   0  0  0  0  0  0  0  0  0  0  0  0
    5.2080    2.2575   -0.2089 H   0  0  0  0  0  0  0  0  0  0  0  0
    4.2702    1.5330    1.0933 H   0  0  0  0  0  0  0  0  0  0  0  0
    6.1761    0.2074   -1.9197 H   0  0  0  0  0  0  0  0  0  0  0  0
    7.9700   -1.4846   -1.7390 H   0  0  0  0  0  0  0  0  0  0  0  0
    8.6207   -2.3796    0.4819 H   0  0  0  0  0  0  0  0  0  0  0  0
    7.4737   -1.5724    2.5274 H   0  0  0  0  0  0  0  0  0  0  0  0
    5.6827    0.1170    2.3650 H   0  0  0  0  0  0  0  0  0  0  0  0
    2.5246    2.2825   -2.1275 H   0  0  0  0  0  0  0  0  0  0  0  0
    3.1486    3.1081   -0.6806 H   0  0  0  0  0  0  0  0  0  0  0  0
   -4.8933    1.8220    0.0648 H   0  0  0  0  0  0  0  0  0  0  0  0
   -6.3649    0.7254   -1.5842 H   0  0  0  0  0  0  0  0  0  0  0  0
  1  2  1  0
  2  3  1  0
  3  4  2  0
  4  5  1  0
  5  6  2  0
  6  7  1  0
  7  8  1  0
  8  9  1  0
  9 10  2  0
  9 11  1  0
 11 12  2  0
 12 13  1  0
 13 14  2  0
 14 15  1  0
 14 16  1  0
 16 17  1  0
 17 18  1  0
 18 19  1  0
 19 20  2  0
 20 21  1  0
 21 22  2  0
 22 23  1  0
 23 24  2  0
 17 25  1  0
  6 26  1  0
 26 27  2  0
 27  3  1  0
 15 11  1  0
 24 19  1  0
 25 13  1  0
  1 28  1  0
  1 29  1  0
  1 30  1  0
  4 31  1  0
  5 32  1  0
  7 33  1  0
  7 34  1  0
  8 35  1  0
 12 36  1  0
 16 37  1  0
 16 38  1  0
 18 39  1  0
 18 40  1  0
 20 41  1  0
 21 42  1  0
 22 43  1  0
 23 44  1  0
 24 45  1  0
 25 46  1  0
 25 47  1  0
 26 48  1  0
 27 49  1  0
M  END
$$$$
