
     RDKit          3D

 51 55  0  0  0  0  0  0  0  0999 V2000
   -1.4896    1.4611    0.6481 C   0  0  0  0  0  0  0  0  0  0  0  0
   -0.1409    1.8263    0.7405 C   0  0  0  0  0  0  0  0  0  0  0  0
    0.8211    0.9716    0.1809 C   0  0  0  0  0  0  0  0  0  0  0  0
    0.4564   -0.2207   -0.4560 C   0  0  0  0  0  0  0  0  0  0  0  0
   -0.9097   -0.5660   -0.5310 C   0  0  0  0  0  0  0  0  0  0  0  0
   -1.8908    0.2744    0.0245 C   0  0  0  0  0  0  0  0  0  0  0  0
   -3.3551   -0.1168   -0.0769 C   0  0  0  0  0  0  0  0  0  0  0  0
   -4.1163    0.7888   -1.0670 C   0  0  0  0  0  0  0  0  0  0  0  0
   -5.6234    0.8509   -0.8000 C   0  0  0  0  0  0  0  0  0  0  0  0
   -6.1458   -0.4327   -0.1700 C   0  0  0  0  0  0  0  0  0  0  0  0
   -5.4769   -0.7227    1.1750 C   0  0  0  0  0  0  0  0  0  0  0  0
   -4.0570   -0.1592    1.2884 C   0  0  0  0  0  0  0  0  0  0  0  0
    1.6535   -0.8468   -0.8985 C   0  0  0  0  0  0  0  0  0  0  0  0
    2.7036   -0.0164   -0.5635 C   0  0  0  0  0  0  0  0  0  0  0  0
    2.1993    1.0530    0.1275 N   0  0  0  0  0  0  0  0  0  0  0  0
    3.0357    2.0529    0.7680 C   0  0  0  0  0  0  0  0  0  0  0  0
    3.9750    1.4420    1.8070 C   0  0  0  0  0  0  0  0  0  0  0  0
    5.1592    0.6773    1.2046 C   0  0  0  0  0  0  0  0  0  0  0  0
    4.8308   -0.5331    0.4543 N   0  0  0  0  0  0  0  0  0  0  0  0
    4.1544   -0.2644   -0.8151 C   0  0  0  0  0  0  0  0  0  0  0  0
    4.3054   -1.4832   -1.7636 C   0  0  0  0  0  0  0  0  0  0  0  0
    3.3099   -2.6216   -1.4699 C   0  0  0  0  0  0  0  0  0  0  0  0
    1.8516   -2.1455   -1.6031 C   0  0  0  0  0  0  0  0  0  0  0  0
   -2.2330    2.1319    1.0742 H   0  0  0  0  0  0  0  0  0  0  0  0
    0.1350    2.7529    1.2319 H   0  0  0  0  0  0  0  0  0  0  0  0
   -1.1929   -1.4913   -1.0249 H   0  0  0  0  0  0  0  0  0  0  0  0
   -3.3977   -1.1407   -0.4766 H   0  0  0  0  0  0  0  0  0  0  0  0
   -3.9420    0.4127   -2.0839 H   0  0  0  0  0  0  0  0  0  0  0  0
   -3.7276    1.8148   -1.0630 H   0  0  0  0  0  0  0  0  0  0  0  0
   -6.1532    1.0568   -1.7369 H   0  0  0  0  0  0  0  0  0  0  0  0
   -5.8377    1.6925   -0.1291 H   0  0  0  0  0  0  0  0  0  0  0  0
   -7.2319   -0.3753   -0.0350 H   0  0  0  0  0  0  0  0  0  0  0  0
   -5.9616   -1.2696   -0.8555 H   0  0  0  0  0  0  0  0  0  0  0  0
   -5.4587   -1.8082    1.3311 H   0  0  0  0  0  0  0  0  0  0  0  0
   -6.0844   -0.3082    1.9887 H   0  0  0  0  0  0  0  0  0  0  0  0
   -3.4848   -0.7619    2.0046 H   0  0  0  0  0  0  0  0  0  0  0  0
   -4.1140    0.8504    1.7153 H   0  0  0  0  0  0  0  0  0  0  0  0
    2.3871    2.7856    1.2562 H   0  0  0  0  0  0  0  0  0  0  0  0
    3.5862    2.5767   -0.0216 H   0  0  0  0  0  0  0  0  0  0  0  0
    4.3823    2.2561    2.4194 H   0  0  0  0  0  0  0  0  0  0  0  0
    3.4169    0.7863    2.4875 H   0  0  0  0  0  0  0  0  0  0  0  0
    5.8118    0.3731    2.0318 H   0  0  0  0  0  0  0  0  0  0  0  0
    5.7655    1.3503    0.5855 H   0  0  0  0  0  0  0  0  0  0  0  0
    4.2437   -1.1510    1.0149 H   0  0  0  0  0  0  0  0  0  0  0  0
    4.6149    0.5950   -1.3185 H   0  0  0  0  0  0  0  0  0  0  0  0
    4.1425   -1.1450   -2.7964 H   0  0  0  0  0  0  0  0  0  0  0  0
    5.3323   -1.8681   -1.7289 H   0  0  0  0  0  0  0  0  0  0  0  0
    3.4839   -3.4546   -2.1605 H   0  0  0  0  0  0  0  0  0  0  0  0
    3.4830   -3.0051   -0.4566 H   0  0  0  0  0  0  0  0  0  0  0  0
    1.1795   -2.9107   -1.1993 H   0  0  0  0  0  0  0  0  0  0  0  0
    1.6045   -2.0146   -2.6636 H   0  0  0  0  0  0  0  0  0  0  0  0
  1  2  2  0
  2  3  1  0
  3  4  2  0
  4  5  1  0
  5  6  2  0
  6  7  1  0
  7  8  1  0
  8  9  1  0
  9 10  1  0
 10 11  1  0
 11 12  1  0
  4 13  1  0
 13 14  2  0
 14 15  1  0
 15 16  1  0
 16 17  1  0
 17 18  1  0
 18 19  1  0
 19 20  1  0
 20 21  1  0
 21 22  1  0
 22 23  1  0
  6  1  1  0
 12  7  1  0
 23 13  1  0
 15  3  1  0
 20 14  1  0
  1 24  1  0
  2 25  1  0
  5 26  1  0
  7 27  1  0
  8 28  1  0
  8 29  1  0
  9 30  1  0
  9 31  1  0
 10 32  1  0
 10 33  1  0
 11 34  1  0
 11 35  1  0
 12 36  1  0
 12 37  1  0
 16 38  1  0
 16 39  1  0
 17 40  1  0
 17 41  1  0
 18 42  1  0
 18 43  1  0
 19 44  1  0
 20 45  1  0
 21 46  1  0
 21 47  1  0
 22 48  1  0
 22 49  1  0
 23 50  1  0
 23 51  1  0
M  END
$$$$
