
     RDKit          3D

 45 47  0  0  0  0  0  0  0  0999 V2000
   -7.7107   -1.5792   -0.4198 N   0  0  0  0  0  0  0  0  0  0  0  0
   -7.5837    0.0034    0.1440 S   0  0  0  0  0  6  0  0  0  0  0  0
   -8.1288    0.8349   -0.9038 O   0  0  0  0  0  0  0  0  0  0  0  0
   -8.0793    0.0312    1.4992 O   0  0  0  0  0  0  0  0  0  0  0  0
   -5.8250    0.2226    0.1824 C   0  0  0  0  0  0  0  0  0  0  0  0
   -5.1167   -0.0946    1.3417 C   0  0  0  0  0  0  0  0  0  0  0  0
   -3.7311    0.0863    1.3709 C   0  0  0  0  0  0  0  0  0  0  0  0
   -3.0495    0.6042    0.2595 C   0  0  0  0  0  0  0  0  0  0  0  0
   -1.6470    0.7249    0.3665 N   0  0  0  0  0  0  0  0  0  0  0  0
   -0.7379    1.5176   -0.3256 C   0  0  0  0  0  0  0  0  0  0  0  0
   -1.1232    2.9219   -1.1656 S   0  0  0  0  0  0  0  0  0  0  0  0
    0.5824    1.0410   -0.1894 N   0  0  0  0  0  0  0  0  0  0  0  0
    0.8806   -0.3667    0.1393 C   0  0  0  0  0  0  0  0  0  0  0  0
    2.1866   -0.8860   -0.4928 C   0  0  0  0  0  0  0  0  0  0  0  0
    3.3295   -0.0465   -0.1119 N   0  0  0  0  0  0  0  0  0  0  0  0
    4.6305   -0.5270   -0.1457 C   0  0  0  0  0  0  0  0  0  0  0  0
    4.9770   -1.7011   -0.8346 C   0  0  0  0  0  0  0  0  0  0  0  0
    6.2909   -2.1865   -0.8626 C   0  0  0  0  0  0  0  0  0  0  0  0
    7.3001   -1.5071   -0.1923 C   0  0  0  0  0  0  0  0  0  0  0  0
    6.9919   -0.3456    0.5039 C   0  0  0  0  0  0  0  0  0  0  0  0
    5.6755    0.1323    0.5243 C   0  0  0  0  0  0  0  0  0  0  0  0
    3.0657    1.3880    0.0965 C   0  0  0  0  0  0  0  0  0  0  0  0
    1.7598    1.8414   -0.5851 C   0  0  0  0  0  0  0  0  0  0  0  0
   -3.7739    0.8986   -0.8991 C   0  0  0  0  0  0  0  0  0  0  0  0
   -5.1619    0.7239   -0.9378 C   0  0  0  0  0  0  0  0  0  0  0  0
   -8.1785   -1.5664   -1.3280 H   0  0  0  0  0  0  0  0  0  0  0  0
   -6.8166   -2.0663   -0.4587 H   0  0  0  0  0  0  0  0  0  0  0  0
   -5.6315   -0.4735    2.2227 H   0  0  0  0  0  0  0  0  0  0  0  0
   -3.1957   -0.1621    2.2846 H   0  0  0  0  0  0  0  0  0  0  0  0
   -1.2523    0.3400    1.2147 H   0  0  0  0  0  0  0  0  0  0  0  0
    0.0516   -1.0074   -0.1800 H   0  0  0  0  0  0  0  0  0  0  0  0
    0.9524   -0.4225    1.2323 H   0  0  0  0  0  0  0  0  0  0  0  0
    2.3273   -1.9178   -0.1494 H   0  0  0  0  0  0  0  0  0  0  0  0
    2.0910   -0.8964   -1.5854 H   0  0  0  0  0  0  0  0  0  0  0  0
    4.2297   -2.2581   -1.3917 H   0  0  0  0  0  0  0  0  0  0  0  0
    6.5197   -3.0945   -1.4141 H   0  0  0  0  0  0  0  0  0  0  0  0
    8.3198   -1.8809   -0.2115 H   0  0  0  0  0  0  0  0  0  0  0  0
    7.7701    0.1919    1.0389 H   0  0  0  0  0  0  0  0  0  0  0  0
    5.4784    1.0301    1.1036 H   0  0  0  0  0  0  0  0  0  0  0  0
    3.8773    2.0033   -0.3104 H   0  0  0  0  0  0  0  0  0  0  0  0
    2.9987    1.5790    1.1744 H   0  0  0  0  0  0  0  0  0  0  0  0
    1.5893    2.8963   -0.3478 H   0  0  0  0  0  0  0  0  0  0  0  0
    1.8582    1.7486   -1.6740 H   0  0  0  0  0  0  0  0  0  0  0  0
   -3.2829    1.2449   -1.8032 H   0  0  0  0  0  0  0  0  0  0  0  0
   -5.7077    0.9797   -1.8438 H   0  0  0  0  0  0  0  0  0  0  0  0
  1  2  1  0
  2  3  2  0
  2  4  2  0
  2  5  1  0
  5  6  2  0
  6  7  1  0
  7  8  2  0
  8  9  1  0
  9 10  1  0
 10 11  2  0
 10 12  1  0
 12 13  1  0
 13 14  1  0
 14 15  1  0
 15 16  1  0
 16 17  2  0
 17 18  1  0
 18 19  2  0
 19 20  1  0
 20 21  2  0
 15 22  1  0
 22 23  1  0
  8 24  1  0
 24 25  2  0
 25  5  1  0
 23 12  1  0
 21 16  1  0
  1 26  1  0
  1 27  1  0
  6 28  1  0
  7 29  1  0
  9 30  1  0
 13 31  1  0
 13 32  1  0
 14 33  1  0
 14 34  1  0
 17 35  1  0
 18 36  1  0
 19 37  1  0
 20 38  1  0
 21 39  1  0
 22 40  1  0
 22 41  1  0
 23 42  1  0
 23 43  1  0
 24 44  1  0
 25 45  1  0
M  END
$$$$
