
     RDKit          3D

 36 37  0  0  0  0  0  0  0  0999 V2000
    1.3950   -2.1240    0.6511 O   0  0  0  0  0  0  0  0  0  0  0  0
    0.8162   -1.3622   -0.1204 C   0  0  0  0  0  0  0  0  0  0  0  0
   -0.0062   -1.8768   -1.3043 C   0  0  0  0  0  0  0  0  0  0  0  0
   -1.4167   -1.7290   -1.1149 O   0  0  0  0  0  0  0  0  0  0  0  0
   -1.9053   -0.4988   -1.3895 C   0  0  0  0  0  0  0  0  0  0  0  0
   -1.2856    0.4795   -1.7721 O   0  0  0  0  0  0  0  0  0  0  0  0
   -3.3386   -0.4989   -1.0946 C   0  0  0  0  0  0  0  0  0  0  0  0
   -4.2496   -0.9873   -2.0365 C   0  0  0  0  0  0  0  0  0  0  0  0
   -3.7465   -1.6144   -3.5673 Cl  0  0  0  0  0  0  0  0  0  0  0  0
   -5.6184   -0.9731   -1.7502 C   0  0  0  0  0  0  0  0  0  0  0  0
   -6.0756   -0.4669   -0.5320 C   0  0  0  0  0  0  0  0  0  0  0  0
   -5.1641    0.0269    0.4038 C   0  0  0  0  0  0  0  0  0  0  0  0
   -3.7948    0.0131    0.1246 C   0  0  0  0  0  0  0  0  0  0  0  0
   -2.7206    0.6320    1.3269 Cl  0  0  0  0  0  0  0  0  0  0  0  0
    0.8274    0.0103   -0.0012 N   0  0  0  0  0  0  0  0  0  0  0  0
    1.6059    0.7025    1.0085 C   0  0  0  0  0  0  0  0  0  0  0  0
    2.8861    1.3322    0.4293 C   0  0  0  0  0  0  0  0  0  0  0  0
    3.6724    2.0976    1.4817 C   0  0  0  0  0  0  0  0  0  0  0  0
    4.5611    1.0288    2.0683 C   0  0  0  0  0  0  0  0  0  0  0  0
    4.8800    0.1807    0.8562 C   0  0  0  0  0  0  0  0  0  0  0  0
    3.7788    0.3088   -0.0541 O   0  0  0  0  0  0  0  0  0  0  0  0
    0.2001   -2.9454   -1.4205 H   0  0  0  0  0  0  0  0  0  0  0  0
    0.3263   -1.3886   -2.2308 H   0  0  0  0  0  0  0  0  0  0  0  0
   -6.3375   -1.3443   -2.4766 H   0  0  0  0  0  0  0  0  0  0  0  0
   -7.1405   -0.4437   -0.3168 H   0  0  0  0  0  0  0  0  0  0  0  0
   -5.5291    0.4230    1.3498 H   0  0  0  0  0  0  0  0  0  0  0  0
    0.3410    0.5604   -0.7090 H   0  0  0  0  0  0  0  0  0  0  0  0
    0.9573    1.4858    1.4148 H   0  0  0  0  0  0  0  0  0  0  0  0
    1.8454   -0.0011    1.8145 H   0  0  0  0  0  0  0  0  0  0  0  0
    2.6258    1.9794   -0.4153 H   0  0  0  0  0  0  0  0  0  0  0  0
    3.0495    2.6052    2.2230 H   0  0  0  0  0  0  0  0  0  0  0  0
    4.3009    2.8513    0.9902 H   0  0  0  0  0  0  0  0  0  0  0  0
    5.4552    1.4251    2.5570 H   0  0  0  0  0  0  0  0  0  0  0  0
    4.0060    0.4395    2.8068 H   0  0  0  0  0  0  0  0  0  0  0  0
    5.0215   -0.8723    1.1124 H   0  0  0  0  0  0  0  0  0  0  0  0
    5.7772    0.5448    0.3437 H   0  0  0  0  0  0  0  0  0  0  0  0
  1  2  2  0
  2  3  1  0
  3  4  1  0
  4  5  1  0
  5  6  2  0
  5  7  1  0
  7  8  2  0
  8  9  1  0
  8 10  1  0
 10 11  2  0
 11 12  1  0
 12 13  2  0
 13 14  1  0
  2 15  1  0
 15 16  1  0
 16 17  1  0
 17 18  1  0
 18 19  1  0
 19 20  1  0
 20 21  1  0
 13  7  1  0
 21 17  1  0
  3 22  1  0
  3 23  1  0
 10 24  1  0
 11 25  1  0
 12 26  1  0
 15 27  1  0
 16 28  1  0
 16 29  1  0
 17 30  1  0
 18 31  1  0
 18 32  1  0
 19 33  1  0
 19 34  1  0
 20 35  1  0
 20 36  1  0
M  END
$$$$
