
     RDKit          3D

 56 58  0  0  0  0  0  0  0  0999 V2000
   -8.6963    2.4504   -0.5500 C   0  0  0  0  0  0  0  0  0  0  0  0
   -8.1817    1.3468    0.1801 O   0  0  0  0  0  0  0  0  0  0  0  0
   -6.8742    0.9898   -0.0406 C   0  0  0  0  0  0  0  0  0  0  0  0
   -6.0182    1.6380   -0.9366 C   0  0  0  0  0  0  0  0  0  0  0  0
   -4.6994    1.2047   -1.0969 C   0  0  0  0  0  0  0  0  0  0  0  0
   -4.2180    0.1135   -0.3686 C   0  0  0  0  0  0  0  0  0  0  0  0
   -2.7917   -0.3483   -0.5313 C   0  0  0  0  0  0  0  0  0  0  0  0
   -1.8801    0.2008    0.5655 C   0  0  0  0  0  0  0  0  0  0  0  0
   -0.5032   -0.2207    0.3740 N   0  0  0  0  0  0  0  0  0  0  0  0
    0.3666   -0.2856    1.4358 C   0  0  0  0  0  0  0  0  0  0  0  0
    0.0473   -0.0852    2.6007 O   0  0  0  0  0  0  0  0  0  0  0  0
    1.7890   -0.5339    1.0658 C   0  0  0  0  0  0  0  0  0  0  0  0
    2.1458   -1.3284    0.0394 C   0  0  0  0  0  0  0  0  0  0  0  0
    3.5693   -1.6426   -0.3267 C   0  0  0  0  0  0  0  0  0  0  0  0
    4.4975   -1.1990    0.7307 N   0  0  0  0  0  0  0  0  0  0  0  0
    6.1329   -1.5903    0.5011 S   0  0  0  0  0  6  0  0  0  0  0  0
    6.8681   -1.1955    1.6833 O   0  0  0  0  0  0  0  0  0  0  0  0
    6.2054   -2.9422   -0.0114 O   0  0  0  0  0  0  0  0  0  0  0  0
    6.6357   -0.4984   -0.8184 C   0  0  0  0  0  0  0  0  0  0  0  0
    7.1255    0.7772   -0.5097 C   0  0  0  0  0  0  0  0  0  0  0  0
    7.5429    1.6198   -1.5406 C   0  0  0  0  0  0  0  0  0  0  0  0
    7.4831    1.1756   -2.8585 C   0  0  0  0  0  0  0  0  0  0  0  0
    7.8839    1.9874   -3.8451 F   0  0  0  0  0  0  0  0  0  0  0  0
    7.0218   -0.1008   -3.1684 C   0  0  0  0  0  0  0  0  0  0  0  0
    6.6023   -0.9501   -2.1438 C   0  0  0  0  0  0  0  0  0  0  0  0
    4.1918    0.1410    1.2818 C   0  0  0  0  0  0  0  0  0  0  0  0
    2.8171    0.1146    1.9497 C   0  0  0  0  0  0  0  0  0  0  0  0
   -5.0740   -0.5348    0.5348 C   0  0  0  0  0  0  0  0  0  0  0  0
   -6.3964   -0.1055    0.7058 C   0  0  0  0  0  0  0  0  0  0  0  0
   -7.2954   -0.6873    1.5658 O   0  0  0  0  0  0  0  0  0  0  0  0
   -6.8245   -1.7314    2.4053 C   0  0  0  0  0  0  0  0  0  0  0  0
   -9.7394    2.5922   -0.2512 H   0  0  0  0  0  0  0  0  0  0  0  0
   -8.6838    2.2525   -1.6268 H   0  0  0  0  0  0  0  0  0  0  0  0
   -8.1543    3.3709   -0.3095 H   0  0  0  0  0  0  0  0  0  0  0  0
   -6.3468    2.4868   -1.5265 H   0  0  0  0  0  0  0  0  0  0  0  0
   -4.0541    1.7287   -1.7986 H   0  0  0  0  0  0  0  0  0  0  0  0
   -2.7625   -1.4458   -0.5314 H   0  0  0  0  0  0  0  0  0  0  0  0
   -2.4149   -0.0470   -1.5175 H   0  0  0  0  0  0  0  0  0  0  0  0
   -1.8837    1.2971    0.5630 H   0  0  0  0  0  0  0  0  0  0  0  0
   -2.2248   -0.1244    1.5541 H   0  0  0  0  0  0  0  0  0  0  0  0
   -0.1088   -0.1332   -0.5520 H   0  0  0  0  0  0  0  0  0  0  0  0
    1.3924   -1.8327   -0.5597 H   0  0  0  0  0  0  0  0  0  0  0  0
    3.7994   -1.1565   -1.2794 H   0  0  0  0  0  0  0  0  0  0  0  0
    3.6520   -2.7274   -0.4518 H   0  0  0  0  0  0  0  0  0  0  0  0
    7.1934    1.1137    0.5228 H   0  0  0  0  0  0  0  0  0  0  0  0
    7.9246    2.6136   -1.3264 H   0  0  0  0  0  0  0  0  0  0  0  0
    7.0039   -0.4273   -4.2039 H   0  0  0  0  0  0  0  0  0  0  0  0
    6.2630   -1.9558   -2.3828 H   0  0  0  0  0  0  0  0  0  0  0  0
    4.9332    0.4390    2.0298 H   0  0  0  0  0  0  0  0  0  0  0  0
    4.2071    0.8844    0.4754 H   0  0  0  0  0  0  0  0  0  0  0  0
    2.5244    1.1429    2.1922 H   0  0  0  0  0  0  0  0  0  0  0  0
    2.8748   -0.4442    2.8923 H   0  0  0  0  0  0  0  0  0  0  0  0
   -4.6844   -1.3786    1.0960 H   0  0  0  0  0  0  0  0  0  0  0  0
   -6.5197   -2.6027    1.8164 H   0  0  0  0  0  0  0  0  0  0  0  0
   -6.0114   -1.3850    3.0519 H   0  0  0  0  0  0  0  0  0  0  0  0
   -7.6525   -2.0409    3.0505 H   0  0  0  0  0  0  0  0  0  0  0  0
  1  2  1  0
  2  3  1  0
  3  4  2  0
  4  5  1  0
  5  6  2  0
  6  7  1  0
  7  8  1  0
  8  9  1  0
  9 10  1  0
 10 11  2  0
 10 12  1  0
 12 13  2  0
 13 14  1  0
 14 15  1  0
 15 16  1  0
 16 17  2  0
 16 18  2  0
 16 19  1  0
 19 20  2  0
 20 21  1  0
 21 22  2  0
 22 23  1  0
 22 24  1  0
 24 25  2  0
 15 26  1  0
 26 27  1  0
  6 28  1  0
 28 29  2  0
 29 30  1  0
 30 31  1  0
 29  3  1  0
 27 12  1  0
 25 19  1  0
  1 32  1  0
  1 33  1  0
  1 34  1  0
  4 35  1  0
  5 36  1  0
  7 37  1  0
  7 38  1  0
  8 39  1  0
  8 40  1  0
  9 41  1  0
 13 42  1  0
 14 43  1  0
 14 44  1  0
 20 45  1  0
 21 46  1  0
 24 47  1  0
 25 48  1  0
 26 49  1  0
 26 50  1  0
 27 51  1  0
 27 52  1  0
 28 53  1  0
 31 54  1  0
 31 55  1  0
 31 56  1  0
M  END
$$$$
