
     RDKit          3D

 62 65  0  0  0  0  0  0  0  0999 V2000
   -1.3192   -3.4687    3.3492 C   0  0  0  0  0  0  0  0  0  0  0  0
   -2.6733   -2.8109    3.1358 C   0  0  0  0  0  0  0  0  0  0  0  0
   -2.7065   -1.9454    1.8855 C   0  0  0  0  0  0  0  0  0  0  0  0
   -1.7149   -1.8231    1.1631 O   0  0  0  0  0  0  0  0  0  0  0  0
   -3.9103   -1.3001    1.5972 N   0  0  0  0  0  0  0  0  0  0  0  0
   -5.0200   -1.2004    2.5362 C   0  0  0  0  0  0  0  0  0  0  0  0
   -3.9400   -0.3986    0.4431 C   0  0  0  0  0  0  0  0  0  0  0  0
   -3.3447    0.9791    0.7605 C   0  0  0  0  0  0  0  0  0  0  0  0
   -3.1864    1.8370   -0.4776 C   0  0  0  0  0  0  0  0  0  0  0  0
   -4.2347    2.7096   -0.8251 C   0  0  0  0  0  0  0  0  0  0  0  0
   -4.0887    3.5008   -1.9460 C   0  0  0  0  0  0  0  0  0  0  0  0
   -2.9595    3.4593   -2.7287 C   0  0  0  0  0  0  0  0  0  0  0  0
   -1.9023    2.6207   -2.4250 C   0  0  0  0  0  0  0  0  0  0  0  0
   -0.8420    2.5097   -3.2798 O   0  0  0  0  0  0  0  0  0  0  0  0
    0.0580    3.6071   -3.1167 C   0  0  0  0  0  0  0  0  0  0  0  0
   -2.0176    1.7961   -1.2921 C   0  0  0  0  0  0  0  0  0  0  0  0
   -0.9232    0.8695   -0.9324 C   0  0  0  0  0  0  0  0  0  0  0  0
    0.3264    1.2022   -0.9945 N   0  0  0  0  0  0  0  0  0  0  0  0
    1.1889    0.2347   -0.5715 N   0  0  0  0  0  0  0  0  0  0  0  0
    2.5529    0.4248   -0.6625 C   0  0  0  0  0  0  0  0  0  0  0  0
    3.1363    1.4021   -1.1118 O   0  0  0  0  0  0  0  0  0  0  0  0
    3.3239   -0.7398   -0.1510 C   0  0  0  0  0  0  0  0  0  0  0  0
    3.4476   -0.9687    1.3332 C   0  0  0  0  0  0  0  0  0  0  0  0
    4.6557   -0.5186    0.5482 C   0  0  0  0  0  0  0  0  0  0  0  0
    5.7968   -1.4748    0.2929 C   0  0  0  0  0  0  0  0  0  0  0  0
    6.2889   -1.6863   -1.0059 C   0  0  0  0  0  0  0  0  0  0  0  0
    7.3485   -2.5641   -1.2506 C   0  0  0  0  0  0  0  0  0  0  0  0
    7.9464   -3.2444   -0.1940 C   0  0  0  0  0  0  0  0  0  0  0  0
    7.4888   -3.0413    1.1044 C   0  0  0  0  0  0  0  0  0  0  0  0
    6.4281   -2.1626    1.3425 C   0  0  0  0  0  0  0  0  0  0  0  0
   -3.0486    4.3023   -3.7958 O   0  0  0  0  0  0  0  0  0  0  0  0
   -4.3500    4.8824   -3.5871 C   0  0  0  0  0  0  0  0  0  0  0  0
   -5.0182    4.3782   -2.4124 O   0  0  0  0  0  0  0  0  0  0  0  0
   -1.0497   -4.1011    2.4975 H   0  0  0  0  0  0  0  0  0  0  0  0
   -0.5314   -2.7175    3.4713 H   0  0  0  0  0  0  0  0  0  0  0  0
   -1.3374   -4.0937    4.2473 H   0  0  0  0  0  0  0  0  0  0  0  0
   -2.9028   -2.1870    4.0061 H   0  0  0  0  0  0  0  0  0  0  0  0
   -3.4339   -3.5931    3.0413 H   0  0  0  0  0  0  0  0  0  0  0  0
   -4.8818   -0.3025    3.1451 H   0  0  0  0  0  0  0  0  0  0  0  0
   -5.0759   -2.0690    3.1938 H   0  0  0  0  0  0  0  0  0  0  0  0
   -5.9611   -1.1317    1.9827 H   0  0  0  0  0  0  0  0  0  0  0  0
   -4.9761   -0.3034    0.0953 H   0  0  0  0  0  0  0  0  0  0  0  0
   -3.3886   -0.8757   -0.3760 H   0  0  0  0  0  0  0  0  0  0  0  0
   -2.3799    0.8871    1.2735 H   0  0  0  0  0  0  0  0  0  0  0  0
   -3.9898    1.4968    1.4827 H   0  0  0  0  0  0  0  0  0  0  0  0
   -5.1435    2.7744   -0.2342 H   0  0  0  0  0  0  0  0  0  0  0  0
   -0.3049    4.4804   -3.6680 H   0  0  0  0  0  0  0  0  0  0  0  0
    1.0233    3.3138   -3.5422 H   0  0  0  0  0  0  0  0  0  0  0  0
    0.2151    3.8666   -2.0627 H   0  0  0  0  0  0  0  0  0  0  0  0
   -1.2266   -0.1239   -0.5677 H   0  0  0  0  0  0  0  0  0  0  0  0
    0.8181   -0.6252   -0.1766 H   0  0  0  0  0  0  0  0  0  0  0  0
    3.2423   -1.6206   -0.7808 H   0  0  0  0  0  0  0  0  0  0  0  0
    2.9957   -0.2484    2.0082 H   0  0  0  0  0  0  0  0  0  0  0  0
    3.3939   -1.9929    1.6819 H   0  0  0  0  0  0  0  0  0  0  0  0
    4.9558    0.5193    0.6915 H   0  0  0  0  0  0  0  0  0  0  0  0
    5.8395   -1.1523   -1.8418 H   0  0  0  0  0  0  0  0  0  0  0  0
    7.7061   -2.7110   -2.2659 H   0  0  0  0  0  0  0  0  0  0  0  0
    8.7724   -3.9257   -0.3812 H   0  0  0  0  0  0  0  0  0  0  0  0
    7.9582   -3.5624    1.9347 H   0  0  0  0  0  0  0  0  0  0  0  0
    6.0892   -2.0077    2.3642 H   0  0  0  0  0  0  0  0  0  0  0  0
   -4.2393    5.9683   -3.4879 H   0  0  0  0  0  0  0  0  0  0  0  0
   -4.9738    4.6707   -4.4634 H   0  0  0  0  0  0  0  0  0  0  0  0
  1  2  1  0
  2  3  1  0
  3  4  2  0
  3  5  1  0
  5  6  1  0
  5  7  1  0
  7  8  1  0
  8  9  1  0
  9 10  2  0
 10 11  1  0
 11 12  2  0
 12 13  1  0
 13 14  1  0
 14 15  1  0
 13 16  2  0
 16 17  1  0
 17 18  2  3
 18 19  1  0
 19 20  1  0
 20 21  2  0
 20 22  1  0
 22 23  1  0
 23 24  1  0
 24 25  1  0
 25 26  2  0
 26 27  1  0
 27 28  2  0
 28 29  1  0
 29 30  2  0
 12 31  1  0
 31 32  1  0
 32 33  1  0
 16  9  1  0
 24 22  1  0
 30 25  1  0
 33 11  1  0
  1 34  1  0
  1 35  1  0
  1 36  1  0
  2 37  1  0
  2 38  1  0
  6 39  1  0
  6 40  1  0
  6 41  1  0
  7 42  1  0
  7 43  1  0
  8 44  1  0
  8 45  1  0
 10 46  1  0
 15 47  1  0
 15 48  1  0
 15 49  1  0
 17 50  1  0
 19 51  1  0
 22 52  1  0
 23 53  1  0
 23 54  1  0
 24 55  1  0
 26 56  1  0
 27 57  1  0
 28 58  1  0
 29 59  1  0
 30 60  1  0
 32 61  1  0
 32 62  1  0
M  END
$$$$
