
     RDKit          3D

 47 48  0  0  0  0  0  0  0  0999 V2000
    2.9965    1.3895   -4.1876 C   0  0  0  0  0  0  0  0  0  0  0  0
    2.2470    1.0015   -3.0432 O   0  0  0  0  0  0  0  0  0  0  0  0
    2.6486    1.5035   -1.8340 C   0  0  0  0  0  0  0  0  0  0  0  0
    3.8748    2.1347   -1.6015 C   0  0  0  0  0  0  0  0  0  0  0  0
    4.1935    2.6203   -0.3273 C   0  0  0  0  0  0  0  0  0  0  0  0
    3.2903    2.4886    0.7262 C   0  0  0  0  0  0  0  0  0  0  0  0
    2.0687    1.8563    0.5119 C   0  0  0  0  0  0  0  0  0  0  0  0
    1.7687    1.3367   -0.7547 C   0  0  0  0  0  0  0  0  0  0  0  0
    0.4346    0.7574   -0.9512 C   0  0  0  0  0  0  0  0  0  0  0  0
   -0.4629    1.5290   -1.3040 O   0  0  0  0  0  0  0  0  0  0  0  0
    0.1941   -0.5936   -0.6948 N   0  0  0  0  0  0  0  0  0  0  0  0
   -1.1935   -0.9338   -0.7587 N   0  0  0  0  0  0  0  0  0  0  0  0
   -1.9577   -0.6867    0.3680 C   0  0  0  0  0  0  0  0  0  0  0  0
   -1.5183   -0.5988    1.5093 O   0  0  0  0  0  0  0  0  0  0  0  0
   -3.2870   -0.5618   -0.0086 O   0  0  0  0  0  0  0  0  0  0  0  0
   -4.1382   -0.2165    1.0427 C   0  0  0  0  0  0  0  0  0  0  0  0
   -4.9597   -1.2001    1.5888 C   0  0  0  0  0  0  0  0  0  0  0  0
   -5.8509   -0.8539    2.6037 C   0  0  0  0  0  0  0  0  0  0  0  0
   -5.9218    0.4680    3.0509 C   0  0  0  0  0  0  0  0  0  0  0  0
   -5.1055    1.4487    2.4821 C   0  0  0  0  0  0  0  0  0  0  0  0
   -4.2124    1.1096    1.4668 C   0  0  0  0  0  0  0  0  0  0  0  0
    1.1007   -1.7457   -0.3564 C   0  0  0  0  0  0  0  0  0  0  0  0
    0.3355   -3.0942   -0.2501 C   0  0  0  0  0  0  0  0  0  0  0  0
    1.8075   -1.5279    0.9931 C   0  0  0  0  0  0  0  0  0  0  0  0
    2.1576   -1.9428   -1.4600 C   0  0  0  0  0  0  0  0  0  0  0  0
    2.4715    1.0169   -5.0724 H   0  0  0  0  0  0  0  0  0  0  0  0
    3.9914    0.9332   -4.1749 H   0  0  0  0  0  0  0  0  0  0  0  0
    3.0613    2.4794   -4.2726 H   0  0  0  0  0  0  0  0  0  0  0  0
    4.6078    2.2670   -2.3908 H   0  0  0  0  0  0  0  0  0  0  0  0
    5.1483    3.1144   -0.1609 H   0  0  0  0  0  0  0  0  0  0  0  0
    3.5337    2.8851    1.7088 H   0  0  0  0  0  0  0  0  0  0  0  0
    1.3488    1.7683    1.3232 H   0  0  0  0  0  0  0  0  0  0  0  0
   -1.6452   -0.6215   -1.6141 H   0  0  0  0  0  0  0  0  0  0  0  0
   -4.9046   -2.2239    1.2330 H   0  0  0  0  0  0  0  0  0  0  0  0
   -6.4912   -1.6120    3.0467 H   0  0  0  0  0  0  0  0  0  0  0  0
   -6.6161    0.7351    3.8436 H   0  0  0  0  0  0  0  0  0  0  0  0
   -5.1657    2.4764    2.8303 H   0  0  0  0  0  0  0  0  0  0  0  0
   -3.5782    1.8683    1.0174 H   0  0  0  0  0  0  0  0  0  0  0  0
    1.0216   -3.9252   -0.0465 H   0  0  0  0  0  0  0  0  0  0  0  0
   -0.1916   -3.3302   -1.1819 H   0  0  0  0  0  0  0  0  0  0  0  0
   -0.3975   -3.0828    0.5641 H   0  0  0  0  0  0  0  0  0  0  0  0
    2.5595   -0.7381    0.9438 H   0  0  0  0  0  0  0  0  0  0  0  0
    2.3361   -2.4336    1.3134 H   0  0  0  0  0  0  0  0  0  0  0  0
    1.0929   -1.2638    1.7793 H   0  0  0  0  0  0  0  0  0  0  0  0
    2.7097   -2.8798   -1.3203 H   0  0  0  0  0  0  0  0  0  0  0  0
    2.9057   -1.1484   -1.4624 H   0  0  0  0  0  0  0  0  0  0  0  0
    1.6914   -1.9729   -2.4512 H   0  0  0  0  0  0  0  0  0  0  0  0
  1  2  1  0
  2  3  1  0
  3  4  2  0
  4  5  1  0
  5  6  2  0
  6  7  1  0
  7  8  2  0
  8  9  1  0
  9 10  2  0
  9 11  1  0
 11 12  1  0
 12 13  1  0
 13 14  2  0
 13 15  1  0
 15 16  1  0
 16 17  2  0
 17 18  1  0
 18 19  2  0
 19 20  1  0
 20 21  2  0
 11 22  1  0
 22 23  1  0
 22 24  1  0
 22 25  1  0
  8  3  1  0
 21 16  1  0
  1 26  1  0
  1 27  1  0
  1 28  1  0
  4 29  1  0
  5 30  1  0
  6 31  1  0
  7 32  1  0
 12 33  1  0
 17 34  1  0
 18 35  1  0
 19 36  1  0
 20 37  1  0
 21 38  1  0
 23 39  1  0
 23 40  1  0
 23 41  1  0
 24 42  1  0
 24 43  1  0
 24 44  1  0
 25 45  1  0
 25 46  1  0
 25 47  1  0
M  END
$$$$
