
     RDKit          3D

 53 56  0  0  0  0  0  0  0  0999 V2000
   -2.8053    5.1490    2.8243 C   0  0  0  0  0  0  0  0  0  0  0  0
   -2.6048    5.1452    1.4165 O   0  0  0  0  0  0  0  0  0  0  0  0
   -2.1180    3.9929    0.8660 C   0  0  0  0  0  0  0  0  0  0  0  0
   -1.9958    4.0169   -0.5243 C   0  0  0  0  0  0  0  0  0  0  0  0
   -1.5164    2.9042   -1.2189 C   0  0  0  0  0  0  0  0  0  0  0  0
   -1.1420    1.7418   -0.5298 C   0  0  0  0  0  0  0  0  0  0  0  0
   -0.6613    0.5283   -1.3110 C   0  0  0  0  0  0  0  0  0  0  0  0
   -1.8143   -0.4526   -1.5461 C   0  0  0  0  0  0  0  0  0  0  0  0
   -1.3158   -1.6409   -0.7769 C   0  0  0  0  0  0  0  0  0  0  0  0
   -2.1220   -2.8693   -0.6484 C   0  0  0  0  0  0  0  0  0  0  0  0
   -3.4788   -2.7397   -0.3167 C   0  0  0  0  0  0  0  0  0  0  0  0
   -4.2727   -3.8736   -0.1453 C   0  0  0  0  0  0  0  0  0  0  0  0
   -3.7165   -5.1401   -0.2984 C   0  0  0  0  0  0  0  0  0  0  0  0
   -2.3675   -5.2735   -0.6285 C   0  0  0  0  0  0  0  0  0  0  0  0
   -1.5486   -4.1422   -0.8162 C   0  0  0  0  0  0  0  0  0  0  0  0
   -0.1018   -4.3363   -1.2062 C   0  0  0  0  0  0  0  0  0  0  0  0
    0.7688   -4.1715   -0.1755 F   0  0  0  0  0  0  0  0  0  0  0  0
    0.1375   -5.6025   -1.6690 F   0  0  0  0  0  0  0  0  0  0  0  0
    0.3015   -3.5217   -2.2198 F   0  0  0  0  0  0  0  0  0  0  0  0
   -0.1287   -1.5284   -0.2749 N   0  0  0  0  0  0  0  0  0  0  0  0
    0.3227   -0.2760   -0.5778 N   0  0  0  0  0  0  0  0  0  0  0  0
    1.6869    0.0139   -0.4926 C   0  0  0  0  0  0  0  0  0  0  0  0
    2.5880   -0.9281    0.0401 C   0  0  0  0  0  0  0  0  0  0  0  0
    3.9586   -0.6686    0.1422 C   0  0  0  0  0  0  0  0  0  0  0  0
    4.4545    0.5610   -0.2841 C   0  0  0  0  0  0  0  0  0  0  0  0
    6.1838    0.8913   -0.1562 S   0  0  0  0  0  6  0  0  0  0  0  0
    6.4652    0.7469    1.4945 N   0  0  0  0  0  0  0  0  0  0  0  0
    6.4320    2.2817   -0.4605 O   0  0  0  0  0  0  0  0  0  0  0  0
    6.9136   -0.1833   -0.7868 O   0  0  0  0  0  0  0  0  0  0  0  0
    3.5952    1.5205   -0.8115 C   0  0  0  0  0  0  0  0  0  0  0  0
    2.2254    1.2434   -0.9099 C   0  0  0  0  0  0  0  0  0  0  0  0
   -1.2678    1.7262    0.8681 C   0  0  0  0  0  0  0  0  0  0  0  0
   -1.7474    2.8431    1.5612 C   0  0  0  0  0  0  0  0  0  0  0  0
   -1.8561    5.0370    3.3585 H   0  0  0  0  0  0  0  0  0  0  0  0
   -3.2298    6.1194    3.0994 H   0  0  0  0  0  0  0  0  0  0  0  0
   -3.5214    4.3768    3.1244 H   0  0  0  0  0  0  0  0  0  0  0  0
   -2.2788    4.9127   -1.0719 H   0  0  0  0  0  0  0  0  0  0  0  0
   -1.4369    2.9564   -2.3030 H   0  0  0  0  0  0  0  0  0  0  0  0
   -0.2535    0.8417   -2.2810 H   0  0  0  0  0  0  0  0  0  0  0  0
   -1.8965   -0.7235   -2.6044 H   0  0  0  0  0  0  0  0  0  0  0  0
   -2.7821   -0.0982   -1.1827 H   0  0  0  0  0  0  0  0  0  0  0  0
   -3.9284   -1.7626   -0.1560 H   0  0  0  0  0  0  0  0  0  0  0  0
   -5.3218   -3.7696    0.1222 H   0  0  0  0  0  0  0  0  0  0  0  0
   -4.3328   -6.0257   -0.1577 H   0  0  0  0  0  0  0  0  0  0  0  0
   -1.9526   -6.2750   -0.7444 H   0  0  0  0  0  0  0  0  0  0  0  0
    2.2154   -1.8901    0.3855 H   0  0  0  0  0  0  0  0  0  0  0  0
    4.6172   -1.4246    0.5592 H   0  0  0  0  0  0  0  0  0  0  0  0
    6.7589    1.6484    1.8698 H   0  0  0  0  0  0  0  0  0  0  0  0
    7.1291   -0.0096    1.6641 H   0  0  0  0  0  0  0  0  0  0  0  0
    3.9716    2.4861   -1.1423 H   0  0  0  0  0  0  0  0  0  0  0  0
    1.5860    2.0238   -1.3111 H   0  0  0  0  0  0  0  0  0  0  0  0
   -0.9821    0.8396    1.4329 H   0  0  0  0  0  0  0  0  0  0  0  0
   -1.8134    2.7787    2.6423 H   0  0  0  0  0  0  0  0  0  0  0  0
  1  2  1  0
  2  3  1  0
  3  4  2  0
  4  5  1  0
  5  6  2  0
  6  7  1  0
  7  8  1  0
  8  9  1  0
  9 10  1  0
 10 11  2  0
 11 12  1  0
 12 13  2  0
 13 14  1  0
 14 15  2  0
 15 16  1  0
 16 17  1  0
 16 18  1  0
 16 19  1  0
  9 20  2  0
 20 21  1  0
 21 22  1  0
 22 23  2  0
 23 24  1  0
 24 25  2  0
 25 26  1  0
 26 27  1  0
 26 28  2  0
 26 29  2  0
 25 30  1  0
 30 31  2  0
  6 32  1  0
 32 33  2  0
 33  3  1  0
 21  7  1  0
 31 22  1  0
 15 10  1  0
  1 34  1  0
  1 35  1  0
  1 36  1  0
  4 37  1  0
  5 38  1  0
  7 39  1  0
  8 40  1  0
  8 41  1  0
 11 42  1  0
 12 43  1  0
 13 44  1  0
 14 45  1  0
 23 46  1  0
 24 47  1  0
 27 48  1  0
 27 49  1  0
 30 50  1  0
 31 51  1  0
 32 52  1  0
 33 53  1  0
M  END
$$$$
