
     RDKit          3D

 43 44  0  0  0  0  0  0  0  0999 V2000
   -6.3985    1.7196    0.7737 C   0  0  0  0  0  0  0  0  0  0  0  0
   -5.2888    1.4322    1.7663 C   0  0  0  0  0  0  0  0  0  0  0  0
   -4.1811    0.8820    1.0466 O   0  0  0  0  0  0  0  0  0  0  0  0
   -3.1242    0.5167    1.8344 C   0  0  0  0  0  0  0  0  0  0  0  0
   -3.0770    0.7143    3.0445 O   0  0  0  0  0  0  0  0  0  0  0  0
   -2.0301   -0.0791    1.0502 C   0  0  0  0  0  0  0  0  0  0  0  0
   -0.7512    0.0616    1.4288 N   0  0  0  0  0  0  0  0  0  0  0  0
   -0.0010   -0.4645    0.4323 N   0  0  0  0  0  0  0  0  0  0  0  0
    1.4134   -0.2555    0.4590 C   0  0  0  0  0  0  0  0  0  0  0  0
    2.2194   -0.4164   -0.6730 C   0  0  0  0  0  0  0  0  0  0  0  0
    3.6037   -0.1917   -0.6032 C   0  0  0  0  0  0  0  0  0  0  0  0
    4.1985    0.2042    0.5927 C   0  0  0  0  0  0  0  0  0  0  0  0
    5.5243    0.4598    0.7956 O   0  0  0  0  0  0  0  0  0  0  0  0
    6.4546    0.1497   -0.2399 C   0  0  0  0  0  0  0  0  0  0  0  0
    6.6509    1.3412   -1.1609 C   0  0  0  0  0  0  0  0  0  0  0  0
    3.3927    0.3952    1.7150 C   0  0  0  0  0  0  0  0  0  0  0  0
    2.0134    0.1748    1.6525 C   0  0  0  0  0  0  0  0  0  0  0  0
   -0.7999   -1.1447   -0.4828 C   0  0  0  0  0  0  0  0  0  0  0  0
   -0.2931   -2.0924   -1.5121 C   0  0  0  0  0  0  0  0  0  0  0  0
   -2.1157   -0.8369   -0.1493 C   0  0  0  0  0  0  0  0  0  0  0  0
   -3.3338   -1.2800   -0.8161 C   0  0  0  0  0  0  0  0  0  0  0  0
   -3.3714   -1.3037   -2.3231 C   0  0  0  0  0  0  0  0  0  0  0  0
   -4.3112   -1.6500   -0.1677 O   0  0  0  0  0  0  0  0  0  0  0  0
   -6.0566    2.4213    0.0058 H   0  0  0  0  0  0  0  0  0  0  0  0
   -6.6988    0.8027    0.2557 H   0  0  0  0  0  0  0  0  0  0  0  0
   -7.2719    2.1438    1.2766 H   0  0  0  0  0  0  0  0  0  0  0  0
   -4.9833    2.3618    2.2591 H   0  0  0  0  0  0  0  0  0  0  0  0
   -5.6410    0.7140    2.5152 H   0  0  0  0  0  0  0  0  0  0  0  0
    1.8108   -0.6675   -1.6443 H   0  0  0  0  0  0  0  0  0  0  0  0
    4.1818   -0.3153   -1.5128 H   0  0  0  0  0  0  0  0  0  0  0  0
    6.1893   -0.7621   -0.7863 H   0  0  0  0  0  0  0  0  0  0  0  0
    7.4087   -0.0647    0.2552 H   0  0  0  0  0  0  0  0  0  0  0  0
    5.7224    1.6080   -1.6742 H   0  0  0  0  0  0  0  0  0  0  0  0
    6.9595    2.2215   -0.5873 H   0  0  0  0  0  0  0  0  0  0  0  0
    7.4154    1.1265   -1.9130 H   0  0  0  0  0  0  0  0  0  0  0  0
    3.8401    0.7195    2.6520 H   0  0  0  0  0  0  0  0  0  0  0  0
    1.4230    0.3332    2.5543 H   0  0  0  0  0  0  0  0  0  0  0  0
    0.6174   -2.6035   -1.1858 H   0  0  0  0  0  0  0  0  0  0  0  0
   -0.1064   -1.5756   -2.4579 H   0  0  0  0  0  0  0  0  0  0  0  0
   -1.0252   -2.8839   -1.7020 H   0  0  0  0  0  0  0  0  0  0  0  0
   -4.3867   -1.0715   -2.6586 H   0  0  0  0  0  0  0  0  0  0  0  0
   -2.7002   -0.5491   -2.7421 H   0  0  0  0  0  0  0  0  0  0  0  0
   -3.0922   -2.2954   -2.6859 H   0  0  0  0  0  0  0  0  0  0  0  0
  1  2  1  0
  2  3  1  0
  3  4  1  0
  4  5  2  0
  4  6  1  0
  6  7  2  0
  7  8  1  0
  8  9  1  0
  9 10  2  0
 10 11  1  0
 11 12  2  0
 12 13  1  0
 13 14  1  0
 14 15  1  0
 12 16  1  0
 16 17  2  0
  8 18  1  0
 18 19  1  0
 18 20  2  0
 20 21  1  0
 21 22  1  0
 21 23  2  0
 20  6  1  0
 17  9  1  0
  1 24  1  0
  1 25  1  0
  1 26  1  0
  2 27  1  0
  2 28  1  0
 10 29  1  0
 11 30  1  0
 14 31  1  0
 14 32  1  0
 15 33  1  0
 15 34  1  0
 15 35  1  0
 16 36  1  0
 17 37  1  0
 19 38  1  0
 19 39  1  0
 19 40  1  0
 22 41  1  0
 22 42  1  0
 22 43  1  0
M  END
$$$$
