
     RDKit          3D

 52 56  0  0  0  0  0  0  0  0999 V2000
   -2.6507   -2.4007   -0.5346 O   0  0  0  0  0  0  0  0  0  0  0  0
   -3.1588   -1.9888    0.4963 C   0  0  0  0  0  0  0  0  0  0  0  0
   -4.3123   -2.5146    1.0047 O   0  0  0  0  0  0  0  0  0  0  0  0
   -4.5792   -1.9181    2.2758 C   0  0  0  0  0  0  0  0  0  0  0  0
   -3.5088   -0.8728    2.4695 C   0  0  0  0  0  0  0  0  0  0  0  0
   -2.7075   -0.9490    1.2839 N   0  0  0  0  0  0  0  0  0  0  0  0
   -1.3811   -0.5360    1.3119 C   0  0  0  0  0  0  0  0  0  0  0  0
   -0.7895   -0.3910    2.3897 O   0  0  0  0  0  0  0  0  0  0  0  0
   -0.6734   -0.2902   -0.0410 C   0  0  0  0  0  0  0  0  0  0  0  0
    0.7638   -0.8365    0.0432 C   0  0  0  0  0  0  0  0  0  0  0  0
    1.2021   -1.5340   -1.2348 C   0  0  0  0  0  0  0  0  0  0  0  0
    1.3364   -2.9345   -1.2490 C   0  0  0  0  0  0  0  0  0  0  0  0
    1.7332   -3.5972   -2.4117 C   0  0  0  0  0  0  0  0  0  0  0  0
    1.9893   -2.8652   -3.5645 C   0  0  0  0  0  0  0  0  0  0  0  0
    2.3719   -3.5031   -4.6773 F   0  0  0  0  0  0  0  0  0  0  0  0
    1.8502   -1.4827   -3.5791 C   0  0  0  0  0  0  0  0  0  0  0  0
    1.4520   -0.8177   -2.4190 C   0  0  0  0  0  0  0  0  0  0  0  0
    1.5030    0.4624    0.3115 C   0  0  0  0  0  0  0  0  0  0  0  0
    2.9259    0.5009    0.7413 C   0  0  0  0  0  0  0  0  0  0  0  0
    3.6614   -0.6678    0.9740 C   0  0  0  0  0  0  0  0  0  0  0  0
    4.9972   -0.5896    1.3795 C   0  0  0  0  0  0  0  0  0  0  0  0
    5.6016    0.6540    1.5598 C   0  0  0  0  0  0  0  0  0  0  0  0
    4.8696    1.8175    1.3319 C   0  0  0  0  0  0  0  0  0  0  0  0
    5.6175    3.3514    1.5666 Cl  0  0  0  0  0  0  0  0  0  0  0  0
    3.5386    1.7491    0.9231 C   0  0  0  0  0  0  0  0  0  0  0  0
    0.8005    1.5437    0.1300 N   0  0  0  0  0  0  0  0  0  0  0  0
   -0.4572    1.1537   -0.2263 N   0  0  0  0  0  0  0  0  0  0  0  0
   -1.4781    2.0891   -0.4009 C   0  0  0  0  0  0  0  0  0  0  0  0
   -2.7427    1.7300   -0.8963 C   0  0  0  0  0  0  0  0  0  0  0  0
   -3.7608    2.6770   -1.0649 C   0  0  0  0  0  0  0  0  0  0  0  0
   -3.5321    4.0129   -0.7493 C   0  0  0  0  0  0  0  0  0  0  0  0
   -2.2841    4.4011   -0.2742 C   0  0  0  0  0  0  0  0  0  0  0  0
   -1.2718    3.4496   -0.1115 C   0  0  0  0  0  0  0  0  0  0  0  0
   -4.5341   -2.7002    3.0475 H   0  0  0  0  0  0  0  0  0  0  0  0
   -5.5882   -1.4860    2.2729 H   0  0  0  0  0  0  0  0  0  0  0  0
   -3.9355    0.1374    2.5416 H   0  0  0  0  0  0  0  0  0  0  0  0
   -2.9210   -1.0473    3.3790 H   0  0  0  0  0  0  0  0  0  0  0  0
   -1.2139   -0.7011   -0.8926 H   0  0  0  0  0  0  0  0  0  0  0  0
    0.8978   -1.5137    0.8939 H   0  0  0  0  0  0  0  0  0  0  0  0
    1.1318   -3.5237   -0.3574 H   0  0  0  0  0  0  0  0  0  0  0  0
    1.8393   -4.6788   -2.4292 H   0  0  0  0  0  0  0  0  0  0  0  0
    2.0471   -0.9280   -4.4918 H   0  0  0  0  0  0  0  0  0  0  0  0
    1.3359    0.2668   -2.4512 H   0  0  0  0  0  0  0  0  0  0  0  0
    3.2235   -1.6530    0.8461 H   0  0  0  0  0  0  0  0  0  0  0  0
    5.5655   -1.4996    1.5567 H   0  0  0  0  0  0  0  0  0  0  0  0
    6.6399    0.7102    1.8778 H   0  0  0  0  0  0  0  0  0  0  0  0
    2.9793    2.6670    0.7511 H   0  0  0  0  0  0  0  0  0  0  0  0
   -2.9538    0.7076   -1.1956 H   0  0  0  0  0  0  0  0  0  0  0  0
   -4.7265    2.3690   -1.4576 H   0  0  0  0  0  0  0  0  0  0  0  0
   -4.3194    4.7503   -0.8816 H   0  0  0  0  0  0  0  0  0  0  0  0
   -2.0905    5.4422   -0.0290 H   0  0  0  0  0  0  0  0  0  0  0  0
   -0.3033    3.7778    0.2612 H   0  0  0  0  0  0  0  0  0  0  0  0
  1  2  2  0
  2  3  1  0
  3  4  1  0
  4  5  1  0
  5  6  1  0
  6  7  1  0
  7  8  2  0
  7  9  1  0
  9 10  1  0
 10 11  1  0
 11 12  2  0
 12 13  1  0
 13 14  2  0
 14 15  1  0
 14 16  1  0
 16 17  2  0
 10 18  1  0
 18 19  1  0
 19 20  2  0
 20 21  1  0
 21 22  2  0
 22 23  1  0
 23 24  1  0
 23 25  2  0
 18 26  2  0
 26 27  1  0
 27 28  1  0
 28 29  2  0
 29 30  1  0
 30 31  2  0
 31 32  1  0
 32 33  2  0
  6  2  1  0
 27  9  1  0
 33 28  1  0
 17 11  1  0
 25 19  1  0
  4 34  1  0
  4 35  1  0
  5 36  1  0
  5 37  1  0
  9 38  1  0
 10 39  1  0
 12 40  1  0
 13 41  1  0
 16 42  1  0
 17 43  1  0
 20 44  1  0
 21 45  1  0
 22 46  1  0
 25 47  1  0
 29 48  1  0
 30 49  1  0
 31 50  1  0
 32 51  1  0
 33 52  1  0
M  END
$$$$
