
     RDKit          3D

 49 52  0  0  0  0  0  0  0  0999 V2000
    0.7343   -4.2003   -0.2281 N   0  0  0  0  0  0  0  0  0  0  0  0
   -0.3639   -3.4231   -0.1944 C   0  0  0  0  0  0  0  0  0  0  0  0
   -1.5639   -3.9074   -0.3144 N   0  0  0  0  0  0  0  0  0  0  0  0
   -2.4476   -2.7152   -0.1957 C   0  0  0  0  0  0  0  0  0  0  0  0
   -1.5311   -1.4745   -0.2347 C   0  0  0  0  0  0  0  0  0  0  0  0
   -1.8490   -0.4532    0.8621 C   0  0  0  0  0  0  0  0  0  0  0  0
   -3.1378    0.2929    0.6132 C   0  0  0  0  0  0  0  0  0  0  0  0
   -4.3047   -0.0423    1.3149 C   0  0  0  0  0  0  0  0  0  0  0  0
   -5.4993    0.6397    1.0719 C   0  0  0  0  0  0  0  0  0  0  0  0
   -5.5253    1.6588    0.1260 C   0  0  0  0  0  0  0  0  0  0  0  0
   -6.6692    2.3502   -0.1429 O   0  0  0  0  0  0  0  0  0  0  0  0
   -4.3791    2.0058   -0.5778 C   0  0  0  0  0  0  0  0  0  0  0  0
   -3.1858    1.3245   -0.3358 C   0  0  0  0  0  0  0  0  0  0  0  0
   -0.2091   -2.0799   -0.0298 N   0  0  0  0  0  0  0  0  0  0  0  0
    0.9508   -1.3367   -0.5257 C   0  0  0  0  0  0  0  0  0  0  0  0
    1.9766   -1.1312    0.5938 C   0  0  0  0  0  0  0  0  0  0  0  0
    3.1502   -0.2901    0.1309 C   0  0  0  0  0  0  0  0  0  0  0  0
    4.2741   -0.9676   -0.3758 C   0  0  0  0  0  0  0  0  0  0  0  0
    5.3785   -0.2650   -0.8430 C   0  0  0  0  0  0  0  0  0  0  0  0
    5.3749    1.1261   -0.8180 C   0  0  0  0  0  0  0  0  0  0  0  0
    4.2689    1.8353   -0.3281 C   0  0  0  0  0  0  0  0  0  0  0  0
    4.2857    3.2400   -0.3202 C   0  0  0  0  0  0  0  0  0  0  0  0
    3.1987    3.9692    0.1568 C   0  0  0  0  0  0  0  0  0  0  0  0
    2.0798    3.3017    0.6343 C   0  0  0  0  0  0  0  0  0  0  0  0
    2.0486    1.9048    0.6339 C   0  0  0  0  0  0  0  0  0  0  0  0
    3.1342    1.1340    0.1555 C   0  0  0  0  0  0  0  0  0  0  0  0
    1.3617   -4.0161    0.5420 H   0  0  0  0  0  0  0  0  0  0  0  0
    0.4564   -5.1769   -0.2278 H   0  0  0  0  0  0  0  0  0  0  0  0
   -3.0099   -2.7950    0.7407 H   0  0  0  0  0  0  0  0  0  0  0  0
   -3.1627   -2.6975   -1.0247 H   0  0  0  0  0  0  0  0  0  0  0  0
   -1.5846   -1.0226   -1.2340 H   0  0  0  0  0  0  0  0  0  0  0  0
   -1.8775   -0.9410    1.8454 H   0  0  0  0  0  0  0  0  0  0  0  0
   -1.0402    0.2847    0.9352 H   0  0  0  0  0  0  0  0  0  0  0  0
   -4.2923   -0.8385    2.0567 H   0  0  0  0  0  0  0  0  0  0  0  0
   -6.3904    0.3631    1.6263 H   0  0  0  0  0  0  0  0  0  0  0  0
   -7.3821    1.9970    0.4139 H   0  0  0  0  0  0  0  0  0  0  0  0
   -4.4146    2.8049   -1.3129 H   0  0  0  0  0  0  0  0  0  0  0  0
   -2.2950    1.6072   -0.8927 H   0  0  0  0  0  0  0  0  0  0  0  0
    0.6326   -0.3589   -0.9090 H   0  0  0  0  0  0  0  0  0  0  0  0
    1.4052   -1.8549   -1.3798 H   0  0  0  0  0  0  0  0  0  0  0  0
    1.5078   -0.6819    1.4770 H   0  0  0  0  0  0  0  0  0  0  0  0
    2.3483   -2.0999    0.9499 H   0  0  0  0  0  0  0  0  0  0  0  0
    4.2917   -2.0555   -0.4112 H   0  0  0  0  0  0  0  0  0  0  0  0
    6.2418   -0.8000   -1.2298 H   0  0  0  0  0  0  0  0  0  0  0  0
    6.2488    1.6571   -1.1897 H   0  0  0  0  0  0  0  0  0  0  0  0
    5.1543    3.7812   -0.6899 H   0  0  0  0  0  0  0  0  0  0  0  0
    3.2287    5.0555    0.1560 H   0  0  0  0  0  0  0  0  0  0  0  0
    1.2291    3.8639    1.0109 H   0  0  0  0  0  0  0  0  0  0  0  0
    1.1534    1.4277    1.0214 H   0  0  0  0  0  0  0  0  0  0  0  0
  1  2  1  0
  2  3  2  0
  3  4  1  0
  4  5  1  0
  5  6  1  0
  6  7  1  0
  7  8  2  0
  8  9  1  0
  9 10  2  0
 10 11  1  0
 10 12  1  0
 12 13  2  0
  5 14  1  0
 14 15  1  0
 15 16  1  0
 16 17  1  0
 17 18  2  0
 18 19  1  0
 19 20  2  0
 20 21  1  0
 21 22  2  0
 22 23  1  0
 23 24  2  0
 24 25  1  0
 25 26  2  0
 14  2  1  0
 26 17  1  0
 13  7  1  0
 26 21  1  0
  1 27  1  0
  1 28  1  0
  4 29  1  0
  4 30  1  0
  5 31  1  0
  6 32  1  0
  6 33  1  0
  8 34  1  0
  9 35  1  0
 11 36  1  0
 12 37  1  0
 13 38  1  0
 15 39  1  0
 15 40  1  0
 16 41  1  0
 16 42  1  0
 18 43  1  0
 19 44  1  0
 20 45  1  0
 22 46  1  0
 23 47  1  0
 24 48  1  0
 25 49  1  0
M  END
$$$$
