
     RDKit          3D

 52 55  0  0  0  0  0  0  0  0999 V2000
    7.3799   -0.9189    1.1914 N   0  0  0  0  0  0  0  0  0  0  0  0
    6.2493   -0.1553    0.2058 S   0  0  0  0  0  6  0  0  0  0  0  0
    6.6610    1.2172    0.0320 O   0  0  0  0  0  0  0  0  0  0  0  0
    6.0302   -1.0455   -0.9110 O   0  0  0  0  0  0  0  0  0  0  0  0
    4.8052   -0.1817    1.2330 C   0  0  0  0  0  0  0  0  0  0  0  0
    3.9189   -1.2573    1.1528 C   0  0  0  0  0  0  0  0  0  0  0  0
    2.7702   -1.2579    1.9447 C   0  0  0  0  0  0  0  0  0  0  0  0
    2.4947   -0.1828    2.8043 C   0  0  0  0  0  0  0  0  0  0  0  0
    1.2260   -0.1810    3.6281 C   0  0  0  0  0  0  0  0  0  0  0  0
    0.2248    0.9101    3.2237 C   0  0  0  0  0  0  0  0  0  0  0  0
   -0.2066    0.8434    1.8390 N   0  0  0  0  0  0  0  0  0  0  0  0
   -1.0123   -0.1698    1.3719 C   0  0  0  0  0  0  0  0  0  0  0  0
   -1.4082   -1.1018    2.0609 O   0  0  0  0  0  0  0  0  0  0  0  0
   -1.4720   -0.0385   -0.0321 C   0  0  0  0  0  0  0  0  0  0  0  0
   -2.8498   -0.1667   -0.2255 C   0  0  0  0  0  0  0  0  0  0  0  0
   -3.3641   -0.0055   -1.4998 C   0  0  0  0  0  0  0  0  0  0  0  0
   -4.8072   -0.1033   -1.8114 C   0  0  0  0  0  0  0  0  0  0  0  0
   -5.8043    0.2244   -0.8730 C   0  0  0  0  0  0  0  0  0  0  0  0
   -7.1644    0.1219   -1.1871 C   0  0  0  0  0  0  0  0  0  0  0  0
   -7.5595   -0.3080   -2.4500 C   0  0  0  0  0  0  0  0  0  0  0  0
   -6.5968   -0.6309   -3.4003 C   0  0  0  0  0  0  0  0  0  0  0  0
   -5.2388   -0.5269   -3.0832 C   0  0  0  0  0  0  0  0  0  0  0  0
   -2.5513    0.2558   -2.5533 N   0  0  0  0  0  0  0  0  0  0  0  0
   -1.2231    0.3463   -2.3764 C   0  0  0  0  0  0  0  0  0  0  0  0
   -0.4329    0.5897   -3.4922 C   0  0  0  0  0  0  0  0  0  0  0  0
    0.9583    0.6767   -3.4116 C   0  0  0  0  0  0  0  0  0  0  0  0
    1.5845    0.5110   -2.1865 C   0  0  0  0  0  0  0  0  0  0  0  0
    0.8118    0.2716   -1.0516 C   0  0  0  0  0  0  0  0  0  0  0  0
   -0.6041    0.1994   -1.1218 C   0  0  0  0  0  0  0  0  0  0  0  0
    3.3984    0.8876    2.8754 C   0  0  0  0  0  0  0  0  0  0  0  0
    4.5501    0.8936    2.0874 C   0  0  0  0  0  0  0  0  0  0  0  0
    7.0521   -1.0584    2.1465 H   0  0  0  0  0  0  0  0  0  0  0  0
    7.6628   -1.7971    0.7532 H   0  0  0  0  0  0  0  0  0  0  0  0
    4.1041   -2.0876    0.4745 H   0  0  0  0  0  0  0  0  0  0  0  0
    2.0736   -2.0927    1.8719 H   0  0  0  0  0  0  0  0  0  0  0  0
    1.5000   -0.0446    4.6820 H   0  0  0  0  0  0  0  0  0  0  0  0
    0.7472   -1.1658    3.5703 H   0  0  0  0  0  0  0  0  0  0  0  0
    0.6557    1.9060    3.3730 H   0  0  0  0  0  0  0  0  0  0  0  0
   -0.6666    0.8355    3.8570 H   0  0  0  0  0  0  0  0  0  0  0  0
   -0.0066    1.6335    1.2376 H   0  0  0  0  0  0  0  0  0  0  0  0
   -3.4933   -0.3959    0.6180 H   0  0  0  0  0  0  0  0  0  0  0  0
   -5.5382    0.5831    0.1185 H   0  0  0  0  0  0  0  0  0  0  0  0
   -7.9135    0.3834   -0.4440 H   0  0  0  0  0  0  0  0  0  0  0  0
   -8.6153   -0.3865   -2.6949 H   0  0  0  0  0  0  0  0  0  0  0  0
   -6.8965   -0.9629   -4.3908 H   0  0  0  0  0  0  0  0  0  0  0  0
   -4.5037   -0.7849   -3.8448 H   0  0  0  0  0  0  0  0  0  0  0  0
   -0.9164    0.7082   -4.4599 H   0  0  0  0  0  0  0  0  0  0  0  0
    1.5449    0.8619   -4.3079 H   0  0  0  0  0  0  0  0  0  0  0  0
    2.6686    0.5590   -2.1127 H   0  0  0  0  0  0  0  0  0  0  0  0
    1.3313    0.1233   -0.1097 H   0  0  0  0  0  0  0  0  0  0  0  0
    3.2063    1.7279    3.5396 H   0  0  0  0  0  0  0  0  0  0  0  0
    5.2354    1.7378    2.1393 H   0  0  0  0  0  0  0  0  0  0  0  0
  1  2  1  0
  2  3  2  0
  2  4  2  0
  2  5  1  0
  5  6  2  0
  6  7  1  0
  7  8  2  0
  8  9  1  0
  9 10  1  0
 10 11  1  0
 11 12  1  0
 12 13  2  0
 12 14  1  0
 14 15  2  0
 15 16  1  0
 16 17  1  0
 17 18  2  0
 18 19  1  0
 19 20  2  0
 20 21  1  0
 21 22  2  0
 16 23  2  0
 23 24  1  0
 24 25  2  0
 25 26  1  0
 26 27  2  0
 27 28  1  0
 28 29  2  0
  8 30  1  0
 30 31  2  0
 31  5  1  0
 29 14  1  0
 22 17  1  0
 29 24  1  0
  1 32  1  0
  1 33  1  0
  6 34  1  0
  7 35  1  0
  9 36  1  0
  9 37  1  0
 10 38  1  0
 10 39  1  0
 11 40  1  0
 15 41  1  0
 18 42  1  0
 19 43  1  0
 20 44  1  0
 21 45  1  0
 22 46  1  0
 25 47  1  0
 26 48  1  0
 27 49  1  0
 28 50  1  0
 30 51  1  0
 31 52  1  0
M  END
$$$$
