
     RDKit          3D

 49 52  0  0  0  0  0  0  0  0999 V2000
    3.1297    1.2848   -1.4159 O   0  0  0  0  0  0  0  0  0  0  0  0
    3.3044    0.7439   -0.3258 C   0  0  0  0  0  0  0  0  0  0  0  0
    2.1422    0.4421    0.6122 C   0  0  0  0  0  0  0  0  0  0  0  0
    0.8213   -0.4376   -0.2752 S   0  0  0  0  0  0  0  0  0  0  0  0
   -0.3684   -0.5228    0.9737 C   0  0  0  0  0  0  0  0  0  0  0  0
   -0.1696   -0.2159    2.2323 N   0  0  0  0  0  0  0  0  0  0  0  0
   -1.3514   -0.4041    2.8973 N   0  0  0  0  0  0  0  0  0  0  0  0
   -2.2509   -0.8561    2.0408 C   0  0  0  0  0  0  0  0  0  0  0  0
   -3.6365   -1.1646    2.3835 C   0  0  0  0  0  0  0  0  0  0  0  0
   -4.3954   -0.2145    3.0700 C   0  0  0  0  0  0  0  0  0  0  0  0
   -5.7053   -0.5218    3.3956 C   0  0  0  0  0  0  0  0  0  0  0  0
   -6.2956   -1.6963    3.0894 N   0  0  0  0  0  0  0  0  0  0  0  0
   -5.5364   -2.6112    2.4524 C   0  0  0  0  0  0  0  0  0  0  0  0
   -4.2168   -2.3990    2.0858 C   0  0  0  0  0  0  0  0  0  0  0  0
   -1.6690   -0.9077    0.7861 N   0  0  0  0  0  0  0  0  0  0  0  0
   -2.3286   -1.2197   -0.4632 C   0  0  0  0  0  0  0  0  0  0  0  0
   -3.2286   -0.0984   -0.9806 C   0  0  0  0  0  0  0  0  0  0  0  0
   -2.4932    1.1424   -1.4608 C   0  0  0  0  0  0  0  0  0  0  0  0
   -3.5038    1.7402   -2.4089 C   0  0  0  0  0  0  0  0  0  0  0  0
   -4.0865    0.5076   -3.0678 C   0  0  0  0  0  0  0  0  0  0  0  0
   -3.9768   -0.5685   -2.1205 O   0  0  0  0  0  0  0  0  0  0  0  0
    4.5314    0.3762    0.2062 N   0  0  0  0  0  0  0  0  0  0  0  0
    5.8179    0.5398   -0.3642 C   0  0  0  0  0  0  0  0  0  0  0  0
    6.0370    1.1233   -1.6162 C   0  0  0  0  0  0  0  0  0  0  0  0
    7.3359    1.2580   -2.1216 C   0  0  0  0  0  0  0  0  0  0  0  0
    8.4317    0.8136   -1.3832 C   0  0  0  0  0  0  0  0  0  0  0  0
    8.2328    0.2328   -0.1327 C   0  0  0  0  0  0  0  0  0  0  0  0
    6.9362    0.0961    0.3714 C   0  0  0  0  0  0  0  0  0  0  0  0
    6.7432   -0.6311    1.9329 Cl  0  0  0  0  0  0  0  0  0  0  0  0
    1.7769    1.3976    1.0055 H   0  0  0  0  0  0  0  0  0  0  0  0
    2.4728   -0.1789    1.4525 H   0  0  0  0  0  0  0  0  0  0  0  0
   -3.9750    0.7464    3.3510 H   0  0  0  0  0  0  0  0  0  0  0  0
   -6.3320    0.1891    3.9273 H   0  0  0  0  0  0  0  0  0  0  0  0
   -6.0318   -3.5540    2.2397 H   0  0  0  0  0  0  0  0  0  0  0  0
   -3.6613   -3.1950    1.6015 H   0  0  0  0  0  0  0  0  0  0  0  0
   -1.5842   -1.4926   -1.2185 H   0  0  0  0  0  0  0  0  0  0  0  0
   -2.9119   -2.1355   -0.3200 H   0  0  0  0  0  0  0  0  0  0  0  0
   -3.9683    0.1838   -0.2211 H   0  0  0  0  0  0  0  0  0  0  0  0
   -1.5892    0.8741   -2.0196 H   0  0  0  0  0  0  0  0  0  0  0  0
   -2.2124    1.8170   -0.6469 H   0  0  0  0  0  0  0  0  0  0  0  0
   -4.2821    2.2649   -1.8420 H   0  0  0  0  0  0  0  0  0  0  0  0
   -3.0729    2.4434   -3.1270 H   0  0  0  0  0  0  0  0  0  0  0  0
   -3.5157    0.2247   -3.9582 H   0  0  0  0  0  0  0  0  0  0  0  0
   -5.1347    0.6400   -3.3534 H   0  0  0  0  0  0  0  0  0  0  0  0
    4.5377   -0.0675    1.1206 H   0  0  0  0  0  0  0  0  0  0  0  0
    5.2195    1.4866   -2.2317 H   0  0  0  0  0  0  0  0  0  0  0  0
    7.4866    1.7152   -3.0984 H   0  0  0  0  0  0  0  0  0  0  0  0
    9.4373    0.9216   -1.7820 H   0  0  0  0  0  0  0  0  0  0  0  0
    9.0894   -0.1124    0.4430 H   0  0  0  0  0  0  0  0  0  0  0  0
  1  2  2  0
  2  3  1  0
  3  4  1  0
  4  5  1  0
  5  6  2  0
  6  7  1  0
  7  8  2  0
  8  9  1  0
  9 10  2  0
 10 11  1  0
 11 12  2  0
 12 13  1  0
 13 14  2  0
  8 15  1  0
 15 16  1  0
 16 17  1  0
 17 18  1  0
 18 19  1  0
 19 20  1  0
 20 21  1  0
  2 22  1  0
 22 23  1  0
 23 24  2  0
 24 25  1  0
 25 26  2  0
 26 27  1  0
 27 28  2  0
 28 29  1  0
 15  5  1  0
 21 17  1  0
 28 23  1  0
 14  9  1  0
  3 30  1  0
  3 31  1  0
 10 32  1  0
 11 33  1  0
 13 34  1  0
 14 35  1  0
 16 36  1  0
 16 37  1  0
 17 38  1  0
 18 39  1  0
 18 40  1  0
 19 41  1  0
 19 42  1  0
 20 43  1  0
 20 44  1  0
 22 45  1  0
 24 46  1  0
 25 47  1  0
 26 48  1  0
 27 49  1  0
M  END
$$$$
