
     RDKit          3D

 92 93  0  0  0  0  0  0  0  0999 V2000
   10.1640   -3.0648    0.3048 C   0  0  0  0  0  0  0  0  0  0  0  0
   10.9959   -2.1559    1.1993 C   0  0  0  0  0  0  0  0  0  0  0  0
   10.1735   -1.4666    2.2926 C   0  0  0  0  0  0  0  0  0  0  0  0
    9.7308   -0.0374    1.9601 C   0  0  0  0  0  0  0  0  0  0  0  0
    8.7880    0.0663    0.7607 C   0  0  0  0  0  0  0  0  0  0  0  0
    8.2606    1.4943    0.5936 C   0  0  0  0  0  0  0  0  0  0  0  0
    7.4246    1.6955   -0.6751 C   0  0  0  0  0  0  0  0  0  0  0  0
    6.1954    0.7906   -0.8218 C   0  0  0  0  0  0  0  0  0  0  0  0
    5.1782    0.9598    0.3088 C   0  0  0  0  0  0  0  0  0  0  0  0
    3.9765    0.0183    0.1826 C   0  0  0  0  0  0  0  0  0  0  0  0
    3.0387    0.3627   -0.9780 C   0  0  0  0  0  0  0  0  0  0  0  0
    1.8289   -0.5755   -0.9919 C   0  0  0  0  0  0  0  0  0  0  0  0
    0.8587   -0.3282   -2.1510 C   0  0  0  0  0  0  0  0  0  0  0  0
    0.1786    1.0416   -2.0869 C   0  0  0  0  0  0  0  0  0  0  0  0
   -0.9342    1.2181   -3.1218 C   0  0  0  0  0  0  0  0  0  0  0  0
   -2.1609    0.2954   -3.0559 C   0  0  0  0  0  0  0  0  0  0  0  0
   -3.1056    0.4693   -1.8379 N   0  0  0  0  0  4  0  0  0  0  0  0
   -3.2580    1.9242   -1.4409 C   0  0  0  0  0  0  0  0  0  0  0  0
   -4.4902   -0.0475   -2.2873 C   0  0  0  0  0  0  0  0  0  0  0  0
   -2.6204   -0.4280   -0.6600 C   0  0  0  0  0  0  0  0  0  0  0  0
   -3.2639   -0.1826    0.7338 C   0  0  0  0  0  0  0  0  0  0  0  0
   -4.7335   -0.2794    0.8105 N   0  0  0  0  0  0  0  0  0  0  0  0
   -5.3518    0.5404    1.8737 C   0  0  0  0  0  0  0  0  0  0  0  0
   -6.7719    0.9709    1.5598 C   0  0  0  0  0  0  0  0  0  0  0  0
   -7.0722    1.7334    0.4255 C   0  0  0  0  0  0  0  0  0  0  0  0
   -8.3812    2.1596    0.1816 C   0  0  0  0  0  0  0  0  0  0  0  0
   -9.4126    1.8434    1.0672 C   0  0  0  0  0  0  0  0  0  0  0  0
  -10.6381    2.3327    0.7125 O   0  0  0  0  0  0  0  0  0  0  0  0
  -11.7068    2.1167    1.6261 C   0  0  0  0  0  0  0  0  0  0  0  0
   -9.1251    1.0850    2.1987 C   0  0  0  0  0  0  0  0  0  0  0  0
   -7.8146    0.6552    2.4433 C   0  0  0  0  0  0  0  0  0  0  0  0
   -5.1616   -1.6249    0.8456 C   0  0  0  0  0  0  0  0  0  0  0  0
   -6.1701   -1.9930    1.6453 N   0  0  0  0  0  0  0  0  0  0  0  0
   -6.5692   -3.2802    1.6294 C   0  0  0  0  0  0  0  0  0  0  0  0
   -5.9876   -4.2361    0.8439 C   0  0  0  0  0  0  0  0  0  0  0  0
   -4.9609   -3.7855    0.0574 C   0  0  0  0  0  0  0  0  0  0  0  0
   -4.5386   -2.5020    0.0380 N   0  0  0  0  0  0  0  0  0  0  0  0
   10.8072   -3.5535   -0.4346 H   0  0  0  0  0  0  0  0  0  0  0  0
    9.3899   -2.5133   -0.2345 H   0  0  0  0  0  0  0  0  0  0  0  0
    9.6757   -3.8490    0.8933 H   0  0  0  0  0  0  0  0  0  0  0  0
   11.5342   -1.4191    0.5918 H   0  0  0  0  0  0  0  0  0  0  0  0
   11.7584   -2.7806    1.6821 H   0  0  0  0  0  0  0  0  0  0  0  0
   10.7979   -1.4057    3.1935 H   0  0  0  0  0  0  0  0  0  0  0  0
    9.3035   -2.0751    2.5662 H   0  0  0  0  0  0  0  0  0  0  0  0
   10.6175    0.5842    1.7840 H   0  0  0  0  0  0  0  0  0  0  0  0
    9.2311    0.3756    2.8459 H   0  0  0  0  0  0  0  0  0  0  0  0
    9.3178   -0.2249   -0.1526 H   0  0  0  0  0  0  0  0  0  0  0  0
    7.9532   -0.6295    0.8997 H   0  0  0  0  0  0  0  0  0  0  0  0
    7.6787    1.7797    1.4774 H   0  0  0  0  0  0  0  0  0  0  0  0
    9.1109    2.1877    0.5517 H   0  0  0  0  0  0  0  0  0  0  0  0
    8.0693    1.5431   -1.5501 H   0  0  0  0  0  0  0  0  0  0  0  0
    7.1002    2.7436   -0.7111 H   0  0  0  0  0  0  0  0  0  0  0  0
    5.7198    1.0299   -1.7803 H   0  0  0  0  0  0  0  0  0  0  0  0
    6.5095   -0.2580   -0.8871 H   0  0  0  0  0  0  0  0  0  0  0  0
    4.8332    1.9994    0.3492 H   0  0  0  0  0  0  0  0  0  0  0  0
    5.6601    0.7485    1.2703 H   0  0  0  0  0  0  0  0  0  0  0  0
    4.3303   -1.0149    0.0819 H   0  0  0  0  0  0  0  0  0  0  0  0
    3.4076    0.0675    1.1192 H   0  0  0  0  0  0  0  0  0  0  0  0
    3.5692    0.2771   -1.9324 H   0  0  0  0  0  0  0  0  0  0  0  0
    2.7088    1.4019   -0.8748 H   0  0  0  0  0  0  0  0  0  0  0  0
    1.2854   -0.4940   -0.0428 H   0  0  0  0  0  0  0  0  0  0  0  0
    2.1839   -1.6112   -1.0603 H   0  0  0  0  0  0  0  0  0  0  0  0
    0.1060   -1.1233   -2.1252 H   0  0  0  0  0  0  0  0  0  0  0  0
    1.3897   -0.4308   -3.1048 H   0  0  0  0  0  0  0  0  0  0  0  0
    0.9331    1.8124   -2.2868 H   0  0  0  0  0  0  0  0  0  0  0  0
   -0.1939    1.2472   -1.0798 H   0  0  0  0  0  0  0  0  0  0  0  0
   -0.4829    1.0745   -4.1132 H   0  0  0  0  0  0  0  0  0  0  0  0
   -1.2552    2.2660   -3.1132 H   0  0  0  0  0  0  0  0  0  0  0  0
   -1.8889   -0.7639   -3.1119 H   0  0  0  0  0  0  0  0  0  0  0  0
   -2.7657    0.5163   -3.9439 H   0  0  0  0  0  0  0  0  0  0  0  0
   -4.0636    2.0173   -0.7107 H   0  0  0  0  0  0  0  0  0  0  0  0
   -2.3215    2.2711   -0.9986 H   0  0  0  0  0  0  0  0  0  0  0  0
   -3.5089    2.5027   -2.3351 H   0  0  0  0  0  0  0  0  0  0  0  0
   -4.7846    0.5036   -3.1882 H   0  0  0  0  0  0  0  0  0  0  0  0
   -4.4056   -1.1153   -2.5110 H   0  0  0  0  0  0  0  0  0  0  0  0
   -5.2293    0.1421   -1.5111 H   0  0  0  0  0  0  0  0  0  0  0  0
   -1.5532   -0.2395   -0.5459 H   0  0  0  0  0  0  0  0  0  0  0  0
   -2.7070   -1.4636   -0.9985 H   0  0  0  0  0  0  0  0  0  0  0  0
   -2.7989   -0.8633    1.4620 H   0  0  0  0  0  0  0  0  0  0  0  0
   -2.9513    0.8203    1.0507 H   0  0  0  0  0  0  0  0  0  0  0  0
   -5.2774    0.0493    2.8544 H   0  0  0  0  0  0  0  0  0  0  0  0
   -4.7851    1.4755    1.9861 H   0  0  0  0  0  0  0  0  0  0  0  0
   -6.2961    2.0095   -0.2774 H   0  0  0  0  0  0  0  0  0  0  0  0
   -8.6028    2.7514   -0.7036 H   0  0  0  0  0  0  0  0  0  0  0  0
  -12.5985    2.6057    1.2192 H   0  0  0  0  0  0  0  0  0  0  0  0
  -11.9291    1.0495    1.7285 H   0  0  0  0  0  0  0  0  0  0  0  0
  -11.4948    2.5716    2.5993 H   0  0  0  0  0  0  0  0  0  0  0  0
   -9.8933    0.8078    2.9145 H   0  0  0  0  0  0  0  0  0  0  0  0
   -7.6156    0.0599    3.3334 H   0  0  0  0  0  0  0  0  0  0  0  0
   -7.3977   -3.5182    2.2915 H   0  0  0  0  0  0  0  0  0  0  0  0
   -6.3157   -5.2666    0.8444 H   0  0  0  0  0  0  0  0  0  0  0  0
   -4.4288   -4.4639   -0.6046 H   0  0  0  0  0  0  0  0  0  0  0  0
  1  2  1  0
  2  3  1  0
  3  4  1  0
  4  5  1  0
  5  6  1  0
  6  7  1  0
  7  8  1  0
  8  9  1  0
  9 10  1  0
 10 11  1  0
 11 12  1  0
 12 13  1  0
 13 14  1  0
 14 15  1  0
 15 16  1  0
 16 17  1  0
 17 18  1  0
 17 19  1  0
 17 20  1  0
 20 21  1  0
 21 22  1  0
 22 23  1  0
 23 24  1  0
 24 25  2  0
 25 26  1  0
 26 27  2  0
 27 28  1  0
 28 29  1  0
 27 30  1  0
 30 31  2  0
 22 32  1  0
 32 33  2  0
 33 34  1  0
 34 35  2  0
 35 36  1  0
 36 37  2  0
 31 24  1  0
 37 32  1  0
  1 38  1  0
  1 39  1  0
  1 40  1  0
  2 41  1  0
  2 42  1  0
  3 43  1  0
  3 44  1  0
  4 45  1  0
  4 46  1  0
  5 47  1  0
  5 48  1  0
  6 49  1  0
  6 50  1  0
  7 51  1  0
  7 52  1  0
  8 53  1  0
  8 54  1  0
  9 55  1  0
  9 56  1  0
 10 57  1  0
 10 58  1  0
 11 59  1  0
 11 60  1  0
 12 61  1  0
 12 62  1  0
 13 63  1  0
 13 64  1  0
 14 65  1  0
 14 66  1  0
 15 67  1  0
 15 68  1  0
 16 69  1  0
 16 70  1  0
 18 71  1  0
 18 72  1  0
 18 73  1  0
 19 74  1  0
 19 75  1  0
 19 76  1  0
 20 77  1  0
 20 78  1  0
 21 79  1  0
 21 80  1  0
 23 81  1  0
 23 82  1  0
 25 83  1  0
 26 84  1  0
 29 85  1  0
 29 86  1  0
 29 87  1  0
 30 88  1  0
 31 89  1  0
 34 90  1  0
 35 91  1  0
 36 92  1  0
M  CHG  1  17   1
M  END
$$$$
