
     RDKit          3D

 38 40  0  0  0  0  0  0  0  0999 V2000
   -1.1357   -1.8873   -3.4880 C   0  0  0  0  0  0  0  0  0  0  0  0
   -0.5182   -1.2880   -2.2512 C   0  0  0  0  0  0  0  0  0  0  0  0
    0.6838   -1.3924   -2.0179 O   0  0  0  0  0  0  0  0  0  0  0  0
   -1.3640   -0.5119   -1.3294 C   0  0  0  0  0  0  0  0  0  0  0  0
   -0.9900    0.7272   -0.8215 C   0  0  0  0  0  0  0  0  0  0  0  0
    0.3269    1.3820   -1.1633 C   0  0  0  0  0  0  0  0  0  0  0  0
    1.3449    0.8201   -0.3338 O   0  0  0  0  0  0  0  0  0  0  0  0
    2.5835    1.2926   -0.6107 C   0  0  0  0  0  0  0  0  0  0  0  0
    2.8447    2.1817   -1.4060 O   0  0  0  0  0  0  0  0  0  0  0  0
    3.6021    0.6002    0.2202 C   0  0  0  0  0  0  0  0  0  0  0  0
    3.3302   -0.6041    0.8833 C   0  0  0  0  0  0  0  0  0  0  0  0
    4.3225   -1.2207    1.6489 C   0  0  0  0  0  0  0  0  0  0  0  0
    5.5871   -0.6414    1.7523 C   0  0  0  0  0  0  0  0  0  0  0  0
    5.8662    0.5526    1.0878 C   0  0  0  0  0  0  0  0  0  0  0  0
    4.8776    1.1717    0.3206 C   0  0  0  0  0  0  0  0  0  0  0  0
   -1.7929    1.4239    0.0247 N   0  0  0  0  0  0  0  0  0  0  0  0
   -2.9681    0.9054    0.3993 C   0  0  0  0  0  0  0  0  0  0  0  0
   -3.7822    1.6186    1.2696 C   0  0  0  0  0  0  0  0  0  0  0  0
   -5.0190    1.1223    1.6936 C   0  0  0  0  0  0  0  0  0  0  0  0
   -5.4608   -0.1154    1.2427 C   0  0  0  0  0  0  0  0  0  0  0  0
   -4.6617   -0.8482    0.3697 C   0  0  0  0  0  0  0  0  0  0  0  0
   -3.4114   -0.3437   -0.0589 C   0  0  0  0  0  0  0  0  0  0  0  0
   -2.5761   -1.0584   -0.9445 N   0  0  0  0  0  4  0  0  0  0  0  0
   -2.9528   -2.2091   -1.3703 O   0  0  0  0  0  1  0  0  0  0  0  0
   -2.0869   -1.4066   -3.7326 H   0  0  0  0  0  0  0  0  0  0  0  0
   -1.2817   -2.9608   -3.3462 H   0  0  0  0  0  0  0  0  0  0  0  0
   -0.4612   -1.7202   -4.3333 H   0  0  0  0  0  0  0  0  0  0  0  0
    0.5584    1.2482   -2.2270 H   0  0  0  0  0  0  0  0  0  0  0  0
    0.2524    2.4584   -0.9631 H   0  0  0  0  0  0  0  0  0  0  0  0
    2.3556   -1.0793    0.7991 H   0  0  0  0  0  0  0  0  0  0  0  0
    4.1099   -2.1571    2.1590 H   0  0  0  0  0  0  0  0  0  0  0  0
    6.3586   -1.1249    2.3468 H   0  0  0  0  0  0  0  0  0  0  0  0
    6.8541    0.9999    1.1638 H   0  0  0  0  0  0  0  0  0  0  0  0
    5.1047    2.1006   -0.1988 H   0  0  0  0  0  0  0  0  0  0  0  0
   -3.4461    2.5884    1.6319 H   0  0  0  0  0  0  0  0  0  0  0  0
   -5.6320    1.7057    2.3771 H   0  0  0  0  0  0  0  0  0  0  0  0
   -6.4204   -0.5098    1.5687 H   0  0  0  0  0  0  0  0  0  0  0  0
   -5.0022   -1.8202    0.0142 H   0  0  0  0  0  0  0  0  0  0  0  0
  1  2  1  0
  2  3  2  0
  2  4  1  0
  4  5  2  0
  5  6  1  0
  6  7  1  0
  7  8  1  0
  8  9  2  0
  8 10  1  0
 10 11  2  0
 11 12  1  0
 12 13  2  0
 13 14  1  0
 14 15  2  0
  5 16  1  0
 16 17  2  0
 17 18  1  0
 18 19  2  0
 19 20  1  0
 20 21  2  0
 21 22  1  0
 22 23  2  0
 23 24  1  0
 23  4  1  0
 15 10  1  0
 22 17  1  0
  1 25  1  0
  1 26  1  0
  1 27  1  0
  6 28  1  0
  6 29  1  0
 11 30  1  0
 12 31  1  0
 13 32  1  0
 14 33  1  0
 15 34  1  0
 18 35  1  0
 19 36  1  0
 20 37  1  0
 21 38  1  0
M  CHG  2  23   1  24  -1
M  END
$$$$
