
     RDKit          3D

 80 84  0  0  0  0  0  0  0  0999 V2000
    1.0192    1.0108   -3.4644 C   0  0  0  0  0  0  0  0  0  0  0  0
    0.4555    0.5416   -2.2469 O   0  0  0  0  0  0  0  0  0  0  0  0
    1.2830   -0.0010   -1.3024 C   0  0  0  0  0  0  0  0  0  0  0  0
    2.6565   -0.1952   -1.5081 C   0  0  0  0  0  0  0  0  0  0  0  0
    3.4870   -0.7171   -0.5038 C   0  0  0  0  0  0  0  0  0  0  0  0
    4.8253   -0.9350   -0.7050 O   0  0  0  0  0  0  0  0  0  0  0  0
    5.4840   -0.1474   -1.6889 C   0  0  0  0  0  0  0  0  0  0  0  0
    2.9449   -1.0796    0.7418 C   0  0  0  0  0  0  0  0  0  0  0  0
    3.7362   -1.6207    1.8757 C   0  0  0  0  0  0  0  0  0  0  0  0
    5.1938   -1.8650    1.9172 C   0  0  0  0  0  0  0  0  0  0  0  0
    6.0636   -0.8685    2.3822 C   0  0  0  0  0  0  0  0  0  0  0  0
    7.4372   -1.1091    2.4481 C   0  0  0  0  0  0  0  0  0  0  0  0
    7.9492   -2.3442    2.0519 C   0  0  0  0  0  0  0  0  0  0  0  0
    7.0902   -3.3409    1.5895 C   0  0  0  0  0  0  0  0  0  0  0  0
    5.7157   -3.1044    1.5245 C   0  0  0  0  0  0  0  0  0  0  0  0
    3.1051   -1.9224    3.0220 C   0  0  0  0  0  0  0  0  0  0  0  0
    1.6673   -1.7493    3.2225 C   0  0  0  0  0  0  0  0  0  0  0  0
    1.1342   -2.0421    4.2859 O   0  0  0  0  0  0  0  0  0  0  0  0
    0.9588   -1.2469    2.1526 O   0  0  0  0  0  0  0  0  0  0  0  0
    1.5639   -0.8968    0.9176 C   0  0  0  0  0  0  0  0  0  0  0  0
    0.7008   -0.3721   -0.0781 C   0  0  0  0  0  0  0  0  0  0  0  0
   -0.7930   -0.1963    0.2522 C   0  0  0  0  0  0  0  0  0  0  0  0
   -1.7886   -0.4589   -0.9111 C   0  0  0  0  0  0  0  0  0  0  0  0
   -3.2149   -0.7389   -0.3975 C   0  0  0  0  0  0  0  0  0  0  0  0
   -4.2327   -1.0530   -1.4134 N   0  0  0  0  0  0  0  0  0  0  0  0
   -4.5057    0.0707   -2.3139 C   0  0  0  0  0  0  0  0  0  0  0  0
   -5.7120   -0.2328   -3.2044 C   0  0  0  0  0  0  0  0  0  0  0  0
   -5.5167   -1.5310   -3.9827 C   0  0  0  0  0  0  0  0  0  0  0  0
   -5.1513   -2.6791   -3.0336 C   0  0  0  0  0  0  0  0  0  0  0  0
   -4.8548   -3.9558   -3.8196 C   0  0  0  0  0  0  0  0  0  0  0  0
   -3.9520   -2.2892   -2.1518 C   0  0  0  0  0  0  0  0  0  0  0  0
   -1.0566    1.1291    0.9608 C   0  0  0  0  0  0  0  0  0  0  0  0
   -1.3955    1.1471    2.3164 C   0  0  0  0  0  0  0  0  0  0  0  0
   -1.6337    2.3571    2.9859 C   0  0  0  0  0  0  0  0  0  0  0  0
   -1.5292    3.6036    2.3474 C   0  0  0  0  0  0  0  0  0  0  0  0
   -1.7760    4.8126    3.0132 N   0  0  0  0  0  0  0  0  0  0  0  0
   -1.9385    4.7997    4.4658 C   0  0  0  0  0  0  0  0  0  0  0  0
   -1.2003    6.0367    2.4563 C   0  0  0  0  0  0  0  0  0  0  0  0
   -1.2038    3.5598    0.9809 C   0  0  0  0  0  0  0  0  0  0  0  0
   -0.9675    2.3554    0.2999 C   0  0  0  0  0  0  0  0  0  0  0  0
    1.7684    1.7876   -3.2816 H   0  0  0  0  0  0  0  0  0  0  0  0
    1.4355    0.1843   -4.0486 H   0  0  0  0  0  0  0  0  0  0  0  0
    0.2131    1.4591   -4.0522 H   0  0  0  0  0  0  0  0  0  0  0  0
    3.0909    0.0486   -2.4694 H   0  0  0  0  0  0  0  0  0  0  0  0
    5.2392    0.9154   -1.5871 H   0  0  0  0  0  0  0  0  0  0  0  0
    5.2530   -0.5121   -2.6950 H   0  0  0  0  0  0  0  0  0  0  0  0
    6.5615   -0.2573   -1.5356 H   0  0  0  0  0  0  0  0  0  0  0  0
    5.6751    0.0990    2.6918 H   0  0  0  0  0  0  0  0  0  0  0  0
    8.1075   -0.3334    2.8107 H   0  0  0  0  0  0  0  0  0  0  0  0
    9.0187   -2.5311    2.1049 H   0  0  0  0  0  0  0  0  0  0  0  0
    7.4897   -4.3029    1.2802 H   0  0  0  0  0  0  0  0  0  0  0  0
    5.0554   -3.8865    1.1587 H   0  0  0  0  0  0  0  0  0  0  0  0
    3.6292   -2.3162    3.8871 H   0  0  0  0  0  0  0  0  0  0  0  0
   -1.0299   -0.9999    0.9639 H   0  0  0  0  0  0  0  0  0  0  0  0
   -1.4349   -1.3271   -1.4801 H   0  0  0  0  0  0  0  0  0  0  0  0
   -1.8242    0.3926   -1.5975 H   0  0  0  0  0  0  0  0  0  0  0  0
   -3.1824   -1.5721    0.3168 H   0  0  0  0  0  0  0  0  0  0  0  0
   -3.5722    0.1208    0.1833 H   0  0  0  0  0  0  0  0  0  0  0  0
   -4.7301    0.9729   -1.7322 H   0  0  0  0  0  0  0  0  0  0  0  0
   -3.6389    0.2953   -2.9468 H   0  0  0  0  0  0  0  0  0  0  0  0
   -6.6159   -0.3087   -2.5862 H   0  0  0  0  0  0  0  0  0  0  0  0
   -5.8733    0.5954   -3.9041 H   0  0  0  0  0  0  0  0  0  0  0  0
   -4.7215   -1.3913   -4.7263 H   0  0  0  0  0  0  0  0  0  0  0  0
   -6.4331   -1.7717   -4.5343 H   0  0  0  0  0  0  0  0  0  0  0  0
   -6.0133   -2.8771   -2.3807 H   0  0  0  0  0  0  0  0  0  0  0  0
   -4.6262   -4.7848   -3.1410 H   0  0  0  0  0  0  0  0  0  0  0  0
   -5.7180   -4.2478   -4.4265 H   0  0  0  0  0  0  0  0  0  0  0  0
   -3.9994   -3.8211   -4.4905 H   0  0  0  0  0  0  0  0  0  0  0  0
   -3.7601   -3.1068   -1.4451 H   0  0  0  0  0  0  0  0  0  0  0  0
   -3.0560   -2.1818   -2.7771 H   0  0  0  0  0  0  0  0  0  0  0  0
   -1.4802    0.2180    2.8771 H   0  0  0  0  0  0  0  0  0  0  0  0
   -1.9003    2.2850    4.0358 H   0  0  0  0  0  0  0  0  0  0  0  0
   -2.1646    5.8026    4.8444 H   0  0  0  0  0  0  0  0  0  0  0  0
   -1.0247    4.4559    4.9627 H   0  0  0  0  0  0  0  0  0  0  0  0
   -2.7822    4.1686    4.7656 H   0  0  0  0  0  0  0  0  0  0  0  0
   -1.6423    6.2781    1.4837 H   0  0  0  0  0  0  0  0  0  0  0  0
   -0.1123    5.9515    2.3549 H   0  0  0  0  0  0  0  0  0  0  0  0
   -1.4030    6.8999    3.1006 H   0  0  0  0  0  0  0  0  0  0  0  0
   -1.1335    4.4714    0.3962 H   0  0  0  0  0  0  0  0  0  0  0  0
   -0.7133    2.3966   -0.7558 H   0  0  0  0  0  0  0  0  0  0  0  0
  1  2  1  0
  2  3  1  0
  3  4  2  0
  4  5  1  0
  5  6  1  0
  6  7  1  0
  5  8  2  0
  8  9  1  0
  9 10  1  0
 10 11  2  0
 11 12  1  0
 12 13  2  0
 13 14  1  0
 14 15  2  0
  9 16  2  0
 16 17  1  0
 17 18  2  0
 17 19  1  0
 19 20  1  0
 20 21  2  0
 21 22  1  0
 22 23  1  0
 23 24  1  0
 24 25  1  0
 25 26  1  0
 26 27  1  0
 27 28  1  0
 28 29  1  0
 29 30  1  0
 29 31  1  0
 22 32  1  0
 32 33  2  0
 33 34  1  0
 34 35  2  0
 35 36  1  0
 36 37  1  0
 36 38  1  0
 35 39  1  0
 39 40  2  0
 21  3  1  0
 31 25  1  0
 40 32  1  0
 20  8  1  0
 15 10  1  0
  1 41  1  0
  1 42  1  0
  1 43  1  0
  4 44  1  0
  7 45  1  0
  7 46  1  0
  7 47  1  0
 11 48  1  0
 12 49  1  0
 13 50  1  0
 14 51  1  0
 15 52  1  0
 16 53  1  0
 22 54  1  0
 23 55  1  0
 23 56  1  0
 24 57  1  0
 24 58  1  0
 26 59  1  0
 26 60  1  0
 27 61  1  0
 27 62  1  0
 28 63  1  0
 28 64  1  0
 29 65  1  0
 30 66  1  0
 30 67  1  0
 30 68  1  0
 31 69  1  0
 31 70  1  0
 33 71  1  0
 34 72  1  0
 37 73  1  0
 37 74  1  0
 37 75  1  0
 38 76  1  0
 38 77  1  0
 38 78  1  0
 39 79  1  0
 40 80  1  0
M  END
$$$$
