
     RDKit          3D

 60 64  0  0  0  0  0  0  0  0999 V2000
   -4.9585   -3.8720   -0.4749 C   0  0  0  0  0  0  0  0  0  0  0  0
   -4.7285   -2.4587   -0.9953 C   0  0  0  0  0  0  0  0  0  0  0  0
   -3.3243   -1.9222   -0.6803 C   0  0  0  0  0  0  0  0  0  0  0  0
   -3.1783   -1.7270    0.7598 N   0  0  0  0  0  0  0  0  0  0  0  0
   -1.9292   -1.1920    1.0933 C   0  0  0  0  0  0  0  0  0  0  0  0
   -1.4370   -1.6060    2.2678 N   0  0  0  0  0  0  0  0  0  0  0  0
   -0.2795   -1.0561    2.6312 C   0  0  0  0  0  0  0  0  0  0  0  0
    0.4484   -0.2003    1.9053 N   0  0  0  0  0  0  0  0  0  0  0  0
   -0.0297    0.1668    0.6975 C   0  0  0  0  0  0  0  0  0  0  0  0
    0.8364    0.9079   -0.1279 N   0  0  0  0  0  0  0  0  0  0  0  0
    1.3802    0.1104   -1.2603 C   0  0  0  0  0  0  0  0  0  0  0  0
    2.5724   -0.7800   -0.8430 C   0  0  0  0  0  0  0  0  0  0  0  0
    3.6425    0.0401   -0.2352 N   0  0  0  0  0  0  0  0  0  0  0  0
    4.8904   -0.5690   -0.0154 C   0  0  0  0  0  0  0  0  0  0  0  0
    6.0171    0.2377    0.2232 C   0  0  0  0  0  0  0  0  0  0  0  0
    7.2850   -0.3117    0.4391 C   0  0  0  0  0  0  0  0  0  0  0  0
    7.4570   -1.6909    0.4142 C   0  0  0  0  0  0  0  0  0  0  0  0
    6.3625   -2.5132    0.1691 C   0  0  0  0  0  0  0  0  0  0  0  0
    5.0958   -1.9562   -0.0474 C   0  0  0  0  0  0  0  0  0  0  0  0
    3.1526    0.8111    0.9400 C   0  0  0  0  0  0  0  0  0  0  0  0
    1.9072    1.6583    0.5783 C   0  0  0  0  0  0  0  0  0  0  0  0
   -1.2939   -0.2618    0.2589 C   0  0  0  0  0  0  0  0  0  0  0  0
   -1.9692    0.1542   -0.9475 N   0  0  0  0  0  0  0  0  0  0  0  0
   -1.7895    1.5033   -1.4843 C   0  0  0  0  0  0  0  0  0  0  0  0
   -2.5204    2.5569   -0.6763 C   0  0  0  0  0  0  0  0  0  0  0  0
   -3.8957    2.7682   -0.8585 C   0  0  0  0  0  0  0  0  0  0  0  0
   -4.5737    3.7282   -0.1054 C   0  0  0  0  0  0  0  0  0  0  0  0
   -3.8867    4.4857    0.8407 C   0  0  0  0  0  0  0  0  0  0  0  0
   -2.5215    4.2829    1.0354 C   0  0  0  0  0  0  0  0  0  0  0  0
   -1.8423    3.3248    0.2808 C   0  0  0  0  0  0  0  0  0  0  0  0
   -3.0644   -0.5863   -1.4207 C   0  0  0  0  0  0  0  0  0  0  0  0
   -3.7249   -0.2489   -2.4054 O   0  0  0  0  0  0  0  0  0  0  0  0
   -4.2032   -4.5616   -0.8655 H   0  0  0  0  0  0  0  0  0  0  0  0
   -5.9422   -4.2326   -0.7925 H   0  0  0  0  0  0  0  0  0  0  0  0
   -4.9291   -3.9094    0.6181 H   0  0  0  0  0  0  0  0  0  0  0  0
   -5.4923   -1.7910   -0.5767 H   0  0  0  0  0  0  0  0  0  0  0  0
   -4.8850   -2.4717   -2.0810 H   0  0  0  0  0  0  0  0  0  0  0  0
   -2.5786   -2.6428   -1.0446 H   0  0  0  0  0  0  0  0  0  0  0  0
   -3.3536   -2.5212    1.3667 H   0  0  0  0  0  0  0  0  0  0  0  0
    0.1192   -1.3411    3.5988 H   0  0  0  0  0  0  0  0  0  0  0  0
    0.6093   -0.5081   -1.7339 H   0  0  0  0  0  0  0  0  0  0  0  0
    1.7193    0.8177   -2.0282 H   0  0  0  0  0  0  0  0  0  0  0  0
    2.9464   -1.2805   -1.7445 H   0  0  0  0  0  0  0  0  0  0  0  0
    2.2295   -1.5471   -0.1373 H   0  0  0  0  0  0  0  0  0  0  0  0
    5.9166    1.3207    0.2173 H   0  0  0  0  0  0  0  0  0  0  0  0
    8.1343    0.3421    0.6176 H   0  0  0  0  0  0  0  0  0  0  0  0
    8.4401   -2.1226    0.5796 H   0  0  0  0  0  0  0  0  0  0  0  0
    6.4892   -3.5924    0.1445 H   0  0  0  0  0  0  0  0  0  0  0  0
    4.2730   -2.6417   -0.2244 H   0  0  0  0  0  0  0  0  0  0  0  0
    3.9175    1.5049    1.3080 H   0  0  0  0  0  0  0  0  0  0  0  0
    2.9301    0.1184    1.7598 H   0  0  0  0  0  0  0  0  0  0  0  0
    2.2286    2.4622   -0.0972 H   0  0  0  0  0  0  0  0  0  0  0  0
    1.5134    2.1599    1.4715 H   0  0  0  0  0  0  0  0  0  0  0  0
   -0.7397    1.7682   -1.6019 H   0  0  0  0  0  0  0  0  0  0  0  0
   -2.1778    1.5378   -2.5108 H   0  0  0  0  0  0  0  0  0  0  0  0
   -4.4488    2.1829   -1.5914 H   0  0  0  0  0  0  0  0  0  0  0  0
   -5.6388    3.8826   -0.2584 H   0  0  0  0  0  0  0  0  0  0  0  0
   -4.4153    5.2316    1.4280 H   0  0  0  0  0  0  0  0  0  0  0  0
   -1.9850    4.8707    1.7755 H   0  0  0  0  0  0  0  0  0  0  0  0
   -0.7777    3.1800    0.4461 H   0  0  0  0  0  0  0  0  0  0  0  0
  1  2  1  0
  2  3  1  0
  3  4  1  0
  4  5  1  0
  5  6  2  0
  6  7  1  0
  7  8  2  0
  8  9  1  0
  9 10  1  0
 10 11  1  0
 11 12  1  0
 12 13  1  0
 13 14  1  0
 14 15  2  0
 15 16  1  0
 16 17  2  0
 17 18  1  0
 18 19  2  0
 13 20  1  0
 20 21  1  0
  9 22  2  0
 22 23  1  0
 23 24  1  0
 24 25  1  0
 25 26  2  0
 26 27  1  0
 27 28  2  0
 28 29  1  0
 29 30  2  0
 23 31  1  0
 31 32  2  0
 31  3  1  0
 22  5  1  0
 30 25  1  0
 21 10  1  0
 19 14  1  0
  1 33  1  0
  1 34  1  0
  1 35  1  0
  2 36  1  0
  2 37  1  0
  3 38  1  0
  4 39  1  0
  7 40  1  0
 11 41  1  0
 11 42  1  0
 12 43  1  0
 12 44  1  0
 15 45  1  0
 16 46  1  0
 17 47  1  0
 18 48  1  0
 19 49  1  0
 20 50  1  0
 20 51  1  0
 21 52  1  0
 21 53  1  0
 24 54  1  0
 24 55  1  0
 26 56  1  0
 27 57  1  0
 28 58  1  0
 29 59  1  0
 30 60  1  0
M  END
$$$$
