
     RDKit          3D

 67 72  0  0  0  0  0  0  0  0999 V2000
   -1.8954   -1.7194   -2.0198 O   0  0  0  0  0  0  0  0  0  0  0  0
   -2.0649   -0.8614   -1.1561 C   0  0  0  0  0  0  0  0  0  0  0  0
   -0.8804   -0.1002   -0.5649 C   0  0  0  0  0  0  0  0  0  0  0  0
   -0.5990    1.1170   -1.4533 C   0  0  0  0  0  0  0  0  0  0  0  0
    0.5632    1.8962   -0.8683 C   0  0  0  0  0  0  0  0  0  0  0  0
    1.8167    1.0229   -0.8363 C   0  0  0  0  0  0  0  0  0  0  0  0
    1.5733   -0.2314   -0.1172 N   0  0  0  0  0  0  0  0  0  0  0  0
    2.7209   -1.0502    0.0594 C   0  0  0  0  0  0  0  0  0  0  0  0
    2.5471   -2.3899    0.2982 N   0  0  0  0  0  0  0  0  0  0  0  0
    3.6187   -3.1845    0.5114 C   0  0  0  0  0  0  0  0  0  0  0  0
    4.9173   -2.8368    0.5562 N   0  0  0  0  0  0  0  0  0  0  0  0
    5.0662   -1.5232    0.3163 C   0  0  0  0  0  0  0  0  0  0  0  0
    4.0693   -0.5968    0.0471 C   0  0  0  0  0  0  0  0  0  0  0  0
    4.6382    0.6383   -0.1971 N   0  0  0  0  0  0  0  0  0  0  0  0
    5.9387    0.4778   -0.0772 C   0  0  0  0  0  0  0  0  0  0  0  0
    6.2373   -0.8144    0.2794 N   0  0  0  0  0  0  0  0  0  0  0  0
    7.5564   -1.3289    0.5602 C   0  0  0  0  0  0  0  0  0  0  0  0
    8.2621   -0.5912    1.7011 C   0  0  0  0  0  0  0  0  0  0  0  0
    8.8044    0.7875    1.3197 C   0  0  0  0  0  0  0  0  0  0  0  0
    7.7426    1.8350    0.9955 C   0  0  0  0  0  0  0  0  0  0  0  0
    6.9591    1.5404   -0.2770 C   0  0  0  0  0  0  0  0  0  0  0  0
    0.3584   -1.0045   -0.4442 C   0  0  0  0  0  0  0  0  0  0  0  0
   -3.3427   -0.4586   -0.7842 N   0  0  0  0  0  0  0  0  0  0  0  0
   -3.6397    0.4659    0.3143 C   0  0  0  0  0  0  0  0  0  0  0  0
   -5.0850    0.9884    0.3015 C   0  0  0  0  0  0  0  0  0  0  0  0
   -6.0528   -0.1225    0.2918 N   0  0  0  0  0  0  0  0  0  0  0  0
   -7.4053    0.1264    0.5602 C   0  0  0  0  0  0  0  0  0  0  0  0
   -8.2840   -0.9471    0.8100 C   0  0  0  0  0  0  0  0  0  0  0  0
   -9.6457   -0.7474    1.0886 C   0  0  0  0  0  0  0  0  0  0  0  0
  -10.1665    0.5401    1.1129 C   0  0  0  0  0  0  0  0  0  0  0  0
   -9.3290    1.6222    0.8926 C   0  0  0  0  0  0  0  0  0  0  0  0
   -7.9719    1.4143    0.6339 C   0  0  0  0  0  0  0  0  0  0  0  0
   -7.2296    2.5112    0.4169 F   0  0  0  0  0  0  0  0  0  0  0  0
   -5.7124   -1.2943   -0.5446 C   0  0  0  0  0  0  0  0  0  0  0  0
   -4.5004   -1.0543   -1.4616 C   0  0  0  0  0  0  0  0  0  0  0  0
   -1.1157    0.2449    0.4495 H   0  0  0  0  0  0  0  0  0  0  0  0
   -0.3505    0.7839   -2.4737 H   0  0  0  0  0  0  0  0  0  0  0  0
   -1.4793    1.7656   -1.5342 H   0  0  0  0  0  0  0  0  0  0  0  0
    0.3152    2.2285    0.1485 H   0  0  0  0  0  0  0  0  0  0  0  0
    0.7505    2.7998   -1.4689 H   0  0  0  0  0  0  0  0  0  0  0  0
    2.5633    1.6279   -0.3192 H   0  0  0  0  0  0  0  0  0  0  0  0
    2.1660    0.8332   -1.8614 H   0  0  0  0  0  0  0  0  0  0  0  0
    3.3943   -4.2439    0.6495 H   0  0  0  0  0  0  0  0  0  0  0  0
    7.4598   -2.3881    0.8290 H   0  0  0  0  0  0  0  0  0  0  0  0
    8.1330   -1.2769   -0.3720 H   0  0  0  0  0  0  0  0  0  0  0  0
    7.5945   -0.4938    2.5627 H   0  0  0  0  0  0  0  0  0  0  0  0
    9.1147   -1.1941    2.0238 H   0  0  0  0  0  0  0  0  0  0  0  0
    9.3903    1.1619    2.1654 H   0  0  0  0  0  0  0  0  0  0  0  0
    9.5017    0.6994    0.4771 H   0  0  0  0  0  0  0  0  0  0  0  0
    7.0592    1.9585    1.8497 H   0  0  0  0  0  0  0  0  0  0  0  0
    8.2540    2.7948    0.8586 H   0  0  0  0  0  0  0  0  0  0  0  0
    6.4348    2.4511   -0.5839 H   0  0  0  0  0  0  0  0  0  0  0  0
    7.6398    1.2823   -1.0983 H   0  0  0  0  0  0  0  0  0  0  0  0
    0.5021   -1.6679   -1.3190 H   0  0  0  0  0  0  0  0  0  0  0  0
    0.1457   -1.6675    0.4196 H   0  0  0  0  0  0  0  0  0  0  0  0
   -2.9518    1.3128    0.2807 H   0  0  0  0  0  0  0  0  0  0  0  0
   -3.4504   -0.0824    1.2392 H   0  0  0  0  0  0  0  0  0  0  0  0
   -5.2181    1.6064    1.1958 H   0  0  0  0  0  0  0  0  0  0  0  0
   -5.2364    1.6192   -0.5826 H   0  0  0  0  0  0  0  0  0  0  0  0
   -7.9164   -1.9693    0.8134 H   0  0  0  0  0  0  0  0  0  0  0  0
  -10.2794   -1.6072    1.3017 H   0  0  0  0  0  0  0  0  0  0  0  0
  -11.2214    0.7056    1.3204 H   0  0  0  0  0  0  0  0  0  0  0  0
   -9.7136    2.6362    0.9107 H   0  0  0  0  0  0  0  0  0  0  0  0
   -6.5511   -1.5710   -1.1911 H   0  0  0  0  0  0  0  0  0  0  0  0
   -5.5105   -2.1393    0.1164 H   0  0  0  0  0  0  0  0  0  0  0  0
   -4.7797   -0.3450   -2.2540 H   0  0  0  0  0  0  0  0  0  0  0  0
   -4.2298   -1.9922   -1.9592 H   0  0  0  0  0  0  0  0  0  0  0  0
  1  2  2  0
  2  3  1  0
  3  4  1  0
  4  5  1  0
  5  6  1  0
  6  7  1  0
  7  8  1  0
  8  9  2  0
  9 10  1  0
 10 11  2  0
 11 12  1  0
 12 13  2  0
 13 14  1  0
 14 15  2  0
 15 16  1  0
 16 17  1  0
 17 18  1  0
 18 19  1  0
 19 20  1  0
 20 21  1  0
  7 22  1  0
  2 23  1  0
 23 24  1  0
 24 25  1  0
 25 26  1  0
 26 27  1  0
 27 28  2  0
 28 29  1  0
 29 30  2  0
 30 31  1  0
 31 32  2  0
 32 33  1  0
 26 34  1  0
 34 35  1  0
 22  3  1  0
 35 23  1  0
 13  8  1  0
 21 15  1  0
 32 27  1  0
 16 12  1  0
  3 36  1  0
  4 37  1  0
  4 38  1  0
  5 39  1  0
  5 40  1  0
  6 41  1  0
  6 42  1  0
 10 43  1  0
 17 44  1  0
 17 45  1  0
 18 46  1  0
 18 47  1  0
 19 48  1  0
 19 49  1  0
 20 50  1  0
 20 51  1  0
 21 52  1  0
 21 53  1  0
 22 54  1  0
 22 55  1  0
 24 56  1  0
 24 57  1  0
 25 58  1  0
 25 59  1  0
 28 60  1  0
 29 61  1  0
 30 62  1  0
 31 63  1  0
 34 64  1  0
 34 65  1  0
 35 66  1  0
 35 67  1  0
M  END
$$$$
