
     RDKit          3D

 47 49  0  0  0  0  0  0  0  0999 V2000
    6.8576    1.2499   -1.0396 C   0  0  0  0  0  0  0  0  0  0  0  0
    6.1925    0.4051    0.0414 C   0  0  0  0  0  0  0  0  0  0  0  0
    6.9224   -0.9242    0.2176 C   0  0  0  0  0  0  0  0  0  0  0  0
    4.7966    0.1812   -0.2879 N   0  0  0  0  0  0  0  0  0  0  0  0
    3.8468   -0.1009    0.6701 C   0  0  0  0  0  0  0  0  0  0  0  0
    4.0126   -0.0792    1.8806 O   0  0  0  0  0  0  0  0  0  0  0  0
    2.4726   -0.4772    0.0828 C   0  0  0  0  0  0  0  0  0  0  0  0
    2.3010   -0.5256   -1.1300 O   0  0  0  0  0  0  0  0  0  0  0  0
    1.5120   -0.7305    1.0382 N   0  0  0  0  0  0  0  0  0  0  0  0
    0.1716   -0.8057    0.6273 N   0  0  0  0  0  0  0  0  0  0  0  0
   -0.7661   -0.1485    1.4024 C   0  0  0  0  0  0  0  0  0  0  0  0
   -0.4762    0.3249    2.5009 O   0  0  0  0  0  0  0  0  0  0  0  0
   -2.1711   -0.0559    0.7893 C   0  0  0  0  0  0  0  0  0  0  0  0
   -2.7270   -1.4645    0.4687 C   0  0  0  0  0  0  0  0  0  0  0  0
   -4.1403   -1.3629   -0.1315 C   0  0  0  0  0  0  0  0  0  0  0  0
   -4.0825   -0.5274   -1.4219 C   0  0  0  0  0  0  0  0  0  0  0  0
   -3.5585    0.8859   -1.1140 C   0  0  0  0  0  0  0  0  0  0  0  0
   -4.4946    1.5631   -0.1005 C   0  0  0  0  0  0  0  0  0  0  0  0
   -4.5524    0.7374    1.1945 C   0  0  0  0  0  0  0  0  0  0  0  0
   -5.0729   -0.6733    0.8769 C   0  0  0  0  0  0  0  0  0  0  0  0
   -3.1382    0.6317    1.7878 C   0  0  0  0  0  0  0  0  0  0  0  0
   -2.1457    0.7812   -0.5126 C   0  0  0  0  0  0  0  0  0  0  0  0
    7.9033    1.4551   -0.7883 H   0  0  0  0  0  0  0  0  0  0  0  0
    6.8321    0.7450   -2.0118 H   0  0  0  0  0  0  0  0  0  0  0  0
    6.3415    2.2095   -1.1533 H   0  0  0  0  0  0  0  0  0  0  0  0
    6.2321    0.9511    0.9916 H   0  0  0  0  0  0  0  0  0  0  0  0
    7.9736   -0.7613    0.4771 H   0  0  0  0  0  0  0  0  0  0  0  0
    6.8847   -1.5216   -0.7002 H   0  0  0  0  0  0  0  0  0  0  0  0
    6.4668   -1.5196    1.0161 H   0  0  0  0  0  0  0  0  0  0  0  0
    4.5240    0.0041   -1.2519 H   0  0  0  0  0  0  0  0  0  0  0  0
    1.6876   -0.4499    2.0072 H   0  0  0  0  0  0  0  0  0  0  0  0
    0.0251   -0.9605   -0.3684 H   0  0  0  0  0  0  0  0  0  0  0  0
   -2.7494   -2.0773    1.3794 H   0  0  0  0  0  0  0  0  0  0  0  0
   -2.0740   -1.9912   -0.2384 H   0  0  0  0  0  0  0  0  0  0  0  0
   -4.5181   -2.3663   -0.3576 H   0  0  0  0  0  0  0  0  0  0  0  0
   -3.4311   -1.0168   -2.1564 H   0  0  0  0  0  0  0  0  0  0  0  0
   -5.0807   -0.4661   -1.8727 H   0  0  0  0  0  0  0  0  0  0  0  0
   -3.5240    1.4763   -2.0365 H   0  0  0  0  0  0  0  0  0  0  0  0
   -5.5004    1.6617   -0.5270 H   0  0  0  0  0  0  0  0  0  0  0  0
   -4.1401    2.5781    0.1171 H   0  0  0  0  0  0  0  0  0  0  0  0
   -5.2201    1.2245    1.9140 H   0  0  0  0  0  0  0  0  0  0  0  0
   -6.0891   -0.6144    0.4679 H   0  0  0  0  0  0  0  0  0  0  0  0
   -5.1341   -1.2667    1.7974 H   0  0  0  0  0  0  0  0  0  0  0  0
   -3.1749    0.0681    2.7295 H   0  0  0  0  0  0  0  0  0  0  0  0
   -2.7713    1.6347    2.0433 H   0  0  0  0  0  0  0  0  0  0  0  0
   -1.4733    0.3343   -1.2550 H   0  0  0  0  0  0  0  0  0  0  0  0
   -1.7501    1.7847   -0.3076 H   0  0  0  0  0  0  0  0  0  0  0  0
  1  2  1  0
  2  3  1  0
  2  4  1  0
  4  5  1  0
  5  6  2  0
  5  7  1  0
  7  8  2  0
  7  9  1  0
  9 10  1  0
 10 11  1  0
 11 12  2  0
 11 13  1  0
 13 14  1  0
 14 15  1  0
 15 16  1  0
 16 17  1  0
 17 18  1  0
 18 19  1  0
 19 20  1  0
 19 21  1  0
 17 22  1  0
 21 13  1  0
 22 13  1  0
 20 15  1  0
  1 23  1  0
  1 24  1  0
  1 25  1  0
  2 26  1  0
  3 27  1  0
  3 28  1  0
  3 29  1  0
  4 30  1  0
  9 31  1  0
 10 32  1  0
 14 33  1  0
 14 34  1  0
 15 35  1  0
 16 36  1  0
 16 37  1  0
 17 38  1  0
 18 39  1  0
 18 40  1  0
 19 41  1  0
 20 42  1  0
 20 43  1  0
 21 44  1  0
 21 45  1  0
 22 46  1  0
 22 47  1  0
M  END
$$$$
