
     RDKit          3D

 44 47  0  0  0  0  0  0  0  0999 V2000
   -6.7193   -1.0309   -2.0645 C   0  0  0  0  0  0  0  0  0  0  0  0
   -5.7499    0.0046   -2.1642 O   0  0  0  0  0  0  0  0  0  0  0  0
   -4.6510   -0.0980   -1.3569 C   0  0  0  0  0  0  0  0  0  0  0  0
   -3.7284    0.9404   -1.4922 C   0  0  0  0  0  0  0  0  0  0  0  0
   -2.5594    0.9619   -0.7275 C   0  0  0  0  0  0  0  0  0  0  0  0
   -2.2898   -0.0632    0.1909 C   0  0  0  0  0  0  0  0  0  0  0  0
   -1.0297   -0.0587    1.0422 C   0  0  0  0  0  0  0  0  0  0  0  0
    0.2270    0.0194    0.2040 C   0  0  0  0  0  0  0  0  0  0  0  0
    1.3139    0.7206    0.5735 C   0  0  0  0  0  0  0  0  0  0  0  0
    2.4944    0.7490   -0.3106 C   0  0  0  0  0  0  0  0  0  0  0  0
    2.5554    1.7576   -1.2734 C   0  0  0  0  0  0  0  0  0  0  0  0
    3.6507    1.7948   -2.1103 C   0  0  0  0  0  0  0  0  0  0  0  0
    4.6673    0.9113   -2.0539 N   0  0  0  0  0  0  0  0  0  0  0  0
    4.6120   -0.0658   -1.1359 C   0  0  0  0  0  0  0  0  0  0  0  0
    5.6584   -0.9775   -1.0857 C   0  0  0  0  0  0  0  0  0  0  0  0
    5.6805   -2.0275   -0.1643 C   0  0  0  0  0  0  0  0  0  0  0  0
    4.6302   -2.1705    0.7297 C   0  0  0  0  0  0  0  0  0  0  0  0
    4.6401   -3.4592    1.8675 Cl  0  0  0  0  0  0  0  0  0  0  0  0
    3.5669   -1.2719    0.7061 C   0  0  0  0  0  0  0  0  0  0  0  0
    3.5396   -0.2046   -0.2254 C   0  0  0  0  0  0  0  0  0  0  0  0
    1.4262    1.4802    1.8675 C   0  0  0  0  0  0  0  0  0  0  0  0
    0.2373    1.1979    2.7696 C   0  0  0  0  0  0  0  0  0  0  0  0
    0.3451    1.1884    3.9962 O   0  0  0  0  0  0  0  0  0  0  0  0
   -1.1042    1.0503    2.0969 C   0  0  0  0  0  0  0  0  0  0  0  0
   -3.2227   -1.1022    0.3230 C   0  0  0  0  0  0  0  0  0  0  0  0
   -4.3934   -1.1202   -0.4450 C   0  0  0  0  0  0  0  0  0  0  0  0
   -6.2936   -1.9991   -2.3482 H   0  0  0  0  0  0  0  0  0  0  0  0
   -7.5255   -0.8029   -2.7685 H   0  0  0  0  0  0  0  0  0  0  0  0
   -7.1549   -1.0686   -1.0605 H   0  0  0  0  0  0  0  0  0  0  0  0
   -3.9226    1.7414   -2.2015 H   0  0  0  0  0  0  0  0  0  0  0  0
   -1.8623    1.7861   -0.8601 H   0  0  0  0  0  0  0  0  0  0  0  0
   -0.9682   -1.0225    1.5682 H   0  0  0  0  0  0  0  0  0  0  0  0
    0.2277   -0.5417   -0.7309 H   0  0  0  0  0  0  0  0  0  0  0  0
    1.7693    2.4980   -1.3745 H   0  0  0  0  0  0  0  0  0  0  0  0
    3.7456    2.5600   -2.8758 H   0  0  0  0  0  0  0  0  0  0  0  0
    6.4828   -0.8675   -1.7875 H   0  0  0  0  0  0  0  0  0  0  0  0
    6.5167   -2.7212   -0.1567 H   0  0  0  0  0  0  0  0  0  0  0  0
    2.7540   -1.4045    1.4157 H   0  0  0  0  0  0  0  0  0  0  0  0
    2.3332    1.1834    2.4059 H   0  0  0  0  0  0  0  0  0  0  0  0
    1.4610    2.5585    1.6789 H   0  0  0  0  0  0  0  0  0  0  0  0
   -1.3675    2.0250    1.6685 H   0  0  0  0  0  0  0  0  0  0  0  0
   -1.8630    0.8092    2.8506 H   0  0  0  0  0  0  0  0  0  0  0  0
   -3.0487   -1.9126    1.0285 H   0  0  0  0  0  0  0  0  0  0  0  0
   -5.0812   -1.9473   -0.3043 H   0  0  0  0  0  0  0  0  0  0  0  0
  1  2  1  0
  2  3  1  0
  3  4  2  0
  4  5  1  0
  5  6  2  0
  6  7  1  0
  7  8  1  0
  8  9  2  0
  9 10  1  0
 10 11  2  0
 11 12  1  0
 12 13  2  0
 13 14  1  0
 14 15  2  0
 15 16  1  0
 16 17  2  0
 17 18  1  0
 17 19  1  0
 19 20  2  0
  9 21  1  0
 21 22  1  0
 22 23  2  0
 22 24  1  0
  6 25  1  0
 25 26  2  0
 26  3  1  0
 24  7  1  0
 20 10  1  0
 20 14  1  0
  1 27  1  0
  1 28  1  0
  1 29  1  0
  4 30  1  0
  5 31  1  0
  7 32  1  0
  8 33  1  0
 11 34  1  0
 12 35  1  0
 15 36  1  0
 16 37  1  0
 19 38  1  0
 21 39  1  0
 21 40  1  0
 24 41  1  0
 24 42  1  0
 25 43  1  0
 26 44  1  0
M  END
$$$$
