
     RDKit          3D

 35 36  0  0  0  0  0  0  0  0999 V2000
    4.2175    1.4360    1.7684 C   0  0  0  0  0  0  0  0  0  0  0  0
    4.1235    0.0637    1.1251 C   0  0  0  0  0  0  0  0  0  0  0  0
    3.7420    0.1353   -0.2769 N   0  0  0  0  0  0  0  0  0  0  0  0
    4.7376    0.1787   -1.1930 N   0  0  0  0  0  0  0  0  0  0  0  0
    4.0994    0.2180   -2.3596 C   0  0  0  0  0  0  0  0  0  0  0  0
    2.7112    0.1915   -2.1901 C   0  0  0  0  0  0  0  0  0  0  0  0
    1.5243    0.2563   -3.6404 Br  0  0  0  0  0  0  0  0  0  0  0  0
    2.4712    0.1339   -0.8282 C   0  0  0  0  0  0  0  0  0  0  0  0
    1.2436    0.0991   -0.0480 C   0  0  0  0  0  0  0  0  0  0  0  0
    1.2501    0.2860    1.1637 O   0  0  0  0  0  0  0  0  0  0  0  0
    0.1043   -0.1716   -0.7817 N   0  0  0  0  0  0  0  0  0  0  0  0
   -1.2292   -0.2698   -0.3307 C   0  0  0  0  0  0  0  0  0  0  0  0
   -2.2031   -0.5645   -1.2955 C   0  0  0  0  0  0  0  0  0  0  0  0
   -3.5561   -0.6835   -0.9484 C   0  0  0  0  0  0  0  0  0  0  0  0
   -4.5895   -0.9580   -2.0006 C   0  0  0  0  0  0  0  0  0  0  0  0
   -3.9366   -0.4830    0.3820 C   0  0  0  0  0  0  0  0  0  0  0  0
   -2.9781   -0.2025    1.3620 C   0  0  0  0  0  0  0  0  0  0  0  0
   -3.3941    0.0378    2.7841 C   0  0  0  0  0  0  0  0  0  0  0  0
   -1.6280   -0.0874    0.9943 C   0  0  0  0  0  0  0  0  0  0  0  0
    3.2626    1.9689    1.7237 H   0  0  0  0  0  0  0  0  0  0  0  0
    4.9654    2.0557    1.2623 H   0  0  0  0  0  0  0  0  0  0  0  0
    4.5079    1.3429    2.8194 H   0  0  0  0  0  0  0  0  0  0  0  0
    3.4179   -0.5863    1.6492 H   0  0  0  0  0  0  0  0  0  0  0  0
    5.0987   -0.4361    1.1726 H   0  0  0  0  0  0  0  0  0  0  0  0
    4.6779    0.2660   -3.2733 H   0  0  0  0  0  0  0  0  0  0  0  0
    0.2378   -0.3239   -1.7722 H   0  0  0  0  0  0  0  0  0  0  0  0
   -1.9171   -0.7022   -2.3358 H   0  0  0  0  0  0  0  0  0  0  0  0
   -4.1756   -1.5797   -2.8014 H   0  0  0  0  0  0  0  0  0  0  0  0
   -5.4431   -1.4991   -1.5788 H   0  0  0  0  0  0  0  0  0  0  0  0
   -4.9448   -0.0165   -2.4305 H   0  0  0  0  0  0  0  0  0  0  0  0
   -4.9873   -0.5468    0.6589 H   0  0  0  0  0  0  0  0  0  0  0  0
   -2.6176   -0.2978    3.4796 H   0  0  0  0  0  0  0  0  0  0  0  0
   -3.5779    1.1045    2.9446 H   0  0  0  0  0  0  0  0  0  0  0  0
   -4.3063   -0.5182    3.0247 H   0  0  0  0  0  0  0  0  0  0  0  0
   -0.9084    0.1522    1.7707 H   0  0  0  0  0  0  0  0  0  0  0  0
  1  2  1  0
  2  3  1  0
  3  4  1  0
  4  5  2  0
  5  6  1  0
  6  7  1  0
  6  8  2  0
  8  9  1  0
  9 10  2  0
  9 11  1  0
 11 12  1  0
 12 13  2  0
 13 14  1  0
 14 15  1  0
 14 16  2  0
 16 17  1  0
 17 18  1  0
 17 19  2  0
  8  3  1  0
 19 12  1  0
  1 20  1  0
  1 21  1  0
  1 22  1  0
  2 23  1  0
  2 24  1  0
  5 25  1  0
 11 26  1  0
 13 27  1  0
 15 28  1  0
 15 29  1  0
 15 30  1  0
 16 31  1  0
 18 32  1  0
 18 33  1  0
 18 34  1  0
 19 35  1  0
M  END
$$$$
