
     RDKit          3D

 72 75  0  0  0  0  0  0  0  0999 V2000
   -3.8319    1.6810    3.0413 C   0  0  0  0  0  0  0  0  0  0  0  0
   -4.6573    1.0880    1.9346 C   0  0  0  0  0  0  0  0  0  0  0  0
   -5.8102    1.7654    1.5184 C   0  0  0  0  0  0  0  0  0  0  0  0
   -6.6287    1.2489    0.5074 C   0  0  0  0  0  0  0  0  0  0  0  0
   -6.3370    0.0305   -0.1299 C   0  0  0  0  0  0  0  0  0  0  0  0
   -7.2677   -0.5113   -1.2294 C   0  0  0  0  0  0  0  0  0  0  0  0
   -8.6718   -0.7616   -0.6373 C   0  0  0  0  0  0  0  0  0  0  0  0
   -6.7905   -1.8417   -1.8553 C   0  0  0  0  0  0  0  0  0  0  0  0
   -7.3757    0.5180   -2.3758 C   0  0  0  0  0  0  0  0  0  0  0  0
   -5.1843   -0.6500    0.2933 C   0  0  0  0  0  0  0  0  0  0  0  0
   -4.3523   -0.1307    1.3054 C   0  0  0  0  0  0  0  0  0  0  0  0
   -2.9163   -1.0901    1.7695 S   0  0  0  0  0  6  0  0  0  0  0  0
   -2.8994   -1.1875    3.2138 O   0  0  0  0  0  0  0  0  0  0  0  0
   -2.8729   -2.2862    0.9530 O   0  0  0  0  0  0  0  0  0  0  0  0
   -1.6050   -0.0968    1.2768 N   0  0  0  0  0  0  0  0  0  0  0  0
   -1.5092    0.1242   -0.1925 C   0  0  0  0  0  0  0  0  0  0  0  0
   -0.4826    1.2234   -0.4699 C   0  0  0  0  0  0  0  0  0  0  0  0
    0.8904    0.9660    0.1746 C   0  0  0  0  0  0  0  0  0  0  0  0
    1.6965   -0.0827   -0.5975 C   0  0  0  0  0  0  0  0  0  0  0  0
    1.1264   -0.9006   -1.3210 O   0  0  0  0  0  0  0  0  0  0  0  0
    3.0709   -0.1121   -0.4166 N   0  0  0  0  0  0  0  0  0  0  0  0
    3.8646    0.9225    0.2607 C   0  0  0  0  0  0  0  0  0  0  0  0
    5.2640    0.4364    0.6820 C   0  0  0  0  0  0  0  0  0  0  0  0
    6.0162   -0.0930   -0.4648 N   0  0  0  0  0  0  0  0  0  0  0  0
    7.4008   -0.1793   -0.4433 C   0  0  0  0  0  0  0  0  0  0  0  0
    8.1365   -0.0851    0.7504 C   0  0  0  0  0  0  0  0  0  0  0  0
    9.5343   -0.1689    0.7695 C   0  0  0  0  0  0  0  0  0  0  0  0
   10.2288   -0.3453   -0.4151 C   0  0  0  0  0  0  0  0  0  0  0  0
   11.5875   -0.4219   -0.3555 O   0  0  0  0  0  0  0  0  0  0  0  0
    9.5459   -0.4386   -1.6171 C   0  0  0  0  0  0  0  0  0  0  0  0
    8.1469   -0.3539   -1.6230 C   0  0  0  0  0  0  0  0  0  0  0  0
    5.2370   -0.6947   -1.5622 C   0  0  0  0  0  0  0  0  0  0  0  0
    3.8451   -1.1599   -1.0947 C   0  0  0  0  0  0  0  0  0  0  0  0
    0.7297    0.5489    1.6432 C   0  0  0  0  0  0  0  0  0  0  0  0
   -0.3031   -0.5616    1.8210 C   0  0  0  0  0  0  0  0  0  0  0  0
   -3.8964    1.0622    3.9406 H   0  0  0  0  0  0  0  0  0  0  0  0
   -4.1899    2.6799    3.3134 H   0  0  0  0  0  0  0  0  0  0  0  0
   -2.7869    1.7933    2.7395 H   0  0  0  0  0  0  0  0  0  0  0  0
   -6.0918    2.7084    1.9840 H   0  0  0  0  0  0  0  0  0  0  0  0
   -7.5135    1.8192    0.2299 H   0  0  0  0  0  0  0  0  0  0  0  0
   -8.6264   -1.4715    0.1974 H   0  0  0  0  0  0  0  0  0  0  0  0
   -9.3511   -1.1757   -1.3917 H   0  0  0  0  0  0  0  0  0  0  0  0
   -9.1329    0.1584   -0.2610 H   0  0  0  0  0  0  0  0  0  0  0  0
   -7.4815   -2.1808   -2.6363 H   0  0  0  0  0  0  0  0  0  0  0  0
   -6.7338   -2.6420   -1.1085 H   0  0  0  0  0  0  0  0  0  0  0  0
   -5.8036   -1.7376   -2.3206 H   0  0  0  0  0  0  0  0  0  0  0  0
   -6.3883    0.7491   -2.7935 H   0  0  0  0  0  0  0  0  0  0  0  0
   -8.0018    0.1367   -3.1910 H   0  0  0  0  0  0  0  0  0  0  0  0
   -7.8228    1.4620   -2.0450 H   0  0  0  0  0  0  0  0  0  0  0  0
   -4.9138   -1.6026   -0.1563 H   0  0  0  0  0  0  0  0  0  0  0  0
   -2.4721    0.4608   -0.5886 H   0  0  0  0  0  0  0  0  0  0  0  0
   -1.2482   -0.8084   -0.7017 H   0  0  0  0  0  0  0  0  0  0  0  0
   -0.8744    2.1693   -0.0723 H   0  0  0  0  0  0  0  0  0  0  0  0
   -0.3780    1.3575   -1.5532 H   0  0  0  0  0  0  0  0  0  0  0  0
    1.4433    1.9111    0.1192 H   0  0  0  0  0  0  0  0  0  0  0  0
    3.9584    1.7548   -0.4480 H   0  0  0  0  0  0  0  0  0  0  0  0
    3.3365    1.3021    1.1375 H   0  0  0  0  0  0  0  0  0  0  0  0
    5.7862    1.2905    1.1294 H   0  0  0  0  0  0  0  0  0  0  0  0
    5.1662   -0.3469    1.4438 H   0  0  0  0  0  0  0  0  0  0  0  0
    7.6351    0.0331    1.7062 H   0  0  0  0  0  0  0  0  0  0  0  0
   10.0714   -0.0995    1.7108 H   0  0  0  0  0  0  0  0  0  0  0  0
   11.9307   -0.5345   -1.2572 H   0  0  0  0  0  0  0  0  0  0  0  0
   10.0716   -0.5707   -2.5570 H   0  0  0  0  0  0  0  0  0  0  0  0
    7.6473   -0.4043   -2.5864 H   0  0  0  0  0  0  0  0  0  0  0  0
    5.7492   -1.5704   -1.9788 H   0  0  0  0  0  0  0  0  0  0  0  0
    5.1250    0.0482   -2.3610 H   0  0  0  0  0  0  0  0  0  0  0  0
    3.9548   -1.9759   -0.3688 H   0  0  0  0  0  0  0  0  0  0  0  0
    3.2912   -1.5588   -1.9513 H   0  0  0  0  0  0  0  0  0  0  0  0
    0.4134    1.4257    2.2229 H   0  0  0  0  0  0  0  0  0  0  0  0
    1.6778    0.2095    2.0725 H   0  0  0  0  0  0  0  0  0  0  0  0
   -0.3926   -0.7680    2.8927 H   0  0  0  0  0  0  0  0  0  0  0  0
    0.0162   -1.4835    1.3226 H   0  0  0  0  0  0  0  0  0  0  0  0
  1  2  1  0
  2  3  2  0
  3  4  1  0
  4  5  2  0
  5  6  1  0
  6  7  1  0
  6  8  1  0
  6  9  1  0
  5 10  1  0
 10 11  2  0
 11 12  1  0
 12 13  2  0
 12 14  2  0
 12 15  1  0
 15 16  1  0
 16 17  1  0
 17 18  1  0
 18 19  1  0
 19 20  2  0
 19 21  1  0
 21 22  1  0
 22 23  1  0
 23 24  1  0
 24 25  1  0
 25 26  2  0
 26 27  1  0
 27 28  2  0
 28 29  1  0
 28 30  1  0
 30 31  2  0
 24 32  1  0
 32 33  1  0
 18 34  1  0
 34 35  1  0
 11  2  1  0
 35 15  1  0
 33 21  1  0
 31 25  1  0
  1 36  1  0
  1 37  1  0
  1 38  1  0
  3 39  1  0
  4 40  1  0
  7 41  1  0
  7 42  1  0
  7 43  1  0
  8 44  1  0
  8 45  1  0
  8 46  1  0
  9 47  1  0
  9 48  1  0
  9 49  1  0
 10 50  1  0
 16 51  1  0
 16 52  1  0
 17 53  1  0
 17 54  1  0
 18 55  1  0
 22 56  1  0
 22 57  1  0
 23 58  1  0
 23 59  1  0
 26 60  1  0
 27 61  1  0
 29 62  1  0
 30 63  1  0
 31 64  1  0
 32 65  1  0
 32 66  1  0
 33 67  1  0
 33 68  1  0
 34 69  1  0
 34 70  1  0
 35 71  1  0
 35 72  1  0
M  END
$$$$
