
     RDKit          3D

 43 45  0  0  0  0  0  0  0  0999 V2000
   -1.7188   -3.4273   -0.6929 N   0  0  0  0  0  0  0  0  0  0  0  0
   -0.5093   -2.8608   -0.5284 C   0  0  0  0  0  0  0  0  0  0  0  0
    0.5885   -3.5556   -0.4963 N   0  0  0  0  0  0  0  0  0  0  0  0
    1.6573   -2.5330   -0.3234 C   0  0  0  0  0  0  0  0  0  0  0  0
    0.9500   -1.1970   -0.0128 C   0  0  0  0  0  0  0  0  0  0  0  0
    1.4936   -0.0188   -0.8276 C   0  0  0  0  0  0  0  0  0  0  0  0
    2.8831    0.3960   -0.4064 C   0  0  0  0  0  0  0  0  0  0  0  0
    3.9971    0.0550   -1.1870 C   0  0  0  0  0  0  0  0  0  0  0  0
    5.2834    0.4264   -0.7889 C   0  0  0  0  0  0  0  0  0  0  0  0
    5.4548    1.1410    0.3916 C   0  0  0  0  0  0  0  0  0  0  0  0
    6.6919    1.5232    0.8182 O   0  0  0  0  0  0  0  0  0  0  0  0
    4.3633    1.4894    1.1769 C   0  0  0  0  0  0  0  0  0  0  0  0
    3.0782    1.1180    0.7800 C   0  0  0  0  0  0  0  0  0  0  0  0
   -0.4350   -1.5087   -0.3853 N   0  0  0  0  0  0  0  0  0  0  0  0
   -1.4942   -0.6986    0.2140 C   0  0  0  0  0  0  0  0  0  0  0  0
   -2.3620   -0.0649   -0.8779 C   0  0  0  0  0  0  0  0  0  0  0  0
   -3.4175    0.8461   -0.3013 C   0  0  0  0  0  0  0  0  0  0  0  0
   -3.1994    2.2300   -0.2213 C   0  0  0  0  0  0  0  0  0  0  0  0
   -4.1703    3.0721    0.3279 C   0  0  0  0  0  0  0  0  0  0  0  0
   -5.3658    2.5383    0.8049 C   0  0  0  0  0  0  0  0  0  0  0  0
   -5.5802    1.1675    0.7297 C   0  0  0  0  0  0  0  0  0  0  0  0
   -6.7281    0.6535    1.1907 F   0  0  0  0  0  0  0  0  0  0  0  0
   -4.6210    0.3191    0.1853 C   0  0  0  0  0  0  0  0  0  0  0  0
   -2.2647   -2.9747   -1.4128 H   0  0  0  0  0  0  0  0  0  0  0  0
   -1.6042   -4.4131   -0.9084 H   0  0  0  0  0  0  0  0  0  0  0  0
    2.2487   -2.4934   -1.2444 H   0  0  0  0  0  0  0  0  0  0  0  0
    2.3203   -2.8229    0.4985 H   0  0  0  0  0  0  0  0  0  0  0  0
    1.0114   -1.0027    1.0661 H   0  0  0  0  0  0  0  0  0  0  0  0
    0.8321    0.8510   -0.7192 H   0  0  0  0  0  0  0  0  0  0  0  0
    1.4782   -0.2557   -1.8998 H   0  0  0  0  0  0  0  0  0  0  0  0
    3.8712   -0.5045   -2.1120 H   0  0  0  0  0  0  0  0  0  0  0  0
    6.1310    0.1506   -1.4084 H   0  0  0  0  0  0  0  0  0  0  0  0
    7.3508    1.2079    0.1782 H   0  0  0  0  0  0  0  0  0  0  0  0
    4.5131    2.0485    2.0962 H   0  0  0  0  0  0  0  0  0  0  0  0
    2.2325    1.3987    1.4035 H   0  0  0  0  0  0  0  0  0  0  0  0
   -2.1033   -1.3021    0.8988 H   0  0  0  0  0  0  0  0  0  0  0  0
   -1.0572    0.0987    0.8296 H   0  0  0  0  0  0  0  0  0  0  0  0
   -2.8497   -0.8362   -1.4859 H   0  0  0  0  0  0  0  0  0  0  0  0
   -1.7311    0.4999   -1.5768 H   0  0  0  0  0  0  0  0  0  0  0  0
   -2.2711    2.6635   -0.5892 H   0  0  0  0  0  0  0  0  0  0  0  0
   -3.9935    4.1435    0.3827 H   0  0  0  0  0  0  0  0  0  0  0  0
   -6.1293    3.1792    1.2337 H   0  0  0  0  0  0  0  0  0  0  0  0
   -4.8248   -0.7473    0.1473 H   0  0  0  0  0  0  0  0  0  0  0  0
  1  2  1  0
  2  3  2  0
  3  4  1  0
  4  5  1  0
  5  6  1  0
  6  7  1  0
  7  8  2  0
  8  9  1  0
  9 10  2  0
 10 11  1  0
 10 12  1  0
 12 13  2  0
  5 14  1  0
 14 15  1  0
 15 16  1  0
 16 17  1  0
 17 18  2  0
 18 19  1  0
 19 20  2  0
 20 21  1  0
 21 22  1  0
 21 23  2  0
 14  2  1  0
 23 17  1  0
 13  7  1  0
  1 24  1  0
  1 25  1  0
  4 26  1  0
  4 27  1  0
  5 28  1  0
  6 29  1  0
  6 30  1  0
  8 31  1  0
  9 32  1  0
 11 33  1  0
 12 34  1  0
 13 35  1  0
 15 36  1  0
 15 37  1  0
 16 38  1  0
 16 39  1  0
 18 40  1  0
 19 41  1  0
 20 42  1  0
 23 43  1  0
M  END
$$$$
