
     RDKit          3D

 33 35  0  0  0  0  0  0  0  0999 V2000
   -4.5026    0.3130    3.2792 C   0  0  0  0  0  0  0  0  0  0  0  0
   -3.2863    0.2538    2.3687 C   0  0  0  0  0  0  0  0  0  0  0  0
   -3.4304   -0.7515    1.2810 C   0  0  0  0  0  0  0  0  0  0  0  0
   -4.4509   -1.5579    1.0484 N   0  0  0  0  0  0  0  0  0  0  0  0
   -4.1631   -2.3004   -0.0753 N   0  0  0  0  0  0  0  0  0  0  0  0
   -2.9737   -1.9343   -0.4821 C   0  0  0  0  0  0  0  0  0  0  0  0
   -2.4451   -0.9735    0.3405 N   0  0  0  0  0  0  0  0  0  0  0  0
   -1.2546   -0.3085    0.2568 N   0  0  0  0  0  0  0  0  0  0  0  0
   -0.3516   -0.8030   -0.5452 C   0  0  0  0  0  0  0  0  0  0  0  0
    0.9340   -0.0449   -0.6800 C   0  0  0  0  0  0  0  0  0  0  0  0
    0.9164    1.3468   -0.5410 C   0  0  0  0  0  0  0  0  0  0  0  0
    2.1007    2.0782   -0.6608 C   0  0  0  0  0  0  0  0  0  0  0  0
    3.3143    1.4344   -0.9118 C   0  0  0  0  0  0  0  0  0  0  0  0
    4.3933    2.2678   -1.0057 O   0  0  0  0  0  0  0  0  0  0  0  0
    5.6560    1.6653   -1.2606 C   0  0  0  0  0  0  0  0  0  0  0  0
    3.3351    0.0452   -1.0382 C   0  0  0  0  0  0  0  0  0  0  0  0
    2.1502   -0.6941   -0.9203 C   0  0  0  0  0  0  0  0  0  0  0  0
   -0.4532   -2.1259   -1.2975 C   0  0  0  0  0  0  0  0  0  0  0  0
   -2.1251   -2.4696   -1.8769 S   0  0  0  0  0  0  0  0  0  0  0  0
   -5.4048    0.5817    2.7191 H   0  0  0  0  0  0  0  0  0  0  0  0
   -4.6818   -0.6523    3.7651 H   0  0  0  0  0  0  0  0  0  0  0  0
   -4.3538    1.0636    4.0619 H   0  0  0  0  0  0  0  0  0  0  0  0
   -3.1233    1.2446    1.9285 H   0  0  0  0  0  0  0  0  0  0  0  0
   -2.4024    0.0132    2.9710 H   0  0  0  0  0  0  0  0  0  0  0  0
   -0.0142    1.8746   -0.3439 H   0  0  0  0  0  0  0  0  0  0  0  0
    2.0771    3.1607   -0.5556 H   0  0  0  0  0  0  0  0  0  0  0  0
    6.4035    2.4629   -1.3090 H   0  0  0  0  0  0  0  0  0  0  0  0
    5.6585    1.1472   -2.2253 H   0  0  0  0  0  0  0  0  0  0  0  0
    5.9417    0.9895   -0.4477 H   0  0  0  0  0  0  0  0  0  0  0  0
    4.2581   -0.4955   -1.2228 H   0  0  0  0  0  0  0  0  0  0  0  0
    2.2115   -1.7758   -1.0011 H   0  0  0  0  0  0  0  0  0  0  0  0
    0.2015   -2.1280   -2.1731 H   0  0  0  0  0  0  0  0  0  0  0  0
   -0.1349   -2.9274   -0.6222 H   0  0  0  0  0  0  0  0  0  0  0  0
  1  2  1  0
  2  3  1  0
  3  4  2  0
  4  5  1  0
  5  6  2  0
  6  7  1  0
  7  8  1  0
  8  9  2  0
  9 10  1  0
 10 11  2  0
 11 12  1  0
 12 13  2  0
 13 14  1  0
 14 15  1  0
 13 16  1  0
 16 17  2  0
  9 18  1  0
 18 19  1  0
  7  3  1  0
 17 10  1  0
 19  6  1  0
  1 20  1  0
  1 21  1  0
  1 22  1  0
  2 23  1  0
  2 24  1  0
 11 25  1  0
 12 26  1  0
 15 27  1  0
 15 28  1  0
 15 29  1  0
 16 30  1  0
 17 31  1  0
 18 32  1  0
 18 33  1  0
M  END
$$$$
