
     RDKit          3D

 53 56  0  0  0  0  0  0  0  0999 V2000
   -8.8415   -2.1705   -1.1399 C   0  0  0  0  0  0  0  0  0  0  0  0
   -7.6026   -1.5149   -0.9040 O   0  0  0  0  0  0  0  0  0  0  0  0
   -7.7516   -0.4010   -0.0281 C   0  0  0  0  0  0  0  0  0  0  0  0
   -6.4150    0.2967    0.1856 C   0  0  0  0  0  0  0  0  0  0  0  0
   -5.7425    0.7904   -1.0986 C   0  0  0  0  0  0  0  0  0  0  0  0
   -4.2943    1.0018   -0.6662 C   0  0  0  0  0  0  0  0  0  0  0  0
   -4.0835    0.0323    0.4010 N   0  0  0  0  0  0  0  0  0  0  0  0
   -2.8874   -0.3656    0.9833 C   0  0  0  0  0  0  0  0  0  0  0  0
   -2.8736   -1.2858    1.8056 O   0  0  0  0  0  0  0  0  0  0  0  0
   -1.6273    0.3112    0.6313 C   0  0  0  0  0  0  0  0  0  0  0  0
   -0.3299   -0.1101    1.0402 C   0  0  0  0  0  0  0  0  0  0  0  0
    0.5314    0.8118    0.5018 C   0  0  0  0  0  0  0  0  0  0  0  0
    1.9997    0.9854    0.5277 C   0  0  0  0  0  0  0  0  0  0  0  0
    2.5534   -0.1583   -0.1371 O   0  0  0  0  0  0  0  0  0  0  0  0
    3.9142   -0.2038    0.0618 C   0  0  0  0  0  0  0  0  0  0  0  0
    4.3749   -0.9275    1.1607 C   0  0  0  0  0  0  0  0  0  0  0  0
    5.7416   -1.0122    1.4133 C   0  0  0  0  0  0  0  0  0  0  0  0
    6.6557   -0.3838    0.5606 C   0  0  0  0  0  0  0  0  0  0  0  0
    8.0190   -0.4134    0.7475 O   0  0  0  0  0  0  0  0  0  0  0  0
    8.5235   -1.1932    1.8248 C   0  0  0  0  0  0  0  0  0  0  0  0
    6.1971    0.3318   -0.5798 C   0  0  0  0  0  0  0  0  0  0  0  0
    7.0817    0.9700   -1.4788 C   0  0  0  0  0  0  0  0  0  0  0  0
    6.6206    1.6512   -2.6071 C   0  0  0  0  0  0  0  0  0  0  0  0
    5.2588    1.7091   -2.8694 C   0  0  0  0  0  0  0  0  0  0  0  0
    4.3615    1.0910   -1.9986 C   0  0  0  0  0  0  0  0  0  0  0  0
    4.8052    0.4091   -0.8428 C   0  0  0  0  0  0  0  0  0  0  0  0
   -0.1883    1.7435   -0.1747 O   0  0  0  0  0  0  0  0  0  0  0  0
   -1.5335    1.4432   -0.0877 N   0  0  0  0  0  0  0  0  0  0  0  0
   -5.3352   -0.6043    0.7800 C   0  0  0  0  0  0  0  0  0  0  0  0
   -9.5426   -1.4923   -1.6346 H   0  0  0  0  0  0  0  0  0  0  0  0
   -9.2669   -2.5385   -0.2012 H   0  0  0  0  0  0  0  0  0  0  0  0
   -8.6591   -3.0238   -1.7986 H   0  0  0  0  0  0  0  0  0  0  0  0
   -8.1434   -0.7488    0.9355 H   0  0  0  0  0  0  0  0  0  0  0  0
   -8.4716    0.3070   -0.4577 H   0  0  0  0  0  0  0  0  0  0  0  0
   -6.5674    1.1575    0.8504 H   0  0  0  0  0  0  0  0  0  0  0  0
   -6.1983    1.7080   -1.4875 H   0  0  0  0  0  0  0  0  0  0  0  0
   -5.7840    0.0285   -1.8865 H   0  0  0  0  0  0  0  0  0  0  0  0
   -3.6006    0.8389   -1.4959 H   0  0  0  0  0  0  0  0  0  0  0  0
   -4.1554    2.0054   -0.2508 H   0  0  0  0  0  0  0  0  0  0  0  0
   -0.0791   -0.9747    1.6376 H   0  0  0  0  0  0  0  0  0  0  0  0
    2.2909    1.9040    0.0050 H   0  0  0  0  0  0  0  0  0  0  0  0
    2.3357    1.0430    1.5710 H   0  0  0  0  0  0  0  0  0  0  0  0
    3.6692   -1.4251    1.8204 H   0  0  0  0  0  0  0  0  0  0  0  0
    6.0598   -1.5770    2.2834 H   0  0  0  0  0  0  0  0  0  0  0  0
    9.6163   -1.1324    1.7982 H   0  0  0  0  0  0  0  0  0  0  0  0
    8.1916   -0.7946    2.7886 H   0  0  0  0  0  0  0  0  0  0  0  0
    8.2446   -2.2474    1.7131 H   0  0  0  0  0  0  0  0  0  0  0  0
    8.1551    0.9338   -1.3027 H   0  0  0  0  0  0  0  0  0  0  0  0
    7.3303    2.1264   -3.2801 H   0  0  0  0  0  0  0  0  0  0  0  0
    4.8936    2.2277   -3.7526 H   0  0  0  0  0  0  0  0  0  0  0  0
    3.2996    1.1363   -2.2327 H   0  0  0  0  0  0  0  0  0  0  0  0
   -5.3368   -1.6137    0.3562 H   0  0  0  0  0  0  0  0  0  0  0  0
   -5.4135   -0.6824    1.8692 H   0  0  0  0  0  0  0  0  0  0  0  0
  1  2  1  0
  2  3  1  0
  3  4  1  0
  4  5  1  0
  5  6  1  0
  6  7  1  0
  7  8  1  0
  8  9  2  0
  8 10  1  0
 10 11  1  0
 11 12  2  0
 12 13  1  0
 13 14  1  0
 14 15  1  0
 15 16  2  0
 16 17  1  0
 17 18  2  0
 18 19  1  0
 19 20  1  0
 18 21  1  0
 21 22  2  0
 22 23  1  0
 23 24  2  0
 24 25  1  0
 25 26  2  0
 12 27  1  0
 27 28  1  0
  7 29  1  0
 29  4  1  0
 28 10  2  0
 26 15  1  0
 26 21  1  0
  1 30  1  0
  1 31  1  0
  1 32  1  0
  3 33  1  0
  3 34  1  0
  4 35  1  0
  5 36  1  0
  5 37  1  0
  6 38  1  0
  6 39  1  0
 11 40  1  0
 13 41  1  0
 13 42  1  0
 16 43  1  0
 17 44  1  0
 20 45  1  0
 20 46  1  0
 20 47  1  0
 22 48  1  0
 23 49  1  0
 24 50  1  0
 25 51  1  0
 29 52  1  0
 29 53  1  0
M  END
$$$$
