
     RDKit          3D

 45 47  0  0  0  0  0  0  0  0999 V2000
    7.3107   -0.1205    0.3824 C   0  0  0  0  0  0  0  0  0  0  0  0
    5.8416   -0.3219    0.4782 C   0  0  0  0  0  0  0  0  0  0  0  0
    5.2385   -0.6373    1.6701 N   0  0  0  0  0  0  0  0  0  0  0  0
    3.8804   -0.7701    1.5056 C   0  0  0  0  0  0  0  0  0  0  0  0
    2.8889   -1.0881    2.4405 C   0  0  0  0  0  0  0  0  0  0  0  0
    1.5692   -1.1576    1.9839 C   0  0  0  0  0  0  0  0  0  0  0  0
    1.2536   -0.9073    0.6448 C   0  0  0  0  0  0  0  0  0  0  0  0
   -0.1740   -0.9921    0.2310 C   0  0  0  0  0  0  0  0  0  0  0  0
   -0.9558   -1.7125    0.8417 O   0  0  0  0  0  0  0  0  0  0  0  0
   -0.5531   -0.1905   -0.8267 N   0  0  0  0  0  0  0  0  0  0  0  0
   -1.9369   -0.1322   -1.2652 C   0  0  0  0  0  0  0  0  0  0  0  0
   -2.8221    0.6913   -0.3090 C   0  0  0  0  0  0  0  0  0  0  0  0
   -4.1988    0.8658   -0.8044 N   0  0  0  0  0  0  0  0  0  0  0  0
   -5.0061   -0.3722   -0.6950 C   0  0  0  0  0  0  0  0  0  0  0  0
   -5.9739   -0.3786    0.5002 C   0  0  0  0  0  0  0  0  0  0  0  0
   -6.9110    0.7064    0.4721 O   0  0  0  0  0  0  0  0  0  0  0  0
   -6.3935    1.8770   -0.1747 C   0  0  0  0  0  0  0  0  0  0  0  0
   -4.8640    1.9763   -0.0859 C   0  0  0  0  0  0  0  0  0  0  0  0
    2.2678   -0.6076   -0.2800 C   0  0  0  0  0  0  0  0  0  0  0  0
    3.6070   -0.5332    0.1600 C   0  0  0  0  0  0  0  0  0  0  0  0
    4.8536   -0.2611   -0.4916 C   0  0  0  0  0  0  0  0  0  0  0  0
    5.0428    0.0401   -1.9368 C   0  0  0  0  0  0  0  0  0  0  0  0
    7.7630    0.0224    1.3694 H   0  0  0  0  0  0  0  0  0  0  0  0
    7.7812   -0.9905   -0.0872 H   0  0  0  0  0  0  0  0  0  0  0  0
    7.5391    0.7628   -0.2222 H   0  0  0  0  0  0  0  0  0  0  0  0
    5.7191   -0.7584    2.5508 H   0  0  0  0  0  0  0  0  0  0  0  0
    3.1273   -1.2795    3.4819 H   0  0  0  0  0  0  0  0  0  0  0  0
    0.7774   -1.4087    2.6882 H   0  0  0  0  0  0  0  0  0  0  0  0
    0.0744    0.5337   -1.1489 H   0  0  0  0  0  0  0  0  0  0  0  0
   -2.3027   -1.1595   -1.3592 H   0  0  0  0  0  0  0  0  0  0  0  0
   -1.9331    0.3196   -2.2631 H   0  0  0  0  0  0  0  0  0  0  0  0
   -2.8235    0.2507    0.6961 H   0  0  0  0  0  0  0  0  0  0  0  0
   -2.3501    1.6786   -0.2106 H   0  0  0  0  0  0  0  0  0  0  0  0
   -5.6002   -0.4404   -1.6151 H   0  0  0  0  0  0  0  0  0  0  0  0
   -4.3850   -1.2729   -0.6636 H   0  0  0  0  0  0  0  0  0  0  0  0
   -6.5525   -1.3079    0.5087 H   0  0  0  0  0  0  0  0  0  0  0  0
   -5.4224   -0.3313    1.4462 H   0  0  0  0  0  0  0  0  0  0  0  0
   -6.7254    1.8671   -1.2195 H   0  0  0  0  0  0  0  0  0  0  0  0
   -6.8557    2.7461    0.3044 H   0  0  0  0  0  0  0  0  0  0  0  0
   -4.5321    2.9274   -0.5160 H   0  0  0  0  0  0  0  0  0  0  0  0
   -4.5813    1.9690    0.9752 H   0  0  0  0  0  0  0  0  0  0  0  0
    2.0456   -0.4595   -1.3311 H   0  0  0  0  0  0  0  0  0  0  0  0
    6.0614   -0.1956   -2.2635 H   0  0  0  0  0  0  0  0  0  0  0  0
    4.8557    1.1019   -2.1283 H   0  0  0  0  0  0  0  0  0  0  0  0
    4.3550   -0.5493   -2.5523 H   0  0  0  0  0  0  0  0  0  0  0  0
  1  2  1  0
  2  3  1  0
  3  4  1  0
  4  5  2  0
  5  6  1  0
  6  7  2  0
  7  8  1  0
  8  9  2  0
  8 10  1  0
 10 11  1  0
 11 12  1  0
 12 13  1  0
 13 14  1  0
 14 15  1  0
 15 16  1  0
 16 17  1  0
 17 18  1  0
  7 19  1  0
 19 20  2  0
 20 21  1  0
 21 22  1  0
 21  2  2  0
 20  4  1  0
 18 13  1  0
  1 23  1  0
  1 24  1  0
  1 25  1  0
  3 26  1  0
  5 27  1  0
  6 28  1  0
 10 29  1  0
 11 30  1  0
 11 31  1  0
 12 32  1  0
 12 33  1  0
 14 34  1  0
 14 35  1  0
 15 36  1  0
 15 37  1  0
 17 38  1  0
 17 39  1  0
 18 40  1  0
 18 41  1  0
 19 42  1  0
 22 43  1  0
 22 44  1  0
 22 45  1  0
M  END
$$$$
