
     RDKit          3D

 69 71  0  0  0  0  0  0  0  0999 V2000
   -7.3696    3.3194   -0.9082 C   0  0  0  0  0  0  0  0  0  0  0  0
   -6.4173    2.6821    0.0907 C   0  0  0  0  0  0  0  0  0  0  0  0
   -6.0312    1.2651   -0.3306 C   0  0  0  0  0  0  0  0  0  0  0  0
   -5.0020    0.6776    0.5336 N   0  0  0  0  0  0  0  0  0  0  0  0
   -5.4421   -0.0066    1.7539 C   0  0  0  0  0  0  0  0  0  0  0  0
   -5.3699    0.8794    2.9995 C   0  0  0  0  0  0  0  0  0  0  0  0
   -5.7283    0.0966    4.2532 C   0  0  0  0  0  0  0  0  0  0  0  0
   -3.6238    0.7994    0.3193 C   0  0  0  0  0  0  0  0  0  0  0  0
   -2.8062    0.3576    1.1301 O   0  0  0  0  0  0  0  0  0  0  0  0
   -3.1743    1.5116   -0.9665 C   0  0  0  0  0  0  0  0  0  0  0  0
   -1.7161    1.5961   -1.0569 N   0  0  0  0  0  0  0  0  0  0  0  0
   -1.0509    0.5127   -1.6443 C   0  0  0  0  0  0  0  0  0  0  0  0
   -1.6791   -0.4419   -2.1116 O   0  0  0  0  0  0  0  0  0  0  0  0
    0.3479    0.5683   -1.7006 N   0  0  0  0  0  0  0  0  0  0  0  0
    1.0475   -0.5709   -2.2865 C   0  0  0  0  0  0  0  0  0  0  0  0
    1.4923   -1.5657   -1.2098 C   0  0  0  0  0  0  0  0  0  0  0  0
    2.1081   -2.8477   -1.7759 C   0  0  0  0  0  0  0  0  0  0  0  0
    3.3134   -2.6599   -2.7052 C   0  0  0  0  0  0  0  0  0  0  0  0
    4.4936   -1.9057   -2.0920 C   0  0  0  0  0  0  0  0  0  0  0  0
    5.2381   -2.6879   -1.0174 C   0  0  0  0  0  0  0  0  0  0  0  0
    4.9888   -3.8627   -0.7733 O   0  0  0  0  0  0  0  0  0  0  0  0
    6.2176   -1.9102   -0.4188 N   0  0  0  0  0  0  0  0  0  0  0  0
    7.1099   -2.2871    0.6064 C   0  0  0  0  0  0  0  0  0  0  0  0
    7.0845   -3.5272    1.2471 C   0  0  0  0  0  0  0  0  0  0  0  0
    8.0088   -3.8225    2.2548 C   0  0  0  0  0  0  0  0  0  0  0  0
    8.9676   -2.8820    2.6283 C   0  0  0  0  0  0  0  0  0  0  0  0
    8.9969   -1.6398    1.9998 C   0  0  0  0  0  0  0  0  0  0  0  0
    8.0667   -1.3417    0.9993 C   0  0  0  0  0  0  0  0  0  0  0  0
    1.1385    1.5984   -1.1751 C   0  0  0  0  0  0  0  0  0  0  0  0
    2.3684    1.5936   -1.2511 O   0  0  0  0  0  0  0  0  0  0  0  0
    0.3744    2.6410   -0.5488 C   0  0  0  0  0  0  0  0  0  0  0  0
    1.0798    3.9961    0.1918 S   0  0  0  0  0  0  0  0  0  0  0  0
   -0.4566    4.6032    0.6478 C   0  0  0  0  0  0  0  0  0  0  0  0
   -1.4813    3.7797    0.2270 C   0  0  0  0  0  0  0  0  0  0  0  0
   -0.9932    2.6405   -0.4803 C   0  0  0  0  0  0  0  0  0  0  0  0
   -8.2925    2.7376   -0.9990 H   0  0  0  0  0  0  0  0  0  0  0  0
   -7.6372    4.3286   -0.5818 H   0  0  0  0  0  0  0  0  0  0  0  0
   -6.9090    3.3920   -1.8982 H   0  0  0  0  0  0  0  0  0  0  0  0
   -5.5232    3.3085    0.1905 H   0  0  0  0  0  0  0  0  0  0  0  0
   -6.9029    2.6646    1.0713 H   0  0  0  0  0  0  0  0  0  0  0  0
   -6.9087    0.6092   -0.3228 H   0  0  0  0  0  0  0  0  0  0  0  0
   -5.6707    1.2775   -1.3634 H   0  0  0  0  0  0  0  0  0  0  0  0
   -6.4608   -0.3800    1.6084 H   0  0  0  0  0  0  0  0  0  0  0  0
   -4.8050   -0.8886    1.8942 H   0  0  0  0  0  0  0  0  0  0  0  0
   -4.3653    1.3004    3.1165 H   0  0  0  0  0  0  0  0  0  0  0  0
   -6.0549    1.7280    2.9043 H   0  0  0  0  0  0  0  0  0  0  0  0
   -5.7049    0.7534    5.1295 H   0  0  0  0  0  0  0  0  0  0  0  0
   -5.0161   -0.7187    4.4208 H   0  0  0  0  0  0  0  0  0  0  0  0
   -6.7328   -0.3329    4.1750 H   0  0  0  0  0  0  0  0  0  0  0  0
   -3.5553    0.9508   -1.8264 H   0  0  0  0  0  0  0  0  0  0  0  0
   -3.5954    2.5205   -1.0074 H   0  0  0  0  0  0  0  0  0  0  0  0
    0.4011   -1.0759   -3.0115 H   0  0  0  0  0  0  0  0  0  0  0  0
    1.9147   -0.1989   -2.8419 H   0  0  0  0  0  0  0  0  0  0  0  0
    0.6262   -1.8435   -0.5964 H   0  0  0  0  0  0  0  0  0  0  0  0
    2.1981   -1.0859   -0.5225 H   0  0  0  0  0  0  0  0  0  0  0  0
    1.3332   -3.3929   -2.3278 H   0  0  0  0  0  0  0  0  0  0  0  0
    2.3898   -3.4931   -0.9368 H   0  0  0  0  0  0  0  0  0  0  0  0
    2.9903   -2.1287   -3.6089 H   0  0  0  0  0  0  0  0  0  0  0  0
    3.6466   -3.6496   -3.0423 H   0  0  0  0  0  0  0  0  0  0  0  0
    4.1722   -0.9426   -1.6825 H   0  0  0  0  0  0  0  0  0  0  0  0
    5.2176   -1.6950   -2.8892 H   0  0  0  0  0  0  0  0  0  0  0  0
    6.3202   -0.9639   -0.7670 H   0  0  0  0  0  0  0  0  0  0  0  0
    6.3506   -4.2872    0.9927 H   0  0  0  0  0  0  0  0  0  0  0  0
    7.9791   -4.7931    2.7423 H   0  0  0  0  0  0  0  0  0  0  0  0
    9.6878   -3.1167    3.4069 H   0  0  0  0  0  0  0  0  0  0  0  0
    9.7420   -0.9008    2.2877 H   0  0  0  0  0  0  0  0  0  0  0  0
    8.1163   -0.3661    0.5226 H   0  0  0  0  0  0  0  0  0  0  0  0
   -0.5313    5.5277    1.2052 H   0  0  0  0  0  0  0  0  0  0  0  0
   -2.5209    3.9964    0.4363 H   0  0  0  0  0  0  0  0  0  0  0  0
  1  2  1  0
  2  3  1  0
  3  4  1  0
  4  5  1  0
  5  6  1  0
  6  7  1  0
  4  8  1  0
  8  9  2  0
  8 10  1  0
 10 11  1  0
 11 12  1  0
 12 13  2  0
 12 14  1  0
 14 15  1  0
 15 16  1  0
 16 17  1  0
 17 18  1  0
 18 19  1  0
 19 20  1  0
 20 21  2  0
 20 22  1  0
 22 23  1  0
 23 24  2  0
 24 25  1  0
 25 26  2  0
 26 27  1  0
 27 28  2  0
 14 29  1  0
 29 30  2  0
 29 31  1  0
 31 32  1  0
 32 33  1  0
 33 34  2  0
 34 35  1  0
 35 11  1  0
 28 23  1  0
 35 31  2  0
  1 36  1  0
  1 37  1  0
  1 38  1  0
  2 39  1  0
  2 40  1  0
  3 41  1  0
  3 42  1  0
  5 43  1  0
  5 44  1  0
  6 45  1  0
  6 46  1  0
  7 47  1  0
  7 48  1  0
  7 49  1  0
 10 50  1  0
 10 51  1  0
 15 52  1  0
 15 53  1  0
 16 54  1  0
 16 55  1  0
 17 56  1  0
 17 57  1  0
 18 58  1  0
 18 59  1  0
 19 60  1  0
 19 61  1  0
 22 62  1  0
 24 63  1  0
 25 64  1  0
 26 65  1  0
 27 66  1  0
 28 67  1  0
 33 68  1  0
 34 69  1  0
M  END
$$$$
