
     RDKit          3D

 40 43  0  0  0  0  0  0  0  0999 V2000
   -3.3224    1.0871    4.2267 C   0  0  0  0  0  0  0  0  0  0  0  0
   -4.3123    0.7563    3.1712 C   0  0  0  0  0  0  0  0  0  0  0  0
   -5.6534    0.7241    3.5435 N   0  0  0  0  0  0  0  0  0  0  0  0
   -6.4474    0.4672    2.5195 N   0  0  0  0  0  0  0  0  0  0  0  0
   -5.6141    0.2703    1.0856 S   0  0  0  0  0  0  0  0  0  0  0  0
   -4.0812    0.4790    1.8304 C   0  0  0  0  0  0  0  0  0  0  0  0
   -2.8722    0.3882    1.0857 C   0  0  0  0  0  0  0  0  0  0  0  0
   -2.6301    1.0601   -0.0255 N   0  0  0  0  0  0  0  0  0  0  0  0
   -1.3483    0.7645   -0.4375 N   0  0  0  0  0  0  0  0  0  0  0  0
   -0.8448   -0.0976    0.4171 C   0  0  0  0  0  0  0  0  0  0  0  0
    0.7537   -0.7498    0.3874 S   0  0  0  0  0  0  0  0  0  0  0  0
    1.3971    0.0540   -1.1101 C   0  0  0  0  0  0  0  0  0  0  0  0
    2.8353   -0.3393   -1.4014 C   0  0  0  0  0  0  0  0  0  0  0  0
    3.4998   -1.0912   -0.6904 O   0  0  0  0  0  0  0  0  0  0  0  0
    3.4815    0.2284   -2.6289 C   0  0  0  0  0  0  0  0  0  0  0  0
    4.8026   -0.1454   -2.9201 C   0  0  0  0  0  0  0  0  0  0  0  0
    5.4532    0.3555   -4.0525 C   0  0  0  0  0  0  0  0  0  0  0  0
    4.7892    1.2378   -4.9081 C   0  0  0  0  0  0  0  0  0  0  0  0
    5.4527    1.7537   -6.0700 C   0  0  0  0  0  0  0  0  0  0  0  0
    5.9862    2.1732   -7.0111 N   0  0  0  0  0  0  0  0  0  0  0  0
    3.4724    1.6151   -4.6239 C   0  0  0  0  0  0  0  0  0  0  0  0
    2.8197    1.1141   -3.4900 C   0  0  0  0  0  0  0  0  0  0  0  0
   -1.7828   -0.3985    1.3650 N   0  0  0  0  0  0  0  0  0  0  0  0
   -1.6340   -1.3542    2.4878 C   0  0  0  0  0  0  0  0  0  0  0  0
   -2.6875   -2.3784    2.8481 C   0  0  0  0  0  0  0  0  0  0  0  0
   -1.3885   -2.8294    2.2586 C   0  0  0  0  0  0  0  0  0  0  0  0
   -3.7402    1.8170    4.9276 H   0  0  0  0  0  0  0  0  0  0  0  0
   -3.0551    0.1885    4.7904 H   0  0  0  0  0  0  0  0  0  0  0  0
   -2.4106    1.5192    3.8036 H   0  0  0  0  0  0  0  0  0  0  0  0
    0.7730   -0.2468   -1.9574 H   0  0  0  0  0  0  0  0  0  0  0  0
    1.3546    1.1384   -0.9675 H   0  0  0  0  0  0  0  0  0  0  0  0
    5.3366   -0.8324   -2.2638 H   0  0  0  0  0  0  0  0  0  0  0  0
    6.4784    0.0504   -4.2567 H   0  0  0  0  0  0  0  0  0  0  0  0
    2.9440    2.3030   -5.2833 H   0  0  0  0  0  0  0  0  0  0  0  0
    1.7975    1.4369   -3.3099 H   0  0  0  0  0  0  0  0  0  0  0  0
   -1.0853   -0.9093    3.3148 H   0  0  0  0  0  0  0  0  0  0  0  0
   -2.8644   -2.5793    3.8995 H   0  0  0  0  0  0  0  0  0  0  0  0
   -3.5726   -2.4840    2.2303 H   0  0  0  0  0  0  0  0  0  0  0  0
   -0.6780   -3.3310    2.9071 H   0  0  0  0  0  0  0  0  0  0  0  0
   -1.4021   -3.2157    1.2450 H   0  0  0  0  0  0  0  0  0  0  0  0
  1  2  1  0
  2  3  1  0
  3  4  2  0
  4  5  1  0
  5  6  1  0
  6  7  1  0
  7  8  2  0
  8  9  1  0
  9 10  2  0
 10 11  1  0
 11 12  1  0
 12 13  1  0
 13 14  2  0
 13 15  1  0
 15 16  2  0
 16 17  1  0
 17 18  2  0
 18 19  1  0
 19 20  3  0
 18 21  1  0
 21 22  2  0
 10 23  1  0
 23 24  1  0
 24 25  1  0
 25 26  1  0
  6  2  2  0
 23  7  1  0
 26 24  1  0
 22 15  1  0
  1 27  1  0
  1 28  1  0
  1 29  1  0
 12 30  1  0
 12 31  1  0
 16 32  1  0
 17 33  1  0
 21 34  1  0
 22 35  1  0
 24 36  1  0
 25 37  1  0
 25 38  1  0
 26 39  1  0
 26 40  1  0
M  END
$$$$
