
     RDKit          3D

 30 30  0  0  0  0  0  0  0  0999 V2000
    3.7420   -0.7906    0.5529 C   0  0  0  0  0  0  0  0  0  0  0  0
    2.8755   -0.0030    1.4287 N   0  0  0  0  0  0  0  0  0  0  0  0
    3.5630    1.0816    2.1287 C   0  0  0  0  0  0  0  0  0  0  0  0
    1.5610   -0.3958    1.6972 C   0  0  0  0  0  0  0  0  0  0  0  0
    0.9220   -1.9251    1.4060 S   0  0  0  0  0  0  0  0  0  0  0  0
    0.4956    0.8313    2.3947 S   0  0  0  0  0  0  0  0  0  0  0  0
    0.3677    1.9565    0.9736 C   0  0  0  0  0  0  0  0  0  0  0  0
   -0.1812    1.2758   -0.2706 C   0  0  0  0  0  0  0  0  0  0  0  0
    0.4054    1.3802   -1.3445 O   0  0  0  0  0  0  0  0  0  0  0  0
   -1.3808    0.6238   -0.0563 N   0  0  0  0  0  0  0  0  0  0  0  0
   -2.1654   -0.0972   -0.9854 C   0  0  0  0  0  0  0  0  0  0  0  0
   -1.8706   -0.1630   -2.3498 C   0  0  0  0  0  0  0  0  0  0  0  0
   -2.6869   -0.8975   -3.2180 C   0  0  0  0  0  0  0  0  0  0  0  0
   -3.8036   -1.5693   -2.7272 C   0  0  0  0  0  0  0  0  0  0  0  0
   -4.8011   -2.4678   -3.8024 Cl  0  0  0  0  0  0  0  0  0  0  0  0
   -4.1187   -1.5155   -1.3741 C   0  0  0  0  0  0  0  0  0  0  0  0
   -3.3025   -0.7816   -0.5109 C   0  0  0  0  0  0  0  0  0  0  0  0
   -3.7318   -0.7336    1.1672 Cl  0  0  0  0  0  0  0  0  0  0  0  0
    3.1692   -1.3449   -0.1943 H   0  0  0  0  0  0  0  0  0  0  0  0
    4.4237   -0.1180    0.0227 H   0  0  0  0  0  0  0  0  0  0  0  0
    4.3204   -1.4878    1.1663 H   0  0  0  0  0  0  0  0  0  0  0  0
    2.9924    1.4844    2.9662 H   0  0  0  0  0  0  0  0  0  0  0  0
    3.7750    1.8789    1.4105 H   0  0  0  0  0  0  0  0  0  0  0  0
    4.5075    0.6977    2.5281 H   0  0  0  0  0  0  0  0  0  0  0  0
   -0.2988    2.7846    1.2355 H   0  0  0  0  0  0  0  0  0  0  0  0
    1.3499    2.3806    0.7459 H   0  0  0  0  0  0  0  0  0  0  0  0
   -1.6882    0.5488    0.9117 H   0  0  0  0  0  0  0  0  0  0  0  0
   -1.0109    0.3456   -2.7755 H   0  0  0  0  0  0  0  0  0  0  0  0
   -2.4395   -0.9389   -4.2763 H   0  0  0  0  0  0  0  0  0  0  0  0
   -4.9904   -2.0401   -0.9936 H   0  0  0  0  0  0  0  0  0  0  0  0
  1  2  1  0
  2  3  1  0
  2  4  1  0
  4  5  2  0
  4  6  1  0
  6  7  1  0
  7  8  1  0
  8  9  2  0
  8 10  1  0
 10 11  1  0
 11 12  2  0
 12 13  1  0
 13 14  2  0
 14 15  1  0
 14 16  1  0
 16 17  2  0
 17 18  1  0
 17 11  1  0
  1 19  1  0
  1 20  1  0
  1 21  1  0
  3 22  1  0
  3 23  1  0
  3 24  1  0
  7 25  1  0
  7 26  1  0
 10 27  1  0
 12 28  1  0
 13 29  1  0
 16 30  1  0
M  END
$$$$
