
     RDKit          3D

 68 71  0  0  0  0  0  0  0  0999 V2000
   -0.8592    1.4526    4.7851 C   0  0  0  0  0  0  0  0  0  0  0  0
   -0.6717    1.8357    3.3166 C   0  0  0  0  0  0  0  0  0  0  0  0
   -1.2798    3.1248    3.1559 O   0  0  0  0  0  0  0  0  0  0  0  0
   -0.8969    3.7737    2.0175 C   0  0  0  0  0  0  0  0  0  0  0  0
   -1.8728    4.0151    1.0526 C   0  0  0  0  0  0  0  0  0  0  0  0
   -1.5505    4.7403   -0.0949 C   0  0  0  0  0  0  0  0  0  0  0  0
   -0.2548    5.2324   -0.2660 C   0  0  0  0  0  0  0  0  0  0  0  0
    0.7127    5.0097    0.7155 C   0  0  0  0  0  0  0  0  0  0  0  0
    0.3925    4.2817    1.8631 C   0  0  0  0  0  0  0  0  0  0  0  0
   -1.3754    0.7789    2.4257 C   0  0  0  0  0  0  0  0  0  0  0  0
   -2.5107    0.3807    2.7131 O   0  0  0  0  0  0  0  0  0  0  0  0
   -0.7477    0.3845    1.2305 N   0  0  0  0  0  0  0  0  0  0  0  0
   -1.4657   -0.6037    0.3976 C   0  0  0  0  0  0  0  0  0  0  0  0
   -1.3989   -2.0316    0.9747 C   0  0  0  0  0  0  0  0  0  0  0  0
   -2.1240   -3.1255    0.2107 C   0  0  0  0  0  0  0  0  0  0  0  0
   -2.6074   -3.0057   -1.0417 C   0  0  0  0  0  0  0  0  0  0  0  0
   -3.2777   -4.1205   -1.7972 C   0  0  0  0  0  0  0  0  0  0  0  0
   -3.1176   -5.4897   -1.1332 C   0  0  0  0  0  0  0  0  0  0  0  0
   -3.2943   -5.3870    0.3753 C   0  0  0  0  0  0  0  0  0  0  0  0
   -2.2732   -4.4218    0.9835 C   0  0  0  0  0  0  0  0  0  0  0  0
    0.6218    0.5309    0.9846 C   0  0  0  0  0  0  0  0  0  0  0  0
    1.0970    1.1443   -0.1277 C   0  0  0  0  0  0  0  0  0  0  0  0
    0.2021    1.7406   -1.0177 N   0  0  0  0  0  0  0  0  0  0  0  0
    2.4727    1.2215   -0.3431 N   0  0  0  0  0  0  0  0  0  0  0  0
    3.0134    1.7457   -1.6022 C   0  0  0  0  0  0  0  0  0  0  0  0
    3.1831    0.6811   -2.6650 C   0  0  0  0  0  0  0  0  0  0  0  0
    4.4051    0.0094   -2.8126 C   0  0  0  0  0  0  0  0  0  0  0  0
    4.5639   -0.9688   -3.7955 C   0  0  0  0  0  0  0  0  0  0  0  0
    3.5028   -1.2916   -4.6378 C   0  0  0  0  0  0  0  0  0  0  0  0
    2.2801   -0.6398   -4.4950 C   0  0  0  0  0  0  0  0  0  0  0  0
    2.1197    0.3380   -3.5118 C   0  0  0  0  0  0  0  0  0  0  0  0
    3.4049    0.7334    0.5645 C   0  0  0  0  0  0  0  0  0  0  0  0
    4.6253    0.7816    0.4149 O   0  0  0  0  0  0  0  0  0  0  0  0
    2.9038    0.1765    1.7018 N   0  0  0  0  0  0  0  0  0  0  0  0
    1.5895   -0.0399    1.9638 C   0  0  0  0  0  0  0  0  0  0  0  0
    1.2202   -0.6616    2.9576 O   0  0  0  0  0  0  0  0  0  0  0  0
   -0.2975    2.1379    5.4277 H   0  0  0  0  0  0  0  0  0  0  0  0
   -0.5135    0.4321    4.9788 H   0  0  0  0  0  0  0  0  0  0  0  0
   -1.9089    1.5306    5.0873 H   0  0  0  0  0  0  0  0  0  0  0  0
    0.4018    1.8956    3.1373 H   0  0  0  0  0  0  0  0  0  0  0  0
   -2.8869    3.6484    1.2045 H   0  0  0  0  0  0  0  0  0  0  0  0
   -2.3075    4.9271   -0.8505 H   0  0  0  0  0  0  0  0  0  0  0  0
   -0.0021    5.8026   -1.1558 H   0  0  0  0  0  0  0  0  0  0  0  0
    1.7135    5.4204    0.5939 H   0  0  0  0  0  0  0  0  0  0  0  0
    1.1337    4.1488    2.6448 H   0  0  0  0  0  0  0  0  0  0  0  0
   -1.0546   -0.5859   -0.6163 H   0  0  0  0  0  0  0  0  0  0  0  0
   -2.5129   -0.2855    0.3275 H   0  0  0  0  0  0  0  0  0  0  0  0
   -1.7979   -2.0101    1.9959 H   0  0  0  0  0  0  0  0  0  0  0  0
   -0.3480   -2.3334    1.0672 H   0  0  0  0  0  0  0  0  0  0  0  0
   -2.5168   -2.0731   -1.5911 H   0  0  0  0  0  0  0  0  0  0  0  0
   -4.3443   -3.8768   -1.9004 H   0  0  0  0  0  0  0  0  0  0  0  0
   -2.8611   -4.1712   -2.8117 H   0  0  0  0  0  0  0  0  0  0  0  0
   -3.8450   -6.1937   -1.5543 H   0  0  0  0  0  0  0  0  0  0  0  0
   -2.1205   -5.8916   -1.3551 H   0  0  0  0  0  0  0  0  0  0  0  0
   -4.3110   -5.0356    0.5964 H   0  0  0  0  0  0  0  0  0  0  0  0
   -3.1896   -6.3747    0.8405 H   0  0  0  0  0  0  0  0  0  0  0  0
   -1.2919   -4.9094    1.0320 H   0  0  0  0  0  0  0  0  0  0  0  0
   -2.5757   -4.2119    2.0163 H   0  0  0  0  0  0  0  0  0  0  0  0
    0.4884    2.6934   -1.2275 H   0  0  0  0  0  0  0  0  0  0  0  0
   -0.7333    1.7887   -0.6081 H   0  0  0  0  0  0  0  0  0  0  0  0
    2.3940    2.5646   -1.9847 H   0  0  0  0  0  0  0  0  0  0  0  0
    3.9890    2.2126   -1.4106 H   0  0  0  0  0  0  0  0  0  0  0  0
    5.2443    0.2448   -2.1600 H   0  0  0  0  0  0  0  0  0  0  0  0
    5.5167   -1.4791   -3.8997 H   0  0  0  0  0  0  0  0  0  0  0  0
    3.6258   -2.0540   -5.4023 H   0  0  0  0  0  0  0  0  0  0  0  0
    1.4483   -0.8933   -5.1459 H   0  0  0  0  0  0  0  0  0  0  0  0
    1.1554    0.8305   -3.4087 H   0  0  0  0  0  0  0  0  0  0  0  0
    3.5754   -0.2247    2.3385 H   0  0  0  0  0  0  0  0  0  0  0  0
  1  2  1  0
  2  3  1  0
  3  4  1  0
  4  5  2  0
  5  6  1  0
  6  7  2  0
  7  8  1  0
  8  9  2  0
  2 10  1  0
 10 11  2  0
 10 12  1  0
 12 13  1  0
 13 14  1  0
 14 15  1  0
 15 16  2  0
 16 17  1  0
 17 18  1  0
 18 19  1  0
 19 20  1  0
 12 21  1  0
 21 22  2  0
 22 23  1  0
 22 24  1  0
 24 25  1  0
 25 26  1  0
 26 27  2  0
 27 28  1  0
 28 29  2  0
 29 30  1  0
 30 31  2  0
 24 32  1  0
 32 33  2  0
 32 34  1  0
 34 35  1  0
 35 36  2  0
  9  4  1  0
 20 15  1  0
 35 21  1  0
 31 26  1  0
  1 37  1  0
  1 38  1  0
  1 39  1  0
  2 40  1  0
  5 41  1  0
  6 42  1  0
  7 43  1  0
  8 44  1  0
  9 45  1  0
 13 46  1  0
 13 47  1  0
 14 48  1  0
 14 49  1  0
 16 50  1  0
 17 51  1  0
 17 52  1  0
 18 53  1  0
 18 54  1  0
 19 55  1  0
 19 56  1  0
 20 57  1  0
 20 58  1  0
 23 59  1  0
 23 60  1  0
 25 61  1  0
 25 62  1  0
 27 63  1  0
 28 64  1  0
 29 65  1  0
 30 66  1  0
 31 67  1  0
 34 68  1  0
M  END
$$$$
