
     RDKit          3D

 40 43  0  0  0  0  0  0  0  0999 V2000
    7.7725    0.3170   -1.2690 C   0  0  0  0  0  0  0  0  0  0  0  0
    6.3344    0.3595   -0.8894 C   0  0  0  0  0  0  0  0  0  0  0  0
    5.4482    1.1642   -1.4327 N   0  0  0  0  0  0  0  0  0  0  0  0
    4.2065    0.9525   -0.8582 C   0  0  0  0  0  0  0  0  0  0  0  0
    3.0188    1.6308   -1.1870 C   0  0  0  0  0  0  0  0  0  0  0  0
    1.8292    1.3113   -0.5197 C   0  0  0  0  0  0  0  0  0  0  0  0
    1.7969    0.3258    0.4718 C   0  0  0  0  0  0  0  0  0  0  0  0
    0.5489    0.0830    1.0828 N   0  0  0  0  0  0  0  0  0  0  0  0
    0.2432   -0.8695    2.0416 C   0  0  0  0  0  0  0  0  0  0  0  0
    1.0263   -1.6714    2.5434 O   0  0  0  0  0  0  0  0  0  0  0  0
   -1.2072   -0.8177    2.5064 C   0  0  0  0  0  0  0  0  0  0  0  0
   -2.2185   -0.8475    1.3837 C   0  0  0  0  0  0  0  0  0  0  0  0
   -2.3001   -1.9596    0.5316 C   0  0  0  0  0  0  0  0  0  0  0  0
   -3.2211   -1.9819   -0.5180 C   0  0  0  0  0  0  0  0  0  0  0  0
   -4.0674   -0.8956   -0.7239 C   0  0  0  0  0  0  0  0  0  0  0  0
   -4.0167    0.2022    0.1394 C   0  0  0  0  0  0  0  0  0  0  0  0
   -3.0898    0.2329    1.1812 C   0  0  0  0  0  0  0  0  0  0  0  0
   -4.8406    1.2922    0.0181 O   0  0  0  0  0  0  0  0  0  0  0  0
   -5.9579    1.0054   -0.8318 C   0  0  0  0  0  0  0  0  0  0  0  0
   -5.5007    0.2985   -2.0972 C   0  0  0  0  0  0  0  0  0  0  0  0
   -4.9296   -0.9776   -1.7868 O   0  0  0  0  0  0  0  0  0  0  0  0
    2.9714   -0.3559    0.8097 C   0  0  0  0  0  0  0  0  0  0  0  0
    4.1623   -0.0273    0.1329 C   0  0  0  0  0  0  0  0  0  0  0  0
    5.7406   -0.6889    0.3321 S   0  0  0  0  0  0  0  0  0  0  0  0
    8.4089    0.5584   -0.4118 H   0  0  0  0  0  0  0  0  0  0  0  0
    8.0472   -0.6738   -1.6445 H   0  0  0  0  0  0  0  0  0  0  0  0
    7.9811    1.0459   -2.0589 H   0  0  0  0  0  0  0  0  0  0  0  0
    3.0359    2.3959   -1.9566 H   0  0  0  0  0  0  0  0  0  0  0  0
    0.9272    1.8518   -0.7976 H   0  0  0  0  0  0  0  0  0  0  0  0
   -0.2267    0.6379    0.7394 H   0  0  0  0  0  0  0  0  0  0  0  0
   -1.3267    0.0849    3.1179 H   0  0  0  0  0  0  0  0  0  0  0  0
   -1.3954   -1.6737    3.1660 H   0  0  0  0  0  0  0  0  0  0  0  0
   -1.6419   -2.8155    0.6760 H   0  0  0  0  0  0  0  0  0  0  0  0
   -3.2712   -2.8424   -1.1799 H   0  0  0  0  0  0  0  0  0  0  0  0
   -3.0652    1.0991    1.8385 H   0  0  0  0  0  0  0  0  0  0  0  0
   -6.4367    1.9572   -1.0819 H   0  0  0  0  0  0  0  0  0  0  0  0
   -6.6776    0.3978   -0.2692 H   0  0  0  0  0  0  0  0  0  0  0  0
   -6.3517    0.1276   -2.7639 H   0  0  0  0  0  0  0  0  0  0  0  0
   -4.7541    0.8910   -2.6404 H   0  0  0  0  0  0  0  0  0  0  0  0
    2.9973   -1.1244    1.5733 H   0  0  0  0  0  0  0  0  0  0  0  0
  1  2  1  0
  2  3  2  0
  3  4  1  0
  4  5  2  0
  5  6  1  0
  6  7  2  0
  7  8  1  0
  8  9  1  0
  9 10  2  0
  9 11  1  0
 11 12  1  0
 12 13  2  0
 13 14  1  0
 14 15  2  0
 15 16  1  0
 16 17  2  0
 16 18  1  0
 18 19  1  0
 19 20  1  0
 20 21  1  0
  7 22  1  0
 22 23  2  0
 23 24  1  0
 24  2  1  0
 23  4  1  0
 17 12  1  0
 21 15  1  0
  1 25  1  0
  1 26  1  0
  1 27  1  0
  5 28  1  0
  6 29  1  0
  8 30  1  0
 11 31  1  0
 11 32  1  0
 13 33  1  0
 14 34  1  0
 17 35  1  0
 19 36  1  0
 19 37  1  0
 20 38  1  0
 20 39  1  0
 22 40  1  0
M  END
$$$$
