
     RDKit          3D

 50 51  0  0  0  0  0  0  0  0999 V2000
    4.1349    3.3438   -0.1349 C   0  0  0  0  0  0  0  0  0  0  0  0
    3.9218    1.8803   -0.3855 C   0  0  0  0  0  0  0  0  0  0  0  0
    2.7162    1.4246   -0.9303 C   0  0  0  0  0  0  0  0  0  0  0  0
    2.5021    0.0598   -1.1344 C   0  0  0  0  0  0  0  0  0  0  0  0
    3.4809   -0.8705   -0.7748 C   0  0  0  0  0  0  0  0  0  0  0  0
    3.2495   -2.3000   -0.9743 C   0  0  0  0  0  0  0  0  0  0  0  0
    3.7195   -2.9527   -2.0452 C   0  0  0  0  0  0  0  0  0  0  0  0
    3.2949   -4.6306   -2.0149 S   0  0  0  0  0  0  0  0  0  0  0  0
    2.4269   -4.4342   -0.4782 C   0  0  0  0  0  0  0  0  0  0  0  0
    1.6383   -5.6863    0.2878 S   0  0  0  0  0  0  0  0  0  0  0  0
    2.5370   -3.0973   -0.0840 N   0  0  0  0  0  0  0  0  0  0  0  0
    1.9166   -2.5590    1.1354 C   0  0  0  0  0  0  0  0  0  0  0  0
    0.4482   -2.1632    1.0010 C   0  0  0  0  0  0  0  0  0  0  0  0
   -0.2055   -1.7013    1.9313 O   0  0  0  0  0  0  0  0  0  0  0  0
   -0.0588   -2.4181   -0.2365 O   0  0  0  0  0  0  0  0  0  0  0  0
   -1.4396   -2.0951   -0.3796 C   0  0  0  0  0  0  0  0  0  0  0  0
   -1.7109   -0.5913   -0.4857 C   0  0  0  0  0  0  0  0  0  0  0  0
   -0.8898    0.2004   -0.9417 O   0  0  0  0  0  0  0  0  0  0  0  0
   -2.9612   -0.2128   -0.0389 N   0  0  0  0  0  0  0  0  0  0  0  0
   -3.4271    1.1706   -0.1095 C   0  0  0  0  0  0  0  0  0  0  0  0
   -4.0550    1.4086   -1.4853 C   0  0  0  0  0  0  0  0  0  0  0  0
   -4.3997    1.4693    1.0605 C   0  0  0  0  0  0  0  0  0  0  0  0
   -4.9809    2.8850    0.9946 C   0  0  0  0  0  0  0  0  0  0  0  0
   -3.7020    1.2815    2.4151 C   0  0  0  0  0  0  0  0  0  0  0  0
    4.6855   -0.4187   -0.2236 C   0  0  0  0  0  0  0  0  0  0  0  0
    4.9014    0.9476   -0.0250 C   0  0  0  0  0  0  0  0  0  0  0  0
    3.7790    3.6076    0.8658 H   0  0  0  0  0  0  0  0  0  0  0  0
    3.5977    3.9489   -0.8729 H   0  0  0  0  0  0  0  0  0  0  0  0
    5.1960    3.6029   -0.2134 H   0  0  0  0  0  0  0  0  0  0  0  0
    1.9280    2.1258   -1.1987 H   0  0  0  0  0  0  0  0  0  0  0  0
    1.5589   -0.2665   -1.5684 H   0  0  0  0  0  0  0  0  0  0  0  0
    4.2935   -2.5125   -2.8497 H   0  0  0  0  0  0  0  0  0  0  0  0
    1.9747   -3.3201    1.9203 H   0  0  0  0  0  0  0  0  0  0  0  0
    2.4766   -1.6871    1.4865 H   0  0  0  0  0  0  0  0  0  0  0  0
   -2.0232   -2.5448    0.4328 H   0  0  0  0  0  0  0  0  0  0  0  0
   -1.7847   -2.5506   -1.3142 H   0  0  0  0  0  0  0  0  0  0  0  0
   -3.6237   -0.9266    0.2362 H   0  0  0  0  0  0  0  0  0  0  0  0
   -2.5519    1.8270   -0.0216 H   0  0  0  0  0  0  0  0  0  0  0  0
   -4.2952    2.4644   -1.6409 H   0  0  0  0  0  0  0  0  0  0  0  0
   -3.3688    1.1119   -2.2864 H   0  0  0  0  0  0  0  0  0  0  0  0
   -4.9726    0.8224   -1.6061 H   0  0  0  0  0  0  0  0  0  0  0  0
   -5.2366    0.7593    1.0182 H   0  0  0  0  0  0  0  0  0  0  0  0
   -5.6272    3.0109    0.1207 H   0  0  0  0  0  0  0  0  0  0  0  0
   -4.1867    3.6377    0.9475 H   0  0  0  0  0  0  0  0  0  0  0  0
   -5.5944    3.0960    1.8775 H   0  0  0  0  0  0  0  0  0  0  0  0
   -3.3503    0.2531    2.5456 H   0  0  0  0  0  0  0  0  0  0  0  0
   -2.8403    1.9507    2.5122 H   0  0  0  0  0  0  0  0  0  0  0  0
   -4.3907    1.4956    3.2397 H   0  0  0  0  0  0  0  0  0  0  0  0
    5.4600   -1.1263    0.0641 H   0  0  0  0  0  0  0  0  0  0  0  0
    5.8389    1.2798    0.4156 H   0  0  0  0  0  0  0  0  0  0  0  0
  1  2  1  0
  2  3  2  0
  3  4  1  0
  4  5  2  0
  5  6  1  0
  6  7  2  0
  7  8  1  0
  8  9  1  0
  9 10  2  0
  9 11  1  0
 11 12  1  0
 12 13  1  0
 13 14  2  0
 13 15  1  0
 15 16  1  0
 16 17  1  0
 17 18  2  0
 17 19  1  0
 19 20  1  0
 20 21  1  0
 20 22  1  0
 22 23  1  0
 22 24  1  0
  5 25  1  0
 25 26  2  0
 26  2  1  0
 11  6  1  0
  1 27  1  0
  1 28  1  0
  1 29  1  0
  3 30  1  0
  4 31  1  0
  7 32  1  0
 12 33  1  0
 12 34  1  0
 16 35  1  0
 16 36  1  0
 19 37  1  0
 20 38  1  0
 21 39  1  0
 21 40  1  0
 21 41  1  0
 22 42  1  0
 23 43  1  0
 23 44  1  0
 23 45  1  0
 24 46  1  0
 24 47  1  0
 24 48  1  0
 25 49  1  0
 26 50  1  0
M  END
$$$$
