
     RDKit          3D

 51 54  0  0  0  0  0  0  0  0999 V2000
    1.9991   -1.7994    2.8705 O   0  0  0  0  0  0  0  0  0  0  0  0
    1.7333   -0.9922    1.9796 C   0  0  0  0  0  0  0  0  0  0  0  0
    2.7558   -0.5364    1.0538 C   0  0  0  0  0  0  0  0  0  0  0  0
    3.5978   -1.3149    0.2830 C   0  0  0  0  0  0  0  0  0  0  0  0
    4.5201   -0.5325   -0.4747 C   0  0  0  0  0  0  0  0  0  0  0  0
    4.3702    0.8150   -0.2093 C   0  0  0  0  0  0  0  0  0  0  0  0
    3.1464    1.1290    0.9297 S   0  0  0  0  0  0  0  0  0  0  0  0
    5.1699    1.9116   -0.8423 C   0  0  0  0  0  0  0  0  0  0  0  0
    6.4302    1.3410   -1.5122 C   0  0  0  0  0  0  0  0  0  0  0  0
    6.1245    0.0662   -2.3128 C   0  0  0  0  0  0  0  0  0  0  0  0
    5.5683   -1.0490   -1.4134 C   0  0  0  0  0  0  0  0  0  0  0  0
    0.4312   -0.4869    1.8305 N   0  0  0  0  0  0  0  0  0  0  0  0
   -0.1119   -0.1248    0.5141 C   0  0  0  0  0  0  0  0  0  0  0  0
   -1.3282    0.8109    0.6118 C   0  0  0  0  0  0  0  0  0  0  0  0
   -2.3608    0.3301    1.5865 N   0  0  0  0  0  0  0  0  0  0  0  0
   -3.4710   -0.8337    1.0180 S   0  0  0  0  0  6  0  0  0  0  0  0
   -4.3386   -1.2089    2.1104 O   0  0  0  0  0  0  0  0  0  0  0  0
   -2.7004   -1.8038    0.2772 O   0  0  0  0  0  0  0  0  0  0  0  0
   -4.4824    0.0840   -0.1319 C   0  0  0  0  0  0  0  0  0  0  0  0
   -4.7348    1.4363    0.1553 C   0  0  0  0  0  0  0  0  0  0  0  0
   -5.4808    2.2144   -0.7273 C   0  0  0  0  0  0  0  0  0  0  0  0
   -5.9809    1.6487   -1.8952 C   0  0  0  0  0  0  0  0  0  0  0  0
   -5.7502    0.2998   -2.1732 C   0  0  0  0  0  0  0  0  0  0  0  0
   -5.0101   -0.5132   -1.2908 C   0  0  0  0  0  0  0  0  0  0  0  0
   -4.8333   -1.9762   -1.6240 C   0  0  0  0  0  0  0  0  0  0  0  0
   -3.6188   -2.2486   -2.1683 F   0  0  0  0  0  0  0  0  0  0  0  0
   -5.7408   -2.4067   -2.5515 F   0  0  0  0  0  0  0  0  0  0  0  0
   -5.0050   -2.8021   -0.5604 F   0  0  0  0  0  0  0  0  0  0  0  0
   -1.7414    0.0217    2.9140 C   0  0  0  0  0  0  0  0  0  0  0  0
   -0.5718   -0.9584    2.7893 C   0  0  0  0  0  0  0  0  0  0  0  0
    3.5463   -2.3979    0.2673 H   0  0  0  0  0  0  0  0  0  0  0  0
    5.4608    2.6665   -0.1030 H   0  0  0  0  0  0  0  0  0  0  0  0
    4.5511    2.4092   -1.5992 H   0  0  0  0  0  0  0  0  0  0  0  0
    7.1804    1.1095   -0.7450 H   0  0  0  0  0  0  0  0  0  0  0  0
    6.8693    2.1000   -2.1695 H   0  0  0  0  0  0  0  0  0  0  0  0
    7.0320   -0.2878   -2.8146 H   0  0  0  0  0  0  0  0  0  0  0  0
    5.3952    0.3031   -3.0981 H   0  0  0  0  0  0  0  0  0  0  0  0
    6.3852   -1.4786   -0.8205 H   0  0  0  0  0  0  0  0  0  0  0  0
    5.1583   -1.8518   -2.0365 H   0  0  0  0  0  0  0  0  0  0  0  0
   -0.3715   -1.0628    0.0125 H   0  0  0  0  0  0  0  0  0  0  0  0
    0.6432    0.3489   -0.1156 H   0  0  0  0  0  0  0  0  0  0  0  0
   -1.7700    0.9590   -0.3786 H   0  0  0  0  0  0  0  0  0  0  0  0
   -0.9992    1.8007    0.9532 H   0  0  0  0  0  0  0  0  0  0  0  0
   -4.3578    1.8899    1.0703 H   0  0  0  0  0  0  0  0  0  0  0  0
   -5.6743    3.2608   -0.5023 H   0  0  0  0  0  0  0  0  0  0  0  0
   -6.5639    2.2538   -2.5864 H   0  0  0  0  0  0  0  0  0  0  0  0
   -6.1686   -0.1238   -3.0871 H   0  0  0  0  0  0  0  0  0  0  0  0
   -1.3850    0.9703    3.3359 H   0  0  0  0  0  0  0  0  0  0  0  0
   -2.4914   -0.3583    3.6145 H   0  0  0  0  0  0  0  0  0  0  0  0
   -0.9148   -1.9441    2.4539 H   0  0  0  0  0  0  0  0  0  0  0  0
   -0.1109   -1.0879    3.7749 H   0  0  0  0  0  0  0  0  0  0  0  0
  1  2  2  0
  2  3  1  0
  3  4  2  0
  4  5  1  0
  5  6  2  0
  6  7  1  0
  6  8  1  0
  8  9  1  0
  9 10  1  0
 10 11  1  0
  2 12  1  0
 12 13  1  0
 13 14  1  0
 14 15  1  0
 15 16  1  0
 16 17  2  0
 16 18  2  0
 16 19  1  0
 19 20  2  0
 20 21  1  0
 21 22  2  0
 22 23  1  0
 23 24  2  0
 24 25  1  0
 25 26  1  0
 25 27  1  0
 25 28  1  0
 15 29  1  0
 29 30  1  0
  7  3  1  0
 30 12  1  0
 11  5  1  0
 24 19  1  0
  4 31  1  0
  8 32  1  0
  8 33  1  0
  9 34  1  0
  9 35  1  0
 10 36  1  0
 10 37  1  0
 11 38  1  0
 11 39  1  0
 13 40  1  0
 13 41  1  0
 14 42  1  0
 14 43  1  0
 20 44  1  0
 21 45  1  0
 22 46  1  0
 23 47  1  0
 29 48  1  0
 29 49  1  0
 30 50  1  0
 30 51  1  0
M  END
$$$$
