
     RDKit          3D

 58 61  0  0  0  0  0  0  0  0999 V2000
    8.5160   -0.0740   -0.2266 C   0  0  0  0  0  0  0  0  0  0  0  0
    7.8714    0.5266    0.8896 O   0  0  0  0  0  0  0  0  0  0  0  0
    6.5159    0.6924    0.8142 C   0  0  0  0  0  0  0  0  0  0  0  0
    5.9445    1.3034    1.9259 C   0  0  0  0  0  0  0  0  0  0  0  0
    4.5691    1.5358    1.9748 C   0  0  0  0  0  0  0  0  0  0  0  0
    3.7187    1.1584    0.9165 C   0  0  0  0  0  0  0  0  0  0  0  0
    2.2680    1.4217    1.0396 C   0  0  0  0  0  0  0  0  0  0  0  0
    1.2971    0.5054    0.6793 C   0  0  0  0  0  0  0  0  0  0  0  0
   -0.0437    0.8566    0.8340 C   0  0  0  0  0  0  0  0  0  0  0  0
   -1.0311   -0.1339    0.3529 C   0  0  0  0  0  0  0  0  0  0  0  0
   -0.9958   -1.2879    0.7584 O   0  0  0  0  0  0  0  0  0  0  0  0
   -1.9110    0.3274   -0.6010 N   0  0  0  0  0  0  0  0  0  0  0  0
   -2.8609   -0.5579   -1.2510 C   0  0  0  0  0  0  0  0  0  0  0  0
   -4.0382   -0.9423   -0.3337 C   0  0  0  0  0  0  0  0  0  0  0  0
   -5.1103   -1.6812   -1.0271 N   0  0  0  0  0  0  0  0  0  0  0  0
   -6.2784   -1.8965   -0.1416 C   0  0  0  0  0  0  0  0  0  0  0  0
   -6.3444   -3.3105    0.4594 C   0  0  0  0  0  0  0  0  0  0  0  0
   -6.4248   -4.3374   -0.5385 O   0  0  0  0  0  0  0  0  0  0  0  0
   -5.7704   -3.9806   -1.7633 C   0  0  0  0  0  0  0  0  0  0  0  0
   -4.6245   -2.9765   -1.5588 C   0  0  0  0  0  0  0  0  0  0  0  0
   -0.4149    2.0914    1.4060 C   0  0  0  0  0  0  0  0  0  0  0  0
   -1.7467    2.5038    1.6720 C   0  0  0  0  0  0  0  0  0  0  0  0
   -2.0154    3.7484    2.2391 C   0  0  0  0  0  0  0  0  0  0  0  0
   -0.9628    4.5943    2.5562 C   0  0  0  0  0  0  0  0  0  0  0  0
    0.3501    4.1845    2.3134 C   0  0  0  0  0  0  0  0  0  0  0  0
    0.6449    2.9488    1.7522 C   0  0  0  0  0  0  0  0  0  0  0  0
    1.9366    2.6269    1.5710 N   0  0  0  0  0  0  0  0  0  0  0  0
    4.3092    0.5416   -0.2119 C   0  0  0  0  0  0  0  0  0  0  0  0
    3.4676    0.2336   -1.2564 O   0  0  0  0  0  0  0  0  0  0  0  0
    3.9537   -0.6552   -2.2560 C   0  0  0  0  0  0  0  0  0  0  0  0
    5.6979    0.3156   -0.2531 C   0  0  0  0  0  0  0  0  0  0  0  0
    8.3872    0.5298   -1.1308 H   0  0  0  0  0  0  0  0  0  0  0  0
    9.5870   -0.1220   -0.0083 H   0  0  0  0  0  0  0  0  0  0  0  0
    8.1615   -1.0996   -0.3800 H   0  0  0  0  0  0  0  0  0  0  0  0
    6.5711    1.6060    2.7615 H   0  0  0  0  0  0  0  0  0  0  0  0
    4.1515    2.0198    2.8570 H   0  0  0  0  0  0  0  0  0  0  0  0
    1.5644   -0.4673    0.2782 H   0  0  0  0  0  0  0  0  0  0  0  0
   -1.7982    1.2656   -0.9674 H   0  0  0  0  0  0  0  0  0  0  0  0
   -3.2273   -0.0310   -2.1384 H   0  0  0  0  0  0  0  0  0  0  0  0
   -2.3173   -1.4490   -1.5821 H   0  0  0  0  0  0  0  0  0  0  0  0
   -4.4569   -0.0083    0.0621 H   0  0  0  0  0  0  0  0  0  0  0  0
   -3.6751   -1.5093    0.5324 H   0  0  0  0  0  0  0  0  0  0  0  0
   -7.1740   -1.7448   -0.7585 H   0  0  0  0  0  0  0  0  0  0  0  0
   -6.3264   -1.1460    0.6574 H   0  0  0  0  0  0  0  0  0  0  0  0
   -7.2289   -3.4069    1.0980 H   0  0  0  0  0  0  0  0  0  0  0  0
   -5.4680   -3.5093    1.0872 H   0  0  0  0  0  0  0  0  0  0  0  0
   -6.5234   -3.5771   -2.4493 H   0  0  0  0  0  0  0  0  0  0  0  0
   -5.3870   -4.9038   -2.2092 H   0  0  0  0  0  0  0  0  0  0  0  0
   -4.1214   -2.8057   -2.5169 H   0  0  0  0  0  0  0  0  0  0  0  0
   -3.8987   -3.4259   -0.8677 H   0  0  0  0  0  0  0  0  0  0  0  0
   -2.5872    1.8473    1.4563 H   0  0  0  0  0  0  0  0  0  0  0  0
   -3.0403    4.0511    2.4386 H   0  0  0  0  0  0  0  0  0  0  0  0
   -1.1542    5.5683    3.0014 H   0  0  0  0  0  0  0  0  0  0  0  0
    1.1714    4.8490    2.5762 H   0  0  0  0  0  0  0  0  0  0  0  0
    3.1104   -0.9245   -2.8998 H   0  0  0  0  0  0  0  0  0  0  0  0
    4.7077   -0.1679   -2.8834 H   0  0  0  0  0  0  0  0  0  0  0  0
    4.3417   -1.5799   -1.8128 H   0  0  0  0  0  0  0  0  0  0  0  0
    6.1427   -0.1412   -1.1274 H   0  0  0  0  0  0  0  0  0  0  0  0
  1  2  1  0
  2  3  1  0
  3  4  2  0
  4  5  1  0
  5  6  2  0
  6  7  1  0
  7  8  2  0
  8  9  1  0
  9 10  1  0
 10 11  2  0
 10 12  1  0
 12 13  1  0
 13 14  1  0
 14 15  1  0
 15 16  1  0
 16 17  1  0
 17 18  1  0
 18 19  1  0
 19 20  1  0
  9 21  2  0
 21 22  1  0
 22 23  2  0
 23 24  1  0
 24 25  2  0
 25 26  1  0
 26 27  2  0
  6 28  1  0
 28 29  1  0
 29 30  1  0
 28 31  2  0
 31  3  1  0
 27  7  1  0
 20 15  1  0
 26 21  1  0
  1 32  1  0
  1 33  1  0
  1 34  1  0
  4 35  1  0
  5 36  1  0
  8 37  1  0
 12 38  1  0
 13 39  1  0
 13 40  1  0
 14 41  1  0
 14 42  1  0
 16 43  1  0
 16 44  1  0
 17 45  1  0
 17 46  1  0
 19 47  1  0
 19 48  1  0
 20 49  1  0
 20 50  1  0
 22 51  1  0
 23 52  1  0
 24 53  1  0
 25 54  1  0
 30 55  1  0
 30 56  1  0
 30 57  1  0
 31 58  1  0
M  END
$$$$
