
     RDKit          3D

 45 48  0  0  0  0  0  0  0  0999 V2000
    5.8250   -0.4834    3.0727 C   0  0  0  0  0  0  0  0  0  0  0  0
    5.5299   -1.2988    1.9458 O   0  0  0  0  0  0  0  0  0  0  0  0
    4.6088   -0.8148    1.0583 C   0  0  0  0  0  0  0  0  0  0  0  0
    4.3541   -1.6485   -0.0323 C   0  0  0  0  0  0  0  0  0  0  0  0
    3.4335   -1.2779   -1.0156 C   0  0  0  0  0  0  0  0  0  0  0  0
    2.7524   -0.0579   -0.9246 C   0  0  0  0  0  0  0  0  0  0  0  0
    1.7346    0.3394   -1.9733 C   0  0  0  0  0  0  0  0  0  0  0  0
    0.3950   -0.1175   -1.6318 N   0  0  0  0  0  0  0  0  0  0  0  0
    0.0276   -1.3879   -2.0759 C   0  0  0  0  0  0  0  0  0  0  0  0
    0.7197   -2.1175   -2.7785 O   0  0  0  0  0  0  0  0  0  0  0  0
   -1.2589   -1.7757   -1.6290 C   0  0  0  0  0  0  0  0  0  0  0  0
   -1.9161   -2.9605   -1.7895 N   0  0  0  0  0  0  0  0  0  0  0  0
   -3.1043   -2.8433   -1.1218 C   0  0  0  0  0  0  0  0  0  0  0  0
   -3.2322   -1.6556   -0.5678 N   0  0  0  0  0  0  0  0  0  0  0  0
   -2.0887   -0.9800   -0.8974 C   0  0  0  0  0  0  0  0  0  0  0  0
   -1.7114    0.3039   -0.5482 N   0  0  0  0  0  0  0  0  0  0  0  0
   -2.5901    1.0605    0.2841 C   0  0  0  0  0  0  0  0  0  0  0  0
   -2.0794    1.5891    1.4854 C   0  0  0  0  0  0  0  0  0  0  0  0
   -2.8896    2.3075    2.3662 C   0  0  0  0  0  0  0  0  0  0  0  0
   -4.2271    2.5183    2.0585 C   0  0  0  0  0  0  0  0  0  0  0  0
   -4.7463    2.0313    0.8604 C   0  0  0  0  0  0  0  0  0  0  0  0
   -3.9381    1.3227   -0.0505 C   0  0  0  0  0  0  0  0  0  0  0  0
   -4.5697    0.9195   -1.3562 C   0  0  0  0  0  0  0  0  0  0  0  0
   -0.4204    0.7581   -0.8768 C   0  0  0  0  0  0  0  0  0  0  0  0
   -0.0085    1.8811   -0.5643 O   0  0  0  0  0  0  0  0  0  0  0  0
    3.0078    0.7734    0.1746 C   0  0  0  0  0  0  0  0  0  0  0  0
    3.9305    0.3991    1.1583 C   0  0  0  0  0  0  0  0  0  0  0  0
    4.9374   -0.3363    3.6969 H   0  0  0  0  0  0  0  0  0  0  0  0
    6.2561    0.4750    2.7648 H   0  0  0  0  0  0  0  0  0  0  0  0
    6.5733   -1.0058    3.6765 H   0  0  0  0  0  0  0  0  0  0  0  0
    4.8770   -2.5982   -0.1164 H   0  0  0  0  0  0  0  0  0  0  0  0
    3.2532   -1.9521   -1.8510 H   0  0  0  0  0  0  0  0  0  0  0  0
    2.0348   -0.0729   -2.9448 H   0  0  0  0  0  0  0  0  0  0  0  0
    1.7468    1.4288   -2.1011 H   0  0  0  0  0  0  0  0  0  0  0  0
   -1.5718   -3.7740   -2.2838 H   0  0  0  0  0  0  0  0  0  0  0  0
   -3.8258   -3.6485   -1.0706 H   0  0  0  0  0  0  0  0  0  0  0  0
   -1.0414    1.4200    1.7634 H   0  0  0  0  0  0  0  0  0  0  0  0
   -2.4744    2.6927    3.2933 H   0  0  0  0  0  0  0  0  0  0  0  0
   -4.8647    3.0703    2.7437 H   0  0  0  0  0  0  0  0  0  0  0  0
   -5.7915    2.2225    0.6250 H   0  0  0  0  0  0  0  0  0  0  0  0
   -5.1342   -0.0098   -1.2392 H   0  0  0  0  0  0  0  0  0  0  0  0
   -3.8288    0.8031   -2.1525 H   0  0  0  0  0  0  0  0  0  0  0  0
   -5.2615    1.6976   -1.6992 H   0  0  0  0  0  0  0  0  0  0  0  0
    2.4859    1.7243    0.2762 H   0  0  0  0  0  0  0  0  0  0  0  0
    4.0916    1.0791    1.9880 H   0  0  0  0  0  0  0  0  0  0  0  0
  1  2  1  0
  2  3  1  0
  3  4  2  0
  4  5  1  0
  5  6  2  0
  6  7  1  0
  7  8  1  0
  8  9  1  0
  9 10  2  0
  9 11  1  0
 11 12  1  0
 12 13  1  0
 13 14  2  0
 14 15  1  0
 15 16  1  0
 16 17  1  0
 17 18  2  0
 18 19  1  0
 19 20  2  0
 20 21  1  0
 21 22  2  0
 22 23  1  0
 16 24  1  0
 24 25  2  0
  6 26  1  0
 26 27  2  0
 27  3  1  0
 24  8  1  0
 15 11  2  0
 22 17  1  0
  1 28  1  0
  1 29  1  0
  1 30  1  0
  4 31  1  0
  5 32  1  0
  7 33  1  0
  7 34  1  0
 12 35  1  0
 13 36  1  0
 18 37  1  0
 19 38  1  0
 20 39  1  0
 21 40  1  0
 23 41  1  0
 23 42  1  0
 23 43  1  0
 26 44  1  0
 27 45  1  0
M  END
$$$$
