
     RDKit          3D

 43 46  0  0  0  0  0  0  0  0999 V2000
    4.3396    1.6480    3.2145 C   0  0  0  0  0  0  0  0  0  0  0  0
    4.5165    0.3084    2.7751 O   0  0  0  0  0  0  0  0  0  0  0  0
    3.6068   -0.0761    1.8117 C   0  0  0  0  0  0  0  0  0  0  0  0
    2.6291    0.7555    1.4588 N   0  0  0  0  0  0  0  0  0  0  0  0
    1.8047    0.2956    0.5294 C   0  0  0  0  0  0  0  0  0  0  0  0
    0.8008    1.1693    0.1618 N   0  0  0  0  0  0  0  0  0  0  0  0
   -0.5095    0.7166   -0.3061 C   0  0  0  0  0  0  0  0  0  0  0  0
   -1.1691   -0.2938    0.6621 C   0  0  0  0  0  0  0  0  0  0  0  0
   -2.5753   -0.6741    0.1639 C   0  0  0  0  0  0  0  0  0  0  0  0
   -3.4520    0.5866    0.1053 C   0  0  0  0  0  0  0  0  0  0  0  0
   -2.8342    1.6104   -0.8595 C   0  0  0  0  0  0  0  0  0  0  0  0
   -2.7362    0.9933   -2.2626 C   0  0  0  0  0  0  0  0  0  0  0  0
   -1.8535   -0.2632   -2.2202 C   0  0  0  0  0  0  0  0  0  0  0  0
   -2.4671   -1.2832   -1.2450 C   0  0  0  0  0  0  0  0  0  0  0  0
   -0.4443    0.1199   -1.7322 C   0  0  0  0  0  0  0  0  0  0  0  0
   -1.4235    1.9756   -0.3707 C   0  0  0  0  0  0  0  0  0  0  0  0
    1.9116   -0.8999   -0.0254 N   0  0  0  0  0  0  0  0  0  0  0  0
    2.9243   -1.6431    0.4101 C   0  0  0  0  0  0  0  0  0  0  0  0
    3.1107   -2.9108   -0.1016 O   0  0  0  0  0  0  0  0  0  0  0  0
    2.1796   -3.2475   -1.1211 C   0  0  0  0  0  0  0  0  0  0  0  0
    3.8045   -1.2911    1.3308 N   0  0  0  0  0  0  0  0  0  0  0  0
    3.3721    1.7787    3.7117 H   0  0  0  0  0  0  0  0  0  0  0  0
    5.1212    1.8644    3.9494 H   0  0  0  0  0  0  0  0  0  0  0  0
    4.4559    2.3579    2.3880 H   0  0  0  0  0  0  0  0  0  0  0  0
    0.7780    1.8915    0.8745 H   0  0  0  0  0  0  0  0  0  0  0  0
   -0.5697   -1.2075    0.7504 H   0  0  0  0  0  0  0  0  0  0  0  0
   -1.2324    0.1320    1.6721 H   0  0  0  0  0  0  0  0  0  0  0  0
   -3.0235   -1.4032    0.8482 H   0  0  0  0  0  0  0  0  0  0  0  0
   -4.4647    0.3241   -0.2247 H   0  0  0  0  0  0  0  0  0  0  0  0
   -3.5469    1.0242    1.1066 H   0  0  0  0  0  0  0  0  0  0  0  0
   -3.4589    2.5099   -0.8939 H   0  0  0  0  0  0  0  0  0  0  0  0
   -2.3161    1.7233   -2.9653 H   0  0  0  0  0  0  0  0  0  0  0  0
   -3.7372    0.7367   -2.6306 H   0  0  0  0  0  0  0  0  0  0  0  0
   -1.7894   -0.7023   -3.2221 H   0  0  0  0  0  0  0  0  0  0  0  0
   -3.4609   -1.5853   -1.5980 H   0  0  0  0  0  0  0  0  0  0  0  0
   -1.8508   -2.1903   -1.2148 H   0  0  0  0  0  0  0  0  0  0  0  0
    0.0096    0.8402   -2.4255 H   0  0  0  0  0  0  0  0  0  0  0  0
    0.1857   -0.7746   -1.7654 H   0  0  0  0  0  0  0  0  0  0  0  0
   -0.9834    2.7285   -1.0386 H   0  0  0  0  0  0  0  0  0  0  0  0
   -1.4896    2.4471    0.6193 H   0  0  0  0  0  0  0  0  0  0  0  0
    2.2680   -2.5730   -1.9801 H   0  0  0  0  0  0  0  0  0  0  0  0
    1.1539   -3.2607   -0.7356 H   0  0  0  0  0  0  0  0  0  0  0  0
    2.4156   -4.2581   -1.4682 H   0  0  0  0  0  0  0  0  0  0  0  0
  1  2  1  0
  2  3  1  0
  3  4  2  0
  4  5  1  0
  5  6  1  0
  6  7  1  0
  7  8  1  0
  8  9  1  0
  9 10  1  0
 10 11  1  0
 11 12  1  0
 12 13  1  0
 13 14  1  0
 13 15  1  0
 11 16  1  0
  5 17  2  0
 17 18  1  0
 18 19  1  0
 19 20  1  0
 18 21  2  0
 21  3  1  0
 15  7  1  0
 16  7  1  0
 14  9  1  0
  1 22  1  0
  1 23  1  0
  1 24  1  0
  6 25  1  0
  8 26  1  0
  8 27  1  0
  9 28  1  0
 10 29  1  0
 10 30  1  0
 11 31  1  0
 12 32  1  0
 12 33  1  0
 13 34  1  0
 14 35  1  0
 14 36  1  0
 15 37  1  0
 15 38  1  0
 16 39  1  0
 16 40  1  0
 20 41  1  0
 20 42  1  0
 20 43  1  0
M  END
$$$$
