
     RDKit          3D

 46 49  0  0  0  0  0  0  0  0999 V2000
   -2.7228   -0.6827   -2.3328 C   0  0  0  0  0  0  0  0  0  0  0  0
   -2.2625   -1.7718   -1.4777 N   0  0  0  0  0  0  0  0  0  0  0  0
   -3.3507   -2.6231   -1.0053 C   0  0  0  0  0  0  0  0  0  0  0  0
   -1.4370   -1.3133   -0.4092 N   0  0  0  0  0  0  0  0  0  0  0  0
   -1.9864   -0.5041    0.6082 C   0  0  0  0  0  0  0  0  0  0  0  0
   -3.1864    0.0031    0.6036 N   0  0  0  0  0  0  0  0  0  0  0  0
   -1.0840   -0.2270    1.8173 C   0  0  0  0  0  0  0  0  0  0  0  0
   -1.2281   -1.3554    2.7552 C   0  0  0  0  0  0  0  0  0  0  0  0
   -1.3290   -2.2361    3.5042 N   0  0  0  0  0  0  0  0  0  0  0  0
    0.3921   -0.0498    1.4041 C   0  0  0  0  0  0  0  0  0  0  0  0
    0.6909    1.3958    0.9925 C   0  0  0  0  0  0  0  0  0  0  0  0
    0.0671    2.0071   -0.1235 C   0  0  0  0  0  0  0  0  0  0  0  0
    0.3489    3.3321   -0.4763 C   0  0  0  0  0  0  0  0  0  0  0  0
    1.2568    4.0237    0.2927 C   0  0  0  0  0  0  0  0  0  0  0  0
    1.8757    3.4440    1.3723 C   0  0  0  0  0  0  0  0  0  0  0  0
    1.6192    2.1408    1.7449 C   0  0  0  0  0  0  0  0  0  0  0  0
    2.7365    4.2930    1.9944 O   0  0  0  0  0  0  0  0  0  0  0  0
    2.5994    5.4695    1.1712 C   0  0  0  0  0  0  0  0  0  0  0  0
    1.6495    5.3102    0.0966 O   0  0  0  0  0  0  0  0  0  0  0  0
    0.8212   -1.0417    0.3448 C   0  0  0  0  0  0  0  0  0  0  0  0
   -0.0681   -1.6380   -0.4788 C   0  0  0  0  0  0  0  0  0  0  0  0
    0.3767   -2.6655   -1.5084 C   0  0  0  0  0  0  0  0  0  0  0  0
    1.7402   -3.2782   -1.2057 C   0  0  0  0  0  0  0  0  0  0  0  0
    2.7608   -2.2035   -0.8928 C   0  0  0  0  0  0  0  0  0  0  0  0
    2.2793   -1.3518    0.2547 C   0  0  0  0  0  0  0  0  0  0  0  0
    3.0658   -0.8828    1.0747 O   0  0  0  0  0  0  0  0  0  0  0  0
   -3.4747   -0.0405   -1.8655 H   0  0  0  0  0  0  0  0  0  0  0  0
   -1.8820   -0.0551   -2.6498 H   0  0  0  0  0  0  0  0  0  0  0  0
   -3.1656   -1.0935   -3.2472 H   0  0  0  0  0  0  0  0  0  0  0  0
   -2.9670   -3.4184   -0.3561 H   0  0  0  0  0  0  0  0  0  0  0  0
   -4.1300   -2.0808   -0.4617 H   0  0  0  0  0  0  0  0  0  0  0  0
   -3.8284   -3.1197   -1.8575 H   0  0  0  0  0  0  0  0  0  0  0  0
   -3.3865    0.5467    1.4488 H   0  0  0  0  0  0  0  0  0  0  0  0
   -1.4385    0.6802    2.3242 H   0  0  0  0  0  0  0  0  0  0  0  0
    0.9885   -0.2551    2.3060 H   0  0  0  0  0  0  0  0  0  0  0  0
   -0.6414    1.4606   -0.7419 H   0  0  0  0  0  0  0  0  0  0  0  0
   -0.1281    3.8001   -1.3304 H   0  0  0  0  0  0  0  0  0  0  0  0
    2.1434    1.7112    2.5941 H   0  0  0  0  0  0  0  0  0  0  0  0
    3.5779    5.7135    0.7414 H   0  0  0  0  0  0  0  0  0  0  0  0
    2.2754    6.3039    1.8039 H   0  0  0  0  0  0  0  0  0  0  0  0
   -0.3411   -3.4930   -1.5594 H   0  0  0  0  0  0  0  0  0  0  0  0
    0.3999   -2.1879   -2.4961 H   0  0  0  0  0  0  0  0  0  0  0  0
    2.0752   -3.8799   -2.0580 H   0  0  0  0  0  0  0  0  0  0  0  0
    1.6488   -3.9591   -0.3491 H   0  0  0  0  0  0  0  0  0  0  0  0
    3.7091   -2.6727   -0.6095 H   0  0  0  0  0  0  0  0  0  0  0  0
    2.9397   -1.5554   -1.7574 H   0  0  0  0  0  0  0  0  0  0  0  0
  1  2  1  0
  2  3  1  0
  2  4  1  0
  4  5  1  0
  5  6  2  3
  5  7  1  0
  7  8  1  0
  8  9  3  0
  7 10  1  0
 10 11  1  0
 11 12  2  0
 12 13  1  0
 13 14  2  0
 14 15  1  0
 15 16  2  0
 15 17  1  0
 17 18  1  0
 18 19  1  0
 10 20  1  0
 20 21  2  0
 21 22  1  0
 22 23  1  0
 23 24  1  0
 24 25  1  0
 25 26  2  0
 21  4  1  0
 16 11  1  0
 25 20  1  0
 19 14  1  0
  1 27  1  0
  1 28  1  0
  1 29  1  0
  3 30  1  0
  3 31  1  0
  3 32  1  0
  6 33  1  0
  7 34  1  0
 10 35  1  0
 12 36  1  0
 13 37  1  0
 16 38  1  0
 18 39  1  0
 18 40  1  0
 22 41  1  0
 22 42  1  0
 23 43  1  0
 23 44  1  0
 24 45  1  0
 24 46  1  0
M  END
$$$$
