
     RDKit          3D

 45 47  0  0  0  0  0  0  0  0999 V2000
   -4.3128    1.5194    3.4982 C   0  0  0  0  0  0  0  0  0  0  0  0
   -3.6350    0.8771    2.4246 O   0  0  0  0  0  0  0  0  0  0  0  0
   -4.3881    0.5472    1.3198 C   0  0  0  0  0  0  0  0  0  0  0  0
   -5.7560    0.7996    1.1791 C   0  0  0  0  0  0  0  0  0  0  0  0
   -6.4213    0.4201    0.0117 C   0  0  0  0  0  0  0  0  0  0  0  0
   -5.7251   -0.2100   -1.0165 C   0  0  0  0  0  0  0  0  0  0  0  0
   -4.3585   -0.4659   -0.8857 C   0  0  0  0  0  0  0  0  0  0  0  0
   -3.6819   -0.0925    0.2768 C   0  0  0  0  0  0  0  0  0  0  0  0
   -2.3025   -0.3139    0.4861 N   0  0  0  0  0  0  0  0  0  0  0  0
   -1.3893   -0.9122   -0.3592 C   0  0  0  0  0  0  0  0  0  0  0  0
   -1.6248   -1.3813   -1.4675 O   0  0  0  0  0  0  0  0  0  0  0  0
    0.0178   -0.9328    0.2375 C   0  0  0  0  0  0  0  0  0  0  0  0
    0.5647    0.5001    0.3832 C   0  0  0  0  0  0  0  0  0  0  0  0
    2.0045    0.6418   -0.1065 C   0  0  0  0  0  0  0  0  0  0  0  0
    2.7920   -0.4774    0.4346 N   0  0  0  0  0  0  0  0  0  0  0  0
    4.4608   -0.2475    0.6508 S   0  0  0  0  0  6  0  0  0  0  0  0
    4.9799   -1.4293    1.3089 O   0  0  0  0  0  0  0  0  0  0  0  0
    4.6868    1.0745    1.1925 O   0  0  0  0  0  0  0  0  0  0  0  0
    5.2463   -0.2692   -0.9529 C   0  0  0  0  0  0  0  0  0  0  0  0
    6.0241   -1.2264   -1.5795 C   0  0  0  0  0  0  0  0  0  0  0  0
    6.4421   -0.8233   -2.8803 C   0  0  0  0  0  0  0  0  0  0  0  0
    5.9722    0.4300   -3.2039 C   0  0  0  0  0  0  0  0  0  0  0  0
    5.0357    1.1096   -1.9439 S   0  0  0  0  0  0  0  0  0  0  0  0
    2.3701   -1.8240   -0.0161 C   0  0  0  0  0  0  0  0  0  0  0  0
    0.9582   -1.8116   -0.5942 C   0  0  0  0  0  0  0  0  0  0  0  0
   -5.0929    0.8740    3.9149 H   0  0  0  0  0  0  0  0  0  0  0  0
   -3.5807    1.7081    4.2892 H   0  0  0  0  0  0  0  0  0  0  0  0
   -4.7209    2.4859    3.1849 H   0  0  0  0  0  0  0  0  0  0  0  0
   -6.3345    1.2880    1.9555 H   0  0  0  0  0  0  0  0  0  0  0  0
   -7.4853    0.6164   -0.0961 H   0  0  0  0  0  0  0  0  0  0  0  0
   -6.2434   -0.5050   -1.9256 H   0  0  0  0  0  0  0  0  0  0  0  0
   -3.8509   -0.9590   -1.7084 H   0  0  0  0  0  0  0  0  0  0  0  0
   -1.9783    0.0160    1.3907 H   0  0  0  0  0  0  0  0  0  0  0  0
   -0.0646   -1.3843    1.2364 H   0  0  0  0  0  0  0  0  0  0  0  0
   -0.0584    1.2301   -0.1478 H   0  0  0  0  0  0  0  0  0  0  0  0
    0.5194    0.7775    1.4449 H   0  0  0  0  0  0  0  0  0  0  0  0
    2.0390    0.6385   -1.2013 H   0  0  0  0  0  0  0  0  0  0  0  0
    2.3913    1.6061    0.2368 H   0  0  0  0  0  0  0  0  0  0  0  0
    6.2798   -2.1703   -1.1114 H   0  0  0  0  0  0  0  0  0  0  0  0
    7.0594   -1.4191   -3.5421 H   0  0  0  0  0  0  0  0  0  0  0  0
    6.1368    0.9838   -4.1186 H   0  0  0  0  0  0  0  0  0  0  0  0
    2.3973   -2.4932    0.8518 H   0  0  0  0  0  0  0  0  0  0  0  0
    3.0575   -2.2194   -0.7710 H   0  0  0  0  0  0  0  0  0  0  0  0
    0.5768   -2.8388   -0.6506 H   0  0  0  0  0  0  0  0  0  0  0  0
    0.9929   -1.4469   -1.6298 H   0  0  0  0  0  0  0  0  0  0  0  0
  1  2  1  0
  2  3  1  0
  3  4  2  0
  4  5  1  0
  5  6  2  0
  6  7  1  0
  7  8  2  0
  8  9  1  0
  9 10  1  0
 10 11  2  0
 10 12  1  0
 12 13  1  0
 13 14  1  0
 14 15  1  0
 15 16  1  0
 16 17  2  0
 16 18  2  0
 16 19  1  0
 19 20  2  0
 20 21  1  0
 21 22  2  0
 22 23  1  0
 15 24  1  0
 24 25  1  0
  8  3  1  0
 25 12  1  0
 23 19  1  0
  1 26  1  0
  1 27  1  0
  1 28  1  0
  4 29  1  0
  5 30  1  0
  6 31  1  0
  7 32  1  0
  9 33  1  0
 12 34  1  0
 13 35  1  0
 13 36  1  0
 14 37  1  0
 14 38  1  0
 20 39  1  0
 21 40  1  0
 22 41  1  0
 24 42  1  0
 24 43  1  0
 25 44  1  0
 25 45  1  0
M  END
$$$$
