
     RDKit          3D

 39 40  0  0  0  0  0  0  0  0999 V2000
    7.6643   -1.0026    0.0114 C   0  0  0  0  0  0  0  0  0  0  0  0
    6.8160    0.1049    0.2854 O   0  0  0  0  0  0  0  0  0  0  0  0
    5.4799   -0.0666    0.0492 C   0  0  0  0  0  0  0  0  0  0  0  0
    4.6912    1.0547    0.3146 C   0  0  0  0  0  0  0  0  0  0  0  0
    3.3091    1.0183    0.1173 C   0  0  0  0  0  0  0  0  0  0  0  0
    2.6943   -0.1468   -0.3536 C   0  0  0  0  0  0  0  0  0  0  0  0
    1.2014   -0.1941   -0.5459 C   0  0  0  0  0  0  0  0  0  0  0  0
    0.4682   -0.5254    0.7530 C   0  0  0  0  0  0  0  0  0  0  0  0
   -0.9476   -0.6317    0.5201 O   0  0  0  0  0  0  0  0  0  0  0  0
   -1.6276    0.5406    0.5229 C   0  0  0  0  0  0  0  0  0  0  0  0
   -1.1470    1.6499    0.6859 O   0  0  0  0  0  0  0  0  0  0  0  0
   -3.0785    0.3076    0.2886 C   0  0  0  0  0  0  0  0  0  0  0  0
   -3.6234   -0.9751    0.1621 C   0  0  0  0  0  0  0  0  0  0  0  0
   -4.9972   -1.1436   -0.0551 C   0  0  0  0  0  0  0  0  0  0  0  0
   -5.8692   -0.0471   -0.1120 C   0  0  0  0  0  0  0  0  0  0  0  0
   -7.2051   -0.2896   -0.4719 N   0  0  0  0  0  0  0  0  0  0  0  0
   -5.2958    1.2377   -0.0351 C   0  0  0  0  0  0  0  0  0  0  0  0
   -6.1286    2.4346   -0.1552 N   0  0  0  0  0  4  0  0  0  0  0  0
   -7.2960    2.3717    0.2625 O   0  0  0  0  0  0  0  0  0  0  0  0
   -5.6096    3.4453   -0.6502 O   0  0  0  0  0  1  0  0  0  0  0  0
   -3.9189    1.4206    0.1824 C   0  0  0  0  0  0  0  0  0  0  0  0
    3.4855   -1.2720   -0.6143 C   0  0  0  0  0  0  0  0  0  0  0  0
    4.8706   -1.2318   -0.4160 C   0  0  0  0  0  0  0  0  0  0  0  0
    7.6270   -1.2765   -1.0482 H   0  0  0  0  0  0  0  0  0  0  0  0
    8.6911   -0.7020    0.2411 H   0  0  0  0  0  0  0  0  0  0  0  0
    7.4168   -1.8567    0.6502 H   0  0  0  0  0  0  0  0  0  0  0  0
    5.1580    1.9668    0.6786 H   0  0  0  0  0  0  0  0  0  0  0  0
    2.7180    1.9063    0.3330 H   0  0  0  0  0  0  0  0  0  0  0  0
    0.8524    0.7633   -0.9524 H   0  0  0  0  0  0  0  0  0  0  0  0
    0.9417   -0.9333   -1.3148 H   0  0  0  0  0  0  0  0  0  0  0  0
    0.6767    0.2060    1.5441 H   0  0  0  0  0  0  0  0  0  0  0  0
    0.7969   -1.4987    1.1352 H   0  0  0  0  0  0  0  0  0  0  0  0
   -2.9920   -1.8596    0.2171 H   0  0  0  0  0  0  0  0  0  0  0  0
   -5.3833   -2.1534   -0.1851 H   0  0  0  0  0  0  0  0  0  0  0  0
   -7.8448    0.4677   -0.2130 H   0  0  0  0  0  0  0  0  0  0  0  0
   -7.5682   -1.1937   -0.1829 H   0  0  0  0  0  0  0  0  0  0  0  0
   -3.4992    2.4233    0.2623 H   0  0  0  0  0  0  0  0  0  0  0  0
    3.0306   -2.1915   -0.9763 H   0  0  0  0  0  0  0  0  0  0  0  0
    5.4421   -2.1274   -0.6340 H   0  0  0  0  0  0  0  0  0  0  0  0
  1  2  1  0
  2  3  1  0
  3  4  2  0
  4  5  1  0
  5  6  2  0
  6  7  1  0
  7  8  1  0
  8  9  1  0
  9 10  1  0
 10 11  2  0
 10 12  1  0
 12 13  2  0
 13 14  1  0
 14 15  2  0
 15 16  1  0
 15 17  1  0
 17 18  1  0
 18 19  2  0
 18 20  1  0
 17 21  2  0
  6 22  1  0
 22 23  2  0
 23  3  1  0
 21 12  1  0
  1 24  1  0
  1 25  1  0
  1 26  1  0
  4 27  1  0
  5 28  1  0
  7 29  1  0
  7 30  1  0
  8 31  1  0
  8 32  1  0
 13 33  1  0
 14 34  1  0
 16 35  1  0
 16 36  1  0
 21 37  1  0
 22 38  1  0
 23 39  1  0
M  CHG  2  18   1  20  -1
M  END
$$$$
