
     RDKit          3D

 47 50  0  0  0  0  0  0  0  0999 V2000
   -5.7532    0.3488    1.5943 C   0  0  0  0  0  0  0  0  0  0  0  0
   -5.8508   -0.5738    0.3754 C   0  0  0  0  0  0  0  0  0  0  0  0
   -5.9509    0.2221   -0.9394 C   0  0  0  0  0  0  0  0  0  0  0  0
   -4.6785    1.0153   -1.2858 C   0  0  0  0  0  0  0  0  0  0  0  0
   -3.4137    0.2485   -1.0017 C   0  0  0  0  0  0  0  0  0  0  0  0
   -3.4440   -0.9072   -0.2404 C   0  0  0  0  0  0  0  0  0  0  0  0
   -1.9031   -1.5493    0.0475 S   0  0  0  0  0  0  0  0  0  0  0  0
   -1.1440   -0.2764   -0.7697 C   0  0  0  0  0  0  0  0  0  0  0  0
    0.2390   -0.1620   -0.8196 N   0  0  0  0  0  0  0  0  0  0  0  0
    1.1919   -1.0316   -0.3133 C   0  0  0  0  0  0  0  0  0  0  0  0
    0.9554   -2.1207    0.2007 O   0  0  0  0  0  0  0  0  0  0  0  0
    2.5594   -0.5390   -0.4588 C   0  0  0  0  0  0  0  0  0  0  0  0
    3.1114    0.6299   -0.9606 C   0  0  0  0  0  0  0  0  0  0  0  0
    4.5174    0.5216   -0.8178 C   0  0  0  0  0  0  0  0  0  0  0  0
    4.7540   -0.7011   -0.2295 C   0  0  0  0  0  0  0  0  0  0  0  0
    5.9829   -1.4116    0.1978 C   0  0  0  0  0  0  0  0  0  0  0  0
    6.5632   -0.7661    1.3673 N   0  0  0  0  0  0  0  0  0  0  0  0
    6.1635   -0.9231    2.6681 C   0  0  0  0  0  0  0  0  0  0  0  0
    7.0124   -0.1430    3.4055 C   0  0  0  0  0  0  0  0  0  0  0  0
    7.0300    0.1201    5.2517 Br  0  0  0  0  0  0  0  0  0  0  0  0
    7.8928    0.4415    2.4876 C   0  0  0  0  0  0  0  0  0  0  0  0
    7.6291    0.0609    1.2315 N   0  0  0  0  0  0  0  0  0  0  0  0
    3.5757   -1.3494   -0.0182 O   0  0  0  0  0  0  0  0  0  0  0  0
   -2.0492    0.6142   -1.3440 C   0  0  0  0  0  0  0  0  0  0  0  0
   -1.5694    1.7597   -2.1214 C   0  0  0  0  0  0  0  0  0  0  0  0
   -2.4066    2.2559   -3.0770 N   0  0  0  0  0  0  0  0  0  0  0  0
   -0.4343    2.2179   -2.0038 O   0  0  0  0  0  0  0  0  0  0  0  0
   -4.6717   -1.5652    0.3149 C   0  0  0  0  0  0  0  0  0  0  0  0
   -5.7669   -0.2375    2.5190 H   0  0  0  0  0  0  0  0  0  0  0  0
   -4.8365    0.9460    1.5935 H   0  0  0  0  0  0  0  0  0  0  0  0
   -6.6041    1.0374    1.6255 H   0  0  0  0  0  0  0  0  0  0  0  0
   -6.7734   -1.1574    0.4908 H   0  0  0  0  0  0  0  0  0  0  0  0
   -6.1536   -0.4866   -1.7543 H   0  0  0  0  0  0  0  0  0  0  0  0
   -6.8076    0.9061   -0.9073 H   0  0  0  0  0  0  0  0  0  0  0  0
   -4.7451    1.2907   -2.3409 H   0  0  0  0  0  0  0  0  0  0  0  0
   -4.6577    1.9457   -0.7054 H   0  0  0  0  0  0  0  0  0  0  0  0
    0.5624    0.6958   -1.2585 H   0  0  0  0  0  0  0  0  0  0  0  0
    2.5769    1.4742   -1.3753 H   0  0  0  0  0  0  0  0  0  0  0  0
    5.2684    1.2505   -1.0928 H   0  0  0  0  0  0  0  0  0  0  0  0
    6.7347   -1.4117   -0.5984 H   0  0  0  0  0  0  0  0  0  0  0  0
    5.7768   -2.4514    0.4715 H   0  0  0  0  0  0  0  0  0  0  0  0
    5.3266   -1.5537    2.9360 H   0  0  0  0  0  0  0  0  0  0  0  0
    8.7130    1.1235    2.6698 H   0  0  0  0  0  0  0  0  0  0  0  0
   -3.1164    1.6558   -3.4706 H   0  0  0  0  0  0  0  0  0  0  0  0
   -1.9835    2.9229   -3.7095 H   0  0  0  0  0  0  0  0  0  0  0  0
   -4.9406   -2.4001   -0.3452 H   0  0  0  0  0  0  0  0  0  0  0  0
   -4.4822   -1.9869    1.3091 H   0  0  0  0  0  0  0  0  0  0  0  0
  1  2  1  0
  2  3  1  0
  3  4  1  0
  4  5  1  0
  5  6  2  0
  6  7  1  0
  7  8  1  0
  8  9  1  0
  9 10  1  0
 10 11  2  0
 10 12  1  0
 12 13  2  0
 13 14  1  0
 14 15  2  0
 15 16  1  0
 16 17  1  0
 17 18  1  0
 18 19  2  0
 19 20  1  0
 19 21  1  0
 21 22  2  0
 15 23  1  0
  8 24  2  0
 24 25  1  0
 25 26  1  0
 25 27  2  0
  6 28  1  0
 28  2  1  0
 24  5  1  0
 23 12  1  0
 22 17  1  0
  1 29  1  0
  1 30  1  0
  1 31  1  0
  2 32  1  0
  3 33  1  0
  3 34  1  0
  4 35  1  0
  4 36  1  0
  9 37  1  0
 13 38  1  0
 14 39  1  0
 16 40  1  0
 16 41  1  0
 18 42  1  0
 21 43  1  0
 26 44  1  0
 26 45  1  0
 28 46  1  0
 28 47  1  0
M  END
$$$$
