
     RDKit          3D

 52 54  0  0  0  0  0  0  0  0999 V2000
    3.0517   -0.3452   -0.4607 O   0  0  0  0  0  0  0  0  0  0  0  0
    1.8795   -0.5271   -0.1527 C   0  0  0  0  0  0  0  0  0  0  0  0
    1.3181   -1.6815    0.3516 N   0  0  0  0  0  0  0  0  0  0  0  0
    1.9583   -2.9023    0.6369 C   0  0  0  0  0  0  0  0  0  0  0  0
    3.3275   -3.1217    0.4759 C   0  0  0  0  0  0  0  0  0  0  0  0
    3.8870   -4.3675    0.7819 C   0  0  0  0  0  0  0  0  0  0  0  0
    3.0817   -5.4039    1.2467 C   0  0  0  0  0  0  0  0  0  0  0  0
    1.7156   -5.1949    1.4120 C   0  0  0  0  0  0  0  0  0  0  0  0
    1.1586   -3.9484    1.1144 C   0  0  0  0  0  0  0  0  0  0  0  0
    0.8499    0.5688   -0.3043 C   0  0  0  0  0  0  0  0  0  0  0  0
    1.2454    1.7637   -0.7757 C   0  0  0  0  0  0  0  0  0  0  0  0
    0.3168    2.9408   -0.8735 C   0  0  0  0  0  0  0  0  0  0  0  0
    0.9460    4.2366   -0.3907 C   0  0  0  0  0  0  0  0  0  0  0  0
    1.5748    4.3252    0.8622 C   0  0  0  0  0  0  0  0  0  0  0  0
    2.1438    5.5255    1.2911 C   0  0  0  0  0  0  0  0  0  0  0  0
    2.0889    6.6545    0.4773 C   0  0  0  0  0  0  0  0  0  0  0  0
    1.4601    6.5856   -0.7637 C   0  0  0  0  0  0  0  0  0  0  0  0
    0.8906    5.3856   -1.1948 C   0  0  0  0  0  0  0  0  0  0  0  0
   -0.9902    2.6560   -0.1302 C   0  0  0  0  0  0  0  0  0  0  0  0
   -1.4273    1.2220   -0.4131 C   0  0  0  0  0  0  0  0  0  0  0  0
   -2.6828    1.0374    0.2497 O   0  0  0  0  0  0  0  0  0  0  0  0
   -3.4493   -0.0660   -0.2273 C   0  0  0  0  0  0  0  0  0  0  0  0
   -2.9858   -1.3873    0.3792 C   0  0  0  0  0  0  0  0  0  0  0  0
   -3.9692   -2.5223    0.0873 C   0  0  0  0  0  0  0  0  0  0  0  0
   -3.5156   -3.8356    0.7120 C   0  0  0  0  0  0  0  0  0  0  0  0
   -2.2790   -4.2499    0.1484 O   0  0  0  0  0  0  0  0  0  0  0  0
   -0.4549    0.2881    0.0688 O   0  0  0  0  0  0  0  0  0  0  0  0
    0.3220   -1.6351    0.5393 H   0  0  0  0  0  0  0  0  0  0  0  0
    3.9909   -2.3407    0.1191 H   0  0  0  0  0  0  0  0  0  0  0  0
    4.9549   -4.5214    0.6568 H   0  0  0  0  0  0  0  0  0  0  0  0
    3.5188   -6.3713    1.4796 H   0  0  0  0  0  0  0  0  0  0  0  0
    1.0788   -5.9997    1.7697 H   0  0  0  0  0  0  0  0  0  0  0  0
    0.0880   -3.8131    1.2496 H   0  0  0  0  0  0  0  0  0  0  0  0
    2.2805    1.9178   -1.0763 H   0  0  0  0  0  0  0  0  0  0  0  0
    0.0860    3.0509   -1.9427 H   0  0  0  0  0  0  0  0  0  0  0  0
    1.6303    3.4555    1.5139 H   0  0  0  0  0  0  0  0  0  0  0  0
    2.6330    5.5773    2.2601 H   0  0  0  0  0  0  0  0  0  0  0  0
    2.5348    7.5874    0.8110 H   0  0  0  0  0  0  0  0  0  0  0  0
    1.4140    7.4676   -1.3975 H   0  0  0  0  0  0  0  0  0  0  0  0
    0.4045    5.3578   -2.1671 H   0  0  0  0  0  0  0  0  0  0  0  0
   -1.7709    3.3665   -0.4287 H   0  0  0  0  0  0  0  0  0  0  0  0
   -0.8656    2.7840    0.9539 H   0  0  0  0  0  0  0  0  0  0  0  0
   -1.5632    1.0793   -1.4940 H   0  0  0  0  0  0  0  0  0  0  0  0
   -3.4429   -0.1007   -1.3231 H   0  0  0  0  0  0  0  0  0  0  0  0
   -4.4841    0.1280    0.0771 H   0  0  0  0  0  0  0  0  0  0  0  0
   -2.0011   -1.6483   -0.0206 H   0  0  0  0  0  0  0  0  0  0  0  0
   -2.8563   -1.2685    1.4626 H   0  0  0  0  0  0  0  0  0  0  0  0
   -4.0583   -2.6458   -0.9982 H   0  0  0  0  0  0  0  0  0  0  0  0
   -4.9610   -2.2660    0.4787 H   0  0  0  0  0  0  0  0  0  0  0  0
   -3.3810   -3.7290    1.7930 H   0  0  0  0  0  0  0  0  0  0  0  0
   -4.2555   -4.6238    0.5391 H   0  0  0  0  0  0  0  0  0  0  0  0
   -2.4370   -4.4448   -0.7920 H   0  0  0  0  0  0  0  0  0  0  0  0
  1  2  2  0
  2  3  1  0
  3  4  1  0
  4  5  2  0
  5  6  1  0
  6  7  2  0
  7  8  1  0
  8  9  2  0
  2 10  1  0
 10 11  2  0
 11 12  1  0
 12 13  1  0
 13 14  2  0
 14 15  1  0
 15 16  2  0
 16 17  1  0
 17 18  2  0
 12 19  1  0
 19 20  1  0
 20 21  1  0
 21 22  1  0
 22 23  1  0
 23 24  1  0
 24 25  1  0
 25 26  1  0
 20 27  1  0
  9  4  1  0
 27 10  1  0
 18 13  1  0
  3 28  1  0
  5 29  1  0
  6 30  1  0
  7 31  1  0
  8 32  1  0
  9 33  1  0
 11 34  1  0
 12 35  1  0
 14 36  1  0
 15 37  1  0
 16 38  1  0
 17 39  1  0
 18 40  1  0
 19 41  1  0
 19 42  1  0
 20 43  1  0
 22 44  1  0
 22 45  1  0
 23 46  1  0
 23 47  1  0
 24 48  1  0
 24 49  1  0
 25 50  1  0
 25 51  1  0
 26 52  1  0
M  END
$$$$
