
     RDKit          3D

 55 58  0  0  0  0  0  0  0  0999 V2000
    3.5860   -4.9627   -2.5273 C   0  0  0  0  0  0  0  0  0  0  0  0
    3.0998   -3.9984   -1.6018 O   0  0  0  0  0  0  0  0  0  0  0  0
    2.5819   -2.8381   -2.1161 C   0  0  0  0  0  0  0  0  0  0  0  0
    2.7838   -2.4210   -3.4360 C   0  0  0  0  0  0  0  0  0  0  0  0
    2.1978   -1.2460   -3.9065 C   0  0  0  0  0  0  0  0  0  0  0  0
    1.3928   -0.4797   -3.0681 C   0  0  0  0  0  0  0  0  0  0  0  0
    1.1674   -0.8712   -1.7395 C   0  0  0  0  0  0  0  0  0  0  0  0
    0.2936   -0.0457   -0.8155 C   0  0  0  0  0  0  0  0  0  0  0  0
    1.1572    0.8525    0.0811 C   0  0  0  0  0  0  0  0  0  0  0  0
    0.3646    2.1310    0.1365 C   0  0  0  0  0  0  0  0  0  0  0  0
    0.7026    3.2160    1.0877 C   0  0  0  0  0  0  0  0  0  0  0  0
   -0.1216    4.3472    1.1483 C   0  0  0  0  0  0  0  0  0  0  0  0
    0.1704    5.3839    2.0367 C   0  0  0  0  0  0  0  0  0  0  0  0
    1.2864    5.2968    2.8666 C   0  0  0  0  0  0  0  0  0  0  0  0
    2.1128    4.1753    2.8085 C   0  0  0  0  0  0  0  0  0  0  0  0
    1.8244    3.1352    1.9207 C   0  0  0  0  0  0  0  0  0  0  0  0
   -0.6121    2.2172   -0.7124 N   0  0  0  0  0  0  0  0  0  0  0  0
   -0.6200    0.9257   -1.4778 N   0  0  0  0  0  0  0  0  0  0  0  0
   -2.1439    0.3271   -2.0105 S   0  0  0  0  0  6  0  0  0  0  0  0
   -2.8565    1.3858   -2.6993 O   0  0  0  0  0  0  0  0  0  0  0  0
   -1.9430   -0.9581   -2.6506 O   0  0  0  0  0  0  0  0  0  0  0  0
   -3.0026    0.0307   -0.4763 C   0  0  0  0  0  0  0  0  0  0  0  0
   -3.5663    1.1089    0.2104 C   0  0  0  0  0  0  0  0  0  0  0  0
   -4.2492    0.8827    1.4060 C   0  0  0  0  0  0  0  0  0  0  0  0
   -4.3923   -0.4189    1.9064 C   0  0  0  0  0  0  0  0  0  0  0  0
   -5.1027   -0.6558    3.2070 C   0  0  0  0  0  0  0  0  0  0  0  0
   -3.8253   -1.4919    1.2045 C   0  0  0  0  0  0  0  0  0  0  0  0
   -3.1405   -1.2726    0.0080 C   0  0  0  0  0  0  0  0  0  0  0  0
    1.8048   -2.0349   -1.2564 C   0  0  0  0  0  0  0  0  0  0  0  0
    1.5544   -2.3365    0.0637 O   0  0  0  0  0  0  0  0  0  0  0  0
    2.7006   -2.7299    0.8154 C   0  0  0  0  0  0  0  0  0  0  0  0
    4.5158   -4.6214   -2.9937 H   0  0  0  0  0  0  0  0  0  0  0  0
    2.8315   -5.2120   -3.2810 H   0  0  0  0  0  0  0  0  0  0  0  0
    3.8120   -5.8761   -1.9685 H   0  0  0  0  0  0  0  0  0  0  0  0
    3.3932   -2.9907   -4.1296 H   0  0  0  0  0  0  0  0  0  0  0  0
    2.3558   -0.9335   -4.9361 H   0  0  0  0  0  0  0  0  0  0  0  0
    0.9342    0.4239   -3.4669 H   0  0  0  0  0  0  0  0  0  0  0  0
   -0.3045   -0.7070   -0.1787 H   0  0  0  0  0  0  0  0  0  0  0  0
    2.1415    1.0684   -0.3498 H   0  0  0  0  0  0  0  0  0  0  0  0
    1.2826    0.4128    1.0750 H   0  0  0  0  0  0  0  0  0  0  0  0
   -0.9948    4.4323    0.5042 H   0  0  0  0  0  0  0  0  0  0  0  0
   -0.4727    6.2597    2.0778 H   0  0  0  0  0  0  0  0  0  0  0  0
    1.5139    6.1056    3.5569 H   0  0  0  0  0  0  0  0  0  0  0  0
    2.9854    4.1126    3.4544 H   0  0  0  0  0  0  0  0  0  0  0  0
    2.4926    2.2798    1.8950 H   0  0  0  0  0  0  0  0  0  0  0  0
   -3.4701    2.1206   -0.1787 H   0  0  0  0  0  0  0  0  0  0  0  0
   -4.6759    1.7282    1.9415 H   0  0  0  0  0  0  0  0  0  0  0  0
   -5.5830   -1.6398    3.2159 H   0  0  0  0  0  0  0  0  0  0  0  0
   -4.3914   -0.6012    4.0368 H   0  0  0  0  0  0  0  0  0  0  0  0
   -5.8890    0.0902    3.3642 H   0  0  0  0  0  0  0  0  0  0  0  0
   -3.9213   -2.5076    1.5829 H   0  0  0  0  0  0  0  0  0  0  0  0
   -2.7193   -2.1172   -0.5332 H   0  0  0  0  0  0  0  0  0  0  0  0
    2.7889   -3.8199    0.8305 H   0  0  0  0  0  0  0  0  0  0  0  0
    2.5450   -2.4005    1.8477 H   0  0  0  0  0  0  0  0  0  0  0  0
    3.6246   -2.2622    0.4568 H   0  0  0  0  0  0  0  0  0  0  0  0
  1  2  1  0
  2  3  1  0
  3  4  2  0
  4  5  1  0
  5  6  2  0
  6  7  1  0
  7  8  1  0
  8  9  1  0
  9 10  1  0
 10 11  1  0
 11 12  2  0
 12 13  1  0
 13 14  2  0
 14 15  1  0
 15 16  2  0
 10 17  2  0
 17 18  1  0
 18 19  1  0
 19 20  2  0
 19 21  2  0
 19 22  1  0
 22 23  2  0
 23 24  1  0
 24 25  2  0
 25 26  1  0
 25 27  1  0
 27 28  2  0
  7 29  2  0
 29 30  1  0
 30 31  1  0
 29  3  1  0
 18  8  1  0
 28 22  1  0
 16 11  1  0
  1 32  1  0
  1 33  1  0
  1 34  1  0
  4 35  1  0
  5 36  1  0
  6 37  1  0
  8 38  1  0
  9 39  1  0
  9 40  1  0
 12 41  1  0
 13 42  1  0
 14 43  1  0
 15 44  1  0
 16 45  1  0
 23 46  1  0
 24 47  1  0
 26 48  1  0
 26 49  1  0
 26 50  1  0
 27 51  1  0
 28 52  1  0
 31 53  1  0
 31 54  1  0
 31 55  1  0
M  END
$$$$
