
     RDKit          3D

 57 59  0  0  0  0  0  0  0  0999 V2000
    8.7016   -1.1139   -0.7966 C   0  0  0  0  0  0  0  0  0  0  0  0
    7.2954   -1.6529   -0.5235 C   0  0  0  0  0  0  0  0  0  0  0  0
    7.3204   -2.5526    0.7155 C   0  0  0  0  0  0  0  0  0  0  0  0
    6.3060   -0.4825   -0.3674 C   0  0  0  0  0  0  0  0  0  0  0  0
    4.8765   -0.9077   -0.3220 C   0  0  0  0  0  0  0  0  0  0  0  0
    4.0177   -0.9757    0.7992 C   0  0  0  0  0  0  0  0  0  0  0  0
    2.8245   -1.4228    0.2868 C   0  0  0  0  0  0  0  0  0  0  0  0
    1.4983   -1.7166    0.8626 C   0  0  0  0  0  0  0  0  0  0  0  0
    0.6081   -0.6174    0.5593 N   0  0  0  0  0  0  0  0  0  0  0  0
   -0.6197   -0.5315    1.1700 C   0  0  0  0  0  0  0  0  0  0  0  0
   -0.9826   -1.3231    2.0357 O   0  0  0  0  0  0  0  0  0  0  0  0
   -1.5274    0.5885    0.6840 C   0  0  0  0  0  0  0  0  0  0  0  0
   -0.8461    1.9670    0.7294 C   0  0  0  0  0  0  0  0  0  0  0  0
   -0.6124    2.5549   -0.6573 C   0  0  0  0  0  0  0  0  0  0  0  0
   -1.9061    2.5818   -1.4451 C   0  0  0  0  0  0  0  0  0  0  0  0
   -2.2389    3.5605   -2.1043 O   0  0  0  0  0  0  0  0  0  0  0  0
   -2.6357    1.4052   -1.3711 N   0  0  0  0  0  0  0  0  0  0  0  0
   -3.8881    1.2705   -2.1052 C   0  0  0  0  0  0  0  0  0  0  0  0
   -5.0774    1.2396   -1.1737 C   0  0  0  0  0  0  0  0  0  0  0  0
   -5.4464    2.3930   -0.4667 C   0  0  0  0  0  0  0  0  0  0  0  0
   -6.5384    2.3761    0.4000 C   0  0  0  0  0  0  0  0  0  0  0  0
   -7.2744    1.2043    0.5721 C   0  0  0  0  0  0  0  0  0  0  0  0
   -6.9214    0.0340   -0.1169 C   0  0  0  0  0  0  0  0  0  0  0  0
   -7.7331   -1.2263    0.0557 C   0  0  0  0  0  0  0  0  0  0  0  0
   -8.2152   -1.3823    1.3204 F   0  0  0  0  0  0  0  0  0  0  0  0
   -8.8186   -1.2608   -0.7659 F   0  0  0  0  0  0  0  0  0  0  0  0
   -7.0261   -2.3602   -0.2133 F   0  0  0  0  0  0  0  0  0  0  0  0
   -5.8240    0.0654   -0.9946 C   0  0  0  0  0  0  0  0  0  0  0  0
   -2.0774    0.2386   -0.6991 C   0  0  0  0  0  0  0  0  0  0  0  0
    2.9557   -1.6065   -1.0545 O   0  0  0  0  0  0  0  0  0  0  0  0
    4.2406   -1.2756   -1.4419 N   0  0  0  0  0  0  0  0  0  0  0  0
    9.4146   -1.9351   -0.9296 H   0  0  0  0  0  0  0  0  0  0  0  0
    9.0553   -0.4895    0.0305 H   0  0  0  0  0  0  0  0  0  0  0  0
    8.7163   -0.5092   -1.7096 H   0  0  0  0  0  0  0  0  0  0  0  0
    6.9981   -2.2676   -1.3831 H   0  0  0  0  0  0  0  0  0  0  0  0
    6.3462   -3.0212    0.8882 H   0  0  0  0  0  0  0  0  0  0  0  0
    8.0520   -3.3582    0.5919 H   0  0  0  0  0  0  0  0  0  0  0  0
    7.5900   -1.9865    1.6131 H   0  0  0  0  0  0  0  0  0  0  0  0
    6.4294    0.2154   -1.2064 H   0  0  0  0  0  0  0  0  0  0  0  0
    6.5454    0.0875    0.5395 H   0  0  0  0  0  0  0  0  0  0  0  0
    4.2387   -0.7359    1.8286 H   0  0  0  0  0  0  0  0  0  0  0  0
    1.5569   -1.8472    1.9486 H   0  0  0  0  0  0  0  0  0  0  0  0
    1.0737   -2.6294    0.4316 H   0  0  0  0  0  0  0  0  0  0  0  0
    0.7942   -0.0882   -0.2826 H   0  0  0  0  0  0  0  0  0  0  0  0
   -2.3687    0.6286    1.3903 H   0  0  0  0  0  0  0  0  0  0  0  0
   -1.5044    2.6516    1.2820 H   0  0  0  0  0  0  0  0  0  0  0  0
    0.0966    1.9405    1.2878 H   0  0  0  0  0  0  0  0  0  0  0  0
   -0.2386    3.5797   -0.5615 H   0  0  0  0  0  0  0  0  0  0  0  0
    0.1305    1.9798   -1.2199 H   0  0  0  0  0  0  0  0  0  0  0  0
   -4.0182    2.1001   -2.8096 H   0  0  0  0  0  0  0  0  0  0  0  0
   -3.8304    0.3568   -2.7086 H   0  0  0  0  0  0  0  0  0  0  0  0
   -4.8795    3.3145   -0.5949 H   0  0  0  0  0  0  0  0  0  0  0  0
   -6.8159    3.2788    0.9395 H   0  0  0  0  0  0  0  0  0  0  0  0
   -8.1274    1.2059    1.2496 H   0  0  0  0  0  0  0  0  0  0  0  0
   -5.5499   -0.8377   -1.5400 H   0  0  0  0  0  0  0  0  0  0  0  0
   -1.2983   -0.1627   -1.3595 H   0  0  0  0  0  0  0  0  0  0  0  0
   -2.8423   -0.5416   -0.6049 H   0  0  0  0  0  0  0  0  0  0  0  0
  1  2  1  0
  2  3  1  0
  2  4  1  0
  4  5  1  0
  5  6  1  0
  6  7  2  0
  7  8  1  0
  8  9  1  0
  9 10  1  0
 10 11  2  0
 10 12  1  0
 12 13  1  0
 13 14  1  0
 14 15  1  0
 15 16  2  0
 15 17  1  0
 17 18  1  0
 18 19  1  0
 19 20  2  0
 20 21  1  0
 21 22  2  0
 22 23  1  0
 23 24  1  0
 24 25  1  0
 24 26  1  0
 24 27  1  0
 23 28  2  0
 17 29  1  0
  7 30  1  0
 30 31  1  0
 31  5  2  0
 29 12  1  0
 28 19  1  0
  1 32  1  0
  1 33  1  0
  1 34  1  0
  2 35  1  0
  3 36  1  0
  3 37  1  0
  3 38  1  0
  4 39  1  0
  4 40  1  0
  6 41  1  0
  8 42  1  0
  8 43  1  0
  9 44  1  0
 12 45  1  0
 13 46  1  0
 13 47  1  0
 14 48  1  0
 14 49  1  0
 18 50  1  0
 18 51  1  0
 20 52  1  0
 21 53  1  0
 22 54  1  0
 28 55  1  0
 29 56  1  0
 29 57  1  0
M  END
$$$$
