
     RDKit          3D

 46 49  0  0  0  0  0  0  0  0999 V2000
   -6.3919   -1.7864   -0.0813 C   0  0  0  0  0  0  0  0  0  0  0  0
   -4.9869   -2.0028   -0.0400 O   0  0  0  0  0  0  0  0  0  0  0  0
   -4.1870   -0.9007   -0.1729 C   0  0  0  0  0  0  0  0  0  0  0  0
   -4.6214    0.4056   -0.3855 C   0  0  0  0  0  0  0  0  0  0  0  0
   -3.6905    1.4413   -0.5074 C   0  0  0  0  0  0  0  0  0  0  0  0
   -2.3201    1.1793   -0.3997 C   0  0  0  0  0  0  0  0  0  0  0  0
   -1.3904    2.1709   -0.6062 O   0  0  0  0  0  0  0  0  0  0  0  0
   -1.6351    3.3364    0.1782 C   0  0  0  0  0  0  0  0  0  0  0  0
   -1.8632   -0.1362   -0.2003 C   0  0  0  0  0  0  0  0  0  0  0  0
   -0.4963   -0.4588   -0.0722 N   0  0  0  0  0  0  0  0  0  0  0  0
    0.4361    0.1092    0.8494 C   0  0  0  0  0  0  0  0  0  0  0  0
   -0.0125    0.9880    1.7882 N   0  0  0  0  0  0  0  0  0  0  0  0
    0.9850    1.3967    2.6124 C   0  0  0  0  0  0  0  0  0  0  0  0
    0.8740    2.2606    3.6220 N   0  0  0  0  0  0  0  0  0  0  0  0
    2.1580    2.3406    4.1604 O   0  0  0  0  0  0  0  0  0  0  0  0
    3.0645    1.5267    3.4815 N   0  0  0  0  0  0  0  0  0  0  0  0
    2.3431    0.9450    2.5231 C   0  0  0  0  0  0  0  0  0  0  0  0
    2.7988    0.0610    1.5966 N   0  0  0  0  0  0  0  0  0  0  0  0
    1.8233   -0.3310    0.7358 C   0  0  0  0  0  0  0  0  0  0  0  0
    2.1629   -1.2544   -0.2893 N   0  0  0  0  0  0  0  0  0  0  0  0
    3.3359   -2.1040   -0.0191 C   0  0  0  0  0  0  0  0  0  0  0  0
    4.6642   -1.4341   -0.3743 C   0  0  0  0  0  0  0  0  0  0  0  0
    4.6436   -0.8513   -1.7826 C   0  0  0  0  0  0  0  0  0  0  0  0
    3.4410    0.0672   -1.9662 C   0  0  0  0  0  0  0  0  0  0  0  0
    2.1375   -0.6626   -1.6428 C   0  0  0  0  0  0  0  0  0  0  0  0
   -2.8152   -1.1621   -0.0869 C   0  0  0  0  0  0  0  0  0  0  0  0
   -6.7147   -1.1271    0.7313 H   0  0  0  0  0  0  0  0  0  0  0  0
   -6.7017   -1.3949   -1.0558 H   0  0  0  0  0  0  0  0  0  0  0  0
   -6.8833   -2.7539    0.0600 H   0  0  0  0  0  0  0  0  0  0  0  0
   -5.6736    0.6533   -0.4748 H   0  0  0  0  0  0  0  0  0  0  0  0
   -4.0475    2.4456   -0.7129 H   0  0  0  0  0  0  0  0  0  0  0  0
   -0.6909    3.8822    0.2682 H   0  0  0  0  0  0  0  0  0  0  0  0
   -1.9806    3.0927    1.1895 H   0  0  0  0  0  0  0  0  0  0  0  0
   -2.3530    3.9910   -0.3257 H   0  0  0  0  0  0  0  0  0  0  0  0
   -0.2867   -1.4490   -0.1647 H   0  0  0  0  0  0  0  0  0  0  0  0
    3.3448   -2.4496    1.0224 H   0  0  0  0  0  0  0  0  0  0  0  0
    3.2306   -3.0109   -0.6287 H   0  0  0  0  0  0  0  0  0  0  0  0
    5.4751   -2.1670   -0.2921 H   0  0  0  0  0  0  0  0  0  0  0  0
    4.8961   -0.6358    0.3391 H   0  0  0  0  0  0  0  0  0  0  0  0
    5.5696   -0.2966   -1.9699 H   0  0  0  0  0  0  0  0  0  0  0  0
    4.6015   -1.6649   -2.5170 H   0  0  0  0  0  0  0  0  0  0  0  0
    3.4112    0.4309   -2.9995 H   0  0  0  0  0  0  0  0  0  0  0  0
    3.5493    0.9467   -1.3197 H   0  0  0  0  0  0  0  0  0  0  0  0
    1.2987    0.0259   -1.7910 H   0  0  0  0  0  0  0  0  0  0  0  0
    1.9907   -1.4766   -2.3640 H   0  0  0  0  0  0  0  0  0  0  0  0
   -2.4931   -2.1862    0.0844 H   0  0  0  0  0  0  0  0  0  0  0  0
  1  2  1  0
  2  3  1  0
  3  4  2  0
  4  5  1  0
  5  6  2  0
  6  7  1  0
  7  8  1  0
  6  9  1  0
  9 10  1  0
 10 11  1  0
 11 12  2  0
 12 13  1  0
 13 14  2  0
 14 15  1  0
 15 16  1  0
 16 17  2  0
 17 18  1  0
 18 19  2  0
 19 20  1  0
 20 21  1  0
 21 22  1  0
 22 23  1  0
 23 24  1  0
 24 25  1  0
  9 26  2  0
 26  3  1  0
 19 11  1  0
 25 20  1  0
 17 13  1  0
  1 27  1  0
  1 28  1  0
  1 29  1  0
  4 30  1  0
  5 31  1  0
  8 32  1  0
  8 33  1  0
  8 34  1  0
 10 35  1  0
 21 36  1  0
 21 37  1  0
 22 38  1  0
 22 39  1  0
 23 40  1  0
 23 41  1  0
 24 42  1  0
 24 43  1  0
 25 44  1  0
 25 45  1  0
 26 46  1  0
M  END
$$$$
