
     RDKit          3D

 48 50  0  0  0  0  0  0  0  0999 V2000
   -3.0614   -2.7855   -1.7780 C   0  0  0  0  0  0  0  0  0  0  0  0
   -2.3346   -1.5049   -2.1469 C   0  0  0  0  0  0  0  0  0  0  0  0
   -1.7091   -0.9867   -0.9687 O   0  0  0  0  0  0  0  0  0  0  0  0
   -1.0627    0.1973   -1.1505 C   0  0  0  0  0  0  0  0  0  0  0  0
   -0.9221    0.7572   -2.2271 O   0  0  0  0  0  0  0  0  0  0  0  0
   -0.4939    0.6941    0.1562 C   0  0  0  0  0  0  0  0  0  0  0  0
    0.7497    1.5275   -0.0728 C   0  0  0  0  0  0  0  0  0  0  0  0
    2.0347    0.8318   -0.4481 C   0  0  0  0  0  0  0  0  0  0  0  0
    2.7496    0.0383    0.9669 S   0  0  0  0  0  6  0  0  0  0  0  0
    1.9353   -1.1213    1.2820 O   0  0  0  0  0  0  0  0  0  0  0  0
    3.0341    1.0295    1.9856 O   0  0  0  0  0  0  0  0  0  0  0  0
    4.3111   -0.5517    0.3603 C   0  0  0  0  0  0  0  0  0  0  0  0
    4.5000   -1.9175    0.1289 C   0  0  0  0  0  0  0  0  0  0  0  0
    5.7257   -2.3682   -0.3586 C   0  0  0  0  0  0  0  0  0  0  0  0
    6.7555   -1.4563   -0.6031 C   0  0  0  0  0  0  0  0  0  0  0  0
    6.5664   -0.0936   -0.3528 C   0  0  0  0  0  0  0  0  0  0  0  0
    5.3430    0.3640    0.1352 C   0  0  0  0  0  0  0  0  0  0  0  0
    0.7741    2.8230   -0.0298 N   0  0  0  0  0  0  0  0  0  0  0  0
   -0.3531    3.5579    0.1976 C   0  0  0  0  0  0  0  0  0  0  0  0
   -0.3744    4.7810    0.1393 O   0  0  0  0  0  0  0  0  0  0  0  0
   -1.5027    2.8937    0.4967 N   0  0  0  0  0  0  0  0  0  0  0  0
   -1.4675    1.5377    0.9697 C   0  0  0  0  0  0  0  0  0  0  0  0
   -2.8611    0.9494    1.1048 C   0  0  0  0  0  0  0  0  0  0  0  0
   -3.8858    1.2511    0.1908 C   0  0  0  0  0  0  0  0  0  0  0  0
   -5.1476    0.6655    0.3112 C   0  0  0  0  0  0  0  0  0  0  0  0
   -5.4035   -0.2289    1.3453 C   0  0  0  0  0  0  0  0  0  0  0  0
   -4.3980   -0.5428    2.2562 C   0  0  0  0  0  0  0  0  0  0  0  0
   -3.1342    0.0393    2.1364 C   0  0  0  0  0  0  0  0  0  0  0  0
   -3.5655   -3.2115   -2.6523 H   0  0  0  0  0  0  0  0  0  0  0  0
   -2.3636   -3.5284   -1.3768 H   0  0  0  0  0  0  0  0  0  0  0  0
   -3.8104   -2.5957   -1.0004 H   0  0  0  0  0  0  0  0  0  0  0  0
   -3.0556   -0.7744   -2.5322 H   0  0  0  0  0  0  0  0  0  0  0  0
   -1.5725   -1.7128   -2.9077 H   0  0  0  0  0  0  0  0  0  0  0  0
   -0.2182   -0.1878    0.7387 H   0  0  0  0  0  0  0  0  0  0  0  0
    1.8472    0.0820   -1.2201 H   0  0  0  0  0  0  0  0  0  0  0  0
    2.7533    1.5659   -0.8221 H   0  0  0  0  0  0  0  0  0  0  0  0
    3.7094   -2.6370    0.3286 H   0  0  0  0  0  0  0  0  0  0  0  0
    5.8862   -3.4295   -0.5395 H   0  0  0  0  0  0  0  0  0  0  0  0
    7.7119   -1.8098   -0.9801 H   0  0  0  0  0  0  0  0  0  0  0  0
    7.3766    0.6087   -0.5361 H   0  0  0  0  0  0  0  0  0  0  0  0
    5.2079    1.4248    0.3438 H   0  0  0  0  0  0  0  0  0  0  0  0
   -2.2337    3.5147    0.8200 H   0  0  0  0  0  0  0  0  0  0  0  0
   -1.0568    1.6240    1.9874 H   0  0  0  0  0  0  0  0  0  0  0  0
   -3.7078    1.9352   -0.6358 H   0  0  0  0  0  0  0  0  0  0  0  0
   -5.9297    0.9065   -0.4033 H   0  0  0  0  0  0  0  0  0  0  0  0
   -6.3844   -0.6835    1.4422 H   0  0  0  0  0  0  0  0  0  0  0  0
   -4.5978   -1.2431    3.0624 H   0  0  0  0  0  0  0  0  0  0  0  0
   -2.3642   -0.2293    2.8569 H   0  0  0  0  0  0  0  0  0  0  0  0
  1  2  1  0
  2  3  1  0
  3  4  1  0
  4  5  2  0
  4  6  1  0
  6  7  1  0
  7  8  1  0
  8  9  1  0
  9 10  2  0
  9 11  2  0
  9 12  1  0
 12 13  2  0
 13 14  1  0
 14 15  2  0
 15 16  1  0
 16 17  2  0
  7 18  2  0
 18 19  1  0
 19 20  2  0
 19 21  1  0
 21 22  1  0
 22 23  1  0
 23 24  2  0
 24 25  1  0
 25 26  2  0
 26 27  1  0
 27 28  2  0
 22  6  1  0
 28 23  1  0
 17 12  1  0
  1 29  1  0
  1 30  1  0
  1 31  1  0
  2 32  1  0
  2 33  1  0
  6 34  1  0
  8 35  1  0
  8 36  1  0
 13 37  1  0
 14 38  1  0
 15 39  1  0
 16 40  1  0
 17 41  1  0
 21 42  1  0
 22 43  1  0
 24 44  1  0
 25 45  1  0
 26 46  1  0
 27 47  1  0
 28 48  1  0
M  END
$$$$
