
     RDKit          3D

 47 49  0  0  0  0  0  0  0  0999 V2000
    2.4177   -0.9064   -0.7899 O   0  0  0  0  0  0  0  0  0  0  0  0
    1.9199    0.0626   -0.2294 C   0  0  0  0  0  0  0  0  0  0  0  0
    0.5071    0.0780    0.3079 C   0  0  0  0  0  0  0  0  0  0  0  0
   -0.2053   -1.2373    0.0039 C   0  0  0  0  0  0  0  0  0  0  0  0
   -1.5685   -1.2545    0.5443 N   0  0  0  0  0  0  0  0  0  0  0  0
   -2.5856   -0.6933   -0.2085 C   0  0  0  0  0  0  0  0  0  0  0  0
   -2.4567   -0.1435   -1.2938 O   0  0  0  0  0  0  0  0  0  0  0  0
   -3.8839   -0.8134    0.5050 C   0  0  0  0  0  0  0  0  0  0  0  0
   -5.0251   -0.3600   -0.0313 C   0  0  0  0  0  0  0  0  0  0  0  0
   -6.3528   -0.4117    0.5891 C   0  0  0  0  0  0  0  0  0  0  0  0
   -7.0129    0.7868    0.8927 C   0  0  0  0  0  0  0  0  0  0  0  0
   -8.2847    0.7622    1.4689 C   0  0  0  0  0  0  0  0  0  0  0  0
   -8.8946   -0.4585    1.7323 C   0  0  0  0  0  0  0  0  0  0  0  0
  -10.1147   -0.4806    2.2842 F   0  0  0  0  0  0  0  0  0  0  0  0
   -8.2590   -1.6561    1.4276 C   0  0  0  0  0  0  0  0  0  0  0  0
   -6.9874   -1.6341    0.8511 C   0  0  0  0  0  0  0  0  0  0  0  0
   -3.6486   -1.5492    2.0376 S   0  0  0  0  0  0  0  0  0  0  0  0
   -1.9154   -1.7285    1.7927 C   0  0  0  0  0  0  0  0  0  0  0  0
   -0.9186   -2.3748    2.9634 S   0  0  0  0  0  0  0  0  0  0  0  0
    2.5959    1.2437   -0.0062 N   0  0  0  0  0  0  0  0  0  0  0  0
    3.9473    1.4540   -0.4888 C   0  0  0  0  0  0  0  0  0  0  0  0
    4.9772    0.7093    0.3598 C   0  0  0  0  0  0  0  0  0  0  0  0
    6.4169    1.0799    0.0072 C   0  0  0  0  0  0  0  0  0  0  0  0
    6.7860    0.7965   -1.3626 N   0  0  0  0  0  0  0  0  0  0  0  0
    6.8921   -0.4387   -1.9356 C   0  0  0  0  0  0  0  0  0  0  0  0
    7.2719   -0.1941   -3.2347 C   0  0  0  0  0  0  0  0  0  0  0  0
    7.4115    1.1521   -3.4555 N   0  0  0  0  0  0  0  0  0  0  0  0
    7.1189    1.7227   -2.3091 C   0  0  0  0  0  0  0  0  0  0  0  0
   -0.0326    0.9168   -0.1467 H   0  0  0  0  0  0  0  0  0  0  0  0
    0.5484    0.2515    1.3891 H   0  0  0  0  0  0  0  0  0  0  0  0
    0.3604   -2.0850    0.4046 H   0  0  0  0  0  0  0  0  0  0  0  0
   -0.2609   -1.3842   -1.0822 H   0  0  0  0  0  0  0  0  0  0  0  0
   -5.0052    0.1160   -1.0112 H   0  0  0  0  0  0  0  0  0  0  0  0
   -6.5418    1.7457    0.6881 H   0  0  0  0  0  0  0  0  0  0  0  0
   -8.8021    1.6847    1.7122 H   0  0  0  0  0  0  0  0  0  0  0  0
   -8.7565   -2.5975    1.6381 H   0  0  0  0  0  0  0  0  0  0  0  0
   -6.5007   -2.5758    0.6078 H   0  0  0  0  0  0  0  0  0  0  0  0
    2.1003    2.0276    0.4000 H   0  0  0  0  0  0  0  0  0  0  0  0
    3.9920    1.1285   -1.5338 H   0  0  0  0  0  0  0  0  0  0  0  0
    4.1310    2.5332   -0.4566 H   0  0  0  0  0  0  0  0  0  0  0  0
    4.8341   -0.3729    0.2546 H   0  0  0  0  0  0  0  0  0  0  0  0
    4.8097    0.9387    1.4198 H   0  0  0  0  0  0  0  0  0  0  0  0
    6.5898    2.1466    0.1914 H   0  0  0  0  0  0  0  0  0  0  0  0
    7.1139    0.5223    0.6438 H   0  0  0  0  0  0  0  0  0  0  0  0
    6.6867   -1.3562   -1.4017 H   0  0  0  0  0  0  0  0  0  0  0  0
    7.4525   -0.9152   -4.0213 H   0  0  0  0  0  0  0  0  0  0  0  0
    7.1324    2.7879   -2.1183 H   0  0  0  0  0  0  0  0  0  0  0  0
  1  2  2  0
  2  3  1  0
  3  4  1  0
  4  5  1  0
  5  6  1  0
  6  7  2  0
  6  8  1  0
  8  9  2  3
  9 10  1  0
 10 11  2  0
 11 12  1  0
 12 13  2  0
 13 14  1  0
 13 15  1  0
 15 16  2  0
  8 17  1  0
 17 18  1  0
 18 19  2  0
  2 20  1  0
 20 21  1  0
 21 22  1  0
 22 23  1  0
 23 24  1  0
 24 25  1  0
 25 26  2  0
 26 27  1  0
 27 28  2  0
 18  5  1  0
 28 24  1  0
 16 10  1  0
  3 29  1  0
  3 30  1  0
  4 31  1  0
  4 32  1  0
  9 33  1  0
 11 34  1  0
 12 35  1  0
 15 36  1  0
 16 37  1  0
 20 38  1  0
 21 39  1  0
 21 40  1  0
 22 41  1  0
 22 42  1  0
 23 43  1  0
 23 44  1  0
 25 45  1  0
 26 46  1  0
 28 47  1  0
M  END
$$$$
