
     RDKit          3D

 44 46  0  0  0  0  0  0  0  0999 V2000
    2.9518    0.7282   -2.2263 C   0  0  0  0  0  0  0  0  0  0  0  0
    3.5169    0.3231   -0.8533 C   0  0  0  0  0  0  0  0  0  0  0  0
    4.8949    0.9683   -0.6660 C   0  0  0  0  0  0  0  0  0  0  0  0
    3.6432   -1.2060   -0.8229 C   0  0  0  0  0  0  0  0  0  0  0  0
    2.5754    0.8463    0.2570 C   0  0  0  0  0  0  0  0  0  0  0  0
    1.7761    1.7583    0.0147 O   0  0  0  0  0  0  0  0  0  0  0  0
    2.7519    0.2735    1.6641 C   0  0  0  0  0  0  0  0  0  0  0  0
    1.3895    0.7173    2.7893 S   0  0  0  0  0  0  0  0  0  0  0  0
    0.0042    0.1097    1.8243 C   0  0  0  0  0  0  0  0  0  0  0  0
    0.2425   -1.0618    1.1703 N   0  0  0  0  0  0  0  0  0  0  0  0
   -0.7600   -1.5261    0.4136 C   0  0  0  0  0  0  0  0  0  0  0  0
   -1.9936   -0.9096    0.2695 C   0  0  0  0  0  0  0  0  0  0  0  0
   -2.2508    0.2687    0.9597 C   0  0  0  0  0  0  0  0  0  0  0  0
   -3.5487    0.9330    0.8270 C   0  0  0  0  0  0  0  0  0  0  0  0
   -3.8712    2.0616    0.0993 C   0  0  0  0  0  0  0  0  0  0  0  0
   -5.2456    2.4138    0.2302 C   0  0  0  0  0  0  0  0  0  0  0  0
   -5.9241    1.5450    1.0558 C   0  0  0  0  0  0  0  0  0  0  0  0
   -4.9070    0.3156    1.6701 S   0  0  0  0  0  0  0  0  0  0  0  0
   -1.2191    0.7983    1.7604 C   0  0  0  0  0  0  0  0  0  0  0  0
   -1.4193    2.0135    2.4953 C   0  0  0  0  0  0  0  0  0  0  0  0
   -1.6088    2.9936    3.0900 N   0  0  0  0  0  0  0  0  0  0  0  0
   -2.8814   -1.7110   -0.6314 C   0  0  0  0  0  0  0  0  0  0  0  0
   -1.8588   -2.6080   -1.3447 C   0  0  0  0  0  0  0  0  0  0  0  0
   -0.7011   -2.8120   -0.3612 C   0  0  0  0  0  0  0  0  0  0  0  0
    1.9545    0.3008   -2.3815 H   0  0  0  0  0  0  0  0  0  0  0  0
    3.5978    0.3812   -3.0405 H   0  0  0  0  0  0  0  0  0  0  0  0
    2.8589    1.8174   -2.3201 H   0  0  0  0  0  0  0  0  0  0  0  0
    5.3542    0.6669    0.2808 H   0  0  0  0  0  0  0  0  0  0  0  0
    4.8202    2.0617   -0.6565 H   0  0  0  0  0  0  0  0  0  0  0  0
    5.5810    0.6839   -1.4717 H   0  0  0  0  0  0  0  0  0  0  0  0
    4.1871   -1.5772   -1.6987 H   0  0  0  0  0  0  0  0  0  0  0  0
    2.6573   -1.6822   -0.8108 H   0  0  0  0  0  0  0  0  0  0  0  0
    4.1910   -1.5526    0.0594 H   0  0  0  0  0  0  0  0  0  0  0  0
    2.8205   -0.8145    1.6358 H   0  0  0  0  0  0  0  0  0  0  0  0
    3.6808    0.6700    2.0823 H   0  0  0  0  0  0  0  0  0  0  0  0
   -3.1548    2.6164   -0.4962 H   0  0  0  0  0  0  0  0  0  0  0  0
   -5.7103    3.2661   -0.2506 H   0  0  0  0  0  0  0  0  0  0  0  0
   -6.9679    1.5763    1.3351 H   0  0  0  0  0  0  0  0  0  0  0  0
   -3.5803   -2.3097   -0.0385 H   0  0  0  0  0  0  0  0  0  0  0  0
   -3.4291   -1.0935   -1.3491 H   0  0  0  0  0  0  0  0  0  0  0  0
   -2.2958   -3.5536   -1.6793 H   0  0  0  0  0  0  0  0  0  0  0  0
   -1.4862   -2.0888   -2.2385 H   0  0  0  0  0  0  0  0  0  0  0  0
   -0.8905   -3.6572    0.3074 H   0  0  0  0  0  0  0  0  0  0  0  0
    0.2548   -2.9446   -0.8738 H   0  0  0  0  0  0  0  0  0  0  0  0
  1  2  1  0
  2  3  1  0
  2  4  1  0
  2  5  1  0
  5  6  2  0
  5  7  1  0
  7  8  1  0
  8  9  1  0
  9 10  2  0
 10 11  1  0
 11 12  2  0
 12 13  1  0
 13 14  1  0
 14 15  2  0
 15 16  1  0
 16 17  2  0
 17 18  1  0
 13 19  2  0
 19 20  1  0
 20 21  3  0
 12 22  1  0
 22 23  1  0
 23 24  1  0
 19  9  1  0
 24 11  1  0
 18 14  1  0
  1 25  1  0
  1 26  1  0
  1 27  1  0
  3 28  1  0
  3 29  1  0
  3 30  1  0
  4 31  1  0
  4 32  1  0
  4 33  1  0
  7 34  1  0
  7 35  1  0
 15 36  1  0
 16 37  1  0
 17 38  1  0
 22 39  1  0
 22 40  1  0
 23 41  1  0
 23 42  1  0
 24 43  1  0
 24 44  1  0
M  END
$$$$
