
     RDKit          3D

 62 64  0  0  0  0  0  0  0  0999 V2000
   -5.0219    2.6121   -1.1215 C   0  0  0  0  0  0  0  0  0  0  0  0
   -3.9760    1.5381   -0.9728 C   0  0  0  0  0  0  0  0  0  0  0  0
   -2.7069    1.8687   -1.5026 C   0  0  0  0  0  0  0  0  0  0  0  0
   -1.6331    0.9912   -1.4354 C   0  0  0  0  0  0  0  0  0  0  0  0
   -0.4370    1.4313   -2.0206 O   0  0  0  0  0  0  0  0  0  0  0  0
    0.6855    0.6267   -2.0416 C   0  0  0  0  0  0  0  0  0  0  0  0
    1.7313    1.0182   -2.5560 O   0  0  0  0  0  0  0  0  0  0  0  0
    0.5904   -0.7182   -1.4050 C   0  0  0  0  0  0  0  0  0  0  0  0
    1.8691   -1.5135   -1.5281 C   0  0  0  0  0  0  0  0  0  0  0  0
    2.8373   -1.1182   -0.4247 C   0  0  0  0  0  0  0  0  0  0  0  0
    2.9133   -1.7423    0.6302 O   0  0  0  0  0  0  0  0  0  0  0  0
    3.5952   -0.0050   -0.7095 N   0  0  0  0  0  0  0  0  0  0  0  0
    4.5798    0.5230    0.2107 C   0  0  0  0  0  0  0  0  0  0  0  0
    5.9602   -0.0789   -0.0455 C   0  0  0  0  0  0  0  0  0  0  0  0
    6.9973    0.5163    0.9144 C   0  0  0  0  0  0  0  0  0  0  0  0
    8.3353   -0.0840    0.7692 N   0  0  0  0  0  0  0  0  0  0  0  0
    8.9635    0.2637   -0.5070 C   0  0  0  0  0  0  0  0  0  0  0  0
    9.1977    0.3404    1.8756 C   0  0  0  0  0  0  0  0  0  0  0  0
   -0.5430   -1.1417   -0.7999 C   0  0  0  0  0  0  0  0  0  0  0  0
   -0.6477   -2.4579   -0.0735 C   0  0  0  0  0  0  0  0  0  0  0  0
   -1.7201   -0.2535   -0.8354 C   0  0  0  0  0  0  0  0  0  0  0  0
   -2.9851   -0.5655   -0.3037 C   0  0  0  0  0  0  0  0  0  0  0  0
   -3.2894   -1.7364    0.3112 O   0  0  0  0  0  0  0  0  0  0  0  0
   -4.5691   -1.6815    0.7048 C   0  0  0  0  0  0  0  0  0  0  0  0
   -5.1684   -0.4793    0.3688 C   0  0  0  0  0  0  0  0  0  0  0  0
   -6.6275   -0.1461    0.7041 C   0  0  0  0  0  0  0  0  0  0  0  0
   -7.2570   -1.2147    1.6462 C   0  0  0  0  0  0  0  0  0  0  0  0
   -6.7526    1.1834    1.4700 C   0  0  0  0  0  0  0  0  0  0  0  0
   -7.4927   -0.1501   -0.5707 C   0  0  0  0  0  0  0  0  0  0  0  0
   -4.1205    0.2699   -0.3283 C   0  0  0  0  0  0  0  0  0  0  0  0
   -4.8465    3.2070   -2.0254 H   0  0  0  0  0  0  0  0  0  0  0  0
   -4.9856    3.2869   -0.2608 H   0  0  0  0  0  0  0  0  0  0  0  0
   -6.0216    2.2021   -1.2280 H   0  0  0  0  0  0  0  0  0  0  0  0
   -2.5561    2.8345   -1.9851 H   0  0  0  0  0  0  0  0  0  0  0  0
    2.3432   -1.3649   -2.5063 H   0  0  0  0  0  0  0  0  0  0  0  0
    1.7036   -2.5939   -1.4741 H   0  0  0  0  0  0  0  0  0  0  0  0
    3.3858    0.5206   -1.5583 H   0  0  0  0  0  0  0  0  0  0  0  0
    4.2574    0.3236    1.2388 H   0  0  0  0  0  0  0  0  0  0  0  0
    4.6022    1.6084    0.0662 H   0  0  0  0  0  0  0  0  0  0  0  0
    6.2377    0.1131   -1.0886 H   0  0  0  0  0  0  0  0  0  0  0  0
    5.9186   -1.1689    0.0773 H   0  0  0  0  0  0  0  0  0  0  0  0
    7.0463    1.6059    0.7849 H   0  0  0  0  0  0  0  0  0  0  0  0
    6.6385    0.3346    1.9365 H   0  0  0  0  0  0  0  0  0  0  0  0
    9.9719   -0.1628   -0.5687 H   0  0  0  0  0  0  0  0  0  0  0  0
    8.4095   -0.1579   -1.3509 H   0  0  0  0  0  0  0  0  0  0  0  0
    9.0426    1.3480   -0.6473 H   0  0  0  0  0  0  0  0  0  0  0  0
    9.3438    1.4266    1.8926 H   0  0  0  0  0  0  0  0  0  0  0  0
    8.7719    0.0338    2.8371 H   0  0  0  0  0  0  0  0  0  0  0  0
   10.1804   -0.1399    1.8048 H   0  0  0  0  0  0  0  0  0  0  0  0
   -1.3461   -3.1278   -0.5854 H   0  0  0  0  0  0  0  0  0  0  0  0
   -0.9766   -2.3046    0.9599 H   0  0  0  0  0  0  0  0  0  0  0  0
    0.3019   -2.9911    0.0052 H   0  0  0  0  0  0  0  0  0  0  0  0
   -4.9175   -2.5685    1.2162 H   0  0  0  0  0  0  0  0  0  0  0  0
   -8.2945   -0.9618    1.8956 H   0  0  0  0  0  0  0  0  0  0  0  0
   -6.7035   -1.2944    2.5890 H   0  0  0  0  0  0  0  0  0  0  0  0
   -7.2749   -2.2070    1.1811 H   0  0  0  0  0  0  0  0  0  0  0  0
   -7.7816    1.3482    1.8116 H   0  0  0  0  0  0  0  0  0  0  0  0
   -6.1049    1.1909    2.3548 H   0  0  0  0  0  0  0  0  0  0  0  0
   -6.4896    2.0507    0.8704 H   0  0  0  0  0  0  0  0  0  0  0  0
   -7.1153    0.5166   -1.3462 H   0  0  0  0  0  0  0  0  0  0  0  0
   -7.5242   -1.1516   -1.0175 H   0  0  0  0  0  0  0  0  0  0  0  0
   -8.5246    0.1471   -0.3508 H   0  0  0  0  0  0  0  0  0  0  0  0
  1  2  1  0
  2  3  2  0
  3  4  1  0
  4  5  1  0
  5  6  1  0
  6  7  2  0
  6  8  1  0
  8  9  1  0
  9 10  1  0
 10 11  2  0
 10 12  1  0
 12 13  1  0
 13 14  1  0
 14 15  1  0
 15 16  1  0
 16 17  1  0
 16 18  1  0
  8 19  2  0
 19 20  1  0
 19 21  1  0
 21 22  1  0
 22 23  1  0
 23 24  1  0
 24 25  2  0
 25 26  1  0
 26 27  1  0
 26 28  1  0
 26 29  1  0
 25 30  1  0
 30  2  1  0
 21  4  2  0
 30 22  2  0
  1 31  1  0
  1 32  1  0
  1 33  1  0
  3 34  1  0
  9 35  1  0
  9 36  1  0
 12 37  1  0
 13 38  1  0
 13 39  1  0
 14 40  1  0
 14 41  1  0
 15 42  1  0
 15 43  1  0
 17 44  1  0
 17 45  1  0
 17 46  1  0
 18 47  1  0
 18 48  1  0
 18 49  1  0
 20 50  1  0
 20 51  1  0
 20 52  1  0
 24 53  1  0
 27 54  1  0
 27 55  1  0
 27 56  1  0
 28 57  1  0
 28 58  1  0
 28 59  1  0
 29 60  1  0
 29 61  1  0
 29 62  1  0
M  END
$$$$
