
     RDKit          3D

 49 52  0  0  0  0  0  0  0  0999 V2000
   -0.8030    1.1286    4.9489 C   0  0  0  0  0  0  0  0  0  0  0  0
   -0.6420    0.5319    3.5600 C   0  0  0  0  0  0  0  0  0  0  0  0
   -0.6255    1.6170    2.4848 C   0  0  0  0  0  0  0  0  0  0  0  0
   -0.4665    1.0168    1.1151 C   0  0  0  0  0  0  0  0  0  0  0  0
    0.7858    0.8436    0.6519 N   0  0  0  0  0  0  0  0  0  0  0  0
    0.9625    0.2572   -0.5508 C   0  0  0  0  0  0  0  0  0  0  0  0
    2.2719    0.0783   -1.0081 N   0  0  0  0  0  0  0  0  0  0  0  0
    2.6660   -1.3027   -1.3652 C   0  0  0  0  0  0  0  0  0  0  0  0
    3.9794   -1.7392   -0.6707 C   0  0  0  0  0  0  0  0  0  0  0  0
    5.1275   -0.8230   -0.8269 N   0  0  0  0  0  0  0  0  0  0  0  0
    5.9592   -1.1822   -1.9724 C   0  0  0  0  0  0  0  0  0  0  0  0
    4.6842    0.5871   -0.9272 C   0  0  0  0  0  0  0  0  0  0  0  0
    3.3033    0.8510   -0.2877 C   0  0  0  0  0  0  0  0  0  0  0  0
   -0.1445   -0.1110   -1.2984 C   0  0  0  0  0  0  0  0  0  0  0  0
   -0.2685   -0.8400   -2.8996 S   0  0  0  0  0  0  0  0  0  0  0  0
   -2.0428   -0.8298   -2.8328 C   0  0  0  0  0  0  0  0  0  0  0  0
   -2.9360   -1.3294   -4.1563 S   0  0  0  0  0  0  0  0  0  0  0  0
   -2.4618   -0.2947   -1.6096 N   0  0  0  0  0  0  0  0  0  0  0  0
   -3.8089   -0.1654   -1.1596 C   0  0  0  0  0  0  0  0  0  0  0  0
   -4.2627    1.0133   -0.5463 C   0  0  0  0  0  0  0  0  0  0  0  0
   -5.5866    1.1402   -0.1144 C   0  0  0  0  0  0  0  0  0  0  0  0
   -6.4801    0.0878   -0.2864 C   0  0  0  0  0  0  0  0  0  0  0  0
   -6.0493   -1.0908   -0.8874 C   0  0  0  0  0  0  0  0  0  0  0  0
   -4.7248   -1.2157   -1.3198 C   0  0  0  0  0  0  0  0  0  0  0  0
   -1.3950    0.1278   -0.7589 C   0  0  0  0  0  0  0  0  0  0  0  0
   -1.5786    0.6633    0.4576 N   0  0  0  0  0  0  0  0  0  0  0  0
   -0.8123    0.3358    5.7034 H   0  0  0  0  0  0  0  0  0  0  0  0
   -1.7418    1.6858    5.0300 H   0  0  0  0  0  0  0  0  0  0  0  0
    0.0223    1.8092    5.1815 H   0  0  0  0  0  0  0  0  0  0  0  0
    0.2876   -0.0493    3.5234 H   0  0  0  0  0  0  0  0  0  0  0  0
   -1.4625   -0.1717    3.3733 H   0  0  0  0  0  0  0  0  0  0  0  0
   -1.5555    2.1973    2.5171 H   0  0  0  0  0  0  0  0  0  0  0  0
    0.1963    2.3197    2.6674 H   0  0  0  0  0  0  0  0  0  0  0  0
    1.8938   -2.0327   -1.0927 H   0  0  0  0  0  0  0  0  0  0  0  0
    2.8048   -1.3511   -2.4516 H   0  0  0  0  0  0  0  0  0  0  0  0
    4.2425   -2.7560   -0.9881 H   0  0  0  0  0  0  0  0  0  0  0  0
    3.7791   -1.8185    0.4064 H   0  0  0  0  0  0  0  0  0  0  0  0
    6.3693   -2.1904   -1.8475 H   0  0  0  0  0  0  0  0  0  0  0  0
    6.8158   -0.5035   -2.0531 H   0  0  0  0  0  0  0  0  0  0  0  0
    5.4026   -1.1518   -2.9158 H   0  0  0  0  0  0  0  0  0  0  0  0
    5.4354    1.2212   -0.4430 H   0  0  0  0  0  0  0  0  0  0  0  0
    4.6265    0.8995   -1.9792 H   0  0  0  0  0  0  0  0  0  0  0  0
    3.3356    0.5836    0.7769 H   0  0  0  0  0  0  0  0  0  0  0  0
    3.0841    1.9233   -0.3639 H   0  0  0  0  0  0  0  0  0  0  0  0
   -3.5996    1.8656   -0.4194 H   0  0  0  0  0  0  0  0  0  0  0  0
   -5.9172    2.0648    0.3517 H   0  0  0  0  0  0  0  0  0  0  0  0
   -7.5094    0.1852    0.0488 H   0  0  0  0  0  0  0  0  0  0  0  0
   -6.7409   -1.9195   -1.0169 H   0  0  0  0  0  0  0  0  0  0  0  0
   -4.4196   -2.1665   -1.7483 H   0  0  0  0  0  0  0  0  0  0  0  0
  1  2  1  0
  2  3  1  0
  3  4  1  0
  4  5  2  0
  5  6  1  0
  6  7  1  0
  7  8  1  0
  8  9  1  0
  9 10  1  0
 10 11  1  0
 10 12  1  0
 12 13  1  0
  6 14  2  0
 14 15  1  0
 15 16  1  0
 16 17  2  0
 16 18  1  0
 18 19  1  0
 19 20  2  0
 20 21  1  0
 21 22  2  0
 22 23  1  0
 23 24  2  0
 18 25  1  0
 25 26  2  0
 26  4  1  0
 13  7  1  0
 25 14  1  0
 24 19  1  0
  1 27  1  0
  1 28  1  0
  1 29  1  0
  2 30  1  0
  2 31  1  0
  3 32  1  0
  3 33  1  0
  8 34  1  0
  8 35  1  0
  9 36  1  0
  9 37  1  0
 11 38  1  0
 11 39  1  0
 11 40  1  0
 12 41  1  0
 12 42  1  0
 13 43  1  0
 13 44  1  0
 20 45  1  0
 21 46  1  0
 22 47  1  0
 23 48  1  0
 24 49  1  0
M  END
$$$$
