
     RDKit          3D

 36 37  0  0  0  0  0  0  0  0999 V2000
    5.2435   -3.3957   -0.3034 C   0  0  0  0  0  0  0  0  0  0  0  0
    5.3122   -1.9858   -0.1294 O   0  0  0  0  0  0  0  0  0  0  0  0
    4.1823   -1.2701   -0.4140 C   0  0  0  0  0  0  0  0  0  0  0  0
    2.9583   -1.7995   -0.8296 C   0  0  0  0  0  0  0  0  0  0  0  0
    1.8762   -0.9510   -1.0874 C   0  0  0  0  0  0  0  0  0  0  0  0
    2.0202    0.4283   -0.9174 C   0  0  0  0  0  0  0  0  0  0  0  0
    0.6556    1.5127   -1.2684 S   0  0  0  0  0  6  0  0  0  0  0  0
   -0.3035    0.7752   -2.0644 O   0  0  0  0  0  0  0  0  0  0  0  0
    1.2012    2.7830   -1.6977 O   0  0  0  0  0  0  0  0  0  0  0  0
    0.0241    1.7456    0.3261 N   0  0  0  0  0  0  0  0  0  0  0  0
   -1.4671    1.9233    0.4143 N   0  0  0  0  0  0  0  0  0  0  0  0
   -2.1430    0.8824    0.8066 C   0  0  0  0  0  0  0  0  0  0  0  0
   -1.4993   -0.4301    1.1979 C   0  0  0  0  0  0  0  0  0  0  0  0
   -3.6262    0.9945    0.8853 C   0  0  0  0  0  0  0  0  0  0  0  0
   -4.2897    1.8042   -0.0369 C   0  0  0  0  0  0  0  0  0  0  0  0
   -5.6655    1.9012    0.0562 C   0  0  0  0  0  0  0  0  0  0  0  0
   -6.3989    1.2620    0.9929 N   0  0  0  0  0  0  0  0  0  0  0  0
   -5.7286    0.4965    1.8798 C   0  0  0  0  0  0  0  0  0  0  0  0
   -4.3545    0.3312    1.8711 C   0  0  0  0  0  0  0  0  0  0  0  0
    3.2441    0.9694   -0.5191 C   0  0  0  0  0  0  0  0  0  0  0  0
    4.3177    0.1144   -0.2631 C   0  0  0  0  0  0  0  0  0  0  0  0
    4.5074   -3.8409    0.3740 H   0  0  0  0  0  0  0  0  0  0  0  0
    5.0307   -3.6552   -1.3458 H   0  0  0  0  0  0  0  0  0  0  0  0
    6.2234   -3.8119   -0.0501 H   0  0  0  0  0  0  0  0  0  0  0  0
    2.8138   -2.8662   -0.9675 H   0  0  0  0  0  0  0  0  0  0  0  0
    0.9309   -1.3736   -1.4218 H   0  0  0  0  0  0  0  0  0  0  0  0
    0.4939    2.5896    0.6753 H   0  0  0  0  0  0  0  0  0  0  0  0
   -0.9428   -0.2964    2.1299 H   0  0  0  0  0  0  0  0  0  0  0  0
   -0.8151   -0.7590    0.4127 H   0  0  0  0  0  0  0  0  0  0  0  0
   -2.2338   -1.2272    1.3324 H   0  0  0  0  0  0  0  0  0  0  0  0
   -3.7535    2.3396   -0.8138 H   0  0  0  0  0  0  0  0  0  0  0  0
   -6.2322    2.5131   -0.6401 H   0  0  0  0  0  0  0  0  0  0  0  0
   -6.3479    0.0066    2.6264 H   0  0  0  0  0  0  0  0  0  0  0  0
   -3.8831   -0.2823    2.6290 H   0  0  0  0  0  0  0  0  0  0  0  0
    3.3754    2.0435   -0.4122 H   0  0  0  0  0  0  0  0  0  0  0  0
    5.2739    0.5286    0.0498 H   0  0  0  0  0  0  0  0  0  0  0  0
  1  2  1  0
  2  3  1  0
  3  4  2  0
  4  5  1  0
  5  6  2  0
  6  7  1  0
  7  8  2  0
  7  9  2  0
  7 10  1  0
 10 11  1  0
 11 12  2  3
 12 13  1  0
 12 14  1  0
 14 15  2  0
 15 16  1  0
 16 17  2  0
 17 18  1  0
 18 19  2  0
  6 20  1  0
 20 21  2  0
 21  3  1  0
 19 14  1  0
  1 22  1  0
  1 23  1  0
  1 24  1  0
  4 25  1  0
  5 26  1  0
 10 27  1  0
 13 28  1  0
 13 29  1  0
 13 30  1  0
 15 31  1  0
 16 32  1  0
 18 33  1  0
 19 34  1  0
 20 35  1  0
 21 36  1  0
M  END
$$$$
