
     RDKit          3D

 43 46  0  0  0  0  0  0  0  0999 V2000
    4.2921   -1.2488   -0.1854 O   0  0  0  0  0  0  0  0  0  0  0  0
    3.1837   -0.8255    0.0542 C   0  0  0  0  0  0  0  0  0  0  0  0
    2.7298    0.4006    0.7796 C   0  0  0  0  0  0  0  0  0  0  0  0
    3.4437    1.4017    1.3076 C   0  0  0  0  0  0  0  0  0  0  0  0
    4.8506    1.5417    1.2041 C   0  0  0  0  0  0  0  0  0  0  0  0
    5.7306    2.1041    2.1233 C   0  0  0  0  0  0  0  0  0  0  0  0
    7.0327    2.0507    1.5712 C   0  0  0  0  0  0  0  0  0  0  0  0
    6.8880    1.4788    0.3341 C   0  0  0  0  0  0  0  0  0  0  0  0
    5.5867    1.1905    0.0979 O   0  0  0  0  0  0  0  0  0  0  0  0
    1.3304    0.3954    0.8877 O   0  0  0  0  0  0  0  0  0  0  0  0
    0.8888   -0.7307    0.2302 C   0  0  0  0  0  0  0  0  0  0  0  0
    1.9338   -1.4946   -0.2841 C   0  0  0  0  0  0  0  0  0  0  0  0
    1.7283   -2.6801   -0.9606 C   0  0  0  0  0  0  0  0  0  0  0  0
    0.4069   -3.0954   -1.1196 C   0  0  0  0  0  0  0  0  0  0  0  0
   -0.6499   -2.3208   -0.6077 C   0  0  0  0  0  0  0  0  0  0  0  0
   -1.9134   -2.8043   -0.8214 O   0  0  0  0  0  0  0  0  0  0  0  0
   -0.4368   -1.1099    0.0775 C   0  0  0  0  0  0  0  0  0  0  0  0
   -1.5474   -0.3024    0.7051 C   0  0  0  0  0  0  0  0  0  0  0  0
   -2.8039   -0.3204   -0.0816 N   0  0  0  0  0  0  0  0  0  0  0  0
   -2.6843    0.5493   -1.2721 C   0  0  0  0  0  0  0  0  0  0  0  0
   -3.9624    0.5056   -2.1109 C   0  0  0  0  0  0  0  0  0  0  0  0
   -5.1807    0.9011   -1.2854 C   0  0  0  0  0  0  0  0  0  0  0  0
   -5.2482    0.0768   -0.0057 C   0  0  0  0  0  0  0  0  0  0  0  0
   -3.9268    0.1303    0.7623 C   0  0  0  0  0  0  0  0  0  0  0  0
    2.9155    2.1772    1.8542 H   0  0  0  0  0  0  0  0  0  0  0  0
    5.4567    2.4970    3.0927 H   0  0  0  0  0  0  0  0  0  0  0  0
    7.9576    2.3856    2.0180 H   0  0  0  0  0  0  0  0  0  0  0  0
    7.5729    1.2223   -0.4618 H   0  0  0  0  0  0  0  0  0  0  0  0
    2.5597   -3.2614   -1.3442 H   0  0  0  0  0  0  0  0  0  0  0  0
    0.1857   -4.0230   -1.6426 H   0  0  0  0  0  0  0  0  0  0  0  0
   -2.5358   -2.0758   -0.5976 H   0  0  0  0  0  0  0  0  0  0  0  0
   -1.7242   -0.7558    1.6896 H   0  0  0  0  0  0  0  0  0  0  0  0
   -1.2310    0.7333    0.8833 H   0  0  0  0  0  0  0  0  0  0  0  0
   -2.4713    1.5858   -0.9787 H   0  0  0  0  0  0  0  0  0  0  0  0
   -1.8557    0.2154   -1.9072 H   0  0  0  0  0  0  0  0  0  0  0  0
   -4.1040   -0.5062   -2.5119 H   0  0  0  0  0  0  0  0  0  0  0  0
   -3.8644    1.1789   -2.9699 H   0  0  0  0  0  0  0  0  0  0  0  0
   -6.0950    0.7614   -1.8724 H   0  0  0  0  0  0  0  0  0  0  0  0
   -5.1200    1.9665   -1.0314 H   0  0  0  0  0  0  0  0  0  0  0  0
   -6.0608    0.4468    0.6296 H   0  0  0  0  0  0  0  0  0  0  0  0
   -5.4860   -0.9654   -0.2544 H   0  0  0  0  0  0  0  0  0  0  0  0
   -4.0188   -0.5253    1.6367 H   0  0  0  0  0  0  0  0  0  0  0  0
   -3.7532    1.1490    1.1335 H   0  0  0  0  0  0  0  0  0  0  0  0
  1  2  2  0
  2  3  1  0
  3  4  2  3
  4  5  1  0
  5  6  2  0
  6  7  1  0
  7  8  2  0
  8  9  1  0
  3 10  1  0
 10 11  1  0
 11 12  2  0
 12 13  1  0
 13 14  2  0
 14 15  1  0
 15 16  1  0
 15 17  2  0
 17 18  1  0
 18 19  1  0
 19 20  1  0
 20 21  1  0
 21 22  1  0
 22 23  1  0
 23 24  1  0
 12  2  1  0
 24 19  1  0
  9  5  1  0
 17 11  1  0
  4 25  1  0
  6 26  1  0
  7 27  1  0
  8 28  1  0
 13 29  1  0
 14 30  1  0
 16 31  1  0
 18 32  1  0
 18 33  1  0
 20 34  1  0
 20 35  1  0
 21 36  1  0
 21 37  1  0
 22 38  1  0
 22 39  1  0
 23 40  1  0
 23 41  1  0
 24 42  1  0
 24 43  1  0
M  END
$$$$
