
     RDKit          3D

 70 72  0  0  0  0  0  0  0  0999 V2000
   10.0831   -1.5814   -0.5787 C   0  0  0  0  0  0  0  0  0  0  0  0
    8.9586   -1.3875   -1.5822 C   0  0  0  0  0  0  0  0  0  0  0  0
    7.6296   -1.0870   -0.8877 C   0  0  0  0  0  0  0  0  0  0  0  0
    6.5111   -0.8700   -1.9101 C   0  0  0  0  0  0  0  0  0  0  0  0
    5.1305   -0.6718   -1.2754 C   0  0  0  0  0  0  0  0  0  0  0  0
    5.0376    0.5887   -0.4144 C   0  0  0  0  0  0  0  0  0  0  0  0
    3.6081    0.9299    0.0142 C   0  0  0  0  0  0  0  0  0  0  0  0
    2.9641   -0.1420    0.8977 C   0  0  0  0  0  0  0  0  0  0  0  0
    1.6672    0.3345    1.5687 C   0  0  0  0  0  0  0  0  0  0  0  0
    0.5361    0.5735    0.5633 C   0  0  0  0  0  0  0  0  0  0  0  0
   -0.7768    1.1129    1.1988 N   0  0  0  0  0  4  0  0  0  0  0  0
   -1.2684    0.1667    2.2960 C   0  0  0  0  0  0  0  0  0  0  0  0
   -0.5481    2.5064    1.7697 C   0  0  0  0  0  0  0  0  0  0  0  0
   -1.8240    1.1512    0.0466 C   0  0  0  0  0  0  0  0  0  0  0  0
   -3.1177    1.9098    0.3852 C   0  0  0  0  0  0  0  0  0  0  0  0
   -4.2330    1.4987   -0.5397 C   0  0  0  0  0  0  0  0  0  0  0  0
   -5.2024    0.5790   -0.3304 C   0  0  0  0  0  0  0  0  0  0  0  0
   -5.2989   -0.2131    0.9213 C   0  0  0  0  0  0  0  0  0  0  0  0
   -5.4184    0.3899    2.1821 C   0  0  0  0  0  0  0  0  0  0  0  0
   -5.5106   -0.3903    3.3371 C   0  0  0  0  0  0  0  0  0  0  0  0
   -5.5181   -1.7816    3.2390 C   0  0  0  0  0  0  0  0  0  0  0  0
   -5.4532   -2.3934    1.9876 C   0  0  0  0  0  0  0  0  0  0  0  0
   -5.3705   -1.6176    0.8257 C   0  0  0  0  0  0  0  0  0  0  0  0
   -5.4020   -2.4538   -0.7597 S   0  0  0  0  0  0  0  0  0  0  0  0
   -6.1876   -1.1953   -1.7756 C   0  0  0  0  0  0  0  0  0  0  0  0
   -6.9559   -1.6051   -2.8726 C   0  0  0  0  0  0  0  0  0  0  0  0
   -7.5689   -0.6572   -3.6970 C   0  0  0  0  0  0  0  0  0  0  0  0
   -7.4188    0.6992   -3.4204 C   0  0  0  0  0  0  0  0  0  0  0  0
   -8.1588    1.8689   -4.4448 Cl  0  0  0  0  0  0  0  0  0  0  0  0
   -6.6618    1.1227   -2.3275 C   0  0  0  0  0  0  0  0  0  0  0  0
   -6.0269    0.1803   -1.5048 C   0  0  0  0  0  0  0  0  0  0  0  0
   10.2389   -0.6734    0.0134 H   0  0  0  0  0  0  0  0  0  0  0  0
   11.0173   -1.8112   -1.1003 H   0  0  0  0  0  0  0  0  0  0  0  0
    9.8650   -2.4072    0.1062 H   0  0  0  0  0  0  0  0  0  0  0  0
    8.8645   -2.2920   -2.1939 H   0  0  0  0  0  0  0  0  0  0  0  0
    9.2195   -0.5650   -2.2587 H   0  0  0  0  0  0  0  0  0  0  0  0
    7.3669   -1.9184   -0.2223 H   0  0  0  0  0  0  0  0  0  0  0  0
    7.7446   -0.1945   -0.2629 H   0  0  0  0  0  0  0  0  0  0  0  0
    6.4592   -1.7414   -2.5748 H   0  0  0  0  0  0  0  0  0  0  0  0
    6.7499   -0.0057   -2.5422 H   0  0  0  0  0  0  0  0  0  0  0  0
    4.3895   -0.6163   -2.0830 H   0  0  0  0  0  0  0  0  0  0  0  0
    4.8818   -1.5535   -0.6748 H   0  0  0  0  0  0  0  0  0  0  0  0
    5.6601    0.4785    0.4807 H   0  0  0  0  0  0  0  0  0  0  0  0
    5.4380    1.4407   -0.9770 H   0  0  0  0  0  0  0  0  0  0  0  0
    3.6361    1.8812    0.5607 H   0  0  0  0  0  0  0  0  0  0  0  0
    2.9989    1.0964   -0.8809 H   0  0  0  0  0  0  0  0  0  0  0  0
    3.6699   -0.4312    1.6873 H   0  0  0  0  0  0  0  0  0  0  0  0
    2.7581   -1.0445    0.3102 H   0  0  0  0  0  0  0  0  0  0  0  0
    1.8869    1.2387    2.1451 H   0  0  0  0  0  0  0  0  0  0  0  0
    1.3719   -0.4379    2.2860 H   0  0  0  0  0  0  0  0  0  0  0  0
    0.8292    1.3094   -0.1932 H   0  0  0  0  0  0  0  0  0  0  0  0
    0.2768   -0.3629    0.0549 H   0  0  0  0  0  0  0  0  0  0  0  0
   -2.2451    0.5011    2.6500 H   0  0  0  0  0  0  0  0  0  0  0  0
   -0.5614    0.1983    3.1301 H   0  0  0  0  0  0  0  0  0  0  0  0
   -1.3354   -0.8443    1.8787 H   0  0  0  0  0  0  0  0  0  0  0  0
   -0.1833    3.1534    0.9678 H   0  0  0  0  0  0  0  0  0  0  0  0
   -1.4840    2.8823    2.1850 H   0  0  0  0  0  0  0  0  0  0  0  0
    0.1842    2.4468    2.5760 H   0  0  0  0  0  0  0  0  0  0  0  0
   -2.0236    0.1043   -0.2152 H   0  0  0  0  0  0  0  0  0  0  0  0
   -1.3361    1.6317   -0.8110 H   0  0  0  0  0  0  0  0  0  0  0  0
   -2.9535    2.9863    0.2533 H   0  0  0  0  0  0  0  0  0  0  0  0
   -3.3957    1.7866    1.4283 H   0  0  0  0  0  0  0  0  0  0  0  0
   -4.1738    1.9767   -1.5202 H   0  0  0  0  0  0  0  0  0  0  0  0
   -5.4712    1.4727    2.2746 H   0  0  0  0  0  0  0  0  0  0  0  0
   -5.6155    0.0825    4.3119 H   0  0  0  0  0  0  0  0  0  0  0  0
   -5.6077   -2.3930    4.1350 H   0  0  0  0  0  0  0  0  0  0  0  0
   -5.5087   -3.4796    1.9257 H   0  0  0  0  0  0  0  0  0  0  0  0
   -7.0820   -2.6613   -3.0947 H   0  0  0  0  0  0  0  0  0  0  0  0
   -8.1635   -0.9855   -4.5475 H   0  0  0  0  0  0  0  0  0  0  0  0
   -6.5720    2.1860   -2.1205 H   0  0  0  0  0  0  0  0  0  0  0  0
  1  2  1  0
  2  3  1  0
  3  4  1  0
  4  5  1  0
  5  6  1  0
  6  7  1  0
  7  8  1  0
  8  9  1  0
  9 10  1  0
 10 11  1  0
 11 12  1  0
 11 13  1  0
 11 14  1  0
 14 15  1  0
 15 16  1  0
 16 17  2  3
 17 18  1  0
 18 19  2  0
 19 20  1  0
 20 21  2  0
 21 22  1  0
 22 23  2  0
 23 24  1  0
 24 25  1  0
 25 26  2  0
 26 27  1  0
 27 28  2  0
 28 29  1  0
 28 30  1  0
 30 31  2  0
 31 17  1  0
 23 18  1  0
 31 25  1  0
  1 32  1  0
  1 33  1  0
  1 34  1  0
  2 35  1  0
  2 36  1  0
  3 37  1  0
  3 38  1  0
  4 39  1  0
  4 40  1  0
  5 41  1  0
  5 42  1  0
  6 43  1  0
  6 44  1  0
  7 45  1  0
  7 46  1  0
  8 47  1  0
  8 48  1  0
  9 49  1  0
  9 50  1  0
 10 51  1  0
 10 52  1  0
 12 53  1  0
 12 54  1  0
 12 55  1  0
 13 56  1  0
 13 57  1  0
 13 58  1  0
 14 59  1  0
 14 60  1  0
 15 61  1  0
 15 62  1  0
 16 63  1  0
 19 64  1  0
 20 65  1  0
 21 66  1  0
 22 67  1  0
 26 68  1  0
 27 69  1  0
 30 70  1  0
M  CHG  1  11   1
M  END
$$$$
