
     RDKit          3D

 40 42  0  0  0  0  0  0  0  0999 V2000
    4.7238    0.1074   -3.5496 C   0  0  0  0  0  0  0  0  0  0  0  0
    5.5388    0.0319   -2.3875 O   0  0  0  0  0  0  0  0  0  0  0  0
    4.9035    0.0710   -1.1764 C   0  0  0  0  0  0  0  0  0  0  0  0
    5.7551    0.0181   -0.0730 C   0  0  0  0  0  0  0  0  0  0  0  0
    5.2365    0.0487    1.2197 C   0  0  0  0  0  0  0  0  0  0  0  0
    3.8572    0.1333    1.4188 C   0  0  0  0  0  0  0  0  0  0  0  0
    2.9897    0.1897    0.3274 C   0  0  0  0  0  0  0  0  0  0  0  0
    1.5846    0.2678    0.4454 N   0  0  0  0  0  0  0  0  0  0  0  0
    0.8446    0.3956    1.6076 C   0  0  0  0  0  0  0  0  0  0  0  0
    1.2754    0.5374    2.7451 O   0  0  0  0  0  0  0  0  0  0  0  0
   -0.6317    0.4005    1.4056 C   0  0  0  0  0  0  0  0  0  0  0  0
   -1.4122    1.2395    2.2042 C   0  0  0  0  0  0  0  0  0  0  0  0
   -2.7974    1.2686    2.0404 C   0  0  0  0  0  0  0  0  0  0  0  0
   -3.4222    0.4474    1.0896 C   0  0  0  0  0  0  0  0  0  0  0  0
   -2.6399   -0.3999    0.2826 C   0  0  0  0  0  0  0  0  0  0  0  0
   -1.2467   -0.4298    0.4592 C   0  0  0  0  0  0  0  0  0  0  0  0
   -3.2721   -1.3352   -0.7202 C   0  0  0  0  0  0  0  0  0  0  0  0
   -4.7040   -0.9494   -1.0856 C   0  0  0  0  0  0  0  0  0  0  0  0
   -5.5131   -0.6579    0.1714 C   0  0  0  0  0  0  0  0  0  0  0  0
   -4.9208    0.5321    0.9237 C   0  0  0  0  0  0  0  0  0  0  0  0
    3.5230    0.1546   -0.9721 C   0  0  0  0  0  0  0  0  0  0  0  0
    5.3825    0.0753   -4.4228 H   0  0  0  0  0  0  0  0  0  0  0  0
    4.1711    1.0521   -3.5839 H   0  0  0  0  0  0  0  0  0  0  0  0
    4.0461   -0.7504   -3.6122 H   0  0  0  0  0  0  0  0  0  0  0  0
    6.8300   -0.0476   -0.2214 H   0  0  0  0  0  0  0  0  0  0  0  0
    5.9046    0.0060    2.0759 H   0  0  0  0  0  0  0  0  0  0  0  0
    3.4920    0.1485    2.4409 H   0  0  0  0  0  0  0  0  0  0  0  0
    1.0717    0.3024   -0.4254 H   0  0  0  0  0  0  0  0  0  0  0  0
   -0.9428    1.8731    2.9541 H   0  0  0  0  0  0  0  0  0  0  0  0
   -3.3902    1.9339    2.6651 H   0  0  0  0  0  0  0  0  0  0  0  0
   -0.6531   -1.1289   -0.1252 H   0  0  0  0  0  0  0  0  0  0  0  0
   -2.6701   -1.3607   -1.6364 H   0  0  0  0  0  0  0  0  0  0  0  0
   -3.2669   -2.3454   -0.2919 H   0  0  0  0  0  0  0  0  0  0  0  0
   -5.1696   -1.7612   -1.6554 H   0  0  0  0  0  0  0  0  0  0  0  0
   -4.6989   -0.0633   -1.7330 H   0  0  0  0  0  0  0  0  0  0  0  0
   -5.5180   -1.5442    0.8187 H   0  0  0  0  0  0  0  0  0  0  0  0
   -6.5557   -0.4456   -0.0903 H   0  0  0  0  0  0  0  0  0  0  0  0
   -5.4018    0.6008    1.9068 H   0  0  0  0  0  0  0  0  0  0  0  0
   -5.1493    1.4561    0.3778 H   0  0  0  0  0  0  0  0  0  0  0  0
    2.8461    0.1954   -1.8176 H   0  0  0  0  0  0  0  0  0  0  0  0
  1  2  1  0
  2  3  1  0
  3  4  2  0
  4  5  1  0
  5  6  2  0
  6  7  1  0
  7  8  1  0
  8  9  1  0
  9 10  2  0
  9 11  1  0
 11 12  2  0
 12 13  1  0
 13 14  2  0
 14 15  1  0
 15 16  2  0
 15 17  1  0
 17 18  1  0
 18 19  1  0
 19 20  1  0
  7 21  2  0
 21  3  1  0
 16 11  1  0
 20 14  1  0
  1 22  1  0
  1 23  1  0
  1 24  1  0
  4 25  1  0
  5 26  1  0
  6 27  1  0
  8 28  1  0
 12 29  1  0
 13 30  1  0
 16 31  1  0
 17 32  1  0
 17 33  1  0
 18 34  1  0
 18 35  1  0
 19 36  1  0
 19 37  1  0
 20 38  1  0
 20 39  1  0
 21 40  1  0
M  END
$$$$
