
     RDKit          3D

 53 56  0  0  0  0  0  0  0  0999 V2000
   -6.7618    3.4423    0.9607 C   0  0  0  0  0  0  0  0  0  0  0  0
   -5.4850    2.6566    0.9760 C   0  0  0  0  0  0  0  0  0  0  0  0
   -5.5047    1.2756    1.1956 C   0  0  0  0  0  0  0  0  0  0  0  0
   -4.3180    0.5334    1.1822 C   0  0  0  0  0  0  0  0  0  0  0  0
   -3.0929    1.1609    0.9572 C   0  0  0  0  0  0  0  0  0  0  0  0
   -1.8591    0.4765    0.8875 N   0  0  0  0  0  0  0  0  0  0  0  0
   -1.4555   -0.7273    1.4480 C   0  0  0  0  0  0  0  0  0  0  0  0
   -2.1169   -1.3531    2.8682 S   0  0  0  0  0  0  0  0  0  0  0  0
   -0.3877   -1.3340    0.7374 N   0  0  0  0  0  0  0  0  0  0  0  0
    0.3414   -2.5060    1.2688 C   0  0  0  0  0  0  0  0  0  0  0  0
   -0.0588   -3.7666    0.5522 C   0  0  0  0  0  0  0  0  0  0  0  0
   -1.3214   -4.2950    0.3568 C   0  0  0  0  0  0  0  0  0  0  0  0
   -1.2954   -5.5197   -0.3702 C   0  0  0  0  0  0  0  0  0  0  0  0
   -0.0136   -5.8948   -0.7011 C   0  0  0  0  0  0  0  0  0  0  0  0
    1.1479   -4.7769   -0.1350 S   0  0  0  0  0  0  0  0  0  0  0  0
   -0.0369   -0.9335   -0.6435 C   0  0  0  0  0  0  0  0  0  0  0  0
    1.3158   -0.2816   -0.7012 C   0  0  0  0  0  0  0  0  0  0  0  0
    2.4192   -0.9122   -1.1418 C   0  0  0  0  0  0  0  0  0  0  0  0
    3.7126   -0.2312   -1.1953 C   0  0  0  0  0  0  0  0  0  0  0  0
    4.8586   -0.9025   -1.6272 C   0  0  0  0  0  0  0  0  0  0  0  0
    6.0816   -0.2350   -1.6679 C   0  0  0  0  0  0  0  0  0  0  0  0
    6.1641    1.1031   -1.2779 C   0  0  0  0  0  0  0  0  0  0  0  0
    5.0251    1.7967   -0.8405 C   0  0  0  0  0  0  0  0  0  0  0  0
    5.1529    3.2358   -0.4288 C   0  0  0  0  0  0  0  0  0  0  0  0
    3.7980    1.1137   -0.8036 C   0  0  0  0  0  0  0  0  0  0  0  0
    2.6253    1.7576   -0.3802 N   0  0  0  0  0  0  0  0  0  0  0  0
    1.3979    1.1577   -0.3214 C   0  0  0  0  0  0  0  0  0  0  0  0
    0.4017    1.7882    0.0254 O   0  0  0  0  0  0  0  0  0  0  0  0
   -3.0787    2.5353    0.6942 C   0  0  0  0  0  0  0  0  0  0  0  0
   -4.2628    3.2788    0.7074 C   0  0  0  0  0  0  0  0  0  0  0  0
   -6.5847    4.4833    1.2506 H   0  0  0  0  0  0  0  0  0  0  0  0
   -7.2002    3.4248   -0.0417 H   0  0  0  0  0  0  0  0  0  0  0  0
   -7.4838    3.0261    1.6711 H   0  0  0  0  0  0  0  0  0  0  0  0
   -6.4463    0.7608    1.3731 H   0  0  0  0  0  0  0  0  0  0  0  0
   -4.3864   -0.5405    1.3191 H   0  0  0  0  0  0  0  0  0  0  0  0
   -1.0773    1.0597    0.5817 H   0  0  0  0  0  0  0  0  0  0  0  0
    1.4134   -2.3068    1.1640 H   0  0  0  0  0  0  0  0  0  0  0  0
    0.1785   -2.6388    2.3412 H   0  0  0  0  0  0  0  0  0  0  0  0
   -2.2274   -3.8225    0.7180 H   0  0  0  0  0  0  0  0  0  0  0  0
   -2.1737   -6.0970   -0.6320 H   0  0  0  0  0  0  0  0  0  0  0  0
    0.2982   -6.7763   -1.2443 H   0  0  0  0  0  0  0  0  0  0  0  0
   -0.7953   -0.2785   -1.0838 H   0  0  0  0  0  0  0  0  0  0  0  0
   -0.0589   -1.8308   -1.2732 H   0  0  0  0  0  0  0  0  0  0  0  0
    2.3819   -1.9500   -1.4575 H   0  0  0  0  0  0  0  0  0  0  0  0
    4.8122   -1.9447   -1.9329 H   0  0  0  0  0  0  0  0  0  0  0  0
    6.9743   -0.7575   -2.0035 H   0  0  0  0  0  0  0  0  0  0  0  0
    7.1305    1.6023   -1.3181 H   0  0  0  0  0  0  0  0  0  0  0  0
    6.1844    3.5918   -0.5216 H   0  0  0  0  0  0  0  0  0  0  0  0
    4.8547    3.3594    0.6173 H   0  0  0  0  0  0  0  0  0  0  0  0
    4.5271    3.8698   -1.0650 H   0  0  0  0  0  0  0  0  0  0  0  0
    2.6477    2.7294   -0.1061 H   0  0  0  0  0  0  0  0  0  0  0  0
   -2.1416    3.0467    0.4859 H   0  0  0  0  0  0  0  0  0  0  0  0
   -4.2203    4.3466    0.5071 H   0  0  0  0  0  0  0  0  0  0  0  0
  1  2  1  0
  2  3  2  0
  3  4  1  0
  4  5  2  0
  5  6  1  0
  6  7  1  0
  7  8  2  0
  7  9  1  0
  9 10  1  0
 10 11  1  0
 11 12  2  0
 12 13  1  0
 13 14  2  0
 14 15  1  0
  9 16  1  0
 16 17  1  0
 17 18  2  0
 18 19  1  0
 19 20  2  0
 20 21  1  0
 21 22  2  0
 22 23  1  0
 23 24  1  0
 23 25  2  0
 25 26  1  0
 26 27  1  0
 27 28  2  0
  5 29  1  0
 29 30  2  0
 30  2  1  0
 15 11  1  0
 27 17  1  0
 25 19  1  0
  1 31  1  0
  1 32  1  0
  1 33  1  0
  3 34  1  0
  4 35  1  0
  6 36  1  0
 10 37  1  0
 10 38  1  0
 12 39  1  0
 13 40  1  0
 14 41  1  0
 16 42  1  0
 16 43  1  0
 18 44  1  0
 20 45  1  0
 21 46  1  0
 22 47  1  0
 24 48  1  0
 24 49  1  0
 24 50  1  0
 26 51  1  0
 29 52  1  0
 30 53  1  0
M  END
$$$$
