
     RDKit          3D

 46 48  0  0  0  0  0  0  0  0999 V2000
    5.2241   -1.6325    1.1973 C   0  0  0  0  0  0  0  0  0  0  0  0
    5.2878   -1.9838   -0.2764 C   0  0  0  0  0  0  0  0  0  0  0  0
    4.4238   -1.1150   -1.0243 O   0  0  0  0  0  0  0  0  0  0  0  0
    3.1356   -1.5188   -1.1519 C   0  0  0  0  0  0  0  0  0  0  0  0
    2.6699   -2.5586   -0.7068 O   0  0  0  0  0  0  0  0  0  0  0  0
    2.3278   -0.5203   -1.9198 C   0  0  0  0  0  0  0  0  0  0  0  0
    2.9561    0.6065   -2.4825 C   0  0  0  0  0  0  0  0  0  0  0  0
    2.2212    1.5426   -3.2075 C   0  0  0  0  0  0  0  0  0  0  0  0
    0.8549    1.3622   -3.3779 C   0  0  0  0  0  0  0  0  0  0  0  0
    0.2165    0.2491   -2.8235 C   0  0  0  0  0  0  0  0  0  0  0  0
    0.9331   -0.7048   -2.0889 C   0  0  0  0  0  0  0  0  0  0  0  0
    0.3007   -1.8300   -1.5032 N   0  0  0  0  0  0  0  0  0  0  0  0
   -1.0389   -2.1624   -1.4915 C   0  0  0  0  0  0  0  0  0  0  0  0
   -1.9471   -1.5722   -2.0720 O   0  0  0  0  0  0  0  0  0  0  0  0
   -1.3421   -3.4135   -0.6804 C   0  0  0  0  0  0  0  0  0  0  0  0
   -0.9034   -3.2304    1.0778 S   0  0  0  0  0  0  0  0  0  0  0  0
   -1.6274   -1.6459    1.4156 C   0  0  0  0  0  0  0  0  0  0  0  0
   -2.9872   -1.4151    1.3189 C   0  0  0  0  0  0  0  0  0  0  0  0
   -3.4711   -0.1288    1.5626 C   0  0  0  0  0  0  0  0  0  0  0  0
   -2.5835    0.8857    1.9027 C   0  0  0  0  0  0  0  0  0  0  0  0
   -2.9845    2.2735    2.1727 C   0  0  0  0  0  0  0  0  0  0  0  0
   -4.1078    2.8752    1.5846 C   0  0  0  0  0  0  0  0  0  0  0  0
   -4.4425    4.1982    1.8791 C   0  0  0  0  0  0  0  0  0  0  0  0
   -3.6422    4.8987    2.7627 C   0  0  0  0  0  0  0  0  0  0  0  0
   -2.5519    4.3730    3.3529 N   0  0  0  0  0  0  0  0  0  0  0  0
   -2.2492    3.0858    3.0396 C   0  0  0  0  0  0  0  0  0  0  0  0
   -1.2639    0.6117    2.0101 N   0  0  0  0  0  0  0  0  0  0  0  0
   -0.7836   -0.6572    1.7646 N   0  0  0  0  0  0  0  0  0  0  0  0
    5.4660   -0.5761    1.3510 H   0  0  0  0  0  0  0  0  0  0  0  0
    4.2161   -1.7887    1.5950 H   0  0  0  0  0  0  0  0  0  0  0  0
    5.9255   -2.2427    1.7731 H   0  0  0  0  0  0  0  0  0  0  0  0
    6.3037   -1.8248   -0.6540 H   0  0  0  0  0  0  0  0  0  0  0  0
    5.0440   -3.0385   -0.4493 H   0  0  0  0  0  0  0  0  0  0  0  0
    4.0232    0.7732   -2.3604 H   0  0  0  0  0  0  0  0  0  0  0  0
    2.7137    2.4127   -3.6336 H   0  0  0  0  0  0  0  0  0  0  0  0
    0.2749    2.0915   -3.9383 H   0  0  0  0  0  0  0  0  0  0  0  0
   -0.8536    0.1612   -2.9830 H   0  0  0  0  0  0  0  0  0  0  0  0
    0.9183   -2.4306   -0.9483 H   0  0  0  0  0  0  0  0  0  0  0  0
   -0.7868   -4.2566   -1.1047 H   0  0  0  0  0  0  0  0  0  0  0  0
   -2.4095   -3.6433   -0.7635 H   0  0  0  0  0  0  0  0  0  0  0  0
   -3.6760   -2.2097    1.0538 H   0  0  0  0  0  0  0  0  0  0  0  0
   -4.5377    0.0558    1.4924 H   0  0  0  0  0  0  0  0  0  0  0  0
   -4.7248    2.3325    0.8734 H   0  0  0  0  0  0  0  0  0  0  0  0
   -5.3053    4.6708    1.4226 H   0  0  0  0  0  0  0  0  0  0  0  0
   -3.8594    5.9306    3.0234 H   0  0  0  0  0  0  0  0  0  0  0  0
   -1.3572    2.7096    3.5380 H   0  0  0  0  0  0  0  0  0  0  0  0
  1  2  1  0
  2  3  1  0
  3  4  1  0
  4  5  2  0
  4  6  1  0
  6  7  2  0
  7  8  1  0
  8  9  2  0
  9 10  1  0
 10 11  2  0
 11 12  1  0
 12 13  1  0
 13 14  2  0
 13 15  1  0
 15 16  1  0
 16 17  1  0
 17 18  2  0
 18 19  1  0
 19 20  2  0
 20 21  1  0
 21 22  2  0
 22 23  1  0
 23 24  2  0
 24 25  1  0
 25 26  2  0
 20 27  1  0
 27 28  2  0
 11  6  1  0
 28 17  1  0
 26 21  1  0
  1 29  1  0
  1 30  1  0
  1 31  1  0
  2 32  1  0
  2 33  1  0
  7 34  1  0
  8 35  1  0
  9 36  1  0
 10 37  1  0
 12 38  1  0
 15 39  1  0
 15 40  1  0
 18 41  1  0
 19 42  1  0
 22 43  1  0
 23 44  1  0
 24 45  1  0
 26 46  1  0
M  END
$$$$
