
     RDKit          3D

 37 38  0  0  0  0  0  0  0  0999 V2000
   -5.5944    2.1185    0.0024 C   0  0  0  0  0  0  0  0  0  0  0  0
   -4.5721    1.0274   -0.1095 C   0  0  0  0  0  0  0  0  0  0  0  0
   -4.8048   -0.2111    0.4742 C   0  0  0  0  0  0  0  0  0  0  0  0
   -3.8346   -1.2085    0.3507 C   0  0  0  0  0  0  0  0  0  0  0  0
   -4.0497   -2.5757    0.9358 C   0  0  0  0  0  0  0  0  0  0  0  0
   -2.8980   -3.1589    1.3693 F   0  0  0  0  0  0  0  0  0  0  0  0
   -4.8888   -2.5705    2.0094 F   0  0  0  0  0  0  0  0  0  0  0  0
   -4.5957   -3.4423    0.0398 F   0  0  0  0  0  0  0  0  0  0  0  0
   -2.6698   -0.9186   -0.3673 C   0  0  0  0  0  0  0  0  0  0  0  0
   -2.4993    0.3495   -0.9114 C   0  0  0  0  0  0  0  0  0  0  0  0
   -1.3512    0.6761   -1.6629 N   0  0  0  0  0  0  0  0  0  0  0  0
   -0.1513    0.3937   -0.9638 N   0  0  0  0  0  0  0  0  0  0  0  0
    0.7278    1.4411   -0.8052 C   0  0  0  0  0  0  0  0  0  0  0  0
    0.4471    2.6157   -1.0390 O   0  0  0  0  0  0  0  0  0  0  0  0
    1.9798    1.1127   -0.3475 N   0  0  0  0  0  0  0  0  0  0  0  0
    2.5587   -0.1426   -0.3457 C   0  0  0  0  0  0  0  0  0  0  0  0
    1.9803   -1.1624   -0.7107 O   0  0  0  0  0  0  0  0  0  0  0  0
    3.9771   -0.2120    0.1027 C   0  0  0  0  0  0  0  0  0  0  0  0
    4.7822   -1.2437   -0.4004 C   0  0  0  0  0  0  0  0  0  0  0  0
    6.1187   -1.3505   -0.0064 C   0  0  0  0  0  0  0  0  0  0  0  0
    6.6485   -0.4326    0.8983 C   0  0  0  0  0  0  0  0  0  0  0  0
    8.2924   -0.5632    1.3856 Cl  0  0  0  0  0  0  0  0  0  0  0  0
    5.8515    0.5875    1.4174 C   0  0  0  0  0  0  0  0  0  0  0  0
    4.5133    0.6983    1.0246 C   0  0  0  0  0  0  0  0  0  0  0  0
   -3.4409    1.3072   -0.7972 N   0  0  0  0  0  0  0  0  0  0  0  0
   -5.7723    2.3634    1.0541 H   0  0  0  0  0  0  0  0  0  0  0  0
   -6.5357    1.8031   -0.4583 H   0  0  0  0  0  0  0  0  0  0  0  0
   -5.2532    3.0261   -0.5058 H   0  0  0  0  0  0  0  0  0  0  0  0
   -5.7291   -0.3985    1.0149 H   0  0  0  0  0  0  0  0  0  0  0  0
   -1.9041   -1.6767   -0.5046 H   0  0  0  0  0  0  0  0  0  0  0  0
   -1.4436    1.6845   -1.8480 H   0  0  0  0  0  0  0  0  0  0  0  0
    0.2655   -0.5167   -1.1694 H   0  0  0  0  0  0  0  0  0  0  0  0
    2.5668    1.9267   -0.2456 H   0  0  0  0  0  0  0  0  0  0  0  0
    4.3726   -1.9682   -1.1028 H   0  0  0  0  0  0  0  0  0  0  0  0
    6.7362   -2.1518   -0.4051 H   0  0  0  0  0  0  0  0  0  0  0  0
    6.2642    1.2926    2.1354 H   0  0  0  0  0  0  0  0  0  0  0  0
    3.9059    1.4804    1.4723 H   0  0  0  0  0  0  0  0  0  0  0  0
  1  2  1  0
  2  3  2  0
  3  4  1  0
  4  5  1  0
  5  6  1  0
  5  7  1  0
  5  8  1  0
  4  9  2  0
  9 10  1  0
 10 11  1  0
 11 12  1  0
 12 13  1  0
 13 14  2  0
 13 15  1  0
 15 16  1  0
 16 17  2  0
 16 18  1  0
 18 19  2  0
 19 20  1  0
 20 21  2  0
 21 22  1  0
 21 23  1  0
 23 24  2  0
 10 25  2  0
 25  2  1  0
 24 18  1  0
  1 26  1  0
  1 27  1  0
  1 28  1  0
  3 29  1  0
  9 30  1  0
 11 31  1  0
 12 32  1  0
 15 33  1  0
 19 34  1  0
 20 35  1  0
 23 36  1  0
 24 37  1  0
M  END
$$$$
