
     RDKit          3D

 46 48  0  0  0  0  0  0  0  0999 V2000
   -2.3428   -0.3099    1.4969 O   0  0  0  0  0  0  0  0  0  0  0  0
   -2.3975    0.0754    0.3305 C   0  0  0  0  0  0  0  0  0  0  0  0
   -3.3788   -0.3613   -0.5520 N   0  0  0  0  0  0  0  0  0  0  0  0
   -4.1648   -1.5268   -0.1409 C   0  0  0  0  0  0  0  0  0  0  0  0
   -5.3849   -1.1035    0.6854 C   0  0  0  0  0  0  0  0  0  0  0  0
   -6.1924   -0.1668   -0.0520 O   0  0  0  0  0  0  0  0  0  0  0  0
   -5.4293    1.0035   -0.3892 C   0  0  0  0  0  0  0  0  0  0  0  0
   -4.2017    0.6396   -1.2406 C   0  0  0  0  0  0  0  0  0  0  0  0
   -1.4636    0.9597   -0.2053 N   0  0  0  0  0  0  0  0  0  0  0  0
   -0.4718    1.5144    0.7172 C   0  0  0  0  0  0  0  0  0  0  0  0
    0.8418    0.7284    0.6358 C   0  0  0  0  0  0  0  0  0  0  0  0
    1.4229    0.7430   -0.7569 N   0  0  0  0  0  0  0  0  0  0  0  0
    2.2282   -0.6870   -1.2268 S   0  0  0  0  0  6  0  0  0  0  0  0
    2.8771   -0.4438   -2.4968 O   0  0  0  0  0  0  0  0  0  0  0  0
    1.3058   -1.7885   -1.0577 O   0  0  0  0  0  0  0  0  0  0  0  0
    3.5113   -0.8254   -0.0075 C   0  0  0  0  0  0  0  0  0  0  0  0
    3.4953   -1.8804    0.9112 C   0  0  0  0  0  0  0  0  0  0  0  0
    4.5188   -1.9896    1.8546 C   0  0  0  0  0  0  0  0  0  0  0  0
    5.5534   -1.0503    1.8782 C   0  0  0  0  0  0  0  0  0  0  0  0
    5.5605    0.0017    0.9484 C   0  0  0  0  0  0  0  0  0  0  0  0
    6.6462    0.9908    0.9799 N   0  0  0  0  0  4  0  0  0  0  0  0
    7.5723    0.8051    1.7816 O   0  0  0  0  0  0  0  0  0  0  0  0
    6.5651    1.9576    0.2096 O   0  0  0  0  0  1  0  0  0  0  0  0
    4.5420    0.1206   -0.0039 C   0  0  0  0  0  0  0  0  0  0  0  0
    0.4600    1.2519   -1.7937 C   0  0  0  0  0  0  0  0  0  0  0  0
   -0.9650    0.7213   -1.5711 C   0  0  0  0  0  0  0  0  0  0  0  0
   -3.5391   -2.2286    0.4208 H   0  0  0  0  0  0  0  0  0  0  0  0
   -4.4936   -2.0237   -1.0612 H   0  0  0  0  0  0  0  0  0  0  0  0
   -6.0078   -1.9758    0.9061 H   0  0  0  0  0  0  0  0  0  0  0  0
   -5.0935   -0.6468    1.6381 H   0  0  0  0  0  0  0  0  0  0  0  0
   -5.1331    1.5128    0.5356 H   0  0  0  0  0  0  0  0  0  0  0  0
   -6.0846    1.6780   -0.9491 H   0  0  0  0  0  0  0  0  0  0  0  0
   -4.5201    0.1916   -2.1884 H   0  0  0  0  0  0  0  0  0  0  0  0
   -3.6377    1.5513   -1.4518 H   0  0  0  0  0  0  0  0  0  0  0  0
   -0.8512    1.5169    1.7446 H   0  0  0  0  0  0  0  0  0  0  0  0
   -0.3131    2.5622    0.4359 H   0  0  0  0  0  0  0  0  0  0  0  0
    0.6595   -0.3002    0.9655 H   0  0  0  0  0  0  0  0  0  0  0  0
    1.5776    1.1768    1.3119 H   0  0  0  0  0  0  0  0  0  0  0  0
    2.6968   -2.6212    0.8961 H   0  0  0  0  0  0  0  0  0  0  0  0
    4.5129   -2.8110    2.5695 H   0  0  0  0  0  0  0  0  0  0  0  0
    6.3429   -1.1526    2.6212 H   0  0  0  0  0  0  0  0  0  0  0  0
    4.5399    0.9266   -0.7360 H   0  0  0  0  0  0  0  0  0  0  0  0
    0.4716    2.3478   -1.7421 H   0  0  0  0  0  0  0  0  0  0  0  0
    0.7976    1.0010   -2.8046 H   0  0  0  0  0  0  0  0  0  0  0  0
   -1.6427    1.2051   -2.2798 H   0  0  0  0  0  0  0  0  0  0  0  0
   -0.9904   -0.3572   -1.7672 H   0  0  0  0  0  0  0  0  0  0  0  0
  1  2  2  0
  2  3  1  0
  3  4  1  0
  4  5  1  0
  5  6  1  0
  6  7  1  0
  7  8  1  0
  2  9  1  0
  9 10  1  0
 10 11  1  0
 11 12  1  0
 12 13  1  0
 13 14  2  0
 13 15  2  0
 13 16  1  0
 16 17  2  0
 17 18  1  0
 18 19  2  0
 19 20  1  0
 20 21  1  0
 21 22  2  0
 21 23  1  0
 20 24  2  0
 12 25  1  0
 25 26  1  0
  8  3  1  0
 26  9  1  0
 24 16  1  0
  4 27  1  0
  4 28  1  0
  5 29  1  0
  5 30  1  0
  7 31  1  0
  7 32  1  0
  8 33  1  0
  8 34  1  0
 10 35  1  0
 10 36  1  0
 11 37  1  0
 11 38  1  0
 17 39  1  0
 18 40  1  0
 19 41  1  0
 24 42  1  0
 25 43  1  0
 25 44  1  0
 26 45  1  0
 26 46  1  0
M  CHG  2  21   1  23  -1
M  END
$$$$
