
     RDKit          3D

 49 51  0  0  0  0  0  0  0  0999 V2000
    9.2266   -1.9578    1.9473 N   0  0  0  0  0  0  0  0  0  0  0  0
    8.0856   -1.8368    1.7674 C   0  0  0  0  0  0  0  0  0  0  0  0
    6.6751   -1.7167    1.5444 C   0  0  0  0  0  0  0  0  0  0  0  0
    6.1900   -0.4465    1.4845 N   0  0  0  0  0  0  0  0  0  0  0  0
    4.8524   -0.3346    1.2718 C   0  0  0  0  0  0  0  0  0  0  0  0
    4.0045   -1.4305    1.1143 C   0  0  0  0  0  0  0  0  0  0  0  0
    2.5547   -1.3148    0.8742 C   0  0  0  0  0  0  0  0  0  0  0  0
    1.6678   -2.2765    1.3933 C   0  0  0  0  0  0  0  0  0  0  0  0
    0.2924   -2.1914    1.1698 C   0  0  0  0  0  0  0  0  0  0  0  0
   -0.2206   -1.1478    0.4055 C   0  0  0  0  0  0  0  0  0  0  0  0
    0.6244   -0.1557   -0.0988 C   0  0  0  0  0  0  0  0  0  0  0  0
    2.0053   -0.2592    0.1160 C   0  0  0  0  0  0  0  0  0  0  0  0
    0.0616    0.8430   -0.8512 O   0  0  0  0  0  0  0  0  0  0  0  0
    0.5500    2.1591   -0.5600 C   0  0  0  0  0  0  0  0  0  0  0  0
   -0.2984    3.1930   -1.3077 C   0  0  0  0  0  0  0  0  0  0  0  0
   -1.4748    3.5941   -0.5987 O   0  0  0  0  0  0  0  0  0  0  0  0
   -2.4884    2.5848   -0.5636 C   0  0  0  0  0  0  0  0  0  0  0  0
   -3.8115    3.2289   -0.1406 C   0  0  0  0  0  0  0  0  0  0  0  0
   -4.8774    2.2980    0.0477 O   0  0  0  0  0  0  0  0  0  0  0  0
   -5.3795    1.7250   -1.1656 C   0  0  0  0  0  0  0  0  0  0  0  0
   -5.1909    0.2079   -1.1323 C   0  0  0  0  0  0  0  0  0  0  0  0
   -3.8089   -0.0863   -1.3425 O   0  0  0  0  0  0  0  0  0  0  0  0
   -3.4997   -1.4653   -1.1308 C   0  0  0  0  0  0  0  0  0  0  0  0
   -1.9828   -1.6154   -1.0166 C   0  0  0  0  0  0  0  0  0  0  0  0
   -1.5793   -1.0794    0.2556 O   0  0  0  0  0  0  0  0  0  0  0  0
    4.5056   -2.6932    1.1874 N   0  0  0  0  0  0  0  0  0  0  0  0
    5.8478   -2.8179    1.4000 C   0  0  0  0  0  0  0  0  0  0  0  0
    6.3418   -4.1616    1.4579 C   0  0  0  0  0  0  0  0  0  0  0  0
    6.7631   -5.2423    1.5048 N   0  0  0  0  0  0  0  0  0  0  0  0
    4.4811    0.6857    1.2470 H   0  0  0  0  0  0  0  0  0  0  0  0
    2.0479   -3.1087    1.9850 H   0  0  0  0  0  0  0  0  0  0  0  0
   -0.3756   -2.9374    1.5914 H   0  0  0  0  0  0  0  0  0  0  0  0
    2.6671    0.4670   -0.3459 H   0  0  0  0  0  0  0  0  0  0  0  0
    0.5181    2.3478    0.5194 H   0  0  0  0  0  0  0  0  0  0  0  0
    1.5768    2.2461   -0.9304 H   0  0  0  0  0  0  0  0  0  0  0  0
   -0.5709    2.8459   -2.3110 H   0  0  0  0  0  0  0  0  0  0  0  0
    0.2960    4.1055   -1.4228 H   0  0  0  0  0  0  0  0  0  0  0  0
   -2.2116    1.8046    0.1523 H   0  0  0  0  0  0  0  0  0  0  0  0
   -2.5918    2.1320   -1.5542 H   0  0  0  0  0  0  0  0  0  0  0  0
   -4.1127    4.0068   -0.8530 H   0  0  0  0  0  0  0  0  0  0  0  0
   -3.6629    3.7439    0.8157 H   0  0  0  0  0  0  0  0  0  0  0  0
   -6.4492    1.9539   -1.2037 H   0  0  0  0  0  0  0  0  0  0  0  0
   -4.9029    2.1631   -2.0497 H   0  0  0  0  0  0  0  0  0  0  0  0
   -5.7738   -0.2628   -1.9312 H   0  0  0  0  0  0  0  0  0  0  0  0
   -5.5079   -0.1839   -0.1592 H   0  0  0  0  0  0  0  0  0  0  0  0
   -3.8752   -2.0387   -1.9847 H   0  0  0  0  0  0  0  0  0  0  0  0
   -3.9769   -1.8205   -0.2101 H   0  0  0  0  0  0  0  0  0  0  0  0
   -1.4926   -1.0755   -1.8351 H   0  0  0  0  0  0  0  0  0  0  0  0
   -1.7198   -2.6788   -1.0617 H   0  0  0  0  0  0  0  0  0  0  0  0
  1  2  3  0
  2  3  1  0
  3  4  2  0
  4  5  1  0
  5  6  2  0
  6  7  1  0
  7  8  2  0
  8  9  1  0
  9 10  2  0
 10 11  1  0
 11 12  2  0
 11 13  1  0
 13 14  1  0
 14 15  1  0
 15 16  1  0
 16 17  1  0
 17 18  1  0
 18 19  1  0
 19 20  1  0
 20 21  1  0
 21 22  1  0
 22 23  1  0
 23 24  1  0
 24 25  1  0
  6 26  1  0
 26 27  2  0
 27 28  1  0
 28 29  3  0
 27  3  1  0
 12  7  1  0
 25 10  1  0
  5 30  1  0
  8 31  1  0
  9 32  1  0
 12 33  1  0
 14 34  1  0
 14 35  1  0
 15 36  1  0
 15 37  1  0
 17 38  1  0
 17 39  1  0
 18 40  1  0
 18 41  1  0
 20 42  1  0
 20 43  1  0
 21 44  1  0
 21 45  1  0
 23 46  1  0
 23 47  1  0
 24 48  1  0
 24 49  1  0
M  END
$$$$
