
     RDKit          3D

 44 45  0  0  0  0  0  0  0  0999 V2000
   -1.8146   -1.4898   -2.9957 C   0  0  0  0  0  0  0  0  0  0  0  0
   -1.3235   -0.9281   -1.7837 O   0  0  0  0  0  0  0  0  0  0  0  0
   -2.2219   -0.6937   -0.7755 C   0  0  0  0  0  0  0  0  0  0  0  0
   -3.5999   -0.9219   -0.8770 C   0  0  0  0  0  0  0  0  0  0  0  0
   -4.4544   -0.6438    0.1998 C   0  0  0  0  0  0  0  0  0  0  0  0
   -5.8130   -0.8434    0.1831 O   0  0  0  0  0  0  0  0  0  0  0  0
   -6.4170   -1.2446   -1.0391 C   0  0  0  0  0  0  0  0  0  0  0  0
   -3.9266   -0.1346    1.4024 C   0  0  0  0  0  0  0  0  0  0  0  0
   -4.8334    0.1099    2.4031 O   0  0  0  0  0  0  0  0  0  0  0  0
   -4.3342    0.5127    3.6708 C   0  0  0  0  0  0  0  0  0  0  0  0
   -2.5544    0.1000    1.5063 C   0  0  0  0  0  0  0  0  0  0  0  0
   -1.7058   -0.1787    0.4250 C   0  0  0  0  0  0  0  0  0  0  0  0
   -0.2468    0.0706    0.5639 C   0  0  0  0  0  0  0  0  0  0  0  0
    0.2374    0.6517    1.6183 N   0  0  0  0  0  0  0  0  0  0  0  0
    1.5746    0.9025    1.7482 N   0  0  0  0  0  0  0  0  0  0  0  0
    2.5366    0.9192    0.7450 C   0  0  0  0  0  0  0  0  0  0  0  0
    2.3753    0.6447   -0.4396 O   0  0  0  0  0  0  0  0  0  0  0  0
    3.9024    1.3376    1.2527 C   0  0  0  0  0  0  0  0  0  0  0  0
    4.9580    0.9356    0.2946 N   0  0  0  0  0  4  0  0  0  0  0  0
    5.5981   -0.2455    0.4565 C   0  0  0  0  0  0  0  0  0  0  0  0
    6.5917   -0.6418   -0.4321 C   0  0  0  0  0  0  0  0  0  0  0  0
    6.9143    0.1780   -1.5041 C   0  0  0  0  0  0  0  0  0  0  0  0
    6.2343    1.3765   -1.6710 C   0  0  0  0  0  0  0  0  0  0  0  0
    5.2497    1.7370   -0.7581 C   0  0  0  0  0  0  0  0  0  0  0  0
   -2.2462   -2.4804   -2.8217 H   0  0  0  0  0  0  0  0  0  0  0  0
   -2.5336   -0.8202   -3.4783 H   0  0  0  0  0  0  0  0  0  0  0  0
   -0.9651   -1.6084   -3.6757 H   0  0  0  0  0  0  0  0  0  0  0  0
   -4.0160   -1.3180   -1.7946 H   0  0  0  0  0  0  0  0  0  0  0  0
   -6.2376   -0.5085   -1.8302 H   0  0  0  0  0  0  0  0  0  0  0  0
   -7.4973   -1.3000   -0.8751 H   0  0  0  0  0  0  0  0  0  0  0  0
   -6.0748   -2.2410   -1.3392 H   0  0  0  0  0  0  0  0  0  0  0  0
   -3.6443   -0.2328    4.0805 H   0  0  0  0  0  0  0  0  0  0  0  0
   -3.8615    1.4989    3.6108 H   0  0  0  0  0  0  0  0  0  0  0  0
   -5.1835    0.5917    4.3561 H   0  0  0  0  0  0  0  0  0  0  0  0
   -2.1257    0.5003    2.4190 H   0  0  0  0  0  0  0  0  0  0  0  0
    0.3793   -0.2871   -0.2664 H   0  0  0  0  0  0  0  0  0  0  0  0
    1.7816    1.3031    2.6609 H   0  0  0  0  0  0  0  0  0  0  0  0
    4.1226    0.8755    2.2207 H   0  0  0  0  0  0  0  0  0  0  0  0
    3.9402    2.4272    1.3634 H   0  0  0  0  0  0  0  0  0  0  0  0
    5.3068   -0.8744    1.2916 H   0  0  0  0  0  0  0  0  0  0  0  0
    7.1037   -1.5923   -0.2964 H   0  0  0  0  0  0  0  0  0  0  0  0
    7.6826   -0.1211   -2.2156 H   0  0  0  0  0  0  0  0  0  0  0  0
    6.4620    2.0225   -2.5155 H   0  0  0  0  0  0  0  0  0  0  0  0
    4.6797    2.6551   -0.8701 H   0  0  0  0  0  0  0  0  0  0  0  0
  1  2  1  0
  2  3  1  0
  3  4  2  0
  4  5  1  0
  5  6  1  0
  6  7  1  0
  5  8  2  0
  8  9  1  0
  9 10  1  0
  8 11  1  0
 11 12  2  0
 12 13  1  0
 13 14  2  3
 14 15  1  0
 15 16  1  0
 16 17  2  0
 16 18  1  0
 18 19  1  0
 19 20  2  0
 20 21  1  0
 21 22  2  0
 22 23  1  0
 23 24  2  0
 12  3  1  0
 24 19  1  0
  1 25  1  0
  1 26  1  0
  1 27  1  0
  4 28  1  0
  7 29  1  0
  7 30  1  0
  7 31  1  0
 10 32  1  0
 10 33  1  0
 10 34  1  0
 11 35  1  0
 13 36  1  0
 15 37  1  0
 18 38  1  0
 18 39  1  0
 20 40  1  0
 21 41  1  0
 22 42  1  0
 23 43  1  0
 24 44  1  0
M  CHG  1  19   1
M  END
$$$$
