
     RDKit          3D

 46 47  0  0  0  0  0  0  0  0999 V2000
   -1.6216   -1.2887    4.6260 C   0  0  0  0  0  0  0  0  0  0  0  0
    0.1199   -1.6923    4.3478 S   0  0  0  0  0  0  0  0  0  0  0  0
    0.1911   -1.4866    2.5309 C   0  0  0  0  0  0  0  0  0  0  0  0
    0.3193   -0.0114    2.1445 C   0  0  0  0  0  0  0  0  0  0  0  0
    0.2528    0.2823    0.6321 C   0  0  0  0  0  0  0  0  0  0  0  0
   -0.9166   -0.3278    0.0022 N   0  0  0  0  0  0  0  0  0  0  0  0
   -2.1655    0.2390    0.1020 C   0  0  0  0  0  0  0  0  0  0  0  0
   -2.3913    1.3220    0.6197 O   0  0  0  0  0  0  0  0  0  0  0  0
   -3.2548   -0.5527   -0.4994 C   0  0  0  0  0  0  0  0  0  0  0  0
   -3.2038   -0.8094   -1.8770 C   0  0  0  0  0  0  0  0  0  0  0  0
   -4.2235   -1.5401   -2.4856 C   0  0  0  0  0  0  0  0  0  0  0  0
   -5.2900   -2.0131   -1.7233 C   0  0  0  0  0  0  0  0  0  0  0  0
   -5.3394   -1.7576   -0.3511 C   0  0  0  0  0  0  0  0  0  0  0  0
   -4.3227   -1.0250    0.2667 C   0  0  0  0  0  0  0  0  0  0  0  0
   -4.4203   -0.7919    1.9729 Cl  0  0  0  0  0  0  0  0  0  0  0  0
    1.5085   -0.1769   -0.1430 C   0  0  0  0  0  0  0  0  0  0  0  0
    2.1632   -1.1484    0.2433 O   0  0  0  0  0  0  0  0  0  0  0  0
    1.8074    0.4656   -1.3448 N   0  0  0  0  0  0  0  0  0  0  0  0
    1.0820    1.6165   -1.8686 C   0  0  0  0  0  0  0  0  0  0  0  0
    3.0687    0.1263   -2.0053 C   0  0  0  0  0  0  0  0  0  0  0  0
    4.1154    1.1622   -1.7132 C   0  0  0  0  0  0  0  0  0  0  0  0
    4.5391    2.2034   -2.5187 C   0  0  0  0  0  0  0  0  0  0  0  0
    5.5690    2.9771   -1.9097 C   0  0  0  0  0  0  0  0  0  0  0  0
    5.9016    2.5000   -0.6632 C   0  0  0  0  0  0  0  0  0  0  0  0
    4.9777    1.1308   -0.2305 S   0  0  0  0  0  0  0  0  0  0  0  0
   -1.8458   -0.2705    4.3060 H   0  0  0  0  0  0  0  0  0  0  0  0
   -1.8440   -1.3699    5.6942 H   0  0  0  0  0  0  0  0  0  0  0  0
   -2.2565   -1.9956    4.0912 H   0  0  0  0  0  0  0  0  0  0  0  0
   -0.6980   -1.9520    2.0941 H   0  0  0  0  0  0  0  0  0  0  0  0
    1.0594   -2.0549    2.1882 H   0  0  0  0  0  0  0  0  0  0  0  0
    1.2639    0.3867    2.5376 H   0  0  0  0  0  0  0  0  0  0  0  0
   -0.4849    0.5600    2.6250 H   0  0  0  0  0  0  0  0  0  0  0  0
    0.1746    1.3725    0.5495 H   0  0  0  0  0  0  0  0  0  0  0  0
   -0.8223   -1.2752   -0.3462 H   0  0  0  0  0  0  0  0  0  0  0  0
   -2.3848   -0.4251   -2.4792 H   0  0  0  0  0  0  0  0  0  0  0  0
   -4.1934   -1.7327   -3.5554 H   0  0  0  0  0  0  0  0  0  0  0  0
   -6.0885   -2.5801   -2.1982 H   0  0  0  0  0  0  0  0  0  0  0  0
   -6.1737   -2.1376    0.2328 H   0  0  0  0  0  0  0  0  0  0  0  0
    0.0340    1.6232   -1.5611 H   0  0  0  0  0  0  0  0  0  0  0  0
    1.1059    1.5896   -2.9619 H   0  0  0  0  0  0  0  0  0  0  0  0
    1.5613    2.5323   -1.5116 H   0  0  0  0  0  0  0  0  0  0  0  0
    2.8789    0.0695   -3.0841 H   0  0  0  0  0  0  0  0  0  0  0  0
    3.4224   -0.8648   -1.7002 H   0  0  0  0  0  0  0  0  0  0  0  0
    4.1314    2.4022   -3.5023 H   0  0  0  0  0  0  0  0  0  0  0  0
    6.0453    3.8370   -2.3641 H   0  0  0  0  0  0  0  0  0  0  0  0
    6.6487    2.8821    0.0168 H   0  0  0  0  0  0  0  0  0  0  0  0
  1  2  1  0
  2  3  1  0
  3  4  1  0
  4  5  1  0
  5  6  1  0
  6  7  1  0
  7  8  2  0
  7  9  1  0
  9 10  2  0
 10 11  1  0
 11 12  2  0
 12 13  1  0
 13 14  2  0
 14 15  1  0
  5 16  1  0
 16 17  2  0
 16 18  1  0
 18 19  1  0
 18 20  1  0
 20 21  1  0
 21 22  2  0
 22 23  1  0
 23 24  2  0
 24 25  1  0
 14  9  1  0
 25 21  1  0
  1 26  1  0
  1 27  1  0
  1 28  1  0
  3 29  1  0
  3 30  1  0
  4 31  1  0
  4 32  1  0
  5 33  1  0
  6 34  1  0
 10 35  1  0
 11 36  1  0
 12 37  1  0
 13 38  1  0
 19 39  1  0
 19 40  1  0
 19 41  1  0
 20 42  1  0
 20 43  1  0
 22 44  1  0
 23 45  1  0
 24 46  1  0
M  END
$$$$
