
     RDKit          3D

 46 49  0  0  0  0  0  0  0  0999 V2000
   -6.0126   -1.4364    1.7022 C   0  0  0  0  0  0  0  0  0  0  0  0
   -4.6081   -1.2733    1.8486 O   0  0  0  0  0  0  0  0  0  0  0  0
   -3.9310   -0.7278    0.7924 C   0  0  0  0  0  0  0  0  0  0  0  0
   -4.4853   -0.3661   -0.4336 C   0  0  0  0  0  0  0  0  0  0  0  0
   -3.6760    0.1628   -1.4451 C   0  0  0  0  0  0  0  0  0  0  0  0
   -2.3069    0.3409   -1.2315 C   0  0  0  0  0  0  0  0  0  0  0  0
   -1.4220    0.8441   -2.1583 O   0  0  0  0  0  0  0  0  0  0  0  0
   -1.9545    1.2181   -3.4228 C   0  0  0  0  0  0  0  0  0  0  0  0
   -1.7364    0.0052    0.0172 C   0  0  0  0  0  0  0  0  0  0  0  0
   -0.3400    0.1574    0.1819 N   0  0  0  0  0  0  0  0  0  0  0  0
    0.4274    0.4313    1.3491 C   0  0  0  0  0  0  0  0  0  0  0  0
   -0.2036    0.5727    2.5451 N   0  0  0  0  0  0  0  0  0  0  0  0
    0.6640    0.8734    3.5454 C   0  0  0  0  0  0  0  0  0  0  0  0
    0.3570    1.0783    4.8268 N   0  0  0  0  0  0  0  0  0  0  0  0
    1.5766    1.3573    5.4425 O   0  0  0  0  0  0  0  0  0  0  0  0
    2.6405    1.3236    4.5407 N   0  0  0  0  0  0  0  0  0  0  0  0
    2.0794    1.0226    3.3693 C   0  0  0  0  0  0  0  0  0  0  0  0
    2.7255    0.8714    2.1829 N   0  0  0  0  0  0  0  0  0  0  0  0
    1.8736    0.5475    1.1724 C   0  0  0  0  0  0  0  0  0  0  0  0
    2.4282    0.3534   -0.1240 N   0  0  0  0  0  0  0  0  0  0  0  0
    2.2630   -1.0276   -0.6304 C   0  0  0  0  0  0  0  0  0  0  0  0
    3.5977   -1.6553   -1.0301 C   0  0  0  0  0  0  0  0  0  0  0  0
    4.3674   -0.7866   -2.0229 C   0  0  0  0  0  0  0  0  0  0  0  0
    4.2337    0.7080   -1.7269 C   0  0  0  0  0  0  0  0  0  0  0  0
    3.7577    0.9571   -0.2981 C   0  0  0  0  0  0  0  0  0  0  0  0
   -2.5607   -0.5461    1.0058 C   0  0  0  0  0  0  0  0  0  0  0  0
   -6.3989   -1.8626    2.6329 H   0  0  0  0  0  0  0  0  0  0  0  0
   -6.5085   -0.4727    1.5458 H   0  0  0  0  0  0  0  0  0  0  0  0
   -6.2455   -2.1373    0.8939 H   0  0  0  0  0  0  0  0  0  0  0  0
   -5.5433   -0.4903   -0.6400 H   0  0  0  0  0  0  0  0  0  0  0  0
   -4.1479    0.4214   -2.3866 H   0  0  0  0  0  0  0  0  0  0  0  0
   -1.1290    1.5961   -4.0331 H   0  0  0  0  0  0  0  0  0  0  0  0
   -2.3834    0.3546   -3.9420 H   0  0  0  0  0  0  0  0  0  0  0  0
   -2.6882    2.0243   -3.3192 H   0  0  0  0  0  0  0  0  0  0  0  0
    0.0618    0.6670   -0.6081 H   0  0  0  0  0  0  0  0  0  0  0  0
    1.6102   -0.9918   -1.5111 H   0  0  0  0  0  0  0  0  0  0  0  0
    1.7830   -1.6881    0.1032 H   0  0  0  0  0  0  0  0  0  0  0  0
    4.2093   -1.8043   -0.1307 H   0  0  0  0  0  0  0  0  0  0  0  0
    3.4322   -2.6498   -1.4599 H   0  0  0  0  0  0  0  0  0  0  0  0
    5.4245   -1.0777   -2.0048 H   0  0  0  0  0  0  0  0  0  0  0  0
    4.0145   -0.9813   -3.0433 H   0  0  0  0  0  0  0  0  0  0  0  0
    3.5160    1.1481   -2.4318 H   0  0  0  0  0  0  0  0  0  0  0  0
    5.1927    1.2086   -1.9015 H   0  0  0  0  0  0  0  0  0  0  0  0
    4.4903    0.5443    0.4080 H   0  0  0  0  0  0  0  0  0  0  0  0
    3.6986    2.0400   -0.1305 H   0  0  0  0  0  0  0  0  0  0  0  0
   -2.1429   -0.8541    1.9604 H   0  0  0  0  0  0  0  0  0  0  0  0
  1  2  1  0
  2  3  1  0
  3  4  2  0
  4  5  1  0
  5  6  2  0
  6  7  1  0
  7  8  1  0
  6  9  1  0
  9 10  1  0
 10 11  1  0
 11 12  2  0
 12 13  1  0
 13 14  2  0
 14 15  1  0
 15 16  1  0
 16 17  2  0
 17 18  1  0
 18 19  2  0
 19 20  1  0
 20 21  1  0
 21 22  1  0
 22 23  1  0
 23 24  1  0
 24 25  1  0
  9 26  2  0
 26  3  1  0
 19 11  1  0
 25 20  1  0
 17 13  1  0
  1 27  1  0
  1 28  1  0
  1 29  1  0
  4 30  1  0
  5 31  1  0
  8 32  1  0
  8 33  1  0
  8 34  1  0
 10 35  1  0
 21 36  1  0
 21 37  1  0
 22 38  1  0
 22 39  1  0
 23 40  1  0
 23 41  1  0
 24 42  1  0
 24 43  1  0
 25 44  1  0
 25 45  1  0
 26 46  1  0
M  END
$$$$
