
     RDKit          3D

 49 51  0  0  0  0  0  0  0  0999 V2000
   -2.3644   -0.5224    3.5105 C   0  0  0  0  0  0  0  0  0  0  0  0
   -2.5104   -1.0261    2.0965 C   0  0  0  0  0  0  0  0  0  0  0  0
   -3.3996   -2.2083    1.8959 C   0  0  0  0  0  0  0  0  0  0  0  0
   -3.5089   -2.6296    0.6278 C   0  0  0  0  0  0  0  0  0  0  0  0
   -4.3685   -3.7912    0.2316 C   0  0  0  0  0  0  0  0  0  0  0  0
   -2.8113   -1.9733   -0.3562 N   0  0  0  0  0  0  0  0  0  0  0  0
   -2.0260   -0.8793   -0.1251 C   0  0  0  0  0  0  0  0  0  0  0  0
   -1.4260   -0.3311   -1.1326 N   0  0  0  0  0  0  0  0  0  0  0  0
   -0.6336    0.7844   -1.0703 C   0  0  0  0  0  0  0  0  0  0  0  0
    0.0927    1.0595   -2.1064 N   0  0  0  0  0  0  0  0  0  0  0  0
    0.1779    0.1322   -3.4230 S   0  0  0  0  0  6  0  0  0  0  0  0
    1.1184    0.7513   -4.3448 O   0  0  0  0  0  0  0  0  0  0  0  0
   -1.1479   -0.1947   -3.9229 O   0  0  0  0  0  0  0  0  0  0  0  0
    0.9338   -1.3906   -2.8505 C   0  0  0  0  0  0  0  0  0  0  0  0
    2.1389   -1.1275   -1.9804 C   0  0  0  0  0  0  0  0  0  0  0  0
    3.3478   -0.6870   -2.5382 C   0  0  0  0  0  0  0  0  0  0  0  0
    4.4533   -0.4312   -1.7255 C   0  0  0  0  0  0  0  0  0  0  0  0
    4.3660   -0.6177   -0.3479 C   0  0  0  0  0  0  0  0  0  0  0  0
    3.1744   -1.0640    0.2185 C   0  0  0  0  0  0  0  0  0  0  0  0
    2.0682   -1.3223   -0.5923 C   0  0  0  0  0  0  0  0  0  0  0  0
   -0.6409    1.6030    0.0319 N   0  0  0  0  0  0  0  0  0  0  0  0
    0.2961    2.5590    0.4770 C   0  0  0  0  0  0  0  0  0  0  0  0
    1.5257    2.7871   -0.1563 C   0  0  0  0  0  0  0  0  0  0  0  0
    2.4095    3.7756    0.2939 C   0  0  0  0  0  0  0  0  0  0  0  0
    2.0760    4.5733    1.3826 C   0  0  0  0  0  0  0  0  0  0  0  0
    0.8551    4.3852    2.0221 C   0  0  0  0  0  0  0  0  0  0  0  0
   -0.0246    3.3943    1.5694 C   0  0  0  0  0  0  0  0  0  0  0  0
   -1.6830    3.2179    2.4895 Br  0  0  0  0  0  0  0  0  0  0  0  0
   -1.8781   -0.3924    1.1526 N   0  0  0  0  0  0  0  0  0  0  0  0
   -2.5961   -1.3079    4.2347 H   0  0  0  0  0  0  0  0  0  0  0  0
   -1.3374   -0.1853    3.6792 H   0  0  0  0  0  0  0  0  0  0  0  0
   -3.0480    0.3173    3.6630 H   0  0  0  0  0  0  0  0  0  0  0  0
   -3.9105   -2.6558    2.7366 H   0  0  0  0  0  0  0  0  0  0  0  0
   -4.8769   -4.2369    1.0931 H   0  0  0  0  0  0  0  0  0  0  0  0
   -3.7609   -4.5710   -0.2393 H   0  0  0  0  0  0  0  0  0  0  0  0
   -5.1354   -3.4716   -0.4817 H   0  0  0  0  0  0  0  0  0  0  0  0
   -2.9406   -2.2409   -1.3241 H   0  0  0  0  0  0  0  0  0  0  0  0
    1.2246   -1.9625   -3.7386 H   0  0  0  0  0  0  0  0  0  0  0  0
    0.1785   -1.9792   -2.3224 H   0  0  0  0  0  0  0  0  0  0  0  0
    3.4348   -0.5230   -3.6116 H   0  0  0  0  0  0  0  0  0  0  0  0
    5.3811   -0.0796   -2.1696 H   0  0  0  0  0  0  0  0  0  0  0  0
    5.2259   -0.4125    0.2840 H   0  0  0  0  0  0  0  0  0  0  0  0
    3.1042   -1.2056    1.2938 H   0  0  0  0  0  0  0  0  0  0  0  0
    1.1464   -1.6648   -0.1269 H   0  0  0  0  0  0  0  0  0  0  0  0
   -1.2568    1.2770    0.7747 H   0  0  0  0  0  0  0  0  0  0  0  0
    1.8433    2.1896   -1.0062 H   0  0  0  0  0  0  0  0  0  0  0  0
    3.3585    3.9178   -0.2180 H   0  0  0  0  0  0  0  0  0  0  0  0
    2.7621    5.3429    1.7260 H   0  0  0  0  0  0  0  0  0  0  0  0
    0.5925    5.0174    2.8661 H   0  0  0  0  0  0  0  0  0  0  0  0
  1  2  1  0
  2  3  1  0
  3  4  2  0
  4  5  1  0
  4  6  1  0
  6  7  1  0
  7  8  2  3
  8  9  1  0
  9 10  2  3
 10 11  1  0
 11 12  2  0
 11 13  2  0
 11 14  1  0
 14 15  1  0
 15 16  2  0
 16 17  1  0
 17 18  2  0
 18 19  1  0
 19 20  2  0
  9 21  1  0
 21 22  1  0
 22 23  2  0
 23 24  1  0
 24 25  2  0
 25 26  1  0
 26 27  2  0
 27 28  1  0
  7 29  1  0
 29  2  2  0
 20 15  1  0
 27 22  1  0
  1 30  1  0
  1 31  1  0
  1 32  1  0
  3 33  1  0
  5 34  1  0
  5 35  1  0
  5 36  1  0
  6 37  1  0
 14 38  1  0
 14 39  1  0
 16 40  1  0
 17 41  1  0
 18 42  1  0
 19 43  1  0
 20 44  1  0
 21 45  1  0
 23 46  1  0
 24 47  1  0
 25 48  1  0
 26 49  1  0
M  END
$$$$
