
     RDKit          3D

 48 50  0  0  0  0  0  0  0  0999 V2000
   -2.6857    2.8234    0.7485 O   0  0  0  0  0  0  0  0  0  0  0  0
   -1.7473    2.8240   -0.0465 C   0  0  0  0  0  0  0  0  0  0  0  0
   -0.4059    3.4714    0.2347 C   0  0  0  0  0  0  0  0  0  0  0  0
   -0.1732    3.7331    1.7240 C   0  0  0  0  0  0  0  0  0  0  0  0
   -0.0806    2.4658    2.5876 C   0  0  0  0  0  0  0  0  0  0  0  0
    1.1156    1.6650    2.3117 N   0  0  0  0  0  0  0  0  0  0  0  0
    1.0329    0.6346    1.3904 C   0  0  0  0  0  0  0  0  0  0  0  0
    0.0381    0.3187    0.7519 O   0  0  0  0  0  0  0  0  0  0  0  0
    2.3472   -0.0404    1.2481 C   0  0  0  0  0  0  0  0  0  0  0  0
    2.5331   -1.0484    0.3861 C   0  0  0  0  0  0  0  0  0  0  0  0
    3.8100   -1.7401    0.1669 C   0  0  0  0  0  0  0  0  0  0  0  0
    4.0624   -2.9141    0.8911 C   0  0  0  0  0  0  0  0  0  0  0  0
    5.2654   -3.6040    0.7249 C   0  0  0  0  0  0  0  0  0  0  0  0
    6.2267   -3.1289   -0.1652 C   0  0  0  0  0  0  0  0  0  0  0  0
    5.9870   -1.9626   -0.8923 C   0  0  0  0  0  0  0  0  0  0  0  0
    4.7844   -1.2691   -0.7288 C   0  0  0  0  0  0  0  0  0  0  0  0
    4.5439    0.1669   -1.6631 Cl  0  0  0  0  0  0  0  0  0  0  0  0
    3.4998    0.6787    2.2955 S   0  0  0  0  0  0  0  0  0  0  0  0
    2.3479    1.8627    2.9032 C   0  0  0  0  0  0  0  0  0  0  0  0
    2.7800    3.0138    4.0309 S   0  0  0  0  0  0  0  0  0  0  0  0
   -1.8370    2.2747   -1.3121 N   0  0  0  0  0  0  0  0  0  0  0  0
   -2.9489    1.4377   -1.5487 N   0  0  0  0  0  0  0  0  0  0  0  0
   -2.6995    0.2715   -2.2507 C   0  0  0  0  0  0  0  0  0  0  0  0
   -1.6359    0.0624   -2.8300 O   0  0  0  0  0  0  0  0  0  0  0  0
   -3.7806   -0.7529   -2.2480 C   0  0  0  0  0  0  0  0  0  0  0  0
   -5.1230   -0.4240   -2.0124 C   0  0  0  0  0  0  0  0  0  0  0  0
   -6.1009   -1.4244   -2.0242 C   0  0  0  0  0  0  0  0  0  0  0  0
   -5.7408   -2.7477   -2.2771 C   0  0  0  0  0  0  0  0  0  0  0  0
   -6.9475   -3.9733   -2.2905 Cl  0  0  0  0  0  0  0  0  0  0  0  0
   -4.4111   -3.0821   -2.5251 C   0  0  0  0  0  0  0  0  0  0  0  0
   -3.4322   -2.0848   -2.5145 C   0  0  0  0  0  0  0  0  0  0  0  0
    0.4017    2.8628   -0.1834 H   0  0  0  0  0  0  0  0  0  0  0  0
   -0.3966    4.4302   -0.2978 H   0  0  0  0  0  0  0  0  0  0  0  0
   -0.9909    4.3534    2.1117 H   0  0  0  0  0  0  0  0  0  0  0  0
    0.7447    4.3225    1.8312 H   0  0  0  0  0  0  0  0  0  0  0  0
   -0.9685    1.8391    2.4516 H   0  0  0  0  0  0  0  0  0  0  0  0
   -0.0728    2.7586    3.6429 H   0  0  0  0  0  0  0  0  0  0  0  0
    1.7100   -1.4015   -0.2331 H   0  0  0  0  0  0  0  0  0  0  0  0
    3.3252   -3.2992    1.5928 H   0  0  0  0  0  0  0  0  0  0  0  0
    5.4527   -4.5127    1.2926 H   0  0  0  0  0  0  0  0  0  0  0  0
    7.1633   -3.6664   -0.2931 H   0  0  0  0  0  0  0  0  0  0  0  0
    6.7415   -1.5986   -1.5851 H   0  0  0  0  0  0  0  0  0  0  0  0
   -0.9844    1.9672   -1.7841 H   0  0  0  0  0  0  0  0  0  0  0  0
   -3.6524    1.4594   -0.8106 H   0  0  0  0  0  0  0  0  0  0  0  0
   -5.4333    0.6034   -1.8418 H   0  0  0  0  0  0  0  0  0  0  0  0
   -7.1410   -1.1641   -1.8430 H   0  0  0  0  0  0  0  0  0  0  0  0
   -4.1291   -4.1118   -2.7291 H   0  0  0  0  0  0  0  0  0  0  0  0
   -2.3946   -2.3498   -2.7118 H   0  0  0  0  0  0  0  0  0  0  0  0
  1  2  2  0
  2  3  1  0
  3  4  1  0
  4  5  1  0
  5  6  1  0
  6  7  1  0
  7  8  2  0
  7  9  1  0
  9 10  2  3
 10 11  1  0
 11 12  2  0
 12 13  1  0
 13 14  2  0
 14 15  1  0
 15 16  2  0
 16 17  1  0
  9 18  1  0
 18 19  1  0
 19 20  2  0
  2 21  1  0
 21 22  1  0
 22 23  1  0
 23 24  2  0
 23 25  1  0
 25 26  2  0
 26 27  1  0
 27 28  2  0
 28 29  1  0
 28 30  1  0
 30 31  2  0
 19  6  1  0
 31 25  1  0
 16 11  1  0
  3 32  1  0
  3 33  1  0
  4 34  1  0
  4 35  1  0
  5 36  1  0
  5 37  1  0
 10 38  1  0
 12 39  1  0
 13 40  1  0
 14 41  1  0
 15 42  1  0
 21 43  1  0
 22 44  1  0
 26 45  1  0
 27 46  1  0
 30 47  1  0
 31 48  1  0
M  END
$$$$
