
     RDKit          3D

 48 50  0  0  0  0  0  0  0  0999 V2000
    3.8567   -0.9589   -3.3803 C   0  0  0  0  0  0  0  0  0  0  0  0
    3.9188   -0.5697   -1.9477 C   0  0  0  0  0  0  0  0  0  0  0  0
    4.9008    0.2115   -1.3466 C   0  0  0  0  0  0  0  0  0  0  0  0
    6.0752    0.8383   -1.8998 C   0  0  0  0  0  0  0  0  0  0  0  0
    6.4580    0.8104   -3.0614 O   0  0  0  0  0  0  0  0  0  0  0  0
    6.7841    1.5179   -0.9707 O   0  0  0  0  0  0  0  0  0  0  0  0
    4.6258    0.3551   -0.0129 O   0  0  0  0  0  0  0  0  0  0  0  0
    3.4811   -0.3255    0.2467 C   0  0  0  0  0  0  0  0  0  0  0  0
    2.8733   -0.4244    1.4976 C   0  0  0  0  0  0  0  0  0  0  0  0
    1.6933   -1.1714    1.5643 C   0  0  0  0  0  0  0  0  0  0  0  0
    1.1684   -1.7716    0.4140 C   0  0  0  0  0  0  0  0  0  0  0  0
   -0.3330   -2.7166    0.5205 S   0  0  0  0  0  6  0  0  0  0  0  0
   -0.1946   -3.8561   -0.3587 O   0  0  0  0  0  0  0  0  0  0  0  0
   -0.6970   -2.8634    1.9116 O   0  0  0  0  0  0  0  0  0  0  0  0
   -1.4326   -1.6878   -0.2075 N   0  0  0  0  0  0  0  0  0  0  0  0
   -1.9790   -0.5322    0.5278 C   0  0  0  0  0  0  0  0  0  0  0  0
   -3.3579   -0.9373    1.0667 C   0  0  0  0  0  0  0  0  0  0  0  0
   -3.7579   -0.2966    2.3979 C   0  0  0  0  0  0  0  0  0  0  0  0
   -3.6721    1.2249    2.5018 C   0  0  0  0  0  0  0  0  0  0  0  0
   -4.2550    1.9652    1.3010 C   0  0  0  0  0  0  0  0  0  0  0  0
   -3.2241    2.7328    0.4760 C   0  0  0  0  0  0  0  0  0  0  0  0
   -1.9049    2.0283    0.1584 C   0  0  0  0  0  0  0  0  0  0  0  0
   -2.0199    0.6415   -0.4741 C   0  0  0  0  0  0  0  0  0  0  0  0
    1.8077   -1.6664   -0.8339 C   0  0  0  0  0  0  0  0  0  0  0  0
    2.9960   -0.9164   -0.9129 C   0  0  0  0  0  0  0  0  0  0  0  0
    4.7471   -1.5307   -3.6606 H   0  0  0  0  0  0  0  0  0  0  0  0
    2.9803   -1.5788   -3.5922 H   0  0  0  0  0  0  0  0  0  0  0  0
    3.7995   -0.0696   -4.0163 H   0  0  0  0  0  0  0  0  0  0  0  0
    7.5382    1.8810   -1.4759 H   0  0  0  0  0  0  0  0  0  0  0  0
    3.3029    0.0532    2.3705 H   0  0  0  0  0  0  0  0  0  0  0  0
    1.1891   -1.2792    2.5233 H   0  0  0  0  0  0  0  0  0  0  0  0
   -1.9565   -2.0926   -0.9815 H   0  0  0  0  0  0  0  0  0  0  0  0
   -1.3016   -0.2850    1.3526 H   0  0  0  0  0  0  0  0  0  0  0  0
   -3.3848   -2.0233    1.2338 H   0  0  0  0  0  0  0  0  0  0  0  0
   -4.1305   -0.7578    0.3097 H   0  0  0  0  0  0  0  0  0  0  0  0
   -3.1444   -0.7290    3.1987 H   0  0  0  0  0  0  0  0  0  0  0  0
   -4.7899   -0.6014    2.6158 H   0  0  0  0  0  0  0  0  0  0  0  0
   -4.2321    1.5216    3.3987 H   0  0  0  0  0  0  0  0  0  0  0  0
   -2.6392    1.5261    2.7029 H   0  0  0  0  0  0  0  0  0  0  0  0
   -4.9891    2.6959    1.6657 H   0  0  0  0  0  0  0  0  0  0  0  0
   -4.8258    1.2954    0.6499 H   0  0  0  0  0  0  0  0  0  0  0  0
   -3.6999    3.0385   -0.4647 H   0  0  0  0  0  0  0  0  0  0  0  0
   -2.9829    3.6652    1.0029 H   0  0  0  0  0  0  0  0  0  0  0  0
   -1.3719    2.6753   -0.5519 H   0  0  0  0  0  0  0  0  0  0  0  0
   -1.2617    1.9936    1.0449 H   0  0  0  0  0  0  0  0  0  0  0  0
   -2.8988    0.5795   -1.1274 H   0  0  0  0  0  0  0  0  0  0  0  0
   -1.1528    0.5420   -1.1433 H   0  0  0  0  0  0  0  0  0  0  0  0
    1.3934   -2.1515   -1.7133 H   0  0  0  0  0  0  0  0  0  0  0  0
  1  2  1  0
  2  3  2  0
  3  4  1  0
  4  5  2  0
  4  6  1  0
  3  7  1  0
  7  8  1  0
  8  9  2  0
  9 10  1  0
 10 11  2  0
 11 12  1  0
 12 13  2  0
 12 14  2  0
 12 15  1  0
 15 16  1  0
 16 17  1  0
 17 18  1  0
 18 19  1  0
 19 20  1  0
 20 21  1  0
 21 22  1  0
 22 23  1  0
 11 24  1  0
 24 25  2  0
 25  2  1  0
 25  8  1  0
 23 16  1  0
  1 26  1  0
  1 27  1  0
  1 28  1  0
  6 29  1  0
  9 30  1  0
 10 31  1  0
 15 32  1  0
 16 33  1  0
 17 34  1  0
 17 35  1  0
 18 36  1  0
 18 37  1  0
 19 38  1  0
 19 39  1  0
 20 40  1  0
 20 41  1  0
 21 42  1  0
 21 43  1  0
 22 44  1  0
 22 45  1  0
 23 46  1  0
 23 47  1  0
 24 48  1  0
M  END
$$$$
