
     RDKit          3D

 52 55  0  0  0  0  0  0  0  0999 V2000
    5.1012    2.6302    0.4576 C   0  0  0  0  0  0  0  0  0  0  0  0
    4.6455    2.0072   -0.7461 O   0  0  0  0  0  0  0  0  0  0  0  0
    5.1038    0.7096   -0.7916 C   0  0  0  0  0  0  0  0  0  0  0  0
    6.3271    0.5066   -1.4445 C   0  0  0  0  0  0  0  0  0  0  0  0
    6.8795   -0.7662   -1.4993 C   0  0  0  0  0  0  0  0  0  0  0  0
    6.2049   -1.8289   -0.9064 C   0  0  0  0  0  0  0  0  0  0  0  0
    4.9699   -1.6208   -0.2746 C   0  0  0  0  0  0  0  0  0  0  0  0
    4.3653   -0.3525   -0.2155 C   0  0  0  0  0  0  0  0  0  0  0  0
    3.1239   -0.1638    0.3946 N   0  0  0  0  0  0  0  0  0  0  0  0
    2.1631    0.7506   -0.2578 C   0  0  0  0  0  0  0  0  0  0  0  0
    0.7107    0.2233   -0.1486 C   0  0  0  0  0  0  0  0  0  0  0  0
    0.2291   -0.1106    1.2207 N   0  0  0  0  0  0  0  0  0  0  0  0
   -0.4259    1.0635    1.8606 C   0  0  0  0  0  0  0  0  0  0  0  0
   -1.8259    1.3218    1.2798 C   0  0  0  0  0  0  0  0  0  0  0  0
   -2.3322    2.4387    1.3302 O   0  0  0  0  0  0  0  0  0  0  0  0
   -2.4089    0.1697    0.7819 N   0  0  0  0  0  0  0  0  0  0  0  0
   -3.6790    0.0117    0.2062 C   0  0  0  0  0  0  0  0  0  0  0  0
   -4.6099    1.0425    0.0846 C   0  0  0  0  0  0  0  0  0  0  0  0
   -5.8610    0.8056   -0.4984 C   0  0  0  0  0  0  0  0  0  0  0  0
   -6.1970   -0.4721   -0.9627 C   0  0  0  0  0  0  0  0  0  0  0  0
   -7.4728   -0.6927   -1.5347 N   0  0  0  0  0  0  0  0  0  0  0  0
   -8.0361   -1.8573   -1.9967 C   0  0  0  0  0  0  0  0  0  0  0  0
   -9.2475   -1.6115   -2.4395 N   0  0  0  0  0  0  0  0  0  0  0  0
   -9.4434   -0.2683   -2.2541 N   0  0  0  0  0  0  0  0  0  0  0  0
   -8.3798    0.2978   -1.6998 N   0  0  0  0  0  0  0  0  0  0  0  0
   -5.2668   -1.5112   -0.8427 C   0  0  0  0  0  0  0  0  0  0  0  0
   -4.0158   -1.2631   -0.2628 C   0  0  0  0  0  0  0  0  0  0  0  0
    1.3640   -0.5573    2.0733 C   0  0  0  0  0  0  0  0  0  0  0  0
    2.5462   -1.1749    1.2898 C   0  0  0  0  0  0  0  0  0  0  0  0
    4.8896    2.0242    1.3467 H   0  0  0  0  0  0  0  0  0  0  0  0
    6.1729    2.8491    0.3921 H   0  0  0  0  0  0  0  0  0  0  0  0
    4.5661    3.5788    0.5638 H   0  0  0  0  0  0  0  0  0  0  0  0
    6.8458    1.3466   -1.8986 H   0  0  0  0  0  0  0  0  0  0  0  0
    7.8311   -0.9286   -1.9980 H   0  0  0  0  0  0  0  0  0  0  0  0
    6.6308   -2.8297   -0.9401 H   0  0  0  0  0  0  0  0  0  0  0  0
    4.4756   -2.4914    0.1470 H   0  0  0  0  0  0  0  0  0  0  0  0
    2.3841    0.8664   -1.3265 H   0  0  0  0  0  0  0  0  0  0  0  0
    2.2244    1.7367    0.2180 H   0  0  0  0  0  0  0  0  0  0  0  0
    0.6456   -0.7038   -0.7344 H   0  0  0  0  0  0  0  0  0  0  0  0
    0.0334    0.9256   -0.6489 H   0  0  0  0  0  0  0  0  0  0  0  0
    0.1820    1.9686    1.7529 H   0  0  0  0  0  0  0  0  0  0  0  0
   -0.5799    0.8709    2.9299 H   0  0  0  0  0  0  0  0  0  0  0  0
   -1.7870   -0.6358    0.8071 H   0  0  0  0  0  0  0  0  0  0  0  0
   -4.4004    2.0466    0.4408 H   0  0  0  0  0  0  0  0  0  0  0  0
   -6.5610    1.6373   -0.5670 H   0  0  0  0  0  0  0  0  0  0  0  0
   -7.5500   -2.8195   -1.9866 H   0  0  0  0  0  0  0  0  0  0  0  0
   -5.4749   -2.5223   -1.1818 H   0  0  0  0  0  0  0  0  0  0  0  0
   -3.3071   -2.0862   -0.1780 H   0  0  0  0  0  0  0  0  0  0  0  0
    1.7634    0.2888    2.6542 H   0  0  0  0  0  0  0  0  0  0  0  0
    0.9837   -1.2927    2.7926 H   0  0  0  0  0  0  0  0  0  0  0  0
    2.2033   -2.0481    0.7203 H   0  0  0  0  0  0  0  0  0  0  0  0
    3.2963   -1.5093    2.0152 H   0  0  0  0  0  0  0  0  0  0  0  0
  1  2  1  0
  2  3  1  0
  3  4  2  0
  4  5  1  0
  5  6  2  0
  6  7  1  0
  7  8  2  0
  8  9  1  0
  9 10  1  0
 10 11  1  0
 11 12  1  0
 12 13  1  0
 13 14  1  0
 14 15  2  0
 14 16  1  0
 16 17  1  0
 17 18  2  0
 18 19  1  0
 19 20  2  0
 20 21  1  0
 21 22  1  0
 22 23  2  0
 23 24  1  0
 24 25  2  0
 20 26  1  0
 26 27  2  0
 12 28  1  0
 28 29  1  0
  8  3  1  0
 29  9  1  0
 27 17  1  0
 25 21  1  0
  1 30  1  0
  1 31  1  0
  1 32  1  0
  4 33  1  0
  5 34  1  0
  6 35  1  0
  7 36  1  0
 10 37  1  0
 10 38  1  0
 11 39  1  0
 11 40  1  0
 13 41  1  0
 13 42  1  0
 16 43  1  0
 18 44  1  0
 19 45  1  0
 22 46  1  0
 26 47  1  0
 27 48  1  0
 28 49  1  0
 28 50  1  0
 29 51  1  0
 29 52  1  0
M  END
$$$$
