
     RDKit          3D

 48 50  0  0  0  0  0  0  0  0999 V2000
   -2.7331    0.8978    1.7234 O   0  0  0  0  0  0  0  0  0  0  0  0
   -2.4167    0.4436    0.6199 C   0  0  0  0  0  0  0  0  0  0  0  0
   -1.0161    0.6912    0.0509 C   0  0  0  0  0  0  0  0  0  0  0  0
   -0.0043    0.4869    1.1136 N   0  0  0  0  0  0  0  0  0  0  0  0
    1.0267    1.4650    1.2744 C   0  0  0  0  0  0  0  0  0  0  0  0
    1.3159    1.9351    2.5528 C   0  0  0  0  0  0  0  0  0  0  0  0
    2.3587    2.8418    2.7458 C   0  0  0  0  0  0  0  0  0  0  0  0
    3.1268    3.2745    1.6605 C   0  0  0  0  0  0  0  0  0  0  0  0
    4.4068    4.3858    1.9818 Cl  0  0  0  0  0  0  0  0  0  0  0  0
    2.8586    2.8039    0.3692 C   0  0  0  0  0  0  0  0  0  0  0  0
    3.6803    3.2373   -0.8139 C   0  0  0  0  0  0  0  0  0  0  0  0
    3.6626    4.5823   -1.0164 F   0  0  0  0  0  0  0  0  0  0  0  0
    4.9876    2.8734   -0.7171 F   0  0  0  0  0  0  0  0  0  0  0  0
    3.2416    2.6935   -1.9879 F   0  0  0  0  0  0  0  0  0  0  0  0
    1.8001    1.8905    0.1902 C   0  0  0  0  0  0  0  0  0  0  0  0
    0.3694   -1.1294    1.5127 S   0  0  0  0  0  6  0  0  0  0  0  0
   -0.7932   -1.9523    1.2460 O   0  0  0  0  0  0  0  0  0  0  0  0
    1.0341   -1.1697    2.7987 O   0  0  0  0  0  0  0  0  0  0  0  0
    1.5924   -1.5646    0.2843 C   0  0  0  0  0  0  0  0  0  0  0  0
    2.9482   -1.3517    0.5571 C   0  0  0  0  0  0  0  0  0  0  0  0
    3.9032   -1.6922   -0.3999 C   0  0  0  0  0  0  0  0  0  0  0  0
    3.5055   -2.2611   -1.6109 C   0  0  0  0  0  0  0  0  0  0  0  0
    2.1542   -2.5026   -1.8658 C   0  0  0  0  0  0  0  0  0  0  0  0
    1.1922   -2.1622   -0.9150 C   0  0  0  0  0  0  0  0  0  0  0  0
   -3.3189   -0.2751   -0.1493 N   0  0  0  0  0  0  0  0  0  0  0  0
   -4.5922   -0.6852    0.4496 C   0  0  0  0  0  0  0  0  0  0  0  0
   -5.0083   -2.0691   -0.0593 C   0  0  0  0  0  0  0  0  0  0  0  0
   -5.1437   -2.1461   -1.4876 O   0  0  0  0  0  0  0  0  0  0  0  0
   -4.3839   -1.1636   -2.1998 C   0  0  0  0  0  0  0  0  0  0  0  0
   -3.0749   -0.7827   -1.5004 C   0  0  0  0  0  0  0  0  0  0  0  0
   -1.0099    1.7268   -0.3092 H   0  0  0  0  0  0  0  0  0  0  0  0
   -0.7810    0.0519   -0.8010 H   0  0  0  0  0  0  0  0  0  0  0  0
    0.7309    1.5954    3.4061 H   0  0  0  0  0  0  0  0  0  0  0  0
    2.5698    3.2007    3.7511 H   0  0  0  0  0  0  0  0  0  0  0  0
    1.5968    1.4987   -0.8052 H   0  0  0  0  0  0  0  0  0  0  0  0
    3.2650   -0.9241    1.5063 H   0  0  0  0  0  0  0  0  0  0  0  0
    4.9591   -1.5252   -0.1989 H   0  0  0  0  0  0  0  0  0  0  0  0
    4.2541   -2.5334   -2.3519 H   0  0  0  0  0  0  0  0  0  0  0  0
    1.8555   -2.9692   -2.8019 H   0  0  0  0  0  0  0  0  0  0  0  0
    0.1448   -2.3773   -1.1104 H   0  0  0  0  0  0  0  0  0  0  0  0
   -5.3336    0.0665    0.1550 H   0  0  0  0  0  0  0  0  0  0  0  0
   -4.5246   -0.6908    1.5420 H   0  0  0  0  0  0  0  0  0  0  0  0
   -4.2668   -2.8195    0.2385 H   0  0  0  0  0  0  0  0  0  0  0  0
   -5.9675   -2.3628    0.3785 H   0  0  0  0  0  0  0  0  0  0  0  0
   -4.1767   -1.5641   -3.1971 H   0  0  0  0  0  0  0  0  0  0  0  0
   -5.0192   -0.2795   -2.3285 H   0  0  0  0  0  0  0  0  0  0  0  0
   -2.5440   -0.0252   -2.0847 H   0  0  0  0  0  0  0  0  0  0  0  0
   -2.4323   -1.6641   -1.3966 H   0  0  0  0  0  0  0  0  0  0  0  0
  1  2  2  0
  2  3  1  0
  3  4  1  0
  4  5  1  0
  5  6  2  0
  6  7  1  0
  7  8  2  0
  8  9  1  0
  8 10  1  0
 10 11  1  0
 11 12  1  0
 11 13  1  0
 11 14  1  0
 10 15  2  0
  4 16  1  0
 16 17  2  0
 16 18  2  0
 16 19  1  0
 19 20  2  0
 20 21  1  0
 21 22  2  0
 22 23  1  0
 23 24  2  0
  2 25  1  0
 25 26  1  0
 26 27  1  0
 27 28  1  0
 28 29  1  0
 29 30  1  0
 15  5  1  0
 24 19  1  0
 30 25  1  0
  3 31  1  0
  3 32  1  0
  6 33  1  0
  7 34  1  0
 15 35  1  0
 20 36  1  0
 21 37  1  0
 22 38  1  0
 23 39  1  0
 24 40  1  0
 26 41  1  0
 26 42  1  0
 27 43  1  0
 27 44  1  0
 29 45  1  0
 29 46  1  0
 30 47  1  0
 30 48  1  0
M  END
$$$$
