
     RDKit          3D

 41 42  0  0  0  0  0  0  0  0999 V2000
   -3.6705    2.5358    0.9742 C   0  0  0  0  0  0  0  0  0  0  0  0
   -3.6148    1.3251    0.0536 C   0  0  0  0  0  0  0  0  0  0  0  0
   -2.5997    0.3602    0.5206 N   0  0  0  0  0  0  0  0  0  0  0  0
   -3.1271   -0.6218    1.4901 C   0  0  0  0  0  0  0  0  0  0  0  0
   -3.5316   -1.9105    0.7895 C   0  0  0  0  0  0  0  0  0  0  0  0
   -1.2631    0.3523    0.0566 C   0  0  0  0  0  0  0  0  0  0  0  0
   -0.3262   -0.5301    0.4730 C   0  0  0  0  0  0  0  0  0  0  0  0
    1.0420   -0.5506   -0.0189 C   0  0  0  0  0  0  0  0  0  0  0  0
    2.0343   -1.1072    0.6981 C   0  0  0  0  0  0  0  0  0  0  0  0
    3.4440   -0.9905    0.3197 C   0  0  0  0  0  0  0  0  0  0  0  0
    4.4166   -1.7947    0.8158 C   0  0  0  0  0  0  0  0  0  0  0  0
    4.1300   -2.8588    1.7216 C   0  0  0  0  0  0  0  0  0  0  0  0
    3.8868   -3.7187    2.4625 N   0  0  0  0  0  0  0  0  0  0  0  0
    5.7840   -1.6228    0.4512 C   0  0  0  0  0  0  0  0  0  0  0  0
    6.8940   -1.4721    0.1472 N   0  0  0  0  0  0  0  0  0  0  0  0
    3.7045    0.1630   -0.6404 C   0  0  0  0  0  0  0  0  0  0  0  0
    2.7228    0.1396   -1.8083 C   0  0  0  0  0  0  0  0  0  0  0  0
    1.2565    0.1305   -1.3520 C   0  0  0  0  0  0  0  0  0  0  0  0
    0.6469    1.5273   -1.2551 C   0  0  0  0  0  0  0  0  0  0  0  0
   -0.8595    1.4189   -0.9684 C   0  0  0  0  0  0  0  0  0  0  0  0
   -2.7059    3.0499    1.0225 H   0  0  0  0  0  0  0  0  0  0  0  0
   -3.9415    2.2453    1.9944 H   0  0  0  0  0  0  0  0  0  0  0  0
   -4.4192    3.2490    0.6156 H   0  0  0  0  0  0  0  0  0  0  0  0
   -3.4245    1.6434   -0.9765 H   0  0  0  0  0  0  0  0  0  0  0  0
   -4.6027    0.8482    0.0282 H   0  0  0  0  0  0  0  0  0  0  0  0
   -4.0041   -0.2133    2.0077 H   0  0  0  0  0  0  0  0  0  0  0  0
   -2.3976   -0.8243    2.2818 H   0  0  0  0  0  0  0  0  0  0  0  0
   -2.6791   -2.3856    0.2944 H   0  0  0  0  0  0  0  0  0  0  0  0
   -4.2953   -1.7212    0.0280 H   0  0  0  0  0  0  0  0  0  0  0  0
   -3.9419   -2.6215    1.5133 H   0  0  0  0  0  0  0  0  0  0  0  0
   -0.5617   -1.2648    1.2353 H   0  0  0  0  0  0  0  0  0  0  0  0
    1.7921   -1.6152    1.6309 H   0  0  0  0  0  0  0  0  0  0  0  0
    3.6076    1.1103   -0.0936 H   0  0  0  0  0  0  0  0  0  0  0  0
    4.7196    0.1444   -1.0497 H   0  0  0  0  0  0  0  0  0  0  0  0
    2.9109   -0.7682   -2.3987 H   0  0  0  0  0  0  0  0  0  0  0  0
    2.9166    0.9844   -2.4797 H   0  0  0  0  0  0  0  0  0  0  0  0
    0.6976   -0.4248   -2.1201 H   0  0  0  0  0  0  0  0  0  0  0  0
    1.1343    2.1066   -0.4595 H   0  0  0  0  0  0  0  0  0  0  0  0
    0.7944    2.0834   -2.1885 H   0  0  0  0  0  0  0  0  0  0  0  0
   -1.3718    1.1904   -1.9122 H   0  0  0  0  0  0  0  0  0  0  0  0
   -1.1980    2.4083   -0.6431 H   0  0  0  0  0  0  0  0  0  0  0  0
  1  2  1  0
  2  3  1  0
  3  4  1  0
  4  5  1  0
  3  6  1  0
  6  7  2  0
  7  8  1  0
  8  9  2  0
  9 10  1  0
 10 11  2  3
 11 12  1  0
 12 13  3  0
 11 14  1  0
 14 15  3  0
 10 16  1  0
 16 17  1  0
 17 18  1  0
 18 19  1  0
 19 20  1  0
 20  6  1  0
 18  8  1  0
  1 21  1  0
  1 22  1  0
  1 23  1  0
  2 24  1  0
  2 25  1  0
  4 26  1  0
  4 27  1  0
  5 28  1  0
  5 29  1  0
  5 30  1  0
  7 31  1  0
  9 32  1  0
 16 33  1  0
 16 34  1  0
 17 35  1  0
 17 36  1  0
 18 37  1  0
 19 38  1  0
 19 39  1  0
 20 40  1  0
 20 41  1  0
M  END
$$$$
