
     RDKit          3D

 54 56  0  0  0  0  0  0  0  0999 V2000
    7.3965    0.7026   -2.8276 C   0  0  0  0  0  0  0  0  0  0  0  0
    7.1273    0.6227   -1.4338 O   0  0  0  0  0  0  0  0  0  0  0  0
    5.8532    0.9167   -1.0327 C   0  0  0  0  0  0  0  0  0  0  0  0
    5.6406    0.8304    0.3447 C   0  0  0  0  0  0  0  0  0  0  0  0
    4.3846    1.1036    0.8916 C   0  0  0  0  0  0  0  0  0  0  0  0
    3.3165    1.4712    0.0636 C   0  0  0  0  0  0  0  0  0  0  0  0
    1.9532    1.7535    0.6487 C   0  0  0  0  0  0  0  0  0  0  0  0
    1.2271    0.5467    1.0509 N   0  0  0  0  0  0  0  0  0  0  0  0
    0.7339   -0.2206   -0.0939 C   0  0  0  0  0  0  0  0  0  0  0  0
   -0.1366   -1.4007    0.3631 C   0  0  0  0  0  0  0  0  0  0  0  0
   -1.4304   -0.9893    1.1104 C   0  0  0  0  0  0  0  0  0  0  0  0
   -2.1538   -2.1510    1.8023 C   0  0  0  0  0  0  0  0  0  0  0  0
   -2.9879   -1.8671    2.9021 C   0  0  0  0  0  0  0  0  0  0  0  0
   -3.6793   -2.8856    3.5599 C   0  0  0  0  0  0  0  0  0  0  0  0
   -3.5464   -4.1950    3.1203 C   0  0  0  0  0  0  0  0  0  0  0  0
   -4.2092   -5.1743    3.7497 F   0  0  0  0  0  0  0  0  0  0  0  0
   -2.7384   -4.5038    2.0341 C   0  0  0  0  0  0  0  0  0  0  0  0
   -2.0458   -3.4854    1.3740 C   0  0  0  0  0  0  0  0  0  0  0  0
   -2.3737   -0.1990    0.2064 C   0  0  0  0  0  0  0  0  0  0  0  0
   -2.5793    1.1697    0.4382 C   0  0  0  0  0  0  0  0  0  0  0  0
   -3.4286    1.9200   -0.3835 C   0  0  0  0  0  0  0  0  0  0  0  0
   -4.0865    1.3129   -1.4518 C   0  0  0  0  0  0  0  0  0  0  0  0
   -4.9381    1.9274   -2.3281 O   0  0  0  0  0  0  0  0  0  0  0  0
   -5.2066    3.3052   -2.1019 C   0  0  0  0  0  0  0  0  0  0  0  0
   -3.8848   -0.0476   -1.6901 C   0  0  0  0  0  0  0  0  0  0  0  0
   -3.0372   -0.7992   -0.8722 C   0  0  0  0  0  0  0  0  0  0  0  0
    3.5339    1.5549   -1.3182 C   0  0  0  0  0  0  0  0  0  0  0  0
    4.7936    1.2802   -1.8632 C   0  0  0  0  0  0  0  0  0  0  0  0
    7.2463    1.7209   -3.2013 H   0  0  0  0  0  0  0  0  0  0  0  0
    8.4488    0.4441   -2.9802 H   0  0  0  0  0  0  0  0  0  0  0  0
    6.7922   -0.0182   -3.3883 H   0  0  0  0  0  0  0  0  0  0  0  0
    6.4622    0.5478    0.9984 H   0  0  0  0  0  0  0  0  0  0  0  0
    4.2468    1.0302    1.9679 H   0  0  0  0  0  0  0  0  0  0  0  0
    2.0872    2.3840    1.5366 H   0  0  0  0  0  0  0  0  0  0  0  0
    1.3494    2.3566   -0.0411 H   0  0  0  0  0  0  0  0  0  0  0  0
    1.8459   -0.0395    1.6103 H   0  0  0  0  0  0  0  0  0  0  0  0
    0.1620    0.4218   -0.7726 H   0  0  0  0  0  0  0  0  0  0  0  0
    1.5762   -0.6275   -0.6654 H   0  0  0  0  0  0  0  0  0  0  0  0
   -0.3809   -1.9972   -0.5254 H   0  0  0  0  0  0  0  0  0  0  0  0
    0.4697   -2.0485    1.0112 H   0  0  0  0  0  0  0  0  0  0  0  0
   -1.1140   -0.3314    1.9326 H   0  0  0  0  0  0  0  0  0  0  0  0
   -3.1055   -0.8414    3.2474 H   0  0  0  0  0  0  0  0  0  0  0  0
   -4.3208   -2.6637    4.4062 H   0  0  0  0  0  0  0  0  0  0  0  0
   -2.6546   -5.5344    1.7046 H   0  0  0  0  0  0  0  0  0  0  0  0
   -1.4295   -3.7537    0.5204 H   0  0  0  0  0  0  0  0  0  0  0  0
   -2.0685    1.6668    1.2609 H   0  0  0  0  0  0  0  0  0  0  0  0
   -3.5497    2.9745   -0.1608 H   0  0  0  0  0  0  0  0  0  0  0  0
   -5.6772    3.4617   -1.1256 H   0  0  0  0  0  0  0  0  0  0  0  0
   -4.2969    3.9060   -2.2041 H   0  0  0  0  0  0  0  0  0  0  0  0
   -5.9128    3.6383   -2.8686 H   0  0  0  0  0  0  0  0  0  0  0  0
   -4.3960   -0.5293   -2.5200 H   0  0  0  0  0  0  0  0  0  0  0  0
   -2.9073   -1.8575   -1.0838 H   0  0  0  0  0  0  0  0  0  0  0  0
    2.7186    1.8320   -1.9835 H   0  0  0  0  0  0  0  0  0  0  0  0
    4.9106    1.3585   -2.9388 H   0  0  0  0  0  0  0  0  0  0  0  0
  1  2  1  0
  2  3  1  0
  3  4  2  0
  4  5  1  0
  5  6  2  0
  6  7  1  0
  7  8  1  0
  8  9  1  0
  9 10  1  0
 10 11  1  0
 11 12  1  0
 12 13  2  0
 13 14  1  0
 14 15  2  0
 15 16  1  0
 15 17  1  0
 17 18  2  0
 11 19  1  0
 19 20  2  0
 20 21  1  0
 21 22  2  0
 22 23  1  0
 23 24  1  0
 22 25  1  0
 25 26  2  0
  6 27  1  0
 27 28  2  0
 28  3  1  0
 18 12  1  0
 26 19  1  0
  1 29  1  0
  1 30  1  0
  1 31  1  0
  4 32  1  0
  5 33  1  0
  7 34  1  0
  7 35  1  0
  8 36  1  0
  9 37  1  0
  9 38  1  0
 10 39  1  0
 10 40  1  0
 11 41  1  0
 13 42  1  0
 14 43  1  0
 17 44  1  0
 18 45  1  0
 20 46  1  0
 21 47  1  0
 24 48  1  0
 24 49  1  0
 24 50  1  0
 25 51  1  0
 26 52  1  0
 27 53  1  0
 28 54  1  0
M  END
$$$$
