
     RDKit          3D

 63 65  0  0  0  0  0  0  0  0999 V2000
   -0.3567   -0.4990   -2.8198 C   0  0  0  0  0  0  0  0  0  0  0  0
    0.0876   -1.1245   -1.5028 C   0  0  0  0  0  0  0  0  0  0  0  0
   -0.2456   -0.2961   -0.3322 N   0  0  0  0  0  0  0  0  0  0  0  0
    0.4781    0.9926   -0.2686 C   0  0  0  0  0  0  0  0  0  0  0  0
    1.9928    0.8527   -0.0439 C   0  0  0  0  0  0  0  0  0  0  0  0
    2.4473    0.6389    1.0791 O   0  0  0  0  0  0  0  0  0  0  0  0
    2.7306    0.9800   -1.2108 N   0  0  0  0  0  0  0  0  0  0  0  0
    4.1340    0.9460   -1.3453 C   0  0  0  0  0  0  0  0  0  0  0  0
    5.0181    0.8444   -0.2732 C   0  0  0  0  0  0  0  0  0  0  0  0
    6.4013    0.8277   -0.4927 C   0  0  0  0  0  0  0  0  0  0  0  0
    6.9249    0.9072   -1.7875 C   0  0  0  0  0  0  0  0  0  0  0  0
    8.3273    0.8835   -1.9149 N   0  0  0  0  0  0  0  0  0  0  0  0
    9.0683    0.8576   -3.0831 C   0  0  0  0  0  0  0  0  0  0  0  0
   10.5513    0.8614   -2.8081 C   0  0  0  0  0  0  0  0  0  0  0  0
    8.6385    0.8158   -4.2314 O   0  0  0  0  0  0  0  0  0  0  0  0
    6.0423    1.0133   -2.8603 C   0  0  0  0  0  0  0  0  0  0  0  0
    4.6580    1.0336   -2.6401 C   0  0  0  0  0  0  0  0  0  0  0  0
   -0.0640   -1.0693    0.9237 C   0  0  0  0  0  0  0  0  0  0  0  0
   -1.1895   -2.1042    1.0821 C   0  0  0  0  0  0  0  0  0  0  0  0
   -0.9757   -3.3040    0.9272 O   0  0  0  0  0  0  0  0  0  0  0  0
   -2.4006   -1.5180    1.4004 N   0  0  0  0  0  0  0  0  0  0  0  0
   -3.6467   -2.1344    1.6628 C   0  0  0  0  0  0  0  0  0  0  0  0
   -3.8458   -3.5106    1.5008 C   0  0  0  0  0  0  0  0  0  0  0  0
   -5.0775   -4.1007    1.7987 C   0  0  0  0  0  0  0  0  0  0  0  0
   -6.1300   -3.3248    2.2711 C   0  0  0  0  0  0  0  0  0  0  0  0
   -5.9597   -1.9511    2.4299 C   0  0  0  0  0  0  0  0  0  0  0  0
   -4.7328   -1.3415    2.1065 C   0  0  0  0  0  0  0  0  0  0  0  0
   -4.5758    0.1360    2.2839 C   0  0  0  0  0  0  0  0  0  0  0  0
   -3.4632    0.6219    2.4806 O   0  0  0  0  0  0  0  0  0  0  0  0
   -5.7362    1.0542    2.2221 C   0  0  0  0  0  0  0  0  0  0  0  0
   -5.8419    2.0605    3.1898 C   0  0  0  0  0  0  0  0  0  0  0  0
   -6.9196    2.9457    3.1585 C   0  0  0  0  0  0  0  0  0  0  0  0
   -7.8794    2.8369    2.1496 C   0  0  0  0  0  0  0  0  0  0  0  0
   -7.7603    1.8497    1.1677 C   0  0  0  0  0  0  0  0  0  0  0  0
   -6.6875    0.9579    1.1995 C   0  0  0  0  0  0  0  0  0  0  0  0
   -1.4207   -0.2435   -2.7915 H   0  0  0  0  0  0  0  0  0  0  0  0
    0.2085    0.4039   -3.0669 H   0  0  0  0  0  0  0  0  0  0  0  0
   -0.2055   -1.2076   -3.6386 H   0  0  0  0  0  0  0  0  0  0  0  0
   -0.4369   -2.0840   -1.4332 H   0  0  0  0  0  0  0  0  0  0  0  0
    1.1591   -1.3570   -1.5415 H   0  0  0  0  0  0  0  0  0  0  0  0
    0.0793    1.5988    0.5562 H   0  0  0  0  0  0  0  0  0  0  0  0
    0.2834    1.5895   -1.1666 H   0  0  0  0  0  0  0  0  0  0  0  0
    2.2075    1.0857   -2.0716 H   0  0  0  0  0  0  0  0  0  0  0  0
    4.6697    0.7795    0.7526 H   0  0  0  0  0  0  0  0  0  0  0  0
    7.0544    0.7466    0.3741 H   0  0  0  0  0  0  0  0  0  0  0  0
    8.8479    0.8504   -1.0459 H   0  0  0  0  0  0  0  0  0  0  0  0
   10.8372   -0.0708   -2.3137 H   0  0  0  0  0  0  0  0  0  0  0  0
   10.8149    1.7127   -2.1745 H   0  0  0  0  0  0  0  0  0  0  0  0
   11.1000    0.9494   -3.7511 H   0  0  0  0  0  0  0  0  0  0  0  0
    6.3933    1.0919   -3.8857 H   0  0  0  0  0  0  0  0  0  0  0  0
    4.0043    1.1193   -3.5038 H   0  0  0  0  0  0  0  0  0  0  0  0
   -0.1092   -0.4109    1.8030 H   0  0  0  0  0  0  0  0  0  0  0  0
    0.9013   -1.5911    0.9541 H   0  0  0  0  0  0  0  0  0  0  0  0
   -2.3704   -0.5078    1.5710 H   0  0  0  0  0  0  0  0  0  0  0  0
   -3.0539   -4.1600    1.1394 H   0  0  0  0  0  0  0  0  0  0  0  0
   -5.2021   -5.1733    1.6714 H   0  0  0  0  0  0  0  0  0  0  0  0
   -7.0795   -3.7906    2.5212 H   0  0  0  0  0  0  0  0  0  0  0  0
   -6.7920   -1.3738    2.8236 H   0  0  0  0  0  0  0  0  0  0  0  0
   -5.0846    2.1565    3.9669 H   0  0  0  0  0  0  0  0  0  0  0  0
   -7.0065    3.7256    3.9155 H   0  0  0  0  0  0  0  0  0  0  0  0
   -8.7140    3.5332    2.1232 H   0  0  0  0  0  0  0  0  0  0  0  0
   -8.5009    1.7835    0.3725 H   0  0  0  0  0  0  0  0  0  0  0  0
   -6.5965    0.2050    0.4210 H   0  0  0  0  0  0  0  0  0  0  0  0
  1  2  1  0
  2  3  1  0
  3  4  1  0
  4  5  1  0
  5  6  2  0
  5  7  1  0
  7  8  1  0
  8  9  2  0
  9 10  1  0
 10 11  2  0
 11 12  1  0
 12 13  1  0
 13 14  1  0
 13 15  2  0
 11 16  1  0
 16 17  2  0
  3 18  1  0
 18 19  1  0
 19 20  2  0
 19 21  1  0
 21 22  1  0
 22 23  2  0
 23 24  1  0
 24 25  2  0
 25 26  1  0
 26 27  2  0
 27 28  1  0
 28 29  2  0
 28 30  1  0
 30 31  2  0
 31 32  1  0
 32 33  2  0
 33 34  1  0
 34 35  2  0
 17  8  1  0
 27 22  1  0
 35 30  1  0
  1 36  1  0
  1 37  1  0
  1 38  1  0
  2 39  1  0
  2 40  1  0
  4 41  1  0
  4 42  1  0
  7 43  1  0
  9 44  1  0
 10 45  1  0
 12 46  1  0
 14 47  1  0
 14 48  1  0
 14 49  1  0
 16 50  1  0
 17 51  1  0
 18 52  1  0
 18 53  1  0
 21 54  1  0
 23 55  1  0
 24 56  1  0
 25 57  1  0
 26 58  1  0
 31 59  1  0
 32 60  1  0
 33 61  1  0
 34 62  1  0
 35 63  1  0
M  END
$$$$
