
     RDKit          3D

 52 54  0  0  0  0  0  0  0  0999 V2000
   -7.2776   -1.5436    0.7009 C   0  0  0  0  0  0  0  0  0  0  0  0
   -6.2561   -1.2499   -0.3972 C   0  0  0  0  0  0  0  0  0  0  0  0
   -5.3757   -2.4737   -0.6510 C   0  0  0  0  0  0  0  0  0  0  0  0
   -5.4257    0.0117   -0.1051 C   0  0  0  0  0  0  0  0  0  0  0  0
   -4.5955   -0.0308    1.1795 C   0  0  0  0  0  0  0  0  0  0  0  0
   -3.8630    1.1868    1.3381 O   0  0  0  0  0  0  0  0  0  0  0  0
   -2.6105    1.2794    0.7997 C   0  0  0  0  0  0  0  0  0  0  0  0
   -1.9912    0.3366   -0.0231 C   0  0  0  0  0  0  0  0  0  0  0  0
   -0.6989    0.5670   -0.5087 C   0  0  0  0  0  0  0  0  0  0  0  0
   -0.0184    1.7392   -0.1621 C   0  0  0  0  0  0  0  0  0  0  0  0
    1.3414    2.0124   -0.6856 C   0  0  0  0  0  0  0  0  0  0  0  0
    1.5646    3.1229   -1.1614 O   0  0  0  0  0  0  0  0  0  0  0  0
    2.2938    0.9913   -0.6387 N   0  0  0  0  0  0  0  0  0  0  0  0
    2.3765    0.0638    0.5093 C   0  0  0  0  0  0  0  0  0  0  0  0
    3.3669    0.6001    1.5719 C   0  0  0  0  0  0  0  0  0  0  0  0
    4.6783    0.8954    0.9637 N   0  0  0  0  0  0  0  0  0  0  0  0
    5.4903   -0.2198    0.7505 C   0  0  0  0  0  0  0  0  0  0  0  0
    6.4695   -0.1468   -0.1677 N   0  0  0  0  0  0  0  0  0  0  0  0
    7.2586   -1.2243   -0.3391 C   0  0  0  0  0  0  0  0  0  0  0  0
    7.1114   -2.3894    0.3650 C   0  0  0  0  0  0  0  0  0  0  0  0
    6.0870   -2.3861    1.2738 C   0  0  0  0  0  0  0  0  0  0  0  0
    5.2743   -1.3314    1.4764 N   0  0  0  0  0  0  0  0  0  0  0  0
    4.5900    1.8257   -0.1834 C   0  0  0  0  0  0  0  0  0  0  0  0
    3.6064    1.2796   -1.2414 C   0  0  0  0  0  0  0  0  0  0  0  0
   -0.6441    2.6994    0.6343 C   0  0  0  0  0  0  0  0  0  0  0  0
   -1.9331    2.4622    1.1165 C   0  0  0  0  0  0  0  0  0  0  0  0
   -7.9396   -2.3626    0.3994 H   0  0  0  0  0  0  0  0  0  0  0  0
   -7.9018   -0.6658    0.8975 H   0  0  0  0  0  0  0  0  0  0  0  0
   -6.7945   -1.8380    1.6381 H   0  0  0  0  0  0  0  0  0  0  0  0
   -6.8163   -1.0543   -1.3213 H   0  0  0  0  0  0  0  0  0  0  0  0
   -4.6343   -2.2659   -1.4296 H   0  0  0  0  0  0  0  0  0  0  0  0
   -4.8439   -2.7884    0.2524 H   0  0  0  0  0  0  0  0  0  0  0  0
   -5.9840   -3.3201   -0.9878 H   0  0  0  0  0  0  0  0  0  0  0  0
   -4.7713    0.2132   -0.9621 H   0  0  0  0  0  0  0  0  0  0  0  0
   -6.0958    0.8805   -0.0550 H   0  0  0  0  0  0  0  0  0  0  0  0
   -3.9460   -0.9088    1.2527 H   0  0  0  0  0  0  0  0  0  0  0  0
   -5.2700   -0.0853    2.0410 H   0  0  0  0  0  0  0  0  0  0  0  0
   -2.4888   -0.5795   -0.3221 H   0  0  0  0  0  0  0  0  0  0  0  0
   -0.2326   -0.1626   -1.1664 H   0  0  0  0  0  0  0  0  0  0  0  0
    1.4033   -0.0823    0.9816 H   0  0  0  0  0  0  0  0  0  0  0  0
    2.7092   -0.9042    0.1183 H   0  0  0  0  0  0  0  0  0  0  0  0
    3.4380   -0.0870    2.4230 H   0  0  0  0  0  0  0  0  0  0  0  0
    2.9694    1.5382    1.9813 H   0  0  0  0  0  0  0  0  0  0  0  0
    8.0392   -1.1109   -1.0851 H   0  0  0  0  0  0  0  0  0  0  0  0
    7.7556   -3.2434    0.2173 H   0  0  0  0  0  0  0  0  0  0  0  0
    5.8789   -3.2549    1.8908 H   0  0  0  0  0  0  0  0  0  0  0  0
    4.2149    2.7864    0.1925 H   0  0  0  0  0  0  0  0  0  0  0  0
    5.5673    2.0422   -0.6301 H   0  0  0  0  0  0  0  0  0  0  0  0
    3.5009    1.9959   -2.0631 H   0  0  0  0  0  0  0  0  0  0  0  0
    3.9769    0.3410   -1.6696 H   0  0  0  0  0  0  0  0  0  0  0  0
   -0.1351    3.6295    0.8756 H   0  0  0  0  0  0  0  0  0  0  0  0
   -2.4186    3.2096    1.7401 H   0  0  0  0  0  0  0  0  0  0  0  0
  1  2  1  0
  2  3  1  0
  2  4  1  0
  4  5  1  0
  5  6  1  0
  6  7  1  0
  7  8  2  0
  8  9  1  0
  9 10  2  0
 10 11  1  0
 11 12  2  0
 11 13  1  0
 13 14  1  0
 14 15  1  0
 15 16  1  0
 16 17  1  0
 17 18  2  0
 18 19  1  0
 19 20  2  0
 20 21  1  0
 21 22  2  0
 16 23  1  0
 23 24  1  0
 10 25  1  0
 25 26  2  0
 26  7  1  0
 24 13  1  0
 22 17  1  0
  1 27  1  0
  1 28  1  0
  1 29  1  0
  2 30  1  0
  3 31  1  0
  3 32  1  0
  3 33  1  0
  4 34  1  0
  4 35  1  0
  5 36  1  0
  5 37  1  0
  8 38  1  0
  9 39  1  0
 14 40  1  0
 14 41  1  0
 15 42  1  0
 15 43  1  0
 19 44  1  0
 20 45  1  0
 21 46  1  0
 23 47  1  0
 23 48  1  0
 24 49  1  0
 24 50  1  0
 25 51  1  0
 26 52  1  0
M  END
$$$$
