
     RDKit          3D

 60 64  0  0  0  0  0  0  0  0999 V2000
    6.4416    1.1161    2.0756 C   0  0  0  0  0  0  0  0  0  0  0  0
    6.1524    0.8760    0.6985 O   0  0  0  0  0  0  0  0  0  0  0  0
    5.6972   -0.4027    0.4917 C   0  0  0  0  0  0  0  0  0  0  0  0
    6.5736   -1.4783    0.6843 C   0  0  0  0  0  0  0  0  0  0  0  0
    6.1558   -2.7797    0.4118 C   0  0  0  0  0  0  0  0  0  0  0  0
    4.8698   -3.0080   -0.0682 C   0  0  0  0  0  0  0  0  0  0  0  0
    4.0016   -1.9327   -0.2793 C   0  0  0  0  0  0  0  0  0  0  0  0
    4.4000   -0.6105   -0.0075 C   0  0  0  0  0  0  0  0  0  0  0  0
    3.4720    0.4992   -0.2243 C   0  0  0  0  0  0  0  0  0  0  0  0
    3.4316    1.6941    0.3299 N   0  0  0  0  0  0  0  0  0  0  0  0
    2.3538    2.2985   -0.2764 C   0  0  0  0  0  0  0  0  0  0  0  0
    1.9899    3.6305    0.0763 C   0  0  0  0  0  0  0  0  0  0  0  0
    1.6541    4.7067    0.3612 N   0  0  0  0  0  0  0  0  0  0  0  0
    1.7395    1.4403   -1.1728 C   0  0  0  0  0  0  0  0  0  0  0  0
    0.6803    1.4664   -2.0377 N   0  0  0  0  0  0  0  0  0  0  0  0
   -0.3274    2.5408   -1.9599 C   0  0  0  0  0  0  0  0  0  0  0  0
   -1.4286    2.1787   -0.9334 C   0  0  0  0  0  0  0  0  0  0  0  0
   -2.0680    0.8812   -1.2429 N   0  0  0  0  0  0  0  0  0  0  0  0
   -3.2053    0.5649   -0.3403 C   0  0  0  0  0  0  0  0  0  0  0  0
   -2.7804    0.0779    1.0540 C   0  0  0  0  0  0  0  0  0  0  0  0
   -2.6350    1.0001    2.1066 C   0  0  0  0  0  0  0  0  0  0  0  0
   -2.2398    0.5773    3.3777 C   0  0  0  0  0  0  0  0  0  0  0  0
   -1.9874   -0.7719    3.6191 C   0  0  0  0  0  0  0  0  0  0  0  0
   -2.1308   -1.7010    2.5910 C   0  0  0  0  0  0  0  0  0  0  0  0
   -2.5217   -1.2801    1.3187 C   0  0  0  0  0  0  0  0  0  0  0  0
   -4.3002   -0.2964   -1.0091 C   0  0  0  0  0  0  0  0  0  0  0  0
   -4.2943   -0.5930   -2.3837 C   0  0  0  0  0  0  0  0  0  0  0  0
   -5.3150   -1.3526   -2.9643 C   0  0  0  0  0  0  0  0  0  0  0  0
   -6.3731   -1.8155   -2.1863 C   0  0  0  0  0  0  0  0  0  0  0  0
   -6.4218   -1.5019   -0.8322 C   0  0  0  0  0  0  0  0  0  0  0  0
   -5.4039   -0.7409   -0.2525 C   0  0  0  0  0  0  0  0  0  0  0  0
   -1.0474   -0.1847   -1.3683 C   0  0  0  0  0  0  0  0  0  0  0  0
    0.0455    0.1799   -2.4052 C   0  0  0  0  0  0  0  0  0  0  0  0
    2.4687    0.2764   -1.1303 O   0  0  0  0  0  0  0  0  0  0  0  0
    6.4609    2.1996    2.2285 H   0  0  0  0  0  0  0  0  0  0  0  0
    5.6757    0.6942    2.7385 H   0  0  0  0  0  0  0  0  0  0  0  0
    7.4297    0.7209    2.3334 H   0  0  0  0  0  0  0  0  0  0  0  0
    7.5900   -1.3028    1.0257 H   0  0  0  0  0  0  0  0  0  0  0  0
    6.8381   -3.6123    0.5616 H   0  0  0  0  0  0  0  0  0  0  0  0
    4.5426   -4.0216   -0.2867 H   0  0  0  0  0  0  0  0  0  0  0  0
    3.0023   -2.1382   -0.6581 H   0  0  0  0  0  0  0  0  0  0  0  0
    0.1164    3.5129   -1.7322 H   0  0  0  0  0  0  0  0  0  0  0  0
   -0.7870    2.6574   -2.9507 H   0  0  0  0  0  0  0  0  0  0  0  0
   -2.1807    2.9762   -0.9551 H   0  0  0  0  0  0  0  0  0  0  0  0
   -0.9864    2.1635    0.0695 H   0  0  0  0  0  0  0  0  0  0  0  0
   -3.7473    1.5119   -0.1846 H   0  0  0  0  0  0  0  0  0  0  0  0
   -2.8322    2.0571    1.9412 H   0  0  0  0  0  0  0  0  0  0  0  0
   -2.1329    1.3027    4.1813 H   0  0  0  0  0  0  0  0  0  0  0  0
   -1.6834   -1.0999    4.6099 H   0  0  0  0  0  0  0  0  0  0  0  0
   -1.9446   -2.7555    2.7792 H   0  0  0  0  0  0  0  0  0  0  0  0
   -2.6357   -2.0212    0.5294 H   0  0  0  0  0  0  0  0  0  0  0  0
   -3.4941   -0.2310   -3.0246 H   0  0  0  0  0  0  0  0  0  0  0  0
   -5.2810   -1.5786   -4.0270 H   0  0  0  0  0  0  0  0  0  0  0  0
   -7.1639   -2.4064   -2.6382 H   0  0  0  0  0  0  0  0  0  0  0  0
   -7.2526   -1.8479   -0.2224 H   0  0  0  0  0  0  0  0  0  0  0  0
   -5.4777   -0.4960    0.8061 H   0  0  0  0  0  0  0  0  0  0  0  0
   -0.5501   -0.3638   -0.4075 H   0  0  0  0  0  0  0  0  0  0  0  0
   -1.5122   -1.1247   -1.6847 H   0  0  0  0  0  0  0  0  0  0  0  0
   -0.4134    0.2843   -3.3975 H   0  0  0  0  0  0  0  0  0  0  0  0
    0.7719   -0.6361   -2.4937 H   0  0  0  0  0  0  0  0  0  0  0  0
  1  2  1  0
  2  3  1  0
  3  4  2  0
  4  5  1  0
  5  6  2  0
  6  7  1  0
  7  8  2  0
  8  9  1  0
  9 10  2  0
 10 11  1  0
 11 12  1  0
 12 13  3  0
 11 14  2  0
 14 15  1  0
 15 16  1  0
 16 17  1  0
 17 18  1  0
 18 19  1  0
 19 20  1  0
 20 21  2  0
 21 22  1  0
 22 23  2  0
 23 24  1  0
 24 25  2  0
 19 26  1  0
 26 27  2  0
 27 28  1  0
 28 29  2  0
 29 30  1  0
 30 31  2  0
 18 32  1  0
 32 33  1  0
 14 34  1  0
  8  3  1  0
 34  9  1  0
 33 15  1  0
 25 20  1  0
 31 26  1  0
  1 35  1  0
  1 36  1  0
  1 37  1  0
  4 38  1  0
  5 39  1  0
  6 40  1  0
  7 41  1  0
 16 42  1  0
 16 43  1  0
 17 44  1  0
 17 45  1  0
 19 46  1  0
 21 47  1  0
 22 48  1  0
 23 49  1  0
 24 50  1  0
 25 51  1  0
 27 52  1  0
 28 53  1  0
 29 54  1  0
 30 55  1  0
 31 56  1  0
 32 57  1  0
 32 58  1  0
 33 59  1  0
 33 60  1  0
M  END
$$$$
