
     RDKit          3D

 40 42  0  0  0  0  0  0  0  0999 V2000
   -3.1783   -2.3731   -0.6308 C   0  0  0  0  0  0  0  0  0  0  0  0
   -1.9693   -1.5248   -0.2315 C   0  0  0  0  0  0  0  0  0  0  0  0
   -0.8336   -2.4323    0.2444 C   0  0  0  0  0  0  0  0  0  0  0  0
   -1.5491   -0.6317   -1.4146 C   0  0  0  0  0  0  0  0  0  0  0  0
   -0.5455    0.3609   -1.0849 N   0  0  0  0  0  0  0  0  0  0  0  0
    0.7910    0.3362   -1.3843 C   0  0  0  0  0  0  0  0  0  0  0  0
    1.5868   -0.9219   -2.2596 S   0  0  0  0  0  0  0  0  0  0  0  0
    3.2254   -0.8855   -1.4675 C   0  0  0  0  0  0  0  0  0  0  0  0
    3.1511   -1.4611   -0.0596 C   0  0  0  0  0  0  0  0  0  0  0  0
    2.8077   -2.6395    0.0847 O   0  0  0  0  0  0  0  0  0  0  0  0
    3.5072   -0.5987    1.0671 C   0  0  0  0  0  0  0  0  0  0  0  0
    3.8191    0.7510    1.1176 C   0  0  0  0  0  0  0  0  0  0  0  0
    4.1008    1.2046    2.4435 C   0  0  0  0  0  0  0  0  0  0  0  0
    3.9937    0.1826    3.3471 C   0  0  0  0  0  0  0  0  0  0  0  0
    4.2442    0.2837    5.0424 Cl  0  0  0  0  0  0  0  0  0  0  0  0
    3.5660   -1.2918    2.6462 S   0  0  0  0  0  0  0  0  0  0  0  0
    1.3805    1.4053   -0.9071 N   0  0  0  0  0  0  0  0  0  0  0  0
    0.4228    2.1636   -0.2862 N   0  0  0  0  0  0  0  0  0  0  0  0
   -0.7385    1.5471   -0.4100 C   0  0  0  0  0  0  0  0  0  0  0  0
   -1.9703    2.0711    0.0975 C   0  0  0  0  0  0  0  0  0  0  0  0
   -2.1568    3.2308    0.8347 C   0  0  0  0  0  0  0  0  0  0  0  0
   -3.5400    3.3421    1.1110 C   0  0  0  0  0  0  0  0  0  0  0  0
   -4.1283    2.2482    0.5277 C   0  0  0  0  0  0  0  0  0  0  0  0
   -3.1950    1.4784   -0.0851 O   0  0  0  0  0  0  0  0  0  0  0  0
   -4.0188   -1.7365   -0.9271 H   0  0  0  0  0  0  0  0  0  0  0  0
   -2.9400   -3.0345   -1.4708 H   0  0  0  0  0  0  0  0  0  0  0  0
   -3.5115   -2.9952    0.2066 H   0  0  0  0  0  0  0  0  0  0  0  0
   -2.2670   -0.8981    0.6174 H   0  0  0  0  0  0  0  0  0  0  0  0
   -1.1748   -3.0886    1.0523 H   0  0  0  0  0  0  0  0  0  0  0  0
   -0.4611   -3.0654   -0.5678 H   0  0  0  0  0  0  0  0  0  0  0  0
    0.0024   -1.8451    0.6360 H   0  0  0  0  0  0  0  0  0  0  0  0
   -2.4106   -0.0895   -1.8212 H   0  0  0  0  0  0  0  0  0  0  0  0
   -1.1818   -1.2469   -2.2427 H   0  0  0  0  0  0  0  0  0  0  0  0
    3.6505    0.1187   -1.5044 H   0  0  0  0  0  0  0  0  0  0  0  0
    3.8996   -1.5285   -2.0444 H   0  0  0  0  0  0  0  0  0  0  0  0
    3.8272    1.4138    0.2602 H   0  0  0  0  0  0  0  0  0  0  0  0
    4.3553    2.2238    2.7064 H   0  0  0  0  0  0  0  0  0  0  0  0
   -1.3710    3.9125    1.1332 H   0  0  0  0  0  0  0  0  0  0  0  0
   -4.0430    4.1226    1.6646 H   0  0  0  0  0  0  0  0  0  0  0  0
   -5.1471    1.8920    0.4613 H   0  0  0  0  0  0  0  0  0  0  0  0
  1  2  1  0
  2  3  1  0
  2  4  1  0
  4  5  1  0
  5  6  1  0
  6  7  1  0
  7  8  1  0
  8  9  1  0
  9 10  2  0
  9 11  1  0
 11 12  2  0
 12 13  1  0
 13 14  2  0
 14 15  1  0
 14 16  1  0
  6 17  2  0
 17 18  1  0
 18 19  2  0
 19 20  1  0
 20 21  2  0
 21 22  1  0
 22 23  2  0
 23 24  1  0
 19  5  1  0
 24 20  1  0
 16 11  1  0
  1 25  1  0
  1 26  1  0
  1 27  1  0
  2 28  1  0
  3 29  1  0
  3 30  1  0
  3 31  1  0
  4 32  1  0
  4 33  1  0
  8 34  1  0
  8 35  1  0
 12 36  1  0
 13 37  1  0
 21 38  1  0
 22 39  1  0
 23 40  1  0
M  END
$$$$
