
     RDKit          3D

 43 45  0  0  0  0  0  0  0  0999 V2000
    5.8141    2.7868   -0.7086 C   0  0  0  0  0  0  0  0  0  0  0  0
    6.1893    1.7331    0.1709 O   0  0  0  0  0  0  0  0  0  0  0  0
    5.2515    0.7631    0.4035 C   0  0  0  0  0  0  0  0  0  0  0  0
    5.7178   -0.3326    1.1313 C   0  0  0  0  0  0  0  0  0  0  0  0
    4.8598   -1.3807    1.4543 C   0  0  0  0  0  0  0  0  0  0  0  0
    3.5286   -1.3389    1.0398 C   0  0  0  0  0  0  0  0  0  0  0  0
    3.0488   -0.2582    0.2888 C   0  0  0  0  0  0  0  0  0  0  0  0
    1.6797   -0.2796   -0.0610 N   0  0  0  0  0  0  0  0  0  0  0  0
    0.9766    0.3728   -1.0672 C   0  0  0  0  0  0  0  0  0  0  0  0
    1.6565    1.0081   -2.4683 S   0  0  0  0  0  0  0  0  0  0  0  0
   -0.4097    0.3896   -0.8107 N   0  0  0  0  0  0  0  0  0  0  0  0
   -1.4083    0.7825   -1.8303 C   0  0  0  0  0  0  0  0  0  0  0  0
   -2.8006    0.1808   -1.5569 C   0  0  0  0  0  0  0  0  0  0  0  0
   -3.3139    0.5246   -0.2090 N   0  0  0  0  0  0  0  0  0  0  0  0
   -4.1533   -0.4857    0.3020 C   0  0  0  0  0  0  0  0  0  0  0  0
   -5.3304   -0.8059   -0.3797 C   0  0  0  0  0  0  0  0  0  0  0  0
   -6.1700   -1.8046    0.1101 C   0  0  0  0  0  0  0  0  0  0  0  0
   -5.8221   -2.4662    1.2767 C   0  0  0  0  0  0  0  0  0  0  0  0
   -4.6476   -2.0931    1.9022 C   0  0  0  0  0  0  0  0  0  0  0  0
   -3.8179   -1.1287    1.4425 N   0  0  0  0  0  0  0  0  0  0  0  0
   -2.2880    0.9958    0.7434 C   0  0  0  0  0  0  0  0  0  0  0  0
   -0.9554    0.2519    0.5607 C   0  0  0  0  0  0  0  0  0  0  0  0
    3.9129    0.8030   -0.0010 C   0  0  0  0  0  0  0  0  0  0  0  0
    5.5048    2.4002   -1.6855 H   0  0  0  0  0  0  0  0  0  0  0  0
    6.6932    3.4196   -0.8647 H   0  0  0  0  0  0  0  0  0  0  0  0
    5.0321    3.4096   -0.2622 H   0  0  0  0  0  0  0  0  0  0  0  0
    6.7560   -0.3638    1.4522 H   0  0  0  0  0  0  0  0  0  0  0  0
    5.2285   -2.2276    2.0265 H   0  0  0  0  0  0  0  0  0  0  0  0
    2.8774   -2.1691    1.3005 H   0  0  0  0  0  0  0  0  0  0  0  0
    1.1508   -1.0348    0.3554 H   0  0  0  0  0  0  0  0  0  0  0  0
   -1.4605    1.8781   -1.8290 H   0  0  0  0  0  0  0  0  0  0  0  0
   -1.0788    0.4601   -2.8227 H   0  0  0  0  0  0  0  0  0  0  0  0
   -2.7170   -0.9091   -1.6740 H   0  0  0  0  0  0  0  0  0  0  0  0
   -3.5029    0.5471   -2.3146 H   0  0  0  0  0  0  0  0  0  0  0  0
   -5.6062   -0.2654   -1.2789 H   0  0  0  0  0  0  0  0  0  0  0  0
   -7.0885   -2.0528   -0.4132 H   0  0  0  0  0  0  0  0  0  0  0  0
   -6.4507   -3.2454    1.6916 H   0  0  0  0  0  0  0  0  0  0  0  0
   -4.3289   -2.5735    2.8227 H   0  0  0  0  0  0  0  0  0  0  0  0
   -2.6231    0.9476    1.7868 H   0  0  0  0  0  0  0  0  0  0  0  0
   -2.1247    2.0634    0.5452 H   0  0  0  0  0  0  0  0  0  0  0  0
   -0.2276    0.6385    1.2823 H   0  0  0  0  0  0  0  0  0  0  0  0
   -1.0839   -0.8208    0.7445 H   0  0  0  0  0  0  0  0  0  0  0  0
    3.5313    1.6803   -0.5056 H   0  0  0  0  0  0  0  0  0  0  0  0
  1  2  1  0
  2  3  1  0
  3  4  2  0
  4  5  1  0
  5  6  2  0
  6  7  1  0
  7  8  1  0
  8  9  1  0
  9 10  2  0
  9 11  1  0
 11 12  1  0
 12 13  1  0
 13 14  1  0
 14 15  1  0
 15 16  2  0
 16 17  1  0
 17 18  2  0
 18 19  1  0
 19 20  2  0
 14 21  1  0
 21 22  1  0
  7 23  2  0
 23  3  1  0
 22 11  1  0
 20 15  1  0
  1 24  1  0
  1 25  1  0
  1 26  1  0
  4 27  1  0
  5 28  1  0
  6 29  1  0
  8 30  1  0
 12 31  1  0
 12 32  1  0
 13 33  1  0
 13 34  1  0
 16 35  1  0
 17 36  1  0
 18 37  1  0
 19 38  1  0
 21 39  1  0
 21 40  1  0
 22 41  1  0
 22 42  1  0
 23 43  1  0
M  END
$$$$
