
     RDKit          3D

 37 39  0  0  0  0  0  0  0  0999 V2000
   -0.0469    0.5971   -1.0413 C   0  0  0  0  0  0  0  0  0  0  0  0
   -0.5859   -0.5290   -0.1829 C   0  0  0  0  0  0  0  0  0  0  0  0
    0.1221   -1.4926    0.3368 N   0  0  0  0  0  0  0  0  0  0  0  0
    1.4863   -1.4652    0.2206 N   0  0  0  0  0  0  0  0  0  0  0  0
    2.2401   -0.4548    0.8167 C   0  0  0  0  0  0  0  0  0  0  0  0
    1.7908    0.5817    1.2938 O   0  0  0  0  0  0  0  0  0  0  0  0
    3.7071   -0.7081    0.8801 C   0  0  0  0  0  0  0  0  0  0  0  0
    4.3622   -1.5096   -0.0669 C   0  0  0  0  0  0  0  0  0  0  0  0
    5.7404   -1.7166    0.0262 C   0  0  0  0  0  0  0  0  0  0  0  0
    6.4671   -1.1202    1.0572 C   0  0  0  0  0  0  0  0  0  0  0  0
    5.8165   -0.3114    1.9886 C   0  0  0  0  0  0  0  0  0  0  0  0
    6.7211    0.4276    3.2518 Cl  0  0  0  0  0  0  0  0  0  0  0  0
    4.4427   -0.0982    1.9040 C   0  0  0  0  0  0  0  0  0  0  0  0
   -2.0763   -0.5701    0.0635 C   0  0  0  0  0  0  0  0  0  0  0  0
   -2.6643    0.7180    0.5953 C   0  0  0  0  0  0  0  0  0  0  0  0
   -2.3112    1.3600    1.5661 O   0  0  0  0  0  0  0  0  0  0  0  0
   -3.7844    1.1087   -0.2593 C   0  0  0  0  0  0  0  0  0  0  0  0
   -4.6273    2.1973   -0.1314 C   0  0  0  0  0  0  0  0  0  0  0  0
   -5.6262    2.3564   -1.0965 C   0  0  0  0  0  0  0  0  0  0  0  0
   -5.7578    1.4382   -2.1570 C   0  0  0  0  0  0  0  0  0  0  0  0
   -4.8926    0.3458   -2.2698 C   0  0  0  0  0  0  0  0  0  0  0  0
   -3.9144    0.2048   -1.3028 C   0  0  0  0  0  0  0  0  0  0  0  0
   -2.8825   -0.8247   -1.1923 C   0  0  0  0  0  0  0  0  0  0  0  0
   -2.7281   -1.7112   -2.0120 O   0  0  0  0  0  0  0  0  0  0  0  0
    0.9201    0.3479   -1.4827 H   0  0  0  0  0  0  0  0  0  0  0  0
    0.0451    1.5036   -0.4378 H   0  0  0  0  0  0  0  0  0  0  0  0
   -0.7376    0.8004   -1.8643 H   0  0  0  0  0  0  0  0  0  0  0  0
    1.8923   -2.3950    0.2855 H   0  0  0  0  0  0  0  0  0  0  0  0
    3.8218   -1.9577   -0.8973 H   0  0  0  0  0  0  0  0  0  0  0  0
    6.2506   -2.3348   -0.7093 H   0  0  0  0  0  0  0  0  0  0  0  0
    7.5402   -1.2820    1.1253 H   0  0  0  0  0  0  0  0  0  0  0  0
    3.9414    0.5375    2.6313 H   0  0  0  0  0  0  0  0  0  0  0  0
   -2.3219   -1.3642    0.7792 H   0  0  0  0  0  0  0  0  0  0  0  0
   -4.5146    2.9010    0.6882 H   0  0  0  0  0  0  0  0  0  0  0  0
   -6.3105    3.2008   -1.0300 H   0  0  0  0  0  0  0  0  0  0  0  0
   -6.5424    1.5839   -2.8978 H   0  0  0  0  0  0  0  0  0  0  0  0
   -4.9829   -0.3653   -3.0856 H   0  0  0  0  0  0  0  0  0  0  0  0
  1  2  1  0
  2  3  2  3
  3  4  1  0
  4  5  1  0
  5  6  2  0
  5  7  1  0
  7  8  2  0
  8  9  1  0
  9 10  2  0
 10 11  1  0
 11 12  1  0
 11 13  2  0
  2 14  1  0
 14 15  1  0
 15 16  2  0
 15 17  1  0
 17 18  2  0
 18 19  1  0
 19 20  2  0
 20 21  1  0
 21 22  2  0
 22 23  1  0
 23 24  2  0
 13  7  1  0
 23 14  1  0
 22 17  1  0
  1 25  1  0
  1 26  1  0
  1 27  1  0
  4 28  1  0
  8 29  1  0
  9 30  1  0
 10 31  1  0
 13 32  1  0
 14 33  1  0
 18 34  1  0
 19 35  1  0
 20 36  1  0
 21 37  1  0
M  END
$$$$
