
     RDKit          3D

 41 43  0  0  0  0  0  0  0  0999 V2000
   -2.3863   -0.8470    1.6901 O   0  0  0  0  0  0  0  0  0  0  0  0
   -2.7690    0.1926    1.1558 C   0  0  0  0  0  0  0  0  0  0  0  0
   -3.9795    0.9655    1.6399 C   0  0  0  0  0  0  0  0  0  0  0  0
   -5.1097    0.9876    0.6392 C   0  0  0  0  0  0  0  0  0  0  0  0
   -5.7165   -0.2067    0.2258 C   0  0  0  0  0  0  0  0  0  0  0  0
   -6.7636   -0.1879   -0.6977 C   0  0  0  0  0  0  0  0  0  0  0  0
   -7.2192    1.0239   -1.2110 C   0  0  0  0  0  0  0  0  0  0  0  0
   -6.6276    2.2182   -0.8035 C   0  0  0  0  0  0  0  0  0  0  0  0
   -5.5788    2.2015    0.1198 C   0  0  0  0  0  0  0  0  0  0  0  0
   -2.1272    0.7765    0.0738 N   0  0  0  0  0  0  0  0  0  0  0  0
   -0.8315    0.3113   -0.2079 N   0  0  0  0  0  0  0  0  0  0  0  0
    0.2251    0.7929    0.5443 C   0  0  0  0  0  0  0  0  0  0  0  0
    0.1719    1.6919    1.3728 O   0  0  0  0  0  0  0  0  0  0  0  0
    1.4653    0.0624    0.1620 C   0  0  0  0  0  0  0  0  0  0  0  0
    2.6279    0.2933    0.7873 C   0  0  0  0  0  0  0  0  0  0  0  0
    3.9266   -0.3405    0.5233 C   0  0  0  0  0  0  0  0  0  0  0  0
    5.0506    0.4773    0.3452 C   0  0  0  0  0  0  0  0  0  0  0  0
    6.3123   -0.0844    0.1215 C   0  0  0  0  0  0  0  0  0  0  0  0
    6.4639   -1.4747    0.0822 C   0  0  0  0  0  0  0  0  0  0  0  0
    7.7774   -2.1186   -0.1570 C   0  0  0  0  0  0  0  0  0  0  0  0
    7.9826   -3.3163   -0.2324 O   0  0  0  0  0  0  0  0  0  0  0  0
    8.7765   -1.2309   -0.2859 O   0  0  0  0  0  0  0  0  0  0  0  0
    5.3484   -2.2956    0.2789 C   0  0  0  0  0  0  0  0  0  0  0  0
    4.0897   -1.7309    0.5088 C   0  0  0  0  0  0  0  0  0  0  0  0
    1.1402   -1.0272   -1.1361 S   0  0  0  0  0  0  0  0  0  0  0  0
   -0.5860   -0.6698   -1.1467 C   0  0  0  0  0  0  0  0  0  0  0  0
   -1.6697   -1.4060   -2.1764 S   0  0  0  0  0  0  0  0  0  0  0  0
   -3.6538    1.9857    1.8796 H   0  0  0  0  0  0  0  0  0  0  0  0
   -4.3327    0.5237    2.5809 H   0  0  0  0  0  0  0  0  0  0  0  0
   -5.3759   -1.1626    0.6157 H   0  0  0  0  0  0  0  0  0  0  0  0
   -7.2232   -1.1196   -1.0182 H   0  0  0  0  0  0  0  0  0  0  0  0
   -8.0361    1.0383   -1.9304 H   0  0  0  0  0  0  0  0  0  0  0  0
   -6.9859    3.1623   -1.2073 H   0  0  0  0  0  0  0  0  0  0  0  0
   -5.1373    3.1469    0.4268 H   0  0  0  0  0  0  0  0  0  0  0  0
   -2.2924    1.7590   -0.1285 H   0  0  0  0  0  0  0  0  0  0  0  0
    2.6557    1.0405    1.5821 H   0  0  0  0  0  0  0  0  0  0  0  0
    4.9560    1.5610    0.3745 H   0  0  0  0  0  0  0  0  0  0  0  0
    7.1677    0.5720   -0.0194 H   0  0  0  0  0  0  0  0  0  0  0  0
    9.5661   -1.7918   -0.4346 H   0  0  0  0  0  0  0  0  0  0  0  0
    5.4528   -3.3790    0.2573 H   0  0  0  0  0  0  0  0  0  0  0  0
    3.2449   -2.3946    0.6796 H   0  0  0  0  0  0  0  0  0  0  0  0
  1  2  2  0
  2  3  1  0
  3  4  1  0
  4  5  2  0
  5  6  1  0
  6  7  2  0
  7  8  1  0
  8  9  2  0
  2 10  1  0
 10 11  1  0
 11 12  1  0
 12 13  2  0
 12 14  1  0
 14 15  2  3
 15 16  1  0
 16 17  2  0
 17 18  1  0
 18 19  2  0
 19 20  1  0
 20 21  2  0
 20 22  1  0
 19 23  1  0
 23 24  2  0
 14 25  1  0
 25 26  1  0
 26 27  2  0
  9  4  1  0
 26 11  1  0
 24 16  1  0
  3 28  1  0
  3 29  1  0
  5 30  1  0
  6 31  1  0
  7 32  1  0
  8 33  1  0
  9 34  1  0
 10 35  1  0
 15 36  1  0
 17 37  1  0
 18 38  1  0
 22 39  1  0
 23 40  1  0
 24 41  1  0
M  END
$$$$
