
     RDKit          3D

 41 42  0  0  0  0  0  0  0  0999 V2000
   -5.1749   -3.1964   -0.5402 C   0  0  0  0  0  0  0  0  0  0  0  0
   -4.9542   -1.8569   -0.9569 O   0  0  0  0  0  0  0  0  0  0  0  0
   -4.0388   -1.1073   -0.2582 C   0  0  0  0  0  0  0  0  0  0  0  0
   -3.3292   -1.5629    0.8607 C   0  0  0  0  0  0  0  0  0  0  0  0
   -2.4156   -0.7271    1.5119 C   0  0  0  0  0  0  0  0  0  0  0  0
   -2.2015    0.5791    1.0576 C   0  0  0  0  0  0  0  0  0  0  0  0
   -1.2098    1.4832    1.7481 C   0  0  0  0  0  0  0  0  0  0  0  0
    0.0460    1.6999    0.9374 C   0  0  0  0  0  0  0  0  0  0  0  0
    0.1856    2.6220    0.1389 O   0  0  0  0  0  0  0  0  0  0  0  0
    0.9518    0.7093    1.2366 O   0  0  0  0  0  0  0  0  0  0  0  0
    2.1549    0.9328    0.5401 N   0  0  0  0  0  0  0  0  0  0  0  0
    3.0483    0.0313    0.8268 C   0  0  0  0  0  0  0  0  0  0  0  0
    2.8163   -1.0220    1.6850 N   0  0  0  0  0  0  0  0  0  0  0  0
    4.3886    0.1391    0.1654 C   0  0  0  0  0  0  0  0  0  0  0  0
    4.5125    0.8285   -1.0479 C   0  0  0  0  0  0  0  0  0  0  0  0
    5.7543    0.9127   -1.6817 C   0  0  0  0  0  0  0  0  0  0  0  0
    6.8757    0.3159   -1.1046 C   0  0  0  0  0  0  0  0  0  0  0  0
    6.7608   -0.3593    0.1101 C   0  0  0  0  0  0  0  0  0  0  0  0
    5.5201   -0.4494    0.7467 C   0  0  0  0  0  0  0  0  0  0  0  0
   -2.9127    1.0372   -0.0652 C   0  0  0  0  0  0  0  0  0  0  0  0
   -3.8292    0.2067   -0.7258 C   0  0  0  0  0  0  0  0  0  0  0  0
   -4.5615    0.5782   -1.8304 O   0  0  0  0  0  0  0  0  0  0  0  0
   -4.3916    1.9028   -2.3188 C   0  0  0  0  0  0  0  0  0  0  0  0
   -5.9263   -3.6365   -1.2078 H   0  0  0  0  0  0  0  0  0  0  0  0
   -5.5746   -3.2316    0.4788 H   0  0  0  0  0  0  0  0  0  0  0  0
   -4.2599   -3.7971   -0.6275 H   0  0  0  0  0  0  0  0  0  0  0  0
   -3.4657   -2.5666    1.2523 H   0  0  0  0  0  0  0  0  0  0  0  0
   -1.8789   -1.1081    2.3801 H   0  0  0  0  0  0  0  0  0  0  0  0
   -0.9359    1.0923    2.7387 H   0  0  0  0  0  0  0  0  0  0  0  0
   -1.6692    2.4636    1.9447 H   0  0  0  0  0  0  0  0  0  0  0  0
    3.2942   -1.8847    1.4475 H   0  0  0  0  0  0  0  0  0  0  0  0
    1.8254   -1.1686    1.8468 H   0  0  0  0  0  0  0  0  0  0  0  0
    3.6433    1.2841   -1.5142 H   0  0  0  0  0  0  0  0  0  0  0  0
    5.8430    1.4434   -2.6259 H   0  0  0  0  0  0  0  0  0  0  0  0
    7.8436    0.3845   -1.5978 H   0  0  0  0  0  0  0  0  0  0  0  0
    7.6401   -0.8131    0.5619 H   0  0  0  0  0  0  0  0  0  0  0  0
    5.4544   -0.9515    1.7082 H   0  0  0  0  0  0  0  0  0  0  0  0
   -2.7277    2.0517   -0.4105 H   0  0  0  0  0  0  0  0  0  0  0  0
   -4.7077    2.6432   -1.5738 H   0  0  0  0  0  0  0  0  0  0  0  0
   -5.0362    2.0193   -3.1982 H   0  0  0  0  0  0  0  0  0  0  0  0
   -3.3579    2.0781   -2.6389 H   0  0  0  0  0  0  0  0  0  0  0  0
  1  2  1  0
  2  3  1  0
  3  4  2  0
  4  5  1  0
  5  6  2  0
  6  7  1  0
  7  8  1  0
  8  9  2  0
  8 10  1  0
 10 11  1  0
 11 12  2  3
 12 13  1  0
 12 14  1  0
 14 15  2  0
 15 16  1  0
 16 17  2  0
 17 18  1  0
 18 19  2  0
  6 20  1  0
 20 21  2  0
 21 22  1  0
 22 23  1  0
 21  3  1  0
 19 14  1  0
  1 24  1  0
  1 25  1  0
  1 26  1  0
  4 27  1  0
  5 28  1  0
  7 29  1  0
  7 30  1  0
 13 31  1  0
 13 32  1  0
 15 33  1  0
 16 34  1  0
 17 35  1  0
 18 36  1  0
 19 37  1  0
 20 38  1  0
 23 39  1  0
 23 40  1  0
 23 41  1  0
M  END
$$$$
