
     RDKit          3D

 52 55  0  0  0  0  0  0  0  0999 V2000
   -6.8905    0.2492    1.2410 C   0  0  0  0  0  0  0  0  0  0  0  0
   -6.2796    1.2487    0.2955 C   0  0  0  0  0  0  0  0  0  0  0  0
   -7.0433    2.3726   -0.0711 C   0  0  0  0  0  0  0  0  0  0  0  0
   -6.5394    3.3216   -0.9573 C   0  0  0  0  0  0  0  0  0  0  0  0
   -5.2705    3.1540   -1.4951 C   0  0  0  0  0  0  0  0  0  0  0  0
   -4.5014    2.0447   -1.1360 C   0  0  0  0  0  0  0  0  0  0  0  0
   -4.9694    1.0930   -0.2152 C   0  0  0  0  0  0  0  0  0  0  0  0
   -4.2141   -0.0668    0.0893 N   0  0  0  0  0  0  0  0  0  0  0  0
   -2.7990   -0.2231    0.0923 C   0  0  0  0  0  0  0  0  0  0  0  0
   -1.9935    0.8593    0.0620 N   0  0  0  0  0  0  0  0  0  0  0  0
   -0.6336    0.7308    0.1182 N   0  0  0  0  0  0  0  0  0  0  0  0
   -0.0683   -0.4927    0.2093 C   0  0  0  0  0  0  0  0  0  0  0  0
    1.3990   -0.4573    0.2996 C   0  0  0  0  0  0  0  0  0  0  0  0
    2.1676    0.0219   -0.7752 C   0  0  0  0  0  0  0  0  0  0  0  0
    3.5639    0.0730   -0.6994 C   0  0  0  0  0  0  0  0  0  0  0  0
    4.2158   -0.3443    0.4659 C   0  0  0  0  0  0  0  0  0  0  0  0
    5.6986   -0.3112    0.5960 C   0  0  0  0  0  0  0  0  0  0  0  0
    6.2687   -1.0873    1.3536 O   0  0  0  0  0  0  0  0  0  0  0  0
    6.3572    0.6514   -0.1459 N   0  0  0  0  0  0  0  0  0  0  0  0
    7.7811    0.8802    0.0653 C   0  0  0  0  0  0  0  0  0  0  0  0
    8.3822    1.6832   -1.0856 C   0  0  0  0  0  0  0  0  0  0  0  0
    8.2325    0.9840   -2.3202 O   0  0  0  0  0  0  0  0  0  0  0  0
    3.4639   -0.8279    1.5420 C   0  0  0  0  0  0  0  0  0  0  0  0
    2.0686   -0.8737    1.4622 C   0  0  0  0  0  0  0  0  0  0  0  0
   -0.8439   -1.6675    0.2140 C   0  0  0  0  0  0  0  0  0  0  0  0
   -0.2929   -2.9741    0.2585 C   0  0  0  0  0  0  0  0  0  0  0  0
   -1.0996   -4.1119    0.2531 C   0  0  0  0  0  0  0  0  0  0  0  0
   -2.4771   -3.9760    0.1924 C   0  0  0  0  0  0  0  0  0  0  0  0
   -3.0445   -2.7024    0.1380 C   0  0  0  0  0  0  0  0  0  0  0  0
   -2.2510   -1.5266    0.1528 C   0  0  0  0  0  0  0  0  0  0  0  0
   -7.9270    0.5043    1.4860 H   0  0  0  0  0  0  0  0  0  0  0  0
   -6.3265    0.2235    2.1788 H   0  0  0  0  0  0  0  0  0  0  0  0
   -6.8992   -0.7482    0.7894 H   0  0  0  0  0  0  0  0  0  0  0  0
   -8.0451    2.5114    0.3295 H   0  0  0  0  0  0  0  0  0  0  0  0
   -7.1407    4.1828   -1.2362 H   0  0  0  0  0  0  0  0  0  0  0  0
   -4.8748    3.8788   -2.2010 H   0  0  0  0  0  0  0  0  0  0  0  0
   -3.5246    1.9309   -1.5997 H   0  0  0  0  0  0  0  0  0  0  0  0
   -4.5780   -0.5450    0.9049 H   0  0  0  0  0  0  0  0  0  0  0  0
    1.6721    0.3571   -1.6857 H   0  0  0  0  0  0  0  0  0  0  0  0
    4.1215    0.4208   -1.5646 H   0  0  0  0  0  0  0  0  0  0  0  0
    5.8053    1.4410   -0.4585 H   0  0  0  0  0  0  0  0  0  0  0  0
    7.8999    1.4122    1.0148 H   0  0  0  0  0  0  0  0  0  0  0  0
    8.2769   -0.0937    0.1453 H   0  0  0  0  0  0  0  0  0  0  0  0
    7.8830    2.6523   -1.1867 H   0  0  0  0  0  0  0  0  0  0  0  0
    9.4493    1.8577   -0.9187 H   0  0  0  0  0  0  0  0  0  0  0  0
    7.4589    0.3984   -2.2220 H   0  0  0  0  0  0  0  0  0  0  0  0
    3.9619   -1.1607    2.4507 H   0  0  0  0  0  0  0  0  0  0  0  0
    1.5038   -1.2327    2.3213 H   0  0  0  0  0  0  0  0  0  0  0  0
    0.7856   -3.1216    0.2848 H   0  0  0  0  0  0  0  0  0  0  0  0
   -0.6479   -5.1005    0.2841 H   0  0  0  0  0  0  0  0  0  0  0  0
   -3.1132   -4.8577    0.1730 H   0  0  0  0  0  0  0  0  0  0  0  0
   -4.1284   -2.6359    0.0588 H   0  0  0  0  0  0  0  0  0  0  0  0
  1  2  1  0
  2  3  2  0
  3  4  1  0
  4  5  2  0
  5  6  1  0
  6  7  2  0
  7  8  1  0
  8  9  1  0
  9 10  2  0
 10 11  1  0
 11 12  2  0
 12 13  1  0
 13 14  2  0
 14 15  1  0
 15 16  2  0
 16 17  1  0
 17 18  2  0
 17 19  1  0
 19 20  1  0
 20 21  1  0
 21 22  1  0
 16 23  1  0
 23 24  2  0
 12 25  1  0
 25 26  2  0
 26 27  1  0
 27 28  2  0
 28 29  1  0
 29 30  2  0
  7  2  1  0
 30  9  1  0
 24 13  1  0
 30 25  1  0
  1 31  1  0
  1 32  1  0
  1 33  1  0
  3 34  1  0
  4 35  1  0
  5 36  1  0
  6 37  1  0
  8 38  1  0
 14 39  1  0
 15 40  1  0
 19 41  1  0
 20 42  1  0
 20 43  1  0
 21 44  1  0
 21 45  1  0
 22 46  1  0
 23 47  1  0
 24 48  1  0
 26 49  1  0
 27 50  1  0
 28 51  1  0
 29 52  1  0
M  END
$$$$
