
     RDKit          3D

 52 54  0  0  0  0  0  0  0  0999 V2000
    6.8333   -1.4637   -2.2588 C   0  0  0  0  0  0  0  0  0  0  0  0
    6.1579   -0.3131   -1.6754 N   0  0  0  0  0  0  0  0  0  0  0  0
    6.7331    1.0062   -1.9568 C   0  0  0  0  0  0  0  0  0  0  0  0
    7.5997    1.5235   -0.8095 C   0  0  0  0  0  0  0  0  0  0  0  0
    8.2390    2.7890   -1.1822 C   0  0  0  0  0  0  0  0  0  0  0  0
    8.7597    3.7795   -1.4891 N   0  0  0  0  0  0  0  0  0  0  0  0
    5.0175   -0.3740   -0.8799 C   0  0  0  0  0  0  0  0  0  0  0  0
    4.5705    0.6345   -0.3270 O   0  0  0  0  0  0  0  0  0  0  0  0
    4.3498   -1.7427   -0.6900 C   0  0  0  0  0  0  0  0  0  0  0  0
    3.0768   -1.6381   -0.0475 O   0  0  0  0  0  0  0  0  0  0  0  0
    2.0817   -1.2186   -0.8674 C   0  0  0  0  0  0  0  0  0  0  0  0
    2.1694   -1.0602   -2.0743 O   0  0  0  0  0  0  0  0  0  0  0  0
    0.8255   -1.0007   -0.1001 C   0  0  0  0  0  0  0  0  0  0  0  0
    0.8016   -1.0060    1.3180 C   0  0  0  0  0  0  0  0  0  0  0  0
   -0.3912   -0.7911    2.0204 C   0  0  0  0  0  0  0  0  0  0  0  0
   -1.5342   -0.5775    1.2755 C   0  0  0  0  0  0  0  0  0  0  0  0
   -1.5158   -0.5688   -0.1054 C   0  0  0  0  0  0  0  0  0  0  0  0
   -0.3545   -0.7723   -0.8265 C   0  0  0  0  0  0  0  0  0  0  0  0
   -2.8792   -0.3077   -0.5600 C   0  0  0  0  0  0  0  0  0  0  0  0
   -3.1896   -0.1951   -1.7304 O   0  0  0  0  0  0  0  0  0  0  0  0
   -3.6607   -0.2123    0.5629 N   0  0  0  0  0  0  0  0  0  0  0  0
   -5.0823    0.1313    0.5161 C   0  0  0  0  0  0  0  0  0  0  0  0
   -5.9610   -0.8183    1.3559 C   0  0  0  0  0  0  0  0  0  0  0  0
   -6.5619   -0.1494    2.5886 C   0  0  0  0  0  0  0  0  0  0  0  0
   -7.3687    1.0998    2.2355 C   0  0  0  0  0  0  0  0  0  0  0  0
   -6.7785    1.9100    1.0807 C   0  0  0  0  0  0  0  0  0  0  0  0
   -5.3004    1.6138    0.8614 C   0  0  0  0  0  0  0  0  0  0  0  0
   -2.9074   -0.3182    1.7022 C   0  0  0  0  0  0  0  0  0  0  0  0
   -3.2343   -0.2136    2.8684 O   0  0  0  0  0  0  0  0  0  0  0  0
    7.9031   -1.3934   -2.0384 H   0  0  0  0  0  0  0  0  0  0  0  0
    6.4644   -2.4104   -1.8629 H   0  0  0  0  0  0  0  0  0  0  0  0
    6.6817   -1.4424   -3.3418 H   0  0  0  0  0  0  0  0  0  0  0  0
    7.3106    0.9408   -2.8881 H   0  0  0  0  0  0  0  0  0  0  0  0
    5.9124    1.7101   -2.1481 H   0  0  0  0  0  0  0  0  0  0  0  0
    8.3686    0.7825   -0.5603 H   0  0  0  0  0  0  0  0  0  0  0  0
    6.9967    1.6636    0.0946 H   0  0  0  0  0  0  0  0  0  0  0  0
    4.2511   -2.2684   -1.6461 H   0  0  0  0  0  0  0  0  0  0  0  0
    4.9895   -2.3402   -0.0323 H   0  0  0  0  0  0  0  0  0  0  0  0
    1.7182   -1.1663    1.8841 H   0  0  0  0  0  0  0  0  0  0  0  0
   -0.4195   -0.7869    3.1058 H   0  0  0  0  0  0  0  0  0  0  0  0
   -0.3646   -0.7527   -1.9131 H   0  0  0  0  0  0  0  0  0  0  0  0
   -5.3963   -0.0041   -0.5280 H   0  0  0  0  0  0  0  0  0  0  0  0
   -5.4096   -1.7198    1.6490 H   0  0  0  0  0  0  0  0  0  0  0  0
   -6.7912   -1.1663    0.7259 H   0  0  0  0  0  0  0  0  0  0  0  0
   -5.7616    0.1256    3.2850 H   0  0  0  0  0  0  0  0  0  0  0  0
   -7.2034   -0.8584    3.1243 H   0  0  0  0  0  0  0  0  0  0  0  0
   -7.4454    1.7315    3.1288 H   0  0  0  0  0  0  0  0  0  0  0  0
   -8.3963    0.8161    1.9769 H   0  0  0  0  0  0  0  0  0  0  0  0
   -7.3294    1.6786    0.1605 H   0  0  0  0  0  0  0  0  0  0  0  0
   -6.9266    2.9796    1.2678 H   0  0  0  0  0  0  0  0  0  0  0  0
   -4.9105    2.2398    0.0497 H   0  0  0  0  0  0  0  0  0  0  0  0
   -4.7375    1.8950    1.7602 H   0  0  0  0  0  0  0  0  0  0  0  0
  1  2  1  0
  2  3  1  0
  3  4  1  0
  4  5  1  0
  5  6  3  0
  2  7  1  0
  7  8  2  0
  7  9  1  0
  9 10  1  0
 10 11  1  0
 11 12  2  0
 11 13  1  0
 13 14  2  0
 14 15  1  0
 15 16  2  0
 16 17  1  0
 17 18  2  0
 17 19  1  0
 19 20  2  0
 19 21  1  0
 21 22  1  0
 22 23  1  0
 23 24  1  0
 24 25  1  0
 25 26  1  0
 26 27  1  0
 21 28  1  0
 28 29  2  0
 18 13  1  0
 27 22  1  0
 28 16  1  0
  1 30  1  0
  1 31  1  0
  1 32  1  0
  3 33  1  0
  3 34  1  0
  4 35  1  0
  4 36  1  0
  9 37  1  0
  9 38  1  0
 14 39  1  0
 15 40  1  0
 18 41  1  0
 22 42  1  0
 23 43  1  0
 23 44  1  0
 24 45  1  0
 24 46  1  0
 25 47  1  0
 25 48  1  0
 26 49  1  0
 26 50  1  0
 27 51  1  0
 27 52  1  0
M  END
$$$$
