
     RDKit          3D

 45 46  0  0  0  0  0  0  0  0999 V2000
    6.6562    1.1500   -2.3002 C   0  0  0  0  0  0  0  0  0  0  0  0
    5.5957    1.3076   -1.3680 O   0  0  0  0  0  0  0  0  0  0  0  0
    4.3586    0.8449   -1.7362 C   0  0  0  0  0  0  0  0  0  0  0  0
    4.1025    0.0830   -2.8781 C   0  0  0  0  0  0  0  0  0  0  0  0
    2.7999   -0.3228   -3.1766 C   0  0  0  0  0  0  0  0  0  0  0  0
    1.7408    0.0259   -2.3364 C   0  0  0  0  0  0  0  0  0  0  0  0
    1.9683    0.7699   -1.1708 C   0  0  0  0  0  0  0  0  0  0  0  0
    0.8508    1.1757   -0.2994 C   0  0  0  0  0  0  0  0  0  0  0  0
   -0.2006    0.3937   -0.0078 C   0  0  0  0  0  0  0  0  0  0  0  0
   -1.2514    0.8845    0.9246 C   0  0  0  0  0  0  0  0  0  0  0  0
   -1.0262    1.8237    1.6837 O   0  0  0  0  0  0  0  0  0  0  0  0
   -2.4647    0.2211    0.8933 N   0  0  0  0  0  0  0  0  0  0  0  0
   -2.8691   -0.7716   -0.1071 C   0  0  0  0  0  0  0  0  0  0  0  0
   -4.3945   -0.9647   -0.1346 C   0  0  0  0  0  0  0  0  0  0  0  0
   -4.7911   -2.0380   -1.1387 C   0  0  0  0  0  0  0  0  0  0  0  0
   -4.8944   -1.3648    1.1481 O   0  0  0  0  0  0  0  0  0  0  0  0
   -4.3927   -0.5890    2.2523 C   0  0  0  0  0  0  0  0  0  0  0  0
   -3.6640   -1.5471    3.1912 C   0  0  0  0  0  0  0  0  0  0  0  0
   -3.5009    0.6033    1.8525 C   0  0  0  0  0  0  0  0  0  0  0  0
    3.2883    1.1686   -0.8797 C   0  0  0  0  0  0  0  0  0  0  0  0
    3.5204    1.9517    0.2314 O   0  0  0  0  0  0  0  0  0  0  0  0
    3.9568    1.1406    1.3221 C   0  0  0  0  0  0  0  0  0  0  0  0
    6.4213    1.6299   -3.2561 H   0  0  0  0  0  0  0  0  0  0  0  0
    7.5402    1.6459   -1.8878 H   0  0  0  0  0  0  0  0  0  0  0  0
    6.9031    0.0923   -2.4378 H   0  0  0  0  0  0  0  0  0  0  0  0
    4.8934   -0.2062   -3.5620 H   0  0  0  0  0  0  0  0  0  0  0  0
    2.6076   -0.9025   -4.0764 H   0  0  0  0  0  0  0  0  0  0  0  0
    0.7347   -0.2764   -2.6158 H   0  0  0  0  0  0  0  0  0  0  0  0
    0.9369    2.1682    0.1424 H   0  0  0  0  0  0  0  0  0  0  0  0
   -0.2824   -0.6126   -0.3917 H   0  0  0  0  0  0  0  0  0  0  0  0
   -2.5071   -0.4611   -1.0931 H   0  0  0  0  0  0  0  0  0  0  0  0
   -2.3724   -1.7095    0.1682 H   0  0  0  0  0  0  0  0  0  0  0  0
   -4.8909   -0.0267   -0.4130 H   0  0  0  0  0  0  0  0  0  0  0  0
   -4.4626   -1.7784   -2.1496 H   0  0  0  0  0  0  0  0  0  0  0  0
   -4.3595   -3.0076   -0.8665 H   0  0  0  0  0  0  0  0  0  0  0  0
   -5.8785   -2.1696   -1.1476 H   0  0  0  0  0  0  0  0  0  0  0  0
   -5.2683   -0.2008    2.7852 H   0  0  0  0  0  0  0  0  0  0  0  0
   -4.3324   -2.3584    3.4996 H   0  0  0  0  0  0  0  0  0  0  0  0
   -2.8093   -2.0192    2.6953 H   0  0  0  0  0  0  0  0  0  0  0  0
   -3.3075   -1.0312    4.0879 H   0  0  0  0  0  0  0  0  0  0  0  0
   -3.0604    1.0704    2.7401 H   0  0  0  0  0  0  0  0  0  0  0  0
   -4.1100    1.3675    1.3538 H   0  0  0  0  0  0  0  0  0  0  0  0
    4.0428    1.7844    2.2026 H   0  0  0  0  0  0  0  0  0  0  0  0
    3.2313    0.3519    1.5508 H   0  0  0  0  0  0  0  0  0  0  0  0
    4.9414    0.7033    1.1277 H   0  0  0  0  0  0  0  0  0  0  0  0
  1  2  1  0
  2  3  1  0
  3  4  2  0
  4  5  1  0
  5  6  2  0
  6  7  1  0
  7  8  1  0
  8  9  2  3
  9 10  1  0
 10 11  2  0
 10 12  1  0
 12 13  1  0
 13 14  1  0
 14 15  1  0
 14 16  1  0
 16 17  1  0
 17 18  1  0
 17 19  1  0
  7 20  2  0
 20 21  1  0
 21 22  1  0
 20  3  1  0
 19 12  1  0
  1 23  1  0
  1 24  1  0
  1 25  1  0
  4 26  1  0
  5 27  1  0
  6 28  1  0
  8 29  1  0
  9 30  1  0
 13 31  1  0
 13 32  1  0
 14 33  1  0
 15 34  1  0
 15 35  1  0
 15 36  1  0
 17 37  1  0
 18 38  1  0
 18 39  1  0
 18 40  1  0
 19 41  1  0
 19 42  1  0
 22 43  1  0
 22 44  1  0
 22 45  1  0
M  END
$$$$
