
     RDKit          3D

 67 72  0  0  0  0  0  0  0  0999 V2000
   -1.8173    4.9471    3.7851 C   0  0  0  0  0  0  0  0  0  0  0  0
   -1.7365    4.8945    2.3659 O   0  0  0  0  0  0  0  0  0  0  0  0
   -1.4982    3.6708    1.8059 C   0  0  0  0  0  0  0  0  0  0  0  0
   -1.2941    2.4765    2.4931 C   0  0  0  0  0  0  0  0  0  0  0  0
   -1.0625    1.2860    1.7913 C   0  0  0  0  0  0  0  0  0  0  0  0
   -1.0363    1.2668    0.3900 C   0  0  0  0  0  0  0  0  0  0  0  0
   -0.7827    0.0071   -0.4195 C   0  0  0  0  0  0  0  0  0  0  0  0
   -1.4866   -1.2872    0.0602 C   0  0  0  0  0  0  0  0  0  0  0  0
   -2.8190   -1.4863   -0.6775 C   0  0  0  0  0  0  0  0  0  0  0  0
   -2.8616   -1.4824   -1.9142 O   0  0  0  0  0  0  0  0  0  0  0  0
   -4.0985   -1.6866    0.1628 C   0  0  0  0  0  0  0  0  0  0  0  0
   -5.2977   -1.9037   -0.7791 C   0  0  0  0  0  0  0  0  0  0  0  0
   -3.9581   -2.9215    1.0628 C   0  0  0  0  0  0  0  0  0  0  0  0
   -4.3645   -0.4337    1.0082 C   0  0  0  0  0  0  0  0  0  0  0  0
   -0.5775   -2.3765   -0.3243 N   0  0  0  0  0  0  0  0  0  0  0  0
   -0.5387   -3.4600    0.5147 N   0  0  0  0  0  0  0  0  0  0  0  0
    0.5441   -4.1760    0.5425 C   0  0  0  0  0  0  0  0  0  0  0  0
    1.7651   -3.8861   -0.2134 C   0  0  0  0  0  0  0  0  0  0  0  0
    2.8660   -4.7406   -0.1254 C   0  0  0  0  0  0  0  0  0  0  0  0
    4.0154   -4.4504   -0.8591 C   0  0  0  0  0  0  0  0  0  0  0  0
    4.0543   -3.3187   -1.6747 C   0  0  0  0  0  0  0  0  0  0  0  0
    2.9479   -2.4689   -1.7542 C   0  0  0  0  0  0  0  0  0  0  0  0
    1.7935   -2.7403   -1.0073 C   0  0  0  0  0  0  0  0  0  0  0  0
    0.5761   -1.8643   -1.0688 C   0  0  0  0  0  0  0  0  0  0  0  0
    0.6972   -0.4155   -0.5713 C   0  0  0  0  0  0  0  0  0  0  0  0
    1.3916    0.4753   -1.5466 N   0  0  0  0  0  0  0  0  0  0  0  0
    2.3498    0.9877   -0.8402 C   0  0  0  0  0  0  0  0  0  0  0  0
    3.3309    1.9809   -1.3082 C   0  0  0  0  0  0  0  0  0  0  0  0
    4.3678    2.4348   -0.4832 C   0  0  0  0  0  0  0  0  0  0  0  0
    5.2750    3.3841   -0.9609 C   0  0  0  0  0  0  0  0  0  0  0  0
    5.1487    3.8823   -2.2578 C   0  0  0  0  0  0  0  0  0  0  0  0
    4.1183    3.4329   -3.0827 C   0  0  0  0  0  0  0  0  0  0  0  0
    3.2104    2.4833   -2.6102 C   0  0  0  0  0  0  0  0  0  0  0  0
    2.5050    0.5997    0.4377 O   0  0  0  0  0  0  0  0  0  0  0  0
    1.5175   -0.2982    0.6967 C   0  0  0  0  0  0  0  0  0  0  0  0
    1.3591   -0.8542    1.7693 O   0  0  0  0  0  0  0  0  0  0  0  0
   -1.2291    2.4792   -0.2896 C   0  0  0  0  0  0  0  0  0  0  0  0
   -1.4598    3.6644    0.4122 C   0  0  0  0  0  0  0  0  0  0  0  0
   -2.6333    4.3197    4.1592 H   0  0  0  0  0  0  0  0  0  0  0  0
   -0.8622    4.6709    4.2437 H   0  0  0  0  0  0  0  0  0  0  0  0
   -2.0376    5.9803    4.0687 H   0  0  0  0  0  0  0  0  0  0  0  0
   -1.3029    2.4327    3.5778 H   0  0  0  0  0  0  0  0  0  0  0  0
   -0.8939    0.3809    2.3732 H   0  0  0  0  0  0  0  0  0  0  0  0
   -1.1504    0.2260   -1.4339 H   0  0  0  0  0  0  0  0  0  0  0  0
   -1.6188   -1.3199    1.1433 H   0  0  0  0  0  0  0  0  0  0  0  0
   -6.2291   -2.0433   -0.2169 H   0  0  0  0  0  0  0  0  0  0  0  0
   -5.4399   -1.0445   -1.4453 H   0  0  0  0  0  0  0  0  0  0  0  0
   -5.1516   -2.7892   -1.4090 H   0  0  0  0  0  0  0  0  0  0  0  0
   -3.6942   -3.8084    0.4752 H   0  0  0  0  0  0  0  0  0  0  0  0
   -4.8906   -3.1362    1.5944 H   0  0  0  0  0  0  0  0  0  0  0  0
   -3.1805   -2.7916    1.8217 H   0  0  0  0  0  0  0  0  0  0  0  0
   -4.3697    0.4720    0.3924 H   0  0  0  0  0  0  0  0  0  0  0  0
   -3.6035   -0.2975    1.7835 H   0  0  0  0  0  0  0  0  0  0  0  0
   -5.3333   -0.4961    1.5169 H   0  0  0  0  0  0  0  0  0  0  0  0
    0.5532   -5.0609    1.1997 H   0  0  0  0  0  0  0  0  0  0  0  0
    2.8360   -5.6271    0.5019 H   0  0  0  0  0  0  0  0  0  0  0  0
    4.8785   -5.1093   -0.8041 H   0  0  0  0  0  0  0  0  0  0  0  0
    4.9472   -3.1024   -2.2575 H   0  0  0  0  0  0  0  0  0  0  0  0
    2.9898   -1.6042   -2.4147 H   0  0  0  0  0  0  0  0  0  0  0  0
    0.2466   -1.8555   -2.1181 H   0  0  0  0  0  0  0  0  0  0  0  0
    4.4829    2.0624    0.5322 H   0  0  0  0  0  0  0  0  0  0  0  0
    6.0798    3.7386   -0.3206 H   0  0  0  0  0  0  0  0  0  0  0  0
    5.8530    4.6243   -2.6268 H   0  0  0  0  0  0  0  0  0  0  0  0
    4.0186    3.8248   -4.0927 H   0  0  0  0  0  0  0  0  0  0  0  0
    2.4068    2.1457   -3.2620 H   0  0  0  0  0  0  0  0  0  0  0  0
   -1.2019    2.5140   -1.3781 H   0  0  0  0  0  0  0  0  0  0  0  0
   -1.6136    4.5917   -0.1345 H   0  0  0  0  0  0  0  0  0  0  0  0
  1  2  1  0
  2  3  1  0
  3  4  2  0
  4  5  1  0
  5  6  2  0
  6  7  1  0
  7  8  1  0
  8  9  1  0
  9 10  2  0
  9 11  1  0
 11 12  1  0
 11 13  1  0
 11 14  1  0
  8 15  1  0
 15 16  1  0
 16 17  2  0
 17 18  1  0
 18 19  2  0
 19 20  1  0
 20 21  2  0
 21 22  1  0
 22 23  2  0
 23 24  1  0
 24 25  1  0
 25 26  1  0
 26 27  2  0
 27 28  1  0
 28 29  2  0
 29 30  1  0
 30 31  2  0
 31 32  1  0
 32 33  2  0
 27 34  1  0
 34 35  1  0
 35 36  2  0
  6 37  1  0
 37 38  2  0
 38  3  1  0
 25  7  1  0
 33 28  1  0
 24 15  1  0
 35 25  1  0
 23 18  1  0
  1 39  1  0
  1 40  1  0
  1 41  1  0
  4 42  1  0
  5 43  1  0
  7 44  1  0
  8 45  1  0
 12 46  1  0
 12 47  1  0
 12 48  1  0
 13 49  1  0
 13 50  1  0
 13 51  1  0
 14 52  1  0
 14 53  1  0
 14 54  1  0
 17 55  1  0
 19 56  1  0
 20 57  1  0
 21 58  1  0
 22 59  1  0
 24 60  1  0
 29 61  1  0
 30 62  1  0
 31 63  1  0
 32 64  1  0
 33 65  1  0
 37 66  1  0
 38 67  1  0
M  END
$$$$
