
     RDKit          3D

 40 42  0  0  0  0  0  0  0  0999 V2000
    6.1251    0.8059    0.2671 C   0  0  0  0  0  0  0  0  0  0  0  0
    5.3077   -0.0072   -0.7248 C   0  0  0  0  0  0  0  0  0  0  0  0
    3.8271    0.1212   -0.4695 C   0  0  0  0  0  0  0  0  0  0  0  0
    3.1786   -0.7610    0.4029 C   0  0  0  0  0  0  0  0  0  0  0  0
    1.8100   -0.6324    0.6518 C   0  0  0  0  0  0  0  0  0  0  0  0
    1.0722    0.3826    0.0324 C   0  0  0  0  0  0  0  0  0  0  0  0
   -0.3768    0.4917    0.3158 C   0  0  0  0  0  0  0  0  0  0  0  0
   -0.9733   -0.1912    1.2481 N   0  0  0  0  0  0  0  0  0  0  0  0
   -2.4013    0.2190    1.1739 N   0  0  0  0  0  0  0  0  0  0  0  0
   -3.6191   -0.6754    1.9261 S   0  0  0  0  0  6  0  0  0  0  0  0
   -3.0284   -0.6872    3.6027 C   0  0  0  0  0  0  0  0  0  0  0  0
   -4.8341    0.1154    1.9007 O   0  0  0  0  0  0  0  0  0  0  0  0
   -3.5999   -2.0392    1.4390 O   0  0  0  0  0  0  0  0  0  0  0  0
   -2.6706    0.9199   -0.0963 C   0  0  0  0  0  0  0  0  0  0  0  0
   -3.1918    0.0191   -1.1875 C   0  0  0  0  0  0  0  0  0  0  0  0
   -2.8142   -1.2660   -1.5349 C   0  0  0  0  0  0  0  0  0  0  0  0
   -3.5432   -1.7699   -2.6497 C   0  0  0  0  0  0  0  0  0  0  0  0
   -4.4482   -0.8521   -3.1302 C   0  0  0  0  0  0  0  0  0  0  0  0
   -4.4163    0.6060   -2.2413 S   0  0  0  0  0  0  0  0  0  0  0  0
   -1.2712    1.4430   -0.4518 C   0  0  0  0  0  0  0  0  0  0  0  0
    1.7163    1.2727   -0.8322 C   0  0  0  0  0  0  0  0  0  0  0  0
    3.0865    1.1419   -1.0790 C   0  0  0  0  0  0  0  0  0  0  0  0
    5.8773    1.8712    0.2074 H   0  0  0  0  0  0  0  0  0  0  0  0
    5.9441    0.4763    1.2958 H   0  0  0  0  0  0  0  0  0  0  0  0
    7.1938    0.6942    0.0582 H   0  0  0  0  0  0  0  0  0  0  0  0
    5.6013   -1.0627   -0.6702 H   0  0  0  0  0  0  0  0  0  0  0  0
    5.5350    0.3179   -1.7474 H   0  0  0  0  0  0  0  0  0  0  0  0
    3.7352   -1.5557    0.8957 H   0  0  0  0  0  0  0  0  0  0  0  0
    1.3281   -1.3335    1.3302 H   0  0  0  0  0  0  0  0  0  0  0  0
   -2.0795   -1.2245    3.6472 H   0  0  0  0  0  0  0  0  0  0  0  0
   -2.9151    0.3425    3.9471 H   0  0  0  0  0  0  0  0  0  0  0  0
   -3.7711   -1.2019    4.2165 H   0  0  0  0  0  0  0  0  0  0  0  0
   -3.3452    1.7645    0.0842 H   0  0  0  0  0  0  0  0  0  0  0  0
   -2.0644   -1.8341   -0.9950 H   0  0  0  0  0  0  0  0  0  0  0  0
   -3.4162   -2.7604   -3.0688 H   0  0  0  0  0  0  0  0  0  0  0  0
   -5.1331   -0.9697   -3.9587 H   0  0  0  0  0  0  0  0  0  0  0  0
   -1.1193    2.4493   -0.0450 H   0  0  0  0  0  0  0  0  0  0  0  0
   -1.0627    1.4433   -1.5250 H   0  0  0  0  0  0  0  0  0  0  0  0
    1.1811    2.0815   -1.3203 H   0  0  0  0  0  0  0  0  0  0  0  0
    3.5756    1.8449   -1.7508 H   0  0  0  0  0  0  0  0  0  0  0  0
  1  2  1  0
  2  3  1  0
  3  4  2  0
  4  5  1  0
  5  6  2  0
  6  7  1  0
  7  8  2  0
  8  9  1  0
  9 10  1  0
 10 11  1  0
 10 12  2  0
 10 13  2  0
  9 14  1  0
 14 15  1  0
 15 16  2  0
 16 17  1  0
 17 18  2  0
 18 19  1  0
 14 20  1  0
  6 21  1  0
 21 22  2  0
 22  3  1  0
 20  7  1  0
 19 15  1  0
  1 23  1  0
  1 24  1  0
  1 25  1  0
  2 26  1  0
  2 27  1  0
  4 28  1  0
  5 29  1  0
 11 30  1  0
 11 31  1  0
 11 32  1  0
 14 33  1  0
 16 34  1  0
 17 35  1  0
 18 36  1  0
 20 37  1  0
 20 38  1  0
 21 39  1  0
 22 40  1  0
M  END
$$$$
