
     RDKit          3D

 56 60  0  0  0  0  0  0  0  0999 V2000
    5.7069   -2.8010   -0.6002 C   0  0  0  0  0  0  0  0  0  0  0  0
    4.3848   -3.3493   -0.0892 C   0  0  0  0  0  0  0  0  0  0  0  0
    3.6400   -2.3608    0.6514 N   0  0  0  0  0  0  0  0  0  0  0  0
    3.7305   -2.1587    2.0247 C   0  0  0  0  0  0  0  0  0  0  0  0
    4.3824   -2.7626    2.8532 O   0  0  0  0  0  0  0  0  0  0  0  0
    2.8469   -1.0074    2.3043 C   0  0  0  0  0  0  0  0  0  0  0  0
    2.5324   -0.3696    3.4853 C   0  0  0  0  0  0  0  0  0  0  0  0
    1.6527    0.7170    3.4128 C   0  0  0  0  0  0  0  0  0  0  0  0
    1.1122    1.1400    2.1748 C   0  0  0  0  0  0  0  0  0  0  0  0
    1.4388    0.4781    0.9550 C   0  0  0  0  0  0  0  0  0  0  0  0
    1.0279    0.6979   -0.3917 C   0  0  0  0  0  0  0  0  0  0  0  0
   -0.1250    1.9982   -0.7901 S   0  0  0  0  0  6  0  0  0  0  0  0
    0.2957    3.1756   -0.0601 O   0  0  0  0  0  0  0  0  0  0  0  0
   -0.2482    2.0575   -2.2347 O   0  0  0  0  0  0  0  0  0  0  0  0
   -1.5919    1.4371   -0.1678 N   0  0  0  0  0  0  0  0  0  0  0  0
   -2.3248    2.0758    0.8643 C   0  0  0  0  0  0  0  0  0  0  0  0
   -2.8122    1.4782    1.8173 O   0  0  0  0  0  0  0  0  0  0  0  0
   -2.5843    3.5273    0.7222 C   0  0  0  0  0  0  0  0  0  0  0  0
   -2.6600    4.1865   -0.5079 C   0  0  0  0  0  0  0  0  0  0  0  0
   -2.9161    5.5567   -0.5338 C   0  0  0  0  0  0  0  0  0  0  0  0
   -3.1019    6.2174    0.6705 C   0  0  0  0  0  0  0  0  0  0  0  0
   -3.0581    5.6067    1.8743 N   0  0  0  0  0  0  0  0  0  0  0  0
   -2.8030    4.2747    1.8733 C   0  0  0  0  0  0  0  0  0  0  0  0
   -2.0035    0.1118   -0.5330 C   0  0  0  0  0  0  0  0  0  0  0  0
   -2.4785   -0.1285   -1.8249 C   0  0  0  0  0  0  0  0  0  0  0  0
   -2.8310   -1.4235   -2.2223 C   0  0  0  0  0  0  0  0  0  0  0  0
   -2.7077   -2.4882   -1.3297 C   0  0  0  0  0  0  0  0  0  0  0  0
   -3.0096   -3.7954   -1.5902 O   0  0  0  0  0  0  0  0  0  0  0  0
   -3.5535   -4.0894   -2.8708 C   0  0  0  0  0  0  0  0  0  0  0  0
   -2.2313   -2.2453   -0.0392 C   0  0  0  0  0  0  0  0  0  0  0  0
   -1.8805   -0.9539    0.3608 C   0  0  0  0  0  0  0  0  0  0  0  0
    1.5169   -0.1113   -1.4527 C   0  0  0  0  0  0  0  0  0  0  0  0
    2.4060   -1.1692   -1.2084 C   0  0  0  0  0  0  0  0  0  0  0  0
    2.7893   -1.3935    0.0960 C   0  0  0  0  0  0  0  0  0  0  0  0
    2.3178   -0.5935    1.1075 C   0  0  0  0  0  0  0  0  0  0  0  0
    6.3313   -2.4476    0.2271 H   0  0  0  0  0  0  0  0  0  0  0  0
    5.5493   -1.9591   -1.2821 H   0  0  0  0  0  0  0  0  0  0  0  0
    6.2586   -3.5779   -1.1384 H   0  0  0  0  0  0  0  0  0  0  0  0
    4.5862   -4.1961    0.5767 H   0  0  0  0  0  0  0  0  0  0  0  0
    3.7727   -3.7219   -0.9173 H   0  0  0  0  0  0  0  0  0  0  0  0
    2.9552   -0.6993    4.4286 H   0  0  0  0  0  0  0  0  0  0  0  0
    1.3821    1.2502    4.3230 H   0  0  0  0  0  0  0  0  0  0  0  0
    0.4439    1.9980    2.1839 H   0  0  0  0  0  0  0  0  0  0  0  0
   -2.5347    3.6564   -1.4475 H   0  0  0  0  0  0  0  0  0  0  0  0
   -2.9704    6.0973   -1.4728 H   0  0  0  0  0  0  0  0  0  0  0  0
   -3.3011    7.2853    0.6992 H   0  0  0  0  0  0  0  0  0  0  0  0
   -2.7792    3.8183    2.8602 H   0  0  0  0  0  0  0  0  0  0  0  0
   -2.5754    0.6870   -2.5381 H   0  0  0  0  0  0  0  0  0  0  0  0
   -3.1937   -1.5649   -3.2352 H   0  0  0  0  0  0  0  0  0  0  0  0
   -4.4996   -3.5614   -3.0291 H   0  0  0  0  0  0  0  0  0  0  0  0
   -3.7611   -5.1632   -2.9074 H   0  0  0  0  0  0  0  0  0  0  0  0
   -2.8354   -3.8617   -3.6653 H   0  0  0  0  0  0  0  0  0  0  0  0
   -2.1355   -3.0699    0.6639 H   0  0  0  0  0  0  0  0  0  0  0  0
   -1.5172   -0.7952    1.3732 H   0  0  0  0  0  0  0  0  0  0  0  0
    1.1978    0.0741   -2.4779 H   0  0  0  0  0  0  0  0  0  0  0  0
    2.7667   -1.7838   -2.0256 H   0  0  0  0  0  0  0  0  0  0  0  0
  1  2  1  0
  2  3  1  0
  3  4  1  0
  4  5  2  0
  4  6  1  0
  6  7  2  0
  7  8  1  0
  8  9  2  0
  9 10  1  0
 10 11  2  0
 11 12  1  0
 12 13  2  0
 12 14  2  0
 12 15  1  0
 15 16  1  0
 16 17  2  0
 16 18  1  0
 18 19  2  0
 19 20  1  0
 20 21  2  0
 21 22  1  0
 22 23  2  0
 15 24  1  0
 24 25  2  0
 25 26  1  0
 26 27  2  0
 27 28  1  0
 28 29  1  0
 27 30  1  0
 30 31  2  0
 11 32  1  0
 32 33  2  0
 33 34  1  0
 34 35  2  0
 34  3  1  0
 35  6  1  0
 35 10  1  0
 23 18  1  0
 31 24  1  0
  1 36  1  0
  1 37  1  0
  1 38  1  0
  2 39  1  0
  2 40  1  0
  7 41  1  0
  8 42  1  0
  9 43  1  0
 19 44  1  0
 20 45  1  0
 21 46  1  0
 23 47  1  0
 25 48  1  0
 26 49  1  0
 29 50  1  0
 29 51  1  0
 29 52  1  0
 30 53  1  0
 31 54  1  0
 32 55  1  0
 33 56  1  0
M  END
$$$$
