
     RDKit          3D

 42 45  0  0  0  0  0  0  0  0999 V2000
    6.5963    0.1750   -1.3882 C   0  0  0  0  0  0  0  0  0  0  0  0
    7.0679   -0.4551   -0.1631 N   0  0  0  0  0  0  0  0  0  0  0  0
    8.4664   -0.8547   -0.1616 C   0  0  0  0  0  0  0  0  0  0  0  0
    6.2334   -1.0226    0.8006 C   0  0  0  0  0  0  0  0  0  0  0  0
    6.6734   -1.7660    1.6836 O   0  0  0  0  0  0  0  0  0  0  0  0
    4.7492   -0.6967    0.7683 C   0  0  0  0  0  0  0  0  0  0  0  0
    3.8962   -1.8355   -0.3593 S   0  0  0  0  0  0  0  0  0  0  0  0
    2.2532   -1.2574   -0.1984 C   0  0  0  0  0  0  0  0  0  0  0  0
    1.9708   -0.1384    0.4260 N   0  0  0  0  0  0  0  0  0  0  0  0
    0.6041    0.0756    0.3991 C   0  0  0  0  0  0  0  0  0  0  0  0
   -0.0763    1.1625    0.9683 C   0  0  0  0  0  0  0  0  0  0  0  0
   -1.4751    1.2477    0.8597 C   0  0  0  0  0  0  0  0  0  0  0  0
   -2.2380    0.2762    0.1942 C   0  0  0  0  0  0  0  0  0  0  0  0
   -3.6652    0.3849    0.0968 N   0  0  0  0  0  0  0  0  0  0  0  0
   -4.4898   -0.5225   -0.5436 C   0  0  0  0  0  0  0  0  0  0  0  0
   -4.2572   -1.5567   -1.1439 O   0  0  0  0  0  0  0  0  0  0  0  0
   -5.8592   -0.0398   -0.4063 C   0  0  0  0  0  0  0  0  0  0  0  0
   -7.0482   -0.5781   -0.8633 C   0  0  0  0  0  0  0  0  0  0  0  0
   -8.2233    0.1220   -0.5739 C   0  0  0  0  0  0  0  0  0  0  0  0
   -8.1823    1.3272    0.1552 C   0  0  0  0  0  0  0  0  0  0  0  0
   -6.9656    1.8489    0.6051 C   0  0  0  0  0  0  0  0  0  0  0  0
   -5.8191    1.1362    0.3051 C   0  0  0  0  0  0  0  0  0  0  0  0
   -4.4237    1.4128    0.6275 C   0  0  0  0  0  0  0  0  0  0  0  0
   -4.1228    2.4108    1.2581 O   0  0  0  0  0  0  0  0  0  0  0  0
   -1.5477   -0.8118   -0.3746 C   0  0  0  0  0  0  0  0  0  0  0  0
   -0.1436   -0.8940   -0.2631 C   0  0  0  0  0  0  0  0  0  0  0  0
    0.9244   -2.1058   -0.8626 S   0  0  0  0  0  0  0  0  0  0  0  0
    5.6145    0.6333   -1.2735 H   0  0  0  0  0  0  0  0  0  0  0  0
    6.5438   -0.5863   -2.1723 H   0  0  0  0  0  0  0  0  0  0  0  0
    7.3033    0.9554   -1.6853 H   0  0  0  0  0  0  0  0  0  0  0  0
    8.5906   -1.6969   -0.8489 H   0  0  0  0  0  0  0  0  0  0  0  0
    8.7999   -1.1570    0.8350 H   0  0  0  0  0  0  0  0  0  0  0  0
    9.0834   -0.0143   -0.4930 H   0  0  0  0  0  0  0  0  0  0  0  0
    4.3571   -0.8305    1.7832 H   0  0  0  0  0  0  0  0  0  0  0  0
    4.5895    0.3516    0.5034 H   0  0  0  0  0  0  0  0  0  0  0  0
    0.4810    1.9337    1.4920 H   0  0  0  0  0  0  0  0  0  0  0  0
   -1.9308    2.1168    1.3259 H   0  0  0  0  0  0  0  0  0  0  0  0
   -7.0648   -1.5077   -1.4239 H   0  0  0  0  0  0  0  0  0  0  0  0
   -9.1815   -0.2667   -0.9147 H   0  0  0  0  0  0  0  0  0  0  0  0
   -9.1093    1.8565    0.3698 H   0  0  0  0  0  0  0  0  0  0  0  0
   -6.9190    2.7761    1.1678 H   0  0  0  0  0  0  0  0  0  0  0  0
   -2.0557   -1.6087   -0.9055 H   0  0  0  0  0  0  0  0  0  0  0  0
  1  2  1  0
  2  3  1  0
  2  4  1  0
  4  5  2  0
  4  6  1  0
  6  7  1  0
  7  8  1  0
  8  9  2  0
  9 10  1  0
 10 11  2  0
 11 12  1  0
 12 13  2  0
 13 14  1  0
 14 15  1  0
 15 16  2  0
 15 17  1  0
 17 18  2  0
 18 19  1  0
 19 20  2  0
 20 21  1  0
 21 22  2  0
 22 23  1  0
 23 24  2  0
 13 25  1  0
 25 26  2  0
 26 27  1  0
 27  8  1  0
 26 10  1  0
 23 14  1  0
 22 17  1  0
  1 28  1  0
  1 29  1  0
  1 30  1  0
  3 31  1  0
  3 32  1  0
  3 33  1  0
  6 34  1  0
  6 35  1  0
 11 36  1  0
 12 37  1  0
 18 38  1  0
 19 39  1  0
 20 40  1  0
 21 41  1  0
 25 42  1  0
M  END
$$$$
