
     RDKit          3D

 45 49  0  0  0  0  0  0  0  0999 V2000
    0.7693    0.0320   -0.7337 O   0  0  0  0  0  0  0  0  0  0  0  0
    0.6782   -1.0580   -0.1852 C   0  0  0  0  0  0  0  0  0  0  0  0
   -0.5846   -1.8178    0.1297 C   0  0  0  0  0  0  0  0  0  0  0  0
   -1.7770   -1.0102   -0.0544 N   0  0  0  0  0  0  0  0  0  0  0  0
   -2.2822   -0.1345    0.8972 C   0  0  0  0  0  0  0  0  0  0  0  0
   -1.6862    0.0370    2.0683 O   0  0  0  0  0  0  0  0  0  0  0  0
   -3.3966    0.4188    0.3410 C   0  0  0  0  0  0  0  0  0  0  0  0
   -3.5767   -0.1282   -0.9493 C   0  0  0  0  0  0  0  0  0  0  0  0
   -2.5742   -1.0199   -1.1898 C   0  0  0  0  0  0  0  0  0  0  0  0
   -2.2918   -1.7872   -2.2326 O   0  0  0  0  0  0  0  0  0  0  0  0
   -4.8036    0.5013   -1.5282 C   0  0  0  0  0  0  0  0  0  0  0  0
   -6.0280   -0.0233   -0.7343 C   0  0  0  0  0  0  0  0  0  0  0  0
   -5.8285    0.5825    0.6941 C   0  0  0  0  0  0  0  0  0  0  0  0
   -4.5108    1.3902    0.5680 C   0  0  0  0  0  0  0  0  0  0  0  0
   -4.6885    1.9258   -0.8913 C   0  0  0  0  0  0  0  0  0  0  0  0
    1.7549   -1.8495    0.2374 O   0  0  0  0  0  0  0  0  0  0  0  0
    3.0326   -1.3035    0.0593 C   0  0  0  0  0  0  0  0  0  0  0  0
    3.9363   -2.0258   -0.7124 C   0  0  0  0  0  0  0  0  0  0  0  0
    5.2376   -1.5471   -0.8666 C   0  0  0  0  0  0  0  0  0  0  0  0
    5.6433   -0.3558   -0.2403 C   0  0  0  0  0  0  0  0  0  0  0  0
    6.9495    0.1379   -0.3866 C   0  0  0  0  0  0  0  0  0  0  0  0
    7.3404    1.3209    0.2430 C   0  0  0  0  0  0  0  0  0  0  0  0
    6.4313    2.0258    1.0265 C   0  0  0  0  0  0  0  0  0  0  0  0
    5.1287    1.5498    1.1833 C   0  0  0  0  0  0  0  0  0  0  0  0
    4.7187    0.3617    0.5574 C   0  0  0  0  0  0  0  0  0  0  0  0
    3.4126   -0.1286    0.7078 C   0  0  0  0  0  0  0  0  0  0  0  0
   -0.5700   -2.1486    1.1735 H   0  0  0  0  0  0  0  0  0  0  0  0
   -0.6525   -2.6964   -0.5188 H   0  0  0  0  0  0  0  0  0  0  0  0
   -2.1928    0.7246    2.5369 H   0  0  0  0  0  0  0  0  0  0  0  0
   -2.9524   -1.5777   -2.9169 H   0  0  0  0  0  0  0  0  0  0  0  0
   -4.8895    0.4727   -2.6142 H   0  0  0  0  0  0  0  0  0  0  0  0
   -6.0693   -1.1173   -0.7003 H   0  0  0  0  0  0  0  0  0  0  0  0
   -6.9636    0.3478   -1.1676 H   0  0  0  0  0  0  0  0  0  0  0  0
   -5.7684   -0.2035    1.4548 H   0  0  0  0  0  0  0  0  0  0  0  0
   -6.6693    1.2411    0.9389 H   0  0  0  0  0  0  0  0  0  0  0  0
   -4.3381    2.1465    1.3333 H   0  0  0  0  0  0  0  0  0  0  0  0
   -5.5879    2.5369   -1.0248 H   0  0  0  0  0  0  0  0  0  0  0  0
   -3.8089    2.4764   -1.2476 H   0  0  0  0  0  0  0  0  0  0  0  0
    3.6350   -2.9513   -1.1932 H   0  0  0  0  0  0  0  0  0  0  0  0
    5.9372   -2.1117   -1.4787 H   0  0  0  0  0  0  0  0  0  0  0  0
    7.6746   -0.3973   -0.9955 H   0  0  0  0  0  0  0  0  0  0  0  0
    8.3544    1.6920    0.1194 H   0  0  0  0  0  0  0  0  0  0  0  0
    6.7339    2.9484    1.5149 H   0  0  0  0  0  0  0  0  0  0  0  0
    4.4312    2.1166    1.7962 H   0  0  0  0  0  0  0  0  0  0  0  0
    2.6920    0.4066    1.3201 H   0  0  0  0  0  0  0  0  0  0  0  0
  1  2  2  0
  2  3  1  0
  3  4  1  0
  4  5  1  0
  5  6  1  0
  5  7  2  0
  7  8  1  0
  8  9  2  0
  9 10  1  0
  8 11  1  0
 11 12  1  0
 12 13  1  0
 13 14  1  0
 14 15  1  0
  2 16  1  0
 16 17  1  0
 17 18  2  0
 18 19  1  0
 19 20  2  0
 20 21  1  0
 21 22  2  0
 22 23  1  0
 23 24  2  0
 24 25  1  0
 25 26  2  0
  9  4  1  0
 15 11  1  0
 26 17  1  0
 14  7  1  0
 25 20  1  0
  3 27  1  0
  3 28  1  0
  6 29  1  0
 10 30  1  0
 11 31  1  0
 12 32  1  0
 12 33  1  0
 13 34  1  0
 13 35  1  0
 14 36  1  0
 15 37  1  0
 15 38  1  0
 18 39  1  0
 19 40  1  0
 21 41  1  0
 22 42  1  0
 23 43  1  0
 24 44  1  0
 26 45  1  0
M  END
$$$$
