
     RDKit          3D

 36 38  0  0  0  0  0  0  0  0999 V2000
   -0.8306    1.0576   -3.0669 C   0  0  0  0  0  0  0  0  0  0  0  0
   -0.7887   -0.2989   -2.3756 C   0  0  0  0  0  0  0  0  0  0  0  0
   -1.3359   -0.2355   -1.0154 N   0  0  0  0  0  0  0  0  0  0  0  0
   -0.5590   -0.0302    0.1138 C   0  0  0  0  0  0  0  0  0  0  0  0
    0.8991    0.1740   -0.0845 C   0  0  0  0  0  0  0  0  0  0  0  0
    1.7600   -0.4196    0.7544 C   0  0  0  0  0  0  0  0  0  0  0  0
    3.1612   -0.2370    0.6071 C   0  0  0  0  0  0  0  0  0  0  0  0
    4.1890   -0.7199    1.4153 C   0  0  0  0  0  0  0  0  0  0  0  0
    5.4242   -0.2830    0.8736 C   0  0  0  0  0  0  0  0  0  0  0  0
    5.0850    0.4413   -0.2390 C   0  0  0  0  0  0  0  0  0  0  0  0
    5.8781    1.1324   -1.2048 N   0  0  0  0  0  4  0  0  0  0  0  0
    7.1039    1.1010   -1.0299 O   0  0  0  0  0  0  0  0  0  0  0  0
    5.2925    1.7015   -2.1350 O   0  0  0  0  0  1  0  0  0  0  0  0
    3.7418    0.4822   -0.4191 O   0  0  0  0  0  0  0  0  0  0  0  0
   -1.0360    0.0054    1.3202 N   0  0  0  0  0  0  0  0  0  0  0  0
   -2.4102   -0.1636    1.5083 C   0  0  0  0  0  0  0  0  0  0  0  0
   -2.9228   -0.1330    2.8076 C   0  0  0  0  0  0  0  0  0  0  0  0
   -4.2924   -0.2923    3.0377 C   0  0  0  0  0  0  0  0  0  0  0  0
   -5.1628   -0.4831    1.9652 C   0  0  0  0  0  0  0  0  0  0  0  0
   -4.6623   -0.5145    0.6643 C   0  0  0  0  0  0  0  0  0  0  0  0
   -3.2881   -0.3543    0.4472 C   0  0  0  0  0  0  0  0  0  0  0  0
   -2.7212   -0.3846   -0.9101 C   0  0  0  0  0  0  0  0  0  0  0  0
   -3.4736   -0.5363   -1.8706 O   0  0  0  0  0  0  0  0  0  0  0  0
   -0.2602    1.8077   -2.5106 H   0  0  0  0  0  0  0  0  0  0  0  0
   -0.4076    0.9829   -4.0734 H   0  0  0  0  0  0  0  0  0  0  0  0
   -1.8585    1.4236   -3.1563 H   0  0  0  0  0  0  0  0  0  0  0  0
    0.2379   -0.6771   -2.3561 H   0  0  0  0  0  0  0  0  0  0  0  0
   -1.3682   -1.0191   -2.9653 H   0  0  0  0  0  0  0  0  0  0  0  0
    1.2231    0.8286   -0.8837 H   0  0  0  0  0  0  0  0  0  0  0  0
    1.4004   -1.0470    1.5663 H   0  0  0  0  0  0  0  0  0  0  0  0
    4.0506   -1.3222    2.3044 H   0  0  0  0  0  0  0  0  0  0  0  0
    6.4222   -0.4719    1.2449 H   0  0  0  0  0  0  0  0  0  0  0  0
   -2.2470    0.0189    3.6454 H   0  0  0  0  0  0  0  0  0  0  0  0
   -4.6775   -0.2653    4.0541 H   0  0  0  0  0  0  0  0  0  0  0  0
   -6.2286   -0.6062    2.1419 H   0  0  0  0  0  0  0  0  0  0  0  0
   -5.3377   -0.6627   -0.1753 H   0  0  0  0  0  0  0  0  0  0  0  0
  1  2  1  0
  2  3  1  0
  3  4  1  0
  4  5  1  0
  5  6  2  3
  6  7  1  0
  7  8  2  0
  8  9  1  0
  9 10  2  0
 10 11  1  0
 11 12  2  0
 11 13  1  0
 10 14  1  0
  4 15  2  0
 15 16  1  0
 16 17  2  0
 17 18  1  0
 18 19  2  0
 19 20  1  0
 20 21  2  0
 21 22  1  0
 22 23  2  0
 22  3  1  0
 14  7  1  0
 21 16  1  0
  1 24  1  0
  1 25  1  0
  1 26  1  0
  2 27  1  0
  2 28  1  0
  5 29  1  0
  6 30  1  0
  8 31  1  0
  9 32  1  0
 17 33  1  0
 18 34  1  0
 19 35  1  0
 20 36  1  0
M  CHG  2  11   1  13  -1
M  END
$$$$
