
     RDKit          3D

 61 61  0  0  0  0  0  0  0  0999 V2000
    7.6165   -1.4723    1.6866 C   0  0  0  0  0  0  0  0  0  0  0  0
    6.7207   -0.3113    2.0897 C   0  0  0  0  0  0  0  0  0  0  0  0
    6.7309    0.8480    1.0896 C   0  0  0  0  0  0  0  0  0  0  0  0
    6.1114    0.4853   -0.2623 C   0  0  0  0  0  0  0  0  0  0  0  0
    6.1197    1.6443   -1.2652 C   0  0  0  0  0  0  0  0  0  0  0  0
    5.3371    2.8945   -0.8498 C   0  0  0  0  0  0  0  0  0  0  0  0
    3.8658    2.6666   -0.4876 C   0  0  0  0  0  0  0  0  0  0  0  0
    3.0451    2.0795   -1.6388 C   0  0  0  0  0  0  0  0  0  0  0  0
    1.5397    2.0351   -1.3518 C   0  0  0  0  0  0  0  0  0  0  0  0
    1.1661    1.0567   -0.2346 C   0  0  0  0  0  0  0  0  0  0  0  0
   -0.3389    1.0078    0.0552 C   0  0  0  0  0  0  0  0  0  0  0  0
   -1.1554    0.3728   -1.0739 C   0  0  0  0  0  0  0  0  0  0  0  0
   -2.6606    0.3250   -0.7848 C   0  0  0  0  0  0  0  0  0  0  0  0
   -3.0347   -0.6469    0.3374 C   0  0  0  0  0  0  0  0  0  0  0  0
   -4.5391   -0.6970    0.6165 C   0  0  0  0  0  0  0  0  0  0  0  0
   -5.3524   -1.2926   -0.5284 C   0  0  0  0  0  0  0  0  0  0  0  0
   -6.7613   -1.4371   -0.1470 N   0  0  0  0  0  0  0  0  0  0  0  0
   -7.7580   -0.4921   -0.3340 C   0  0  0  0  0  0  0  0  0  0  0  0
   -8.9107   -1.0323    0.1617 C   0  0  0  0  0  0  0  0  0  0  0  0
   -8.5886   -2.2918    0.6403 N   0  0  0  0  0  4  0  0  0  0  0  0
   -9.5174   -3.2304    1.2562 C   0  0  0  0  0  0  0  0  0  0  0  0
   -7.2824   -2.5237    0.4436 C   0  0  0  0  0  0  0  0  0  0  0  0
    7.2482   -1.9704    0.7852 H   0  0  0  0  0  0  0  0  0  0  0  0
    7.6460   -2.2186    2.4871 H   0  0  0  0  0  0  0  0  0  0  0  0
    8.6407   -1.1333    1.5021 H   0  0  0  0  0  0  0  0  0  0  0  0
    5.6956   -0.6727    2.2319 H   0  0  0  0  0  0  0  0  0  0  0  0
    7.0606    0.0671    3.0612 H   0  0  0  0  0  0  0  0  0  0  0  0
    7.7596    1.1993    0.9439 H   0  0  0  0  0  0  0  0  0  0  0  0
    6.1728    1.6772    1.5387 H   0  0  0  0  0  0  0  0  0  0  0  0
    6.6736   -0.3411   -0.7122 H   0  0  0  0  0  0  0  0  0  0  0  0
    5.0888    0.1193   -0.1174 H   0  0  0  0  0  0  0  0  0  0  0  0
    7.1595    1.9381   -1.4573 H   0  0  0  0  0  0  0  0  0  0  0  0
    5.7312    1.2775   -2.2229 H   0  0  0  0  0  0  0  0  0  0  0  0
    5.8370    3.3703    0.0022 H   0  0  0  0  0  0  0  0  0  0  0  0
    5.3910    3.6212   -1.6704 H   0  0  0  0  0  0  0  0  0  0  0  0
    3.4344    3.6326   -0.1967 H   0  0  0  0  0  0  0  0  0  0  0  0
    3.8026    2.0219    0.3948 H   0  0  0  0  0  0  0  0  0  0  0  0
    3.3939    1.0684   -1.8774 H   0  0  0  0  0  0  0  0  0  0  0  0
    3.2032    2.6903   -2.5363 H   0  0  0  0  0  0  0  0  0  0  0  0
    1.1828    3.0409   -1.0999 H   0  0  0  0  0  0  0  0  0  0  0  0
    1.0361    1.7434   -2.2800 H   0  0  0  0  0  0  0  0  0  0  0  0
    1.6699    1.3534    0.6922 H   0  0  0  0  0  0  0  0  0  0  0  0
    1.5264    0.0513   -0.4835 H   0  0  0  0  0  0  0  0  0  0  0  0
   -0.7080    2.0203    0.2582 H   0  0  0  0  0  0  0  0  0  0  0  0
   -0.4772    0.4296    0.9754 H   0  0  0  0  0  0  0  0  0  0  0  0
   -1.0162    0.9499   -1.9947 H   0  0  0  0  0  0  0  0  0  0  0  0
   -0.7869   -0.6402   -1.2757 H   0  0  0  0  0  0  0  0  0  0  0  0
   -3.1640    0.0233   -1.7103 H   0  0  0  0  0  0  0  0  0  0  0  0
   -3.0211    1.3317   -0.5414 H   0  0  0  0  0  0  0  0  0  0  0  0
   -2.5366   -0.3465    1.2657 H   0  0  0  0  0  0  0  0  0  0  0  0
   -2.6725   -1.6529    0.0939 H   0  0  0  0  0  0  0  0  0  0  0  0
   -4.7042   -1.2996    1.5186 H   0  0  0  0  0  0  0  0  0  0  0  0
   -4.9095    0.3087    0.8495 H   0  0  0  0  0  0  0  0  0  0  0  0
   -5.3082   -0.6621   -1.4225 H   0  0  0  0  0  0  0  0  0  0  0  0
   -4.9732   -2.2842   -0.8006 H   0  0  0  0  0  0  0  0  0  0  0  0
   -7.5134    0.4478   -0.7983 H   0  0  0  0  0  0  0  0  0  0  0  0
   -9.9263   -0.6835    0.2384 H   0  0  0  0  0  0  0  0  0  0  0  0
  -10.0683   -2.7226    2.0525 H   0  0  0  0  0  0  0  0  0  0  0  0
  -10.2122   -3.5932    0.4942 H   0  0  0  0  0  0  0  0  0  0  0  0
   -8.9666   -4.0743    1.6799 H   0  0  0  0  0  0  0  0  0  0  0  0
   -6.7432   -3.4246    0.7135 H   0  0  0  0  0  0  0  0  0  0  0  0
  1  2  1  0
  2  3  1  0
  3  4  1  0
  4  5  1  0
  5  6  1  0
  6  7  1  0
  7  8  1  0
  8  9  1  0
  9 10  1  0
 10 11  1  0
 11 12  1  0
 12 13  1  0
 13 14  1  0
 14 15  1  0
 15 16  1  0
 16 17  1  0
 17 18  1  0
 18 19  2  0
 19 20  1  0
 20 21  1  0
 20 22  2  0
 22 17  1  0
  1 23  1  0
  1 24  1  0
  1 25  1  0
  2 26  1  0
  2 27  1  0
  3 28  1  0
  3 29  1  0
  4 30  1  0
  4 31  1  0
  5 32  1  0
  5 33  1  0
  6 34  1  0
  6 35  1  0
  7 36  1  0
  7 37  1  0
  8 38  1  0
  8 39  1  0
  9 40  1  0
  9 41  1  0
 10 42  1  0
 10 43  1  0
 11 44  1  0
 11 45  1  0
 12 46  1  0
 12 47  1  0
 13 48  1  0
 13 49  1  0
 14 50  1  0
 14 51  1  0
 15 52  1  0
 15 53  1  0
 16 54  1  0
 16 55  1  0
 18 56  1  0
 19 57  1  0
 21 58  1  0
 21 59  1  0
 21 60  1  0
 22 61  1  0
M  CHG  1  20   1
M  END
$$$$
