
     RDKit          3D

 60 64  0  0  0  0  0  0  0  0999 V2000
    3.1678    2.4029   -0.0439 O   0  0  0  0  0  0  0  0  0  0  0  0
    2.8388    1.2458   -0.2727 C   0  0  0  0  0  0  0  0  0  0  0  0
    3.6583    0.1320   -0.2865 N   0  0  0  0  0  0  0  0  0  0  0  0
    5.0609    0.1076   -0.1316 C   0  0  0  0  0  0  0  0  0  0  0  0
    5.6747   -1.1496   -0.0631 C   0  0  0  0  0  0  0  0  0  0  0  0
    7.0609   -1.2599    0.0861 C   0  0  0  0  0  0  0  0  0  0  0  0
    7.8528   -0.1120    0.1668 C   0  0  0  0  0  0  0  0  0  0  0  0
    9.3240   -0.2440    0.3235 C   0  0  0  0  0  0  0  0  0  0  0  0
    9.9241   -1.4015    0.1844 N   0  0  0  0  0  0  0  0  0  0  0  0
   11.3669   -1.1064    0.4023 C   0  0  0  0  0  0  0  0  0  0  0  0
   11.4324    0.2976    1.0040 C   0  0  0  0  0  0  0  0  0  0  0  0
   10.1350    0.8219    0.6422 N   0  0  0  0  0  0  0  0  0  0  0  0
    7.2481    1.1446    0.0850 C   0  0  0  0  0  0  0  0  0  0  0  0
    5.8587    1.2513   -0.0616 C   0  0  0  0  0  0  0  0  0  0  0  0
    1.3944    0.9737   -0.5232 C   0  0  0  0  0  0  0  0  0  0  0  0
    0.4427    1.7629    0.1442 C   0  0  0  0  0  0  0  0  0  0  0  0
   -0.9264    1.5637   -0.0678 C   0  0  0  0  0  0  0  0  0  0  0  0
   -1.3571    0.5660   -0.9521 C   0  0  0  0  0  0  0  0  0  0  0  0
   -2.8004    0.4245   -1.2374 C   0  0  0  0  0  0  0  0  0  0  0  0
   -3.1387    0.4733   -2.4110 O   0  0  0  0  0  0  0  0  0  0  0  0
   -3.5913    0.2558   -0.1193 N   0  0  0  0  0  0  0  0  0  0  0  0
   -4.9968    0.1350   -0.0853 C   0  0  0  0  0  0  0  0  0  0  0  0
   -5.8168    0.2601   -1.2080 C   0  0  0  0  0  0  0  0  0  0  0  0
   -7.2070    0.1382   -1.0887 C   0  0  0  0  0  0  0  0  0  0  0  0
   -7.7901   -0.1196    0.1537 C   0  0  0  0  0  0  0  0  0  0  0  0
   -9.2643   -0.2547    0.2632 C   0  0  0  0  0  0  0  0  0  0  0  0
  -10.0610    0.1295   -0.7043 N   0  0  0  0  0  0  0  0  0  0  0  0
  -11.4307   -0.1619   -0.2028 C   0  0  0  0  0  0  0  0  0  0  0  0
  -11.2561   -1.0651    1.0182 C   0  0  0  0  0  0  0  0  0  0  0  0
   -9.8751   -0.8106    1.3662 N   0  0  0  0  0  0  0  0  0  0  0  0
   -6.9767   -0.2396    1.2829 C   0  0  0  0  0  0  0  0  0  0  0  0
   -5.5883   -0.1110    1.1614 C   0  0  0  0  0  0  0  0  0  0  0  0
   -0.4029   -0.2020   -1.6251 C   0  0  0  0  0  0  0  0  0  0  0  0
   -0.8145   -1.2893   -2.4926 N   0  0  0  0  0  4  0  0  0  0  0  0
   -0.3404   -1.3073   -3.6353 O   0  0  0  0  0  0  0  0  0  0  0  0
   -1.5174   -2.1703   -1.9808 O   0  0  0  0  0  1  0  0  0  0  0  0
    0.9729   -0.0092   -1.4257 C   0  0  0  0  0  0  0  0  0  0  0  0
    3.2181   -0.7761   -0.3458 H   0  0  0  0  0  0  0  0  0  0  0  0
    5.0906   -2.0644   -0.1224 H   0  0  0  0  0  0  0  0  0  0  0  0
    7.5207   -2.2448    0.1387 H   0  0  0  0  0  0  0  0  0  0  0  0
   11.8140   -1.8478    1.0715 H   0  0  0  0  0  0  0  0  0  0  0  0
   11.8865   -1.1488   -0.5621 H   0  0  0  0  0  0  0  0  0  0  0  0
   11.5310    0.2527    2.0941 H   0  0  0  0  0  0  0  0  0  0  0  0
   12.2506    0.8929    0.5892 H   0  0  0  0  0  0  0  0  0  0  0  0
    9.7470    1.5259    1.2595 H   0  0  0  0  0  0  0  0  0  0  0  0
    7.8412    2.0537    0.1106 H   0  0  0  0  0  0  0  0  0  0  0  0
    5.4342    2.2477   -0.1330 H   0  0  0  0  0  0  0  0  0  0  0  0
    0.7719    2.5531    0.8200 H   0  0  0  0  0  0  0  0  0  0  0  0
   -1.6425    2.2169    0.4287 H   0  0  0  0  0  0  0  0  0  0  0  0
   -3.1231    0.1526    0.7726 H   0  0  0  0  0  0  0  0  0  0  0  0
   -5.4122    0.4598   -2.1958 H   0  0  0  0  0  0  0  0  0  0  0  0
   -7.8296    0.2441   -1.9746 H   0  0  0  0  0  0  0  0  0  0  0  0
  -12.0286   -0.6518   -0.9777 H   0  0  0  0  0  0  0  0  0  0  0  0
  -11.9172    0.7818    0.0690 H   0  0  0  0  0  0  0  0  0  0  0  0
  -11.9421   -0.8094    1.8299 H   0  0  0  0  0  0  0  0  0  0  0  0
  -11.3888   -2.1179    0.7468 H   0  0  0  0  0  0  0  0  0  0  0  0
   -9.3838   -1.5774    1.8100 H   0  0  0  0  0  0  0  0  0  0  0  0
   -7.4095   -0.4088    2.2642 H   0  0  0  0  0  0  0  0  0  0  0  0
   -4.9813   -0.2041    2.0577 H   0  0  0  0  0  0  0  0  0  0  0  0
    1.6915   -0.6023   -1.9875 H   0  0  0  0  0  0  0  0  0  0  0  0
  1  2  2  0
  2  3  1  0
  3  4  1  0
  4  5  2  0
  5  6  1  0
  6  7  2  0
  7  8  1  0
  8  9  2  0
  9 10  1  0
 10 11  1  0
 11 12  1  0
  7 13  1  0
 13 14  2  0
  2 15  1  0
 15 16  2  0
 16 17  1  0
 17 18  2  0
 18 19  1  0
 19 20  2  0
 19 21  1  0
 21 22  1  0
 22 23  2  0
 23 24  1  0
 24 25  2  0
 25 26  1  0
 26 27  2  0
 27 28  1  0
 28 29  1  0
 29 30  1  0
 25 31  1  0
 31 32  2  0
 18 33  1  0
 33 34  1  0
 34 35  2  0
 34 36  1  0
 33 37  2  0
 14  4  1  0
 37 15  1  0
 12  8  1  0
 32 22  1  0
 30 26  1  0
  3 38  1  0
  5 39  1  0
  6 40  1  0
 10 41  1  0
 10 42  1  0
 11 43  1  0
 11 44  1  0
 12 45  1  0
 13 46  1  0
 14 47  1  0
 16 48  1  0
 17 49  1  0
 21 50  1  0
 23 51  1  0
 24 52  1  0
 28 53  1  0
 28 54  1  0
 29 55  1  0
 29 56  1  0
 30 57  1  0
 31 58  1  0
 32 59  1  0
 37 60  1  0
M  CHG  2  34   1  36  -1
M  END
$$$$
