
     RDKit          3D

 57 61  0  0  0  0  0  0  0  0999 V2000
    7.6575   -0.2006   -3.2036 C   0  0  0  0  0  0  0  0  0  0  0  0
    7.0679   -1.2462   -2.4412 O   0  0  0  0  0  0  0  0  0  0  0  0
    6.2920   -0.8751   -1.3780 C   0  0  0  0  0  0  0  0  0  0  0  0
    6.0560    0.4300   -0.9493 C   0  0  0  0  0  0  0  0  0  0  0  0
    5.2342    0.6697    0.1585 C   0  0  0  0  0  0  0  0  0  0  0  0
    4.6436   -0.3923    0.8553 C   0  0  0  0  0  0  0  0  0  0  0  0
    3.7331   -0.1344    2.0279 C   0  0  0  0  0  0  0  0  0  0  0  0
    2.3687    0.0212    1.5936 N   0  0  0  0  0  0  0  0  0  0  0  0
    1.4754   -1.0130    1.5639 C   0  0  0  0  0  0  0  0  0  0  0  0
    1.7111   -2.1155    2.0527 O   0  0  0  0  0  0  0  0  0  0  0  0
    0.1752   -0.7139    0.8832 C   0  0  0  0  0  0  0  0  0  0  0  0
   -0.7504   -1.6871    0.8527 C   0  0  0  0  0  0  0  0  0  0  0  0
   -2.0460   -1.5266    0.2184 C   0  0  0  0  0  0  0  0  0  0  0  0
   -2.9924   -2.6793    0.1918 C   0  0  0  0  0  0  0  0  0  0  0  0
   -2.6625   -3.7619    0.6808 O   0  0  0  0  0  0  0  0  0  0  0  0
   -4.2179   -2.4438   -0.4050 N   0  0  0  0  0  0  0  0  0  0  0  0
   -5.1601   -3.4657   -0.4622 C   0  0  0  0  0  0  0  0  0  0  0  0
   -6.3587   -3.2880   -1.0313 C   0  0  0  0  0  0  0  0  0  0  0  0
   -6.6959   -2.0135   -1.6059 C   0  0  0  0  0  0  0  0  0  0  0  0
   -5.8183   -1.0039   -1.5749 C   0  0  0  0  0  0  0  0  0  0  0  0
   -4.4841   -1.1985   -0.9384 C   0  0  0  0  0  0  0  0  0  0  0  0
   -3.6590   -0.2015   -0.9188 N   0  0  0  0  0  0  0  0  0  0  0  0
   -2.4198   -0.3498   -0.3342 C   0  0  0  0  0  0  0  0  0  0  0  0
   -1.5069    0.7437   -0.3095 N   0  0  0  0  0  0  0  0  0  0  0  0
   -2.0066    2.0693   -0.7141 C   0  0  0  0  0  0  0  0  0  0  0  0
   -2.5279    2.8529    0.4649 C   0  0  0  0  0  0  0  0  0  0  0  0
   -3.8487    2.7159    0.9063 C   0  0  0  0  0  0  0  0  0  0  0  0
   -4.2988    3.4560    1.9961 C   0  0  0  0  0  0  0  0  0  0  0  0
   -3.4094    4.3162    2.6154 C   0  0  0  0  0  0  0  0  0  0  0  0
   -2.1279    4.4752    2.2242 N   0  0  0  0  0  0  0  0  0  0  0  0
   -1.7157    3.7365    1.1686 C   0  0  0  0  0  0  0  0  0  0  0  0
   -0.2060    0.5801    0.2032 C   0  0  0  0  0  0  0  0  0  0  0  0
    0.7357    1.4805    0.1180 N   0  0  0  0  0  0  0  0  0  0  0  0
    4.8757   -1.6990    0.4129 C   0  0  0  0  0  0  0  0  0  0  0  0
    5.6975   -1.9354   -0.6912 C   0  0  0  0  0  0  0  0  0  0  0  0
    8.2155   -0.6600   -4.0246 H   0  0  0  0  0  0  0  0  0  0  0  0
    6.8937    0.4495   -3.6439 H   0  0  0  0  0  0  0  0  0  0  0  0
    8.3666    0.3763   -2.5995 H   0  0  0  0  0  0  0  0  0  0  0  0
    6.4918    1.2842   -1.4546 H   0  0  0  0  0  0  0  0  0  0  0  0
    5.0531    1.6948    0.4721 H   0  0  0  0  0  0  0  0  0  0  0  0
    3.8134   -0.9463    2.7602 H   0  0  0  0  0  0  0  0  0  0  0  0
    4.0243    0.7904    2.5380 H   0  0  0  0  0  0  0  0  0  0  0  0
    2.1175    0.8508    1.0522 H   0  0  0  0  0  0  0  0  0  0  0  0
   -0.5474   -2.6511    1.3165 H   0  0  0  0  0  0  0  0  0  0  0  0
   -4.8820   -4.4210   -0.0226 H   0  0  0  0  0  0  0  0  0  0  0  0
   -7.0870   -4.0921   -1.0704 H   0  0  0  0  0  0  0  0  0  0  0  0
   -7.6725   -1.8941   -2.0641 H   0  0  0  0  0  0  0  0  0  0  0  0
   -6.0340   -0.0313   -1.9980 H   0  0  0  0  0  0  0  0  0  0  0  0
   -1.2387    2.6480   -1.2396 H   0  0  0  0  0  0  0  0  0  0  0  0
   -2.8011    1.9890   -1.4680 H   0  0  0  0  0  0  0  0  0  0  0  0
   -4.5306    2.0332    0.4053 H   0  0  0  0  0  0  0  0  0  0  0  0
   -5.3181    3.3631    2.3534 H   0  0  0  0  0  0  0  0  0  0  0  0
   -3.7113    4.9166    3.4679 H   0  0  0  0  0  0  0  0  0  0  0  0
   -0.6738    3.8915    0.9023 H   0  0  0  0  0  0  0  0  0  0  0  0
    0.4324    2.3013   -0.4004 H   0  0  0  0  0  0  0  0  0  0  0  0
    4.4078   -2.5394    0.9222 H   0  0  0  0  0  0  0  0  0  0  0  0
    5.8696   -2.9558   -1.0216 H   0  0  0  0  0  0  0  0  0  0  0  0
  1  2  1  0
  2  3  1  0
  3  4  2  0
  4  5  1  0
  5  6  2  0
  6  7  1  0
  7  8  1  0
  8  9  1  0
  9 10  2  0
  9 11  1  0
 11 12  2  0
 12 13  1  0
 13 14  1  0
 14 15  2  0
 14 16  1  0
 16 17  1  0
 17 18  2  0
 18 19  1  0
 19 20  2  0
 20 21  1  0
 21 22  2  0
 22 23  1  0
 23 24  1  0
 24 25  1  0
 25 26  1  0
 26 27  2  0
 27 28  1  0
 28 29  2  0
 29 30  1  0
 30 31  2  0
 24 32  1  0
 32 33  2  3
  6 34  1  0
 34 35  2  0
 35  3  1  0
 32 11  1  0
 23 13  2  0
 31 26  1  0
 21 16  1  0
  1 36  1  0
  1 37  1  0
  1 38  1  0
  4 39  1  0
  5 40  1  0
  7 41  1  0
  7 42  1  0
  8 43  1  0
 12 44  1  0
 17 45  1  0
 18 46  1  0
 19 47  1  0
 20 48  1  0
 25 49  1  0
 25 50  1  0
 27 51  1  0
 28 52  1  0
 29 53  1  0
 31 54  1  0
 33 55  1  0
 34 56  1  0
 35 57  1  0
M  END
$$$$
