
     RDKit          3D

 43 45  0  0  0  0  0  0  0  0999 V2000
   -3.8187    3.4318    0.3926 C   0  0  0  0  0  0  0  0  0  0  0  0
   -2.3732    3.0286    0.1761 C   0  0  0  0  0  0  0  0  0  0  0  0
   -2.3178    1.5999    0.0998 O   0  0  0  0  0  0  0  0  0  0  0  0
   -1.0666    1.0913   -0.0902 C   0  0  0  0  0  0  0  0  0  0  0  0
   -0.0640    1.7899   -0.1976 O   0  0  0  0  0  0  0  0  0  0  0  0
   -1.0364   -0.3744   -0.1734 C   0  0  0  0  0  0  0  0  0  0  0  0
    0.1462   -1.0719   -0.4176 C   0  0  0  0  0  0  0  0  0  0  0  0
    1.4244   -0.5273   -0.4968 N   0  0  0  0  0  0  0  0  0  0  0  0
    2.5926   -1.0171   -1.0371 C   0  0  0  0  0  0  0  0  0  0  0  0
    2.8452   -2.3071   -2.0748 S   0  0  0  0  0  0  0  0  0  0  0  0
    3.7334   -0.3064   -0.6981 N   0  0  0  0  0  0  0  0  0  0  0  0
    3.8979    0.7823    0.1483 C   0  0  0  0  0  0  0  0  0  0  0  0
    2.9612    1.3441    0.7097 O   0  0  0  0  0  0  0  0  0  0  0  0
    5.2772    1.1969    0.2912 C   0  0  0  0  0  0  0  0  0  0  0  0
    5.8512    2.2213    1.0195 C   0  0  0  0  0  0  0  0  0  0  0  0
    7.2456    2.1563    0.7849 C   0  0  0  0  0  0  0  0  0  0  0  0
    7.4411    1.0985   -0.0709 C   0  0  0  0  0  0  0  0  0  0  0  0
    6.2570    0.5085   -0.3783 O   0  0  0  0  0  0  0  0  0  0  0  0
   -0.0957   -2.7510   -0.4809 S   0  0  0  0  0  0  0  0  0  0  0  0
   -1.7624   -2.6019   -0.2425 C   0  0  0  0  0  0  0  0  0  0  0  0
   -2.1585   -1.2915   -0.0536 C   0  0  0  0  0  0  0  0  0  0  0  0
   -3.6038   -0.9497    0.1982 C   0  0  0  0  0  0  0  0  0  0  0  0
   -4.4501   -2.1839    0.5502 C   0  0  0  0  0  0  0  0  0  0  0  0
   -4.1249   -3.3777   -0.3536 C   0  0  0  0  0  0  0  0  0  0  0  0
   -2.6580   -3.8016   -0.2066 C   0  0  0  0  0  0  0  0  0  0  0  0
   -4.4468    3.0693   -0.4280 H   0  0  0  0  0  0  0  0  0  0  0  0
   -4.2096    2.9857    1.3131 H   0  0  0  0  0  0  0  0  0  0  0  0
   -3.9150    4.5191    0.4579 H   0  0  0  0  0  0  0  0  0  0  0  0
   -1.7616    3.3794    1.0149 H   0  0  0  0  0  0  0  0  0  0  0  0
   -2.0041    3.4641   -0.7593 H   0  0  0  0  0  0  0  0  0  0  0  0
    1.4763    0.4505   -0.1896 H   0  0  0  0  0  0  0  0  0  0  0  0
    4.5874   -0.6756   -1.1004 H   0  0  0  0  0  0  0  0  0  0  0  0
    5.3153    2.9253    1.6426 H   0  0  0  0  0  0  0  0  0  0  0  0
    8.0138    2.8007    1.1895 H   0  0  0  0  0  0  0  0  0  0  0  0
    8.3166    0.6597   -0.5303 H   0  0  0  0  0  0  0  0  0  0  0  0
   -4.0121   -0.4781   -0.7041 H   0  0  0  0  0  0  0  0  0  0  0  0
   -3.6908   -0.2334    1.0221 H   0  0  0  0  0  0  0  0  0  0  0  0
   -4.2667   -2.4663    1.5950 H   0  0  0  0  0  0  0  0  0  0  0  0
   -5.5135   -1.9312    0.4710 H   0  0  0  0  0  0  0  0  0  0  0  0
   -4.7768   -4.2236   -0.1082 H   0  0  0  0  0  0  0  0  0  0  0  0
   -4.3295   -3.1062   -1.3972 H   0  0  0  0  0  0  0  0  0  0  0  0
   -2.4031   -4.5089   -1.0041 H   0  0  0  0  0  0  0  0  0  0  0  0
   -2.5225   -4.3185    0.7515 H   0  0  0  0  0  0  0  0  0  0  0  0
  1  2  1  0
  2  3  1  0
  3  4  1  0
  4  5  2  0
  4  6  1  0
  6  7  2  0
  7  8  1  0
  8  9  1  0
  9 10  2  0
  9 11  1  0
 11 12  1  0
 12 13  2  0
 12 14  1  0
 14 15  2  0
 15 16  1  0
 16 17  2  0
 17 18  1  0
  7 19  1  0
 19 20  1  0
 20 21  2  0
 21 22  1  0
 22 23  1  0
 23 24  1  0
 24 25  1  0
 21  6  1  0
 18 14  1  0
 25 20  1  0
  1 26  1  0
  1 27  1  0
  1 28  1  0
  2 29  1  0
  2 30  1  0
  8 31  1  0
 11 32  1  0
 15 33  1  0
 16 34  1  0
 17 35  1  0
 22 36  1  0
 22 37  1  0
 23 38  1  0
 23 39  1  0
 24 40  1  0
 24 41  1  0
 25 42  1  0
 25 43  1  0
M  END
$$$$
