
     RDKit          3D

 54 57  0  0  0  0  0  0  0  0999 V2000
   -7.7976   -1.4780    2.1266 C   0  0  0  0  0  0  0  0  0  0  0  0
   -7.0513   -0.3504    2.5668 O   0  0  0  0  0  0  0  0  0  0  0  0
   -5.8653   -0.1079    1.9321 C   0  0  0  0  0  0  0  0  0  0  0  0
   -5.2192    1.0629    2.3243 C   0  0  0  0  0  0  0  0  0  0  0  0
   -3.9968    1.4291    1.7520 C   0  0  0  0  0  0  0  0  0  0  0  0
   -3.3855    0.6174    0.7818 C   0  0  0  0  0  0  0  0  0  0  0  0
   -2.1331    1.0329    0.2287 N   0  0  0  0  0  0  0  0  0  0  0  0
   -1.6968    2.3040    0.4753 N   0  0  0  0  0  0  0  0  0  0  0  0
   -0.5836    2.4457   -0.2386 C   0  0  0  0  0  0  0  0  0  0  0  0
   -0.2255    1.2686   -0.9024 C   0  0  0  0  0  0  0  0  0  0  0  0
   -1.2131    0.3588   -0.5673 C   0  0  0  0  0  0  0  0  0  0  0  0
   -1.2274   -1.0687   -1.0046 C   0  0  0  0  0  0  0  0  0  0  0  0
    0.1684   -1.5225   -1.5352 C   0  0  0  0  0  0  0  0  0  0  0  0
   -0.0200   -2.7897   -2.3943 C   0  0  0  0  0  0  0  0  0  0  0  0
    1.0874   -1.8952   -0.3541 C   0  0  0  0  0  0  0  0  0  0  0  0
    0.8096   -0.4141   -2.4299 C   0  0  0  0  0  0  0  0  0  0  0  0
    0.9565    0.9716   -1.7560 C   0  0  0  0  0  0  0  0  0  0  0  0
    2.1362    1.0558   -0.9252 N   0  0  0  0  0  0  0  0  0  0  0  0
    3.4041    1.1974   -1.4424 C   0  0  0  0  0  0  0  0  0  0  0  0
    3.6487    1.3294   -2.6353 O   0  0  0  0  0  0  0  0  0  0  0  0
    4.4895    1.1708   -0.4226 C   0  0  0  0  0  0  0  0  0  0  0  0
    5.8116    1.3241   -0.8068 C   0  0  0  0  0  0  0  0  0  0  0  0
    6.8311    1.3027    0.0896 N   0  0  0  0  0  0  0  0  0  0  0  0
    6.4761    1.1220    1.3872 C   0  0  0  0  0  0  0  0  0  0  0  0
    7.5638    1.0963    2.4147 C   0  0  0  0  0  0  0  0  0  0  0  0
    5.1425    0.9680    1.7619 C   0  0  0  0  0  0  0  0  0  0  0  0
    4.1172    0.9854    0.8769 N   0  0  0  0  0  0  0  0  0  0  0  0
   -4.0444   -0.5502    0.3843 C   0  0  0  0  0  0  0  0  0  0  0  0
   -5.2739   -0.9113    0.9592 C   0  0  0  0  0  0  0  0  0  0  0  0
   -8.7265   -1.5108    2.7041 H   0  0  0  0  0  0  0  0  0  0  0  0
   -7.2546   -2.4105    2.3159 H   0  0  0  0  0  0  0  0  0  0  0  0
   -8.0658   -1.3849    1.0687 H   0  0  0  0  0  0  0  0  0  0  0  0
   -5.6698    1.7024    3.0797 H   0  0  0  0  0  0  0  0  0  0  0  0
   -3.5290    2.3539    2.0857 H   0  0  0  0  0  0  0  0  0  0  0  0
   -0.0675    3.3975   -0.2248 H   0  0  0  0  0  0  0  0  0  0  0  0
   -1.9638   -1.1657   -1.8124 H   0  0  0  0  0  0  0  0  0  0  0  0
   -1.5287   -1.7279   -0.1825 H   0  0  0  0  0  0  0  0  0  0  0  0
   -0.4817   -3.5962   -1.8138 H   0  0  0  0  0  0  0  0  0  0  0  0
    0.9408   -3.1568   -2.7728 H   0  0  0  0  0  0  0  0  0  0  0  0
   -0.6646   -2.5923   -3.2580 H   0  0  0  0  0  0  0  0  0  0  0  0
    2.1021   -2.1202   -0.7007 H   0  0  0  0  0  0  0  0  0  0  0  0
    1.1526   -1.0990    0.3923 H   0  0  0  0  0  0  0  0  0  0  0  0
    0.7115   -2.7834    0.1678 H   0  0  0  0  0  0  0  0  0  0  0  0
    0.1639   -0.2835   -3.3111 H   0  0  0  0  0  0  0  0  0  0  0  0
    1.7789   -0.7566   -2.8145 H   0  0  0  0  0  0  0  0  0  0  0  0
    1.0508    1.7321   -2.5411 H   0  0  0  0  0  0  0  0  0  0  0  0
    2.0684    0.9069    0.0788 H   0  0  0  0  0  0  0  0  0  0  0  0
    6.0935    1.4680   -1.8445 H   0  0  0  0  0  0  0  0  0  0  0  0
    7.5520    0.1457    2.9571 H   0  0  0  0  0  0  0  0  0  0  0  0
    8.5462    1.2069    1.9436 H   0  0  0  0  0  0  0  0  0  0  0  0
    7.4316    1.9178    3.1258 H   0  0  0  0  0  0  0  0  0  0  0  0
    4.8607    0.8253    2.8005 H   0  0  0  0  0  0  0  0  0  0  0  0
   -3.6660   -1.1968   -0.3958 H   0  0  0  0  0  0  0  0  0  0  0  0
   -5.7443   -1.8270    0.6165 H   0  0  0  0  0  0  0  0  0  0  0  0
  1  2  1  0
  2  3  1  0
  3  4  2  0
  4  5  1  0
  5  6  2  0
  6  7  1  0
  7  8  1  0
  8  9  2  0
  9 10  1  0
 10 11  2  0
 11 12  1  0
 12 13  1  0
 13 14  1  0
 13 15  1  0
 13 16  1  0
 16 17  1  0
 17 18  1  0
 18 19  1  0
 19 20  2  0
 19 21  1  0
 21 22  2  0
 22 23  1  0
 23 24  2  0
 24 25  1  0
 24 26  1  0
 26 27  2  0
  6 28  1  0
 28 29  2  0
 29  3  1  0
 11  7  1  0
 27 21  1  0
 17 10  1  0
  1 30  1  0
  1 31  1  0
  1 32  1  0
  4 33  1  0
  5 34  1  0
  9 35  1  0
 12 36  1  0
 12 37  1  0
 14 38  1  0
 14 39  1  0
 14 40  1  0
 15 41  1  0
 15 42  1  0
 15 43  1  0
 16 44  1  0
 16 45  1  0
 17 46  1  0
 18 47  1  0
 22 48  1  0
 25 49  1  0
 25 50  1  0
 25 51  1  0
 26 52  1  0
 28 53  1  0
 29 54  1  0
M  END
$$$$
