
     RDKit          3D

 43 45  0  0  0  0  0  0  0  0999 V2000
   -2.3864    4.5303    1.3874 C   0  0  0  0  0  0  0  0  0  0  0  0
   -2.0240    3.6071    0.3588 O   0  0  0  0  0  0  0  0  0  0  0  0
   -1.5887    2.3988    0.8223 C   0  0  0  0  0  0  0  0  0  0  0  0
   -1.4606    2.1123    2.0054 O   0  0  0  0  0  0  0  0  0  0  0  0
   -1.2442    1.5063   -0.3409 C   0  0  0  0  0  0  0  0  0  0  0  0
   -1.0304    0.1269    0.0642 N   0  0  0  0  0  0  0  0  0  0  0  0
    0.1684   -0.4560    0.4403 C   0  0  0  0  0  0  0  0  0  0  0  0
    1.4633    0.2943    0.5771 C   0  0  0  0  0  0  0  0  0  0  0  0
    2.0229    0.6944   -0.7270 N   0  0  0  0  0  0  0  0  0  0  0  0
    3.2117    1.5605   -0.5560 C   0  0  0  0  0  0  0  0  0  0  0  0
    4.5465    0.8139   -0.7020 C   0  0  0  0  0  0  0  0  0  0  0  0
    4.7025    0.1979   -1.9864 O   0  0  0  0  0  0  0  0  0  0  0  0
    3.4559   -0.1882   -2.5819 C   0  0  0  0  0  0  0  0  0  0  0  0
    2.3705   -0.4995   -1.5405 C   0  0  0  0  0  0  0  0  0  0  0  0
    0.0105   -1.7533    0.6641 N   0  0  0  0  0  0  0  0  0  0  0  0
   -1.3137   -1.9870    0.4738 C   0  0  0  0  0  0  0  0  0  0  0  0
   -1.9832   -0.8547    0.1143 C   0  0  0  0  0  0  0  0  0  0  0  0
   -3.3848   -0.8389   -0.1189 C   0  0  0  0  0  0  0  0  0  0  0  0
   -4.0351    0.1541   -0.4239 O   0  0  0  0  0  0  0  0  0  0  0  0
   -3.9592   -2.0800    0.0378 N   0  0  0  0  0  0  0  0  0  0  0  0
   -3.3277   -3.2566    0.3992 C   0  0  0  0  0  0  0  0  0  0  0  0
   -4.0007   -4.2819    0.5066 O   0  0  0  0  0  0  0  0  0  0  0  0
   -1.9558   -3.1979    0.6191 N   0  0  0  0  0  0  0  0  0  0  0  0
   -1.2163   -4.3813    1.0113 C   0  0  0  0  0  0  0  0  0  0  0  0
   -3.1952    4.1226    2.0019 H   0  0  0  0  0  0  0  0  0  0  0  0
   -2.7431    5.4468    0.9094 H   0  0  0  0  0  0  0  0  0  0  0  0
   -1.5160    4.7763    2.0035 H   0  0  0  0  0  0  0  0  0  0  0  0
   -2.0518    1.5198   -1.0780 H   0  0  0  0  0  0  0  0  0  0  0  0
   -0.3384    1.8781   -0.8240 H   0  0  0  0  0  0  0  0  0  0  0  0
    1.2666    1.1862    1.1854 H   0  0  0  0  0  0  0  0  0  0  0  0
    2.1801   -0.3160    1.1418 H   0  0  0  0  0  0  0  0  0  0  0  0
    3.1594    2.3244   -1.3423 H   0  0  0  0  0  0  0  0  0  0  0  0
    3.1850    2.1028    0.3965 H   0  0  0  0  0  0  0  0  0  0  0  0
    4.6458    0.0381    0.0661 H   0  0  0  0  0  0  0  0  0  0  0  0
    5.3817    1.5093   -0.5704 H   0  0  0  0  0  0  0  0  0  0  0  0
    3.1333    0.6156   -3.2541 H   0  0  0  0  0  0  0  0  0  0  0  0
    3.6486   -1.0707   -3.2005 H   0  0  0  0  0  0  0  0  0  0  0  0
    2.7437   -1.3088   -0.8987 H   0  0  0  0  0  0  0  0  0  0  0  0
    1.4724   -0.8600   -2.0540 H   0  0  0  0  0  0  0  0  0  0  0  0
   -4.9544   -2.1415   -0.1065 H   0  0  0  0  0  0  0  0  0  0  0  0
   -0.4252   -4.5691    0.2786 H   0  0  0  0  0  0  0  0  0  0  0  0
   -1.8622   -5.2620    1.0631 H   0  0  0  0  0  0  0  0  0  0  0  0
   -0.7715   -4.2137    1.9973 H   0  0  0  0  0  0  0  0  0  0  0  0
  1  2  1  0
  2  3  1  0
  3  4  2  0
  3  5  1  0
  5  6  1  0
  6  7  1  0
  7  8  1  0
  8  9  1  0
  9 10  1  0
 10 11  1  0
 11 12  1  0
 12 13  1  0
 13 14  1  0
  7 15  2  0
 15 16  1  0
 16 17  2  0
 17 18  1  0
 18 19  2  0
 18 20  1  0
 20 21  1  0
 21 22  2  0
 21 23  1  0
 23 24  1  0
 17  6  1  0
 14  9  1  0
 23 16  1  0
  1 25  1  0
  1 26  1  0
  1 27  1  0
  5 28  1  0
  5 29  1  0
  8 30  1  0
  8 31  1  0
 10 32  1  0
 10 33  1  0
 11 34  1  0
 11 35  1  0
 13 36  1  0
 13 37  1  0
 14 38  1  0
 14 39  1  0
 20 40  1  0
 24 41  1  0
 24 42  1  0
 24 43  1  0
M  END
$$$$
