
     RDKit          3D

 52 55  0  0  0  0  0  0  0  0999 V2000
   -2.1286    0.5264   -1.9452 O   0  0  0  0  0  0  0  0  0  0  0  0
   -1.2510   -0.2081   -1.4973 C   0  0  0  0  0  0  0  0  0  0  0  0
   -1.5460   -1.4146   -0.8802 N   0  0  0  0  0  0  0  0  0  0  0  0
   -2.9056   -1.7846   -0.5306 C   0  0  0  0  0  0  0  0  0  0  0  0
   -2.9988   -3.2548   -0.1359 C   0  0  0  0  0  0  0  0  0  0  0  0
   -2.5389   -3.2940    1.3205 C   0  0  0  0  0  0  0  0  0  0  0  0
   -2.7904   -1.8953    1.8835 C   0  0  0  0  0  0  0  0  0  0  0  0
   -3.3770   -1.0749    0.7373 C   0  0  0  0  0  0  0  0  0  0  0  0
    0.2734    0.0764   -1.6044 C   0  0  0  0  0  0  0  0  0  0  0  0
    0.7291    1.1977   -2.5431 C   0  0  0  0  0  0  0  0  0  0  0  0
    0.0559    1.4591   -3.7448 C   0  0  0  0  0  0  0  0  0  0  0  0
    0.5335    2.4510   -4.5895 C   0  0  0  0  0  0  0  0  0  0  0  0
    1.6379    3.1830   -4.3414 N   0  0  0  0  0  0  0  0  0  0  0  0
    2.2970    2.9055   -3.1997 C   0  0  0  0  0  0  0  0  0  0  0  0
    1.8972    1.9344   -2.2932 C   0  0  0  0  0  0  0  0  0  0  0  0
    0.8690    0.1220   -0.2476 N   0  0  0  0  0  0  0  0  0  0  0  0
    1.5982   -1.0201    0.1156 C   0  0  0  0  0  0  0  0  0  0  0  0
    1.1961   -2.1417   -0.2093 O   0  0  0  0  0  0  0  0  0  0  0  0
    2.8681   -0.8206    0.7947 C   0  0  0  0  0  0  0  0  0  0  0  0
    3.7381   -1.7361    1.3598 C   0  0  0  0  0  0  0  0  0  0  0  0
    4.8409   -1.0014    1.8566 C   0  0  0  0  0  0  0  0  0  0  0  0
    4.5871    0.3163    1.5580 C   0  0  0  0  0  0  0  0  0  0  0  0
    3.4032    0.4362    0.9062 O   0  0  0  0  0  0  0  0  0  0  0  0
    0.3648    1.0503    0.7434 C   0  0  0  0  0  0  0  0  0  0  0  0
   -0.3364    2.2118    0.3802 C   0  0  0  0  0  0  0  0  0  0  0  0
   -0.8436    3.0933    1.3433 C   0  0  0  0  0  0  0  0  0  0  0  0
   -0.6685    2.8303    2.6957 C   0  0  0  0  0  0  0  0  0  0  0  0
    0.0082    1.6817    3.0842 C   0  0  0  0  0  0  0  0  0  0  0  0
    0.5140    0.8016    2.1196 C   0  0  0  0  0  0  0  0  0  0  0  0
   -0.7730   -1.9280   -0.4580 H   0  0  0  0  0  0  0  0  0  0  0  0
   -3.5549   -1.5518   -1.3809 H   0  0  0  0  0  0  0  0  0  0  0  0
   -2.4002   -3.9158   -0.7728 H   0  0  0  0  0  0  0  0  0  0  0  0
   -4.0442   -3.5855   -0.1933 H   0  0  0  0  0  0  0  0  0  0  0  0
   -3.0752   -4.0622    1.8866 H   0  0  0  0  0  0  0  0  0  0  0  0
   -1.4702   -3.5317    1.3779 H   0  0  0  0  0  0  0  0  0  0  0  0
   -1.8469   -1.4564    2.2250 H   0  0  0  0  0  0  0  0  0  0  0  0
   -3.4696   -1.9192    2.7426 H   0  0  0  0  0  0  0  0  0  0  0  0
   -4.4720   -1.1113    0.7940 H   0  0  0  0  0  0  0  0  0  0  0  0
   -3.0746   -0.0252    0.7929 H   0  0  0  0  0  0  0  0  0  0  0  0
    0.6748   -0.8163   -2.1100 H   0  0  0  0  0  0  0  0  0  0  0  0
   -0.8364    0.9115   -4.0341 H   0  0  0  0  0  0  0  0  0  0  0  0
    0.0233    2.6835   -5.5190 H   0  0  0  0  0  0  0  0  0  0  0  0
    3.1863    3.5028   -3.0207 H   0  0  0  0  0  0  0  0  0  0  0  0
    2.4966    1.7746   -1.4033 H   0  0  0  0  0  0  0  0  0  0  0  0
    3.5836   -2.8062    1.3998 H   0  0  0  0  0  0  0  0  0  0  0  0
    5.7153   -1.3836    2.3643 H   0  0  0  0  0  0  0  0  0  0  0  0
    5.1230    1.2397    1.7272 H   0  0  0  0  0  0  0  0  0  0  0  0
   -0.5143    2.4822   -0.6567 H   0  0  0  0  0  0  0  0  0  0  0  0
   -1.3789    3.9849    1.0269 H   0  0  0  0  0  0  0  0  0  0  0  0
   -1.0638    3.5143    3.4420 H   0  0  0  0  0  0  0  0  0  0  0  0
    0.1400    1.4602    4.1406 H   0  0  0  0  0  0  0  0  0  0  0  0
    1.0047   -0.0914    2.4925 H   0  0  0  0  0  0  0  0  0  0  0  0
  1  2  2  0
  2  3  1  0
  3  4  1  0
  4  5  1  0
  5  6  1  0
  6  7  1  0
  7  8  1  0
  2  9  1  0
  9 10  1  0
 10 11  2  0
 11 12  1  0
 12 13  2  0
 13 14  1  0
 14 15  2  0
  9 16  1  0
 16 17  1  0
 17 18  2  0
 17 19  1  0
 19 20  2  0
 20 21  1  0
 21 22  2  0
 22 23  1  0
 16 24  1  0
 24 25  2  0
 25 26  1  0
 26 27  2  0
 27 28  1  0
 28 29  2  0
  8  4  1  0
 15 10  1  0
 23 19  1  0
 29 24  1  0
  3 30  1  0
  4 31  1  0
  5 32  1  0
  5 33  1  0
  6 34  1  0
  6 35  1  0
  7 36  1  0
  7 37  1  0
  8 38  1  0
  8 39  1  0
  9 40  1  0
 11 41  1  0
 12 42  1  0
 14 43  1  0
 15 44  1  0
 20 45  1  0
 21 46  1  0
 22 47  1  0
 25 48  1  0
 26 49  1  0
 27 50  1  0
 28 51  1  0
 29 52  1  0
M  END
$$$$
