
     RDKit          3D

 53 56  0  0  0  0  0  0  0  0999 V2000
   -1.4946   -1.0617   -1.9658 O   0  0  0  0  0  0  0  0  0  0  0  0
   -0.4912   -1.5812   -1.4766 C   0  0  0  0  0  0  0  0  0  0  0  0
   -0.3128   -3.0933   -1.4540 C   0  0  0  0  0  0  0  0  0  0  0  0
   -1.5733   -3.8694   -1.8420 C   0  0  0  0  0  0  0  0  0  0  0  0
   -2.5976   -4.3302   -0.4001 S   0  0  0  0  0  0  0  0  0  0  0  0
   -3.3098   -2.7477   -0.0670 C   0  0  0  0  0  0  0  0  0  0  0  0
   -2.7469   -2.0201    0.9056 N   0  0  0  0  0  0  0  0  0  0  0  0
   -3.2553   -0.7870    1.0995 C   0  0  0  0  0  0  0  0  0  0  0  0
   -2.5872   -0.0137    2.1387 C   0  0  0  0  0  0  0  0  0  0  0  0
   -1.5361   -0.2771    2.9956 C   0  0  0  0  0  0  0  0  0  0  0  0
   -1.3478    0.8855    3.7794 C   0  0  0  0  0  0  0  0  0  0  0  0
   -2.2882    1.7908    3.3490 C   0  0  0  0  0  0  0  0  0  0  0  0
   -3.0425    1.2588    2.3558 O   0  0  0  0  0  0  0  0  0  0  0  0
   -4.3064   -0.2852    0.3662 C   0  0  0  0  0  0  0  0  0  0  0  0
   -4.8334   -1.1166   -0.6066 C   0  0  0  0  0  0  0  0  0  0  0  0
   -5.9991   -0.6288   -1.4478 C   0  0  0  0  0  0  0  0  0  0  0  0
   -5.9954    0.7271   -1.6263 F   0  0  0  0  0  0  0  0  0  0  0  0
   -6.0413   -1.1602   -2.7015 F   0  0  0  0  0  0  0  0  0  0  0  0
   -7.2052   -0.9135   -0.8787 F   0  0  0  0  0  0  0  0  0  0  0  0
   -4.3515   -2.3687   -0.8118 N   0  0  0  0  0  0  0  0  0  0  0  0
    0.5543   -0.8121   -0.9774 N   0  0  0  0  0  0  0  0  0  0  0  0
    1.7034   -1.3533   -0.2357 C   0  0  0  0  0  0  0  0  0  0  0  0
    2.9592   -0.4673   -0.3556 C   0  0  0  0  0  0  0  0  0  0  0  0
    2.6452    0.9283    0.0049 N   0  0  0  0  0  0  0  0  0  0  0  0
    3.7224    1.8231    0.1450 C   0  0  0  0  0  0  0  0  0  0  0  0
    3.5294    3.0102    0.8734 C   0  0  0  0  0  0  0  0  0  0  0  0
    4.5527    3.9492    1.0346 C   0  0  0  0  0  0  0  0  0  0  0  0
    5.8017    3.7159    0.4719 C   0  0  0  0  0  0  0  0  0  0  0  0
    6.0253    2.5418   -0.2404 C   0  0  0  0  0  0  0  0  0  0  0  0
    4.9970    1.6034   -0.3963 C   0  0  0  0  0  0  0  0  0  0  0  0
    1.5546    1.4882   -0.8348 C   0  0  0  0  0  0  0  0  0  0  0  0
    0.2929    0.6126   -0.7432 C   0  0  0  0  0  0  0  0  0  0  0  0
    0.4652   -3.3173   -2.1951 H   0  0  0  0  0  0  0  0  0  0  0  0
    0.0453   -3.4228   -0.4733 H   0  0  0  0  0  0  0  0  0  0  0  0
   -2.1811   -3.3544   -2.5915 H   0  0  0  0  0  0  0  0  0  0  0  0
   -1.2631   -4.8199   -2.2898 H   0  0  0  0  0  0  0  0  0  0  0  0
   -0.9817   -1.2047    3.0410 H   0  0  0  0  0  0  0  0  0  0  0  0
   -0.6134    1.0456    4.5547 H   0  0  0  0  0  0  0  0  0  0  0  0
   -2.5351    2.8036    3.6315 H   0  0  0  0  0  0  0  0  0  0  0  0
   -4.6960    0.7123    0.5329 H   0  0  0  0  0  0  0  0  0  0  0  0
    1.9528   -2.3546   -0.5905 H   0  0  0  0  0  0  0  0  0  0  0  0
    1.3948   -1.4337    0.8123 H   0  0  0  0  0  0  0  0  0  0  0  0
    3.7336   -0.8708    0.3078 H   0  0  0  0  0  0  0  0  0  0  0  0
    3.3255   -0.5176   -1.3885 H   0  0  0  0  0  0  0  0  0  0  0  0
    2.5665    3.2014    1.3407 H   0  0  0  0  0  0  0  0  0  0  0  0
    4.3704    4.8579    1.6009 H   0  0  0  0  0  0  0  0  0  0  0  0
    6.5996    4.4437    0.5882 H   0  0  0  0  0  0  0  0  0  0  0  0
    7.0009    2.3553   -0.6815 H   0  0  0  0  0  0  0  0  0  0  0  0
    5.2168    0.7097   -0.9721 H   0  0  0  0  0  0  0  0  0  0  0  0
    1.8893    1.5390   -1.8787 H   0  0  0  0  0  0  0  0  0  0  0  0
    1.2812    2.5017   -0.5218 H   0  0  0  0  0  0  0  0  0  0  0  0
   -0.4610    0.9884   -1.4443 H   0  0  0  0  0  0  0  0  0  0  0  0
   -0.1333    0.6895    0.2642 H   0  0  0  0  0  0  0  0  0  0  0  0
  1  2  2  0
  2  3  1  0
  3  4  1  0
  4  5  1  0
  5  6  1  0
  6  7  2  0
  7  8  1  0
  8  9  1  0
  9 10  2  0
 10 11  1  0
 11 12  2  0
 12 13  1  0
  8 14  2  0
 14 15  1  0
 15 16  1  0
 16 17  1  0
 16 18  1  0
 16 19  1  0
 15 20  2  0
  2 21  1  0
 21 22  1  0
 22 23  1  0
 23 24  1  0
 24 25  1  0
 25 26  2  0
 26 27  1  0
 27 28  2  0
 28 29  1  0
 29 30  2  0
 24 31  1  0
 31 32  1  0
 20  6  1  0
 32 21  1  0
 13  9  1  0
 30 25  1  0
  3 33  1  0
  3 34  1  0
  4 35  1  0
  4 36  1  0
 10 37  1  0
 11 38  1  0
 12 39  1  0
 14 40  1  0
 22 41  1  0
 22 42  1  0
 23 43  1  0
 23 44  1  0
 26 45  1  0
 27 46  1  0
 28 47  1  0
 29 48  1  0
 30 49  1  0
 31 50  1  0
 31 51  1  0
 32 52  1  0
 32 53  1  0
M  END
$$$$
