
     RDKit          3D

 48 49  0  0  0  0  0  0  0  0999 V2000
    1.4435   -0.3818    2.4041 C   0  0  0  0  0  0  0  0  0  0  0  0
    1.8519    0.1517    1.1508 O   0  0  0  0  0  0  0  0  0  0  0  0
    0.8719    0.6527    0.3311 C   0  0  0  0  0  0  0  0  0  0  0  0
   -0.5006    0.4930    0.5422 C   0  0  0  0  0  0  0  0  0  0  0  0
   -1.4403    1.0434   -0.3498 C   0  0  0  0  0  0  0  0  0  0  0  0
   -2.9229    0.8562   -0.0985 C   0  0  0  0  0  0  0  0  0  0  0  0
   -3.2686   -0.5598   -0.2086 N   0  0  0  0  0  0  0  0  0  0  0  0
   -4.6856   -0.9091    0.0691 C   0  0  0  0  0  0  0  0  0  0  0  0
   -5.6405   -0.3385   -0.9926 C   0  0  0  0  0  0  0  0  0  0  0  0
   -5.1196   -0.4409    1.4725 C   0  0  0  0  0  0  0  0  0  0  0  0
   -4.7542   -2.4638    0.0171 C   0  0  0  0  0  0  0  0  0  0  0  0
   -3.7617   -3.0317    0.8737 O   0  0  0  0  0  0  0  0  0  0  0  0
   -0.9872    1.7601   -1.4664 C   0  0  0  0  0  0  0  0  0  0  0  0
    0.3807    1.9268   -1.6865 C   0  0  0  0  0  0  0  0  0  0  0  0
    0.9308    2.9250   -3.2060 Br  0  0  0  0  0  0  0  0  0  0  0  0
    1.3081    1.3609   -0.8043 C   0  0  0  0  0  0  0  0  0  0  0  0
    2.6521    1.5661   -1.0033 O   0  0  0  0  0  0  0  0  0  0  0  0
    3.2668    0.4157   -1.5962 C   0  0  0  0  0  0  0  0  0  0  0  0
    4.6925    0.3144   -1.1057 C   0  0  0  0  0  0  0  0  0  0  0  0
    5.1398   -0.8433   -0.4490 C   0  0  0  0  0  0  0  0  0  0  0  0
    6.4599   -0.9382   -0.0023 C   0  0  0  0  0  0  0  0  0  0  0  0
    7.3418    0.1244   -0.2094 C   0  0  0  0  0  0  0  0  0  0  0  0
    8.9723    0.0080    0.3410 Cl  0  0  0  0  0  0  0  0  0  0  0  0
    6.9133    1.2799   -0.8602 C   0  0  0  0  0  0  0  0  0  0  0  0
    5.5921    1.3741   -1.3077 C   0  0  0  0  0  0  0  0  0  0  0  0
    0.8809    0.3560    2.9877 H   0  0  0  0  0  0  0  0  0  0  0  0
    2.3464   -0.6349    2.9686 H   0  0  0  0  0  0  0  0  0  0  0  0
    0.8684   -1.3034    2.2692 H   0  0  0  0  0  0  0  0  0  0  0  0
   -0.8782   -0.0646    1.3953 H   0  0  0  0  0  0  0  0  0  0  0  0
   -3.4966    1.4552   -0.8157 H   0  0  0  0  0  0  0  0  0  0  0  0
   -3.1350    1.2504    0.9013 H   0  0  0  0  0  0  0  0  0  0  0  0
   -3.0260   -0.8724   -1.1504 H   0  0  0  0  0  0  0  0  0  0  0  0
   -5.6908    0.7565   -0.9523 H   0  0  0  0  0  0  0  0  0  0  0  0
   -5.3278   -0.6237   -2.0048 H   0  0  0  0  0  0  0  0  0  0  0  0
   -6.6612   -0.7146   -0.8435 H   0  0  0  0  0  0  0  0  0  0  0  0
   -6.0888   -0.8700    1.7462 H   0  0  0  0  0  0  0  0  0  0  0  0
   -4.3997   -0.7422    2.2390 H   0  0  0  0  0  0  0  0  0  0  0  0
   -5.2297    0.6466    1.5240 H   0  0  0  0  0  0  0  0  0  0  0  0
   -5.7331   -2.8374    0.3357 H   0  0  0  0  0  0  0  0  0  0  0  0
   -4.5642   -2.8346   -0.9982 H   0  0  0  0  0  0  0  0  0  0  0  0
   -3.0050   -2.4147    0.8076 H   0  0  0  0  0  0  0  0  0  0  0  0
   -1.7012    2.1954   -2.1598 H   0  0  0  0  0  0  0  0  0  0  0  0
    3.2765    0.5432   -2.6885 H   0  0  0  0  0  0  0  0  0  0  0  0
    2.7229   -0.5179   -1.3781 H   0  0  0  0  0  0  0  0  0  0  0  0
    4.4588   -1.6737   -0.2739 H   0  0  0  0  0  0  0  0  0  0  0  0
    6.7919   -1.8377    0.5065 H   0  0  0  0  0  0  0  0  0  0  0  0
    7.5973    2.1096   -1.0185 H   0  0  0  0  0  0  0  0  0  0  0  0
    5.2584    2.2834   -1.8070 H   0  0  0  0  0  0  0  0  0  0  0  0
  1  2  1  0
  2  3  1  0
  3  4  2  0
  4  5  1  0
  5  6  1  0
  6  7  1  0
  7  8  1  0
  8  9  1  0
  8 10  1  0
  8 11  1  0
 11 12  1  0
  5 13  2  0
 13 14  1  0
 14 15  1  0
 14 16  2  0
 16 17  1  0
 17 18  1  0
 18 19  1  0
 19 20  2  0
 20 21  1  0
 21 22  2  0
 22 23  1  0
 22 24  1  0
 24 25  2  0
 16  3  1  0
 25 19  1  0
  1 26  1  0
  1 27  1  0
  1 28  1  0
  4 29  1  0
  6 30  1  0
  6 31  1  0
  7 32  1  0
  9 33  1  0
  9 34  1  0
  9 35  1  0
 10 36  1  0
 10 37  1  0
 10 38  1  0
 11 39  1  0
 11 40  1  0
 12 41  1  0
 13 42  1  0
 18 43  1  0
 18 44  1  0
 20 45  1  0
 21 46  1  0
 24 47  1  0
 25 48  1  0
M  END
$$$$
