
     RDKit          3D

 60 64  0  0  0  0  0  0  0  0999 V2000
    8.1755   -1.5224    1.5865 C   0  0  0  0  0  0  0  0  0  0  0  0
    6.8303   -1.4281    1.1382 O   0  0  0  0  0  0  0  0  0  0  0  0
    6.6050   -1.2424   -0.2039 C   0  0  0  0  0  0  0  0  0  0  0  0
    7.6205   -1.3266   -1.1720 C   0  0  0  0  0  0  0  0  0  0  0  0
    7.3375   -1.1294   -2.5235 C   0  0  0  0  0  0  0  0  0  0  0  0
    6.0364   -0.8562   -2.9275 C   0  0  0  0  0  0  0  0  0  0  0  0
    5.0174   -0.7757   -1.9755 C   0  0  0  0  0  0  0  0  0  0  0  0
    5.2762   -0.9638   -0.6019 C   0  0  0  0  0  0  0  0  0  0  0  0
    4.1762   -0.8545    0.3699 C   0  0  0  0  0  0  0  0  0  0  0  0
    4.1675   -1.0190    1.6788 N   0  0  0  0  0  0  0  0  0  0  0  0
    2.8683   -0.7537    2.0417 C   0  0  0  0  0  0  0  0  0  0  0  0
    2.4767   -0.8278    3.4059 C   0  0  0  0  0  0  0  0  0  0  0  0
    2.1295   -0.8825    4.5123 N   0  0  0  0  0  0  0  0  0  0  0  0
    2.0987   -0.4407    0.9332 C   0  0  0  0  0  0  0  0  0  0  0  0
    0.8098   -0.0667    0.6694 N   0  0  0  0  0  0  0  0  0  0  0  0
   -0.1972   -0.1129    1.7452 C   0  0  0  0  0  0  0  0  0  0  0  0
   -1.4679    0.6845    1.3693 C   0  0  0  0  0  0  0  0  0  0  0  0
   -2.0675    0.2749    0.0728 N   0  0  0  0  0  0  0  0  0  0  0  0
   -3.2535    1.1220   -0.2709 C   0  0  0  0  0  0  0  0  0  0  0  0
   -4.2961    1.2027    0.8516 C   0  0  0  0  0  0  0  0  0  0  0  0
   -4.6423    2.4530    1.3966 C   0  0  0  0  0  0  0  0  0  0  0  0
   -5.5870    2.5469    2.4224 C   0  0  0  0  0  0  0  0  0  0  0  0
   -6.2045    1.3975    2.9102 C   0  0  0  0  0  0  0  0  0  0  0  0
   -5.8753    0.1520    2.3800 C   0  0  0  0  0  0  0  0  0  0  0  0
   -4.9263    0.0535    1.3587 C   0  0  0  0  0  0  0  0  0  0  0  0
   -3.9394    0.7087   -1.5835 C   0  0  0  0  0  0  0  0  0  0  0  0
   -4.4783    1.6968   -2.4295 C   0  0  0  0  0  0  0  0  0  0  0  0
   -5.1246    1.3465   -3.6164 C   0  0  0  0  0  0  0  0  0  0  0  0
   -5.2511    0.0049   -3.9722 C   0  0  0  0  0  0  0  0  0  0  0  0
   -4.7356   -0.9889   -3.1403 C   0  0  0  0  0  0  0  0  0  0  0  0
   -4.0906   -0.6397   -1.9528 C   0  0  0  0  0  0  0  0  0  0  0  0
   -1.0105    0.4212   -0.9646 C   0  0  0  0  0  0  0  0  0  0  0  0
    0.2585   -0.4034   -0.6582 C   0  0  0  0  0  0  0  0  0  0  0  0
    2.9483   -0.5141   -0.1427 O   0  0  0  0  0  0  0  0  0  0  0  0
    8.7566   -0.6421    1.2919 H   0  0  0  0  0  0  0  0  0  0  0  0
    8.6442   -2.4431    1.2280 H   0  0  0  0  0  0  0  0  0  0  0  0
    8.1609   -1.5607    2.6791 H   0  0  0  0  0  0  0  0  0  0  0  0
    8.6500   -1.5481   -0.9029 H   0  0  0  0  0  0  0  0  0  0  0  0
    8.1353   -1.1928   -3.2615 H   0  0  0  0  0  0  0  0  0  0  0  0
    5.8093   -0.7031   -3.9801 H   0  0  0  0  0  0  0  0  0  0  0  0
    4.0058   -0.5571   -2.3200 H   0  0  0  0  0  0  0  0  0  0  0  0
    0.1998    0.3390    2.6605 H   0  0  0  0  0  0  0  0  0  0  0  0
   -0.4605   -1.1555    1.9628 H   0  0  0  0  0  0  0  0  0  0  0  0
   -2.1805    0.5340    2.1866 H   0  0  0  0  0  0  0  0  0  0  0  0
   -1.2172    1.7521    1.3436 H   0  0  0  0  0  0  0  0  0  0  0  0
   -2.8687    2.1420   -0.4279 H   0  0  0  0  0  0  0  0  0  0  0  0
   -4.1712    3.3608    1.0290 H   0  0  0  0  0  0  0  0  0  0  0  0
   -5.8443    3.5197    2.8372 H   0  0  0  0  0  0  0  0  0  0  0  0
   -6.9413    1.4703    3.7070 H   0  0  0  0  0  0  0  0  0  0  0  0
   -6.3587   -0.7435    2.7617 H   0  0  0  0  0  0  0  0  0  0  0  0
   -4.6730   -0.9279    0.9644 H   0  0  0  0  0  0  0  0  0  0  0  0
   -4.4035    2.7497   -2.1617 H   0  0  0  0  0  0  0  0  0  0  0  0
   -5.5372    2.1193   -4.2617 H   0  0  0  0  0  0  0  0  0  0  0  0
   -5.7568   -0.2664   -4.8958 H   0  0  0  0  0  0  0  0  0  0  0  0
   -4.8403   -2.0351   -3.4140 H   0  0  0  0  0  0  0  0  0  0  0  0
   -3.6974   -1.4258   -1.3116 H   0  0  0  0  0  0  0  0  0  0  0  0
   -0.7274    1.4764   -1.0664 H   0  0  0  0  0  0  0  0  0  0  0  0
   -1.3753    0.0907   -1.9430 H   0  0  0  0  0  0  0  0  0  0  0  0
    0.0242   -1.4750   -0.6952 H   0  0  0  0  0  0  0  0  0  0  0  0
    0.9829   -0.1946   -1.4546 H   0  0  0  0  0  0  0  0  0  0  0  0
  1  2  1  0
  2  3  1  0
  3  4  2  0
  4  5  1  0
  5  6  2  0
  6  7  1  0
  7  8  2  0
  8  9  1  0
  9 10  2  0
 10 11  1  0
 11 12  1  0
 12 13  3  0
 11 14  2  0
 14 15  1  0
 15 16  1  0
 16 17  1  0
 17 18  1  0
 18 19  1  0
 19 20  1  0
 20 21  2  0
 21 22  1  0
 22 23  2  0
 23 24  1  0
 24 25  2  0
 19 26  1  0
 26 27  2  0
 27 28  1  0
 28 29  2  0
 29 30  1  0
 30 31  2  0
 18 32  1  0
 32 33  1  0
 14 34  1  0
  8  3  1  0
 34  9  1  0
 33 15  1  0
 25 20  1  0
 31 26  1  0
  1 35  1  0
  1 36  1  0
  1 37  1  0
  4 38  1  0
  5 39  1  0
  6 40  1  0
  7 41  1  0
 16 42  1  0
 16 43  1  0
 17 44  1  0
 17 45  1  0
 19 46  1  0
 21 47  1  0
 22 48  1  0
 23 49  1  0
 24 50  1  0
 25 51  1  0
 27 52  1  0
 28 53  1  0
 29 54  1  0
 30 55  1  0
 31 56  1  0
 32 57  1  0
 32 58  1  0
 33 59  1  0
 33 60  1  0
M  END
$$$$
