
     RDKit          3D

 48 53  0  0  0  0  0  0  0  0999 V2000
    2.7544   -1.9293    1.3966 O   0  0  0  0  0  0  0  0  0  0  0  0
    3.1536   -0.8446    0.9830 C   0  0  0  0  0  0  0  0  0  0  0  0
    2.3456    0.2492    0.7934 N   0  0  0  0  0  0  0  0  0  0  0  0
    1.0355    0.0798    0.4627 N   0  0  0  0  0  0  0  0  0  0  0  0
    0.0683   -0.5466    1.2251 C   0  0  0  0  0  0  0  0  0  0  0  0
    0.3230   -1.2813    2.3051 O   0  0  0  0  0  0  0  0  0  0  0  0
   -1.1279   -0.2544    0.6178 C   0  0  0  0  0  0  0  0  0  0  0  0
   -0.8616    0.5578   -0.5527 C   0  0  0  0  0  0  0  0  0  0  0  0
    0.4961    0.7633   -0.6121 C   0  0  0  0  0  0  0  0  0  0  0  0
    1.2667    1.4638   -1.4427 O   0  0  0  0  0  0  0  0  0  0  0  0
   -2.0862    0.9637   -1.3460 C   0  0  0  0  0  0  0  0  0  0  0  0
   -2.9335    1.6389   -0.2553 C   0  0  0  0  0  0  0  0  0  0  0  0
   -3.4432    2.9297   -0.3378 C   0  0  0  0  0  0  0  0  0  0  0  0
   -4.2021    3.4207    0.7274 C   0  0  0  0  0  0  0  0  0  0  0  0
   -4.4507    2.6323    1.8623 C   0  0  0  0  0  0  0  0  0  0  0  0
   -3.9481    1.3328    1.9593 C   0  0  0  0  0  0  0  0  0  0  0  0
   -3.1917    0.8291    0.9077 C   0  0  0  0  0  0  0  0  0  0  0  0
   -2.5791   -0.5838    0.8750 C   0  0  0  0  0  0  0  0  0  0  0  0
   -2.9741   -1.2192   -0.4711 C   0  0  0  0  0  0  0  0  0  0  0  0
   -3.5423   -2.4803   -0.6073 C   0  0  0  0  0  0  0  0  0  0  0  0
   -3.8582   -2.9393   -1.8880 C   0  0  0  0  0  0  0  0  0  0  0  0
   -3.6106   -2.1480   -3.0211 C   0  0  0  0  0  0  0  0  0  0  0  0
   -3.0393   -0.8788   -2.9015 C   0  0  0  0  0  0  0  0  0  0  0  0
   -2.7168   -0.4086   -1.6337 C   0  0  0  0  0  0  0  0  0  0  0  0
    4.6081   -0.6350    0.7447 C   0  0  0  0  0  0  0  0  0  0  0  0
    5.0803    0.2405   -0.2433 C   0  0  0  0  0  0  0  0  0  0  0  0
    6.4567    0.3985   -0.4357 C   0  0  0  0  0  0  0  0  0  0  0  0
    7.3570   -0.3220    0.3491 C   0  0  0  0  0  0  0  0  0  0  0  0
    9.0483   -0.1235    0.1071 Cl  0  0  0  0  0  0  0  0  0  0  0  0
    6.8953   -1.2073    1.3213 C   0  0  0  0  0  0  0  0  0  0  0  0
    5.5209   -1.3683    1.5155 C   0  0  0  0  0  0  0  0  0  0  0  0
    2.7105    1.1069    0.4024 H   0  0  0  0  0  0  0  0  0  0  0  0
    1.2556   -1.5863    2.2326 H   0  0  0  0  0  0  0  0  0  0  0  0
    0.6785    1.8398   -2.1224 H   0  0  0  0  0  0  0  0  0  0  0  0
   -1.8822    1.5771   -2.2253 H   0  0  0  0  0  0  0  0  0  0  0  0
   -3.2611    3.5507   -1.2089 H   0  0  0  0  0  0  0  0  0  0  0  0
   -4.6077    4.4288    0.6795 H   0  0  0  0  0  0  0  0  0  0  0  0
   -5.0433    3.0403    2.6780 H   0  0  0  0  0  0  0  0  0  0  0  0
   -4.1446    0.7330    2.8428 H   0  0  0  0  0  0  0  0  0  0  0  0
   -2.7693   -1.1975    1.7570 H   0  0  0  0  0  0  0  0  0  0  0  0
   -3.7352   -3.1024    0.2614 H   0  0  0  0  0  0  0  0  0  0  0  0
   -4.3013   -3.9251   -2.0101 H   0  0  0  0  0  0  0  0  0  0  0  0
   -3.8674   -2.5320   -4.0058 H   0  0  0  0  0  0  0  0  0  0  0  0
   -2.8544   -0.2790   -3.7869 H   0  0  0  0  0  0  0  0  0  0  0  0
    4.3983    0.7833   -0.8926 H   0  0  0  0  0  0  0  0  0  0  0  0
    6.8199    1.0757   -1.2050 H   0  0  0  0  0  0  0  0  0  0  0  0
    7.5955   -1.7768    1.9271 H   0  0  0  0  0  0  0  0  0  0  0  0
    5.1638   -2.0662    2.2712 H   0  0  0  0  0  0  0  0  0  0  0  0
  1  2  2  0
  2  3  1  0
  3  4  1  0
  4  5  1  0
  5  6  1  0
  5  7  2  0
  7  8  1  0
  8  9  2  0
  9 10  1  0
  8 11  1  0
 11 12  1  0
 12 13  2  0
 13 14  1  0
 14 15  2  0
 15 16  1  0
 16 17  2  0
 17 18  1  0
 18 19  1  0
 19 20  2  0
 20 21  1  0
 21 22  2  0
 22 23  1  0
 23 24  2  0
  2 25  1  0
 25 26  2  0
 26 27  1  0
 27 28  2  0
 28 29  1  0
 28 30  1  0
 30 31  2  0
  9  4  1  0
 24 11  1  0
 31 25  1  0
 18  7  1  0
 24 19  1  0
 17 12  1  0
  3 32  1  0
  6 33  1  0
 10 34  1  0
 11 35  1  0
 13 36  1  0
 14 37  1  0
 15 38  1  0
 16 39  1  0
 18 40  1  0
 20 41  1  0
 21 42  1  0
 22 43  1  0
 23 44  1  0
 26 45  1  0
 27 46  1  0
 30 47  1  0
 31 48  1  0
M  END
$$$$
