
     RDKit          3D

 62 66  0  0  0  0  0  0  0  0999 V2000
   -4.0987   -4.2502   -2.4596 C   0  0  0  0  0  0  0  0  0  0  0  0
   -3.2125   -4.7565   -1.4702 O   0  0  0  0  0  0  0  0  0  0  0  0
   -2.8116   -3.8844   -0.4949 C   0  0  0  0  0  0  0  0  0  0  0  0
   -1.8780   -4.4058    0.4039 C   0  0  0  0  0  0  0  0  0  0  0  0
   -1.3771   -3.6218    1.4427 C   0  0  0  0  0  0  0  0  0  0  0  0
   -1.8129   -2.3058    1.5915 C   0  0  0  0  0  0  0  0  0  0  0  0
   -2.7543   -1.7681    0.7046 C   0  0  0  0  0  0  0  0  0  0  0  0
   -3.1978   -0.3768    0.8578 C   0  0  0  0  0  0  0  0  0  0  0  0
   -4.8287   -0.0860    1.2867 S   0  0  0  0  0  0  0  0  0  0  0  0
   -4.6111    1.6161    1.3202 C   0  0  0  0  0  0  0  0  0  0  0  0
   -5.5858    2.5862    1.6218 C   0  0  0  0  0  0  0  0  0  0  0  0
   -5.2348    3.9407    1.5950 C   0  0  0  0  0  0  0  0  0  0  0  0
   -3.9418    4.3305    1.2740 C   0  0  0  0  0  0  0  0  0  0  0  0
   -3.4800    5.6165    1.2122 O   0  0  0  0  0  0  0  0  0  0  0  0
   -4.4197    6.6521    1.4677 C   0  0  0  0  0  0  0  0  0  0  0  0
   -2.9819    3.3554    0.9792 C   0  0  0  0  0  0  0  0  0  0  0  0
   -3.3004    1.9720    1.0009 C   0  0  0  0  0  0  0  0  0  0  0  0
   -2.4845    0.8066    0.7388 C   0  0  0  0  0  0  0  0  0  0  0  0
   -1.0676    0.8182    0.3884 C   0  0  0  0  0  0  0  0  0  0  0  0
   -0.6503    0.4438   -0.8907 C   0  0  0  0  0  0  0  0  0  0  0  0
    0.7089    0.4525   -1.2117 C   0  0  0  0  0  0  0  0  0  0  0  0
    1.6627    0.8311   -0.2646 C   0  0  0  0  0  0  0  0  0  0  0  0
    2.9546    0.7902   -0.7096 O   0  0  0  0  0  0  0  0  0  0  0  0
    3.9855    0.9615    0.2681 C   0  0  0  0  0  0  0  0  0  0  0  0
    5.3575    0.7105   -0.3852 C   0  0  0  0  0  0  0  0  0  0  0  0
    5.7211   -0.7125   -0.4835 N   0  0  0  0  0  0  0  0  0  0  0  0
    4.8259   -1.4834   -1.3509 C   0  0  0  0  0  0  0  0  0  0  0  0
    5.6186   -2.7498   -1.6426 C   0  0  0  0  0  0  0  0  0  0  0  0
    7.0778   -2.3764   -1.3981 C   0  0  0  0  0  0  0  0  0  0  0  0
    7.0527   -0.8956   -1.0633 C   0  0  0  0  0  0  0  0  0  0  0  0
    1.2458    1.2195    1.0082 C   0  0  0  0  0  0  0  0  0  0  0  0
   -0.1152    1.2126    1.3343 C   0  0  0  0  0  0  0  0  0  0  0  0
   -3.2502   -2.5670   -0.3403 C   0  0  0  0  0  0  0  0  0  0  0  0
   -4.2797   -5.0476   -3.1847 H   0  0  0  0  0  0  0  0  0  0  0  0
   -5.0619   -3.9738   -2.0207 H   0  0  0  0  0  0  0  0  0  0  0  0
   -3.6527   -3.4085   -2.9975 H   0  0  0  0  0  0  0  0  0  0  0  0
   -1.5344   -5.4314    0.2892 H   0  0  0  0  0  0  0  0  0  0  0  0
   -0.6464   -4.0344    2.1325 H   0  0  0  0  0  0  0  0  0  0  0  0
   -1.4130   -1.7020    2.4032 H   0  0  0  0  0  0  0  0  0  0  0  0
   -6.6011    2.2890    1.8714 H   0  0  0  0  0  0  0  0  0  0  0  0
   -6.0075    4.6646    1.8313 H   0  0  0  0  0  0  0  0  0  0  0  0
   -3.9008    7.6094    1.3589 H   0  0  0  0  0  0  0  0  0  0  0  0
   -4.8014    6.5942    2.4925 H   0  0  0  0  0  0  0  0  0  0  0  0
   -5.2374    6.6319    0.7398 H   0  0  0  0  0  0  0  0  0  0  0  0
   -1.9713    3.6692    0.7250 H   0  0  0  0  0  0  0  0  0  0  0  0
   -1.3735    0.1412   -1.6429 H   0  0  0  0  0  0  0  0  0  0  0  0
    1.0279    0.1540   -2.2068 H   0  0  0  0  0  0  0  0  0  0  0  0
    3.8450    0.2796    1.1163 H   0  0  0  0  0  0  0  0  0  0  0  0
    3.9624    1.9978    0.6270 H   0  0  0  0  0  0  0  0  0  0  0  0
    6.1108    1.1999    0.2449 H   0  0  0  0  0  0  0  0  0  0  0  0
    5.3871    1.1871   -1.3737 H   0  0  0  0  0  0  0  0  0  0  0  0
    3.8768   -1.7204   -0.8627 H   0  0  0  0  0  0  0  0  0  0  0  0
    4.6174   -0.9576   -2.2909 H   0  0  0  0  0  0  0  0  0  0  0  0
    5.3255   -3.5649   -0.9700 H   0  0  0  0  0  0  0  0  0  0  0  0
    5.4561   -3.0893   -2.6715 H   0  0  0  0  0  0  0  0  0  0  0  0
    7.4718   -2.9591   -0.5561 H   0  0  0  0  0  0  0  0  0  0  0  0
    7.7027   -2.5834   -2.2722 H   0  0  0  0  0  0  0  0  0  0  0  0
    7.1800   -0.3050   -1.9789 H   0  0  0  0  0  0  0  0  0  0  0  0
    7.8496   -0.6294   -0.3613 H   0  0  0  0  0  0  0  0  0  0  0  0
    1.9504    1.5344    1.7687 H   0  0  0  0  0  0  0  0  0  0  0  0
   -0.4255    1.5122    2.3328 H   0  0  0  0  0  0  0  0  0  0  0  0
   -3.9733   -2.1337   -1.0237 H   0  0  0  0  0  0  0  0  0  0  0  0
  1  2  1  0
  2  3  1  0
  3  4  2  0
  4  5  1  0
  5  6  2  0
  6  7  1  0
  7  8  1  0
  8  9  1  0
  9 10  1  0
 10 11  2  0
 11 12  1  0
 12 13  2  0
 13 14  1  0
 14 15  1  0
 13 16  1  0
 16 17  2  0
 17 18  1  0
 18 19  1  0
 19 20  2  0
 20 21  1  0
 21 22  2  0
 22 23  1  0
 23 24  1  0
 24 25  1  0
 25 26  1  0
 26 27  1  0
 27 28  1  0
 28 29  1  0
 29 30  1  0
 22 31  1  0
 31 32  2  0
  7 33  2  0
 33  3  1  0
 18  8  2  0
 32 19  1  0
 17 10  1  0
 30 26  1  0
  1 34  1  0
  1 35  1  0
  1 36  1  0
  4 37  1  0
  5 38  1  0
  6 39  1  0
 11 40  1  0
 12 41  1  0
 15 42  1  0
 15 43  1  0
 15 44  1  0
 16 45  1  0
 20 46  1  0
 21 47  1  0
 24 48  1  0
 24 49  1  0
 25 50  1  0
 25 51  1  0
 27 52  1  0
 27 53  1  0
 28 54  1  0
 28 55  1  0
 29 56  1  0
 29 57  1  0
 30 58  1  0
 30 59  1  0
 31 60  1  0
 32 61  1  0
 33 62  1  0
M  END
$$$$
