
     RDKit          3D

 45 46  0  0  0  0  0  0  0  0999 V2000
    4.5725   -2.2541    0.7354 C   0  0  0  0  0  0  0  0  0  0  0  0
    3.5558   -1.3113    0.1176 C   0  0  0  0  0  0  0  0  0  0  0  0
    3.3823   -0.0993    0.8984 N   0  0  0  0  0  0  0  0  0  0  0  0
    4.2247    0.9298    0.6901 N   0  0  0  0  0  0  0  0  0  0  0  0
    3.7993    1.8682    1.5341 C   0  0  0  0  0  0  0  0  0  0  0  0
    2.6679    1.4650    2.2723 C   0  0  0  0  0  0  0  0  0  0  0  0
    1.9734    2.2473    3.2706 C   0  0  0  0  0  0  0  0  0  0  0  0
    0.6904    2.4336    3.3495 N   0  0  0  0  0  0  0  0  0  0  0  0
   -0.1144    1.9346    2.3723 N   0  0  0  0  0  0  0  0  0  0  0  0
   -1.4897    2.0813    2.4342 C   0  0  0  0  0  0  0  0  0  0  0  0
   -2.1099    2.6428    3.3356 O   0  0  0  0  0  0  0  0  0  0  0  0
   -2.2107    1.4458    1.2464 C   0  0  0  0  0  0  0  0  0  0  0  0
   -1.2759    0.8347    0.3492 O   0  0  0  0  0  0  0  0  0  0  0  0
   -1.9100    0.2845   -0.7299 C   0  0  0  0  0  0  0  0  0  0  0  0
   -2.7150   -0.8458   -0.6013 C   0  0  0  0  0  0  0  0  0  0  0  0
   -3.3067   -1.4140   -1.7348 C   0  0  0  0  0  0  0  0  0  0  0  0
   -4.2020   -2.6104   -1.6029 C   0  0  0  0  0  0  0  0  0  0  0  0
   -3.0904   -0.8246   -2.9886 C   0  0  0  0  0  0  0  0  0  0  0  0
   -2.2729    0.3062   -3.1215 C   0  0  0  0  0  0  0  0  0  0  0  0
   -2.0092    0.8958   -4.4750 C   0  0  0  0  0  0  0  0  0  0  0  0
   -1.6628    0.8430   -1.9825 C   0  0  0  0  0  0  0  0  0  0  0  0
    2.4432    0.1544    1.8709 C   0  0  0  0  0  0  0  0  0  0  0  0
    1.4664   -0.8656    2.3382 C   0  0  0  0  0  0  0  0  0  0  0  0
    4.6929   -3.1442    0.1098 H   0  0  0  0  0  0  0  0  0  0  0  0
    4.2565   -2.5806    1.7317 H   0  0  0  0  0  0  0  0  0  0  0  0
    5.5508   -1.7710    0.8338 H   0  0  0  0  0  0  0  0  0  0  0  0
    2.5809   -1.7989    0.0190 H   0  0  0  0  0  0  0  0  0  0  0  0
    3.8718   -1.0100   -0.8878 H   0  0  0  0  0  0  0  0  0  0  0  0
    4.3222    2.8154    1.5676 H   0  0  0  0  0  0  0  0  0  0  0  0
    2.6092    2.7540    4.0159 H   0  0  0  0  0  0  0  0  0  0  0  0
    0.2882    1.5137    1.5370 H   0  0  0  0  0  0  0  0  0  0  0  0
   -2.9026    0.7036    1.6558 H   0  0  0  0  0  0  0  0  0  0  0  0
   -2.7611    2.2418    0.7292 H   0  0  0  0  0  0  0  0  0  0  0  0
   -2.8681   -1.2969    0.3748 H   0  0  0  0  0  0  0  0  0  0  0  0
   -4.1936   -3.2087   -2.5206 H   0  0  0  0  0  0  0  0  0  0  0  0
   -3.8661   -3.2601   -0.7881 H   0  0  0  0  0  0  0  0  0  0  0  0
   -5.2283   -2.2901   -1.4006 H   0  0  0  0  0  0  0  0  0  0  0  0
   -3.5552   -1.2556   -3.8737 H   0  0  0  0  0  0  0  0  0  0  0  0
   -1.1414    0.4085   -4.9315 H   0  0  0  0  0  0  0  0  0  0  0  0
   -2.8755    0.7673   -5.1313 H   0  0  0  0  0  0  0  0  0  0  0  0
   -1.8128    1.9703   -4.4009 H   0  0  0  0  0  0  0  0  0  0  0  0
   -1.0046    1.7034   -2.0659 H   0  0  0  0  0  0  0  0  0  0  0  0
    0.6866   -1.0235    1.5862 H   0  0  0  0  0  0  0  0  0  0  0  0
    1.9597   -1.8228    2.5314 H   0  0  0  0  0  0  0  0  0  0  0  0
    0.9843   -0.5576    3.2711 H   0  0  0  0  0  0  0  0  0  0  0  0
  1  2  1  0
  2  3  1  0
  3  4  1  0
  4  5  2  0
  5  6  1  0
  6  7  1  0
  7  8  2  3
  8  9  1  0
  9 10  1  0
 10 11  2  0
 10 12  1  0
 12 13  1  0
 13 14  1  0
 14 15  2  0
 15 16  1  0
 16 17  1  0
 16 18  2  0
 18 19  1  0
 19 20  1  0
 19 21  2  0
  6 22  2  0
 22 23  1  0
 22  3  1  0
 21 14  1  0
  1 24  1  0
  1 25  1  0
  1 26  1  0
  2 27  1  0
  2 28  1  0
  5 29  1  0
  7 30  1  0
  9 31  1  0
 12 32  1  0
 12 33  1  0
 15 34  1  0
 17 35  1  0
 17 36  1  0
 17 37  1  0
 18 38  1  0
 20 39  1  0
 20 40  1  0
 20 41  1  0
 21 42  1  0
 23 43  1  0
 23 44  1  0
 23 45  1  0
M  END
$$$$
