
     RDKit          3D

 48 50  0  0  0  0  0  0  0  0999 V2000
    3.7902    2.5465   -0.9675 O   0  0  0  0  0  0  0  0  0  0  0  0
    3.1863    1.4852   -1.0864 C   0  0  0  0  0  0  0  0  0  0  0  0
    2.0173    1.3449   -2.0744 C   0  0  0  0  0  0  0  0  0  0  0  0
    1.0288    0.3374   -1.6034 N   0  0  0  0  0  0  0  0  0  0  0  0
    0.2098    0.8929   -0.4942 C   0  0  0  0  0  0  0  0  0  0  0  0
   -0.8733   -0.0967   -0.0269 C   0  0  0  0  0  0  0  0  0  0  0  0
   -1.7281   -0.5312   -1.1357 N   0  0  0  0  0  0  0  0  0  0  0  0
   -2.8963   -1.2255   -0.8434 C   0  0  0  0  0  0  0  0  0  0  0  0
   -3.1511   -2.3158   -1.3541 O   0  0  0  0  0  0  0  0  0  0  0  0
   -3.7726   -0.6106    0.0354 N   0  0  0  0  0  0  0  0  0  0  0  0
   -4.9525   -1.3721    0.4484 C   0  0  0  0  0  0  0  0  0  0  0  0
   -5.7582   -0.6140    1.5046 C   0  0  0  0  0  0  0  0  0  0  0  0
   -6.2111    0.6758    1.0620 O   0  0  0  0  0  0  0  0  0  0  0  0
   -5.4009    1.2513    0.0263 C   0  0  0  0  0  0  0  0  0  0  0  0
   -3.9248    0.8481    0.1241 C   0  0  0  0  0  0  0  0  0  0  0  0
   -0.9638   -1.0290   -2.2792 C   0  0  0  0  0  0  0  0  0  0  0  0
    0.1264   -0.0354   -2.7193 C   0  0  0  0  0  0  0  0  0  0  0  0
    3.4652    0.2934   -0.4402 N   0  0  0  0  0  0  0  0  0  0  0  0
    4.4728    0.0213    0.4986 C   0  0  0  0  0  0  0  0  0  0  0  0
    4.5017   -1.2662    1.0503 C   0  0  0  0  0  0  0  0  0  0  0  0
    5.4737   -1.6171    1.9919 C   0  0  0  0  0  0  0  0  0  0  0  0
    6.4230   -0.6778    2.3843 C   0  0  0  0  0  0  0  0  0  0  0  0
    7.7388   -1.1463    3.6570 Br  0  0  0  0  0  0  0  0  0  0  0  0
    6.4074    0.6045    1.8426 C   0  0  0  0  0  0  0  0  0  0  0  0
    5.4329    0.9523    0.9002 C   0  0  0  0  0  0  0  0  0  0  0  0
    2.4646    1.0216   -3.0226 H   0  0  0  0  0  0  0  0  0  0  0  0
    1.5513    2.3251   -2.2275 H   0  0  0  0  0  0  0  0  0  0  0  0
    0.8477    1.1294    0.3647 H   0  0  0  0  0  0  0  0  0  0  0  0
   -0.2759    1.8256   -0.8113 H   0  0  0  0  0  0  0  0  0  0  0  0
   -0.4064   -0.9955    0.3976 H   0  0  0  0  0  0  0  0  0  0  0  0
   -1.4608    0.3517    0.7765 H   0  0  0  0  0  0  0  0  0  0  0  0
   -4.6309   -2.3488    0.8263 H   0  0  0  0  0  0  0  0  0  0  0  0
   -5.5668   -1.5375   -0.4454 H   0  0  0  0  0  0  0  0  0  0  0  0
   -5.1530   -0.4575    2.4050 H   0  0  0  0  0  0  0  0  0  0  0  0
   -6.6408   -1.1908    1.7980 H   0  0  0  0  0  0  0  0  0  0  0  0
   -5.8213    0.9437   -0.9382 H   0  0  0  0  0  0  0  0  0  0  0  0
   -5.5019    2.3389    0.0972 H   0  0  0  0  0  0  0  0  0  0  0  0
   -3.5361    1.1458    1.1041 H   0  0  0  0  0  0  0  0  0  0  0  0
   -3.3483    1.3501   -0.6584 H   0  0  0  0  0  0  0  0  0  0  0  0
   -0.5147   -1.9906   -1.9989 H   0  0  0  0  0  0  0  0  0  0  0  0
   -1.6499   -1.2150   -3.1141 H   0  0  0  0  0  0  0  0  0  0  0  0
    0.7093   -0.4991   -3.5238 H   0  0  0  0  0  0  0  0  0  0  0  0
   -0.3534    0.8621   -3.1324 H   0  0  0  0  0  0  0  0  0  0  0  0
    2.7974   -0.4450   -0.6509 H   0  0  0  0  0  0  0  0  0  0  0  0
    3.7694   -2.0136    0.7546 H   0  0  0  0  0  0  0  0  0  0  0  0
    5.4803   -2.6205    2.4089 H   0  0  0  0  0  0  0  0  0  0  0  0
    7.1456    1.3440    2.1418 H   0  0  0  0  0  0  0  0  0  0  0  0
    5.4527    1.9602    0.4969 H   0  0  0  0  0  0  0  0  0  0  0  0
  1  2  2  0
  2  3  1  0
  3  4  1  0
  4  5  1  0
  5  6  1  0
  6  7  1  0
  7  8  1  0
  8  9  2  0
  8 10  1  0
 10 11  1  0
 11 12  1  0
 12 13  1  0
 13 14  1  0
 14 15  1  0
  7 16  1  0
 16 17  1  0
  2 18  1  0
 18 19  1  0
 19 20  2  0
 20 21  1  0
 21 22  2  0
 22 23  1  0
 22 24  1  0
 24 25  2  0
 17  4  1  0
 25 19  1  0
 15 10  1  0
  3 26  1  0
  3 27  1  0
  5 28  1  0
  5 29  1  0
  6 30  1  0
  6 31  1  0
 11 32  1  0
 11 33  1  0
 12 34  1  0
 12 35  1  0
 14 36  1  0
 14 37  1  0
 15 38  1  0
 15 39  1  0
 16 40  1  0
 16 41  1  0
 17 42  1  0
 17 43  1  0
 18 44  1  0
 20 45  1  0
 21 46  1  0
 24 47  1  0
 25 48  1  0
M  END
$$$$
