
     RDKit          3D

 73 76  0  0  0  0  0  0  0  0999 V2000
    7.6099    0.9840   -2.0593 C   0  0  0  0  0  0  0  0  0  0  0  0
    6.1532    0.8729   -1.6059 C   0  0  0  0  0  0  0  0  0  0  0  0
    5.7594    2.0155   -0.6533 C   0  0  0  0  0  0  0  0  0  0  0  0
    5.6166    1.5790    0.8083 C   0  0  0  0  0  0  0  0  0  0  0  0
    6.9786    1.3889    1.4824 C   0  0  0  0  0  0  0  0  0  0  0  0
    4.7200    0.3270    0.9432 C   0  0  0  0  0  0  0  0  0  0  0  0
    4.6228   -0.5136   -0.2658 N   0  0  0  0  0  0  0  0  0  0  0  0
    4.1745   -1.8789    0.0400 C   0  0  0  0  0  0  0  0  0  0  0  0
    2.7874   -1.9703    0.6890 C   0  0  0  0  0  0  0  0  0  0  0  0
    1.6910   -1.3256   -0.1567 C   0  0  0  0  0  0  0  0  0  0  0  0
    0.3745   -1.5891    0.3955 N   0  0  0  0  0  0  0  0  0  0  0  0
   -0.1358   -0.8718    1.4540 C   0  0  0  0  0  0  0  0  0  0  0  0
    0.4499    0.0799    1.9668 O   0  0  0  0  0  0  0  0  0  0  0  0
   -1.5009   -1.3332    1.9805 C   0  0  0  0  0  0  0  0  0  0  0  0
   -2.1614   -2.4004    1.2093 N   0  0  0  0  0  0  0  0  0  0  0  0
   -1.9346   -3.7124    1.6348 C   0  0  0  0  0  0  0  0  0  0  0  0
   -1.1917   -3.9705    2.5866 O   0  0  0  0  0  0  0  0  0  0  0  0
   -2.5006   -4.8438    0.8067 C   0  0  0  0  0  0  0  0  0  0  0  0
   -4.2292   -4.5827    0.4055 S   0  0  0  0  0  0  0  0  0  0  0  0
   -4.0402   -2.9649   -0.3091 C   0  0  0  0  0  0  0  0  0  0  0  0
   -4.9413   -2.6064   -1.3245 C   0  0  0  0  0  0  0  0  0  0  0  0
   -4.8849   -1.3443   -1.9073 C   0  0  0  0  0  0  0  0  0  0  0  0
   -3.9364   -0.4306   -1.4531 C   0  0  0  0  0  0  0  0  0  0  0  0
   -3.8245    1.1743   -2.2250 S   0  0  0  0  0  6  0  0  0  0  0  0
   -2.4613    1.6306   -2.0585 O   0  0  0  0  0  0  0  0  0  0  0  0
   -4.4179    1.0561   -3.5402 O   0  0  0  0  0  0  0  0  0  0  0  0
   -4.8404    2.1392   -1.2596 N   0  0  0  0  0  0  0  0  0  0  0  0
   -4.3739    2.4370    0.1163 C   0  0  0  0  0  0  0  0  0  0  0  0
   -5.1224    3.6550    0.6538 C   0  0  0  0  0  0  0  0  0  0  0  0
   -6.6339    3.4498    0.5944 C   0  0  0  0  0  0  0  0  0  0  0  0
   -7.0708    3.0688   -0.8173 C   0  0  0  0  0  0  0  0  0  0  0  0
   -6.2944    1.8586   -1.3315 C   0  0  0  0  0  0  0  0  0  0  0  0
   -3.0238   -0.7811   -0.4473 C   0  0  0  0  0  0  0  0  0  0  0  0
   -3.0658   -2.0535    0.1480 C   0  0  0  0  0  0  0  0  0  0  0  0
    5.8767   -0.5221   -1.0194 C   0  0  0  0  0  0  0  0  0  0  0  0
    7.7904    1.9442   -2.5538 H   0  0  0  0  0  0  0  0  0  0  0  0
    8.3031    0.9029   -1.2158 H   0  0  0  0  0  0  0  0  0  0  0  0
    7.8530    0.1909   -2.7752 H   0  0  0  0  0  0  0  0  0  0  0  0
    5.5358    0.9873   -2.5087 H   0  0  0  0  0  0  0  0  0  0  0  0
    4.7813    2.3976   -0.9786 H   0  0  0  0  0  0  0  0  0  0  0  0
    6.4478    2.8648   -0.7403 H   0  0  0  0  0  0  0  0  0  0  0  0
    5.1225    2.3994    1.3471 H   0  0  0  0  0  0  0  0  0  0  0  0
    7.5469    0.5562    1.0639 H   0  0  0  0  0  0  0  0  0  0  0  0
    6.8500    1.1940    2.5525 H   0  0  0  0  0  0  0  0  0  0  0  0
    7.5871    2.2945    1.3858 H   0  0  0  0  0  0  0  0  0  0  0  0
    5.0615   -0.2640    1.8032 H   0  0  0  0  0  0  0  0  0  0  0  0
    3.7070    0.6718    1.1866 H   0  0  0  0  0  0  0  0  0  0  0  0
    4.1349   -2.4573   -0.8923 H   0  0  0  0  0  0  0  0  0  0  0  0
    4.9023   -2.3833    0.6885 H   0  0  0  0  0  0  0  0  0  0  0  0
    2.5482   -3.0317    0.8377 H   0  0  0  0  0  0  0  0  0  0  0  0
    2.8024   -1.5260    1.6915 H   0  0  0  0  0  0  0  0  0  0  0  0
    1.6951   -1.7356   -1.1719 H   0  0  0  0  0  0  0  0  0  0  0  0
    1.8297   -0.2415   -0.2230 H   0  0  0  0  0  0  0  0  0  0  0  0
   -0.0990   -2.4387    0.1218 H   0  0  0  0  0  0  0  0  0  0  0  0
   -2.1652   -0.4643    2.0496 H   0  0  0  0  0  0  0  0  0  0  0  0
   -1.3385   -1.6734    3.0103 H   0  0  0  0  0  0  0  0  0  0  0  0
   -1.9031   -4.9480   -0.1051 H   0  0  0  0  0  0  0  0  0  0  0  0
   -2.4175   -5.7742    1.3769 H   0  0  0  0  0  0  0  0  0  0  0  0
   -5.6921   -3.3152   -1.6719 H   0  0  0  0  0  0  0  0  0  0  0  0
   -5.5743   -1.0868   -2.7090 H   0  0  0  0  0  0  0  0  0  0  0  0
   -3.3024    2.6616    0.1220 H   0  0  0  0  0  0  0  0  0  0  0  0
   -4.5473    1.5724    0.7667 H   0  0  0  0  0  0  0  0  0  0  0  0
   -4.8163    3.8513    1.6876 H   0  0  0  0  0  0  0  0  0  0  0  0
   -4.8542    4.5399    0.0626 H   0  0  0  0  0  0  0  0  0  0  0  0
   -7.1476    4.3649    0.9097 H   0  0  0  0  0  0  0  0  0  0  0  0
   -6.9254    2.6582    1.2957 H   0  0  0  0  0  0  0  0  0  0  0  0
   -6.9065    3.9209   -1.4887 H   0  0  0  0  0  0  0  0  0  0  0  0
   -8.1449    2.8517   -0.8268 H   0  0  0  0  0  0  0  0  0  0  0  0
   -6.6008    1.6676   -2.3651 H   0  0  0  0  0  0  0  0  0  0  0  0
   -6.5359    0.9739   -0.7319 H   0  0  0  0  0  0  0  0  0  0  0  0
   -2.2713   -0.0475   -0.1665 H   0  0  0  0  0  0  0  0  0  0  0  0
    5.8093   -1.2233   -1.8617 H   0  0  0  0  0  0  0  0  0  0  0  0
    6.7056   -0.8769   -0.3955 H   0  0  0  0  0  0  0  0  0  0  0  0
  1  2  1  0
  2  3  1  0
  3  4  1  0
  4  5  1  0
  4  6  1  0
  6  7  1  0
  7  8  1  0
  8  9  1  0
  9 10  1  0
 10 11  1  0
 11 12  1  0
 12 13  2  0
 12 14  1  0
 14 15  1  0
 15 16  1  0
 16 17  2  0
 16 18  1  0
 18 19  1  0
 19 20  1  0
 20 21  2  0
 21 22  1  0
 22 23  2  0
 23 24  1  0
 24 25  2  0
 24 26  2  0
 24 27  1  0
 27 28  1  0
 28 29  1  0
 29 30  1  0
 30 31  1  0
 31 32  1  0
 23 33  1  0
 33 34  2  0
  7 35  1  0
 35  2  1  0
 34 15  1  0
 34 20  1  0
 32 27  1  0
  1 36  1  0
  1 37  1  0
  1 38  1  0
  2 39  1  0
  3 40  1  0
  3 41  1  0
  4 42  1  0
  5 43  1  0
  5 44  1  0
  5 45  1  0
  6 46  1  0
  6 47  1  0
  8 48  1  0
  8 49  1  0
  9 50  1  0
  9 51  1  0
 10 52  1  0
 10 53  1  0
 11 54  1  0
 14 55  1  0
 14 56  1  0
 18 57  1  0
 18 58  1  0
 21 59  1  0
 22 60  1  0
 28 61  1  0
 28 62  1  0
 29 63  1  0
 29 64  1  0
 30 65  1  0
 30 66  1  0
 31 67  1  0
 31 68  1  0
 32 69  1  0
 32 70  1  0
 33 71  1  0
 35 72  1  0
 35 73  1  0
M  END
$$$$
