
     RDKit          3D

 42 45  0  0  0  0  0  0  0  0999 V2000
    6.4151   -2.0681    0.5630 C   0  0  0  0  0  0  0  0  0  0  0  0
    7.0467   -0.7960    0.2424 N   0  0  0  0  0  0  0  0  0  0  0  0
    8.4981   -0.8147    0.1446 C   0  0  0  0  0  0  0  0  0  0  0  0
    6.3615    0.3332   -0.2222 C   0  0  0  0  0  0  0  0  0  0  0  0
    6.9696    1.3297   -0.6167 O   0  0  0  0  0  0  0  0  0  0  0  0
    4.8374    0.2527   -0.1995 C   0  0  0  0  0  0  0  0  0  0  0  0
    4.0481    1.7525   -0.8492 S   0  0  0  0  0  0  0  0  0  0  0  0
    2.3633    1.3303   -0.6410 C   0  0  0  0  0  0  0  0  0  0  0  0
    1.9931    0.1506   -0.1986 N   0  0  0  0  0  0  0  0  0  0  0  0
    0.6122    0.0938   -0.1315 C   0  0  0  0  0  0  0  0  0  0  0  0
   -0.1527   -1.0031    0.2939 C   0  0  0  0  0  0  0  0  0  0  0  0
   -1.5556   -0.9134    0.3139 C   0  0  0  0  0  0  0  0  0  0  0  0
   -2.2399    0.2452   -0.0823 C   0  0  0  0  0  0  0  0  0  0  0  0
   -3.6720    0.3138   -0.0502 N   0  0  0  0  0  0  0  0  0  0  0  0
   -4.4213    1.4338   -0.3614 C   0  0  0  0  0  0  0  0  0  0  0  0
   -4.1060    2.5574   -0.7108 O   0  0  0  0  0  0  0  0  0  0  0  0
   -5.8263    1.0781   -0.1978 C   0  0  0  0  0  0  0  0  0  0  0  0
   -6.9687    1.8354   -0.3804 C   0  0  0  0  0  0  0  0  0  0  0  0
   -8.1974    1.2132   -0.1400 C   0  0  0  0  0  0  0  0  0  0  0  0
   -8.2538   -0.1327    0.2743 C   0  0  0  0  0  0  0  0  0  0  0  0
   -7.0824   -0.8753    0.4525 C   0  0  0  0  0  0  0  0  0  0  0  0
   -5.8812   -0.2358    0.2054 C   0  0  0  0  0  0  0  0  0  0  0  0
   -4.5115   -0.7293    0.2969 C   0  0  0  0  0  0  0  0  0  0  0  0
   -4.2925   -1.8827    0.6216 O   0  0  0  0  0  0  0  0  0  0  0  0
   -1.4654    1.3415   -0.5090 C   0  0  0  0  0  0  0  0  0  0  0  0
   -0.0578    1.2482   -0.5269 C   0  0  0  0  0  0  0  0  0  0  0  0
    1.1026    2.4293   -1.0018 S   0  0  0  0  0  0  0  0  0  0  0  0
    5.3696   -1.9523    0.8531 H   0  0  0  0  0  0  0  0  0  0  0  0
    6.4714   -2.7138   -0.3183 H   0  0  0  0  0  0  0  0  0  0  0  0
    6.9516   -2.5368    1.3928 H   0  0  0  0  0  0  0  0  0  0  0  0
    8.9120   -1.2210    1.0728 H   0  0  0  0  0  0  0  0  0  0  0  0
    8.9161    0.1825   -0.0146 H   0  0  0  0  0  0  0  0  0  0  0  0
    8.7832   -1.4568   -0.6948 H   0  0  0  0  0  0  0  0  0  0  0  0
    4.5257   -0.5970   -0.8152 H   0  0  0  0  0  0  0  0  0  0  0  0
    4.5166    0.1115    0.8379 H   0  0  0  0  0  0  0  0  0  0  0  0
    0.3427   -1.9164    0.6089 H   0  0  0  0  0  0  0  0  0  0  0  0
   -2.0789   -1.7991    0.6621 H   0  0  0  0  0  0  0  0  0  0  0  0
   -6.9097    2.8720   -0.6965 H   0  0  0  0  0  0  0  0  0  0  0  0
   -9.1216    1.7736   -0.2708 H   0  0  0  0  0  0  0  0  0  0  0  0
   -9.2213   -0.5975    0.4591 H   0  0  0  0  0  0  0  0  0  0  0  0
   -7.1105   -1.9122    0.7733 H   0  0  0  0  0  0  0  0  0  0  0  0
   -1.9100    2.2758   -0.8333 H   0  0  0  0  0  0  0  0  0  0  0  0
  1  2  1  0
  2  3  1  0
  2  4  1  0
  4  5  2  0
  4  6  1  0
  6  7  1  0
  7  8  1  0
  8  9  2  0
  9 10  1  0
 10 11  2  0
 11 12  1  0
 12 13  2  0
 13 14  1  0
 14 15  1  0
 15 16  2  0
 15 17  1  0
 17 18  2  0
 18 19  1  0
 19 20  2  0
 20 21  1  0
 21 22  2  0
 22 23  1  0
 23 24  2  0
 13 25  1  0
 25 26  2  0
 26 27  1  0
 27  8  1  0
 26 10  1  0
 23 14  1  0
 22 17  1  0
  1 28  1  0
  1 29  1  0
  1 30  1  0
  3 31  1  0
  3 32  1  0
  3 33  1  0
  6 34  1  0
  6 35  1  0
 11 36  1  0
 12 37  1  0
 18 38  1  0
 19 39  1  0
 20 40  1  0
 21 41  1  0
 25 42  1  0
M  END
$$$$
