
     RDKit          3D

 42 44  0  0  0  0  0  0  0  0999 V2000
   -5.2797    0.7452   -0.4199 C   0  0  0  0  0  0  0  0  0  0  0  0
   -4.7845   -0.6491   -0.1484 C   0  0  0  0  0  0  0  0  0  0  0  0
   -5.6558   -1.6046    0.3962 C   0  0  0  0  0  0  0  0  0  0  0  0
   -5.2132   -2.9008    0.6531 C   0  0  0  0  0  0  0  0  0  0  0  0
   -3.8974   -3.2527    0.3682 C   0  0  0  0  0  0  0  0  0  0  0  0
   -3.0198   -2.3103   -0.1746 C   0  0  0  0  0  0  0  0  0  0  0  0
   -3.4544   -1.0070   -0.4364 C   0  0  0  0  0  0  0  0  0  0  0  0
   -2.6767   -0.0107   -0.9649 O   0  0  0  0  0  0  0  0  0  0  0  0
   -1.3316   -0.3263   -1.2886 C   0  0  0  0  0  0  0  0  0  0  0  0
   -0.6026    0.8887   -1.8692 C   0  0  0  0  0  0  0  0  0  0  0  0
   -1.1152    1.9916   -2.0389 O   0  0  0  0  0  0  0  0  0  0  0  0
    0.7173    0.6244   -2.1921 N   0  0  0  0  0  0  0  0  0  0  0  0
    1.6241    1.6990   -2.5561 C   0  0  0  0  0  0  0  0  0  0  0  0
    2.1148    2.4861   -1.3370 C   0  0  0  0  0  0  0  0  0  0  0  0
    2.8603    1.6280   -0.3624 C   0  0  0  0  0  0  0  0  0  0  0  0
    2.9549    0.3110   -0.3606 N   0  0  0  0  0  0  0  0  0  0  0  0
    3.7256   -0.0034    0.7326 C   0  0  0  0  0  0  0  0  0  0  0  0
    4.1460   -1.2549    1.2048 C   0  0  0  0  0  0  0  0  0  0  0  0
    4.9346   -1.3054    2.3616 C   0  0  0  0  0  0  0  0  0  0  0  0
    5.2957   -0.1346    3.0333 C   0  0  0  0  0  0  0  0  0  0  0  0
    4.8852    1.1233    2.5761 C   0  0  0  0  0  0  0  0  0  0  0  0
    4.1015    1.1439    1.4206 C   0  0  0  0  0  0  0  0  0  0  0  0
    3.5349    2.1676    0.7064 N   0  0  0  0  0  0  0  0  0  0  0  0
   -5.1936    0.9772   -1.4864 H   0  0  0  0  0  0  0  0  0  0  0  0
   -4.7017    1.4725    0.1594 H   0  0  0  0  0  0  0  0  0  0  0  0
   -6.3321    0.8593   -0.1395 H   0  0  0  0  0  0  0  0  0  0  0  0
   -6.6864   -1.3416    0.6229 H   0  0  0  0  0  0  0  0  0  0  0  0
   -5.8951   -3.6343    1.0749 H   0  0  0  0  0  0  0  0  0  0  0  0
   -3.5513   -4.2634    0.5685 H   0  0  0  0  0  0  0  0  0  0  0  0
   -2.0037   -2.6288   -0.3798 H   0  0  0  0  0  0  0  0  0  0  0  0
   -0.7885   -0.6304   -0.3855 H   0  0  0  0  0  0  0  0  0  0  0  0
   -1.3002   -1.1182   -2.0466 H   0  0  0  0  0  0  0  0  0  0  0  0
    1.1699   -0.1493   -1.7103 H   0  0  0  0  0  0  0  0  0  0  0  0
    1.1125    2.3740   -3.2510 H   0  0  0  0  0  0  0  0  0  0  0  0
    2.4662    1.2396   -3.0854 H   0  0  0  0  0  0  0  0  0  0  0  0
    1.2658    2.9487   -0.8197 H   0  0  0  0  0  0  0  0  0  0  0  0
    2.7708    3.2953   -1.6792 H   0  0  0  0  0  0  0  0  0  0  0  0
    3.8635   -2.1599    0.6794 H   0  0  0  0  0  0  0  0  0  0  0  0
    5.2683   -2.2690    2.7395 H   0  0  0  0  0  0  0  0  0  0  0  0
    5.9084   -0.2016    3.9304 H   0  0  0  0  0  0  0  0  0  0  0  0
    5.1658    2.0310    3.0988 H   0  0  0  0  0  0  0  0  0  0  0  0
    3.5974    3.1501    0.9307 H   0  0  0  0  0  0  0  0  0  0  0  0
  1  2  1  0
  2  3  2  0
  3  4  1  0
  4  5  2  0
  5  6  1  0
  6  7  2  0
  7  8  1  0
  8  9  1  0
  9 10  1  0
 10 11  2  0
 10 12  1  0
 12 13  1  0
 13 14  1  0
 14 15  1  0
 15 16  2  0
 16 17  1  0
 17 18  2  0
 18 19  1  0
 19 20  2  0
 20 21  1  0
 21 22  2  0
 22 23  1  0
  7  2  1  0
 23 15  1  0
 22 17  1  0
  1 24  1  0
  1 25  1  0
  1 26  1  0
  3 27  1  0
  4 28  1  0
  5 29  1  0
  6 30  1  0
  9 31  1  0
  9 32  1  0
 12 33  1  0
 13 34  1  0
 13 35  1  0
 14 36  1  0
 14 37  1  0
 18 38  1  0
 19 39  1  0
 20 40  1  0
 21 41  1  0
 23 42  1  0
M  END
$$$$
