
     RDKit          3D

 55 57  0  0  0  0  0  0  0  0999 V2000
    0.8726   -0.5953   -1.9470 O   0  0  0  0  0  0  0  0  0  0  0  0
    1.5977    0.1355   -1.2775 C   0  0  0  0  0  0  0  0  0  0  0  0
    1.1559    0.7773    0.0352 C   0  0  0  0  0  0  0  0  0  0  0  0
   -0.2244    0.5000    0.2667 O   0  0  0  0  0  0  0  0  0  0  0  0
   -0.6980    0.9452    1.4657 C   0  0  0  0  0  0  0  0  0  0  0  0
   -0.0082    1.5273    2.2926 O   0  0  0  0  0  0  0  0  0  0  0  0
   -2.1901    0.6033    1.6310 C   0  0  0  0  0  0  0  0  0  0  0  0
   -2.3864   -0.2671    2.8840 C   0  0  0  0  0  0  0  0  0  0  0  0
   -2.6609    0.5481    4.1267 C   0  0  0  0  0  0  0  0  0  0  0  0
   -3.9495    1.0467    4.3667 C   0  0  0  0  0  0  0  0  0  0  0  0
   -4.2130    1.8082    5.5058 C   0  0  0  0  0  0  0  0  0  0  0  0
   -3.1919    2.0807    6.4139 C   0  0  0  0  0  0  0  0  0  0  0  0
   -1.9067    1.5939    6.1822 C   0  0  0  0  0  0  0  0  0  0  0  0
   -1.6410    0.8313    5.0434 C   0  0  0  0  0  0  0  0  0  0  0  0
   -2.6943   -0.0803    0.4332 N   0  0  0  0  0  0  0  0  0  0  0  0
   -4.0338   -0.1526    0.1275 C   0  0  0  0  0  0  0  0  0  0  0  0
   -4.8845    0.2881    0.8985 O   0  0  0  0  0  0  0  0  0  0  0  0
   -4.3668   -0.7709   -1.1486 C   0  0  0  0  0  0  0  0  0  0  0  0
   -5.6362   -0.9758   -1.6604 C   0  0  0  0  0  0  0  0  0  0  0  0
   -5.6206   -1.6041   -2.9389 C   0  0  0  0  0  0  0  0  0  0  0  0
   -4.3384   -1.8605   -3.3674 C   0  0  0  0  0  0  0  0  0  0  0  0
   -3.1684   -1.3456   -2.2326 S   0  0  0  0  0  0  0  0  0  0  0  0
    2.8928    0.4595   -1.6411 N   0  0  0  0  0  0  0  0  0  0  0  0
    3.5274   -0.1376   -2.8120 C   0  0  0  0  0  0  0  0  0  0  0  0
    4.6519    0.7715   -3.3370 C   0  0  0  0  0  0  0  0  0  0  0  0
    6.0101    0.3868   -2.7607 C   0  0  0  0  0  0  0  0  0  0  0  0
    6.4001   -1.0452   -3.1332 C   0  0  0  0  0  0  0  0  0  0  0  0
    5.1995   -1.9702   -3.3444 C   0  0  0  0  0  0  0  0  0  0  0  0
    4.0137   -1.5607   -2.4809 C   0  0  0  0  0  0  0  0  0  0  0  0
    1.3055    1.8604   -0.0370 H   0  0  0  0  0  0  0  0  0  0  0  0
    1.7670    0.3537    0.8404 H   0  0  0  0  0  0  0  0  0  0  0  0
   -2.7329    1.5541    1.6981 H   0  0  0  0  0  0  0  0  0  0  0  0
   -1.5126   -0.9112    3.0503 H   0  0  0  0  0  0  0  0  0  0  0  0
   -3.2287   -0.9600    2.7542 H   0  0  0  0  0  0  0  0  0  0  0  0
   -4.7564    0.8441    3.6632 H   0  0  0  0  0  0  0  0  0  0  0  0
   -5.2156    2.1882    5.6824 H   0  0  0  0  0  0  0  0  0  0  0  0
   -3.3967    2.6746    7.3005 H   0  0  0  0  0  0  0  0  0  0  0  0
   -1.1079    1.8105    6.8870 H   0  0  0  0  0  0  0  0  0  0  0  0
   -0.6295    0.4687    4.8745 H   0  0  0  0  0  0  0  0  0  0  0  0
   -2.0211   -0.3829   -0.2675 H   0  0  0  0  0  0  0  0  0  0  0  0
   -6.5361   -0.6840   -1.1304 H   0  0  0  0  0  0  0  0  0  0  0  0
   -6.5041   -1.8545   -3.5131 H   0  0  0  0  0  0  0  0  0  0  0  0
   -4.0289   -2.3259   -4.2933 H   0  0  0  0  0  0  0  0  0  0  0  0
    3.4918    0.8981   -0.9523 H   0  0  0  0  0  0  0  0  0  0  0  0
    2.7608   -0.2020   -3.5949 H   0  0  0  0  0  0  0  0  0  0  0  0
    4.7022    0.6815   -4.4301 H   0  0  0  0  0  0  0  0  0  0  0  0
    4.4366    1.8249   -3.1215 H   0  0  0  0  0  0  0  0  0  0  0  0
    6.7821    1.0799   -3.1139 H   0  0  0  0  0  0  0  0  0  0  0  0
    5.9803    0.4843   -1.6684 H   0  0  0  0  0  0  0  0  0  0  0  0
    7.0471   -1.4495   -2.3449 H   0  0  0  0  0  0  0  0  0  0  0  0
    7.0035   -1.0391   -4.0492 H   0  0  0  0  0  0  0  0  0  0  0  0
    5.4897   -3.0045   -3.1266 H   0  0  0  0  0  0  0  0  0  0  0  0
    4.9011   -1.9456   -4.4003 H   0  0  0  0  0  0  0  0  0  0  0  0
    4.3052   -1.6303   -1.4242 H   0  0  0  0  0  0  0  0  0  0  0  0
    3.1890   -2.2709   -2.6160 H   0  0  0  0  0  0  0  0  0  0  0  0
  1  2  2  0
  2  3  1  0
  3  4  1  0
  4  5  1  0
  5  6  2  0
  5  7  1  0
  7  8  1  0
  8  9  1  0
  9 10  2  0
 10 11  1  0
 11 12  2  0
 12 13  1  0
 13 14  2  0
  7 15  1  0
 15 16  1  0
 16 17  2  0
 16 18  1  0
 18 19  2  0
 19 20  1  0
 20 21  2  0
 21 22  1  0
  2 23  1  0
 23 24  1  0
 24 25  1  0
 25 26  1  0
 26 27  1  0
 27 28  1  0
 28 29  1  0
 14  9  1  0
 22 18  1  0
 29 24  1  0
  3 30  1  0
  3 31  1  0
  7 32  1  0
  8 33  1  0
  8 34  1  0
 10 35  1  0
 11 36  1  0
 12 37  1  0
 13 38  1  0
 14 39  1  0
 15 40  1  0
 19 41  1  0
 20 42  1  0
 21 43  1  0
 23 44  1  0
 24 45  1  0
 25 46  1  0
 25 47  1  0
 26 48  1  0
 26 49  1  0
 27 50  1  0
 27 51  1  0
 28 52  1  0
 28 53  1  0
 29 54  1  0
 29 55  1  0
M  END
$$$$
