
     RDKit          3D

 35 37  0  0  0  0  0  0  0  0999 V2000
   -4.6592   -1.1827   -2.3479 C   0  0  0  0  0  0  0  0  0  0  0  0
   -4.8907   -0.1271   -1.4228 O   0  0  0  0  0  0  0  0  0  0  0  0
   -3.6823    0.4175   -0.8889 C   0  0  0  0  0  0  0  0  0  0  0  0
   -3.1664   -0.4067    0.2976 C   0  0  0  0  0  0  0  0  0  0  0  0
   -1.9204    0.1391    0.8536 N   0  0  0  0  0  0  0  0  0  0  0  0
   -1.9289    1.0360    1.9384 C   0  0  0  0  0  0  0  0  0  0  0  0
   -3.2791    1.6115    2.7541 S   0  0  0  0  0  0  0  0  0  0  0  0
   -0.7129    1.4940    2.3856 N   0  0  0  0  0  0  0  0  0  0  0  0
    0.4301    1.0957    1.7694 C   0  0  0  0  0  0  0  0  0  0  0  0
    1.9096    1.6532    2.3301 S   0  0  0  0  0  0  0  0  0  0  0  0
    2.7203    0.7589    1.1196 C   0  0  0  0  0  0  0  0  0  0  0  0
    1.8486    0.0605    0.2944 C   0  0  0  0  0  0  0  0  0  0  0  0
    0.4876    0.2582    0.6980 C   0  0  0  0  0  0  0  0  0  0  0  0
   -0.7521   -0.2667    0.1636 C   0  0  0  0  0  0  0  0  0  0  0  0
   -0.7699   -0.9964   -0.8255 O   0  0  0  0  0  0  0  0  0  0  0  0
    2.3423   -0.7986   -0.8331 C   0  0  0  0  0  0  0  0  0  0  0  0
    3.8103   -0.5003   -1.1797 C   0  0  0  0  0  0  0  0  0  0  0  0
    4.6806   -0.3707    0.0786 C   0  0  0  0  0  0  0  0  0  0  0  0
    4.2107    0.7824    0.9788 C   0  0  0  0  0  0  0  0  0  0  0  0
   -5.6272   -1.5243   -2.7246 H   0  0  0  0  0  0  0  0  0  0  0  0
   -4.0644   -0.8268   -3.1945 H   0  0  0  0  0  0  0  0  0  0  0  0
   -4.1605   -2.0269   -1.8647 H   0  0  0  0  0  0  0  0  0  0  0  0
   -2.9271    0.5180   -1.6775 H   0  0  0  0  0  0  0  0  0  0  0  0
   -3.9152    1.4329   -0.5504 H   0  0  0  0  0  0  0  0  0  0  0  0
   -2.9903   -1.4425   -0.0157 H   0  0  0  0  0  0  0  0  0  0  0  0
   -3.9453   -0.4802    1.0631 H   0  0  0  0  0  0  0  0  0  0  0  0
   -0.6709    2.1320    3.1717 H   0  0  0  0  0  0  0  0  0  0  0  0
    2.2456   -1.8504   -0.5370 H   0  0  0  0  0  0  0  0  0  0  0  0
    1.7276   -0.6490   -1.7275 H   0  0  0  0  0  0  0  0  0  0  0  0
    4.2009   -1.2950   -1.8253 H   0  0  0  0  0  0  0  0  0  0  0  0
    3.8686    0.4345   -1.7521 H   0  0  0  0  0  0  0  0  0  0  0  0
    4.6425   -1.3139    0.6388 H   0  0  0  0  0  0  0  0  0  0  0  0
    5.7268   -0.2090   -0.2047 H   0  0  0  0  0  0  0  0  0  0  0  0
    4.5100    1.7380    0.5312 H   0  0  0  0  0  0  0  0  0  0  0  0
    4.7008    0.7048    1.9558 H   0  0  0  0  0  0  0  0  0  0  0  0
  1  2  1  0
  2  3  1  0
  3  4  1  0
  4  5  1  0
  5  6  1  0
  6  7  2  0
  6  8  1  0
  8  9  1  0
  9 10  1  0
 10 11  1  0
 11 12  2  0
 12 13  1  0
 13 14  1  0
 14 15  2  0
 12 16  1  0
 16 17  1  0
 17 18  1  0
 18 19  1  0
 14  5  1  0
 13  9  2  0
 19 11  1  0
  1 20  1  0
  1 21  1  0
  1 22  1  0
  3 23  1  0
  3 24  1  0
  4 25  1  0
  4 26  1  0
  8 27  1  0
 16 28  1  0
 16 29  1  0
 17 30  1  0
 17 31  1  0
 18 32  1  0
 18 33  1  0
 19 34  1  0
 19 35  1  0
M  END
$$$$
