
     RDKit          3D

 37 38  0  0  0  0  0  0  0  0999 V2000
   -5.5214    1.5230    0.2817 C   0  0  0  0  0  0  0  0  0  0  0  0
   -4.4151    0.5784    0.3986 N   0  0  0  0  0  0  0  0  0  0  0  0
   -4.2733   -0.2686   -0.8064 C   0  0  0  0  0  0  0  0  0  0  0  0
   -3.0125   -0.0102   -1.6548 C   0  0  0  0  0  0  0  0  0  0  0  0
   -1.7858   -0.0453   -0.8572 N   0  0  0  0  0  0  0  0  0  0  0  0
   -0.5907   -0.2832   -1.5048 C   0  0  0  0  0  0  0  0  0  0  0  0
   -0.4949   -0.3535   -2.7266 O   0  0  0  0  0  0  0  0  0  0  0  0
    0.6040   -0.4734   -0.6391 C   0  0  0  0  0  0  0  0  0  0  0  0
    1.8275   -0.2632   -1.1459 C   0  0  0  0  0  0  0  0  0  0  0  0
    3.0338   -0.4580   -0.3461 C   0  0  0  0  0  0  0  0  0  0  0  0
    3.7974    0.6508    0.0421 C   0  0  0  0  0  0  0  0  0  0  0  0
    4.9476    0.4780    0.8164 C   0  0  0  0  0  0  0  0  0  0  0  0
    5.3371   -0.8145    1.1954 C   0  0  0  0  0  0  0  0  0  0  0  0
    6.5470   -1.0031    2.0063 N   0  0  0  0  0  4  0  0  0  0  0  0
    7.1663    0.0091    2.3593 O   0  0  0  0  0  0  0  0  0  0  0  0
    6.8759   -2.1626    2.2929 O   0  0  0  0  0  1  0  0  0  0  0  0
    4.5809   -1.9289    0.8094 C   0  0  0  0  0  0  0  0  0  0  0  0
    3.4312   -1.7463    0.0380 C   0  0  0  0  0  0  0  0  0  0  0  0
   -1.9174    0.3857    0.5396 C   0  0  0  0  0  0  0  0  0  0  0  0
   -3.1624    1.2664    0.7548 C   0  0  0  0  0  0  0  0  0  0  0  0
   -5.3918    2.2082   -0.5630 H   0  0  0  0  0  0  0  0  0  0  0  0
   -6.4669    0.9875    0.1515 H   0  0  0  0  0  0  0  0  0  0  0  0
   -5.6229    2.1166    1.1955 H   0  0  0  0  0  0  0  0  0  0  0  0
   -5.1598   -0.2113   -1.4508 H   0  0  0  0  0  0  0  0  0  0  0  0
   -4.2326   -1.3054   -0.4500 H   0  0  0  0  0  0  0  0  0  0  0  0
   -3.0654    0.9793   -2.1279 H   0  0  0  0  0  0  0  0  0  0  0  0
   -2.9472   -0.7560   -2.4577 H   0  0  0  0  0  0  0  0  0  0  0  0
    0.4533   -0.8027    0.3783 H   0  0  0  0  0  0  0  0  0  0  0  0
    1.9671    0.0744   -2.1719 H   0  0  0  0  0  0  0  0  0  0  0  0
    3.5041    1.6539   -0.2572 H   0  0  0  0  0  0  0  0  0  0  0  0
    5.5243    1.3531    1.1122 H   0  0  0  0  0  0  0  0  0  0  0  0
    4.8639   -2.9378    1.1023 H   0  0  0  0  0  0  0  0  0  0  0  0
    2.8518   -2.6163   -0.2725 H   0  0  0  0  0  0  0  0  0  0  0  0
   -1.0258    0.9457    0.8416 H   0  0  0  0  0  0  0  0  0  0  0  0
   -1.9750   -0.5198    1.1549 H   0  0  0  0  0  0  0  0  0  0  0  0
   -3.2054    1.5693    1.8059 H   0  0  0  0  0  0  0  0  0  0  0  0
   -3.0469    2.1805    0.1550 H   0  0  0  0  0  0  0  0  0  0  0  0
  1  2  1  0
  2  3  1  0
  3  4  1  0
  4  5  1  0
  5  6  1  0
  6  7  2  0
  6  8  1  0
  8  9  2  3
  9 10  1  0
 10 11  2  0
 11 12  1  0
 12 13  2  0
 13 14  1  0
 14 15  2  0
 14 16  1  0
 13 17  1  0
 17 18  2  0
  5 19  1  0
 19 20  1  0
 20  2  1  0
 18 10  1  0
  1 21  1  0
  1 22  1  0
  1 23  1  0
  3 24  1  0
  3 25  1  0
  4 26  1  0
  4 27  1  0
  8 28  1  0
  9 29  1  0
 11 30  1  0
 12 31  1  0
 17 32  1  0
 18 33  1  0
 19 34  1  0
 19 35  1  0
 20 36  1  0
 20 37  1  0
M  CHG  2  14   1  16  -1
M  END
$$$$
