
     RDKit          3D

 38 39  0  0  0  0  0  0  0  0999 V2000
   -0.7516    1.9775   -1.8453 C   0  0  0  0  0  0  0  0  0  0  0  0
   -1.4294    0.7808   -1.3655 N   0  0  0  0  0  0  0  0  0  0  0  0
   -2.0428    1.0042   -0.0565 C   0  0  0  0  0  0  0  0  0  0  0  0
   -2.7353   -0.2460    0.4364 C   0  0  0  0  0  0  0  0  0  0  0  0
   -4.1346   -0.3460    0.3736 C   0  0  0  0  0  0  0  0  0  0  0  0
   -4.7899   -1.4914    0.8389 C   0  0  0  0  0  0  0  0  0  0  0  0
   -4.0571   -2.5503    1.3769 C   0  0  0  0  0  0  0  0  0  0  0  0
   -2.6674   -2.4739    1.4318 C   0  0  0  0  0  0  0  0  0  0  0  0
   -2.0138   -1.3379    0.9440 C   0  0  0  0  0  0  0  0  0  0  0  0
   -0.6453   -1.2764    0.9992 O   0  0  0  0  0  0  0  0  0  0  0  0
   -0.0746   -2.0944   -0.0325 C   0  0  0  0  0  0  0  0  0  0  0  0
    1.3487   -1.6453   -0.3798 C   0  0  0  0  0  0  0  0  0  0  0  0
    2.1083   -2.3868   -1.0004 O   0  0  0  0  0  0  0  0  0  0  0  0
    1.6178   -0.3577    0.0455 N   0  0  0  0  0  0  0  0  0  0  0  0
    2.7904    0.3974   -0.1284 C   0  0  0  0  0  0  0  0  0  0  0  0
    3.9238   -0.0693   -0.7957 C   0  0  0  0  0  0  0  0  0  0  0  0
    5.0557    0.7423   -0.9228 C   0  0  0  0  0  0  0  0  0  0  0  0
    5.0606    2.0293   -0.3887 C   0  0  0  0  0  0  0  0  0  0  0  0
    3.9339    2.5050    0.2757 C   0  0  0  0  0  0  0  0  0  0  0  0
    2.8047    1.6919    0.4057 C   0  0  0  0  0  0  0  0  0  0  0  0
   -0.3044    1.7702   -2.8233 H   0  0  0  0  0  0  0  0  0  0  0  0
    0.0552    2.2696   -1.1686 H   0  0  0  0  0  0  0  0  0  0  0  0
   -1.4481    2.8158   -1.9615 H   0  0  0  0  0  0  0  0  0  0  0  0
   -2.1595    0.5200   -2.0290 H   0  0  0  0  0  0  0  0  0  0  0  0
   -1.2880    1.2995    0.6840 H   0  0  0  0  0  0  0  0  0  0  0  0
   -2.7658    1.8288   -0.1124 H   0  0  0  0  0  0  0  0  0  0  0  0
   -4.7265    0.4697   -0.0368 H   0  0  0  0  0  0  0  0  0  0  0  0
   -5.8738   -1.5542    0.7890 H   0  0  0  0  0  0  0  0  0  0  0  0
   -4.5692   -3.4303    1.7560 H   0  0  0  0  0  0  0  0  0  0  0  0
   -2.0975   -3.2971    1.8566 H   0  0  0  0  0  0  0  0  0  0  0  0
   -0.6570   -2.0439   -0.9622 H   0  0  0  0  0  0  0  0  0  0  0  0
   -0.0225   -3.1314    0.3191 H   0  0  0  0  0  0  0  0  0  0  0  0
    0.8393    0.0927    0.5177 H   0  0  0  0  0  0  0  0  0  0  0  0
    3.9598   -1.0646   -1.2284 H   0  0  0  0  0  0  0  0  0  0  0  0
    5.9353    0.3601   -1.4348 H   0  0  0  0  0  0  0  0  0  0  0  0
    5.9446    2.6555   -0.4849 H   0  0  0  0  0  0  0  0  0  0  0  0
    3.9369    3.5049    0.7009 H   0  0  0  0  0  0  0  0  0  0  0  0
    1.9390    2.0814    0.9354 H   0  0  0  0  0  0  0  0  0  0  0  0
  1  2  1  0
  2  3  1  0
  3  4  1  0
  4  5  2  0
  5  6  1  0
  6  7  2  0
  7  8  1  0
  8  9  2  0
  9 10  1  0
 10 11  1  0
 11 12  1  0
 12 13  2  0
 12 14  1  0
 14 15  1  0
 15 16  2  0
 16 17  1  0
 17 18  2  0
 18 19  1  0
 19 20  2  0
  9  4  1  0
 20 15  1  0
  1 21  1  0
  1 22  1  0
  1 23  1  0
  2 24  1  0
  3 25  1  0
  3 26  1  0
  5 27  1  0
  6 28  1  0
  7 29  1  0
  8 30  1  0
 11 31  1  0
 11 32  1  0
 14 33  1  0
 16 34  1  0
 17 35  1  0
 18 36  1  0
 19 37  1  0
 20 38  1  0
M  END
$$$$
