
     RDKit          3D

 57 61  0  0  0  0  0  0  0  0999 V2000
   -5.6408    4.1688   -0.0520 C   0  0  0  0  0  0  0  0  0  0  0  0
   -5.8202    3.4998    1.1546 C   0  0  0  0  0  0  0  0  0  0  0  0
   -5.1451    2.3010    1.3969 C   0  0  0  0  0  0  0  0  0  0  0  0
   -4.2687    1.7497    0.4414 C   0  0  0  0  0  0  0  0  0  0  0  0
   -3.5855    0.4249    0.7666 C   0  0  0  0  0  0  0  0  0  0  0  0
   -4.1738   -0.8566    0.1924 C   0  0  0  0  0  0  0  0  0  0  0  0
   -3.8587   -2.0857    0.8082 C   0  0  0  0  0  0  0  0  0  0  0  0
   -4.3755   -3.2896    0.3249 C   0  0  0  0  0  0  0  0  0  0  0  0
   -5.2180   -3.2898   -0.7825 C   0  0  0  0  0  0  0  0  0  0  0  0
   -5.5420   -2.0876   -1.4065 C   0  0  0  0  0  0  0  0  0  0  0  0
   -5.0256   -0.8815   -0.9240 C   0  0  0  0  0  0  0  0  0  0  0  0
   -2.1385    0.5013    0.3654 C   0  0  0  0  0  0  0  0  0  0  0  0
   -1.6735    0.3191   -0.8842 N   0  0  0  0  0  0  0  0  0  0  0  0
   -0.2949    0.4566   -0.7453 O   0  0  0  0  0  0  0  0  0  0  0  0
   -0.0562    0.6926    0.5771 C   0  0  0  0  0  0  0  0  0  0  0  0
    1.3732    0.8719    0.9717 C   0  0  0  0  0  0  0  0  0  0  0  0
    1.9833   -0.3282    1.5850 N   0  0  0  0  0  0  0  0  0  0  0  0
    2.0873   -1.4743    0.6698 C   0  0  0  0  0  0  0  0  0  0  0  0
    3.1551   -1.3095   -0.4141 C   0  0  0  0  0  0  0  0  0  0  0  0
    4.5220   -0.9897    0.2101 C   0  0  0  0  0  0  0  0  0  0  0  0
    5.5925   -0.7669   -0.8406 C   0  0  0  0  0  0  0  0  0  0  0  0
    6.7097   -1.6074   -0.8928 C   0  0  0  0  0  0  0  0  0  0  0  0
    7.6751   -1.3816   -1.8630 C   0  0  0  0  0  0  0  0  0  0  0  0
    7.6080   -0.3892   -2.7741 N   0  0  0  0  0  0  0  0  0  0  0  0
    6.5246    0.4121   -2.7119 C   0  0  0  0  0  0  0  0  0  0  0  0
    5.5078    0.2669   -1.7795 C   0  0  0  0  0  0  0  0  0  0  0  0
    4.4098    0.1980    1.1780 C   0  0  0  0  0  0  0  0  0  0  0  0
    3.2863   -0.0268    2.1936 C   0  0  0  0  0  0  0  0  0  0  0  0
   -1.1517    0.7388    1.3025 N   0  0  0  0  0  0  0  0  0  0  0  0
   -4.1151    2.4379   -0.7761 C   0  0  0  0  0  0  0  0  0  0  0  0
   -4.7911    3.6371   -1.0178 C   0  0  0  0  0  0  0  0  0  0  0  0
   -6.1664    5.1006   -0.2421 H   0  0  0  0  0  0  0  0  0  0  0  0
   -6.4885    3.9081    1.9084 H   0  0  0  0  0  0  0  0  0  0  0  0
   -5.3111    1.7948    2.3464 H   0  0  0  0  0  0  0  0  0  0  0  0
   -3.6049    0.3174    1.8617 H   0  0  0  0  0  0  0  0  0  0  0  0
   -3.1969   -2.1108    1.6731 H   0  0  0  0  0  0  0  0  0  0  0  0
   -4.1171   -4.2260    0.8125 H   0  0  0  0  0  0  0  0  0  0  0  0
   -5.6199   -4.2254   -1.1618 H   0  0  0  0  0  0  0  0  0  0  0  0
   -6.1981   -2.0855   -2.2735 H   0  0  0  0  0  0  0  0  0  0  0  0
   -5.3030    0.0344   -1.4398 H   0  0  0  0  0  0  0  0  0  0  0  0
    1.9492    1.2231    0.1077 H   0  0  0  0  0  0  0  0  0  0  0  0
    1.3882    1.6896    1.7043 H   0  0  0  0  0  0  0  0  0  0  0  0
    1.1203   -1.6989    0.2059 H   0  0  0  0  0  0  0  0  0  0  0  0
    2.3254   -2.3655    1.2659 H   0  0  0  0  0  0  0  0  0  0  0  0
    2.8481   -0.5261   -1.1175 H   0  0  0  0  0  0  0  0  0  0  0  0
    3.2223   -2.2356   -0.9989 H   0  0  0  0  0  0  0  0  0  0  0  0
    4.8124   -1.8652    0.8092 H   0  0  0  0  0  0  0  0  0  0  0  0
    6.8359   -2.4281   -0.1944 H   0  0  0  0  0  0  0  0  0  0  0  0
    8.5550   -2.0145   -1.9329 H   0  0  0  0  0  0  0  0  0  0  0  0
    6.4915    1.2028   -3.4560 H   0  0  0  0  0  0  0  0  0  0  0  0
    4.6687    0.9539   -1.7957 H   0  0  0  0  0  0  0  0  0  0  0  0
    4.2319    1.1336    0.6338 H   0  0  0  0  0  0  0  0  0  0  0  0
    5.3585    0.3318    1.7131 H   0  0  0  0  0  0  0  0  0  0  0  0
    3.2059    0.8442    2.8555 H   0  0  0  0  0  0  0  0  0  0  0  0
    3.5627   -0.8629    2.8498 H   0  0  0  0  0  0  0  0  0  0  0  0
   -3.4746    2.0457   -1.5638 H   0  0  0  0  0  0  0  0  0  0  0  0
   -4.6553    4.1524   -1.9652 H   0  0  0  0  0  0  0  0  0  0  0  0
  1  2  2  0
  2  3  1  0
  3  4  2  0
  4  5  1  0
  5  6  1  0
  6  7  2  0
  7  8  1  0
  8  9  2  0
  9 10  1  0
 10 11  2  0
  5 12  1  0
 12 13  2  0
 13 14  1  0
 14 15  1  0
 15 16  1  0
 16 17  1  0
 17 18  1  0
 18 19  1  0
 19 20  1  0
 20 21  1  0
 21 22  2  0
 22 23  1  0
 23 24  2  0
 24 25  1  0
 25 26  2  0
 20 27  1  0
 27 28  1  0
 15 29  2  0
  4 30  1  0
 30 31  2  0
 31  1  1  0
 11  6  1  0
 29 12  1  0
 28 17  1  0
 26 21  1  0
  1 32  1  0
  2 33  1  0
  3 34  1  0
  5 35  1  0
  7 36  1  0
  8 37  1  0
  9 38  1  0
 10 39  1  0
 11 40  1  0
 16 41  1  0
 16 42  1  0
 18 43  1  0
 18 44  1  0
 19 45  1  0
 19 46  1  0
 20 47  1  0
 22 48  1  0
 23 49  1  0
 25 50  1  0
 26 51  1  0
 27 52  1  0
 27 53  1  0
 28 54  1  0
 28 55  1  0
 30 56  1  0
 31 57  1  0
M  END
$$$$
