
     RDKit          3D

 40 42  0  0  0  0  0  0  0  0999 V2000
    0.6599   -4.3664    0.0768 C   0  0  0  0  0  0  0  0  0  0  0  0
    0.0319   -3.0840    0.0763 O   0  0  0  0  0  0  0  0  0  0  0  0
    0.8977   -2.0353    0.1685 C   0  0  0  0  0  0  0  0  0  0  0  0
    2.1164   -2.1626    0.2454 O   0  0  0  0  0  0  0  0  0  0  0  0
    0.2348   -0.7261    0.1484 C   0  0  0  0  0  0  0  0  0  0  0  0
    0.9619    0.4610    0.1121 C   0  0  0  0  0  0  0  0  0  0  0  0
    2.3436    0.5759    0.1160 N   0  0  0  0  0  0  0  0  0  0  0  0
    3.1122    1.7260    0.0815 C   0  0  0  0  0  0  0  0  0  0  0  0
    2.6969    2.8790    0.0391 O   0  0  0  0  0  0  0  0  0  0  0  0
    4.5367    1.4353    0.1017 C   0  0  0  0  0  0  0  0  0  0  0  0
    5.6367    2.2727    0.0820 C   0  0  0  0  0  0  0  0  0  0  0  0
    6.7830    1.4434    0.1181 C   0  0  0  0  0  0  0  0  0  0  0  0
    6.3182    0.1505    0.1578 C   0  0  0  0  0  0  0  0  0  0  0  0
    4.9606    0.1311    0.1485 O   0  0  0  0  0  0  0  0  0  0  0  0
   -0.0310    1.8354    0.0466 S   0  0  0  0  0  0  0  0  0  0  0  0
   -1.4483    0.9076    0.0715 C   0  0  0  0  0  0  0  0  0  0  0  0
   -1.1876   -0.4471    0.1586 C   0  0  0  0  0  0  0  0  0  0  0  0
   -2.3306   -1.4200    0.2155 C   0  0  0  0  0  0  0  0  0  0  0  0
   -3.6332   -0.7217    0.6370 C   0  0  0  0  0  0  0  0  0  0  0  0
   -3.8535    0.5394   -0.0847 N   0  0  0  0  0  0  0  0  0  0  0  0
   -5.1532    0.8543   -0.4627 C   0  0  0  0  0  0  0  0  0  0  0  0
   -5.3848    2.2173   -1.0666 C   0  0  0  0  0  0  0  0  0  0  0  0
   -6.0933    0.0694   -0.3362 O   0  0  0  0  0  0  0  0  0  0  0  0
   -2.7972    1.5565    0.0204 C   0  0  0  0  0  0  0  0  0  0  0  0
    1.3272   -4.4672   -0.7848 H   0  0  0  0  0  0  0  0  0  0  0  0
    1.2051   -4.5262    1.0123 H   0  0  0  0  0  0  0  0  0  0  0  0
   -0.1227   -5.1262   -0.0013 H   0  0  0  0  0  0  0  0  0  0  0  0
    2.8655   -0.3014    0.1570 H   0  0  0  0  0  0  0  0  0  0  0  0
    5.5992    3.3534    0.0457 H   0  0  0  0  0  0  0  0  0  0  0  0
    7.8197    1.7498    0.1156 H   0  0  0  0  0  0  0  0  0  0  0  0
    6.7991   -0.8174    0.1937 H   0  0  0  0  0  0  0  0  0  0  0  0
   -2.4586   -1.8638   -0.7794 H   0  0  0  0  0  0  0  0  0  0  0  0
   -2.1270   -2.2262    0.9273 H   0  0  0  0  0  0  0  0  0  0  0  0
   -4.4702   -1.4124    0.4904 H   0  0  0  0  0  0  0  0  0  0  0  0
   -3.6050   -0.4732    1.7058 H   0  0  0  0  0  0  0  0  0  0  0  0
   -5.1085    3.0018   -0.3576 H   0  0  0  0  0  0  0  0  0  0  0  0
   -6.4475    2.3324   -1.3016 H   0  0  0  0  0  0  0  0  0  0  0  0
   -4.8178    2.3184   -1.9956 H   0  0  0  0  0  0  0  0  0  0  0  0
   -2.8538    2.2395   -0.8323 H   0  0  0  0  0  0  0  0  0  0  0  0
   -2.9826    2.1269    0.9381 H   0  0  0  0  0  0  0  0  0  0  0  0
  1  2  1  0
  2  3  1  0
  3  4  2  0
  3  5  1  0
  5  6  2  0
  6  7  1  0
  7  8  1  0
  8  9  2  0
  8 10  1  0
 10 11  2  0
 11 12  1  0
 12 13  2  0
 13 14  1  0
  6 15  1  0
 15 16  1  0
 16 17  2  0
 17 18  1  0
 18 19  1  0
 19 20  1  0
 20 21  1  0
 21 22  1  0
 21 23  2  0
 20 24  1  0
 17  5  1  0
 14 10  1  0
 24 16  1  0
  1 25  1  0
  1 26  1  0
  1 27  1  0
  7 28  1  0
 11 29  1  0
 12 30  1  0
 13 31  1  0
 18 32  1  0
 18 33  1  0
 19 34  1  0
 19 35  1  0
 22 36  1  0
 22 37  1  0
 22 38  1  0
 24 39  1  0
 24 40  1  0
M  END
$$$$
