
     RDKit          3D

 49 51  0  0  0  0  0  0  0  0999 V2000
   -2.0752   -3.6270    2.9180 C   0  0  0  0  0  0  0  0  0  0  0  0
   -2.0945   -2.4406    1.9870 C   0  0  0  0  0  0  0  0  0  0  0  0
   -3.2836   -2.2931    1.1017 C   0  0  0  0  0  0  0  0  0  0  0  0
   -3.2702   -1.2115    0.3100 C   0  0  0  0  0  0  0  0  0  0  0  0
   -4.3609   -0.9254   -0.6779 C   0  0  0  0  0  0  0  0  0  0  0  0
   -2.2112   -0.3311    0.3756 N   0  0  0  0  0  0  0  0  0  0  0  0
   -1.0997   -0.5668    1.1491 C   0  0  0  0  0  0  0  0  0  0  0  0
   -0.0087    0.1309    1.1815 N   0  0  0  0  0  0  0  0  0  0  0  0
    0.0553    1.2658    0.4349 C   0  0  0  0  0  0  0  0  0  0  0  0
    0.5783    1.2636   -0.7427 N   0  0  0  0  0  0  0  0  0  0  0  0
    1.1582   -0.0487   -1.4874 S   0  0  0  0  0  6  0  0  0  0  0  0
    1.7696    0.4264   -2.7181 O   0  0  0  0  0  0  0  0  0  0  0  0
    0.1041   -1.0447   -1.5673 O   0  0  0  0  0  0  0  0  0  0  0  0
    2.4757   -0.6140   -0.4024 C   0  0  0  0  0  0  0  0  0  0  0  0
    3.1827   -1.7838   -1.0417 C   0  0  0  0  0  0  0  0  0  0  0  0
    2.7210   -3.0913   -0.8296 C   0  0  0  0  0  0  0  0  0  0  0  0
    3.3705   -4.1756   -1.4208 C   0  0  0  0  0  0  0  0  0  0  0  0
    4.4855   -3.9650   -2.2294 C   0  0  0  0  0  0  0  0  0  0  0  0
    4.9499   -2.6700   -2.4512 C   0  0  0  0  0  0  0  0  0  0  0  0
    4.3021   -1.5834   -1.8618 C   0  0  0  0  0  0  0  0  0  0  0  0
   -0.4304    2.3854    1.0557 N   0  0  0  0  0  0  0  0  0  0  0  0
   -0.5296    3.7262    0.6400 C   0  0  0  0  0  0  0  0  0  0  0  0
   -0.1823    4.1670   -0.6435 C   0  0  0  0  0  0  0  0  0  0  0  0
   -0.3114    5.5119   -1.0131 C   0  0  0  0  0  0  0  0  0  0  0  0
   -0.7973    6.4481   -0.1065 C   0  0  0  0  0  0  0  0  0  0  0  0
   -1.1582    6.0413    1.1736 C   0  0  0  0  0  0  0  0  0  0  0  0
   -1.0272    4.6968    1.5383 C   0  0  0  0  0  0  0  0  0  0  0  0
   -1.5489    4.2135    3.3062 Br  0  0  0  0  0  0  0  0  0  0  0  0
   -1.0746   -1.6392    2.0078 N   0  0  0  0  0  0  0  0  0  0  0  0
   -1.8501   -3.2883    3.9338 H   0  0  0  0  0  0  0  0  0  0  0  0
   -3.0370   -4.1466    2.9265 H   0  0  0  0  0  0  0  0  0  0  0  0
   -1.2965   -4.3239    2.5942 H   0  0  0  0  0  0  0  0  0  0  0  0
   -4.0661   -3.0380    1.1080 H   0  0  0  0  0  0  0  0  0  0  0  0
   -4.8291    0.0397   -0.4576 H   0  0  0  0  0  0  0  0  0  0  0  0
   -5.1442   -1.6908   -0.6576 H   0  0  0  0  0  0  0  0  0  0  0  0
   -3.9539   -0.8893   -1.6943 H   0  0  0  0  0  0  0  0  0  0  0  0
   -2.1136    0.3097   -0.4034 H   0  0  0  0  0  0  0  0  0  0  0  0
    3.1647    0.2224   -0.2465 H   0  0  0  0  0  0  0  0  0  0  0  0
    2.0705   -0.9176    0.5631 H   0  0  0  0  0  0  0  0  0  0  0  0
    1.8449   -3.2722   -0.2084 H   0  0  0  0  0  0  0  0  0  0  0  0
    3.0025   -5.1843   -1.2545 H   0  0  0  0  0  0  0  0  0  0  0  0
    4.9880   -4.8095   -2.6934 H   0  0  0  0  0  0  0  0  0  0  0  0
    5.8131   -2.5045   -3.0907 H   0  0  0  0  0  0  0  0  0  0  0  0
    4.6704   -0.5783   -2.0585 H   0  0  0  0  0  0  0  0  0  0  0  0
   -0.6878    2.2347    2.0254 H   0  0  0  0  0  0  0  0  0  0  0  0
    0.1988    3.4831   -1.3962 H   0  0  0  0  0  0  0  0  0  0  0  0
   -0.0288    5.8222   -2.0169 H   0  0  0  0  0  0  0  0  0  0  0  0
   -0.8950    7.4908   -0.3979 H   0  0  0  0  0  0  0  0  0  0  0  0
   -1.5398    6.7747    1.8793 H   0  0  0  0  0  0  0  0  0  0  0  0
  1  2  1  0
  2  3  1  0
  3  4  2  0
  4  5  1  0
  4  6  1  0
  6  7  1  0
  7  8  2  3
  8  9  1  0
  9 10  2  3
 10 11  1  0
 11 12  2  0
 11 13  2  0
 11 14  1  0
 14 15  1  0
 15 16  2  0
 16 17  1  0
 17 18  2  0
 18 19  1  0
 19 20  2  0
  9 21  1  0
 21 22  1  0
 22 23  2  0
 23 24  1  0
 24 25  2  0
 25 26  1  0
 26 27  2  0
 27 28  1  0
  7 29  1  0
 29  2  2  0
 20 15  1  0
 27 22  1  0
  1 30  1  0
  1 31  1  0
  1 32  1  0
  3 33  1  0
  5 34  1  0
  5 35  1  0
  5 36  1  0
  6 37  1  0
 14 38  1  0
 14 39  1  0
 16 40  1  0
 17 41  1  0
 18 42  1  0
 19 43  1  0
 20 44  1  0
 21 45  1  0
 23 46  1  0
 24 47  1  0
 25 48  1  0
 26 49  1  0
M  END
$$$$
