
     RDKit          3D

 62 65  0  0  0  0  0  0  0  0999 V2000
   -2.1828    2.1054    2.2046 O   0  0  0  0  0  0  0  0  0  0  0  0
   -1.7028    1.1041    1.6779 C   0  0  0  0  0  0  0  0  0  0  0  0
   -2.4709    0.1009    1.1352 N   0  0  0  0  0  0  0  0  0  0  0  0
   -3.9227    0.1549    1.1649 C   0  0  0  0  0  0  0  0  0  0  0  0
   -4.4918    0.8968   -0.0513 C   0  0  0  0  0  0  0  0  0  0  0  0
   -6.0046    0.9719   -0.1682 C   0  0  0  0  0  0  0  0  0  0  0  0
   -6.8659    0.7321    0.8397 C   0  0  0  0  0  0  0  0  0  0  0  0
   -8.3610    0.7903    0.6971 C   0  0  0  0  0  0  0  0  0  0  0  0
   -8.8287    0.7929   -0.7561 C   0  0  0  0  0  0  0  0  0  0  0  0
   -7.9833    1.7380   -1.5982 C   0  0  0  0  0  0  0  0  0  0  0  0
   -6.5021    1.3574   -1.5457 C   0  0  0  0  0  0  0  0  0  0  0  0
   -0.1938    0.9231    1.5587 C   0  0  0  0  0  0  0  0  0  0  0  0
    0.2737    1.2051    0.1276 C   0  0  0  0  0  0  0  0  0  0  0  0
    1.7370    0.8092   -0.0417 C   0  0  0  0  0  0  0  0  0  0  0  0
    1.9737   -0.6962    0.1958 C   0  0  0  0  0  0  0  0  0  0  0  0
    3.3349   -0.9607    0.8626 C   0  0  0  0  0  0  0  0  0  0  0  0
    4.4243   -0.4802    0.0184 N   0  0  0  0  0  0  0  0  0  0  0  0
    5.3877   -1.2888   -0.5703 C   0  0  0  0  0  0  0  0  0  0  0  0
    5.0088   -2.5322   -1.0045 N   0  0  0  0  0  0  0  0  0  0  0  0
    5.8256   -3.4616   -1.5898 C   0  0  0  0  0  0  0  0  0  0  0  0
    5.1348   -4.9105   -2.0675 S   0  0  0  0  0  0  0  0  0  0  0  0
    7.1501   -3.1643   -1.7417 N   0  0  0  0  0  0  0  0  0  0  0  0
    7.5440   -1.9896   -1.3685 C   0  0  0  0  0  0  0  0  0  0  0  0
    8.9881   -1.6478   -1.5160 C   0  0  0  0  0  0  0  0  0  0  0  0
    9.4528   -0.4462   -1.1466 C   0  0  0  0  0  0  0  0  0  0  0  0
    8.5869    0.5763   -0.6130 C   0  0  0  0  0  0  0  0  0  0  0  0
    7.2747    0.3590   -0.4356 C   0  0  0  0  0  0  0  0  0  0  0  0
    6.6730   -0.9215   -0.7691 C   0  0  0  0  0  0  0  0  0  0  0  0
    0.8329   -1.3472    0.9993 C   0  0  0  0  0  0  0  0  0  0  0  0
    0.2939   -0.4342    2.0987 C   0  0  0  0  0  0  0  0  0  0  0  0
   -2.0312   -0.6496    0.6203 H   0  0  0  0  0  0  0  0  0  0  0  0
   -4.2330    0.6395    2.0982 H   0  0  0  0  0  0  0  0  0  0  0  0
   -4.2766   -0.8817    1.1821 H   0  0  0  0  0  0  0  0  0  0  0  0
   -4.1024    0.3971   -0.9505 H   0  0  0  0  0  0  0  0  0  0  0  0
   -4.0961    1.9201   -0.0739 H   0  0  0  0  0  0  0  0  0  0  0  0
   -6.5097    0.4915    1.8389 H   0  0  0  0  0  0  0  0  0  0  0  0
   -8.8065   -0.0689    1.2109 H   0  0  0  0  0  0  0  0  0  0  0  0
   -8.7214    1.6932    1.2037 H   0  0  0  0  0  0  0  0  0  0  0  0
   -9.8841    1.0841   -0.8039 H   0  0  0  0  0  0  0  0  0  0  0  0
   -8.7589   -0.2218   -1.1665 H   0  0  0  0  0  0  0  0  0  0  0  0
   -8.1125    2.7647   -1.2359 H   0  0  0  0  0  0  0  0  0  0  0  0
   -8.3293    1.7221   -2.6360 H   0  0  0  0  0  0  0  0  0  0  0  0
   -5.9156    2.2003   -1.9280 H   0  0  0  0  0  0  0  0  0  0  0  0
   -6.3233    0.5094   -2.2179 H   0  0  0  0  0  0  0  0  0  0  0  0
    0.2408    1.6894    2.2140 H   0  0  0  0  0  0  0  0  0  0  0  0
   -0.3438    0.6719   -0.6057 H   0  0  0  0  0  0  0  0  0  0  0  0
    0.1521    2.2727   -0.0941 H   0  0  0  0  0  0  0  0  0  0  0  0
    2.0741    1.0719   -1.0526 H   0  0  0  0  0  0  0  0  0  0  0  0
    2.3417    1.4114    0.6478 H   0  0  0  0  0  0  0  0  0  0  0  0
    1.9881   -1.1890   -0.7865 H   0  0  0  0  0  0  0  0  0  0  0  0
    3.3962   -0.4629    1.8359 H   0  0  0  0  0  0  0  0  0  0  0  0
    3.4427   -2.0323    1.0631 H   0  0  0  0  0  0  0  0  0  0  0  0
    4.7867    0.4110    0.3418 H   0  0  0  0  0  0  0  0  0  0  0  0
    4.0346   -2.7861   -0.9387 H   0  0  0  0  0  0  0  0  0  0  0  0
    9.6343   -2.4169   -1.9226 H   0  0  0  0  0  0  0  0  0  0  0  0
   10.5102   -0.2131   -1.2535 H   0  0  0  0  0  0  0  0  0  0  0  0
    9.0271    1.5382   -0.3661 H   0  0  0  0  0  0  0  0  0  0  0  0
    6.6572    1.1579   -0.0441 H   0  0  0  0  0  0  0  0  0  0  0  0
    0.0142   -1.5945    0.3115 H   0  0  0  0  0  0  0  0  0  0  0  0
    1.1566   -2.3015    1.4306 H   0  0  0  0  0  0  0  0  0  0  0  0
   -0.4963   -0.9531    2.6544 H   0  0  0  0  0  0  0  0  0  0  0  0
    1.0977   -0.2503    2.8266 H   0  0  0  0  0  0  0  0  0  0  0  0
  1  2  2  0
  2  3  1  0
  3  4  1  0
  4  5  1  0
  5  6  1  0
  6  7  2  0
  7  8  1  0
  8  9  1  0
  9 10  1  0
 10 11  1  0
  2 12  1  0
 12 13  1  0
 13 14  1  0
 14 15  1  0
 15 16  1  0
 16 17  1  0
 17 18  1  0
 18 19  1  0
 19 20  1  0
 20 21  2  0
 20 22  1  0
 22 23  2  0
 23 24  1  0
 24 25  2  0
 25 26  1  0
 26 27  2  0
 27 28  1  0
 15 29  1  0
 29 30  1  0
 11  6  1  0
 30 12  1  0
 28 18  2  0
 28 23  1  0
  3 31  1  0
  4 32  1  0
  4 33  1  0
  5 34  1  0
  5 35  1  0
  7 36  1  0
  8 37  1  0
  8 38  1  0
  9 39  1  0
  9 40  1  0
 10 41  1  0
 10 42  1  0
 11 43  1  0
 11 44  1  0
 12 45  1  0
 13 46  1  0
 13 47  1  0
 14 48  1  0
 14 49  1  0
 15 50  1  0
 16 51  1  0
 16 52  1  0
 17 53  1  0
 19 54  1  0
 24 55  1  0
 25 56  1  0
 26 57  1  0
 27 58  1  0
 29 59  1  0
 29 60  1  0
 30 61  1  0
 30 62  1  0
M  END
$$$$
