
     RDKit          3D

 57 59  0  0  0  0  0  0  0  0999 V2000
   -1.8436   -5.0200   -0.6373 C   0  0  0  0  0  0  0  0  0  0  0  0
   -0.9631   -3.7868   -0.5484 C   0  0  0  0  0  0  0  0  0  0  0  0
   -1.7838   -2.5095   -0.3868 C   0  0  0  0  0  0  0  0  0  0  0  0
   -0.8724   -1.4140   -0.3167 O   0  0  0  0  0  0  0  0  0  0  0  0
   -1.3853   -0.1780   -0.0128 C   0  0  0  0  0  0  0  0  0  0  0  0
   -2.7550    0.1288    0.0500 C   0  0  0  0  0  0  0  0  0  0  0  0
   -3.2342    1.4170    0.3588 C   0  0  0  0  0  0  0  0  0  0  0  0
   -4.5942    1.7111    0.4149 N   0  0  0  0  0  0  0  0  0  0  0  0
   -5.6223    0.6676    0.5156 C   0  0  0  0  0  0  0  0  0  0  0  0
   -5.6209    0.0108    1.8878 C   0  0  0  0  0  0  0  0  0  0  0  0
   -5.0772    3.0920    0.2682 C   0  0  0  0  0  0  0  0  0  0  0  0
   -5.3886    3.7145    1.6209 C   0  0  0  0  0  0  0  0  0  0  0  0
   -2.2571    2.3908    0.6128 C   0  0  0  0  0  0  0  0  0  0  0  0
   -0.8872    2.1117    0.5499 C   0  0  0  0  0  0  0  0  0  0  0  0
   -0.4450    0.8297    0.2313 C   0  0  0  0  0  0  0  0  0  0  0  0
    1.0018    0.5809    0.1524 C   0  0  0  0  0  0  0  0  0  0  0  0
    1.7280    0.6461   -0.9813 C   0  0  0  0  0  0  0  0  0  0  0  0
    1.1262    0.9819   -2.2341 C   0  0  0  0  0  0  0  0  0  0  0  0
    0.7293    1.2569   -3.2915 N   0  0  0  0  0  0  0  0  0  0  0  0
    3.1309    0.3820   -0.8884 C   0  0  0  0  0  0  0  0  0  0  0  0
    3.8787    0.0879    0.1632 N   0  0  0  0  0  0  0  0  0  0  0  0
    5.1613   -0.0559   -0.3057 C   0  0  0  0  0  0  0  0  0  0  0  0
    6.3408   -0.3649    0.3867 C   0  0  0  0  0  0  0  0  0  0  0  0
    7.5491   -0.4551   -0.3279 C   0  0  0  0  0  0  0  0  0  0  0  0
    8.8289   -0.7479    0.4040 C   0  0  0  0  0  0  0  0  0  0  0  0
    7.5639   -0.2115   -1.7093 C   0  0  0  0  0  0  0  0  0  0  0  0
    6.3939    0.0943   -2.4173 C   0  0  0  0  0  0  0  0  0  0  0  0
    5.2144    0.1602   -1.6750 C   0  0  0  0  0  0  0  0  0  0  0  0
    3.9166    0.4306   -2.0246 N   0  0  0  0  0  0  0  0  0  0  0  0
   -1.2286   -5.9191   -0.7403 H   0  0  0  0  0  0  0  0  0  0  0  0
   -2.4573   -5.1299    0.2619 H   0  0  0  0  0  0  0  0  0  0  0  0
   -2.5101   -4.9641   -1.5025 H   0  0  0  0  0  0  0  0  0  0  0  0
   -0.2693   -3.8851    0.2956 H   0  0  0  0  0  0  0  0  0  0  0  0
   -0.3372   -3.7122   -1.4453 H   0  0  0  0  0  0  0  0  0  0  0  0
   -2.4455   -2.3881   -1.2522 H   0  0  0  0  0  0  0  0  0  0  0  0
   -2.3762   -2.5736    0.5340 H   0  0  0  0  0  0  0  0  0  0  0  0
   -3.4710   -0.6492   -0.1729 H   0  0  0  0  0  0  0  0  0  0  0  0
   -5.5114   -0.0796   -0.2774 H   0  0  0  0  0  0  0  0  0  0  0  0
   -6.6171    1.1025    0.3591 H   0  0  0  0  0  0  0  0  0  0  0  0
   -5.7585    0.7526    2.6801 H   0  0  0  0  0  0  0  0  0  0  0  0
   -6.4361   -0.7148    1.9574 H   0  0  0  0  0  0  0  0  0  0  0  0
   -4.6852   -0.5200    2.0875 H   0  0  0  0  0  0  0  0  0  0  0  0
   -5.9886    3.0996   -0.3421 H   0  0  0  0  0  0  0  0  0  0  0  0
   -4.3695    3.7171   -0.2857 H   0  0  0  0  0  0  0  0  0  0  0  0
   -6.1799    3.1627    2.1356 H   0  0  0  0  0  0  0  0  0  0  0  0
   -5.7296    4.7477    1.4917 H   0  0  0  0  0  0  0  0  0  0  0  0
   -4.5096    3.7235    2.2726 H   0  0  0  0  0  0  0  0  0  0  0  0
   -2.5388    3.4023    0.8874 H   0  0  0  0  0  0  0  0  0  0  0  0
   -0.1769    2.9077    0.7553 H   0  0  0  0  0  0  0  0  0  0  0  0
    1.4674    0.3169    1.1016 H   0  0  0  0  0  0  0  0  0  0  0  0
    6.3020   -0.5263    1.4613 H   0  0  0  0  0  0  0  0  0  0  0  0
    9.5425   -1.2639   -0.2471 H   0  0  0  0  0  0  0  0  0  0  0  0
    8.6477   -1.3996    1.2656 H   0  0  0  0  0  0  0  0  0  0  0  0
    9.2808    0.1862    0.7553 H   0  0  0  0  0  0  0  0  0  0  0  0
    8.5048   -0.2618   -2.2561 H   0  0  0  0  0  0  0  0  0  0  0  0
    6.4151    0.2756   -3.4853 H   0  0  0  0  0  0  0  0  0  0  0  0
    3.6019    0.6418   -2.9620 H   0  0  0  0  0  0  0  0  0  0  0  0
  1  2  1  0
  2  3  1  0
  3  4  1  0
  4  5  1  0
  5  6  2  0
  6  7  1  0
  7  8  1  0
  8  9  1  0
  9 10  1  0
  8 11  1  0
 11 12  1  0
  7 13  2  0
 13 14  1  0
 14 15  2  0
 15 16  1  0
 16 17  2  3
 17 18  1  0
 18 19  3  0
 17 20  1  0
 20 21  2  0
 21 22  1  0
 22 23  2  0
 23 24  1  0
 24 25  1  0
 24 26  2  0
 26 27  1  0
 27 28  2  0
 28 29  1  0
 15  5  1  0
 29 20  1  0
 28 22  1  0
  1 30  1  0
  1 31  1  0
  1 32  1  0
  2 33  1  0
  2 34  1  0
  3 35  1  0
  3 36  1  0
  6 37  1  0
  9 38  1  0
  9 39  1  0
 10 40  1  0
 10 41  1  0
 10 42  1  0
 11 43  1  0
 11 44  1  0
 12 45  1  0
 12 46  1  0
 12 47  1  0
 13 48  1  0
 14 49  1  0
 16 50  1  0
 23 51  1  0
 25 52  1  0
 25 53  1  0
 25 54  1  0
 26 55  1  0
 27 56  1  0
 29 57  1  0
M  END
$$$$
