
     RDKit          3D

 45 47  0  0  0  0  0  0  0  0999 V2000
    9.5487    2.2756   -1.2867 N   0  0  0  0  0  0  0  0  0  0  0  0
    8.5702    1.8287   -0.8510 C   0  0  0  0  0  0  0  0  0  0  0  0
    7.3568    1.2796   -0.3207 C   0  0  0  0  0  0  0  0  0  0  0  0
    7.3563    0.6419    0.9215 C   0  0  0  0  0  0  0  0  0  0  0  0
    6.1686    0.1097    1.4300 C   0  0  0  0  0  0  0  0  0  0  0  0
    4.9750    0.2069    0.7090 C   0  0  0  0  0  0  0  0  0  0  0  0
    3.8942   -0.3558    1.3255 O   0  0  0  0  0  0  0  0  0  0  0  0
    2.6476   -0.3036    0.6435 C   0  0  0  0  0  0  0  0  0  0  0  0
    1.5409   -0.9893    1.4577 C   0  0  0  0  0  0  0  0  0  0  0  0
    1.7851   -1.6189    2.4883 O   0  0  0  0  0  0  0  0  0  0  0  0
    0.2412   -0.8663    0.9761 N   0  0  0  0  0  0  0  0  0  0  0  0
   -0.1474   -0.1617   -0.2503 C   0  0  0  0  0  0  0  0  0  0  0  0
   -1.4324   -0.7193   -0.8974 C   0  0  0  0  0  0  0  0  0  0  0  0
   -2.5418   -0.8359    0.0605 N   0  0  0  0  0  0  0  0  0  0  0  0
   -3.7973   -0.3611   -0.2993 C   0  0  0  0  0  0  0  0  0  0  0  0
   -4.3034   -0.5609   -1.5841 C   0  0  0  0  0  0  0  0  0  0  0  0
   -5.5751   -0.0925   -1.9209 C   0  0  0  0  0  0  0  0  0  0  0  0
   -6.3430    0.5628   -0.9618 C   0  0  0  0  0  0  0  0  0  0  0  0
   -7.7038    1.1113   -1.2496 C   0  0  0  0  0  0  0  0  0  0  0  0
   -7.6745    2.4401   -1.5432 F   0  0  0  0  0  0  0  0  0  0  0  0
   -8.3125    0.5091   -2.3092 F   0  0  0  0  0  0  0  0  0  0  0  0
   -8.5646    0.9789   -0.2030 F   0  0  0  0  0  0  0  0  0  0  0  0
   -5.7793    0.7179    0.2912 C   0  0  0  0  0  0  0  0  0  0  0  0
   -4.5473    0.2691    0.6313 N   0  0  0  0  0  0  0  0  0  0  0  0
   -2.2060   -0.7481    1.4917 C   0  0  0  0  0  0  0  0  0  0  0  0
   -0.8560   -1.4272    1.7746 C   0  0  0  0  0  0  0  0  0  0  0  0
    4.9762    0.8445   -0.5322 C   0  0  0  0  0  0  0  0  0  0  0  0
    6.1645    1.3794   -1.0455 C   0  0  0  0  0  0  0  0  0  0  0  0
    8.2724    0.5529    1.5021 H   0  0  0  0  0  0  0  0  0  0  0  0
    6.1710   -0.3873    2.3985 H   0  0  0  0  0  0  0  0  0  0  0  0
    2.3568    0.7425    0.4936 H   0  0  0  0  0  0  0  0  0  0  0  0
    2.7291   -0.8369   -0.3106 H   0  0  0  0  0  0  0  0  0  0  0  0
    0.6661   -0.1930   -0.9803 H   0  0  0  0  0  0  0  0  0  0  0  0
   -0.2986    0.8881    0.0292 H   0  0  0  0  0  0  0  0  0  0  0  0
   -1.2270   -1.7194   -1.2977 H   0  0  0  0  0  0  0  0  0  0  0  0
   -1.6816   -0.0697   -1.7450 H   0  0  0  0  0  0  0  0  0  0  0  0
   -3.7288   -1.1048   -2.3266 H   0  0  0  0  0  0  0  0  0  0  0  0
   -5.9600   -0.2544   -2.9255 H   0  0  0  0  0  0  0  0  0  0  0  0
   -6.3124    1.2210    1.0955 H   0  0  0  0  0  0  0  0  0  0  0  0
   -2.1506    0.3038    1.8013 H   0  0  0  0  0  0  0  0  0  0  0  0
   -2.9743   -1.2464    2.0958 H   0  0  0  0  0  0  0  0  0  0  0  0
   -0.6178   -1.3469    2.8409 H   0  0  0  0  0  0  0  0  0  0  0  0
   -0.9115   -2.4938    1.5250 H   0  0  0  0  0  0  0  0  0  0  0  0
    4.0748    0.9445   -1.1272 H   0  0  0  0  0  0  0  0  0  0  0  0
    6.1514    1.8743   -2.0151 H   0  0  0  0  0  0  0  0  0  0  0  0
  1  2  3  0
  2  3  1  0
  3  4  2  0
  4  5  1  0
  5  6  2  0
  6  7  1  0
  7  8  1  0
  8  9  1  0
  9 10  2  0
  9 11  1  0
 11 12  1  0
 12 13  1  0
 13 14  1  0
 14 15  1  0
 15 16  2  0
 16 17  1  0
 17 18  2  0
 18 19  1  0
 19 20  1  0
 19 21  1  0
 19 22  1  0
 18 23  1  0
 23 24  2  0
 14 25  1  0
 25 26  1  0
  6 27  1  0
 27 28  2  0
 28  3  1  0
 26 11  1  0
 24 15  1  0
  4 29  1  0
  5 30  1  0
  8 31  1  0
  8 32  1  0
 12 33  1  0
 12 34  1  0
 13 35  1  0
 13 36  1  0
 16 37  1  0
 17 38  1  0
 23 39  1  0
 25 40  1  0
 25 41  1  0
 26 42  1  0
 26 43  1  0
 27 44  1  0
 28 45  1  0
M  END
$$$$
