
     RDKit          3D

 53 55  0  0  0  0  0  0  0  0999 V2000
    5.0233    2.1692   -3.1024 C   0  0  0  0  0  0  0  0  0  0  0  0
    5.2167    2.1776   -1.6361 C   0  0  0  0  0  0  0  0  0  0  0  0
    6.1247    3.0715   -1.1538 O   0  0  0  0  0  0  0  0  0  0  0  0
    6.1785    2.8980    0.1893 C   0  0  0  0  0  0  0  0  0  0  0  0
    5.3103    1.9068    0.5795 C   0  0  0  0  0  0  0  0  0  0  0  0
    4.6539    1.4463   -0.6016 C   0  0  0  0  0  0  0  0  0  0  0  0
    3.6675    0.3883   -0.7857 C   0  0  0  0  0  0  0  0  0  0  0  0
    3.7713   -0.3845   -1.7368 O   0  0  0  0  0  0  0  0  0  0  0  0
    2.6240    0.2788    0.1401 N   0  0  0  0  0  0  0  0  0  0  0  0
    2.3060    1.2803    1.1493 C   0  0  0  0  0  0  0  0  0  0  0  0
    1.7683   -0.9100    0.0942 C   0  0  0  0  0  0  0  0  0  0  0  0
    0.4165   -0.6715   -0.6066 C   0  0  0  0  0  0  0  0  0  0  0  0
    0.5731   -0.4055   -2.1133 C   0  0  0  0  0  0  0  0  0  0  0  0
   -0.7184   -0.6574   -2.8956 C   0  0  0  0  0  0  0  0  0  0  0  0
   -1.9486   -0.6541   -1.9923 C   0  0  0  0  0  0  0  0  0  0  0  0
   -1.8534   -1.6956   -0.9686 N   0  0  0  0  0  0  0  0  0  0  0  0
   -2.9452   -1.6639    0.0130 C   0  0  0  0  0  0  0  0  0  0  0  0
   -2.9655   -0.4518    0.9619 C   0  0  0  0  0  0  0  0  0  0  0  0
   -4.0587   -0.5737    1.9936 C   0  0  0  0  0  0  0  0  0  0  0  0
   -5.3264   -0.0204    1.7693 C   0  0  0  0  0  0  0  0  0  0  0  0
   -6.3352   -0.1580    2.7267 C   0  0  0  0  0  0  0  0  0  0  0  0
   -6.0896   -0.8520    3.9121 C   0  0  0  0  0  0  0  0  0  0  0  0
   -4.8339   -1.4113    4.1411 C   0  0  0  0  0  0  0  0  0  0  0  0
   -3.8333   -1.2708    3.1843 C   0  0  0  0  0  0  0  0  0  0  0  0
   -2.6326   -1.8207    3.4173 F   0  0  0  0  0  0  0  0  0  0  0  0
   -0.5204   -1.8689   -0.3788 C   0  0  0  0  0  0  0  0  0  0  0  0
    3.9573    2.1486   -3.3513 H   0  0  0  0  0  0  0  0  0  0  0  0
    5.4587    3.0612   -3.5647 H   0  0  0  0  0  0  0  0  0  0  0  0
    5.5003    1.2882   -3.5434 H   0  0  0  0  0  0  0  0  0  0  0  0
    6.8795    3.5319    0.7143 H   0  0  0  0  0  0  0  0  0  0  0  0
    5.1797    1.5457    1.5895 H   0  0  0  0  0  0  0  0  0  0  0  0
    2.7836    0.9893    2.0890 H   0  0  0  0  0  0  0  0  0  0  0  0
    1.2247    1.3285    1.3036 H   0  0  0  0  0  0  0  0  0  0  0  0
    2.6424    2.2746    0.8487 H   0  0  0  0  0  0  0  0  0  0  0  0
    1.6064   -1.2231    1.1332 H   0  0  0  0  0  0  0  0  0  0  0  0
    2.3017   -1.7334   -0.3958 H   0  0  0  0  0  0  0  0  0  0  0  0
   -0.0546    0.2119   -0.1561 H   0  0  0  0  0  0  0  0  0  0  0  0
    1.3584   -1.0381   -2.5432 H   0  0  0  0  0  0  0  0  0  0  0  0
    0.8944    0.6327   -2.2617 H   0  0  0  0  0  0  0  0  0  0  0  0
   -0.6473   -1.6265   -3.4068 H   0  0  0  0  0  0  0  0  0  0  0  0
   -0.8257    0.0973   -3.6834 H   0  0  0  0  0  0  0  0  0  0  0  0
   -2.8397   -0.8295   -2.6063 H   0  0  0  0  0  0  0  0  0  0  0  0
   -2.0528    0.3435   -1.5503 H   0  0  0  0  0  0  0  0  0  0  0  0
   -2.9049   -2.5913    0.6004 H   0  0  0  0  0  0  0  0  0  0  0  0
   -3.9017   -1.7176   -0.5245 H   0  0  0  0  0  0  0  0  0  0  0  0
   -3.1124    0.4778    0.3996 H   0  0  0  0  0  0  0  0  0  0  0  0
   -2.0041   -0.3407    1.4776 H   0  0  0  0  0  0  0  0  0  0  0  0
   -5.5372    0.5192    0.8484 H   0  0  0  0  0  0  0  0  0  0  0  0
   -7.3163    0.2755    2.5459 H   0  0  0  0  0  0  0  0  0  0  0  0
   -6.8769   -0.9585    4.6541 H   0  0  0  0  0  0  0  0  0  0  0  0
   -4.6284   -1.9576    5.0561 H   0  0  0  0  0  0  0  0  0  0  0  0
   -0.5848   -2.0954    0.6930 H   0  0  0  0  0  0  0  0  0  0  0  0
   -0.0735   -2.7609   -0.8373 H   0  0  0  0  0  0  0  0  0  0  0  0
  1  2  1  0
  2  3  1  0
  3  4  1  0
  4  5  2  0
  5  6  1  0
  6  7  1  0
  7  8  2  0
  7  9  1  0
  9 10  1  0
  9 11  1  0
 11 12  1  0
 12 13  1  0
 13 14  1  0
 14 15  1  0
 15 16  1  0
 16 17  1  0
 17 18  1  0
 18 19  1  0
 19 20  2  0
 20 21  1  0
 21 22  2  0
 22 23  1  0
 23 24  2  0
 24 25  1  0
 16 26  1  0
  6  2  2  0
 26 12  1  0
 24 19  1  0
  1 27  1  0
  1 28  1  0
  1 29  1  0
  4 30  1  0
  5 31  1  0
 10 32  1  0
 10 33  1  0
 10 34  1  0
 11 35  1  0
 11 36  1  0
 12 37  1  0
 13 38  1  0
 13 39  1  0
 14 40  1  0
 14 41  1  0
 15 42  1  0
 15 43  1  0
 17 44  1  0
 17 45  1  0
 18 46  1  0
 18 47  1  0
 20 48  1  0
 21 49  1  0
 22 50  1  0
 23 51  1  0
 26 52  1  0
 26 53  1  0
M  END
$$$$
