
     RDKit          3D

 53 54  0  0  0  0  0  0  0  0999 V2000
    6.1232   -0.4663    2.1499 C   0  0  0  0  0  0  0  0  0  0  0  0
    5.3389    0.8326    1.9894 C   0  0  0  0  0  0  0  0  0  0  0  0
    3.9152    0.7008    1.6832 N   0  0  0  0  0  0  0  0  0  0  0  0
    3.0988    0.2524    2.8206 C   0  0  0  0  0  0  0  0  0  0  0  0
    1.6908   -0.2633    2.4159 C   0  0  0  0  0  0  0  0  0  0  0  0
    1.1408    0.2866    1.1592 N   0  0  0  0  0  0  0  0  0  0  0  0
    0.8823    1.7486    1.3117 C   0  0  0  0  0  0  0  0  0  0  0  0
   -0.0991    2.2589    0.2403 C   0  0  0  0  0  0  0  0  0  0  0  0
   -0.1585    3.4502   -0.0516 O   0  0  0  0  0  0  0  0  0  0  0  0
   -0.8954    1.2532   -0.2667 N   0  0  0  0  0  0  0  0  0  0  0  0
   -1.9124    1.3149   -1.2363 C   0  0  0  0  0  0  0  0  0  0  0  0
   -2.3225    2.5056   -1.8417 C   0  0  0  0  0  0  0  0  0  0  0  0
   -3.3402    2.5041   -2.8086 C   0  0  0  0  0  0  0  0  0  0  0  0
   -3.7980    3.7873   -3.4576 C   0  0  0  0  0  0  0  0  0  0  0  0
   -2.9591    4.8400   -3.2592 F   0  0  0  0  0  0  0  0  0  0  0  0
   -5.0183    4.1875   -3.0033 F   0  0  0  0  0  0  0  0  0  0  0  0
   -3.9286    3.6677   -4.8095 F   0  0  0  0  0  0  0  0  0  0  0  0
   -3.9492    1.2886   -3.1523 C   0  0  0  0  0  0  0  0  0  0  0  0
   -3.5480    0.0930   -2.5503 C   0  0  0  0  0  0  0  0  0  0  0  0
   -2.5338    0.0984   -1.5903 C   0  0  0  0  0  0  0  0  0  0  0  0
   -2.0626   -1.0178   -0.9394 O   0  0  0  0  0  0  0  0  0  0  0  0
   -2.7553   -2.2465   -1.1530 C   0  0  0  0  0  0  0  0  0  0  0  0
   -2.1079   -3.3215   -0.2803 C   0  0  0  0  0  0  0  0  0  0  0  0
   -2.7274   -4.5963   -0.4474 O   0  0  0  0  0  0  0  0  0  0  0  0
   -3.9070   -4.7470    0.3318 C   0  0  0  0  0  0  0  0  0  0  0  0
    2.1199    0.0460    0.0626 C   0  0  0  0  0  0  0  0  0  0  0  0
    3.6150   -0.0672    0.4739 C   0  0  0  0  0  0  0  0  0  0  0  0
    7.1633   -0.2387    2.4069 H   0  0  0  0  0  0  0  0  0  0  0  0
    5.7184   -1.0952    2.9472 H   0  0  0  0  0  0  0  0  0  0  0  0
    6.1359   -1.0469    1.2223 H   0  0  0  0  0  0  0  0  0  0  0  0
    5.4563    1.4335    2.8999 H   0  0  0  0  0  0  0  0  0  0  0  0
    5.8094    1.4217    1.1925 H   0  0  0  0  0  0  0  0  0  0  0  0
    3.5915   -0.5471    3.3851 H   0  0  0  0  0  0  0  0  0  0  0  0
    2.9775    1.1026    3.5025 H   0  0  0  0  0  0  0  0  0  0  0  0
    1.7454   -1.3543    2.2968 H   0  0  0  0  0  0  0  0  0  0  0  0
    0.9871   -0.0997    3.2418 H   0  0  0  0  0  0  0  0  0  0  0  0
    0.3929    1.9458    2.2734 H   0  0  0  0  0  0  0  0  0  0  0  0
    1.7998    2.3442    1.2589 H   0  0  0  0  0  0  0  0  0  0  0  0
   -0.6690    0.3227    0.0855 H   0  0  0  0  0  0  0  0  0  0  0  0
   -1.8595    3.4529   -1.5762 H   0  0  0  0  0  0  0  0  0  0  0  0
   -4.7427    1.2699   -3.8989 H   0  0  0  0  0  0  0  0  0  0  0  0
   -4.0439   -0.8213   -2.8580 H   0  0  0  0  0  0  0  0  0  0  0  0
   -3.8121   -2.1369   -0.8853 H   0  0  0  0  0  0  0  0  0  0  0  0
   -2.6859   -2.5527   -2.2034 H   0  0  0  0  0  0  0  0  0  0  0  0
   -1.0575   -3.4288   -0.5738 H   0  0  0  0  0  0  0  0  0  0  0  0
   -2.0968   -3.0247    0.7755 H   0  0  0  0  0  0  0  0  0  0  0  0
   -4.2896   -5.7599    0.1782 H   0  0  0  0  0  0  0  0  0  0  0  0
   -4.6769   -4.0370    0.0183 H   0  0  0  0  0  0  0  0  0  0  0  0
   -3.6842   -4.6185    1.3958 H   0  0  0  0  0  0  0  0  0  0  0  0
    2.0209    0.8155   -0.7143 H   0  0  0  0  0  0  0  0  0  0  0  0
    1.8366   -0.8951   -0.4263 H   0  0  0  0  0  0  0  0  0  0  0  0
    3.8542   -1.1272    0.6298 H   0  0  0  0  0  0  0  0  0  0  0  0
    4.2272    0.2846   -0.3652 H   0  0  0  0  0  0  0  0  0  0  0  0
  1  2  1  0
  2  3  1  0
  3  4  1  0
  4  5  1  0
  5  6  1  0
  6  7  1  0
  7  8  1  0
  8  9  2  0
  8 10  1  0
 10 11  1  0
 11 12  2  0
 12 13  1  0
 13 14  1  0
 14 15  1  0
 14 16  1  0
 14 17  1  0
 13 18  2  0
 18 19  1  0
 19 20  2  0
 20 21  1  0
 21 22  1  0
 22 23  1  0
 23 24  1  0
 24 25  1  0
  6 26  1  0
 26 27  1  0
 27  3  1  0
 20 11  1  0
  1 28  1  0
  1 29  1  0
  1 30  1  0
  2 31  1  0
  2 32  1  0
  4 33  1  0
  4 34  1  0
  5 35  1  0
  5 36  1  0
  7 37  1  0
  7 38  1  0
 10 39  1  0
 12 40  1  0
 18 41  1  0
 19 42  1  0
 22 43  1  0
 22 44  1  0
 23 45  1  0
 23 46  1  0
 25 47  1  0
 25 48  1  0
 25 49  1  0
 26 50  1  0
 26 51  1  0
 27 52  1  0
 27 53  1  0
M  END
$$$$
