
     RDKit          3D

 38 39  0  0  0  0  0  0  0  0999 V2000
    6.7154    0.2744    0.8528 C   0  0  0  0  0  0  0  0  0  0  0  0
    5.2388    0.2869    0.5943 C   0  0  0  0  0  0  0  0  0  0  0  0
    4.6529   -0.6774   -0.2287 C   0  0  0  0  0  0  0  0  0  0  0  0
    3.2688   -0.6866   -0.4466 C   0  0  0  0  0  0  0  0  0  0  0  0
    2.4334    0.2586    0.1543 C   0  0  0  0  0  0  0  0  0  0  0  0
    1.0448    0.2988   -0.0147 N   0  0  0  0  0  0  0  0  0  0  0  0
    0.1341   -0.4562   -0.7503 C   0  0  0  0  0  0  0  0  0  0  0  0
    0.5105   -1.4914   -1.4774 N   0  0  0  0  0  0  0  0  0  0  0  0
   -0.4853   -2.0875   -2.1093 C   0  0  0  0  0  0  0  0  0  0  0  0
   -0.0603   -3.4398   -3.0652 Cl  0  0  0  0  0  0  0  0  0  0  0  0
   -1.7713   -1.7766   -2.0866 N   0  0  0  0  0  0  0  0  0  0  0  0
   -2.0458   -0.7310   -1.3325 C   0  0  0  0  0  0  0  0  0  0  0  0
   -3.3772   -0.3688   -1.3010 N   0  0  0  0  0  0  0  0  0  0  0  0
   -4.0032    0.2531   -0.1300 C   0  0  0  0  0  0  0  0  0  0  0  0
   -3.7868   -0.5862    1.1375 C   0  0  0  0  0  0  0  0  0  0  0  0
   -3.5143    1.6949    0.0713 C   0  0  0  0  0  0  0  0  0  0  0  0
   -5.5182    0.3075   -0.4207 C   0  0  0  0  0  0  0  0  0  0  0  0
   -1.1313   -0.0519   -0.6525 N   0  0  0  0  0  0  0  0  0  0  0  0
    3.0328    1.2106    0.9948 C   0  0  0  0  0  0  0  0  0  0  0  0
    4.4144    1.2253    1.2169 C   0  0  0  0  0  0  0  0  0  0  0  0
    7.2610   -0.1067   -0.0169 H   0  0  0  0  0  0  0  0  0  0  0  0
    7.0860    1.2857    1.0504 H   0  0  0  0  0  0  0  0  0  0  0  0
    6.9389   -0.3594    1.7164 H   0  0  0  0  0  0  0  0  0  0  0  0
    5.2666   -1.4347   -0.7120 H   0  0  0  0  0  0  0  0  0  0  0  0
    2.8686   -1.4565   -1.0986 H   0  0  0  0  0  0  0  0  0  0  0  0
    0.5565    1.0558    0.4421 H   0  0  0  0  0  0  0  0  0  0  0  0
   -3.8949   -1.1451   -1.7025 H   0  0  0  0  0  0  0  0  0  0  0  0
   -2.7346   -0.6110    1.4396 H   0  0  0  0  0  0  0  0  0  0  0  0
   -4.1086   -1.6230    0.9854 H   0  0  0  0  0  0  0  0  0  0  0  0
   -4.3554   -0.1785    1.9810 H   0  0  0  0  0  0  0  0  0  0  0  0
   -4.1170    2.2116    0.8273 H   0  0  0  0  0  0  0  0  0  0  0  0
   -2.4765    1.7409    0.4139 H   0  0  0  0  0  0  0  0  0  0  0  0
   -3.5806    2.2691   -0.8600 H   0  0  0  0  0  0  0  0  0  0  0  0
   -6.0682    0.7704    0.4064 H   0  0  0  0  0  0  0  0  0  0  0  0
   -5.7260    0.8859   -1.3288 H   0  0  0  0  0  0  0  0  0  0  0  0
   -5.9295   -0.6973   -0.5740 H   0  0  0  0  0  0  0  0  0  0  0  0
    2.4235    1.9598    1.4947 H   0  0  0  0  0  0  0  0  0  0  0  0
    4.8383    1.9762    1.8796 H   0  0  0  0  0  0  0  0  0  0  0  0
  1  2  1  0
  2  3  2  0
  3  4  1  0
  4  5  2  0
  5  6  1  0
  6  7  1  0
  7  8  2  0
  8  9  1  0
  9 10  1  0
  9 11  2  0
 11 12  1  0
 12 13  1  0
 13 14  1  0
 14 15  1  0
 14 16  1  0
 14 17  1  0
 12 18  2  0
  5 19  1  0
 19 20  2  0
 20  2  1  0
 18  7  1  0
  1 21  1  0
  1 22  1  0
  1 23  1  0
  3 24  1  0
  4 25  1  0
  6 26  1  0
 13 27  1  0
 15 28  1  0
 15 29  1  0
 15 30  1  0
 16 31  1  0
 16 32  1  0
 16 33  1  0
 17 34  1  0
 17 35  1  0
 17 36  1  0
 19 37  1  0
 20 38  1  0
M  END
$$$$
