
     RDKit          3D

 61 65  0  0  0  0  0  0  0  0999 V2000
   -3.9830   -3.0817   -1.3369 C   0  0  0  0  0  0  0  0  0  0  0  0
   -3.3769   -1.9279   -0.7607 O   0  0  0  0  0  0  0  0  0  0  0  0
   -3.5039   -0.7852   -1.5134 C   0  0  0  0  0  0  0  0  0  0  0  0
   -3.3515   -0.7804   -2.9050 C   0  0  0  0  0  0  0  0  0  0  0  0
   -3.4450    0.4166   -3.6201 C   0  0  0  0  0  0  0  0  0  0  0  0
   -3.6764    1.6162   -2.9513 C   0  0  0  0  0  0  0  0  0  0  0  0
   -3.8103    1.6225   -1.5627 C   0  0  0  0  0  0  0  0  0  0  0  0
   -3.7244    0.4269   -0.8313 C   0  0  0  0  0  0  0  0  0  0  0  0
   -3.8719    0.4773    0.6283 C   0  0  0  0  0  0  0  0  0  0  0  0
   -5.4164    0.1756    1.2960 S   0  0  0  0  0  0  0  0  0  0  0  0
   -4.8676    0.4343    2.9047 C   0  0  0  0  0  0  0  0  0  0  0  0
   -5.6393    0.3585    4.0826 C   0  0  0  0  0  0  0  0  0  0  0  0
   -5.0257    0.5988    5.3132 C   0  0  0  0  0  0  0  0  0  0  0  0
   -3.6756    0.9060    5.3764 C   0  0  0  0  0  0  0  0  0  0  0  0
   -2.9146    0.9806    4.2055 C   0  0  0  0  0  0  0  0  0  0  0  0
   -3.5071    0.7462    2.9374 C   0  0  0  0  0  0  0  0  0  0  0  0
   -2.9371    0.7663    1.6080 C   0  0  0  0  0  0  0  0  0  0  0  0
   -1.5489    1.0647    1.2777 C   0  0  0  0  0  0  0  0  0  0  0  0
   -1.0591    2.3662    1.4153 C   0  0  0  0  0  0  0  0  0  0  0  0
    0.2760    2.6435    1.1110 C   0  0  0  0  0  0  0  0  0  0  0  0
    1.1365    1.6307    0.6753 C   0  0  0  0  0  0  0  0  0  0  0  0
    2.4109    2.0478    0.4117 O   0  0  0  0  0  0  0  0  0  0  0  0
    3.3998    1.0670    0.0826 C   0  0  0  0  0  0  0  0  0  0  0  0
    3.4229    0.7984   -1.4351 C   0  0  0  0  0  0  0  0  0  0  0  0
    4.4192   -0.1656   -1.9249 N   0  0  0  0  0  0  0  0  0  0  0  0
    4.0953   -1.5533   -1.5844 C   0  0  0  0  0  0  0  0  0  0  0  0
    5.2643   -2.4902   -1.8832 C   0  0  0  0  0  0  0  0  0  0  0  0
    6.4976   -2.1271   -1.0553 C   0  0  0  0  0  0  0  0  0  0  0  0
    6.5170   -0.6531   -0.6489 C   0  0  0  0  0  0  0  0  0  0  0  0
    5.8113    0.2246   -1.6814 C   0  0  0  0  0  0  0  0  0  0  0  0
    0.6450    0.3322    0.5385 C   0  0  0  0  0  0  0  0  0  0  0  0
   -0.6921    0.0498    0.8402 C   0  0  0  0  0  0  0  0  0  0  0  0
   -4.9808   -2.8610   -1.7371 H   0  0  0  0  0  0  0  0  0  0  0  0
   -3.3384   -3.5154   -2.1095 H   0  0  0  0  0  0  0  0  0  0  0  0
   -4.0975   -3.8274   -0.5442 H   0  0  0  0  0  0  0  0  0  0  0  0
   -3.1329   -1.6938   -3.4487 H   0  0  0  0  0  0  0  0  0  0  0  0
   -3.3231    0.4131   -4.7010 H   0  0  0  0  0  0  0  0  0  0  0  0
   -3.7415    2.5489   -3.5064 H   0  0  0  0  0  0  0  0  0  0  0  0
   -3.9782    2.5660   -1.0465 H   0  0  0  0  0  0  0  0  0  0  0  0
   -6.6965    0.1165    4.0345 H   0  0  0  0  0  0  0  0  0  0  0  0
   -5.6136    0.5425    6.2269 H   0  0  0  0  0  0  0  0  0  0  0  0
   -3.2034    1.0889    6.3375 H   0  0  0  0  0  0  0  0  0  0  0  0
   -1.8557    1.2187    4.2704 H   0  0  0  0  0  0  0  0  0  0  0  0
   -1.7098    3.1689    1.7547 H   0  0  0  0  0  0  0  0  0  0  0  0
    0.6503    3.6595    1.2161 H   0  0  0  0  0  0  0  0  0  0  0  0
    4.3587    1.5028    0.3861 H   0  0  0  0  0  0  0  0  0  0  0  0
    3.2856    0.1583    0.6849 H   0  0  0  0  0  0  0  0  0  0  0  0
    2.4282    0.4757   -1.7673 H   0  0  0  0  0  0  0  0  0  0  0  0
    3.5718    1.7550   -1.9561 H   0  0  0  0  0  0  0  0  0  0  0  0
    3.2244   -1.8719   -2.1697 H   0  0  0  0  0  0  0  0  0  0  0  0
    3.8280   -1.6584   -0.5258 H   0  0  0  0  0  0  0  0  0  0  0  0
    4.9783   -3.5308   -1.6866 H   0  0  0  0  0  0  0  0  0  0  0  0
    5.5138   -2.4334   -2.9523 H   0  0  0  0  0  0  0  0  0  0  0  0
    6.5388   -2.7449   -0.1497 H   0  0  0  0  0  0  0  0  0  0  0  0
    7.3965   -2.3699   -1.6342 H   0  0  0  0  0  0  0  0  0  0  0  0
    7.5525   -0.3220   -0.5157 H   0  0  0  0  0  0  0  0  0  0  0  0
    6.0261   -0.5377    0.3263 H   0  0  0  0  0  0  0  0  0  0  0  0
    5.8961    1.2798   -1.3941 H   0  0  0  0  0  0  0  0  0  0  0  0
    6.3498    0.1404   -2.6347 H   0  0  0  0  0  0  0  0  0  0  0  0
    1.2650   -0.4869    0.1918 H   0  0  0  0  0  0  0  0  0  0  0  0
   -1.0619   -0.9679    0.7275 H   0  0  0  0  0  0  0  0  0  0  0  0
  1  2  1  0
  2  3  1  0
  3  4  2  0
  4  5  1  0
  5  6  2  0
  6  7  1  0
  7  8  2  0
  8  9  1  0
  9 10  1  0
 10 11  1  0
 11 12  2  0
 12 13  1  0
 13 14  2  0
 14 15  1  0
 15 16  2  0
 16 17  1  0
 17 18  1  0
 18 19  2  0
 19 20  1  0
 20 21  2  0
 21 22  1  0
 22 23  1  0
 23 24  1  0
 24 25  1  0
 25 26  1  0
 26 27  1  0
 27 28  1  0
 28 29  1  0
 29 30  1  0
 21 31  1  0
 31 32  2  0
  8  3  1  0
 17  9  2  0
 32 18  1  0
 16 11  1  0
 30 25  1  0
  1 33  1  0
  1 34  1  0
  1 35  1  0
  4 36  1  0
  5 37  1  0
  6 38  1  0
  7 39  1  0
 12 40  1  0
 13 41  1  0
 14 42  1  0
 15 43  1  0
 19 44  1  0
 20 45  1  0
 23 46  1  0
 23 47  1  0
 24 48  1  0
 24 49  1  0
 26 50  1  0
 26 51  1  0
 27 52  1  0
 27 53  1  0
 28 54  1  0
 28 55  1  0
 29 56  1  0
 29 57  1  0
 30 58  1  0
 30 59  1  0
 31 60  1  0
 32 61  1  0
M  END
$$$$
