
     RDKit          3D

 42 44  0  0  0  0  0  0  0  0999 V2000
    4.4968    0.7330    1.5485 C   0  0  0  0  0  0  0  0  0  0  0  0
    3.3470   -0.0444    0.9265 C   0  0  0  0  0  0  0  0  0  0  0  0
    2.0532    0.1471    1.7192 C   0  0  0  0  0  0  0  0  0  0  0  0
    0.8772   -0.6568    1.1545 C   0  0  0  0  0  0  0  0  0  0  0  0
    0.3502   -0.2407   -0.2457 C   0  0  0  0  0  0  0  0  0  0  0  0
   -0.5836   -1.3343   -0.7320 C   0  0  0  0  0  0  0  0  0  0  0  0
   -1.9211   -1.1912   -0.7100 C   0  0  0  0  0  0  0  0  0  0  0  0
   -2.8941   -2.2603   -1.1132 C   0  0  0  0  0  0  0  0  0  0  0  0
   -2.2562   -3.6447   -1.0958 C   0  0  0  0  0  0  0  0  0  0  0  0
   -0.9277   -3.6435   -1.8343 C   0  0  0  0  0  0  0  0  0  0  0  0
    0.0069   -2.5868   -1.2849 C   0  0  0  0  0  0  0  0  0  0  0  0
    1.2267   -2.7272   -1.3444 O   0  0  0  0  0  0  0  0  0  0  0  0
   -2.5217   -0.0151   -0.2785 O   0  0  0  0  0  0  0  0  0  0  0  0
   -1.7419    1.1314   -0.1851 C   0  0  0  0  0  0  0  0  0  0  0  0
   -0.3956    1.0800   -0.1970 C   0  0  0  0  0  0  0  0  0  0  0  0
    0.3634    2.3607   -0.2939 C   0  0  0  0  0  0  0  0  0  0  0  0
    1.5761    2.3545   -0.4955 O   0  0  0  0  0  0  0  0  0  0  0  0
   -0.3956    3.6703   -0.2373 C   0  0  0  0  0  0  0  0  0  0  0  0
   -1.7118    3.5321    0.5073 C   0  0  0  0  0  0  0  0  0  0  0  0
   -2.5424    2.3958   -0.0737 C   0  0  0  0  0  0  0  0  0  0  0  0
    5.4139    0.5796    0.9713 H   0  0  0  0  0  0  0  0  0  0  0  0
    4.6832    0.4041    2.5758 H   0  0  0  0  0  0  0  0  0  0  0  0
    4.2806    1.8061    1.5643 H   0  0  0  0  0  0  0  0  0  0  0  0
    3.2214    0.2841   -0.1095 H   0  0  0  0  0  0  0  0  0  0  0  0
    3.6084   -1.1086    0.8969 H   0  0  0  0  0  0  0  0  0  0  0  0
    2.2254   -0.1921    2.7491 H   0  0  0  0  0  0  0  0  0  0  0  0
    1.7974    1.2081    1.7953 H   0  0  0  0  0  0  0  0  0  0  0  0
    0.0535   -0.5955    1.8802 H   0  0  0  0  0  0  0  0  0  0  0  0
    1.1786   -1.7127    1.1439 H   0  0  0  0  0  0  0  0  0  0  0  0
    1.1722   -0.1573   -0.9656 H   0  0  0  0  0  0  0  0  0  0  0  0
   -3.7534   -2.2600   -0.4323 H   0  0  0  0  0  0  0  0  0  0  0  0
   -3.2748   -2.0332   -2.1161 H   0  0  0  0  0  0  0  0  0  0  0  0
   -2.0947   -3.9564   -0.0554 H   0  0  0  0  0  0  0  0  0  0  0  0
   -2.9371   -4.3754   -1.5463 H   0  0  0  0  0  0  0  0  0  0  0  0
   -1.0725   -3.4508   -2.9029 H   0  0  0  0  0  0  0  0  0  0  0  0
   -0.4511   -4.6232   -1.7204 H   0  0  0  0  0  0  0  0  0  0  0  0
   -0.5664    4.0071   -1.2658 H   0  0  0  0  0  0  0  0  0  0  0  0
    0.2301    4.4119    0.2714 H   0  0  0  0  0  0  0  0  0  0  0  0
   -2.2738    4.4713    0.4570 H   0  0  0  0  0  0  0  0  0  0  0  0
   -1.5132    3.3336    1.5687 H   0  0  0  0  0  0  0  0  0  0  0  0
   -3.4132    2.2307    0.5717 H   0  0  0  0  0  0  0  0  0  0  0  0
   -2.9201    2.6689   -1.0662 H   0  0  0  0  0  0  0  0  0  0  0  0
  1  2  1  0
  2  3  1  0
  3  4  1  0
  4  5  1  0
  5  6  1  0
  6  7  2  0
  7  8  1  0
  8  9  1  0
  9 10  1  0
 10 11  1  0
 11 12  2  0
  7 13  1  0
 13 14  1  0
 14 15  2  0
 15 16  1  0
 16 17  2  0
 16 18  1  0
 18 19  1  0
 19 20  1  0
 15  5  1  0
 11  6  1  0
 20 14  1  0
  1 21  1  0
  1 22  1  0
  1 23  1  0
  2 24  1  0
  2 25  1  0
  3 26  1  0
  3 27  1  0
  4 28  1  0
  4 29  1  0
  5 30  1  0
  8 31  1  0
  8 32  1  0
  9 33  1  0
  9 34  1  0
 10 35  1  0
 10 36  1  0
 18 37  1  0
 18 38  1  0
 19 39  1  0
 19 40  1  0
 20 41  1  0
 20 42  1  0
M  END
$$$$
