
     RDKit          3D

 93 99  0  0  0  0  0  0  0  0999 V2000
   -4.9674    1.5684    0.0631 C   0  0  0  0  0  0  0  0  0  0  0  0
   -4.2991    1.3149   -1.2840 C   0  0  0  0  0  0  0  0  0  0  0  0
   -3.0074    0.5226   -1.1503 C   0  0  0  0  0  0  0  0  0  0  0  0
   -1.8029    1.0957   -1.3592 C   0  0  0  0  0  0  0  0  0  0  0  0
   -1.7090    2.4590   -1.6791 O   0  0  0  0  0  0  0  0  0  0  0  0
   -1.5154    3.2478   -0.5655 C   0  0  0  0  0  0  0  0  0  0  0  0
   -1.3890    2.8089    0.5759 O   0  0  0  0  0  0  0  0  0  0  0  0
   -1.4929    4.6059   -0.8599 N   0  0  0  0  0  0  0  0  0  0  0  0
   -1.7128    5.1315   -2.2040 C   0  0  0  0  0  0  0  0  0  0  0  0
   -0.4139    5.2595   -2.9833 C   0  0  0  0  0  0  0  0  0  0  0  0
   -1.1895    5.5513    0.2092 C   0  0  0  0  0  0  0  0  0  0  0  0
   -2.4426    5.9662    0.9699 C   0  0  0  0  0  0  0  0  0  0  0  0
   -0.6193    0.3919   -1.2251 N   0  0  0  0  0  0  0  0  0  0  0  0
    0.6307    0.9713   -1.2399 C   0  0  0  0  0  0  0  0  0  0  0  0
    0.9804    2.0332   -1.7304 O   0  0  0  0  0  0  0  0  0  0  0  0
    1.4575    0.1935   -0.5096 O   0  0  0  0  0  0  0  0  0  0  0  0
    0.7278   -0.8310   -0.0095 C   0  0  0  0  0  0  0  0  0  0  0  0
    1.1246   -1.5429    0.9894 N   0  0  0  0  0  0  0  0  0  0  0  0
    2.4176   -1.1588    1.5881 C   0  0  0  0  0  0  0  0  0  0  0  0
    2.2086   -0.0579    2.6337 C   0  0  0  0  0  0  0  0  0  0  0  0
    3.4881    0.3709    3.2767 C   0  0  0  0  0  0  0  0  0  0  0  0
    3.9588   -0.0202    4.5165 C   0  0  0  0  0  0  0  0  0  0  0  0
    5.1624    0.5970    4.7331 N   0  0  0  0  0  0  0  0  0  0  0  0
    5.4909    1.3910    3.6583 C   0  0  0  0  0  0  0  0  0  0  0  0
    6.6157    2.1969    3.4446 C   0  0  0  0  0  0  0  0  0  0  0  0
    6.6850    2.9064    2.2435 C   0  0  0  0  0  0  0  0  0  0  0  0
    5.6656    2.8181    1.2978 C   0  0  0  0  0  0  0  0  0  0  0  0
    4.5469    2.0090    1.5278 C   0  0  0  0  0  0  0  0  0  0  0  0
    4.4559    1.2749    2.7298 C   0  0  0  0  0  0  0  0  0  0  0  0
   -0.5739   -1.0077   -0.7710 C   0  0  0  0  0  0  0  0  0  0  0  0
   -0.3904   -2.0174   -1.9449 C   0  0  0  0  0  0  0  0  0  0  0  0
    0.8144   -1.8360   -2.8431 C   0  0  0  0  0  0  0  0  0  0  0  0
    0.7434   -1.0165   -3.9781 C   0  0  0  0  0  0  0  0  0  0  0  0
    1.8648   -0.8380   -4.7905 C   0  0  0  0  0  0  0  0  0  0  0  0
    3.0630   -1.4796   -4.4791 C   0  0  0  0  0  0  0  0  0  0  0  0
    3.1422   -2.3004   -3.3548 C   0  0  0  0  0  0  0  0  0  0  0  0
    2.0231   -2.4815   -2.5421 C   0  0  0  0  0  0  0  0  0  0  0  0
   -1.8252   -1.3605    0.0936 C   0  0  0  0  0  0  0  0  0  0  0  0
   -3.0671   -0.8823   -0.7223 C   0  0  0  0  0  0  0  0  0  0  0  0
   -4.0964   -1.6789   -1.0777 C   0  0  0  0  0  0  0  0  0  0  0  0
   -4.2248   -3.1333   -0.7513 C   0  0  0  0  0  0  0  0  0  0  0  0
   -3.1189   -3.6258    0.1066 C   0  0  0  0  0  0  0  0  0  0  0  0
   -1.9935   -2.8262    0.5159 C   0  0  0  0  0  0  0  0  0  0  0  0
   -1.2605   -3.6320    1.3765 C   0  0  0  0  0  0  0  0  0  0  0  0
   -0.1701   -3.4333    2.1006 O   0  0  0  0  0  0  0  0  0  0  0  0
   -1.8567   -4.8703    1.4334 N   0  0  0  0  0  0  0  0  0  0  0  0
   -1.3747   -5.9885    2.2304 C   0  0  0  0  0  0  0  0  0  0  0  0
   -0.3352   -6.8113    1.4911 C   0  0  0  0  0  0  0  0  0  0  0  0
   -2.9893   -4.8803    0.6660 C   0  0  0  0  0  0  0  0  0  0  0  0
   -3.7511   -5.9661    0.5902 O   0  0  0  0  0  0  0  0  0  0  0  0
   -4.2940    2.1036    0.7406 H   0  0  0  0  0  0  0  0  0  0  0  0
   -5.2690    0.6356    0.5491 H   0  0  0  0  0  0  0  0  0  0  0  0
   -5.8673    2.1761   -0.0692 H   0  0  0  0  0  0  0  0  0  0  0  0
   -4.9991    0.8077   -1.9580 H   0  0  0  0  0  0  0  0  0  0  0  0
   -4.1200    2.2878   -1.7593 H   0  0  0  0  0  0  0  0  0  0  0  0
   -2.3976    4.4711   -2.7496 H   0  0  0  0  0  0  0  0  0  0  0  0
   -2.2019    6.1081   -2.1194 H   0  0  0  0  0  0  0  0  0  0  0  0
    0.0616    4.2853   -3.1267 H   0  0  0  0  0  0  0  0  0  0  0  0
   -0.6069    5.6851   -3.9741 H   0  0  0  0  0  0  0  0  0  0  0  0
    0.2990    5.9086   -2.4653 H   0  0  0  0  0  0  0  0  0  0  0  0
   -0.4802    5.0898    0.9063 H   0  0  0  0  0  0  0  0  0  0  0  0
   -0.6966    6.4319   -0.2212 H   0  0  0  0  0  0  0  0  0  0  0  0
   -2.9246    5.1010    1.4372 H   0  0  0  0  0  0  0  0  0  0  0  0
   -3.1731    6.4373    0.2996 H   0  0  0  0  0  0  0  0  0  0  0  0
   -2.1824    6.6809    1.7570 H   0  0  0  0  0  0  0  0  0  0  0  0
    3.1543   -0.8677    0.8291 H   0  0  0  0  0  0  0  0  0  0  0  0
    2.8328   -2.0505    2.0737 H   0  0  0  0  0  0  0  0  0  0  0  0
    1.5111   -0.4168    3.4018 H   0  0  0  0  0  0  0  0  0  0  0  0
    1.7229    0.8143    2.1743 H   0  0  0  0  0  0  0  0  0  0  0  0
    3.5402   -0.6828    5.2642 H   0  0  0  0  0  0  0  0  0  0  0  0
    5.7344    0.4885    5.5603 H   0  0  0  0  0  0  0  0  0  0  0  0
    7.4086    2.2729    4.1812 H   0  0  0  0  0  0  0  0  0  0  0  0
    7.5449    3.5425    2.0463 H   0  0  0  0  0  0  0  0  0  0  0  0
    5.7342    3.3806    0.3695 H   0  0  0  0  0  0  0  0  0  0  0  0
    3.7583    1.9507    0.7823 H   0  0  0  0  0  0  0  0  0  0  0  0
   -0.3348   -3.0408   -1.5493 H   0  0  0  0  0  0  0  0  0  0  0  0
   -1.2824   -2.0007   -2.5871 H   0  0  0  0  0  0  0  0  0  0  0  0
   -0.1839   -0.5073   -4.2363 H   0  0  0  0  0  0  0  0  0  0  0  0
    1.8037   -0.1985   -5.6676 H   0  0  0  0  0  0  0  0  0  0  0  0
    3.9359   -1.3412   -5.1121 H   0  0  0  0  0  0  0  0  0  0  0  0
    4.0767   -2.8001   -3.1120 H   0  0  0  0  0  0  0  0  0  0  0  0
    2.1047   -3.1272   -1.6678 H   0  0  0  0  0  0  0  0  0  0  0  0
   -1.8009   -0.7755    1.0276 H   0  0  0  0  0  0  0  0  0  0  0  0
   -4.9179   -1.2965   -1.6760 H   0  0  0  0  0  0  0  0  0  0  0  0
   -5.1798   -3.2923   -0.2379 H   0  0  0  0  0  0  0  0  0  0  0  0
   -4.2512   -3.7065   -1.6855 H   0  0  0  0  0  0  0  0  0  0  0  0
    0.2470   -2.5888    1.8215 H   0  0  0  0  0  0  0  0  0  0  0  0
   -0.9590   -5.5890    3.1624 H   0  0  0  0  0  0  0  0  0  0  0  0
   -2.2344   -6.6095    2.5046 H   0  0  0  0  0  0  0  0  0  0  0  0
   -0.7345   -7.1934    0.5456 H   0  0  0  0  0  0  0  0  0  0  0  0
    0.5518   -6.2107    1.2601 H   0  0  0  0  0  0  0  0  0  0  0  0
   -0.0206   -7.6632    2.1021 H   0  0  0  0  0  0  0  0  0  0  0  0
   -4.5884   -5.7097    0.1713 H   0  0  0  0  0  0  0  0  0  0  0  0
  1  2  1  0
  2  3  1  0
  3  4  2  0
  4  5  1  0
  5  6  1  0
  6  7  2  0
  6  8  1  0
  8  9  1  0
  9 10  1  0
  8 11  1  0
 11 12  1  0
  4 13  1  0
 13 14  1  0
 14 15  2  0
 14 16  1  0
 16 17  1  0
 17 18  2  3
 18 19  1  0
 19 20  1  0
 20 21  1  0
 21 22  2  0
 22 23  1  0
 23 24  1  0
 24 25  2  0
 25 26  1  0
 26 27  2  0
 27 28  1  0
 28 29  2  0
 17 30  1  0
 30 31  1  0
 31 32  1  0
 32 33  2  0
 33 34  1  0
 34 35  2  0
 35 36  1  0
 36 37  2  0
 30 38  1  0
 38 39  1  0
 39 40  2  0
 40 41  1  0
 41 42  1  0
 42 43  1  0
 43 44  2  0
 44 45  1  0
 44 46  1  0
 46 47  1  0
 47 48  1  0
 46 49  1  0
 49 50  1  0
 39  3  1  0
 49 42  2  0
 30 13  1  0
 37 32  1  0
 43 38  1  0
 29 21  1  0
 29 24  1  0
  1 51  1  0
  1 52  1  0
  1 53  1  0
  2 54  1  0
  2 55  1  0
  9 56  1  0
  9 57  1  0
 10 58  1  0
 10 59  1  0
 10 60  1  0
 11 61  1  0
 11 62  1  0
 12 63  1  0
 12 64  1  0
 12 65  1  0
 19 66  1  0
 19 67  1  0
 20 68  1  0
 20 69  1  0
 22 70  1  0
 23 71  1  0
 25 72  1  0
 26 73  1  0
 27 74  1  0
 28 75  1  0
 31 76  1  0
 31 77  1  0
 33 78  1  0
 34 79  1  0
 35 80  1  0
 36 81  1  0
 37 82  1  0
 38 83  1  0
 40 84  1  0
 41 85  1  0
 41 86  1  0
 45 87  1  0
 47 88  1  0
 47 89  1  0
 48 90  1  0
 48 91  1  0
 48 92  1  0
 50 93  1  0
M  END
$$$$
