
     RDKit          3D

 40 41  0  0  0  0  0  0  0  0999 V2000
   -1.3844    0.9328    1.6626 O   0  0  0  0  0  0  0  0  0  0  0  0
   -1.7085   -0.1794    1.2561 C   0  0  0  0  0  0  0  0  0  0  0  0
   -0.8445   -1.4187    1.5414 C   0  0  0  0  0  0  0  0  0  0  0  0
    0.5094   -1.0984    1.8543 O   0  0  0  0  0  0  0  0  0  0  0  0
    1.2320   -0.6713    0.7789 C   0  0  0  0  0  0  0  0  0  0  0  0
    0.8192   -0.6507   -0.3719 O   0  0  0  0  0  0  0  0  0  0  0  0
    2.6030   -0.2292    1.2367 C   0  0  0  0  0  0  0  0  0  0  0  0
    3.5371    0.0995    0.0739 C   0  0  0  0  0  0  0  0  0  0  0  0
    4.0085   -1.1284   -0.7085 C   0  0  0  0  0  0  0  0  0  0  0  0
    5.3040   -0.6909   -1.3908 C   0  0  0  0  0  0  0  0  0  0  0  0
    5.7543    0.5853   -0.6819 C   0  0  0  0  0  0  0  0  0  0  0  0
    4.8567    0.7103    0.5407 C   0  0  0  0  0  0  0  0  0  0  0  0
   -2.8522   -0.4894    0.5365 N   0  0  0  0  0  0  0  0  0  0  0  0
   -3.8826    0.3794    0.0857 C   0  0  0  0  0  0  0  0  0  0  0  0
   -3.8507    1.7543    0.3583 C   0  0  0  0  0  0  0  0  0  0  0  0
   -4.8653    2.6116   -0.0851 C   0  0  0  0  0  0  0  0  0  0  0  0
   -5.9379    2.1165   -0.8165 C   0  0  0  0  0  0  0  0  0  0  0  0
   -6.0008    0.7570   -1.1075 C   0  0  0  0  0  0  0  0  0  0  0  0
   -4.9829   -0.1098   -0.6612 C   0  0  0  0  0  0  0  0  0  0  0  0
   -5.1156   -1.5366   -1.0055 N   0  0  0  0  0  4  0  0  0  0  0  0
   -4.2978   -2.3356   -0.5200 O   0  0  0  0  0  0  0  0  0  0  0  0
   -6.0403   -1.8690   -1.7607 O   0  0  0  0  0  1  0  0  0  0  0  0
   -1.2719   -1.9172    2.4182 H   0  0  0  0  0  0  0  0  0  0  0  0
   -0.8844   -2.1302    0.7079 H   0  0  0  0  0  0  0  0  0  0  0  0
    2.4666    0.6631    1.8591 H   0  0  0  0  0  0  0  0  0  0  0  0
    3.0359   -1.0227    1.8568 H   0  0  0  0  0  0  0  0  0  0  0  0
    3.0451    0.7979   -0.6173 H   0  0  0  0  0  0  0  0  0  0  0  0
    3.2658   -1.4693   -1.4366 H   0  0  0  0  0  0  0  0  0  0  0  0
    4.2175   -1.9664   -0.0322 H   0  0  0  0  0  0  0  0  0  0  0  0
    5.1411   -0.4959   -2.4568 H   0  0  0  0  0  0  0  0  0  0  0  0
    6.0626   -1.4775   -1.3151 H   0  0  0  0  0  0  0  0  0  0  0  0
    5.6066    1.4462   -1.3450 H   0  0  0  0  0  0  0  0  0  0  0  0
    6.8140    0.5552   -0.4109 H   0  0  0  0  0  0  0  0  0  0  0  0
    4.7445    1.7501    0.8622 H   0  0  0  0  0  0  0  0  0  0  0  0
    5.2798    0.1393    1.3762 H   0  0  0  0  0  0  0  0  0  0  0  0
   -2.9677   -1.4709    0.2797 H   0  0  0  0  0  0  0  0  0  0  0  0
   -3.0397    2.2086    0.9206 H   0  0  0  0  0  0  0  0  0  0  0  0
   -4.8070    3.6739    0.1448 H   0  0  0  0  0  0  0  0  0  0  0  0
   -6.7212    2.7884   -1.1599 H   0  0  0  0  0  0  0  0  0  0  0  0
   -6.8484    0.3882   -1.6827 H   0  0  0  0  0  0  0  0  0  0  0  0
  1  2  2  0
  2  3  1  0
  3  4  1  0
  4  5  1  0
  5  6  2  0
  5  7  1  0
  7  8  1  0
  8  9  1  0
  9 10  1  0
 10 11  1  0
 11 12  1  0
  2 13  1  0
 13 14  1  0
 14 15  2  0
 15 16  1  0
 16 17  2  0
 17 18  1  0
 18 19  2  0
 19 20  1  0
 20 21  2  0
 20 22  1  0
 12  8  1  0
 19 14  1  0
  3 23  1  0
  3 24  1  0
  7 25  1  0
  7 26  1  0
  8 27  1  0
  9 28  1  0
  9 29  1  0
 10 30  1  0
 10 31  1  0
 11 32  1  0
 11 33  1  0
 12 34  1  0
 12 35  1  0
 13 36  1  0
 15 37  1  0
 16 38  1  0
 17 39  1  0
 18 40  1  0
M  CHG  2  20   1  22  -1
M  END
$$$$
