
     RDKit          3D

 39 41  0  0  0  0  0  0  0  0999 V2000
   -1.6808   -3.2037    0.2658 C   0  0  0  0  0  0  0  0  0  0  0  0
   -1.5153   -2.1802   -0.8499 C   0  0  0  0  0  0  0  0  0  0  0  0
   -1.9109   -0.8348   -0.4192 N   0  0  0  0  0  0  0  0  0  0  0  0
   -1.0193    0.0988    0.0853 C   0  0  0  0  0  0  0  0  0  0  0  0
    0.4001   -0.3191    0.2265 C   0  0  0  0  0  0  0  0  0  0  0  0
    1.3673    0.4948   -0.2232 C   0  0  0  0  0  0  0  0  0  0  0  0
    2.8035    0.1925   -0.1456 C   0  0  0  0  0  0  0  0  0  0  0  0
    3.6522    0.6967   -1.1471 C   0  0  0  0  0  0  0  0  0  0  0  0
    5.0311    0.4572   -1.1141 C   0  0  0  0  0  0  0  0  0  0  0  0
    5.5625   -0.2826   -0.0672 C   0  0  0  0  0  0  0  0  0  0  0  0
    6.8995   -0.5521    0.0243 O   0  0  0  0  0  0  0  0  0  0  0  0
    4.7324   -0.7722    0.9367 C   0  0  0  0  0  0  0  0  0  0  0  0
    5.2644   -1.4926    1.9685 O   0  0  0  0  0  0  0  0  0  0  0  0
    3.3633   -0.5369    0.9118 C   0  0  0  0  0  0  0  0  0  0  0  0
   -1.3586    1.2976    0.4471 N   0  0  0  0  0  0  0  0  0  0  0  0
   -2.6964    1.6836    0.3341 C   0  0  0  0  0  0  0  0  0  0  0  0
   -3.0603    2.9775    0.7154 C   0  0  0  0  0  0  0  0  0  0  0  0
   -4.3893    3.4007    0.6234 C   0  0  0  0  0  0  0  0  0  0  0  0
   -5.3682    2.5288    0.1481 C   0  0  0  0  0  0  0  0  0  0  0  0
   -5.0164    1.2350   -0.2347 C   0  0  0  0  0  0  0  0  0  0  0  0
   -3.6812    0.8235   -0.1382 C   0  0  0  0  0  0  0  0  0  0  0  0
   -3.2697   -0.5323   -0.5352 C   0  0  0  0  0  0  0  0  0  0  0  0
   -4.1198   -1.3222   -0.9420 O   0  0  0  0  0  0  0  0  0  0  0  0
   -1.3698   -4.1943   -0.0800 H   0  0  0  0  0  0  0  0  0  0  0  0
   -2.7243   -3.2690    0.5904 H   0  0  0  0  0  0  0  0  0  0  0  0
   -1.0785   -2.9419    1.1410 H   0  0  0  0  0  0  0  0  0  0  0  0
   -0.4799   -2.1787   -1.2039 H   0  0  0  0  0  0  0  0  0  0  0  0
   -2.1309   -2.4811   -1.7059 H   0  0  0  0  0  0  0  0  0  0  0  0
    0.6034   -1.2683    0.7031 H   0  0  0  0  0  0  0  0  0  0  0  0
    1.1033    1.4396   -0.6959 H   0  0  0  0  0  0  0  0  0  0  0  0
    3.2411    1.2787   -1.9702 H   0  0  0  0  0  0  0  0  0  0  0  0
    5.6591    0.8543   -1.9048 H   0  0  0  0  0  0  0  0  0  0  0  0
    7.3444   -0.1389   -0.7357 H   0  0  0  0  0  0  0  0  0  0  0  0
    6.2238   -1.5185    1.7799 H   0  0  0  0  0  0  0  0  0  0  0  0
    2.7537   -0.9150    1.7267 H   0  0  0  0  0  0  0  0  0  0  0  0
   -2.2989    3.6576    1.0890 H   0  0  0  0  0  0  0  0  0  0  0  0
   -4.6578    4.4102    0.9247 H   0  0  0  0  0  0  0  0  0  0  0  0
   -6.4026    2.8557    0.0767 H   0  0  0  0  0  0  0  0  0  0  0  0
   -5.7765    0.5514   -0.6058 H   0  0  0  0  0  0  0  0  0  0  0  0
  1  2  1  0
  2  3  1  0
  3  4  1  0
  4  5  1  0
  5  6  2  3
  6  7  1  0
  7  8  2  0
  8  9  1  0
  9 10  2  0
 10 11  1  0
 10 12  1  0
 12 13  1  0
 12 14  2  0
  4 15  2  0
 15 16  1  0
 16 17  2  0
 17 18  1  0
 18 19  2  0
 19 20  1  0
 20 21  2  0
 21 22  1  0
 22 23  2  0
 22  3  1  0
 14  7  1  0
 21 16  1  0
  1 24  1  0
  1 25  1  0
  1 26  1  0
  2 27  1  0
  2 28  1  0
  5 29  1  0
  6 30  1  0
  8 31  1  0
  9 32  1  0
 11 33  1  0
 13 34  1  0
 14 35  1  0
 17 36  1  0
 18 37  1  0
 19 38  1  0
 20 39  1  0
M  END
$$$$
