
     RDKit          3D

 46 48  0  0  0  0  0  0  0  0999 V2000
    3.6905   -4.3509   -0.3891 C   0  0  0  0  0  0  0  0  0  0  0  0
    4.0265   -2.8729   -0.3512 C   0  0  0  0  0  0  0  0  0  0  0  0
    2.8798   -2.1679    0.1366 O   0  0  0  0  0  0  0  0  0  0  0  0
    3.0362   -0.8101    0.2185 C   0  0  0  0  0  0  0  0  0  0  0  0
    4.0783   -0.2364   -0.0871 O   0  0  0  0  0  0  0  0  0  0  0  0
    1.7682   -0.1218    0.7504 C   0  0  0  0  0  0  0  0  0  0  0  0
    1.8648   -0.3114    2.2849 C   0  0  0  0  0  0  0  0  0  0  0  0
    0.8250    0.3055    2.9131 F   0  0  0  0  0  0  0  0  0  0  0  0
    1.8228   -1.6112    2.6641 F   0  0  0  0  0  0  0  0  0  0  0  0
    2.9957    0.2203    2.8082 F   0  0  0  0  0  0  0  0  0  0  0  0
    1.8210    1.3033    0.3730 N   0  0  0  0  0  0  0  0  0  0  0  0
    0.6750    1.8695    0.2982 C   0  0  0  0  0  0  0  0  0  0  0  0
    0.5015    3.3195    0.0863 C   0  0  0  0  0  0  0  0  0  0  0  0
   -0.7224    3.9733    0.2558 C   0  0  0  0  0  0  0  0  0  0  0  0
   -0.8023    5.3480    0.0378 C   0  0  0  0  0  0  0  0  0  0  0  0
    0.3464    6.0236   -0.3420 C   0  0  0  0  0  0  0  0  0  0  0  0
    1.5443    5.4250   -0.5119 N   0  0  0  0  0  0  0  0  0  0  0  0
    1.5978    4.0872   -0.2895 C   0  0  0  0  0  0  0  0  0  0  0  0
   -0.5111    1.2422    0.3622 O   0  0  0  0  0  0  0  0  0  0  0  0
   -0.4821   -0.0848    0.1094 C   0  0  0  0  0  0  0  0  0  0  0  0
   -1.7144   -0.6044   -0.2468 N   0  0  0  0  0  0  0  0  0  0  0  0
   -1.7731   -1.9883   -0.7448 C   0  0  0  0  0  0  0  0  0  0  0  0
   -3.1284   -2.6202   -0.4390 C   0  0  0  0  0  0  0  0  0  0  0  0
   -4.2722   -1.7670   -0.9709 C   0  0  0  0  0  0  0  0  0  0  0  0
   -4.1618   -0.3485   -0.4276 C   0  0  0  0  0  0  0  0  0  0  0  0
   -2.7958    0.2617   -0.7316 C   0  0  0  0  0  0  0  0  0  0  0  0
    0.5865   -0.7888    0.1836 N   0  0  0  0  0  0  0  0  0  0  0  0
    4.5390   -4.9348   -0.7566 H   0  0  0  0  0  0  0  0  0  0  0  0
    3.4196   -4.7102    0.6093 H   0  0  0  0  0  0  0  0  0  0  0  0
    2.8276   -4.5335   -1.0380 H   0  0  0  0  0  0  0  0  0  0  0  0
    4.8769   -2.7041    0.3187 H   0  0  0  0  0  0  0  0  0  0  0  0
    4.2743   -2.5240   -1.3599 H   0  0  0  0  0  0  0  0  0  0  0  0
   -1.6122    3.4338    0.5665 H   0  0  0  0  0  0  0  0  0  0  0  0
   -1.7378    5.8817    0.1659 H   0  0  0  0  0  0  0  0  0  0  0  0
    0.3343    7.0951   -0.5223 H   0  0  0  0  0  0  0  0  0  0  0  0
    2.5812    3.6442   -0.4324 H   0  0  0  0  0  0  0  0  0  0  0  0
   -1.5848   -1.9929   -1.8254 H   0  0  0  0  0  0  0  0  0  0  0  0
   -1.0045   -2.6141   -0.2766 H   0  0  0  0  0  0  0  0  0  0  0  0
   -3.1774   -3.6228   -0.8783 H   0  0  0  0  0  0  0  0  0  0  0  0
   -3.2394   -2.7381    0.6463 H   0  0  0  0  0  0  0  0  0  0  0  0
   -4.2431   -1.7482   -2.0670 H   0  0  0  0  0  0  0  0  0  0  0  0
   -5.2329   -2.2054   -0.6794 H   0  0  0  0  0  0  0  0  0  0  0  0
   -4.3207   -0.3636    0.6581 H   0  0  0  0  0  0  0  0  0  0  0  0
   -4.9511    0.2769   -0.8595 H   0  0  0  0  0  0  0  0  0  0  0  0
   -2.7670    1.2489   -0.2583 H   0  0  0  0  0  0  0  0  0  0  0  0
   -2.6790    0.4165   -1.8111 H   0  0  0  0  0  0  0  0  0  0  0  0
  1  2  1  0
  2  3  1  0
  3  4  1  0
  4  5  2  0
  4  6  1  0
  6  7  1  0
  7  8  1  0
  7  9  1  0
  7 10  1  0
  6 11  1  0
 11 12  2  0
 12 13  1  0
 13 14  2  0
 14 15  1  0
 15 16  2  0
 16 17  1  0
 17 18  2  0
 12 19  1  0
 19 20  1  0
 20 21  1  0
 21 22  1  0
 22 23  1  0
 23 24  1  0
 24 25  1  0
 25 26  1  0
 20 27  2  0
 27  6  1  0
 18 13  1  0
 26 21  1  0
  1 28  1  0
  1 29  1  0
  1 30  1  0
  2 31  1  0
  2 32  1  0
 14 33  1  0
 15 34  1  0
 16 35  1  0
 18 36  1  0
 22 37  1  0
 22 38  1  0
 23 39  1  0
 23 40  1  0
 24 41  1  0
 24 42  1  0
 25 43  1  0
 25 44  1  0
 26 45  1  0
 26 46  1  0
M  END
$$$$
