
     RDKit          3D

 61 63  0  0  0  0  0  0  0  0999 V2000
   -5.0379    0.4696    3.2865 C   0  0  0  0  0  0  0  0  0  0  0  0
   -4.8964    0.3355    1.7770 C   0  0  0  0  0  0  0  0  0  0  0  0
   -4.0961   -0.9190    1.4027 C   0  0  0  0  0  0  0  0  0  0  0  0
   -3.8312   -1.0287   -0.0411 N   0  0  0  0  0  0  0  0  0  0  0  0
   -5.0380   -1.1102   -0.8800 C   0  0  0  0  0  0  0  0  0  0  0  0
   -6.1357   -2.1307   -0.5387 C   0  0  0  0  0  0  0  0  0  0  0  0
   -5.7271   -3.5866   -0.6728 C   0  0  0  0  0  0  0  0  0  0  0  0
   -2.8490   -2.0833   -0.3436 C   0  0  0  0  0  0  0  0  0  0  0  0
   -1.3984   -1.6295   -0.0816 C   0  0  0  0  0  0  0  0  0  0  0  0
   -0.4685   -2.6748   -0.5271 N   0  0  0  0  0  0  0  0  0  0  0  0
    0.9911   -2.8859    0.2639 S   0  0  0  0  0  6  0  0  0  0  0  0
    0.7180   -3.0817    1.6701 O   0  0  0  0  0  0  0  0  0  0  0  0
    1.7401   -3.8496   -0.5110 O   0  0  0  0  0  0  0  0  0  0  0  0
    1.7735   -1.3028    0.0632 C   0  0  0  0  0  0  0  0  0  0  0  0
    2.4539   -1.0196   -1.1311 C   0  0  0  0  0  0  0  0  0  0  0  0
    3.0945    0.2155   -1.3067 C   0  0  0  0  0  0  0  0  0  0  0  0
    3.0548    1.1481   -0.2826 C   0  0  0  0  0  0  0  0  0  0  0  0
    2.3748    0.8444    0.9057 C   0  0  0  0  0  0  0  0  0  0  0  0
    1.7404   -0.3750    1.1044 C   0  0  0  0  0  0  0  0  0  0  0  0
    2.4754    1.9581    1.8990 C   0  0  0  0  0  0  0  0  0  0  0  0
    3.1276    3.0573    1.0633 C   0  0  0  0  0  0  0  0  0  0  0  0
    3.5894    2.4465   -0.1934 N   0  0  0  0  0  0  0  0  0  0  0  0
    4.3700    3.2083   -1.0592 C   0  0  0  0  0  0  0  0  0  0  0  0
    4.6080    4.3935   -0.7707 O   0  0  0  0  0  0  0  0  0  0  0  0
    4.9488    2.5728   -2.3467 C   0  0  0  0  0  0  0  0  0  0  0  0
    6.0896    1.5243   -2.1844 C   0  0  0  0  0  0  0  0  0  0  0  0
    7.0983    2.6615   -2.4158 C   0  0  0  0  0  0  0  0  0  0  0  0
    5.9821    3.4107   -3.1608 C   0  0  0  0  0  0  0  0  0  0  0  0
   -4.0584    0.5507    3.7679 H   0  0  0  0  0  0  0  0  0  0  0  0
   -5.5581   -0.3955    3.7088 H   0  0  0  0  0  0  0  0  0  0  0  0
   -5.6132    1.3670    3.5345 H   0  0  0  0  0  0  0  0  0  0  0  0
   -5.8998    0.3041    1.3398 H   0  0  0  0  0  0  0  0  0  0  0  0
   -4.3960    1.2284    1.3849 H   0  0  0  0  0  0  0  0  0  0  0  0
   -4.6033   -1.8159    1.7782 H   0  0  0  0  0  0  0  0  0  0  0  0
   -3.1438   -0.8602    1.9421 H   0  0  0  0  0  0  0  0  0  0  0  0
   -5.5065   -0.1177   -0.8763 H   0  0  0  0  0  0  0  0  0  0  0  0
   -4.7418   -1.2489   -1.9284 H   0  0  0  0  0  0  0  0  0  0  0  0
   -6.5327   -1.9541    0.4662 H   0  0  0  0  0  0  0  0  0  0  0  0
   -6.9735   -1.9530   -1.2249 H   0  0  0  0  0  0  0  0  0  0  0  0
   -6.6127   -4.2285   -0.6226 H   0  0  0  0  0  0  0  0  0  0  0  0
   -5.2301   -3.7740   -1.6286 H   0  0  0  0  0  0  0  0  0  0  0  0
   -5.0626   -3.8920    0.1384 H   0  0  0  0  0  0  0  0  0  0  0  0
   -3.0523   -2.9991    0.2242 H   0  0  0  0  0  0  0  0  0  0  0  0
   -2.9094   -2.3590   -1.4052 H   0  0  0  0  0  0  0  0  0  0  0  0
   -1.1880   -0.7128   -0.6438 H   0  0  0  0  0  0  0  0  0  0  0  0
   -1.2564   -1.4229    0.9828 H   0  0  0  0  0  0  0  0  0  0  0  0
   -0.4560   -2.9347   -1.5114 H   0  0  0  0  0  0  0  0  0  0  0  0
    2.4938   -1.7593   -1.9289 H   0  0  0  0  0  0  0  0  0  0  0  0
    3.5935    0.3884   -2.2484 H   0  0  0  0  0  0  0  0  0  0  0  0
    1.2401   -0.5960    2.0434 H   0  0  0  0  0  0  0  0  0  0  0  0
    3.1207    1.6641    2.7332 H   0  0  0  0  0  0  0  0  0  0  0  0
    1.4976    2.2681    2.2782 H   0  0  0  0  0  0  0  0  0  0  0  0
    2.4055    3.8441    0.8103 H   0  0  0  0  0  0  0  0  0  0  0  0
    3.9665    3.5264    1.5905 H   0  0  0  0  0  0  0  0  0  0  0  0
    4.1352    2.2622   -3.0149 H   0  0  0  0  0  0  0  0  0  0  0  0
    6.1687    1.0320   -1.2113 H   0  0  0  0  0  0  0  0  0  0  0  0
    6.0972    0.7587   -2.9694 H   0  0  0  0  0  0  0  0  0  0  0  0
    7.9781    2.4035   -3.0101 H   0  0  0  0  0  0  0  0  0  0  0  0
    7.4234    3.1572   -1.4939 H   0  0  0  0  0  0  0  0  0  0  0  0
    5.9560    3.2057   -4.2383 H   0  0  0  0  0  0  0  0  0  0  0  0
    5.9665    4.4942   -3.0159 H   0  0  0  0  0  0  0  0  0  0  0  0
  1  2  1  0
  2  3  1  0
  3  4  1  0
  4  5  1  0
  5  6  1  0
  6  7  1  0
  4  8  1  0
  8  9  1  0
  9 10  1  0
 10 11  1  0
 11 12  2  0
 11 13  2  0
 11 14  1  0
 14 15  2  0
 15 16  1  0
 16 17  2  0
 17 18  1  0
 18 19  2  0
 18 20  1  0
 20 21  1  0
 21 22  1  0
 22 23  1  0
 23 24  2  0
 23 25  1  0
 25 26  1  0
 26 27  1  0
 27 28  1  0
 19 14  1  0
 28 25  1  0
 22 17  1  0
  1 29  1  0
  1 30  1  0
  1 31  1  0
  2 32  1  0
  2 33  1  0
  3 34  1  0
  3 35  1  0
  5 36  1  0
  5 37  1  0
  6 38  1  0
  6 39  1  0
  7 40  1  0
  7 41  1  0
  7 42  1  0
  8 43  1  0
  8 44  1  0
  9 45  1  0
  9 46  1  0
 10 47  1  0
 15 48  1  0
 16 49  1  0
 19 50  1  0
 20 51  1  0
 20 52  1  0
 21 53  1  0
 21 54  1  0
 25 55  1  0
 26 56  1  0
 26 57  1  0
 27 58  1  0
 27 59  1  0
 28 60  1  0
 28 61  1  0
M  END
$$$$
