
     RDKit          3D

 53 56  0  0  0  0  0  0  0  0999 V2000
   -6.4874    0.1524    1.4034 C   0  0  0  0  0  0  0  0  0  0  0  0
   -5.8580    1.0853    0.3442 C   0  0  0  0  0  0  0  0  0  0  0  0
   -6.6737    0.9164   -0.9561 C   0  0  0  0  0  0  0  0  0  0  0  0
   -6.0180    2.5324    0.8588 C   0  0  0  0  0  0  0  0  0  0  0  0
   -4.3740    0.7942    0.0622 C   0  0  0  0  0  0  0  0  0  0  0  0
   -3.6638   -0.2309    0.7044 C   0  0  0  0  0  0  0  0  0  0  0  0
   -2.3102   -0.4811    0.4231 C   0  0  0  0  0  0  0  0  0  0  0  0
   -1.6245    0.2870   -0.5182 C   0  0  0  0  0  0  0  0  0  0  0  0
   -0.2495    0.0726   -0.8441 N   0  0  0  0  0  0  0  0  0  0  0  0
    0.4095    1.0158   -1.5826 N   0  0  0  0  0  0  0  0  0  0  0  0
    1.6702    0.5968   -1.6554 C   0  0  0  0  0  0  0  0  0  0  0  0
    1.8635   -0.6274   -1.0076 C   0  0  0  0  0  0  0  0  0  0  0  0
    0.6084   -0.9767   -0.5387 C   0  0  0  0  0  0  0  0  0  0  0  0
    0.3005   -2.2765    0.1225 C   0  0  0  0  0  0  0  0  0  0  0  0
    1.4322   -3.2898   -0.1407 C   0  0  0  0  0  0  0  0  0  0  0  0
    2.8217   -2.6681    0.0726 C   0  0  0  0  0  0  0  0  0  0  0  0
    3.0788   -1.4836   -0.8876 C   0  0  0  0  0  0  0  0  0  0  0  0
    4.1713   -0.6668   -0.4134 N   0  0  0  0  0  0  0  0  0  0  0  0
    5.4892   -1.0283   -0.5844 C   0  0  0  0  0  0  0  0  0  0  0  0
    5.8563   -1.9981   -1.2361 O   0  0  0  0  0  0  0  0  0  0  0  0
    6.4663   -0.1406    0.1051 C   0  0  0  0  0  0  0  0  0  0  0  0
    7.8278   -0.3677   -0.0267 C   0  0  0  0  0  0  0  0  0  0  0  0
    8.7525    0.4160    0.5858 N   0  0  0  0  0  0  0  0  0  0  0  0
    8.2513    1.4296    1.3300 C   0  0  0  0  0  0  0  0  0  0  0  0
    6.8887    1.6548    1.4624 C   0  0  0  0  0  0  0  0  0  0  0  0
    5.9580    0.8793    0.8584 N   0  0  0  0  0  0  0  0  0  0  0  0
   -2.3162    1.3281   -1.1523 C   0  0  0  0  0  0  0  0  0  0  0  0
   -3.6660    1.5712   -0.8703 C   0  0  0  0  0  0  0  0  0  0  0  0
   -5.9814    0.2423    2.3718 H   0  0  0  0  0  0  0  0  0  0  0  0
   -6.4458   -0.8980    1.0925 H   0  0  0  0  0  0  0  0  0  0  0  0
   -7.5437    0.3973    1.5681 H   0  0  0  0  0  0  0  0  0  0  0  0
   -6.3648    1.6244   -1.7331 H   0  0  0  0  0  0  0  0  0  0  0  0
   -6.5581   -0.0939   -1.3663 H   0  0  0  0  0  0  0  0  0  0  0  0
   -7.7422    1.0834   -0.7770 H   0  0  0  0  0  0  0  0  0  0  0  0
   -5.4267    2.6961    1.7676 H   0  0  0  0  0  0  0  0  0  0  0  0
   -5.6965    3.2739    0.1193 H   0  0  0  0  0  0  0  0  0  0  0  0
   -7.0651    2.7528    1.0982 H   0  0  0  0  0  0  0  0  0  0  0  0
   -4.1394   -0.8633    1.4497 H   0  0  0  0  0  0  0  0  0  0  0  0
   -1.8332   -1.2661    0.9946 H   0  0  0  0  0  0  0  0  0  0  0  0
    2.3938    1.1993   -2.1903 H   0  0  0  0  0  0  0  0  0  0  0  0
   -0.6359   -2.7026   -0.2517 H   0  0  0  0  0  0  0  0  0  0  0  0
    0.2133   -2.1221    1.2040 H   0  0  0  0  0  0  0  0  0  0  0  0
    1.3051   -4.1545    0.5207 H   0  0  0  0  0  0  0  0  0  0  0  0
    1.3613   -3.6614   -1.1712 H   0  0  0  0  0  0  0  0  0  0  0  0
    3.5972   -3.4309   -0.0654 H   0  0  0  0  0  0  0  0  0  0  0  0
    2.9002   -2.3331    1.1161 H   0  0  0  0  0  0  0  0  0  0  0  0
    3.3362   -1.8779   -1.8786 H   0  0  0  0  0  0  0  0  0  0  0  0
    3.9903    0.0904    0.2410 H   0  0  0  0  0  0  0  0  0  0  0  0
    8.2173   -1.1832   -0.6271 H   0  0  0  0  0  0  0  0  0  0  0  0
    8.9816    2.0632    1.8218 H   0  0  0  0  0  0  0  0  0  0  0  0
    6.5095    2.4741    2.0641 H   0  0  0  0  0  0  0  0  0  0  0  0
   -1.8220    1.9616   -1.8879 H   0  0  0  0  0  0  0  0  0  0  0  0
   -4.1557    2.3860   -1.4000 H   0  0  0  0  0  0  0  0  0  0  0  0
  1  2  1  0
  2  3  1  0
  2  4  1  0
  2  5  1  0
  5  6  2  0
  6  7  1  0
  7  8  2  0
  8  9  1  0
  9 10  1  0
 10 11  2  0
 11 12  1  0
 12 13  2  0
 13 14  1  0
 14 15  1  0
 15 16  1  0
 16 17  1  0
 17 18  1  0
 18 19  1  0
 19 20  2  0
 19 21  1  0
 21 22  2  0
 22 23  1  0
 23 24  2  0
 24 25  1  0
 25 26  2  0
  8 27  1  0
 27 28  2  0
 28  5  1  0
 13  9  1  0
 26 21  1  0
 17 12  1  0
  1 29  1  0
  1 30  1  0
  1 31  1  0
  3 32  1  0
  3 33  1  0
  3 34  1  0
  4 35  1  0
  4 36  1  0
  4 37  1  0
  6 38  1  0
  7 39  1  0
 11 40  1  0
 14 41  1  0
 14 42  1  0
 15 43  1  0
 15 44  1  0
 16 45  1  0
 16 46  1  0
 17 47  1  0
 18 48  1  0
 22 49  1  0
 24 50  1  0
 25 51  1  0
 27 52  1  0
 28 53  1  0
M  END
$$$$
