
     RDKit          3D

 39 40  0  0  0  0  0  0  0  0999 V2000
   -5.3615    1.8371    1.4919 C   0  0  0  0  0  0  0  0  0  0  0  0
   -5.2314    0.4336    0.9167 C   0  0  0  0  0  0  0  0  0  0  0  0
   -3.9572    0.2094    0.2295 N   0  0  0  0  0  0  0  0  0  0  0  0
   -3.9496    0.2996   -1.2349 C   0  0  0  0  0  0  0  0  0  0  0  0
   -3.8508    1.7296   -1.7386 C   0  0  0  0  0  0  0  0  0  0  0  0
   -2.8175    0.0008    1.0188 C   0  0  0  0  0  0  0  0  0  0  0  0
   -2.8999   -0.0549    2.2487 O   0  0  0  0  0  0  0  0  0  0  0  0
   -1.4953   -0.1733    0.2758 C   0  0  0  0  0  0  0  0  0  0  0  0
   -0.0658   -0.1916    1.4019 S   0  0  0  0  0  0  0  0  0  0  0  0
    1.2076   -0.4339    0.2577 C   0  0  0  0  0  0  0  0  0  0  0  0
    1.0849   -0.5451   -1.0421 N   0  0  0  0  0  0  0  0  0  0  0  0
    2.3458   -0.7296   -1.5579 N   0  0  0  0  0  0  0  0  0  0  0  0
    3.2260   -0.7261   -0.5641 C   0  0  0  0  0  0  0  0  0  0  0  0
    4.6710   -0.9207   -0.7315 C   0  0  0  0  0  0  0  0  0  0  0  0
    5.1350   -1.5821   -1.8731 C   0  0  0  0  0  0  0  0  0  0  0  0
    6.4977   -1.7646   -2.0395 C   0  0  0  0  0  0  0  0  0  0  0  0
    7.4233   -1.3319   -1.1589 N   0  0  0  0  0  0  0  0  0  0  0  0
    6.9638   -0.6801   -0.0722 C   0  0  0  0  0  0  0  0  0  0  0  0
    5.6197   -0.4490    0.1798 C   0  0  0  0  0  0  0  0  0  0  0  0
    2.5268   -0.5503    0.6192 N   0  0  0  0  0  0  0  0  0  0  0  0
    3.0467   -0.5480    1.9655 N   0  0  0  0  0  0  0  0  0  0  0  0
   -6.3312    1.9521    1.9872 H   0  0  0  0  0  0  0  0  0  0  0  0
   -4.5805    2.0442    2.2304 H   0  0  0  0  0  0  0  0  0  0  0  0
   -5.2883    2.5987    0.7107 H   0  0  0  0  0  0  0  0  0  0  0  0
   -5.3191   -0.2955    1.7317 H   0  0  0  0  0  0  0  0  0  0  0  0
   -6.0544    0.2344    0.2223 H   0  0  0  0  0  0  0  0  0  0  0  0
   -3.1127   -0.2778   -1.6361 H   0  0  0  0  0  0  0  0  0  0  0  0
   -4.8596   -0.1783   -1.6169 H   0  0  0  0  0  0  0  0  0  0  0  0
   -2.9932    2.2496   -1.3007 H   0  0  0  0  0  0  0  0  0  0  0  0
   -4.7516    2.2991   -1.4926 H   0  0  0  0  0  0  0  0  0  0  0  0
   -3.7385    1.7395   -2.8272 H   0  0  0  0  0  0  0  0  0  0  0  0
   -1.3640    0.6616   -0.4165 H   0  0  0  0  0  0  0  0  0  0  0  0
   -1.5290   -1.1227   -0.2643 H   0  0  0  0  0  0  0  0  0  0  0  0
    4.4457   -1.9562   -2.6220 H   0  0  0  0  0  0  0  0  0  0  0  0
    6.8898   -2.2771   -2.9116 H   0  0  0  0  0  0  0  0  0  0  0  0
    7.7292   -0.3312    0.6162 H   0  0  0  0  0  0  0  0  0  0  0  0
    5.3449    0.1009    1.0724 H   0  0  0  0  0  0  0  0  0  0  0  0
    2.8244   -1.4340    2.4224 H   0  0  0  0  0  0  0  0  0  0  0  0
    2.5689    0.1640    2.5226 H   0  0  0  0  0  0  0  0  0  0  0  0
  1  2  1  0
  2  3  1  0
  3  4  1  0
  4  5  1  0
  3  6  1  0
  6  7  2  0
  6  8  1  0
  8  9  1  0
  9 10  1  0
 10 11  2  0
 11 12  1  0
 12 13  2  0
 13 14  1  0
 14 15  2  0
 15 16  1  0
 16 17  2  0
 17 18  1  0
 18 19  2  0
 13 20  1  0
 20 21  1  0
 20 10  1  0
 19 14  1  0
  1 22  1  0
  1 23  1  0
  1 24  1  0
  2 25  1  0
  2 26  1  0
  4 27  1  0
  4 28  1  0
  5 29  1  0
  5 30  1  0
  5 31  1  0
  8 32  1  0
  8 33  1  0
 15 34  1  0
 16 35  1  0
 18 36  1  0
 19 37  1  0
 21 38  1  0
 21 39  1  0
M  END
$$$$
