
     RDKit          3D

 50 53  0  0  0  0  0  0  0  0999 V2000
   -4.4227   -1.1000    1.6235 C   0  0  0  0  0  0  0  0  0  0  0  0
   -4.0849   -1.3451    0.1491 C   0  0  0  0  0  0  0  0  0  0  0  0
   -5.0810   -0.6551   -0.7910 C   0  0  0  0  0  0  0  0  0  0  0  0
   -4.9028    0.8678   -0.7984 C   0  0  0  0  0  0  0  0  0  0  0  0
   -5.8542    1.5148   -1.8047 C   0  0  0  0  0  0  0  0  0  0  0  0
   -3.4465    1.2472   -1.1093 C   0  0  0  0  0  0  0  0  0  0  0  0
   -2.5268    0.5451   -0.2090 N   0  0  0  0  0  0  0  0  0  0  0  0
   -1.2048    0.9992   -0.2925 C   0  0  0  0  0  0  0  0  0  0  0  0
   -0.9611    2.2266   -0.7874 N   0  0  0  0  0  0  0  0  0  0  0  0
    0.3173    2.6608   -0.8208 C   0  0  0  0  0  0  0  0  0  0  0  0
    1.3755    1.9095   -0.3790 C   0  0  0  0  0  0  0  0  0  0  0  0
    1.0622    0.6608    0.1055 C   0  0  0  0  0  0  0  0  0  0  0  0
   -0.2109    0.2065    0.1564 N   0  0  0  0  0  0  0  0  0  0  0  0
    2.1291   -0.2508    0.6476 C   0  0  0  0  0  0  0  0  0  0  0  0
    3.4803    0.0276   -0.0278 C   0  0  0  0  0  0  0  0  0  0  0  0
    4.5756   -0.8832    0.4995 C   0  0  0  0  0  0  0  0  0  0  0  0
    5.2124   -1.7804   -0.3730 C   0  0  0  0  0  0  0  0  0  0  0  0
    6.2219   -2.6294    0.0881 C   0  0  0  0  0  0  0  0  0  0  0  0
    6.6036   -2.5887    1.4260 C   0  0  0  0  0  0  0  0  0  0  0  0
    7.8461   -3.6339    1.9941 Cl  0  0  0  0  0  0  0  0  0  0  0  0
    5.9843   -1.7061    2.3064 C   0  0  0  0  0  0  0  0  0  0  0  0
    4.9746   -0.8568    1.8456 C   0  0  0  0  0  0  0  0  0  0  0  0
    3.8510    1.5089    0.1163 C   0  0  0  0  0  0  0  0  0  0  0  0
    2.7589    2.4063   -0.4230 C   0  0  0  0  0  0  0  0  0  0  0  0
    2.9902    3.5353   -0.8436 O   0  0  0  0  0  0  0  0  0  0  0  0
   -2.6448   -0.9155   -0.1730 C   0  0  0  0  0  0  0  0  0  0  0  0
   -4.3147   -0.0484    1.9060 H   0  0  0  0  0  0  0  0  0  0  0  0
   -5.4516   -1.4057    1.8406 H   0  0  0  0  0  0  0  0  0  0  0  0
   -3.7598   -1.6854    2.2699 H   0  0  0  0  0  0  0  0  0  0  0  0
   -4.1596   -2.4277   -0.0176 H   0  0  0  0  0  0  0  0  0  0  0  0
   -6.1081   -0.9132   -0.5055 H   0  0  0  0  0  0  0  0  0  0  0  0
   -4.9327   -1.0441   -1.8073 H   0  0  0  0  0  0  0  0  0  0  0  0
   -5.1587    1.2566    0.1956 H   0  0  0  0  0  0  0  0  0  0  0  0
   -5.6514    1.1698   -2.8243 H   0  0  0  0  0  0  0  0  0  0  0  0
   -6.8950    1.2723   -1.5658 H   0  0  0  0  0  0  0  0  0  0  0  0
   -5.7522    2.6050   -1.7897 H   0  0  0  0  0  0  0  0  0  0  0  0
   -3.2066    1.0036   -2.1533 H   0  0  0  0  0  0  0  0  0  0  0  0
   -3.3643    2.3355   -0.9914 H   0  0  0  0  0  0  0  0  0  0  0  0
    0.4549    3.6607   -1.2232 H   0  0  0  0  0  0  0  0  0  0  0  0
    2.1858   -0.0980    1.7324 H   0  0  0  0  0  0  0  0  0  0  0  0
    1.8374   -1.2956    0.4818 H   0  0  0  0  0  0  0  0  0  0  0  0
    3.3563   -0.1730   -1.1029 H   0  0  0  0  0  0  0  0  0  0  0  0
    4.9296   -1.8287   -1.4231 H   0  0  0  0  0  0  0  0  0  0  0  0
    6.7045   -3.3176   -0.6009 H   0  0  0  0  0  0  0  0  0  0  0  0
    6.2817   -1.6733    3.3513 H   0  0  0  0  0  0  0  0  0  0  0  0
    4.5068   -0.1764    2.5541 H   0  0  0  0  0  0  0  0  0  0  0  0
    4.0262    1.7904    1.1610 H   0  0  0  0  0  0  0  0  0  0  0  0
    4.7691    1.7134   -0.4479 H   0  0  0  0  0  0  0  0  0  0  0  0
   -1.9869   -1.3596    0.5850 H   0  0  0  0  0  0  0  0  0  0  0  0
   -2.3533   -1.3322   -1.1467 H   0  0  0  0  0  0  0  0  0  0  0  0
  1  2  1  0
  2  3  1  0
  3  4  1  0
  4  5  1  0
  4  6  1  0
  6  7  1  0
  7  8  1  0
  8  9  2  0
  9 10  1  0
 10 11  2  0
 11 12  1  0
 12 13  2  0
 12 14  1  0
 14 15  1  0
 15 16  1  0
 16 17  2  0
 17 18  1  0
 18 19  2  0
 19 20  1  0
 19 21  1  0
 21 22  2  0
 15 23  1  0
 23 24  1  0
 24 25  2  0
  7 26  1  0
 26  2  1  0
 13  8  1  0
 22 16  1  0
 24 11  1  0
  1 27  1  0
  1 28  1  0
  1 29  1  0
  2 30  1  0
  3 31  1  0
  3 32  1  0
  4 33  1  0
  5 34  1  0
  5 35  1  0
  5 36  1  0
  6 37  1  0
  6 38  1  0
 10 39  1  0
 14 40  1  0
 14 41  1  0
 15 42  1  0
 17 43  1  0
 18 44  1  0
 21 45  1  0
 22 46  1  0
 23 47  1  0
 23 48  1  0
 26 49  1  0
 26 50  1  0
M  END
$$$$
