
     RDKit          3D

 37 40  0  0  0  0  0  0  0  0999 V2000
    2.1229    1.6138    1.0917 O   0  0  0  0  0  0  0  0  0  0  0  0
    1.9214    0.7211    0.2813 C   0  0  0  0  0  0  0  0  0  0  0  0
    2.7141    0.3188   -0.7668 N   0  0  0  0  0  0  0  0  0  0  0  0
    3.9384    0.8710   -1.0156 C   0  0  0  0  0  0  0  0  0  0  0  0
    4.5858    1.7979   -0.3605 N   0  0  0  0  0  0  0  0  0  0  0  0
    5.7959    2.0355   -0.9807 C   0  0  0  0  0  0  0  0  0  0  0  0
    6.0479    1.2742   -2.1026 C   0  0  0  0  0  0  0  0  0  0  0  0
    4.7214    0.2239   -2.3905 S   0  0  0  0  0  0  0  0  0  0  0  0
    0.6353   -0.0080    0.3609 C   0  0  0  0  0  0  0  0  0  0  0  0
   -0.5193    0.7663    0.2347 C   0  0  0  0  0  0  0  0  0  0  0  0
   -1.7467    0.1277    0.2282 C   0  0  0  0  0  0  0  0  0  0  0  0
   -3.0344    0.8430    0.0855 C   0  0  0  0  0  0  0  0  0  0  0  0
   -4.2150    0.3104    0.6388 C   0  0  0  0  0  0  0  0  0  0  0  0
   -5.4430    0.9689    0.5215 C   0  0  0  0  0  0  0  0  0  0  0  0
   -5.5206    2.1792   -0.1590 C   0  0  0  0  0  0  0  0  0  0  0  0
   -4.3732    2.7271   -0.7237 C   0  0  0  0  0  0  0  0  0  0  0  0
   -3.1456    2.0654   -0.6041 C   0  0  0  0  0  0  0  0  0  0  0  0
   -1.8335   -1.2215    0.3524 N   0  0  0  0  0  0  0  0  0  0  0  0
   -0.7232   -1.9613    0.5116 C   0  0  0  0  0  0  0  0  0  0  0  0
   -0.8626   -3.3348    0.6604 C   0  0  0  0  0  0  0  0  0  0  0  0
    0.2370   -4.1748    0.8501 C   0  0  0  0  0  0  0  0  0  0  0  0
    1.5133   -3.6342    0.9025 C   0  0  0  0  0  0  0  0  0  0  0  0
    1.6810   -2.2593    0.7515 C   0  0  0  0  0  0  0  0  0  0  0  0
    0.5674   -1.4059    0.5360 C   0  0  0  0  0  0  0  0  0  0  0  0
    2.4021   -0.3933   -1.4105 H   0  0  0  0  0  0  0  0  0  0  0  0
    6.4627    2.7825   -0.5672 H   0  0  0  0  0  0  0  0  0  0  0  0
    6.9175    1.2850   -2.7435 H   0  0  0  0  0  0  0  0  0  0  0  0
   -0.4383    1.8457    0.1537 H   0  0  0  0  0  0  0  0  0  0  0  0
   -4.1805   -0.6359    1.1773 H   0  0  0  0  0  0  0  0  0  0  0  0
   -6.3349    0.5320    0.9628 H   0  0  0  0  0  0  0  0  0  0  0  0
   -6.4739    2.6925   -0.2518 H   0  0  0  0  0  0  0  0  0  0  0  0
   -4.4305    3.6697   -1.2623 H   0  0  0  0  0  0  0  0  0  0  0  0
   -2.2777    2.5199   -1.0759 H   0  0  0  0  0  0  0  0  0  0  0  0
   -1.8619   -3.7649    0.6355 H   0  0  0  0  0  0  0  0  0  0  0  0
    0.0878   -5.2449    0.9702 H   0  0  0  0  0  0  0  0  0  0  0  0
    2.3741   -4.2765    1.0720 H   0  0  0  0  0  0  0  0  0  0  0  0
    2.6891   -1.8560    0.8302 H   0  0  0  0  0  0  0  0  0  0  0  0
  1  2  2  0
  2  3  1  0
  3  4  1  0
  4  5  2  0
  5  6  1  0
  6  7  2  0
  7  8  1  0
  2  9  1  0
  9 10  2  0
 10 11  1  0
 11 12  1  0
 12 13  2  0
 13 14  1  0
 14 15  2  0
 15 16  1  0
 16 17  2  0
 11 18  2  0
 18 19  1  0
 19 20  2  0
 20 21  1  0
 21 22  2  0
 22 23  1  0
 23 24  2  0
  8  4  1  0
 24  9  1  0
 17 12  1  0
 24 19  1  0
  3 25  1  0
  6 26  1  0
  7 27  1  0
 10 28  1  0
 13 29  1  0
 14 30  1  0
 15 31  1  0
 16 32  1  0
 17 33  1  0
 20 34  1  0
 21 35  1  0
 22 36  1  0
 23 37  1  0
M  END
$$$$
