
     RDKit          3D

 59 62  0  0  0  0  0  0  0  0999 V2000
    9.6002    2.3579    2.4089 C   0  0  0  0  0  0  0  0  0  0  0  0
    8.6557    3.5309    2.1992 C   0  0  0  0  0  0  0  0  0  0  0  0
    8.0801    3.5003    0.8947 O   0  0  0  0  0  0  0  0  0  0  0  0
    6.9127    2.8120    0.7105 C   0  0  0  0  0  0  0  0  0  0  0  0
    6.2985    1.9643    1.6302 C   0  0  0  0  0  0  0  0  0  0  0  0
    5.1162    1.2963    1.2948 C   0  0  0  0  0  0  0  0  0  0  0  0
    4.5273    1.4739    0.0375 C   0  0  0  0  0  0  0  0  0  0  0  0
    3.2819    0.7091   -0.3332 C   0  0  0  0  0  0  0  0  0  0  0  0
    3.6300   -0.6571   -0.9277 C   0  0  0  0  0  0  0  0  0  0  0  0
    2.4498   -1.4166   -1.2924 N   0  0  0  0  0  0  0  0  0  0  0  0
    1.7542   -2.1591   -0.3564 C   0  0  0  0  0  0  0  0  0  0  0  0
    2.0923   -2.2467    0.8224 O   0  0  0  0  0  0  0  0  0  0  0  0
    0.5211   -2.8539   -0.9047 C   0  0  0  0  0  0  0  0  0  0  0  0
   -0.7477   -2.0898   -0.6240 C   0  0  0  0  0  0  0  0  0  0  0  0
   -1.2746   -2.0514    0.6747 C   0  0  0  0  0  0  0  0  0  0  0  0
   -2.4446   -1.3383    0.9431 C   0  0  0  0  0  0  0  0  0  0  0  0
   -3.1111   -0.6613   -0.0799 C   0  0  0  0  0  0  0  0  0  0  0  0
   -4.2685    0.0739    0.2061 N   0  0  0  0  0  0  0  0  0  0  0  0
   -5.4369   -0.4437    0.0095 C   0  0  0  0  0  0  0  0  0  0  0  0
   -6.5956    0.2279    0.3034 N   0  0  0  0  0  0  0  0  0  0  0  0
   -7.7631   -0.6220    0.4838 C   0  0  0  0  0  0  0  0  0  0  0  0
   -9.0674    0.1132    0.2209 C   0  0  0  0  0  0  0  0  0  0  0  0
   -9.5836   -0.3599   -1.4131 S   0  0  0  0  0  6  0  0  0  0  0  0
  -10.6680   -1.3090   -1.2781 O   0  0  0  0  0  0  0  0  0  0  0  0
   -9.6938    0.8191   -2.2400 O   0  0  0  0  0  0  0  0  0  0  0  0
   -8.1255   -1.2602   -1.8668 C   0  0  0  0  0  0  0  0  0  0  0  0
   -7.6022   -1.7634   -0.5328 C   0  0  0  0  0  0  0  0  0  0  0  0
   -5.8043   -2.0590   -0.5973 S   0  0  0  0  0  0  0  0  0  0  0  0
   -2.5735   -0.6757   -1.3699 C   0  0  0  0  0  0  0  0  0  0  0  0
   -1.4049   -1.3905   -1.6445 C   0  0  0  0  0  0  0  0  0  0  0  0
    5.1408    2.3321   -0.8824 C   0  0  0  0  0  0  0  0  0  0  0  0
    6.3257    2.9903   -0.5457 C   0  0  0  0  0  0  0  0  0  0  0  0
   10.0850    2.4192    3.3888 H   0  0  0  0  0  0  0  0  0  0  0  0
   10.3777    2.3490    1.6364 H   0  0  0  0  0  0  0  0  0  0  0  0
    9.0723    1.4028    2.3386 H   0  0  0  0  0  0  0  0  0  0  0  0
    9.2413    4.4579    2.2560 H   0  0  0  0  0  0  0  0  0  0  0  0
    7.8960    3.6067    2.9874 H   0  0  0  0  0  0  0  0  0  0  0  0
    6.7172    1.7847    2.6119 H   0  0  0  0  0  0  0  0  0  0  0  0
    4.6618    0.6288    2.0208 H   0  0  0  0  0  0  0  0  0  0  0  0
    2.6421    0.5950    0.5521 H   0  0  0  0  0  0  0  0  0  0  0  0
    2.6889    1.2911   -1.0513 H   0  0  0  0  0  0  0  0  0  0  0  0
    4.2196   -1.2472   -0.2142 H   0  0  0  0  0  0  0  0  0  0  0  0
    4.2303   -0.5441   -1.8376 H   0  0  0  0  0  0  0  0  0  0  0  0
    2.0315   -1.2481   -2.1995 H   0  0  0  0  0  0  0  0  0  0  0  0
    0.6380   -3.0188   -1.9818 H   0  0  0  0  0  0  0  0  0  0  0  0
    0.4619   -3.8530   -0.4592 H   0  0  0  0  0  0  0  0  0  0  0  0
   -0.7676   -2.5667    1.4887 H   0  0  0  0  0  0  0  0  0  0  0  0
   -2.8365   -1.3044    1.9567 H   0  0  0  0  0  0  0  0  0  0  0  0
   -6.4441    0.9949    0.9528 H   0  0  0  0  0  0  0  0  0  0  0  0
   -7.7482   -1.0033    1.5126 H   0  0  0  0  0  0  0  0  0  0  0  0
   -9.8483   -0.2169    0.9127 H   0  0  0  0  0  0  0  0  0  0  0  0
   -8.9699    1.2008    0.2708 H   0  0  0  0  0  0  0  0  0  0  0  0
   -8.3952   -2.0673   -2.5524 H   0  0  0  0  0  0  0  0  0  0  0  0
   -7.4526   -0.5573   -2.3685 H   0  0  0  0  0  0  0  0  0  0  0  0
   -8.1397   -2.6601   -0.2077 H   0  0  0  0  0  0  0  0  0  0  0  0
   -3.0715   -0.1272   -2.1645 H   0  0  0  0  0  0  0  0  0  0  0  0
   -1.0164   -1.3930   -2.6598 H   0  0  0  0  0  0  0  0  0  0  0  0
    4.7069    2.4927   -1.8681 H   0  0  0  0  0  0  0  0  0  0  0  0
    6.7983    3.6511   -1.2724 H   0  0  0  0  0  0  0  0  0  0  0  0
  1  2  1  0
  2  3  1  0
  3  4  1  0
  4  5  2  0
  5  6  1  0
  6  7  2  0
  7  8  1  0
  8  9  1  0
  9 10  1  0
 10 11  1  0
 11 12  2  0
 11 13  1  0
 13 14  1  0
 14 15  2  0
 15 16  1  0
 16 17  2  0
 17 18  1  0
 18 19  2  3
 19 20  1  0
 20 21  1  0
 21 22  1  0
 22 23  1  0
 23 24  2  0
 23 25  2  0
 23 26  1  0
 26 27  1  0
 27 28  1  0
 17 29  1  0
 29 30  2  0
  7 31  1  0
 31 32  2  0
 32  4  1  0
 30 14  1  0
 28 19  1  0
 27 21  1  0
  1 33  1  0
  1 34  1  0
  1 35  1  0
  2 36  1  0
  2 37  1  0
  5 38  1  0
  6 39  1  0
  8 40  1  0
  8 41  1  0
  9 42  1  0
  9 43  1  0
 10 44  1  0
 13 45  1  0
 13 46  1  0
 15 47  1  0
 16 48  1  0
 20 49  1  0
 21 50  1  0
 22 51  1  0
 22 52  1  0
 26 53  1  0
 26 54  1  0
 27 55  1  0
 29 56  1  0
 30 57  1  0
 31 58  1  0
 32 59  1  0
M  END
$$$$
