
     RDKit          3D

 40 41  0  0  0  0  0  0  0  0999 V2000
   -0.4835   -0.2595   -0.9304 O   0  0  0  0  0  0  0  0  0  0  0  0
   -1.2002   -0.9877   -0.2497 C   0  0  0  0  0  0  0  0  0  0  0  0
   -0.6765   -2.3123    0.3279 C   0  0  0  0  0  0  0  0  0  0  0  0
    0.7466   -2.3618    0.4035 O   0  0  0  0  0  0  0  0  0  0  0  0
    1.2673   -1.5702    1.3814 C   0  0  0  0  0  0  0  0  0  0  0  0
    0.6108   -0.9596    2.2144 O   0  0  0  0  0  0  0  0  0  0  0  0
    2.7713   -1.5443    1.2982 C   0  0  0  0  0  0  0  0  0  0  0  0
    3.2491   -0.6654    0.1488 C   0  0  0  0  0  0  0  0  0  0  0  0
    2.9793    0.8244    0.3582 C   0  0  0  0  0  0  0  0  0  0  0  0
    3.9257    1.5175   -0.6174 C   0  0  0  0  0  0  0  0  0  0  0  0
    5.0614    0.5290   -0.8838 C   0  0  0  0  0  0  0  0  0  0  0  0
    4.7660   -0.6929   -0.0213 C   0  0  0  0  0  0  0  0  0  0  0  0
   -2.5298   -0.7625    0.0713 N   0  0  0  0  0  0  0  0  0  0  0  0
   -3.3528    0.3438   -0.2722 C   0  0  0  0  0  0  0  0  0  0  0  0
   -2.8611    1.4110   -1.0374 C   0  0  0  0  0  0  0  0  0  0  0  0
   -3.6709    2.5024   -1.3757 C   0  0  0  0  0  0  0  0  0  0  0  0
   -4.9949    2.5553   -0.9573 C   0  0  0  0  0  0  0  0  0  0  0  0
   -5.5158    1.5142   -0.1947 C   0  0  0  0  0  0  0  0  0  0  0  0
   -4.7036    0.4144    0.1495 C   0  0  0  0  0  0  0  0  0  0  0  0
   -5.3217   -0.6498    0.9603 N   0  0  0  0  0  4  0  0  0  0  0  0
   -6.4715   -0.4647    1.3840 O   0  0  0  0  0  0  0  0  0  0  0  0
   -4.6619   -1.6799    1.1772 O   0  0  0  0  0  1  0  0  0  0  0  0
   -1.1188   -2.5186    1.3099 H   0  0  0  0  0  0  0  0  0  0  0  0
   -0.9949   -3.1114   -0.3503 H   0  0  0  0  0  0  0  0  0  0  0  0
    3.1282   -2.5745    1.1813 H   0  0  0  0  0  0  0  0  0  0  0  0
    3.1614   -1.1909    2.2602 H   0  0  0  0  0  0  0  0  0  0  0  0
    2.7762   -0.9844   -0.7901 H   0  0  0  0  0  0  0  0  0  0  0  0
    1.9350    1.0927    0.1708 H   0  0  0  0  0  0  0  0  0  0  0  0
    3.2236    1.1247    1.3847 H   0  0  0  0  0  0  0  0  0  0  0  0
    3.4072    1.7493   -1.5548 H   0  0  0  0  0  0  0  0  0  0  0  0
    4.2965    2.4618   -0.2061 H   0  0  0  0  0  0  0  0  0  0  0  0
    5.0692    0.2523   -1.9444 H   0  0  0  0  0  0  0  0  0  0  0  0
    6.0407    0.9580   -0.6493 H   0  0  0  0  0  0  0  0  0  0  0  0
    5.2692   -0.5920    0.9483 H   0  0  0  0  0  0  0  0  0  0  0  0
    5.1171   -1.6184   -0.4878 H   0  0  0  0  0  0  0  0  0  0  0  0
   -2.9808   -1.4803    0.6404 H   0  0  0  0  0  0  0  0  0  0  0  0
   -1.8355    1.4357   -1.3944 H   0  0  0  0  0  0  0  0  0  0  0  0
   -3.2547    3.3141   -1.9698 H   0  0  0  0  0  0  0  0  0  0  0  0
   -5.6180    3.4063   -1.2231 H   0  0  0  0  0  0  0  0  0  0  0  0
   -6.5550    1.5746    0.1246 H   0  0  0  0  0  0  0  0  0  0  0  0
  1  2  2  0
  2  3  1  0
  3  4  1  0
  4  5  1  0
  5  6  2  0
  5  7  1  0
  7  8  1  0
  8  9  1  0
  9 10  1  0
 10 11  1  0
 11 12  1  0
  2 13  1  0
 13 14  1  0
 14 15  2  0
 15 16  1  0
 16 17  2  0
 17 18  1  0
 18 19  2  0
 19 20  1  0
 20 21  2  0
 20 22  1  0
 12  8  1  0
 19 14  1  0
  3 23  1  0
  3 24  1  0
  7 25  1  0
  7 26  1  0
  8 27  1  0
  9 28  1  0
  9 29  1  0
 10 30  1  0
 10 31  1  0
 11 32  1  0
 11 33  1  0
 12 34  1  0
 12 35  1  0
 13 36  1  0
 15 37  1  0
 16 38  1  0
 17 39  1  0
 18 40  1  0
M  CHG  2  20   1  22  -1
M  END
$$$$
