
     RDKit          3D

 65 69  0  0  0  0  0  0  0  0999 V2000
   -6.9164    4.9155    1.3699 C   0  0  0  0  0  0  0  0  0  0  0  0
   -5.4996    4.9242    1.2448 O   0  0  0  0  0  0  0  0  0  0  0  0
   -4.8720    3.7075    1.2274 C   0  0  0  0  0  0  0  0  0  0  0  0
   -3.4886    3.7746    1.1115 C   0  0  0  0  0  0  0  0  0  0  0  0
   -2.7125    2.6115    1.0817 C   0  0  0  0  0  0  0  0  0  0  0  0
   -3.3234    1.3352    1.1673 C   0  0  0  0  0  0  0  0  0  0  0  0
   -2.7485    0.0074    1.1605 C   0  0  0  0  0  0  0  0  0  0  0  0
   -1.3289   -0.3075    1.0350 C   0  0  0  0  0  0  0  0  0  0  0  0
   -0.6617   -0.0560   -0.1688 C   0  0  0  0  0  0  0  0  0  0  0  0
    0.6992   -0.3538   -0.3027 C   0  0  0  0  0  0  0  0  0  0  0  0
    1.4048   -0.9032    0.7676 C   0  0  0  0  0  0  0  0  0  0  0  0
    2.7302   -1.2358    0.7814 O   0  0  0  0  0  0  0  0  0  0  0  0
    3.4843   -1.1168   -0.4291 C   0  0  0  0  0  0  0  0  0  0  0  0
    4.0706    0.2991   -0.5711 C   0  0  0  0  0  0  0  0  0  0  0  0
    4.8629    0.4804   -1.7990 N   0  0  0  0  0  0  0  0  0  0  0  0
    6.1359   -0.2598   -1.7764 C   0  0  0  0  0  0  0  0  0  0  0  0
    7.3859    0.6080   -1.9393 C   0  0  0  0  0  0  0  0  0  0  0  0
    7.2960    1.5107   -3.1645 C   0  0  0  0  0  0  0  0  0  0  0  0
    5.8984    2.0984   -3.3511 C   0  0  0  0  0  0  0  0  0  0  0  0
    5.0159    1.9047   -2.1192 C   0  0  0  0  0  0  0  0  0  0  0  0
    0.7372   -1.1451    1.9721 C   0  0  0  0  0  0  0  0  0  0  0  0
   -0.6212   -0.8502    2.1099 C   0  0  0  0  0  0  0  0  0  0  0  0
   -3.7091   -0.9854    1.2762 C   0  0  0  0  0  0  0  0  0  0  0  0
   -3.5611   -2.4490    1.2984 C   0  0  0  0  0  0  0  0  0  0  0  0
   -3.7692   -3.1360    2.5071 C   0  0  0  0  0  0  0  0  0  0  0  0
   -3.6112   -4.5194    2.5753 C   0  0  0  0  0  0  0  0  0  0  0  0
   -3.2448   -5.2307    1.4370 C   0  0  0  0  0  0  0  0  0  0  0  0
   -3.0339   -4.5628    0.2281 C   0  0  0  0  0  0  0  0  0  0  0  0
   -3.1805   -3.1725    0.1499 C   0  0  0  0  0  0  0  0  0  0  0  0
   -3.0196   -2.4591   -1.0122 O   0  0  0  0  0  0  0  0  0  0  0  0
   -2.1600   -3.0327   -1.9896 C   0  0  0  0  0  0  0  0  0  0  0  0
   -5.2837   -0.3274    1.3904 S   0  0  0  0  0  0  0  0  0  0  0  0
   -4.7129    1.2908    1.2875 C   0  0  0  0  0  0  0  0  0  0  0  0
   -5.5011    2.4638    1.3165 C   0  0  0  0  0  0  0  0  0  0  0  0
   -7.2277    4.4530    2.3121 H   0  0  0  0  0  0  0  0  0  0  0  0
   -7.3842    4.4210    0.5125 H   0  0  0  0  0  0  0  0  0  0  0  0
   -7.2569    5.9548    1.3820 H   0  0  0  0  0  0  0  0  0  0  0  0
   -2.9981    4.7433    1.0455 H   0  0  0  0  0  0  0  0  0  0  0  0
   -1.6314    2.6943    0.9963 H   0  0  0  0  0  0  0  0  0  0  0  0
   -1.2022    0.3628   -1.0151 H   0  0  0  0  0  0  0  0  0  0  0  0
    1.1707   -0.1370   -1.2550 H   0  0  0  0  0  0  0  0  0  0  0  0
    2.9059   -1.4236   -1.3085 H   0  0  0  0  0  0  0  0  0  0  0  0
    4.2974   -1.8459   -0.3423 H   0  0  0  0  0  0  0  0  0  0  0  0
    4.6613    0.5506    0.3206 H   0  0  0  0  0  0  0  0  0  0  0  0
    3.2329    1.0079   -0.5696 H   0  0  0  0  0  0  0  0  0  0  0  0
    6.1052   -0.9861   -2.5997 H   0  0  0  0  0  0  0  0  0  0  0  0
    6.2544   -0.8476   -0.8574 H   0  0  0  0  0  0  0  0  0  0  0  0
    7.5200    1.2240   -1.0402 H   0  0  0  0  0  0  0  0  0  0  0  0
    8.2761   -0.0273   -2.0140 H   0  0  0  0  0  0  0  0  0  0  0  0
    7.5706    0.9472   -4.0654 H   0  0  0  0  0  0  0  0  0  0  0  0
    8.0335    2.3173   -3.0707 H   0  0  0  0  0  0  0  0  0  0  0  0
    5.9751    3.1653   -3.5911 H   0  0  0  0  0  0  0  0  0  0  0  0
    5.4205    1.6232   -4.2184 H   0  0  0  0  0  0  0  0  0  0  0  0
    5.4345    2.4600   -1.2695 H   0  0  0  0  0  0  0  0  0  0  0  0
    4.0308    2.3370   -2.3332 H   0  0  0  0  0  0  0  0  0  0  0  0
    1.2795   -1.5699    2.8134 H   0  0  0  0  0  0  0  0  0  0  0  0
   -1.1174   -1.0489    3.0564 H   0  0  0  0  0  0  0  0  0  0  0  0
   -4.0523   -2.5908    3.4048 H   0  0  0  0  0  0  0  0  0  0  0  0
   -3.7766   -5.0398    3.5149 H   0  0  0  0  0  0  0  0  0  0  0  0
   -3.1291   -6.3105    1.4862 H   0  0  0  0  0  0  0  0  0  0  0  0
   -2.7712   -5.1555   -0.6420 H   0  0  0  0  0  0  0  0  0  0  0  0
   -1.9433   -2.2633   -2.7391 H   0  0  0  0  0  0  0  0  0  0  0  0
   -2.6554   -3.8624   -2.5029 H   0  0  0  0  0  0  0  0  0  0  0  0
   -1.2072   -3.3491   -1.5520 H   0  0  0  0  0  0  0  0  0  0  0  0
   -6.5768    2.3674    1.4076 H   0  0  0  0  0  0  0  0  0  0  0  0
  1  2  1  0
  2  3  1  0
  3  4  2  0
  4  5  1  0
  5  6  2  0
  6  7  1  0
  7  8  1  0
  8  9  2  0
  9 10  1  0
 10 11  2  0
 11 12  1  0
 12 13  1  0
 13 14  1  0
 14 15  1  0
 15 16  1  0
 16 17  1  0
 17 18  1  0
 18 19  1  0
 19 20  1  0
 11 21  1  0
 21 22  2  0
  7 23  2  0
 23 24  1  0
 24 25  2  0
 25 26  1  0
 26 27  2  0
 27 28  1  0
 28 29  2  0
 29 30  1  0
 30 31  1  0
 23 32  1  0
 32 33  1  0
 33 34  2  0
 34  3  1  0
 33  6  1  0
 22  8  1  0
 29 24  1  0
 20 15  1  0
  1 35  1  0
  1 36  1  0
  1 37  1  0
  4 38  1  0
  5 39  1  0
  9 40  1  0
 10 41  1  0
 13 42  1  0
 13 43  1  0
 14 44  1  0
 14 45  1  0
 16 46  1  0
 16 47  1  0
 17 48  1  0
 17 49  1  0
 18 50  1  0
 18 51  1  0
 19 52  1  0
 19 53  1  0
 20 54  1  0
 20 55  1  0
 21 56  1  0
 22 57  1  0
 25 58  1  0
 26 59  1  0
 27 60  1  0
 28 61  1  0
 31 62  1  0
 31 63  1  0
 31 64  1  0
 34 65  1  0
M  END
$$$$
