
     RDKit          3D

 40 41  0  0  0  0  0  0  0  0999 V2000
    1.6685    3.7112   -0.1610 O   0  0  0  0  0  0  0  0  0  0  0  0
    1.6338    3.6017    1.0522 C   0  0  0  0  0  0  0  0  0  0  0  0
    2.3561    4.4196    1.8411 O   0  0  0  0  0  0  0  0  0  0  0  0
    0.8044    2.6337    1.8489 C   0  0  0  0  0  0  0  0  0  0  0  0
    0.2410    1.5300    0.9442 C   0  0  0  0  0  0  0  0  0  0  0  0
   -0.6134    0.5642    1.6749 N   0  0  0  0  0  0  0  0  0  0  0  0
   -1.9151    1.1170    2.0448 C   0  0  0  0  0  0  0  0  0  0  0  0
   -2.7864    0.0691    2.6464 C   0  0  0  0  0  0  0  0  0  0  0  0
   -2.6196   -0.8426    3.6706 C   0  0  0  0  0  0  0  0  0  0  0  0
   -3.8364   -1.5599    3.7717 C   0  0  0  0  0  0  0  0  0  0  0  0
   -4.6697   -1.0379    2.8111 C   0  0  0  0  0  0  0  0  0  0  0  0
   -4.0447   -0.0456    2.1277 O   0  0  0  0  0  0  0  0  0  0  0  0
    1.4109    0.7395    0.3313 C   0  0  0  0  0  0  0  0  0  0  0  0
    2.4614    0.4984    0.9155 O   0  0  0  0  0  0  0  0  0  0  0  0
    1.0960    0.3186   -0.9256 O   0  0  0  0  0  0  0  0  0  0  0  0
    2.1187   -0.4549   -1.5635 C   0  0  0  0  0  0  0  0  0  0  0  0
    1.6217   -0.9168   -2.9297 C   0  0  0  0  0  0  0  0  0  0  0  0
    0.3860   -1.8026   -2.8640 C   0  0  0  0  0  0  0  0  0  0  0  0
    0.4996   -2.5718   -4.1563 C   0  0  0  0  0  0  0  0  0  0  0  0
    1.9935   -2.7969   -4.2573 C   0  0  0  0  0  0  0  0  0  0  0  0
    2.6312   -1.6872   -3.6072 O   0  0  0  0  0  0  0  0  0  0  0  0
    2.8587    4.9842    1.2165 H   0  0  0  0  0  0  0  0  0  0  0  0
   -0.0018    3.2087    2.3155 H   0  0  0  0  0  0  0  0  0  0  0  0
    1.4323    2.2036    2.6383 H   0  0  0  0  0  0  0  0  0  0  0  0
   -0.3215    1.9789    0.1148 H   0  0  0  0  0  0  0  0  0  0  0  0
   -0.1261    0.2288    2.5052 H   0  0  0  0  0  0  0  0  0  0  0  0
   -2.4105    1.5294    1.1579 H   0  0  0  0  0  0  0  0  0  0  0  0
   -1.8034    1.9278    2.7726 H   0  0  0  0  0  0  0  0  0  0  0  0
   -1.7273   -0.9764    4.2657 H   0  0  0  0  0  0  0  0  0  0  0  0
   -4.0768   -2.3592    4.4582 H   0  0  0  0  0  0  0  0  0  0  0  0
   -5.6839   -1.2505    2.5024 H   0  0  0  0  0  0  0  0  0  0  0  0
    3.0217    0.1554   -1.6893 H   0  0  0  0  0  0  0  0  0  0  0  0
    2.3806   -1.3231   -0.9455 H   0  0  0  0  0  0  0  0  0  0  0  0
    1.4026   -0.0411   -3.5542 H   0  0  0  0  0  0  0  0  0  0  0  0
    0.4451   -2.4958   -2.0161 H   0  0  0  0  0  0  0  0  0  0  0  0
   -0.5441   -1.2338   -2.7785 H   0  0  0  0  0  0  0  0  0  0  0  0
    0.1589   -1.9483   -4.9912 H   0  0  0  0  0  0  0  0  0  0  0  0
   -0.0741   -3.5024   -4.1667 H   0  0  0  0  0  0  0  0  0  0  0  0
    2.3385   -2.8651   -5.2930 H   0  0  0  0  0  0  0  0  0  0  0  0
    2.2936   -3.7080   -3.7287 H   0  0  0  0  0  0  0  0  0  0  0  0
  1  2  2  0
  2  3  1  0
  2  4  1  0
  4  5  1  0
  5  6  1  0
  6  7  1  0
  7  8  1  0
  8  9  2  0
  9 10  1  0
 10 11  2  0
 11 12  1  0
  5 13  1  0
 13 14  2  0
 13 15  1  0
 15 16  1  0
 16 17  1  0
 17 18  1  0
 18 19  1  0
 19 20  1  0
 20 21  1  0
 12  8  1  0
 21 17  1  0
  3 22  1  0
  4 23  1  0
  4 24  1  0
  5 25  1  0
  6 26  1  0
  7 27  1  0
  7 28  1  0
  9 29  1  0
 10 30  1  0
 11 31  1  0
 16 32  1  0
 16 33  1  0
 17 34  1  0
 18 35  1  0
 18 36  1  0
 19 37  1  0
 19 38  1  0
 20 39  1  0
 20 40  1  0
M  END
$$$$
