
     RDKit          3D

 35 38  0  0  0  0  0  0  0  0999 V2000
   -1.6730   -0.0698   -2.2481 O   0  0  0  0  0  0  0  0  0  0  0  0
   -1.0751    0.1956   -0.8860 P   0  0  0  0  0  5  0  0  0  0  0  0
   -0.6114    1.7193   -0.4829 N   0  0  0  0  0  0  0  0  0  0  0  0
   -1.5883    2.6192   -0.3095 C   0  0  0  0  0  0  0  0  0  0  0  0
   -2.8419    2.3308   -0.0511 N   0  0  0  0  0  0  0  0  0  0  0  0
   -3.5845    3.4874    0.0755 C   0  0  0  0  0  0  0  0  0  0  0  0
   -2.8821    4.6611   -0.0761 C   0  0  0  0  0  0  0  0  0  0  0  0
   -1.2365    4.3056   -0.3866 S   0  0  0  0  0  0  0  0  0  0  0  0
   -1.6895   -0.8020    0.4566 C   0  0  0  0  0  0  0  0  0  0  0  0
   -1.3063   -0.5523    1.7832 C   0  0  0  0  0  0  0  0  0  0  0  0
   -1.7880   -1.3490    2.8228 C   0  0  0  0  0  0  0  0  0  0  0  0
   -2.6604   -2.4005    2.5487 C   0  0  0  0  0  0  0  0  0  0  0  0
   -3.0561   -2.6546    1.2370 C   0  0  0  0  0  0  0  0  0  0  0  0
   -2.5748   -1.8588    0.1971 C   0  0  0  0  0  0  0  0  0  0  0  0
    0.6628   -0.2962   -0.9345 C   0  0  0  0  0  0  0  0  0  0  0  0
    1.6690    0.5593   -0.8291 N   0  0  0  0  0  0  0  0  0  0  0  0
    2.8706   -0.1224   -0.9299 C   0  0  0  0  0  0  0  0  0  0  0  0
    4.1542    0.4547   -0.8485 C   0  0  0  0  0  0  0  0  0  0  0  0
    5.2901   -0.3529   -0.9681 C   0  0  0  0  0  0  0  0  0  0  0  0
    5.1618   -1.7234   -1.1684 C   0  0  0  0  0  0  0  0  0  0  0  0
    3.9001   -2.3201   -1.2546 C   0  0  0  0  0  0  0  0  0  0  0  0
    2.7659   -1.5003   -1.1318 C   0  0  0  0  0  0  0  0  0  0  0  0
    1.1025   -1.9366   -1.1976 S   0  0  0  0  0  0  0  0  0  0  0  0
    0.2861    2.0463   -0.8243 H   0  0  0  0  0  0  0  0  0  0  0  0
   -4.6453    3.4152    0.2834 H   0  0  0  0  0  0  0  0  0  0  0  0
   -3.2450    5.6769   -0.0192 H   0  0  0  0  0  0  0  0  0  0  0  0
   -0.6309    0.2703    2.0101 H   0  0  0  0  0  0  0  0  0  0  0  0
   -1.4858   -1.1468    3.8472 H   0  0  0  0  0  0  0  0  0  0  0  0
   -3.0381   -3.0189    3.3590 H   0  0  0  0  0  0  0  0  0  0  0  0
   -3.7426   -3.4700    1.0236 H   0  0  0  0  0  0  0  0  0  0  0  0
   -2.8934   -2.0582   -0.8251 H   0  0  0  0  0  0  0  0  0  0  0  0
    4.2523    1.5245   -0.6935 H   0  0  0  0  0  0  0  0  0  0  0  0
    6.2785    0.0966   -0.9048 H   0  0  0  0  0  0  0  0  0  0  0  0
    6.0533   -2.3406   -1.2609 H   0  0  0  0  0  0  0  0  0  0  0  0
    3.8018   -3.3895   -1.4136 H   0  0  0  0  0  0  0  0  0  0  0  0
  1  2  2  0
  2  3  1  0
  3  4  1  0
  4  5  2  0
  5  6  1  0
  6  7  2  0
  7  8  1  0
  2  9  1  0
  9 10  2  0
 10 11  1  0
 11 12  2  0
 12 13  1  0
 13 14  2  0
  2 15  1  0
 15 16  2  0
 16 17  1  0
 17 18  2  0
 18 19  1  0
 19 20  2  0
 20 21  1  0
 21 22  2  0
 22 23  1  0
  8  4  1  0
 14  9  1  0
 23 15  1  0
 22 17  1  0
  3 24  1  0
  6 25  1  0
  7 26  1  0
 10 27  1  0
 11 28  1  0
 12 29  1  0
 13 30  1  0
 14 31  1  0
 18 32  1  0
 19 33  1  0
 20 34  1  0
 21 35  1  0
M  END
$$$$
