
     RDKit          3D

 55 58  0  0  0  0  0  0  0  0999 V2000
   -0.2483   -0.4215    1.5647 O   0  0  0  0  0  0  0  0  0  0  0  0
   -0.1264   -1.4364    0.8799 C   0  0  0  0  0  0  0  0  0  0  0  0
    1.1567   -1.6762    0.1959 C   0  0  0  0  0  0  0  0  0  0  0  0
    2.2221   -0.7704    0.3149 C   0  0  0  0  0  0  0  0  0  0  0  0
    3.4469   -0.9839   -0.3371 C   0  0  0  0  0  0  0  0  0  0  0  0
    4.5007   -0.0969   -0.2210 N   0  0  0  0  0  0  0  0  0  0  0  0
    4.5614    0.9151    0.8484 C   0  0  0  0  0  0  0  0  0  0  0  0
    6.0224    1.3202    1.1087 C   0  0  0  0  0  0  0  0  0  0  0  0
    6.6943    1.8634   -0.0364 O   0  0  0  0  0  0  0  0  0  0  0  0
    6.1730    1.3804   -1.2815 C   0  0  0  0  0  0  0  0  0  0  0  0
    5.5929   -0.0425   -1.2081 C   0  0  0  0  0  0  0  0  0  0  0  0
    3.5480   -2.1544   -1.1103 C   0  0  0  0  0  0  0  0  0  0  0  0
    2.4884   -3.0635   -1.2336 C   0  0  0  0  0  0  0  0  0  0  0  0
    1.2916   -2.8144   -0.5753 C   0  0  0  0  0  0  0  0  0  0  0  0
    0.2307   -3.7066   -0.6870 N   0  0  0  0  0  0  0  0  0  0  0  0
   -0.9821   -3.5384   -0.0753 C   0  0  0  0  0  0  0  0  0  0  0  0
   -2.1092   -4.7543   -0.3398 S   0  0  0  0  0  0  0  0  0  0  0  0
   -1.1442   -2.3885    0.6993 N   0  0  0  0  0  0  0  0  0  0  0  0
   -2.4131   -2.0967    1.3872 C   0  0  0  0  0  0  0  0  0  0  0  0
   -3.4582   -1.4042    0.4987 C   0  0  0  0  0  0  0  0  0  0  0  0
   -3.0675    0.0308    0.1185 C   0  0  0  0  0  0  0  0  0  0  0  0
   -4.0718    0.6806   -0.7440 N   0  0  0  0  0  0  0  0  0  0  0  0
   -3.5189    1.8740   -1.4086 C   0  0  0  0  0  0  0  0  0  0  0  0
   -3.3098    3.0665   -0.4719 C   0  0  0  0  0  0  0  0  0  0  0  0
   -4.5961    3.4193    0.2669 C   0  0  0  0  0  0  0  0  0  0  0  0
   -5.1989    2.1881    0.9349 C   0  0  0  0  0  0  0  0  0  0  0  0
   -5.3244    1.0242   -0.0524 C   0  0  0  0  0  0  0  0  0  0  0  0
    2.0661    0.1231    0.9140 H   0  0  0  0  0  0  0  0  0  0  0  0
    4.1500    0.5245    1.7862 H   0  0  0  0  0  0  0  0  0  0  0  0
    3.9791    1.7924    0.5432 H   0  0  0  0  0  0  0  0  0  0  0  0
    6.0686    2.0715    1.9035 H   0  0  0  0  0  0  0  0  0  0  0  0
    6.6002    0.4519    1.4471 H   0  0  0  0  0  0  0  0  0  0  0  0
    5.4031    2.0868   -1.6143 H   0  0  0  0  0  0  0  0  0  0  0  0
    6.9859    1.4170   -2.0139 H   0  0  0  0  0  0  0  0  0  0  0  0
    5.2388   -0.3106   -2.2100 H   0  0  0  0  0  0  0  0  0  0  0  0
    6.3750   -0.7496   -0.9084 H   0  0  0  0  0  0  0  0  0  0  0  0
    4.4770   -2.3973   -1.6202 H   0  0  0  0  0  0  0  0  0  0  0  0
    2.6222   -3.9548   -1.8400 H   0  0  0  0  0  0  0  0  0  0  0  0
    0.3365   -4.5428   -1.2509 H   0  0  0  0  0  0  0  0  0  0  0  0
   -2.8348   -3.0330    1.7683 H   0  0  0  0  0  0  0  0  0  0  0  0
   -2.2258   -1.4801    2.2745 H   0  0  0  0  0  0  0  0  0  0  0  0
   -3.6310   -1.9865   -0.4134 H   0  0  0  0  0  0  0  0  0  0  0  0
   -4.4000   -1.3999    1.0579 H   0  0  0  0  0  0  0  0  0  0  0  0
   -2.8644    0.6167    1.0215 H   0  0  0  0  0  0  0  0  0  0  0  0
   -2.1270   -0.0261   -0.4419 H   0  0  0  0  0  0  0  0  0  0  0  0
   -4.2057    2.1695   -2.2129 H   0  0  0  0  0  0  0  0  0  0  0  0
   -2.5758    1.6281   -1.9121 H   0  0  0  0  0  0  0  0  0  0  0  0
   -2.9717    3.9332   -1.0514 H   0  0  0  0  0  0  0  0  0  0  0  0
   -2.5172    2.8438    0.2523 H   0  0  0  0  0  0  0  0  0  0  0  0
   -4.4004    4.1956    1.0148 H   0  0  0  0  0  0  0  0  0  0  0  0
   -5.3198    3.8358   -0.4448 H   0  0  0  0  0  0  0  0  0  0  0  0
   -4.5823    1.8936    1.7921 H   0  0  0  0  0  0  0  0  0  0  0  0
   -6.1889    2.4382    1.3334 H   0  0  0  0  0  0  0  0  0  0  0  0
   -6.0691    1.2915   -0.8143 H   0  0  0  0  0  0  0  0  0  0  0  0
   -5.7488    0.1536    0.4576 H   0  0  0  0  0  0  0  0  0  0  0  0
  1  2  2  0
  2  3  1  0
  3  4  2  0
  4  5  1  0
  5  6  1  0
  6  7  1  0
  7  8  1  0
  8  9  1  0
  9 10  1  0
 10 11  1  0
  5 12  2  0
 12 13  1  0
 13 14  2  0
 14 15  1  0
 15 16  1  0
 16 17  2  0
 16 18  1  0
 18 19  1  0
 19 20  1  0
 20 21  1  0
 21 22  1  0
 22 23  1  0
 23 24  1  0
 24 25  1  0
 25 26  1  0
 26 27  1  0
 18  2  1  0
 27 22  1  0
 14  3  1  0
 11  6  1  0
  4 28  1  0
  7 29  1  0
  7 30  1  0
  8 31  1  0
  8 32  1  0
 10 33  1  0
 10 34  1  0
 11 35  1  0
 11 36  1  0
 12 37  1  0
 13 38  1  0
 15 39  1  0
 19 40  1  0
 19 41  1  0
 20 42  1  0
 20 43  1  0
 21 44  1  0
 21 45  1  0
 23 46  1  0
 23 47  1  0
 24 48  1  0
 24 49  1  0
 25 50  1  0
 25 51  1  0
 26 52  1  0
 26 53  1  0
 27 54  1  0
 27 55  1  0
M  END
$$$$
