
     RDKit          3D

 45 47  0  0  0  0  0  0  0  0999 V2000
    2.7153   -1.5763   -1.2820 O   0  0  0  0  0  0  0  0  0  0  0  0
    1.9815   -0.5956   -1.1252 C   0  0  0  0  0  0  0  0  0  0  0  0
    2.5398    0.8028   -1.3460 C   0  0  0  0  0  0  0  0  0  0  0  0
    2.8433    1.6440    0.2460 S   0  0  0  0  0  0  0  0  0  0  0  0
    4.5550    1.2241    0.5140 C   0  0  0  0  0  0  0  0  0  0  0  0
    4.9658   -0.0963    0.7204 C   0  0  0  0  0  0  0  0  0  0  0  0
    6.3147   -0.3913    0.9392 C   0  0  0  0  0  0  0  0  0  0  0  0
    7.2530    0.6379    0.9632 C   0  0  0  0  0  0  0  0  0  0  0  0
    9.0766    0.2404    1.2602 Br  0  0  0  0  0  0  0  0  0  0  0  0
    6.8545    1.9592    0.7746 C   0  0  0  0  0  0  0  0  0  0  0  0
    5.5053    2.2507    0.5545 C   0  0  0  0  0  0  0  0  0  0  0  0
    0.6508   -0.7391   -0.7409 N   0  0  0  0  0  0  0  0  0  0  0  0
   -0.3601    0.3225   -0.8467 C   0  0  0  0  0  0  0  0  0  0  0  0
   -1.4987    0.1597    0.1725 C   0  0  0  0  0  0  0  0  0  0  0  0
   -2.0943   -1.2098    0.0628 N   0  0  0  0  0  0  0  0  0  0  0  0
   -3.5046   -1.4538    1.0000 S   0  0  0  0  0  6  0  0  0  0  0  0
   -3.2213   -0.9676    2.3339 O   0  0  0  0  0  0  0  0  0  0  0  0
   -3.9668   -2.8058    0.7727 O   0  0  0  0  0  0  0  0  0  0  0  0
   -4.6738   -0.3617    0.2327 C   0  0  0  0  0  0  0  0  0  0  0  0
   -5.1962    0.7215    0.9443 C   0  0  0  0  0  0  0  0  0  0  0  0
   -6.1108    1.5705    0.3212 C   0  0  0  0  0  0  0  0  0  0  0  0
   -6.5001    1.3322   -0.9988 C   0  0  0  0  0  0  0  0  0  0  0  0
   -5.9806    0.2431   -1.7015 C   0  0  0  0  0  0  0  0  0  0  0  0
   -5.0657   -0.6105   -1.0865 C   0  0  0  0  0  0  0  0  0  0  0  0
   -1.0396   -2.2415    0.3338 C   0  0  0  0  0  0  0  0  0  0  0  0
    0.1078   -2.1023   -0.6750 C   0  0  0  0  0  0  0  0  0  0  0  0
    3.4662    0.7304   -1.9265 H   0  0  0  0  0  0  0  0  0  0  0  0
    1.8484    1.3930   -1.9537 H   0  0  0  0  0  0  0  0  0  0  0  0
    4.2469   -0.9122    0.7200 H   0  0  0  0  0  0  0  0  0  0  0  0
    6.6170   -1.4242    1.0917 H   0  0  0  0  0  0  0  0  0  0  0  0
    7.5806    2.7673    0.7995 H   0  0  0  0  0  0  0  0  0  0  0  0
    5.2047    3.2867    0.4147 H   0  0  0  0  0  0  0  0  0  0  0  0
   -0.7587    0.2746   -1.8676 H   0  0  0  0  0  0  0  0  0  0  0  0
    0.0860    1.3097   -0.7177 H   0  0  0  0  0  0  0  0  0  0  0  0
   -1.1098    0.3142    1.1860 H   0  0  0  0  0  0  0  0  0  0  0  0
   -2.2542    0.9236   -0.0320 H   0  0  0  0  0  0  0  0  0  0  0  0
   -4.9029    0.9073    1.9751 H   0  0  0  0  0  0  0  0  0  0  0  0
   -6.5268    2.4152    0.8655 H   0  0  0  0  0  0  0  0  0  0  0  0
   -7.2179    1.9935   -1.4790 H   0  0  0  0  0  0  0  0  0  0  0  0
   -6.2953    0.0571   -2.7256 H   0  0  0  0  0  0  0  0  0  0  0  0
   -4.6661   -1.4644   -1.6292 H   0  0  0  0  0  0  0  0  0  0  0  0
   -1.4619   -3.2472    0.2398 H   0  0  0  0  0  0  0  0  0  0  0  0
   -0.6577   -2.1151    1.3540 H   0  0  0  0  0  0  0  0  0  0  0  0
   -0.2466   -2.3490   -1.6836 H   0  0  0  0  0  0  0  0  0  0  0  0
    0.8973   -2.8173   -0.4200 H   0  0  0  0  0  0  0  0  0  0  0  0
  1  2  2  0
  2  3  1  0
  3  4  1  0
  4  5  1  0
  5  6  2  0
  6  7  1  0
  7  8  2  0
  8  9  1  0
  8 10  1  0
 10 11  2  0
  2 12  1  0
 12 13  1  0
 13 14  1  0
 14 15  1  0
 15 16  1  0
 16 17  2  0
 16 18  2  0
 16 19  1  0
 19 20  2  0
 20 21  1  0
 21 22  2  0
 22 23  1  0
 23 24  2  0
 15 25  1  0
 25 26  1  0
 11  5  1  0
 26 12  1  0
 24 19  1  0
  3 27  1  0
  3 28  1  0
  6 29  1  0
  7 30  1  0
 10 31  1  0
 11 32  1  0
 13 33  1  0
 13 34  1  0
 14 35  1  0
 14 36  1  0
 20 37  1  0
 21 38  1  0
 22 39  1  0
 23 40  1  0
 24 41  1  0
 25 42  1  0
 25 43  1  0
 26 44  1  0
 26 45  1  0
M  END
$$$$
