
     RDKit          3D

 50 52  0  0  0  0  0  0  0  0999 V2000
    5.9745   -3.5894   -1.6181 C   0  0  0  0  0  0  0  0  0  0  0  0
    5.0033   -2.5299   -1.1886 C   0  0  0  0  0  0  0  0  0  0  0  0
    3.7948   -2.8793   -0.5767 C   0  0  0  0  0  0  0  0  0  0  0  0
    2.9079   -1.8895   -0.1441 C   0  0  0  0  0  0  0  0  0  0  0  0
    3.2165   -0.5375   -0.3172 C   0  0  0  0  0  0  0  0  0  0  0  0
    2.0560    0.6894    0.2508 S   0  0  0  0  0  0  0  0  0  0  0  0
    1.8774    1.6825   -1.2644 C   0  0  0  0  0  0  0  0  0  0  0  0
    0.6570    2.5869   -1.1507 C   0  0  0  0  0  0  0  0  0  0  0  0
    0.8326    3.7795   -0.8820 O   0  0  0  0  0  0  0  0  0  0  0  0
   -0.6164    2.0582   -1.3701 N   0  0  0  0  0  0  0  0  0  0  0  0
   -0.8781    0.6669   -1.7778 C   0  0  0  0  0  0  0  0  0  0  0  0
   -1.3276   -0.1778   -0.6383 C   0  0  0  0  0  0  0  0  0  0  0  0
   -2.2737    0.0242    0.2514 N   0  0  0  0  0  0  0  0  0  0  0  0
   -2.2161   -1.1202    1.0198 C   0  0  0  0  0  0  0  0  0  0  0  0
   -3.0894   -1.3277    2.1708 C   0  0  0  0  0  0  0  0  0  0  0  0
   -4.0074   -0.3360    2.5479 C   0  0  0  0  0  0  0  0  0  0  0  0
   -4.8486   -0.5239    3.6479 C   0  0  0  0  0  0  0  0  0  0  0  0
   -4.7815   -1.7054    4.3832 C   0  0  0  0  0  0  0  0  0  0  0  0
   -3.8745   -2.6990    4.0212 C   0  0  0  0  0  0  0  0  0  0  0  0
   -3.0326   -2.5117    2.9212 C   0  0  0  0  0  0  0  0  0  0  0  0
   -1.3030   -2.0106    0.5944 N   0  0  0  0  0  0  0  0  0  0  0  0
   -0.7167   -1.3889   -0.5035 O   0  0  0  0  0  0  0  0  0  0  0  0
   -1.8098    2.9130   -1.1757 C   0  0  0  0  0  0  0  0  0  0  0  0
   -1.9260    3.4719    0.2451 C   0  0  0  0  0  0  0  0  0  0  0  0
   -1.9008    4.0214   -2.2262 C   0  0  0  0  0  0  0  0  0  0  0  0
    4.4363   -0.1857   -0.9012 C   0  0  0  0  0  0  0  0  0  0  0  0
    5.3244   -1.1754   -1.3326 C   0  0  0  0  0  0  0  0  0  0  0  0
    5.4555   -4.5230   -1.8603 H   0  0  0  0  0  0  0  0  0  0  0  0
    6.5177   -3.2772   -2.5166 H   0  0  0  0  0  0  0  0  0  0  0  0
    6.6945   -3.7842   -0.8168 H   0  0  0  0  0  0  0  0  0  0  0  0
    3.5350   -3.9251   -0.4264 H   0  0  0  0  0  0  0  0  0  0  0  0
    1.9753   -2.1878    0.3311 H   0  0  0  0  0  0  0  0  0  0  0  0
    1.8273    1.0680   -2.1660 H   0  0  0  0  0  0  0  0  0  0  0  0
    2.7603    2.3228   -1.3723 H   0  0  0  0  0  0  0  0  0  0  0  0
    0.0015    0.2236   -2.2463 H   0  0  0  0  0  0  0  0  0  0  0  0
   -1.6546    0.6828   -2.5514 H   0  0  0  0  0  0  0  0  0  0  0  0
   -4.0717    0.5944    1.9866 H   0  0  0  0  0  0  0  0  0  0  0  0
   -5.5539    0.2536    3.9303 H   0  0  0  0  0  0  0  0  0  0  0  0
   -5.4345   -1.8509    5.2401 H   0  0  0  0  0  0  0  0  0  0  0  0
   -3.8188   -3.6200    4.5961 H   0  0  0  0  0  0  0  0  0  0  0  0
   -2.3293   -3.2993    2.6579 H   0  0  0  0  0  0  0  0  0  0  0  0
   -2.6904    2.2757   -1.3262 H   0  0  0  0  0  0  0  0  0  0  0  0
   -1.1657    4.2280    0.4612 H   0  0  0  0  0  0  0  0  0  0  0  0
   -1.8247    2.6760    0.9900 H   0  0  0  0  0  0  0  0  0  0  0  0
   -2.9039    3.9444    0.3887 H   0  0  0  0  0  0  0  0  0  0  0  0
   -1.1005    4.7598   -2.1225 H   0  0  0  0  0  0  0  0  0  0  0  0
   -1.8374    3.6017   -3.2358 H   0  0  0  0  0  0  0  0  0  0  0  0
   -2.8545    4.5538   -2.1412 H   0  0  0  0  0  0  0  0  0  0  0  0
    4.7210    0.8576   -1.0103 H   0  0  0  0  0  0  0  0  0  0  0  0
    6.2736   -0.8807   -1.7761 H   0  0  0  0  0  0  0  0  0  0  0  0
  1  2  1  0
  2  3  2  0
  3  4  1  0
  4  5  2  0
  5  6  1  0
  6  7  1  0
  7  8  1  0
  8  9  2  0
  8 10  1  0
 10 11  1  0
 11 12  1  0
 12 13  2  0
 13 14  1  0
 14 15  1  0
 15 16  2  0
 16 17  1  0
 17 18  2  0
 18 19  1  0
 19 20  2  0
 14 21  2  0
 21 22  1  0
 10 23  1  0
 23 24  1  0
 23 25  1  0
  5 26  1  0
 26 27  2  0
 27  2  1  0
 22 12  1  0
 20 15  1  0
  1 28  1  0
  1 29  1  0
  1 30  1  0
  3 31  1  0
  4 32  1  0
  7 33  1  0
  7 34  1  0
 11 35  1  0
 11 36  1  0
 16 37  1  0
 17 38  1  0
 18 39  1  0
 19 40  1  0
 20 41  1  0
 23 42  1  0
 24 43  1  0
 24 44  1  0
 24 45  1  0
 25 46  1  0
 25 47  1  0
 25 48  1  0
 26 49  1  0
 27 50  1  0
M  END
$$$$
