
     RDKit          3D

 43 46  0  0  0  0  0  0  0  0999 V2000
   -5.1001   -2.9842    1.0149 C   0  0  0  0  0  0  0  0  0  0  0  0
   -3.6873   -2.5319    0.7012 C   0  0  0  0  0  0  0  0  0  0  0  0
   -3.7400   -1.1665    0.2756 O   0  0  0  0  0  0  0  0  0  0  0  0
   -2.5267   -0.6268   -0.0290 C   0  0  0  0  0  0  0  0  0  0  0  0
   -1.4633   -1.2327    0.0226 O   0  0  0  0  0  0  0  0  0  0  0  0
   -2.6849    0.7597   -0.4323 C   0  0  0  0  0  0  0  0  0  0  0  0
   -3.8626    1.4892   -0.5512 C   0  0  0  0  0  0  0  0  0  0  0  0
   -3.4940    2.8007   -0.9536 C   0  0  0  0  0  0  0  0  0  0  0  0
   -4.2450    4.3148   -1.3287 S   0  0  0  0  0  0  0  0  0  0  0  0
   -2.6976    5.0033   -1.6252 C   0  0  0  0  0  0  0  0  0  0  0  0
   -1.6466    4.1271   -1.4551 C   0  0  0  0  0  0  0  0  0  0  0  0
   -2.1377    2.8484   -1.0681 C   0  0  0  0  0  0  0  0  0  0  0  0
   -1.6343    1.6017   -0.7601 N   0  0  0  0  0  0  0  0  0  0  0  0
   -0.2162    1.2710   -0.8130 C   0  0  0  0  0  0  0  0  0  0  0  0
    0.4209    1.1891    0.5602 C   0  0  0  0  0  0  0  0  0  0  0  0
   -0.0374    1.7656    1.5462 O   0  0  0  0  0  0  0  0  0  0  0  0
    1.6827    0.4054    0.7123 C   0  0  0  0  0  0  0  0  0  0  0  0
    2.1059    0.0698    2.0079 C   0  0  0  0  0  0  0  0  0  0  0  0
    3.2788   -0.6634    2.2035 C   0  0  0  0  0  0  0  0  0  0  0  0
    4.0353   -1.0626    1.1059 C   0  0  0  0  0  0  0  0  0  0  0  0
    3.6377   -0.7009   -0.1850 C   0  0  0  0  0  0  0  0  0  0  0  0
    2.4589    0.0192   -0.3867 C   0  0  0  0  0  0  0  0  0  0  0  0
    4.3550   -1.0237   -1.3095 O   0  0  0  0  0  0  0  0  0  0  0  0
    5.6815   -1.4543   -0.9792 C   0  0  0  0  0  0  0  0  0  0  0  0
    5.6558   -2.4340    0.1824 C   0  0  0  0  0  0  0  0  0  0  0  0
    5.1622   -1.7979    1.3668 O   0  0  0  0  0  0  0  0  0  0  0  0
   -5.1118   -4.0265    1.3457 H   0  0  0  0  0  0  0  0  0  0  0  0
   -5.7412   -2.8857    0.1326 H   0  0  0  0  0  0  0  0  0  0  0  0
   -5.5397   -2.3591    1.7992 H   0  0  0  0  0  0  0  0  0  0  0  0
   -3.0643   -2.6169    1.5986 H   0  0  0  0  0  0  0  0  0  0  0  0
   -3.2697   -3.1531   -0.0990 H   0  0  0  0  0  0  0  0  0  0  0  0
   -4.8653    1.1274   -0.3648 H   0  0  0  0  0  0  0  0  0  0  0  0
   -2.6396    6.0440   -1.9134 H   0  0  0  0  0  0  0  0  0  0  0  0
   -0.6076    4.3945   -1.5938 H   0  0  0  0  0  0  0  0  0  0  0  0
   -0.1358    0.3246   -1.3550 H   0  0  0  0  0  0  0  0  0  0  0  0
    0.2973    2.0436   -1.3942 H   0  0  0  0  0  0  0  0  0  0  0  0
    1.5171    0.3711    2.8732 H   0  0  0  0  0  0  0  0  0  0  0  0
    3.5928   -0.9302    3.2091 H   0  0  0  0  0  0  0  0  0  0  0  0
    2.1860    0.2778   -1.4045 H   0  0  0  0  0  0  0  0  0  0  0  0
    6.1056   -1.9317   -1.8680 H   0  0  0  0  0  0  0  0  0  0  0  0
    6.2859   -0.5693   -0.7447 H   0  0  0  0  0  0  0  0  0  0  0  0
    6.6669   -2.7944    0.3962 H   0  0  0  0  0  0  0  0  0  0  0  0
    5.0223   -3.3022   -0.0378 H   0  0  0  0  0  0  0  0  0  0  0  0
  1  2  1  0
  2  3  1  0
  3  4  1  0
  4  5  2  0
  4  6  1  0
  6  7  2  0
  7  8  1  0
  8  9  1  0
  9 10  1  0
 10 11  2  0
 11 12  1  0
 12 13  1  0
 13 14  1  0
 14 15  1  0
 15 16  2  0
 15 17  1  0
 17 18  2  0
 18 19  1  0
 19 20  2  0
 20 21  1  0
 21 22  2  0
 21 23  1  0
 23 24  1  0
 24 25  1  0
 25 26  1  0
 13  6  1  0
 22 17  1  0
 12  8  2  0
 26 20  1  0
  1 27  1  0
  1 28  1  0
  1 29  1  0
  2 30  1  0
  2 31  1  0
  7 32  1  0
 10 33  1  0
 11 34  1  0
 14 35  1  0
 14 36  1  0
 18 37  1  0
 19 38  1  0
 22 39  1  0
 24 40  1  0
 24 41  1  0
 25 42  1  0
 25 43  1  0
M  END
$$$$
