
     RDKit          3D

 48 50  0  0  0  0  0  0  0  0999 V2000
   -2.4462    2.9151   -2.9280 C   0  0  0  0  0  0  0  0  0  0  0  0
   -2.9109    3.1688   -1.5042 C   0  0  0  0  0  0  0  0  0  0  0  0
   -2.7890    1.9412   -0.7758 O   0  0  0  0  0  0  0  0  0  0  0  0
   -3.2128    1.9929    0.5086 C   0  0  0  0  0  0  0  0  0  0  0  0
   -3.6612    2.9804    1.0747 O   0  0  0  0  0  0  0  0  0  0  0  0
   -3.0395    0.7047    1.1959 C   0  0  0  0  0  0  0  0  0  0  0  0
   -3.1061    0.6806    2.5714 C   0  0  0  0  0  0  0  0  0  0  0  0
   -2.9708   -0.4380    3.3175 N   0  0  0  0  0  0  0  0  0  0  0  0
   -2.7586   -1.5846    2.6490 C   0  0  0  0  0  0  0  0  0  0  0  0
   -2.5904   -3.1004    3.5547 S   0  0  0  0  0  0  0  0  0  0  0  0
   -2.6338   -2.4749    5.2495 C   0  0  0  0  0  0  0  0  0  0  0  0
   -2.6830   -1.6778    1.3152 N   0  0  0  0  0  0  0  0  0  0  0  0
   -2.8100   -0.5240    0.6150 C   0  0  0  0  0  0  0  0  0  0  0  0
   -2.8004   -0.6527   -0.7617 O   0  0  0  0  0  0  0  0  0  0  0  0
   -1.6635   -1.2259   -1.2878 C   0  0  0  0  0  0  0  0  0  0  0  0
   -1.8317   -2.2887   -2.1723 C   0  0  0  0  0  0  0  0  0  0  0  0
   -0.7141   -2.8756   -2.7589 C   0  0  0  0  0  0  0  0  0  0  0  0
    0.5648   -2.3891   -2.4669 C   0  0  0  0  0  0  0  0  0  0  0  0
    0.7394   -1.3085   -1.5902 C   0  0  0  0  0  0  0  0  0  0  0  0
    2.0619   -0.8756   -1.3497 N   0  0  0  0  0  0  0  0  0  0  0  0
    2.4718    0.0976   -0.4574 C   0  0  0  0  0  0  0  0  0  0  0  0
    1.7686    0.7332    0.3189 O   0  0  0  0  0  0  0  0  0  0  0  0
    3.9408    0.3401   -0.4323 C   0  0  0  0  0  0  0  0  0  0  0  0
    4.5547    0.5996    0.8014 C   0  0  0  0  0  0  0  0  0  0  0  0
    5.9313    0.8254    0.8653 C   0  0  0  0  0  0  0  0  0  0  0  0
    6.6896    0.8059   -0.3040 C   0  0  0  0  0  0  0  0  0  0  0  0
    8.3847    1.0851   -0.2246 Cl  0  0  0  0  0  0  0  0  0  0  0  0
    6.0834    0.5669   -1.5385 C   0  0  0  0  0  0  0  0  0  0  0  0
    4.7061    0.3378   -1.6064 C   0  0  0  0  0  0  0  0  0  0  0  0
   -0.3861   -0.7187   -1.0153 C   0  0  0  0  0  0  0  0  0  0  0  0
   -2.5076    3.8263   -3.5288 H   0  0  0  0  0  0  0  0  0  0  0  0
   -1.4125    2.5523   -2.9378 H   0  0  0  0  0  0  0  0  0  0  0  0
   -3.0606    2.1407   -3.4013 H   0  0  0  0  0  0  0  0  0  0  0  0
   -2.2831    3.9374   -1.0375 H   0  0  0  0  0  0  0  0  0  0  0  0
   -3.9590    3.4978   -1.5074 H   0  0  0  0  0  0  0  0  0  0  0  0
   -3.2705    1.5878    3.1456 H   0  0  0  0  0  0  0  0  0  0  0  0
   -3.5920   -1.9957    5.4633 H   0  0  0  0  0  0  0  0  0  0  0  0
   -2.5095   -3.3131    5.9383 H   0  0  0  0  0  0  0  0  0  0  0  0
   -1.8195   -1.7645    5.4263 H   0  0  0  0  0  0  0  0  0  0  0  0
   -2.8272   -2.6657   -2.3911 H   0  0  0  0  0  0  0  0  0  0  0  0
   -0.8367   -3.7138   -3.4403 H   0  0  0  0  0  0  0  0  0  0  0  0
    1.4194   -2.8709   -2.9342 H   0  0  0  0  0  0  0  0  0  0  0  0
    2.7844   -1.3985   -1.8268 H   0  0  0  0  0  0  0  0  0  0  0  0
    3.9603    0.6236    1.7124 H   0  0  0  0  0  0  0  0  0  0  0  0
    6.4013    1.0174    1.8258 H   0  0  0  0  0  0  0  0  0  0  0  0
    6.6758    0.5680   -2.4489 H   0  0  0  0  0  0  0  0  0  0  0  0
    4.2425    0.1902   -2.5785 H   0  0  0  0  0  0  0  0  0  0  0  0
   -0.2946    0.1399   -0.3606 H   0  0  0  0  0  0  0  0  0  0  0  0
  1  2  1  0
  2  3  1  0
  3  4  1  0
  4  5  2  0
  4  6  1  0
  6  7  2  0
  7  8  1  0
  8  9  2  0
  9 10  1  0
 10 11  1  0
  9 12  1  0
 12 13  2  0
 13 14  1  0
 14 15  1  0
 15 16  2  0
 16 17  1  0
 17 18  2  0
 18 19  1  0
 19 20  1  0
 20 21  1  0
 21 22  2  0
 21 23  1  0
 23 24  2  0
 24 25  1  0
 25 26  2  0
 26 27  1  0
 26 28  1  0
 28 29  2  0
 19 30  2  0
 13  6  1  0
 30 15  1  0
 29 23  1  0
  1 31  1  0
  1 32  1  0
  1 33  1  0
  2 34  1  0
  2 35  1  0
  7 36  1  0
 11 37  1  0
 11 38  1  0
 11 39  1  0
 16 40  1  0
 17 41  1  0
 18 42  1  0
 20 43  1  0
 24 44  1  0
 25 45  1  0
 28 46  1  0
 29 47  1  0
 30 48  1  0
M  END
$$$$
