
     RDKit          3D

 54 57  0  0  0  0  0  0  0  0999 V2000
   -5.0208    1.3539    0.4616 C   0  0  0  0  0  0  0  0  0  0  0  0
   -4.6752    0.3820    1.5941 C   0  0  0  0  0  0  0  0  0  0  0  0
   -4.7580    1.0820    2.9566 C   0  0  0  0  0  0  0  0  0  0  0  0
   -4.6239    0.0928    4.1176 C   0  0  0  0  0  0  0  0  0  0  0  0
   -3.8390   -1.1705    3.7648 C   0  0  0  0  0  0  0  0  0  0  0  0
   -2.7403   -0.8876    2.7468 C   0  0  0  0  0  0  0  0  0  0  0  0
   -3.3094   -0.3261    1.4258 C   0  0  0  0  0  0  0  0  0  0  0  0
   -3.3994   -1.3749    0.4242 N   0  0  0  0  0  0  0  0  0  0  0  0
   -2.4091   -1.2746   -0.5262 C   0  0  0  0  0  0  0  0  0  0  0  0
   -2.1957   -2.1152   -1.3835 O   0  0  0  0  0  0  0  0  0  0  0  0
   -1.7482   -0.1038   -0.3367 N   0  0  0  0  0  0  0  0  0  0  0  0
   -0.5944    0.3087   -1.0960 C   0  0  0  0  0  0  0  0  0  0  0  0
    0.6682   -0.2644   -0.4492 C   0  0  0  0  0  0  0  0  0  0  0  0
    0.6636   -0.9386    0.5777 O   0  0  0  0  0  0  0  0  0  0  0  0
    1.8258    0.0603   -1.1252 N   0  0  0  0  0  0  0  0  0  0  0  0
    3.1315   -0.4170   -0.6923 C   0  0  0  0  0  0  0  0  0  0  0  0
    3.3672   -1.8672   -1.1448 C   0  0  0  0  0  0  0  0  0  0  0  0
    3.6842   -1.9340   -2.6355 C   0  0  0  0  0  0  0  0  0  0  0  0
    4.9686   -1.1684   -2.9436 C   0  0  0  0  0  0  0  0  0  0  0  0
    5.0242    0.1946   -2.2986 C   0  0  0  0  0  0  0  0  0  0  0  0
    5.9742    1.1221   -2.7545 C   0  0  0  0  0  0  0  0  0  0  0  0
    6.0886    2.3772   -2.1570 C   0  0  0  0  0  0  0  0  0  0  0  0
    5.2616    2.7182   -1.0914 C   0  0  0  0  0  0  0  0  0  0  0  0
    4.3206    1.8029   -0.6221 C   0  0  0  0  0  0  0  0  0  0  0  0
    4.1948    0.5326   -1.2122 C   0  0  0  0  0  0  0  0  0  0  0  0
   -2.2151    0.5463    0.7705 C   0  0  0  0  0  0  0  0  0  0  0  0
   -1.8112    1.6220    1.1942 O   0  0  0  0  0  0  0  0  0  0  0  0
   -4.9559    0.8627   -0.5149 H   0  0  0  0  0  0  0  0  0  0  0  0
   -6.0464    1.7217    0.5768 H   0  0  0  0  0  0  0  0  0  0  0  0
   -4.3603    2.2271    0.4554 H   0  0  0  0  0  0  0  0  0  0  0  0
   -5.4612   -0.3887    1.5807 H   0  0  0  0  0  0  0  0  0  0  0  0
   -5.7054    1.6248    3.0583 H   0  0  0  0  0  0  0  0  0  0  0  0
   -3.9633    1.8356    3.0313 H   0  0  0  0  0  0  0  0  0  0  0  0
   -5.6206   -0.2029    4.4677 H   0  0  0  0  0  0  0  0  0  0  0  0
   -4.1456    0.6052    4.9610 H   0  0  0  0  0  0  0  0  0  0  0  0
   -3.4086   -1.5992    4.6773 H   0  0  0  0  0  0  0  0  0  0  0  0
   -4.5230   -1.9271    3.3591 H   0  0  0  0  0  0  0  0  0  0  0  0
   -2.0359   -0.1736    3.1956 H   0  0  0  0  0  0  0  0  0  0  0  0
   -2.1668   -1.8062    2.5673 H   0  0  0  0  0  0  0  0  0  0  0  0
   -3.9111   -2.2416    0.5274 H   0  0  0  0  0  0  0  0  0  0  0  0
   -0.5255    1.4014   -1.0983 H   0  0  0  0  0  0  0  0  0  0  0  0
   -0.6721   -0.0704   -2.1201 H   0  0  0  0  0  0  0  0  0  0  0  0
    1.7787    0.5501   -2.0098 H   0  0  0  0  0  0  0  0  0  0  0  0
    3.1507   -0.4053    0.4054 H   0  0  0  0  0  0  0  0  0  0  0  0
    4.2103   -2.2915   -0.5834 H   0  0  0  0  0  0  0  0  0  0  0  0
    2.4936   -2.4920   -0.9255 H   0  0  0  0  0  0  0  0  0  0  0  0
    2.8508   -1.5166   -3.2138 H   0  0  0  0  0  0  0  0  0  0  0  0
    3.7967   -2.9782   -2.9491 H   0  0  0  0  0  0  0  0  0  0  0  0
    5.8281   -1.7478   -2.5838 H   0  0  0  0  0  0  0  0  0  0  0  0
    5.0683   -1.0708   -4.0309 H   0  0  0  0  0  0  0  0  0  0  0  0
    6.6363    0.8671   -3.5793 H   0  0  0  0  0  0  0  0  0  0  0  0
    6.8270    3.0864   -2.5210 H   0  0  0  0  0  0  0  0  0  0  0  0
    5.3502    3.6951   -0.6233 H   0  0  0  0  0  0  0  0  0  0  0  0
    3.6781    2.0815    0.2117 H   0  0  0  0  0  0  0  0  0  0  0  0
  1  2  1  0
  2  3  1  0
  3  4  1  0
  4  5  1  0
  5  6  1  0
  6  7  1  0
  7  8  1  0
  8  9  1  0
  9 10  2  0
  9 11  1  0
 11 12  1  0
 12 13  1  0
 13 14  2  0
 13 15  1  0
 15 16  1  0
 16 17  1  0
 17 18  1  0
 18 19  1  0
 19 20  1  0
 20 21  2  0
 21 22  1  0
 22 23  2  0
 23 24  1  0
 24 25  2  0
 11 26  1  0
 26 27  2  0
  7  2  1  0
 25 16  1  0
 26  7  1  0
 25 20  1  0
  1 28  1  0
  1 29  1  0
  1 30  1  0
  2 31  1  0
  3 32  1  0
  3 33  1  0
  4 34  1  0
  4 35  1  0
  5 36  1  0
  5 37  1  0
  6 38  1  0
  6 39  1  0
  8 40  1  0
 12 41  1  0
 12 42  1  0
 15 43  1  0
 16 44  1  0
 17 45  1  0
 17 46  1  0
 18 47  1  0
 18 48  1  0
 19 49  1  0
 19 50  1  0
 21 51  1  0
 22 52  1  0
 23 53  1  0
 24 54  1  0
M  END
$$$$
