
     RDKit          3D

 43 45  0  0  0  0  0  0  0  0999 V2000
    2.9111    2.4427    1.9732 N   0  0  0  0  0  0  0  0  0  0  0  0
    2.5751    1.7787    1.0826 C   0  0  0  0  0  0  0  0  0  0  0  0
    2.2388    0.9945   -0.0496 C   0  0  0  0  0  0  0  0  0  0  0  0
    1.2180    0.1161   -0.0831 C   0  0  0  0  0  0  0  0  0  0  0  0
    0.3225   -0.1945    0.9820 C   0  0  0  0  0  0  0  0  0  0  0  0
    0.4105   -0.0721    2.3642 C   0  0  0  0  0  0  0  0  0  0  0  0
   -0.7956   -0.5590    2.9285 C   0  0  0  0  0  0  0  0  0  0  0  0
   -1.5778   -0.9783    1.8771 C   0  0  0  0  0  0  0  0  0  0  0  0
   -2.9074   -1.5743    1.7593 C   0  0  0  0  0  0  0  0  0  0  0  0
   -3.6937   -1.7949    2.9025 C   0  0  0  0  0  0  0  0  0  0  0  0
   -4.9671   -2.3666    2.8023 C   0  0  0  0  0  0  0  0  0  0  0  0
   -5.4689   -2.7165    1.5476 C   0  0  0  0  0  0  0  0  0  0  0  0
   -7.0638   -3.4695    1.4169 S   0  0  0  0  0  6  0  0  0  0  0  0
   -8.0541   -2.1402    1.1488 N   0  0  0  0  0  0  0  0  0  0  0  0
   -7.4485   -3.9960    2.7058 O   0  0  0  0  0  0  0  0  0  0  0  0
   -7.1203   -4.2592    0.2087 O   0  0  0  0  0  0  0  0  0  0  0  0
   -4.7023   -2.5193    0.3988 C   0  0  0  0  0  0  0  0  0  0  0  0
   -3.4308   -1.9465    0.5088 C   0  0  0  0  0  0  0  0  0  0  0  0
   -0.9030   -0.7665    0.7123 O   0  0  0  0  0  0  0  0  0  0  0  0
    3.0374    1.1514   -1.3225 C   0  0  0  0  0  0  0  0  0  0  0  0
    2.7246    0.5061   -2.3200 O   0  0  0  0  0  0  0  0  0  0  0  0
    4.0972    2.0420   -1.2491 N   0  0  0  0  0  0  0  0  0  0  0  0
    5.0019    2.3867   -2.2808 C   0  0  0  0  0  0  0  0  0  0  0  0
    6.0052    3.3136   -1.9609 C   0  0  0  0  0  0  0  0  0  0  0  0
    6.9428    3.7129   -2.9174 C   0  0  0  0  0  0  0  0  0  0  0  0
    6.8865    3.1911   -4.2059 C   0  0  0  0  0  0  0  0  0  0  0  0
    5.8938    2.2717   -4.5346 C   0  0  0  0  0  0  0  0  0  0  0  0
    4.9556    1.8707   -3.5768 C   0  0  0  0  0  0  0  0  0  0  0  0
    1.0001   -0.4113   -1.0115 H   0  0  0  0  0  0  0  0  0  0  0  0
    1.2484    0.3117    2.9295 H   0  0  0  0  0  0  0  0  0  0  0  0
   -1.0482   -0.6029    3.9783 H   0  0  0  0  0  0  0  0  0  0  0  0
   -3.3243   -1.5268    3.8899 H   0  0  0  0  0  0  0  0  0  0  0  0
   -5.5538   -2.5339    3.7029 H   0  0  0  0  0  0  0  0  0  0  0  0
   -8.7175   -2.0423    1.9179 H   0  0  0  0  0  0  0  0  0  0  0  0
   -8.4953   -2.2171    0.2316 H   0  0  0  0  0  0  0  0  0  0  0  0
   -5.0800   -2.8063   -0.5804 H   0  0  0  0  0  0  0  0  0  0  0  0
   -2.8465   -1.7972   -0.3977 H   0  0  0  0  0  0  0  0  0  0  0  0
    4.2774    2.5189   -0.3728 H   0  0  0  0  0  0  0  0  0  0  0  0
    6.0753    3.7392   -0.9630 H   0  0  0  0  0  0  0  0  0  0  0  0
    7.7156    4.4309   -2.6551 H   0  0  0  0  0  0  0  0  0  0  0  0
    7.6135    3.4990   -4.9531 H   0  0  0  0  0  0  0  0  0  0  0  0
    5.8451    1.8603   -5.5401 H   0  0  0  0  0  0  0  0  0  0  0  0
    4.2023    1.1530   -3.8843 H   0  0  0  0  0  0  0  0  0  0  0  0
  1  2  3  0
  2  3  1  0
  3  4  2  3
  4  5  1  0
  5  6  2  0
  6  7  1  0
  7  8  2  0
  8  9  1  0
  9 10  2  0
 10 11  1  0
 11 12  2  0
 12 13  1  0
 13 14  1  0
 13 15  2  0
 13 16  2  0
 12 17  1  0
 17 18  2  0
  8 19  1  0
  3 20  1  0
 20 21  2  0
 20 22  1  0
 22 23  1  0
 23 24  2  0
 24 25  1  0
 25 26  2  0
 26 27  1  0
 27 28  2  0
 19  5  1  0
 28 23  1  0
 18  9  1  0
  4 29  1  0
  6 30  1  0
  7 31  1  0
 10 32  1  0
 11 33  1  0
 14 34  1  0
 14 35  1  0
 17 36  1  0
 18 37  1  0
 22 38  1  0
 24 39  1  0
 25 40  1  0
 26 41  1  0
 27 42  1  0
 28 43  1  0
M  END
$$$$
