
     RDKit          3D

 37 38  0  0  0  0  0  0  0  0999 V2000
   -2.7125    2.8412    0.3688 C   0  0  0  0  0  0  0  0  0  0  0  0
   -2.0550    1.9218   -0.5008 O   0  0  0  0  0  0  0  0  0  0  0  0
   -2.2115    0.5861   -0.2244 C   0  0  0  0  0  0  0  0  0  0  0  0
   -3.2510    0.0657    0.5612 C   0  0  0  0  0  0  0  0  0  0  0  0
   -3.3540   -1.3086    0.8112 C   0  0  0  0  0  0  0  0  0  0  0  0
   -4.4640   -1.8217    1.4979 N   0  0  0  0  0  0  0  0  0  0  0  0
   -2.4626   -2.1738    0.1794 C   0  0  0  0  0  0  0  0  0  0  0  0
   -1.4265   -1.6717   -0.6102 C   0  0  0  0  0  0  0  0  0  0  0  0
   -1.2850   -0.2897   -0.8201 C   0  0  0  0  0  0  0  0  0  0  0  0
   -0.1441    0.2107   -1.6843 C   0  0  0  0  0  0  0  0  0  0  0  0
    1.1341    0.5022   -0.9230 C   0  0  0  0  0  0  0  0  0  0  0  0
    1.3210    1.7784   -0.3655 C   0  0  0  0  0  0  0  0  0  0  0  0
    2.4854    2.0895    0.3399 C   0  0  0  0  0  0  0  0  0  0  0  0
    3.5098    1.1524    0.4607 C   0  0  0  0  0  0  0  0  0  0  0  0
    4.6366    1.4364    1.2473 N   0  0  0  0  0  0  0  0  0  0  0  0
    3.3000   -0.1413   -0.0303 C   0  0  0  0  0  0  0  0  0  0  0  0
    2.1269   -0.4741   -0.7251 C   0  0  0  0  0  0  0  0  0  0  0  0
    1.8872   -1.7119   -1.2685 O   0  0  0  0  0  0  0  0  0  0  0  0
    2.6043   -2.8048   -0.6893 C   0  0  0  0  0  0  0  0  0  0  0  0
   -2.4729    2.6398    1.4228 H   0  0  0  0  0  0  0  0  0  0  0  0
   -2.3452    3.8464    0.1318 H   0  0  0  0  0  0  0  0  0  0  0  0
   -3.7941    2.8408    0.2012 H   0  0  0  0  0  0  0  0  0  0  0  0
   -4.0081    0.7196    0.9813 H   0  0  0  0  0  0  0  0  0  0  0  0
   -4.3033   -2.7423    1.8980 H   0  0  0  0  0  0  0  0  0  0  0  0
   -4.8634   -1.1746    2.1710 H   0  0  0  0  0  0  0  0  0  0  0  0
   -2.5659   -3.2502    0.2912 H   0  0  0  0  0  0  0  0  0  0  0  0
   -0.7343   -2.3676   -1.0789 H   0  0  0  0  0  0  0  0  0  0  0  0
   -0.4542    1.1110   -2.2318 H   0  0  0  0  0  0  0  0  0  0  0  0
    0.0534   -0.5145   -2.4853 H   0  0  0  0  0  0  0  0  0  0  0  0
    0.5501    2.5388   -0.4725 H   0  0  0  0  0  0  0  0  0  0  0  0
    2.5866    3.0793    0.7798 H   0  0  0  0  0  0  0  0  0  0  0  0
    4.8517    2.4281    1.3013 H   0  0  0  0  0  0  0  0  0  0  0  0
    5.4508    0.8790    1.0016 H   0  0  0  0  0  0  0  0  0  0  0  0
    4.0789   -0.8796    0.1265 H   0  0  0  0  0  0  0  0  0  0  0  0
    2.1482   -3.7305   -1.0544 H   0  0  0  0  0  0  0  0  0  0  0  0
    3.6535   -2.8029   -1.0171 H   0  0  0  0  0  0  0  0  0  0  0  0
    2.5287   -2.8075    0.4086 H   0  0  0  0  0  0  0  0  0  0  0  0
  1  2  1  0
  2  3  1  0
  3  4  2  0
  4  5  1  0
  5  6  1  0
  5  7  2  0
  7  8  1  0
  8  9  2  0
  9 10  1  0
 10 11  1  0
 11 12  2  0
 12 13  1  0
 13 14  2  0
 14 15  1  0
 14 16  1  0
 16 17  2  0
 17 18  1  0
 18 19  1  0
  9  3  1  0
 17 11  1  0
  1 20  1  0
  1 21  1  0
  1 22  1  0
  4 23  1  0
  6 24  1  0
  6 25  1  0
  7 26  1  0
  8 27  1  0
 10 28  1  0
 10 29  1  0
 12 30  1  0
 13 31  1  0
 15 32  1  0
 15 33  1  0
 16 34  1  0
 19 35  1  0
 19 36  1  0
 19 37  1  0
M  END
$$$$
