
     RDKit          3D

 36 37  0  0  0  0  0  0  0  0999 V2000
    4.0520    1.6539   -1.1227 C   0  0  0  0  0  0  0  0  0  0  0  0
    3.5131    0.3943   -1.5070 O   0  0  0  0  0  0  0  0  0  0  0  0
    2.6653   -0.2071   -0.6179 C   0  0  0  0  0  0  0  0  0  0  0  0
    2.4011    0.2263    0.6840 C   0  0  0  0  0  0  0  0  0  0  0  0
    1.4905   -0.4688    1.4859 C   0  0  0  0  0  0  0  0  0  0  0  0
    0.8369   -1.5924    0.9740 C   0  0  0  0  0  0  0  0  0  0  0  0
   -0.3576   -2.4392    1.9762 S   0  0  0  0  0  6  0  0  0  0  0  0
    0.2195   -2.5957    3.2954 O   0  0  0  0  0  0  0  0  0  0  0  0
   -0.8670   -3.5688    1.2284 O   0  0  0  0  0  0  0  0  0  0  0  0
   -1.5837   -1.2395    2.1220 N   0  0  0  0  0  0  0  0  0  0  0  0
   -2.7845   -1.3600    1.2489 N   0  0  0  0  0  0  0  0  0  0  0  0
   -2.8720   -0.5142    0.2649 C   0  0  0  0  0  0  0  0  0  0  0  0
   -4.0204   -0.6789   -0.7018 C   0  0  0  0  0  0  0  0  0  0  0  0
   -1.9430    0.6090    0.0083 C   0  0  0  0  0  0  0  0  0  0  0  0
   -1.2534    0.6772   -1.1985 C   0  0  0  0  0  0  0  0  0  0  0  0
   -0.4047    1.7527   -1.3866 C   0  0  0  0  0  0  0  0  0  0  0  0
   -0.2256    2.7371   -0.4769 N   0  0  0  0  0  0  0  0  0  0  0  0
   -0.9200    2.6421    0.6779 C   0  0  0  0  0  0  0  0  0  0  0  0
   -1.7863    1.6055    0.9683 C   0  0  0  0  0  0  0  0  0  0  0  0
    1.1130   -2.0499   -0.3156 C   0  0  0  0  0  0  0  0  0  0  0  0
    2.0303   -1.3546   -1.1048 C   0  0  0  0  0  0  0  0  0  0  0  0
    4.7243    1.5476   -0.2651 H   0  0  0  0  0  0  0  0  0  0  0  0
    4.6417    2.0346   -1.9622 H   0  0  0  0  0  0  0  0  0  0  0  0
    3.2582    2.3799   -0.9171 H   0  0  0  0  0  0  0  0  0  0  0  0
    2.8812    1.1056    1.1012 H   0  0  0  0  0  0  0  0  0  0  0  0
    1.2884   -0.1220    2.4962 H   0  0  0  0  0  0  0  0  0  0  0  0
   -1.7892   -1.1459    3.1218 H   0  0  0  0  0  0  0  0  0  0  0  0
   -3.8499   -1.5707   -1.3117 H   0  0  0  0  0  0  0  0  0  0  0  0
   -4.9516   -0.8043   -0.1411 H   0  0  0  0  0  0  0  0  0  0  0  0
   -4.1251    0.1899   -1.3572 H   0  0  0  0  0  0  0  0  0  0  0  0
   -1.3493   -0.0882   -1.9595 H   0  0  0  0  0  0  0  0  0  0  0  0
    0.1787    1.8532   -2.2980 H   0  0  0  0  0  0  0  0  0  0  0  0
   -0.7552    3.4505    1.3846 H   0  0  0  0  0  0  0  0  0  0  0  0
   -2.3231    1.5771    1.9091 H   0  0  0  0  0  0  0  0  0  0  0  0
    0.6199   -2.9337   -0.7140 H   0  0  0  0  0  0  0  0  0  0  0  0
    2.2475   -1.7025   -2.1122 H   0  0  0  0  0  0  0  0  0  0  0  0
  1  2  1  0
  2  3  1  0
  3  4  2  0
  4  5  1  0
  5  6  2  0
  6  7  1  0
  7  8  2  0
  7  9  2  0
  7 10  1  0
 10 11  1  0
 11 12  2  3
 12 13  1  0
 12 14  1  0
 14 15  2  0
 15 16  1  0
 16 17  2  0
 17 18  1  0
 18 19  2  0
  6 20  1  0
 20 21  2  0
 21  3  1  0
 19 14  1  0
  1 22  1  0
  1 23  1  0
  1 24  1  0
  4 25  1  0
  5 26  1  0
 10 27  1  0
 13 28  1  0
 13 29  1  0
 13 30  1  0
 15 31  1  0
 16 32  1  0
 18 33  1  0
 19 34  1  0
 20 35  1  0
 21 36  1  0
M  END
$$$$
