
     RDKit          3D

 45 47  0  0  0  0  0  0  0  0999 V2000
    2.2927    0.8998   -4.0618 C   0  0  0  0  0  0  0  0  0  0  0  0
    2.1345    0.7827   -2.6551 O   0  0  0  0  0  0  0  0  0  0  0  0
    3.2620    0.8904   -1.8775 C   0  0  0  0  0  0  0  0  0  0  0  0
    4.5407    1.1791   -2.3645 C   0  0  0  0  0  0  0  0  0  0  0  0
    5.6186    1.2826   -1.4839 C   0  0  0  0  0  0  0  0  0  0  0  0
    5.4229    1.1009   -0.1178 C   0  0  0  0  0  0  0  0  0  0  0  0
    4.1489    0.8129    0.3776 C   0  0  0  0  0  0  0  0  0  0  0  0
    3.0614    0.7018   -0.4920 C   0  0  0  0  0  0  0  0  0  0  0  0
    1.7438    0.4104   -0.0675 N   0  0  0  0  0  0  0  0  0  0  0  0
    1.2749    0.2221    1.2149 C   0  0  0  0  0  0  0  0  0  0  0  0
    1.9737    0.2014    2.2283 O   0  0  0  0  0  0  0  0  0  0  0  0
   -0.2346   -0.0511    1.3055 C   0  0  0  0  0  0  0  0  0  0  0  0
   -0.7610    0.2860    2.7115 C   0  0  0  0  0  0  0  0  0  0  0  0
   -2.1769    0.7684    2.4740 C   0  0  0  0  0  0  0  0  0  0  0  0
   -2.0391    1.5615    1.1884 C   0  0  0  0  0  0  0  0  0  0  0  0
   -1.0686    0.7866    0.3844 N   0  0  0  0  0  0  0  0  0  0  0  0
   -1.5963    0.1092   -1.0696 S   0  0  0  0  0  6  0  0  0  0  0  0
   -0.4634   -0.5842   -1.6436 O   0  0  0  0  0  0  0  0  0  0  0  0
   -2.3040    1.1292   -1.8115 O   0  0  0  0  0  0  0  0  0  0  0  0
   -2.7881   -1.1234   -0.5835 C   0  0  0  0  0  0  0  0  0  0  0  0
   -2.3805   -2.4488   -0.3937 C   0  0  0  0  0  0  0  0  0  0  0  0
   -3.3235   -3.4170   -0.0411 C   0  0  0  0  0  0  0  0  0  0  0  0
   -4.6656   -3.0614    0.0983 C   0  0  0  0  0  0  0  0  0  0  0  0
   -5.8237   -4.2560    0.5340 Cl  0  0  0  0  0  0  0  0  0  0  0  0
   -5.0776   -1.7467   -0.1226 C   0  0  0  0  0  0  0  0  0  0  0  0
   -4.1392   -0.7743   -0.4754 C   0  0  0  0  0  0  0  0  0  0  0  0
    2.9607    0.1246   -4.4514 H   0  0  0  0  0  0  0  0  0  0  0  0
    1.3104    0.7542   -4.5215 H   0  0  0  0  0  0  0  0  0  0  0  0
    2.6434    1.9000   -4.3363 H   0  0  0  0  0  0  0  0  0  0  0  0
    4.7302    1.3337   -3.4209 H   0  0  0  0  0  0  0  0  0  0  0  0
    6.6116    1.5080   -1.8642 H   0  0  0  0  0  0  0  0  0  0  0  0
    6.2616    1.1834    0.5692 H   0  0  0  0  0  0  0  0  0  0  0  0
    4.0400    0.6786    1.4484 H   0  0  0  0  0  0  0  0  0  0  0  0
    1.0741    0.3373   -0.8355 H   0  0  0  0  0  0  0  0  0  0  0  0
   -0.3893   -1.1172    1.1145 H   0  0  0  0  0  0  0  0  0  0  0  0
   -0.7260   -0.5804    3.3798 H   0  0  0  0  0  0  0  0  0  0  0  0
   -0.1786    1.0890    3.1804 H   0  0  0  0  0  0  0  0  0  0  0  0
   -2.5610    1.3734    3.3000 H   0  0  0  0  0  0  0  0  0  0  0  0
   -2.8477   -0.0865    2.3337 H   0  0  0  0  0  0  0  0  0  0  0  0
   -1.6116    2.5525    1.3801 H   0  0  0  0  0  0  0  0  0  0  0  0
   -3.0039    1.7063    0.6980 H   0  0  0  0  0  0  0  0  0  0  0  0
   -1.3399   -2.7388   -0.5256 H   0  0  0  0  0  0  0  0  0  0  0  0
   -3.0089   -4.4466    0.1125 H   0  0  0  0  0  0  0  0  0  0  0  0
   -6.1272   -1.4772   -0.0327 H   0  0  0  0  0  0  0  0  0  0  0  0
   -4.4702    0.2437   -0.6714 H   0  0  0  0  0  0  0  0  0  0  0  0
  1  2  1  0
  2  3  1  0
  3  4  2  0
  4  5  1  0
  5  6  2  0
  6  7  1  0
  7  8  2  0
  8  9  1  0
  9 10  1  0
 10 11  2  0
 10 12  1  0
 12 13  1  0
 13 14  1  0
 14 15  1  0
 15 16  1  0
 16 17  1  0
 17 18  2  0
 17 19  2  0
 17 20  1  0
 20 21  2  0
 21 22  1  0
 22 23  2  0
 23 24  1  0
 23 25  1  0
 25 26  2  0
  8  3  1  0
 16 12  1  0
 26 20  1  0
  1 27  1  0
  1 28  1  0
  1 29  1  0
  4 30  1  0
  5 31  1  0
  6 32  1  0
  7 33  1  0
  9 34  1  0
 12 35  1  0
 13 36  1  0
 13 37  1  0
 14 38  1  0
 14 39  1  0
 15 40  1  0
 15 41  1  0
 21 42  1  0
 22 43  1  0
 25 44  1  0
 26 45  1  0
M  END
$$$$
