
     RDKit          3D

 45 46  0  0  0  0  0  0  0  0999 V2000
   -8.0411   -1.0396    0.0141 C   0  0  0  0  0  0  0  0  0  0  0  0
   -7.2337   -0.1051   -0.8701 C   0  0  0  0  0  0  0  0  0  0  0  0
   -6.0335   -0.7361   -1.3119 O   0  0  0  0  0  0  0  0  0  0  0  0
   -4.9065   -0.6261   -0.5480 C   0  0  0  0  0  0  0  0  0  0  0  0
   -4.8150   -0.0475    0.7169 C   0  0  0  0  0  0  0  0  0  0  0  0
   -3.5871   -0.0090    1.3895 C   0  0  0  0  0  0  0  0  0  0  0  0
   -2.4357   -0.5571    0.8096 C   0  0  0  0  0  0  0  0  0  0  0  0
   -1.1082   -0.4978    1.5188 C   0  0  0  0  0  0  0  0  0  0  0  0
   -0.2965    0.5738    0.9895 N   0  0  0  0  0  0  0  0  0  0  0  0
    0.7197    0.3325    0.1146 C   0  0  0  0  0  0  0  0  0  0  0  0
    1.1144   -0.7809   -0.1867 O   0  0  0  0  0  0  0  0  0  0  0  0
    1.2666    1.5007   -0.3837 N   0  0  0  0  0  0  0  0  0  0  0  0
    2.4826    1.5802   -1.5118 S   0  0  0  0  0  6  0  0  0  0  0  0
    2.7625    2.9951   -1.6627 O   0  0  0  0  0  0  0  0  0  0  0  0
    2.1385    0.7729   -2.6598 O   0  0  0  0  0  0  0  0  0  0  0  0
    3.8729    0.8568   -0.6790 C   0  0  0  0  0  0  0  0  0  0  0  0
    4.6998    1.6598    0.1123 C   0  0  0  0  0  0  0  0  0  0  0  0
    5.8176    1.1001    0.7411 C   0  0  0  0  0  0  0  0  0  0  0  0
    6.1137   -0.2547    0.5723 C   0  0  0  0  0  0  0  0  0  0  0  0
    7.1695   -0.9217    1.1296 O   0  0  0  0  0  0  0  0  0  0  0  0
    8.0631   -0.1602    1.9316 C   0  0  0  0  0  0  0  0  0  0  0  0
    5.2863   -1.0437   -0.2337 C   0  0  0  0  0  0  0  0  0  0  0  0
    4.1710   -0.4927   -0.8679 C   0  0  0  0  0  0  0  0  0  0  0  0
   -2.5329   -1.1365   -0.4610 C   0  0  0  0  0  0  0  0  0  0  0  0
   -3.7592   -1.1715   -1.1286 C   0  0  0  0  0  0  0  0  0  0  0  0
   -8.2429   -1.9810   -0.5077 H   0  0  0  0  0  0  0  0  0  0  0  0
   -8.9942   -0.5808    0.2921 H   0  0  0  0  0  0  0  0  0  0  0  0
   -7.4979   -1.2951    0.9287 H   0  0  0  0  0  0  0  0  0  0  0  0
   -7.8200    0.1088   -1.7711 H   0  0  0  0  0  0  0  0  0  0  0  0
   -7.0496    0.8652   -0.3961 H   0  0  0  0  0  0  0  0  0  0  0  0
   -5.6792    0.3764    1.2161 H   0  0  0  0  0  0  0  0  0  0  0  0
   -3.5428    0.4487    2.3755 H   0  0  0  0  0  0  0  0  0  0  0  0
   -0.5937   -1.4622    1.4409 H   0  0  0  0  0  0  0  0  0  0  0  0
   -1.2537   -0.2937    2.5853 H   0  0  0  0  0  0  0  0  0  0  0  0
   -0.6715    1.5062    1.0415 H   0  0  0  0  0  0  0  0  0  0  0  0
    0.9636    2.4100   -0.0659 H   0  0  0  0  0  0  0  0  0  0  0  0
    4.4892    2.7192    0.2393 H   0  0  0  0  0  0  0  0  0  0  0  0
    6.4390    1.7488    1.3497 H   0  0  0  0  0  0  0  0  0  0  0  0
    8.5421    0.6318    1.3464 H   0  0  0  0  0  0  0  0  0  0  0  0
    7.5531    0.2496    2.8096 H   0  0  0  0  0  0  0  0  0  0  0  0
    8.8493   -0.8330    2.2873 H   0  0  0  0  0  0  0  0  0  0  0  0
    5.5144   -2.0984   -0.3710 H   0  0  0  0  0  0  0  0  0  0  0  0
    3.5391   -1.1215   -1.4925 H   0  0  0  0  0  0  0  0  0  0  0  0
   -1.6537   -1.5639   -0.9415 H   0  0  0  0  0  0  0  0  0  0  0  0
   -3.8193   -1.6270   -2.1145 H   0  0  0  0  0  0  0  0  0  0  0  0
  1  2  1  0
  2  3  1  0
  3  4  1  0
  4  5  2  0
  5  6  1  0
  6  7  2  0
  7  8  1  0
  8  9  1  0
  9 10  1  0
 10 11  2  0
 10 12  1  0
 12 13  1  0
 13 14  2  0
 13 15  2  0
 13 16  1  0
 16 17  2  0
 17 18  1  0
 18 19  2  0
 19 20  1  0
 20 21  1  0
 19 22  1  0
 22 23  2  0
  7 24  1  0
 24 25  2  0
 25  4  1  0
 23 16  1  0
  1 26  1  0
  1 27  1  0
  1 28  1  0
  2 29  1  0
  2 30  1  0
  5 31  1  0
  6 32  1  0
  8 33  1  0
  8 34  1  0
  9 35  1  0
 12 36  1  0
 17 37  1  0
 18 38  1  0
 21 39  1  0
 21 40  1  0
 21 41  1  0
 22 42  1  0
 23 43  1  0
 24 44  1  0
 25 45  1  0
M  END
$$$$
