
     RDKit          3D

 49 50  0  0  0  0  0  0  0  0999 V2000
   -4.1145    2.9395    3.7428 C   0  0  0  0  0  0  0  0  0  0  0  0
   -5.0357    2.6190    2.7053 O   0  0  0  0  0  0  0  0  0  0  0  0
   -4.5352    1.9274    1.6319 C   0  0  0  0  0  0  0  0  0  0  0  0
   -3.3618    1.1637    1.6611 C   0  0  0  0  0  0  0  0  0  0  0  0
   -2.9247    0.4758    0.5186 C   0  0  0  0  0  0  0  0  0  0  0  0
   -1.6721   -0.2929    0.4976 C   0  0  0  0  0  0  0  0  0  0  0  0
   -1.2446   -1.0535    1.5175 C   0  0  0  0  0  0  0  0  0  0  0  0
    0.0150   -1.8254    1.5026 C   0  0  0  0  0  0  0  0  0  0  0  0
    0.3739   -2.5010    2.4555 O   0  0  0  0  0  0  0  0  0  0  0  0
    0.6867   -1.6747    0.3406 O   0  0  0  0  0  0  0  0  0  0  0  0
    1.9164   -2.3928    0.2835 C   0  0  0  0  0  0  0  0  0  0  0  0
    2.5988   -2.1876   -1.0662 C   0  0  0  0  0  0  0  0  0  0  0  0
    2.0935   -1.5642   -1.9982 O   0  0  0  0  0  0  0  0  0  0  0  0
    3.8455   -2.7759   -1.1432 N   0  0  0  0  0  0  0  0  0  0  0  0
    4.7046   -2.6285   -2.3084 C   0  0  0  0  0  0  0  0  0  0  0  0
    5.7916   -1.5668   -2.1145 C   0  0  0  0  0  0  0  0  0  0  0  0
    5.3019   -0.1337   -1.9824 C   0  0  0  0  0  0  0  0  0  0  0  0
    6.4527    0.5062   -1.2477 C   0  0  0  0  0  0  0  0  0  0  0  0
    6.8558   -0.5898   -0.2840 C   0  0  0  0  0  0  0  0  0  0  0  0
    6.5559   -1.8425   -0.9198 O   0  0  0  0  0  0  0  0  0  0  0  0
   -3.6670    0.5814   -0.6624 C   0  0  0  0  0  0  0  0  0  0  0  0
   -4.8445    1.3318   -0.6992 C   0  0  0  0  0  0  0  0  0  0  0  0
   -5.2911    1.9845    0.4514 C   0  0  0  0  0  0  0  0  0  0  0  0
   -6.4094    2.7803    0.4487 O   0  0  0  0  0  0  0  0  0  0  0  0
   -7.5849    2.1509   -0.0804 C   0  0  0  0  0  0  0  0  0  0  0  0
   -7.9017    2.6570   -1.4251 C   0  0  0  0  0  0  0  0  0  0  0  0
   -8.1449    3.0444   -2.4940 N   0  0  0  0  0  0  0  0  0  0  0  0
   -4.5990    3.6577    4.4098 H   0  0  0  0  0  0  0  0  0  0  0  0
   -3.2086    3.4122    3.3453 H   0  0  0  0  0  0  0  0  0  0  0  0
   -3.8700    2.0505    4.3338 H   0  0  0  0  0  0  0  0  0  0  0  0
   -2.7695    1.1038    2.5680 H   0  0  0  0  0  0  0  0  0  0  0  0
   -1.0970   -0.2247   -0.4249 H   0  0  0  0  0  0  0  0  0  0  0  0
   -1.8121   -1.1593    2.4357 H   0  0  0  0  0  0  0  0  0  0  0  0
    2.5903   -2.0293    1.0659 H   0  0  0  0  0  0  0  0  0  0  0  0
    1.7291   -3.4644    0.4066 H   0  0  0  0  0  0  0  0  0  0  0  0
    4.2890   -3.1313   -0.3018 H   0  0  0  0  0  0  0  0  0  0  0  0
    4.1048   -2.4068   -3.1993 H   0  0  0  0  0  0  0  0  0  0  0  0
    5.1770   -3.6091   -2.4458 H   0  0  0  0  0  0  0  0  0  0  0  0
    6.4928   -1.6327   -2.9560 H   0  0  0  0  0  0  0  0  0  0  0  0
    5.0905    0.3323   -2.9481 H   0  0  0  0  0  0  0  0  0  0  0  0
    4.4018   -0.0640   -1.3637 H   0  0  0  0  0  0  0  0  0  0  0  0
    6.1875    1.4399   -0.7429 H   0  0  0  0  0  0  0  0  0  0  0  0
    7.2730    0.7135   -1.9448 H   0  0  0  0  0  0  0  0  0  0  0  0
    6.2685   -0.5395    0.6385 H   0  0  0  0  0  0  0  0  0  0  0  0
    7.9167   -0.5530   -0.0249 H   0  0  0  0  0  0  0  0  0  0  0  0
   -3.3316    0.0845   -1.5707 H   0  0  0  0  0  0  0  0  0  0  0  0
   -5.3742    1.4203   -1.6426 H   0  0  0  0  0  0  0  0  0  0  0  0
   -7.5125    1.0560   -0.0669 H   0  0  0  0  0  0  0  0  0  0  0  0
   -8.4067    2.4107    0.5958 H   0  0  0  0  0  0  0  0  0  0  0  0
  1  2  1  0
  2  3  1  0
  3  4  2  0
  4  5  1  0
  5  6  1  0
  6  7  2  3
  7  8  1  0
  8  9  2  0
  8 10  1  0
 10 11  1  0
 11 12  1  0
 12 13  2  0
 12 14  1  0
 14 15  1  0
 15 16  1  0
 16 17  1  0
 17 18  1  0
 18 19  1  0
 19 20  1  0
  5 21  2  0
 21 22  1  0
 22 23  2  0
 23 24  1  0
 24 25  1  0
 25 26  1  0
 26 27  3  0
 23  3  1  0
 20 16  1  0
  1 28  1  0
  1 29  1  0
  1 30  1  0
  4 31  1  0
  6 32  1  0
  7 33  1  0
 11 34  1  0
 11 35  1  0
 14 36  1  0
 15 37  1  0
 15 38  1  0
 16 39  1  0
 17 40  1  0
 17 41  1  0
 18 42  1  0
 18 43  1  0
 19 44  1  0
 19 45  1  0
 21 46  1  0
 22 47  1  0
 25 48  1  0
 25 49  1  0
M  END
$$$$
