
     RDKit          3D

 32 33  0  0  0  0  0  0  0  0999 V2000
   -0.3082   -1.8217    0.4638 O   0  0  0  0  0  0  0  0  0  0  0  0
   -0.0018   -0.6446    0.3420 C   0  0  0  0  0  0  0  0  0  0  0  0
   -0.6746    0.3859    0.9661 N   0  0  0  0  0  0  0  0  0  0  0  0
   -1.8951    0.1195    1.7020 C   0  0  0  0  0  0  0  0  0  0  0  0
   -3.1078    0.3364    0.8333 C   0  0  0  0  0  0  0  0  0  0  0  0
   -3.5350   -0.6653   -0.0515 C   0  0  0  0  0  0  0  0  0  0  0  0
   -4.6418   -0.4604   -0.8777 C   0  0  0  0  0  0  0  0  0  0  0  0
   -5.3316    0.7503   -0.8325 C   0  0  0  0  0  0  0  0  0  0  0  0
   -4.9092    1.7522    0.0380 C   0  0  0  0  0  0  0  0  0  0  0  0
   -5.7532    3.2512    0.0901 Cl  0  0  0  0  0  0  0  0  0  0  0  0
   -3.8034    1.5540    0.8662 C   0  0  0  0  0  0  0  0  0  0  0  0
    1.0804   -0.1711   -0.3549 N   0  0  0  0  0  0  0  0  0  0  0  0
    1.8449   -1.0316   -1.1087 C   0  0  0  0  0  0  0  0  0  0  0  0
    1.3789   -1.7916   -1.9512 O   0  0  0  0  0  0  0  0  0  0  0  0
    3.2987   -0.8522   -0.9712 C   0  0  0  0  0  0  0  0  0  0  0  0
    4.1837   -1.4069   -1.8852 C   0  0  0  0  0  0  0  0  0  0  0  0
    5.8233   -1.0727   -1.5288 S   0  0  0  0  0  0  0  0  0  0  0  0
    5.3924   -0.2078   -0.1371 C   0  0  0  0  0  0  0  0  0  0  0  0
    6.3996    0.3890    0.7026 N   0  0  0  0  0  4  0  0  0  0  0  0
    5.9807    1.0560    1.6593 O   0  0  0  0  0  0  0  0  0  0  0  0
    7.5896    0.2065    0.4204 O   0  0  0  0  0  1  0  0  0  0  0  0
    4.0271   -0.1594    0.0618 C   0  0  0  0  0  0  0  0  0  0  0  0
   -0.6570    1.2690    0.4759 H   0  0  0  0  0  0  0  0  0  0  0  0
   -1.9120    0.8098    2.5527 H   0  0  0  0  0  0  0  0  0  0  0  0
   -1.8928   -0.8972    2.1110 H   0  0  0  0  0  0  0  0  0  0  0  0
   -3.0001   -1.6140   -0.1042 H   0  0  0  0  0  0  0  0  0  0  0  0
   -4.9619   -1.2459   -1.5584 H   0  0  0  0  0  0  0  0  0  0  0  0
   -6.1919    0.9055   -1.4778 H   0  0  0  0  0  0  0  0  0  0  0  0
   -3.4878    2.3483    1.5382 H   0  0  0  0  0  0  0  0  0  0  0  0
    1.5482    0.5718    0.1326 H   0  0  0  0  0  0  0  0  0  0  0  0
    3.9346   -1.9979   -2.7592 H   0  0  0  0  0  0  0  0  0  0  0  0
    3.5828    0.3349    0.9182 H   0  0  0  0  0  0  0  0  0  0  0  0
  1  2  2  0
  2  3  1  0
  3  4  1  0
  4  5  1  0
  5  6  2  0
  6  7  1  0
  7  8  2  0
  8  9  1  0
  9 10  1  0
  9 11  2  0
  2 12  1  0
 12 13  1  0
 13 14  2  0
 13 15  1  0
 15 16  2  0
 16 17  1  0
 17 18  1  0
 18 19  1  0
 19 20  2  0
 19 21  1  0
 18 22  2  0
 11  5  1  0
 22 15  1  0
  3 23  1  0
  4 24  1  0
  4 25  1  0
  6 26  1  0
  7 27  1  0
  8 28  1  0
 11 29  1  0
 12 30  1  0
 16 31  1  0
 22 32  1  0
M  CHG  2  19   1  21  -1
M  END
$$$$
