
     RDKit          3D

 48 50  0  0  0  0  0  0  0  0999 V2000
   -1.5297   -0.3142   -4.2687 C   0  0  0  0  0  0  0  0  0  0  0  0
   -1.3609   -1.2369   -3.0770 C   0  0  0  0  0  0  0  0  0  0  0  0
   -2.3665   -0.9044   -2.1103 O   0  0  0  0  0  0  0  0  0  0  0  0
   -2.2557   -1.5922   -0.9472 C   0  0  0  0  0  0  0  0  0  0  0  0
   -1.4378   -2.4535   -0.6821 O   0  0  0  0  0  0  0  0  0  0  0  0
   -3.2835   -1.1191   -0.0236 C   0  0  0  0  0  0  0  0  0  0  0  0
   -4.5910   -0.9681   -0.4140 C   0  0  0  0  0  0  0  0  0  0  0  0
   -5.5745   -0.5756    0.4236 N   0  0  0  0  0  0  0  0  0  0  0  0
   -5.2269   -0.3387    1.7017 C   0  0  0  0  0  0  0  0  0  0  0  0
   -6.5307    0.1853    2.7867 S   0  0  0  0  0  0  0  0  0  0  0  0
   -5.6389    0.2620    4.3592 C   0  0  0  0  0  0  0  0  0  0  0  0
   -3.9793   -0.4470    2.1802 N   0  0  0  0  0  0  0  0  0  0  0  0
   -3.0260   -0.8221    1.2955 C   0  0  0  0  0  0  0  0  0  0  0  0
   -1.7461   -0.8943    1.8069 O   0  0  0  0  0  0  0  0  0  0  0  0
   -0.9514    0.2036    1.5479 C   0  0  0  0  0  0  0  0  0  0  0  0
   -1.3731    1.5123    1.7934 C   0  0  0  0  0  0  0  0  0  0  0  0
   -0.5188    2.5745    1.5109 C   0  0  0  0  0  0  0  0  0  0  0  0
    0.7577    2.3250    1.0002 C   0  0  0  0  0  0  0  0  0  0  0  0
    1.2001    1.0130    0.7789 C   0  0  0  0  0  0  0  0  0  0  0  0
    2.5033    0.8566    0.2597 N   0  0  0  0  0  0  0  0  0  0  0  0
    3.1857   -0.3281    0.0533 C   0  0  0  0  0  0  0  0  0  0  0  0
    2.8174   -1.4542    0.3618 O   0  0  0  0  0  0  0  0  0  0  0  0
    4.5292   -0.1761   -0.5740 C   0  0  0  0  0  0  0  0  0  0  0  0
    4.7761    0.7855   -1.5644 C   0  0  0  0  0  0  0  0  0  0  0  0
    6.0494    0.8901   -2.1325 C   0  0  0  0  0  0  0  0  0  0  0  0
    7.0688    0.0326   -1.7181 C   0  0  0  0  0  0  0  0  0  0  0  0
    8.6336    0.1679   -2.4192 Cl  0  0  0  0  0  0  0  0  0  0  0  0
    6.8255   -0.9383   -0.7493 C   0  0  0  0  0  0  0  0  0  0  0  0
    5.5535   -1.0474   -0.1812 C   0  0  0  0  0  0  0  0  0  0  0  0
    0.3371   -0.0473    1.0619 C   0  0  0  0  0  0  0  0  0  0  0  0
   -0.7929   -0.5372   -5.0459 H   0  0  0  0  0  0  0  0  0  0  0  0
   -2.5341   -0.4130   -4.6940 H   0  0  0  0  0  0  0  0  0  0  0  0
   -1.4147    0.7317   -3.9643 H   0  0  0  0  0  0  0  0  0  0  0  0
   -1.4871   -2.2782   -3.3914 H   0  0  0  0  0  0  0  0  0  0  0  0
   -0.3634   -1.0990   -2.6443 H   0  0  0  0  0  0  0  0  0  0  0  0
   -4.9096   -1.1682   -1.4341 H   0  0  0  0  0  0  0  0  0  0  0  0
   -4.8123    0.9745    4.3059 H   0  0  0  0  0  0  0  0  0  0  0  0
   -6.3271    0.5977    5.1401 H   0  0  0  0  0  0  0  0  0  0  0  0
   -5.2588   -0.7243    4.6380 H   0  0  0  0  0  0  0  0  0  0  0  0
   -2.3540    1.7154    2.2146 H   0  0  0  0  0  0  0  0  0  0  0  0
   -0.8429    3.5960    1.6958 H   0  0  0  0  0  0  0  0  0  0  0  0
    1.4037    3.1733    0.7903 H   0  0  0  0  0  0  0  0  0  0  0  0
    3.0152    1.7136    0.0991 H   0  0  0  0  0  0  0  0  0  0  0  0
    3.9855    1.4385   -1.9230 H   0  0  0  0  0  0  0  0  0  0  0  0
    6.2384    1.6351   -2.9014 H   0  0  0  0  0  0  0  0  0  0  0  0
    7.6162   -1.6140   -0.4321 H   0  0  0  0  0  0  0  0  0  0  0  0
    5.3615   -1.8121    0.5704 H   0  0  0  0  0  0  0  0  0  0  0  0
    0.6297   -1.0809    0.8975 H   0  0  0  0  0  0  0  0  0  0  0  0
  1  2  1  0
  2  3  1  0
  3  4  1  0
  4  5  2  0
  4  6  1  0
  6  7  2  0
  7  8  1  0
  8  9  2  0
  9 10  1  0
 10 11  1  0
  9 12  1  0
 12 13  2  0
 13 14  1  0
 14 15  1  0
 15 16  2  0
 16 17  1  0
 17 18  2  0
 18 19  1  0
 19 20  1  0
 20 21  1  0
 21 22  2  0
 21 23  1  0
 23 24  2  0
 24 25  1  0
 25 26  2  0
 26 27  1  0
 26 28  1  0
 28 29  2  0
 19 30  2  0
 13  6  1  0
 30 15  1  0
 29 23  1  0
  1 31  1  0
  1 32  1  0
  1 33  1  0
  2 34  1  0
  2 35  1  0
  7 36  1  0
 11 37  1  0
 11 38  1  0
 11 39  1  0
 16 40  1  0
 17 41  1  0
 18 42  1  0
 20 43  1  0
 24 44  1  0
 25 45  1  0
 28 46  1  0
 29 47  1  0
 30 48  1  0
M  END
$$$$
