
     RDKit          3D

 57 61  0  0  0  0  0  0  0  0999 V2000
   -6.0465    2.0406    2.0624 C   0  0  0  0  0  0  0  0  0  0  0  0
   -5.7553    2.7893    0.8303 N   0  0  0  0  0  0  0  0  0  0  0  0
   -4.8055    3.8966    1.0087 C   0  0  0  0  0  0  0  0  0  0  0  0
   -5.7605    1.9183   -0.6220 S   0  0  0  0  0  6  0  0  0  0  0  0
   -5.5055    2.8172   -1.7244 O   0  0  0  0  0  0  0  0  0  0  0  0
   -6.9424    1.0819   -0.5969 O   0  0  0  0  0  0  0  0  0  0  0  0
   -4.3576    0.8222   -0.5138 C   0  0  0  0  0  0  0  0  0  0  0  0
   -4.5405   -0.5471   -0.7043 C   0  0  0  0  0  0  0  0  0  0  0  0
   -3.4440   -1.4151   -0.6426 C   0  0  0  0  0  0  0  0  0  0  0  0
   -2.1474   -0.9460   -0.3701 C   0  0  0  0  0  0  0  0  0  0  0  0
   -1.0618   -1.8163   -0.2642 N   0  0  0  0  0  0  0  0  0  0  0  0
   -0.7670   -2.2703    1.1139 C   0  0  0  0  0  0  0  0  0  0  0  0
   -0.2499   -3.7026    0.9561 C   0  0  0  0  0  0  0  0  0  0  0  0
    0.1669   -3.7837   -0.5036 C   0  0  0  0  0  0  0  0  0  0  0  0
   -0.9074   -2.9471   -1.1852 C   0  0  0  0  0  0  0  0  0  0  0  0
   -1.9877    0.4482   -0.1567 C   0  0  0  0  0  0  0  0  0  0  0  0
   -0.6737    1.0778    0.1988 C   0  0  0  0  0  0  0  0  0  0  0  0
   -0.6940    2.0715    0.9198 O   0  0  0  0  0  0  0  0  0  0  0  0
    0.4265    0.4592   -0.3366 N   0  0  0  0  0  0  0  0  0  0  0  0
    1.7476    0.7420   -0.1041 C   0  0  0  0  0  0  0  0  0  0  0  0
    2.6980    0.0190   -0.6488 N   0  0  0  0  0  0  0  0  0  0  0  0
    3.9476    0.5046   -0.2602 C   0  0  0  0  0  0  0  0  0  0  0  0
    3.9032    1.5830    0.6255 C   0  0  0  0  0  0  0  0  0  0  0  0
    5.0671    2.1807    1.1357 C   0  0  0  0  0  0  0  0  0  0  0  0
    6.3065    1.6833    0.7193 C   0  0  0  0  0  0  0  0  0  0  0  0
    6.4005    0.6160   -0.1802 C   0  0  0  0  0  0  0  0  0  0  0  0
    7.6406    0.1287   -0.6171 C   0  0  0  0  0  0  0  0  0  0  0  0
    7.7143   -0.9373   -1.5183 C   0  0  0  0  0  0  0  0  0  0  0  0
    6.5494   -1.5367   -1.9929 C   0  0  0  0  0  0  0  0  0  0  0  0
    5.3048   -1.0688   -1.5730 C   0  0  0  0  0  0  0  0  0  0  0  0
    5.2200    0.0118   -0.6718 C   0  0  0  0  0  0  0  0  0  0  0  0
    2.2583    1.9867    0.9283 S   0  0  0  0  0  0  0  0  0  0  0  0
   -3.0840    1.3237   -0.2589 C   0  0  0  0  0  0  0  0  0  0  0  0
   -5.2914    1.2675    2.2371 H   0  0  0  0  0  0  0  0  0  0  0  0
   -6.0483    2.7158    2.9261 H   0  0  0  0  0  0  0  0  0  0  0  0
   -7.0375    1.5803    2.0063 H   0  0  0  0  0  0  0  0  0  0  0  0
   -4.4385    4.2820    0.0550 H   0  0  0  0  0  0  0  0  0  0  0  0
   -5.3139    4.7225    1.5170 H   0  0  0  0  0  0  0  0  0  0  0  0
   -3.9527    3.5886    1.6187 H   0  0  0  0  0  0  0  0  0  0  0  0
   -5.5287   -0.9525   -0.9140 H   0  0  0  0  0  0  0  0  0  0  0  0
   -3.6325   -2.4758   -0.7820 H   0  0  0  0  0  0  0  0  0  0  0  0
   -0.0022   -1.6300    1.5620 H   0  0  0  0  0  0  0  0  0  0  0  0
   -1.6495   -2.2627    1.7643 H   0  0  0  0  0  0  0  0  0  0  0  0
    0.5700   -3.9312    1.6444 H   0  0  0  0  0  0  0  0  0  0  0  0
   -1.0647   -4.4114    1.1513 H   0  0  0  0  0  0  0  0  0  0  0  0
    0.2093   -4.8090   -0.8798 H   0  0  0  0  0  0  0  0  0  0  0  0
    1.1523   -3.3214   -0.6375 H   0  0  0  0  0  0  0  0  0  0  0  0
   -0.5944   -2.6121   -2.1777 H   0  0  0  0  0  0  0  0  0  0  0  0
   -1.8202   -3.5429   -1.2855 H   0  0  0  0  0  0  0  0  0  0  0  0
    0.2713   -0.3891   -0.8735 H   0  0  0  0  0  0  0  0  0  0  0  0
    5.0067    3.0143    1.8290 H   0  0  0  0  0  0  0  0  0  0  0  0
    7.2105    2.1510    1.1066 H   0  0  0  0  0  0  0  0  0  0  0  0
    8.5649    0.5791   -0.2618 H   0  0  0  0  0  0  0  0  0  0  0  0
    8.6817   -1.2912   -1.8593 H   0  0  0  0  0  0  0  0  0  0  0  0
    6.6094   -2.3603   -2.6987 H   0  0  0  0  0  0  0  0  0  0  0  0
    4.3985   -1.5332   -1.9550 H   0  0  0  0  0  0  0  0  0  0  0  0
   -2.9207    2.3903   -0.1461 H   0  0  0  0  0  0  0  0  0  0  0  0
  1  2  1  0
  2  3  1  0
  2  4  1  0
  4  5  2  0
  4  6  2  0
  4  7  1  0
  7  8  2  0
  8  9  1  0
  9 10  2  0
 10 11  1  0
 11 12  1  0
 12 13  1  0
 13 14  1  0
 14 15  1  0
 10 16  1  0
 16 17  1  0
 17 18  2  0
 17 19  1  0
 19 20  1  0
 20 21  2  0
 21 22  1  0
 22 23  2  0
 23 24  1  0
 24 25  2  0
 25 26  1  0
 26 27  2  0
 27 28  1  0
 28 29  2  0
 29 30  1  0
 30 31  2  0
 23 32  1  0
 16 33  2  0
 33  7  1  0
 15 11  1  0
 32 20  1  0
 31 22  1  0
 31 26  1  0
  1 34  1  0
  1 35  1  0
  1 36  1  0
  3 37  1  0
  3 38  1  0
  3 39  1  0
  8 40  1  0
  9 41  1  0
 12 42  1  0
 12 43  1  0
 13 44  1  0
 13 45  1  0
 14 46  1  0
 14 47  1  0
 15 48  1  0
 15 49  1  0
 19 50  1  0
 24 51  1  0
 25 52  1  0
 27 53  1  0
 28 54  1  0
 29 55  1  0
 30 56  1  0
 33 57  1  0
M  END
$$$$
