
     RDKit          3D

 52 55  0  0  0  0  0  0  0  0999 V2000
    8.0441   -0.6670    1.2433 C   0  0  0  0  0  0  0  0  0  0  0  0
    7.2842   -1.8281    0.6303 C   0  0  0  0  0  0  0  0  0  0  0  0
    5.9429   -1.4303    0.3144 O   0  0  0  0  0  0  0  0  0  0  0  0
    5.0264   -1.5415    1.3212 C   0  0  0  0  0  0  0  0  0  0  0  0
    5.3016   -1.9471    2.4447 O   0  0  0  0  0  0  0  0  0  0  0  0
    3.6977   -1.1140    0.8877 C   0  0  0  0  0  0  0  0  0  0  0  0
    3.3824   -0.7612   -0.7628 S   0  0  0  0  0  0  0  0  0  0  0  0
    1.7438   -0.4382   -0.4711 C   0  0  0  0  0  0  0  0  0  0  0  0
    0.9172   -0.0915   -1.4814 N   0  0  0  0  0  0  0  0  0  0  0  0
   -0.3259    0.1206   -1.1592 C   0  0  0  0  0  0  0  0  0  0  0  0
   -1.3386    0.5074   -2.2176 C   0  0  0  0  0  0  0  0  0  0  0  0
   -0.8472    0.7052   -3.8682 S   0  0  0  0  0  0  0  0  0  0  0  0
   -0.1308   -0.9248   -4.2280 C   0  0  0  0  0  0  0  0  0  0  0  0
   -0.2312   -1.2025   -5.7050 C   0  0  0  0  0  0  0  0  0  0  0  0
    0.5980   -0.9289   -6.5580 O   0  0  0  0  0  0  0  0  0  0  0  0
   -1.3906   -1.8013   -6.0521 O   0  0  0  0  0  0  0  0  0  0  0  0
   -2.6097    0.7398   -1.8622 C   0  0  0  0  0  0  0  0  0  0  0  0
   -3.0433    0.6205   -0.4923 C   0  0  0  0  0  0  0  0  0  0  0  0
   -4.4817    0.8322   -0.1539 C   0  0  0  0  0  0  0  0  0  0  0  0
   -5.3618    0.3444   -0.8628 O   0  0  0  0  0  0  0  0  0  0  0  0
   -4.8718    1.6124    1.0495 C   0  0  0  0  0  0  0  0  0  0  0  0
   -4.0446    2.6139    1.5793 C   0  0  0  0  0  0  0  0  0  0  0  0
   -4.4378    3.3180    2.7210 C   0  0  0  0  0  0  0  0  0  0  0  0
   -5.6597    3.0372    3.3315 C   0  0  0  0  0  0  0  0  0  0  0  0
   -6.5002    2.0631    2.7949 C   0  0  0  0  0  0  0  0  0  0  0  0
   -6.1138    1.3650    1.6531 C   0  0  0  0  0  0  0  0  0  0  0  0
   -7.0085    0.4450    1.1742 O   0  0  0  0  0  0  0  0  0  0  0  0
   -2.1640    0.2403    0.4451 C   0  0  0  0  0  0  0  0  0  0  0  0
   -0.8194    0.0030    0.1565 N   0  0  0  0  0  0  0  0  0  0  0  0
    0.0265   -0.3611    1.2239 C   0  0  0  0  0  0  0  0  0  0  0  0
   -0.3643   -0.4868    2.3833 O   0  0  0  0  0  0  0  0  0  0  0  0
    1.4154   -0.5845    0.8525 C   0  0  0  0  0  0  0  0  0  0  0  0
    2.5521   -0.9483    1.6690 C   0  0  0  0  0  0  0  0  0  0  0  0
    2.5001   -1.1455    3.1554 C   0  0  0  0  0  0  0  0  0  0  0  0
    9.0851   -0.9427    1.4346 H   0  0  0  0  0  0  0  0  0  0  0  0
    7.5869   -0.3518    2.1865 H   0  0  0  0  0  0  0  0  0  0  0  0
    8.0255    0.2002    0.5749 H   0  0  0  0  0  0  0  0  0  0  0  0
    7.7600   -2.1224   -0.3109 H   0  0  0  0  0  0  0  0  0  0  0  0
    7.2966   -2.7075    1.2844 H   0  0  0  0  0  0  0  0  0  0  0  0
   -0.6437   -1.7237   -3.6818 H   0  0  0  0  0  0  0  0  0  0  0  0
    0.9273   -0.9564   -3.9518 H   0  0  0  0  0  0  0  0  0  0  0  0
   -1.3319   -1.8803   -7.0278 H   0  0  0  0  0  0  0  0  0  0  0  0
   -3.3593    1.0238   -2.5984 H   0  0  0  0  0  0  0  0  0  0  0  0
   -3.0976    2.8756    1.1151 H   0  0  0  0  0  0  0  0  0  0  0  0
   -3.7930    4.0910    3.1339 H   0  0  0  0  0  0  0  0  0  0  0  0
   -5.9646    3.5851    4.2201 H   0  0  0  0  0  0  0  0  0  0  0  0
   -7.4603    1.8531    3.2595 H   0  0  0  0  0  0  0  0  0  0  0  0
   -6.7186    0.1759    0.2740 H   0  0  0  0  0  0  0  0  0  0  0  0
   -2.4653    0.0922    1.4810 H   0  0  0  0  0  0  0  0  0  0  0  0
    3.4349   -0.8380    3.6330 H   0  0  0  0  0  0  0  0  0  0  0  0
    1.7161   -0.5414    3.6186 H   0  0  0  0  0  0  0  0  0  0  0  0
    2.3144   -2.1983    3.3890 H   0  0  0  0  0  0  0  0  0  0  0  0
  1  2  1  0
  2  3  1  0
  3  4  1  0
  4  5  2  0
  4  6  1  0
  6  7  1  0
  7  8  1  0
  8  9  1  0
  9 10  2  0
 10 11  1  0
 11 12  1  0
 12 13  1  0
 13 14  1  0
 14 15  2  0
 14 16  1  0
 11 17  2  0
 17 18  1  0
 18 19  1  0
 19 20  2  0
 19 21  1  0
 21 22  2  0
 22 23  1  0
 23 24  2  0
 24 25  1  0
 25 26  2  0
 26 27  1  0
 18 28  2  0
 28 29  1  0
 29 30  1  0
 30 31  2  0
 30 32  1  0
 32 33  1  0
 33 34  1  0
 33  6  2  0
 32  8  2  0
 29 10  1  0
 26 21  1  0
  1 35  1  0
  1 36  1  0
  1 37  1  0
  2 38  1  0
  2 39  1  0
 13 40  1  0
 13 41  1  0
 16 42  1  0
 17 43  1  0
 22 44  1  0
 23 45  1  0
 24 46  1  0
 25 47  1  0
 27 48  1  0
 28 49  1  0
 34 50  1  0
 34 51  1  0
 34 52  1  0
M  END
$$$$
