
     RDKit          3D

 43 44  0  0  0  0  0  0  0  0999 V2000
   -6.9911    1.1789   -0.3171 C   0  0  0  0  0  0  0  0  0  0  0  0
   -5.7638    1.8705    0.2614 C   0  0  0  0  0  0  0  0  0  0  0  0
   -4.4680    1.4912   -0.4553 C   0  0  0  0  0  0  0  0  0  0  0  0
   -4.0828    0.0797   -0.2269 C   0  0  0  0  0  0  0  0  0  0  0  0
   -4.1843   -0.9596   -1.0260 N   0  0  0  0  0  0  0  0  0  0  0  0
   -3.6699   -2.0329   -0.3262 N   0  0  0  0  0  0  0  0  0  0  0  0
   -3.2883   -1.5727    0.8468 C   0  0  0  0  0  0  0  0  0  0  0  0
   -2.5456   -2.5561    2.0722 S   0  0  0  0  0  0  0  0  0  0  0  0
   -1.8871   -1.2777    3.1782 C   0  0  0  0  0  0  0  0  0  0  0  0
   -0.8398   -0.4017    2.5030 C   0  0  0  0  0  0  0  0  0  0  0  0
   -0.8801    0.8188    2.6342 O   0  0  0  0  0  0  0  0  0  0  0  0
    0.1313   -1.1181    1.8229 N   0  0  0  0  0  0  0  0  0  0  0  0
    1.2462   -0.6140    1.1248 C   0  0  0  0  0  0  0  0  0  0  0  0
    2.0442   -1.5418    0.4429 C   0  0  0  0  0  0  0  0  0  0  0  0
    3.1715   -1.1276   -0.2768 C   0  0  0  0  0  0  0  0  0  0  0  0
    3.5179    0.2271   -0.3222 C   0  0  0  0  0  0  0  0  0  0  0  0
    4.7035    0.7277   -1.0700 C   0  0  0  0  0  0  0  0  0  0  0  0
    5.0236    1.9047   -1.1198 O   0  0  0  0  0  0  0  0  0  0  0  0
    5.3565   -0.2983   -1.6709 O   0  0  0  0  0  0  0  0  0  0  0  0
    6.5134    0.0998   -2.4166 C   0  0  0  0  0  0  0  0  0  0  0  0
    7.1330   -1.1426   -3.0262 C   0  0  0  0  0  0  0  0  0  0  0  0
    2.7233    1.1547    0.3606 C   0  0  0  0  0  0  0  0  0  0  0  0
    1.5957    0.7362    1.0790 C   0  0  0  0  0  0  0  0  0  0  0  0
   -3.5301   -0.2324    0.9840 O   0  0  0  0  0  0  0  0  0  0  0  0
   -7.8951    1.5329    0.1886 H   0  0  0  0  0  0  0  0  0  0  0  0
   -6.9388    0.0937   -0.1863 H   0  0  0  0  0  0  0  0  0  0  0  0
   -7.0951    1.3934   -1.3855 H   0  0  0  0  0  0  0  0  0  0  0  0
   -5.9056    2.9545    0.1760 H   0  0  0  0  0  0  0  0  0  0  0  0
   -5.6907    1.6416    1.3315 H   0  0  0  0  0  0  0  0  0  0  0  0
   -4.5663    1.6757   -1.5314 H   0  0  0  0  0  0  0  0  0  0  0  0
   -3.6592    2.1397   -0.0975 H   0  0  0  0  0  0  0  0  0  0  0  0
   -2.7064   -0.6495    3.5427 H   0  0  0  0  0  0  0  0  0  0  0  0
   -1.4220   -1.7599    4.0439 H   0  0  0  0  0  0  0  0  0  0  0  0
   -0.0152   -2.1206    1.7642 H   0  0  0  0  0  0  0  0  0  0  0  0
    1.8009   -2.6018    0.4553 H   0  0  0  0  0  0  0  0  0  0  0  0
    3.7664   -1.8746   -0.7969 H   0  0  0  0  0  0  0  0  0  0  0  0
    7.2352    0.5838   -1.7491 H   0  0  0  0  0  0  0  0  0  0  0  0
    6.2203    0.7951   -3.2112 H   0  0  0  0  0  0  0  0  0  0  0  0
    8.0239   -0.8894   -3.6076 H   0  0  0  0  0  0  0  0  0  0  0  0
    6.4158   -1.6496   -3.6802 H   0  0  0  0  0  0  0  0  0  0  0  0
    7.4116   -1.8574   -2.2448 H   0  0  0  0  0  0  0  0  0  0  0  0
    2.9748    2.2140    0.3396 H   0  0  0  0  0  0  0  0  0  0  0  0
    1.0161    1.4969    1.5929 H   0  0  0  0  0  0  0  0  0  0  0  0
  1  2  1  0
  2  3  1  0
  3  4  1  0
  4  5  2  0
  5  6  1  0
  6  7  2  0
  7  8  1  0
  8  9  1  0
  9 10  1  0
 10 11  2  0
 10 12  1  0
 12 13  1  0
 13 14  2  0
 14 15  1  0
 15 16  2  0
 16 17  1  0
 17 18  2  0
 17 19  1  0
 19 20  1  0
 20 21  1  0
 16 22  1  0
 22 23  2  0
  7 24  1  0
 24  4  1  0
 23 13  1  0
  1 25  1  0
  1 26  1  0
  1 27  1  0
  2 28  1  0
  2 29  1  0
  3 30  1  0
  3 31  1  0
  9 32  1  0
  9 33  1  0
 12 34  1  0
 14 35  1  0
 15 36  1  0
 20 37  1  0
 20 38  1  0
 21 39  1  0
 21 40  1  0
 21 41  1  0
 22 42  1  0
 23 43  1  0
M  END
$$$$
