
     RDKit          3D

 53 56  0  0  0  0  0  0  0  0999 V2000
    2.7654   -4.5635   -1.0132 C   0  0  0  0  0  0  0  0  0  0  0  0
    2.7603   -3.5464   -0.0205 O   0  0  0  0  0  0  0  0  0  0  0  0
    2.4941   -2.2741   -0.4445 C   0  0  0  0  0  0  0  0  0  0  0  0
    2.3686   -1.8595   -1.7678 C   0  0  0  0  0  0  0  0  0  0  0  0
    2.0834   -0.5208   -2.0645 C   0  0  0  0  0  0  0  0  0  0  0  0
    1.9200    0.4184   -1.0416 C   0  0  0  0  0  0  0  0  0  0  0  0
    1.6352    1.7419   -1.2532 O   0  0  0  0  0  0  0  0  0  0  0  0
    1.0357    2.0727   -2.5006 C   0  0  0  0  0  0  0  0  0  0  0  0
    2.0730    0.0167    0.2958 C   0  0  0  0  0  0  0  0  0  0  0  0
    1.9089    0.9849    1.4445 C   0  0  0  0  0  0  0  0  0  0  0  0
    0.5834    0.9202    2.0946 N   0  0  0  0  0  0  0  0  0  0  0  0
   -0.4344    1.5038    1.2600 N   0  0  0  0  0  0  0  0  0  0  0  0
   -1.3051    0.7136    0.4982 C   0  0  0  0  0  0  0  0  0  0  0  0
   -1.2860   -0.7717    0.6329 C   0  0  0  0  0  0  0  0  0  0  0  0
   -1.3339   -1.5462   -0.5324 C   0  0  0  0  0  0  0  0  0  0  0  0
   -1.3333   -2.9381   -0.4486 C   0  0  0  0  0  0  0  0  0  0  0  0
   -1.3048   -3.5617    0.7993 C   0  0  0  0  0  0  0  0  0  0  0  0
   -1.3021   -2.8004    1.9746 C   0  0  0  0  0  0  0  0  0  0  0  0
   -1.2443   -3.4690    3.3160 C   0  0  0  0  0  0  0  0  0  0  0  0
   -1.2938   -1.4012    1.8834 C   0  0  0  0  0  0  0  0  0  0  0  0
   -2.1524    1.2302   -0.3440 N   0  0  0  0  0  0  0  0  0  0  0  0
   -2.2140    2.6225   -0.4768 C   0  0  0  0  0  0  0  0  0  0  0  0
   -3.0965    3.1655   -1.4139 C   0  0  0  0  0  0  0  0  0  0  0  0
   -3.2027    4.5498   -1.5768 C   0  0  0  0  0  0  0  0  0  0  0  0
   -2.4251    5.4069   -0.7988 C   0  0  0  0  0  0  0  0  0  0  0  0
   -1.5413    4.8790    0.1411 C   0  0  0  0  0  0  0  0  0  0  0  0
   -1.4430    3.4906    0.2937 C   0  0  0  0  0  0  0  0  0  0  0  0
   -0.5087    2.9008    1.2642 C   0  0  0  0  0  0  0  0  0  0  0  0
    0.1402    3.6208    2.0241 O   0  0  0  0  0  0  0  0  0  0  0  0
    2.3508   -1.3341    0.5768 C   0  0  0  0  0  0  0  0  0  0  0  0
    3.5928   -4.4217   -1.7164 H   0  0  0  0  0  0  0  0  0  0  0  0
    1.8047   -4.6131   -1.5372 H   0  0  0  0  0  0  0  0  0  0  0  0
    2.9186   -5.5223   -0.5085 H   0  0  0  0  0  0  0  0  0  0  0  0
    2.4885   -2.5498   -2.5956 H   0  0  0  0  0  0  0  0  0  0  0  0
    2.0036   -0.2394   -3.1095 H   0  0  0  0  0  0  0  0  0  0  0  0
    0.6798    3.1055   -2.4359 H   0  0  0  0  0  0  0  0  0  0  0  0
    1.7713    2.0254   -3.3095 H   0  0  0  0  0  0  0  0  0  0  0  0
    0.1714    1.4347   -2.7141 H   0  0  0  0  0  0  0  0  0  0  0  0
    2.6607    0.7327    2.2041 H   0  0  0  0  0  0  0  0  0  0  0  0
    2.1581    2.0087    1.1408 H   0  0  0  0  0  0  0  0  0  0  0  0
    0.6393    1.5418    2.9085 H   0  0  0  0  0  0  0  0  0  0  0  0
   -1.3535   -1.0646   -1.5066 H   0  0  0  0  0  0  0  0  0  0  0  0
   -1.3466   -3.5357   -1.3555 H   0  0  0  0  0  0  0  0  0  0  0  0
   -1.2884   -4.6480    0.8498 H   0  0  0  0  0  0  0  0  0  0  0  0
   -1.6691   -4.4775    3.2719 H   0  0  0  0  0  0  0  0  0  0  0  0
   -0.2052   -3.5392    3.6532 H   0  0  0  0  0  0  0  0  0  0  0  0
   -1.8223   -2.9052    4.0559 H   0  0  0  0  0  0  0  0  0  0  0  0
   -1.2947   -0.8045    2.7917 H   0  0  0  0  0  0  0  0  0  0  0  0
   -3.7092    2.4999   -2.0170 H   0  0  0  0  0  0  0  0  0  0  0  0
   -3.8966    4.9567   -2.3085 H   0  0  0  0  0  0  0  0  0  0  0  0
   -2.5086    6.4839   -0.9231 H   0  0  0  0  0  0  0  0  0  0  0  0
   -0.9314    5.5432    0.7491 H   0  0  0  0  0  0  0  0  0  0  0  0
    2.4393   -1.6629    1.6104 H   0  0  0  0  0  0  0  0  0  0  0  0
  1  2  1  0
  2  3  1  0
  3  4  2  0
  4  5  1  0
  5  6  2  0
  6  7  1  0
  7  8  1  0
  6  9  1  0
  9 10  1  0
 10 11  1  0
 11 12  1  0
 12 13  1  0
 13 14  1  0
 14 15  2  0
 15 16  1  0
 16 17  2  0
 17 18  1  0
 18 19  1  0
 18 20  2  0
 13 21  2  0
 21 22  1  0
 22 23  2  0
 23 24  1  0
 24 25  2  0
 25 26  1  0
 26 27  2  0
 27 28  1  0
 28 29  2  0
  9 30  2  0
 30  3  1  0
 28 12  1  0
 20 14  1  0
 27 22  1  0
  1 31  1  0
  1 32  1  0
  1 33  1  0
  4 34  1  0
  5 35  1  0
  8 36  1  0
  8 37  1  0
  8 38  1  0
 10 39  1  0
 10 40  1  0
 11 41  1  0
 15 42  1  0
 16 43  1  0
 17 44  1  0
 19 45  1  0
 19 46  1  0
 19 47  1  0
 20 48  1  0
 23 49  1  0
 24 50  1  0
 25 51  1  0
 26 52  1  0
 30 53  1  0
M  END
$$$$
