
     RDKit          3D

 28 29  0  0  0  0  0  0  0  0999 V2000
   -1.1139    0.8414    1.2578 O   0  0  0  0  0  0  0  0  0  0  0  0
   -1.7193    0.5157    0.2467 C   0  0  0  0  0  0  0  0  0  0  0  0
   -1.1903    0.4512   -1.0022 O   0  0  0  0  0  0  0  0  0  0  0  0
    0.2174    0.6705   -1.0525 C   0  0  0  0  0  0  0  0  0  0  0  0
    1.0113   -0.5271   -0.5411 C   0  0  0  0  0  0  0  0  0  0  0  0
    0.5484   -1.6563   -0.4117 O   0  0  0  0  0  0  0  0  0  0  0  0
    2.4324   -0.2845   -0.2266 C   0  0  0  0  0  0  0  0  0  0  0  0
    3.2894    0.0950   -1.2694 C   0  0  0  0  0  0  0  0  0  0  0  0
    4.6405    0.3262   -1.0083 C   0  0  0  0  0  0  0  0  0  0  0  0
    5.1355    0.1780    0.2868 C   0  0  0  0  0  0  0  0  0  0  0  0
    4.2813   -0.2029    1.3244 C   0  0  0  0  0  0  0  0  0  0  0  0
    2.9262   -0.4376    1.0724 C   0  0  0  0  0  0  0  0  0  0  0  0
    1.9222   -0.8664    2.4081 Cl  0  0  0  0  0  0  0  0  0  0  0  0
   -3.1541    0.1386    0.2324 C   0  0  0  0  0  0  0  0  0  0  0  0
   -3.8135   -0.0153    1.4441 C   0  0  0  0  0  0  0  0  0  0  0  0
   -5.1286   -0.3488    1.5224 N   0  0  0  0  0  0  0  0  0  0  0  0
   -5.7500   -0.5271    0.3341 C   0  0  0  0  0  0  0  0  0  0  0  0
   -5.0951   -0.3725   -0.8776 C   0  0  0  0  0  0  0  0  0  0  0  0
   -3.7887   -0.0317   -0.9618 N   0  0  0  0  0  0  0  0  0  0  0  0
    0.4862    1.5797   -0.5020 H   0  0  0  0  0  0  0  0  0  0  0  0
    0.4762    0.8243   -2.1051 H   0  0  0  0  0  0  0  0  0  0  0  0
    2.9213    0.1921   -2.2880 H   0  0  0  0  0  0  0  0  0  0  0  0
    5.3109    0.6138   -1.8156 H   0  0  0  0  0  0  0  0  0  0  0  0
    6.1894    0.3554    0.4905 H   0  0  0  0  0  0  0  0  0  0  0  0
    4.6789   -0.3139    2.3308 H   0  0  0  0  0  0  0  0  0  0  0  0
   -3.3065    0.1226    2.3938 H   0  0  0  0  0  0  0  0  0  0  0  0
   -6.7983   -0.8004    0.3815 H   0  0  0  0  0  0  0  0  0  0  0  0
   -5.6093   -0.5201   -1.8209 H   0  0  0  0  0  0  0  0  0  0  0  0
  1  2  2  0
  2  3  1  0
  3  4  1  0
  4  5  1  0
  5  6  2  0
  5  7  1  0
  7  8  2  0
  8  9  1  0
  9 10  2  0
 10 11  1  0
 11 12  2  0
 12 13  1  0
  2 14  1  0
 14 15  2  0
 15 16  1  0
 16 17  2  0
 17 18  1  0
 18 19  2  0
 12  7  1  0
 19 14  1  0
  4 20  1  0
  4 21  1  0
  8 22  1  0
  9 23  1  0
 10 24  1  0
 11 25  1  0
 15 26  1  0
 17 27  1  0
 18 28  1  0
M  END
$$$$
