
     RDKit          3D

 65 69  0  0  0  0  0  0  0  0999 V2000
   -2.9718    4.4064    3.6142 C   0  0  0  0  0  0  0  0  0  0  0  0
   -3.8918    3.5983    2.7194 C   0  0  0  0  0  0  0  0  0  0  0  0
   -3.3812    3.5505    1.3879 O   0  0  0  0  0  0  0  0  0  0  0  0
   -2.6593    2.4534    1.0116 C   0  0  0  0  0  0  0  0  0  0  0  0
   -2.0546    1.5357    1.8671 C   0  0  0  0  0  0  0  0  0  0  0  0
   -1.3317    0.4557    1.3465 C   0  0  0  0  0  0  0  0  0  0  0  0
   -1.2022    0.2698   -0.0403 C   0  0  0  0  0  0  0  0  0  0  0  0
   -0.4084   -0.9046   -0.5683 C   0  0  0  0  0  0  0  0  0  0  0  0
    1.0917   -0.6469   -0.8165 C   0  0  0  0  0  0  0  0  0  0  0  0
    1.4385    0.6698   -1.4777 C   0  0  0  0  0  0  0  0  0  0  0  0
    0.8088    1.0979   -2.4472 O   0  0  0  0  0  0  0  0  0  0  0  0
    2.6103    1.4357   -0.9764 C   0  0  0  0  0  0  0  0  0  0  0  0
    2.5969    2.8395   -1.1068 C   0  0  0  0  0  0  0  0  0  0  0  0
    3.6847    3.6058   -0.6741 C   0  0  0  0  0  0  0  0  0  0  0  0
    4.7628    2.9443   -0.1255 C   0  0  0  0  0  0  0  0  0  0  0  0
    4.7821    1.5672    0.0152 C   0  0  0  0  0  0  0  0  0  0  0  0
    3.7170    0.7879   -0.4098 C   0  0  0  0  0  0  0  0  0  0  0  0
    6.0313    1.1562    0.6933 C   0  0  0  0  0  0  0  0  0  0  0  0
    6.8172    2.4769    0.6242 C   0  0  0  0  0  0  0  0  0  0  0  0
    7.9117    2.4528   -0.4409 C   0  0  0  0  0  0  0  0  0  0  0  0
    5.8996    3.5649    0.3206 O   0  0  0  0  0  0  0  0  0  0  0  0
    1.3922   -1.7631   -1.7662 C   0  0  0  0  0  0  0  0  0  0  0  0
    2.4934   -2.2160   -2.0150 O   0  0  0  0  0  0  0  0  0  0  0  0
    0.0911   -2.2458   -2.4012 C   0  0  0  0  0  0  0  0  0  0  0  0
    0.0080   -3.1062   -3.2502 O   0  0  0  0  0  0  0  0  0  0  0  0
   -0.9332   -1.5684   -1.7564 N   0  0  0  0  0  0  0  0  0  0  0  0
   -2.3041   -2.0525   -1.8636 C   0  0  0  0  0  0  0  0  0  0  0  0
   -2.5693   -3.2703   -0.9794 C   0  0  0  0  0  0  0  0  0  0  0  0
   -3.9661   -3.8350   -1.2220 C   0  0  0  0  0  0  0  0  0  0  0  0
   -4.2455   -4.9471   -0.3392 N   0  0  0  0  0  0  0  0  0  0  0  0
   -3.9253   -6.2562   -0.5596 C   0  0  0  0  0  0  0  0  0  0  0  0
   -4.3742   -6.9205    0.5574 C   0  0  0  0  0  0  0  0  0  0  0  0
   -4.9566   -6.0485    1.4417 N   0  0  0  0  0  0  0  0  0  0  0  0
   -4.8724   -4.8687    0.8709 C   0  0  0  0  0  0  0  0  0  0  0  0
   -1.8017    1.2099   -0.8885 C   0  0  0  0  0  0  0  0  0  0  0  0
   -2.5150    2.2917   -0.3659 C   0  0  0  0  0  0  0  0  0  0  0  0
   -3.3570    4.4413    4.6379 H   0  0  0  0  0  0  0  0  0  0  0  0
   -2.8873    5.4364    3.2430 H   0  0  0  0  0  0  0  0  0  0  0  0
   -1.9594    3.9918    3.6287 H   0  0  0  0  0  0  0  0  0  0  0  0
   -4.0989    2.6035    3.1300 H   0  0  0  0  0  0  0  0  0  0  0  0
   -4.8593    4.1089    2.6654 H   0  0  0  0  0  0  0  0  0  0  0  0
   -2.1135    1.6362    2.9460 H   0  0  0  0  0  0  0  0  0  0  0  0
   -0.8691   -0.2399    2.0458 H   0  0  0  0  0  0  0  0  0  0  0  0
   -0.4598   -1.6860    0.2059 H   0  0  0  0  0  0  0  0  0  0  0  0
    1.6268   -0.7813    0.1276 H   0  0  0  0  0  0  0  0  0  0  0  0
    1.7395    3.3390   -1.5502 H   0  0  0  0  0  0  0  0  0  0  0  0
    3.6852    4.6866   -0.7728 H   0  0  0  0  0  0  0  0  0  0  0  0
    3.7777   -0.2923   -0.3230 H   0  0  0  0  0  0  0  0  0  0  0  0
    6.5435    0.3236    0.2018 H   0  0  0  0  0  0  0  0  0  0  0  0
    5.8142    0.8918    1.7339 H   0  0  0  0  0  0  0  0  0  0  0  0
    7.2774    2.6916    1.5963 H   0  0  0  0  0  0  0  0  0  0  0  0
    8.6751    1.7027   -0.2113 H   0  0  0  0  0  0  0  0  0  0  0  0
    7.4969    2.2396   -1.4305 H   0  0  0  0  0  0  0  0  0  0  0  0
    8.3921    3.4352   -0.5133 H   0  0  0  0  0  0  0  0  0  0  0  0
   -2.9897   -1.2378   -1.6147 H   0  0  0  0  0  0  0  0  0  0  0  0
   -2.4809   -2.3177   -2.9135 H   0  0  0  0  0  0  0  0  0  0  0  0
   -1.8201   -4.0482   -1.1731 H   0  0  0  0  0  0  0  0  0  0  0  0
   -2.4496   -2.9934    0.0746 H   0  0  0  0  0  0  0  0  0  0  0  0
   -4.0707   -4.1921   -2.2537 H   0  0  0  0  0  0  0  0  0  0  0  0
   -4.7362   -3.0734   -1.0519 H   0  0  0  0  0  0  0  0  0  0  0  0
   -3.4239   -6.5989   -1.4536 H   0  0  0  0  0  0  0  0  0  0  0  0
   -4.3107   -7.9807    0.7710 H   0  0  0  0  0  0  0  0  0  0  0  0
   -5.2397   -3.9409    1.2886 H   0  0  0  0  0  0  0  0  0  0  0  0
   -1.7120    1.1199   -1.9707 H   0  0  0  0  0  0  0  0  0  0  0  0
   -2.9633    3.0143   -1.0437 H   0  0  0  0  0  0  0  0  0  0  0  0
  1  2  1  0
  2  3  1  0
  3  4  1  0
  4  5  2  0
  5  6  1  0
  6  7  2  0
  7  8  1  0
  8  9  1  0
  9 10  1  0
 10 11  2  0
 10 12  1  0
 12 13  2  0
 13 14  1  0
 14 15  2  0
 15 16  1  0
 16 17  2  0
 16 18  1  0
 18 19  1  0
 19 20  1  0
 19 21  1  0
  9 22  1  0
 22 23  2  0
 22 24  1  0
 24 25  2  0
 24 26  1  0
 26 27  1  0
 27 28  1  0
 28 29  1  0
 29 30  1  0
 30 31  1  0
 31 32  2  0
 32 33  1  0
 33 34  2  0
  7 35  1  0
 35 36  2  0
 36  4  1  0
 26  8  1  0
 34 30  1  0
 17 12  1  0
 21 15  1  0
  1 37  1  0
  1 38  1  0
  1 39  1  0
  2 40  1  0
  2 41  1  0
  5 42  1  0
  6 43  1  0
  8 44  1  0
  9 45  1  0
 13 46  1  0
 14 47  1  0
 17 48  1  0
 18 49  1  0
 18 50  1  0
 19 51  1  0
 20 52  1  0
 20 53  1  0
 20 54  1  0
 27 55  1  0
 27 56  1  0
 28 57  1  0
 28 58  1  0
 29 59  1  0
 29 60  1  0
 31 61  1  0
 32 62  1  0
 34 63  1  0
 35 64  1  0
 36 65  1  0
M  END
$$$$
