
     RDKit          3D

 39 39  0  0  0  0  0  0  0  0999 V2000
   -1.1219   -2.5662   -3.2900 C   0  0  0  0  0  0  0  0  0  0  0  0
   -1.0652   -1.6411   -2.2037 O   0  0  0  0  0  0  0  0  0  0  0  0
   -2.1337   -1.7116   -1.3558 C   0  0  0  0  0  0  0  0  0  0  0  0
   -3.1023   -2.4438   -1.5242 O   0  0  0  0  0  0  0  0  0  0  0  0
   -2.0245   -0.6832   -0.2142 C   0  0  0  0  0  0  0  0  0  0  0  0
   -2.9896    0.4872   -0.4488 C   0  0  0  0  0  0  0  0  0  0  0  0
   -4.4551    0.0855   -0.2815 C   0  0  0  0  0  0  0  0  0  0  0  0
   -5.5603    1.5339   -0.4060 S   0  0  0  0  0  0  0  0  0  0  0  0
   -5.3365    2.2271    1.2513 C   0  0  0  0  0  0  0  0  0  0  0  0
   -0.6596   -0.1529   -0.0996 N   0  0  0  0  0  0  0  0  0  0  0  0
    0.2727   -0.8437    0.6296 C   0  0  0  0  0  0  0  0  0  0  0  0
    0.0249   -1.8289    1.3093 O   0  0  0  0  0  0  0  0  0  0  0  0
    1.5142   -0.2989    0.4888 N   0  0  0  0  0  0  0  0  0  0  0  0
    2.6227   -0.8005    1.2725 C   0  0  0  0  0  0  0  0  0  0  0  0
    3.8749    0.0193    1.0509 C   0  0  0  0  0  0  0  0  0  0  0  0
    5.1220   -0.5216    1.3549 C   0  0  0  0  0  0  0  0  0  0  0  0
    6.2572    0.2623    1.1691 C   0  0  0  0  0  0  0  0  0  0  0  0
    6.1194    1.5627    0.6995 C   0  0  0  0  0  0  0  0  0  0  0  0
    4.8443    2.0310    0.4324 C   0  0  0  0  0  0  0  0  0  0  0  0
    3.7224    1.2963    0.5992 N   0  0  0  0  0  0  0  0  0  0  0  0
   -1.9750   -2.3420   -3.9376 H   0  0  0  0  0  0  0  0  0  0  0  0
   -1.1749   -3.5948   -2.9192 H   0  0  0  0  0  0  0  0  0  0  0  0
   -0.2049   -2.4576   -3.8755 H   0  0  0  0  0  0  0  0  0  0  0  0
   -2.2685   -1.2018    0.7203 H   0  0  0  0  0  0  0  0  0  0  0  0
   -2.8305    0.9021   -1.4534 H   0  0  0  0  0  0  0  0  0  0  0  0
   -2.7407    1.2844    0.2625 H   0  0  0  0  0  0  0  0  0  0  0  0
   -4.7558   -0.6006   -1.0780 H   0  0  0  0  0  0  0  0  0  0  0  0
   -4.6272   -0.4218    0.6732 H   0  0  0  0  0  0  0  0  0  0  0  0
   -6.0006    3.0872    1.3691 H   0  0  0  0  0  0  0  0  0  0  0  0
   -4.3084    2.5662    1.3972 H   0  0  0  0  0  0  0  0  0  0  0  0
   -5.5933    1.4855    2.0122 H   0  0  0  0  0  0  0  0  0  0  0  0
   -0.2724    0.2286   -0.9533 H   0  0  0  0  0  0  0  0  0  0  0  0
    1.5636    0.6944    0.2980 H   0  0  0  0  0  0  0  0  0  0  0  0
    2.7873   -1.8460    0.9887 H   0  0  0  0  0  0  0  0  0  0  0  0
    2.3479   -0.7638    2.3326 H   0  0  0  0  0  0  0  0  0  0  0  0
    5.2133   -1.5370    1.7277 H   0  0  0  0  0  0  0  0  0  0  0  0
    7.2421   -0.1390    1.3908 H   0  0  0  0  0  0  0  0  0  0  0  0
    6.9852    2.1970    0.5456 H   0  0  0  0  0  0  0  0  0  0  0  0
    4.6870    3.0414    0.0656 H   0  0  0  0  0  0  0  0  0  0  0  0
  1  2  1  0
  2  3  1  0
  3  4  2  0
  3  5  1  0
  5  6  1  0
  6  7  1  0
  7  8  1  0
  8  9  1  0
  5 10  1  0
 10 11  1  0
 11 12  2  0
 11 13  1  0
 13 14  1  0
 14 15  1  0
 15 16  2  0
 16 17  1  0
 17 18  2  0
 18 19  1  0
 19 20  2  0
 20 15  1  0
  1 21  1  0
  1 22  1  0
  1 23  1  0
  5 24  1  0
  6 25  1  0
  6 26  1  0
  7 27  1  0
  7 28  1  0
  9 29  1  0
  9 30  1  0
  9 31  1  0
 10 32  1  0
 13 33  1  0
 14 34  1  0
 14 35  1  0
 16 36  1  0
 17 37  1  0
 18 38  1  0
 19 39  1  0
M  END
$$$$
