
     RDKit          3D

 48 51  0  0  0  0  0  0  0  0999 V2000
    7.1636   -1.3849    2.0128 C   0  0  0  0  0  0  0  0  0  0  0  0
    5.8068   -1.0790    1.4523 C   0  0  0  0  0  0  0  0  0  0  0  0
    4.7056   -1.8701    1.7834 C   0  0  0  0  0  0  0  0  0  0  0  0
    3.4485   -1.5963    1.2332 C   0  0  0  0  0  0  0  0  0  0  0  0
    3.2551   -0.5550    0.3363 C   0  0  0  0  0  0  0  0  0  0  0  0
    2.0288   -0.3353   -0.1664 N   0  0  0  0  0  0  0  0  0  0  0  0
    1.8535    0.6724   -1.0555 C   0  0  0  0  0  0  0  0  0  0  0  0
    0.1875    0.9120   -1.6636 S   0  0  0  0  0  0  0  0  0  0  0  0
   -0.6260   -0.5843   -1.0075 C   0  0  0  0  0  0  0  0  0  0  0  0
   -2.0913   -0.5837   -1.4247 C   0  0  0  0  0  0  0  0  0  0  0  0
   -2.3678   -0.7760   -2.6140 O   0  0  0  0  0  0  0  0  0  0  0  0
   -3.0477   -0.3927   -0.4345 N   0  0  0  0  0  0  0  0  0  0  0  0
   -4.4448   -0.3611   -0.6648 C   0  0  0  0  0  0  0  0  0  0  0  0
   -5.1395   -0.3582   -1.8637 C   0  0  0  0  0  0  0  0  0  0  0  0
   -6.5375   -0.3047   -1.8313 C   0  0  0  0  0  0  0  0  0  0  0  0
   -7.2240   -0.2608   -0.6097 C   0  0  0  0  0  0  0  0  0  0  0  0
   -6.5217   -0.2771    0.5947 C   0  0  0  0  0  0  0  0  0  0  0  0
   -5.1357   -0.3236    0.5480 C   0  0  0  0  0  0  0  0  0  0  0  0
   -4.1970   -0.4273    1.7055 C   0  0  0  0  0  0  0  0  0  0  0  0
   -2.8309   -0.1845    1.0253 C   0  0  0  0  0  0  0  0  0  0  0  0
   -2.3351    1.2331    1.3299 C   0  0  0  0  0  0  0  0  0  0  0  0
    2.8948    1.5107   -1.4659 C   0  0  0  0  0  0  0  0  0  0  0  0
    2.7071    2.6292   -2.4500 C   0  0  0  0  0  0  0  0  0  0  0  0
    4.1637    1.2764   -0.9234 C   0  0  0  0  0  0  0  0  0  0  0  0
    4.3655    0.2340   -0.0126 C   0  0  0  0  0  0  0  0  0  0  0  0
    5.6313   -0.0310    0.5427 C   0  0  0  0  0  0  0  0  0  0  0  0
    7.7543   -0.4694    2.1262 H   0  0  0  0  0  0  0  0  0  0  0  0
    7.6966   -2.0716    1.3483 H   0  0  0  0  0  0  0  0  0  0  0  0
    7.0831   -1.8428    3.0048 H   0  0  0  0  0  0  0  0  0  0  0  0
    4.8131   -2.7076    2.4705 H   0  0  0  0  0  0  0  0  0  0  0  0
    2.5997   -2.2188    1.5065 H   0  0  0  0  0  0  0  0  0  0  0  0
   -0.5028   -0.6379    0.0733 H   0  0  0  0  0  0  0  0  0  0  0  0
   -0.1623   -1.4800   -1.4371 H   0  0  0  0  0  0  0  0  0  0  0  0
   -4.6326   -0.3898   -2.8229 H   0  0  0  0  0  0  0  0  0  0  0  0
   -7.0953   -0.2994   -2.7650 H   0  0  0  0  0  0  0  0  0  0  0  0
   -8.3107   -0.2224   -0.6040 H   0  0  0  0  0  0  0  0  0  0  0  0
   -7.0522   -0.2595    1.5422 H   0  0  0  0  0  0  0  0  0  0  0  0
   -4.4216    0.2942    2.4965 H   0  0  0  0  0  0  0  0  0  0  0  0
   -4.2434   -1.4418    2.1176 H   0  0  0  0  0  0  0  0  0  0  0  0
   -2.1035   -0.9134    1.3972 H   0  0  0  0  0  0  0  0  0  0  0  0
   -1.3482    1.4181    0.9004 H   0  0  0  0  0  0  0  0  0  0  0  0
   -3.0160    1.9901    0.9241 H   0  0  0  0  0  0  0  0  0  0  0  0
   -2.2550    1.3899    2.4110 H   0  0  0  0  0  0  0  0  0  0  0  0
    3.6508    3.1486   -2.6510 H   0  0  0  0  0  0  0  0  0  0  0  0
    2.3419    2.2419   -3.4065 H   0  0  0  0  0  0  0  0  0  0  0  0
    2.0051    3.3725   -2.0586 H   0  0  0  0  0  0  0  0  0  0  0  0
    5.0002    1.9112   -1.2115 H   0  0  0  0  0  0  0  0  0  0  0  0
    6.4862    0.5834    0.2614 H   0  0  0  0  0  0  0  0  0  0  0  0
  1  2  1  0
  2  3  2  0
  3  4  1  0
  4  5  2  0
  5  6  1  0
  6  7  2  0
  7  8  1  0
  8  9  1  0
  9 10  1  0
 10 11  2  0
 10 12  1  0
 12 13  1  0
 13 14  2  0
 14 15  1  0
 15 16  2  0
 16 17  1  0
 17 18  2  0
 18 19  1  0
 19 20  1  0
 20 21  1  0
  7 22  1  0
 22 23  1  0
 22 24  2  0
 24 25  1  0
 25 26  2  0
 26  2  1  0
 25  5  1  0
 20 12  1  0
 18 13  1  0
  1 27  1  0
  1 28  1  0
  1 29  1  0
  3 30  1  0
  4 31  1  0
  9 32  1  0
  9 33  1  0
 14 34  1  0
 15 35  1  0
 16 36  1  0
 17 37  1  0
 19 38  1  0
 19 39  1  0
 20 40  1  0
 21 41  1  0
 21 42  1  0
 21 43  1  0
 23 44  1  0
 23 45  1  0
 23 46  1  0
 24 47  1  0
 26 48  1  0
M  END
$$$$
