
     RDKit          3D

 35 36  0  0  0  0  0  0  0  0999 V2000
    1.4895   -1.3901   -1.3732 O   0  0  0  0  0  0  0  0  0  0  0  0
    1.9555   -1.1771   -0.2602 C   0  0  0  0  0  0  0  0  0  0  0  0
    1.3078   -1.5149    0.9098 N   0  0  0  0  0  0  0  0  0  0  0  0
    0.0181   -2.1811    0.9143 C   0  0  0  0  0  0  0  0  0  0  0  0
   -1.1501   -1.2041    1.0098 C   0  0  0  0  0  0  0  0  0  0  0  0
   -1.4428   -0.4980   -0.3125 C   0  0  0  0  0  0  0  0  0  0  0  0
   -2.6044    0.3682   -0.1950 N   0  0  0  0  0  0  0  0  0  0  0  0
   -2.4963    1.7964   -0.0564 C   0  0  0  0  0  0  0  0  0  0  0  0
   -3.8975    2.2126    0.3459 C   0  0  0  0  0  0  0  0  0  0  0  0
   -4.7949    1.1709   -0.3133 C   0  0  0  0  0  0  0  0  0  0  0  0
   -3.9134   -0.0525   -0.3683 C   0  0  0  0  0  0  0  0  0  0  0  0
   -4.2960   -1.1934   -0.5658 O   0  0  0  0  0  0  0  0  0  0  0  0
    3.2595   -0.4870   -0.1252 C   0  0  0  0  0  0  0  0  0  0  0  0
    4.0902   -0.6159    0.9907 C   0  0  0  0  0  0  0  0  0  0  0  0
    5.3010    0.0755    1.0245 C   0  0  0  0  0  0  0  0  0  0  0  0
    5.6405    0.8685   -0.0608 C   0  0  0  0  0  0  0  0  0  0  0  0
    4.8665    1.0063   -1.1583 N   0  0  0  0  0  0  0  0  0  0  0  0
    3.6977    0.3165   -1.1712 C   0  0  0  0  0  0  0  0  0  0  0  0
    1.6624   -1.1853    1.7967 H   0  0  0  0  0  0  0  0  0  0  0  0
    0.0178   -2.8293    1.7974 H   0  0  0  0  0  0  0  0  0  0  0  0
   -0.0746   -2.8213    0.0303 H   0  0  0  0  0  0  0  0  0  0  0  0
   -0.9625   -0.4620    1.7960 H   0  0  0  0  0  0  0  0  0  0  0  0
   -2.0431   -1.7637    1.3157 H   0  0  0  0  0  0  0  0  0  0  0  0
   -1.6512   -1.2413   -1.0905 H   0  0  0  0  0  0  0  0  0  0  0  0
   -0.5971    0.1140   -0.6399 H   0  0  0  0  0  0  0  0  0  0  0  0
   -1.7534    2.0563    0.7030 H   0  0  0  0  0  0  0  0  0  0  0  0
   -2.2069    2.2183   -1.0243 H   0  0  0  0  0  0  0  0  0  0  0  0
   -4.0047    2.1466    1.4360 H   0  0  0  0  0  0  0  0  0  0  0  0
   -4.1400    3.2362    0.0470 H   0  0  0  0  0  0  0  0  0  0  0  0
   -5.0640    1.4597   -1.3338 H   0  0  0  0  0  0  0  0  0  0  0  0
   -5.6939    0.9811    0.2778 H   0  0  0  0  0  0  0  0  0  0  0  0
    3.8307   -1.2650    1.8204 H   0  0  0  0  0  0  0  0  0  0  0  0
    5.9706   -0.0093    1.8737 H   0  0  0  0  0  0  0  0  0  0  0  0
    6.5740    1.4245   -0.0797 H   0  0  0  0  0  0  0  0  0  0  0  0
    3.1049    0.4399   -2.0748 H   0  0  0  0  0  0  0  0  0  0  0  0
  1  2  2  0
  2  3  1  0
  3  4  1  0
  4  5  1  0
  5  6  1  0
  6  7  1  0
  7  8  1  0
  8  9  1  0
  9 10  1  0
 10 11  1  0
 11 12  2  0
  2 13  1  0
 13 14  2  0
 14 15  1  0
 15 16  2  0
 16 17  1  0
 17 18  2  0
 11  7  1  0
 18 13  1  0
  3 19  1  0
  4 20  1  0
  4 21  1  0
  5 22  1  0
  5 23  1  0
  6 24  1  0
  6 25  1  0
  8 26  1  0
  8 27  1  0
  9 28  1  0
  9 29  1  0
 10 30  1  0
 10 31  1  0
 14 32  1  0
 15 33  1  0
 16 34  1  0
 18 35  1  0
M  END
$$$$
