
     RDKit          3D

 42 44  0  0  0  0  0  0  0  0999 V2000
    4.3092   -0.2698   -0.5131 C   0  0  0  0  0  0  0  0  0  0  0  0
    3.8384   -0.5480    0.9061 C   0  0  0  0  0  0  0  0  0  0  0  0
    2.3523   -0.9090    0.9971 C   0  0  0  0  0  0  0  0  0  0  0  0
    1.4267    0.2392    0.5816 C   0  0  0  0  0  0  0  0  0  0  0  0
   -0.0789    0.0062    0.8837 C   0  0  0  0  0  0  0  0  0  0  0  0
   -0.6615   -1.1084    0.0365 C   0  0  0  0  0  0  0  0  0  0  0  0
   -1.4006   -0.8504   -1.0594 C   0  0  0  0  0  0  0  0  0  0  0  0
   -1.9538   -1.9015   -1.9764 C   0  0  0  0  0  0  0  0  0  0  0  0
   -1.2088   -3.2214   -1.8267 C   0  0  0  0  0  0  0  0  0  0  0  0
   -1.1171   -3.6256   -0.3654 C   0  0  0  0  0  0  0  0  0  0  0  0
   -0.5258   -2.5235    0.4890 C   0  0  0  0  0  0  0  0  0  0  0  0
   -0.0101   -2.7849    1.5742 O   0  0  0  0  0  0  0  0  0  0  0  0
   -1.7234    0.4475   -1.4375 O   0  0  0  0  0  0  0  0  0  0  0  0
   -1.5641    1.4667   -0.5061 C   0  0  0  0  0  0  0  0  0  0  0  0
   -0.8213    1.3001    0.6035 C   0  0  0  0  0  0  0  0  0  0  0  0
   -0.7139    2.4175    1.5846 C   0  0  0  0  0  0  0  0  0  0  0  0
   -0.0770    2.2742    2.6261 O   0  0  0  0  0  0  0  0  0  0  0  0
   -1.3471    3.7471    1.2341 C   0  0  0  0  0  0  0  0  0  0  0  0
   -2.6037    3.5582    0.4007 C   0  0  0  0  0  0  0  0  0  0  0  0
   -2.3190    2.7201   -0.8402 C   0  0  0  0  0  0  0  0  0  0  0  0
    3.8409    0.6304   -0.9217 H   0  0  0  0  0  0  0  0  0  0  0  0
    5.3927   -0.1138   -0.5253 H   0  0  0  0  0  0  0  0  0  0  0  0
    4.0806   -1.1109   -1.1752 H   0  0  0  0  0  0  0  0  0  0  0  0
    4.0511    0.3219    1.5382 H   0  0  0  0  0  0  0  0  0  0  0  0
    4.4232   -1.3830    1.3101 H   0  0  0  0  0  0  0  0  0  0  0  0
    2.1676   -1.7896    0.3726 H   0  0  0  0  0  0  0  0  0  0  0  0
    2.1353   -1.1886    2.0348 H   0  0  0  0  0  0  0  0  0  0  0  0
    1.5548    0.4343   -0.4916 H   0  0  0  0  0  0  0  0  0  0  0  0
    1.7661    1.1463    1.0980 H   0  0  0  0  0  0  0  0  0  0  0  0
   -0.2152   -0.2446    1.9433 H   0  0  0  0  0  0  0  0  0  0  0  0
   -1.8736   -1.5680   -3.0178 H   0  0  0  0  0  0  0  0  0  0  0  0
   -3.0198   -2.0397   -1.7601 H   0  0  0  0  0  0  0  0  0  0  0  0
   -1.7138   -4.0044   -2.4032 H   0  0  0  0  0  0  0  0  0  0  0  0
   -0.1977   -3.1189   -2.2422 H   0  0  0  0  0  0  0  0  0  0  0  0
   -2.1087   -3.8678    0.0326 H   0  0  0  0  0  0  0  0  0  0  0  0
   -0.4808   -4.5128   -0.2761 H   0  0  0  0  0  0  0  0  0  0  0  0
   -1.6054    4.2662    2.1635 H   0  0  0  0  0  0  0  0  0  0  0  0
   -0.6055    4.3485    0.6970 H   0  0  0  0  0  0  0  0  0  0  0  0
   -3.3711    3.0588    1.0067 H   0  0  0  0  0  0  0  0  0  0  0  0
   -3.0114    4.5322    0.1080 H   0  0  0  0  0  0  0  0  0  0  0  0
   -3.2725    2.4671   -1.3189 H   0  0  0  0  0  0  0  0  0  0  0  0
   -1.7373    3.3021   -1.5649 H   0  0  0  0  0  0  0  0  0  0  0  0
  1  2  1  0
  2  3  1  0
  3  4  1  0
  4  5  1  0
  5  6  1  0
  6  7  2  0
  7  8  1  0
  8  9  1  0
  9 10  1  0
 10 11  1  0
 11 12  2  0
  7 13  1  0
 13 14  1  0
 14 15  2  0
 15 16  1  0
 16 17  2  0
 16 18  1  0
 18 19  1  0
 19 20  1  0
 15  5  1  0
 11  6  1  0
 20 14  1  0
  1 21  1  0
  1 22  1  0
  1 23  1  0
  2 24  1  0
  2 25  1  0
  3 26  1  0
  3 27  1  0
  4 28  1  0
  4 29  1  0
  5 30  1  0
  8 31  1  0
  8 32  1  0
  9 33  1  0
  9 34  1  0
 10 35  1  0
 10 36  1  0
 18 37  1  0
 18 38  1  0
 19 39  1  0
 19 40  1  0
 20 41  1  0
 20 42  1  0
M  END
$$$$
