
     RDKit          3D

 56 60  0  0  0  0  0  0  0  0999 V2000
   -0.9819   -1.0861   -2.1816 C   0  0  0  0  0  0  0  0  0  0  0  0
   -0.7924   -1.0151   -0.8561 C   0  0  0  0  0  0  0  0  0  0  0  0
    0.5137   -1.0248   -0.1605 C   0  0  0  0  0  0  0  0  0  0  0  0
    1.7302   -1.0555   -0.7333 C   0  0  0  0  0  0  0  0  0  0  0  0
    3.0260   -1.0377   -0.0657 C   0  0  0  0  0  0  0  0  0  0  0  0
    3.4493   -1.9707    0.7952 C   0  0  0  0  0  0  0  0  0  0  0  0
    2.6916   -3.0547    1.1502 O   0  0  0  0  0  0  0  0  0  0  0  0
    4.6667   -1.8996    1.3756 N   0  0  0  0  0  0  0  0  0  0  0  0
    5.5474   -0.8649    1.2156 C   0  0  0  0  0  0  0  0  0  0  0  0
    6.5571   -0.8977    1.9195 O   0  0  0  0  0  0  0  0  0  0  0  0
    5.1887    0.1249    0.3015 N   0  0  0  0  0  0  0  0  0  0  0  0
    6.0802    1.2432    0.0651 C   0  0  0  0  0  0  0  0  0  0  0  0
    5.5765    2.5029   -0.3113 C   0  0  0  0  0  0  0  0  0  0  0  0
    6.4239    3.5963   -0.5340 C   0  0  0  0  0  0  0  0  0  0  0  0
    7.7967    3.4498   -0.3824 C   0  0  0  0  0  0  0  0  0  0  0  0
    8.8405    4.7884   -0.6540 Cl  0  0  0  0  0  0  0  0  0  0  0  0
    8.3258    2.2200   -0.0110 C   0  0  0  0  0  0  0  0  0  0  0  0
    7.4741    1.1290    0.2106 C   0  0  0  0  0  0  0  0  0  0  0  0
    4.0133    0.0244   -0.4548 C   0  0  0  0  0  0  0  0  0  0  0  0
    3.7563    0.7067   -1.4507 O   0  0  0  0  0  0  0  0  0  0  0  0
    0.2403   -0.9596    1.2699 C   0  0  0  0  0  0  0  0  0  0  0  0
   -1.0984   -0.9190    1.4195 C   0  0  0  0  0  0  0  0  0  0  0  0
   -1.8098   -0.8052    2.7256 C   0  0  0  0  0  0  0  0  0  0  0  0
   -1.7578   -0.9491    0.1691 N   0  0  0  0  0  0  0  0  0  0  0  0
   -3.1108   -0.8435   -0.0157 C   0  0  0  0  0  0  0  0  0  0  0  0
   -4.1772   -2.1379    0.3919 S   0  0  0  0  0  0  0  0  0  0  0  0
   -5.5451   -1.2764   -0.1234 C   0  0  0  0  0  0  0  0  0  0  0  0
   -5.2344   -0.0223   -0.6096 C   0  0  0  0  0  0  0  0  0  0  0  0
   -3.8231    0.2272   -0.5372 C   0  0  0  0  0  0  0  0  0  0  0  0
   -3.2019    1.4581   -0.9346 C   0  0  0  0  0  0  0  0  0  0  0  0
   -2.7422    2.4712   -1.2667 N   0  0  0  0  0  0  0  0  0  0  0  0
   -6.2955    0.9213   -1.1015 C   0  0  0  0  0  0  0  0  0  0  0  0
   -7.6237    0.1972   -1.3731 C   0  0  0  0  0  0  0  0  0  0  0  0
   -7.9840   -0.7718   -0.2384 C   0  0  0  0  0  0  0  0  0  0  0  0
   -6.9206   -1.8675   -0.0681 C   0  0  0  0  0  0  0  0  0  0  0  0
   -1.9779   -1.0986   -2.6090 H   0  0  0  0  0  0  0  0  0  0  0  0
   -0.1604   -1.1416   -2.8852 H   0  0  0  0  0  0  0  0  0  0  0  0
    1.8123   -1.0393   -1.8181 H   0  0  0  0  0  0  0  0  0  0  0  0
    3.2626   -3.6961    1.5991 H   0  0  0  0  0  0  0  0  0  0  0  0
    4.9623   -2.5711    2.0708 H   0  0  0  0  0  0  0  0  0  0  0  0
    4.5070    2.6747   -0.4172 H   0  0  0  0  0  0  0  0  0  0  0  0
    5.9984    4.5542   -0.8218 H   0  0  0  0  0  0  0  0  0  0  0  0
    9.3992    2.0940    0.1049 H   0  0  0  0  0  0  0  0  0  0  0  0
    7.9439    0.1827    0.4671 H   0  0  0  0  0  0  0  0  0  0  0  0
    0.9735   -0.9315    2.0579 H   0  0  0  0  0  0  0  0  0  0  0  0
   -2.4835    0.0576    2.7285 H   0  0  0  0  0  0  0  0  0  0  0  0
   -1.1039   -0.6721    3.5526 H   0  0  0  0  0  0  0  0  0  0  0  0
   -2.3905   -1.7087    2.9327 H   0  0  0  0  0  0  0  0  0  0  0  0
   -5.9663    1.4252   -2.0173 H   0  0  0  0  0  0  0  0  0  0  0  0
   -6.4535    1.6938   -0.3387 H   0  0  0  0  0  0  0  0  0  0  0  0
   -7.5502   -0.3639   -2.3137 H   0  0  0  0  0  0  0  0  0  0  0  0
   -8.4223    0.9363   -1.5027 H   0  0  0  0  0  0  0  0  0  0  0  0
   -8.0823   -0.2064    0.6973 H   0  0  0  0  0  0  0  0  0  0  0  0
   -8.9572   -1.2351   -0.4357 H   0  0  0  0  0  0  0  0  0  0  0  0
   -7.0874   -2.3921    0.8796 H   0  0  0  0  0  0  0  0  0  0  0  0
   -7.0236   -2.6014   -0.8769 H   0  0  0  0  0  0  0  0  0  0  0  0
  1  2  2  0
  2  3  1  0
  3  4  2  3
  4  5  1  0
  5  6  2  0
  6  7  1  0
  6  8  1  0
  8  9  1  0
  9 10  2  0
  9 11  1  0
 11 12  1  0
 12 13  2  0
 13 14  1  0
 14 15  2  0
 15 16  1  0
 15 17  1  0
 17 18  2  0
 11 19  1  0
 19 20  2  0
  3 21  1  0
 21 22  2  0
 22 23  1  0
 22 24  1  0
 24 25  1  0
 25 26  1  0
 26 27  1  0
 27 28  2  0
 28 29  1  0
 29 30  1  0
 30 31  3  0
 28 32  1  0
 32 33  1  0
 33 34  1  0
 34 35  1  0
 24  2  1  0
 29 25  2  0
 19  5  1  0
 35 27  1  0
 18 12  1  0
  1 36  1  0
  1 37  1  0
  4 38  1  0
  7 39  1  0
  8 40  1  0
 13 41  1  0
 14 42  1  0
 17 43  1  0
 18 44  1  0
 21 45  1  0
 23 46  1  0
 23 47  1  0
 23 48  1  0
 32 49  1  0
 32 50  1  0
 33 51  1  0
 33 52  1  0
 34 53  1  0
 34 54  1  0
 35 55  1  0
 35 56  1  0
M  END
$$$$
