
     RDKit          3D

 41 44  0  0  0  0  0  0  0  0999 V2000
    1.1706   -1.5878    0.1614 O   0  0  0  0  0  0  0  0  0  0  0  0
    1.1424   -0.6084   -0.5792 C   0  0  0  0  0  0  0  0  0  0  0  0
   -0.1185   -0.2201   -1.3715 C   0  0  0  0  0  0  0  0  0  0  0  0
   -1.3249   -0.1656   -0.5176 N   0  0  0  0  0  0  0  0  0  0  0  0
   -1.6737    1.0664    0.0846 C   0  0  0  0  0  0  0  0  0  0  0  0
   -0.7895    2.1529    0.2078 C   0  0  0  0  0  0  0  0  0  0  0  0
   -1.1811    3.3584    0.8067 C   0  0  0  0  0  0  0  0  0  0  0  0
   -2.4689    3.5090    1.3065 C   0  0  0  0  0  0  0  0  0  0  0  0
   -3.3626    2.4485    1.2177 C   0  0  0  0  0  0  0  0  0  0  0  0
   -2.9630    1.2420    0.6215 C   0  0  0  0  0  0  0  0  0  0  0  0
   -3.9317    0.1280    0.5571 C   0  0  0  0  0  0  0  0  0  0  0  0
   -5.0895    0.2840    0.9347 O   0  0  0  0  0  0  0  0  0  0  0  0
   -3.4755   -1.1798    0.0431 C   0  0  0  0  0  0  0  0  0  0  0  0
   -4.3607   -2.2686    0.0903 C   0  0  0  0  0  0  0  0  0  0  0  0
   -3.9506   -3.5171   -0.3618 C   0  0  0  0  0  0  0  0  0  0  0  0
   -2.6583   -3.6748   -0.8476 C   0  0  0  0  0  0  0  0  0  0  0  0
   -1.7815   -2.5822   -0.8973 C   0  0  0  0  0  0  0  0  0  0  0  0
   -2.1716   -1.2997   -0.4732 C   0  0  0  0  0  0  0  0  0  0  0  0
    2.2179    0.2318   -0.8320 N   0  0  0  0  0  0  0  0  0  0  0  0
    3.5084    0.1779   -0.2586 C   0  0  0  0  0  0  0  0  0  0  0  0
    3.9107   -0.7419    0.7091 C   0  0  0  0  0  0  0  0  0  0  0  0
    5.2166   -0.7055    1.2152 C   0  0  0  0  0  0  0  0  0  0  0  0
    6.1283    0.2486    0.7610 C   0  0  0  0  0  0  0  0  0  0  0  0
    5.7365    1.1735   -0.2026 C   0  0  0  0  0  0  0  0  0  0  0  0
    4.4375    1.1304   -0.6999 C   0  0  0  0  0  0  0  0  0  0  0  0
    4.0663    2.0283   -1.6277 F   0  0  0  0  0  0  0  0  0  0  0  0
    0.0277    0.7372   -1.8873 H   0  0  0  0  0  0  0  0  0  0  0  0
   -0.2239   -0.9341   -2.1975 H   0  0  0  0  0  0  0  0  0  0  0  0
    0.2375    2.0953   -0.1333 H   0  0  0  0  0  0  0  0  0  0  0  0
   -0.4705    4.1778    0.8889 H   0  0  0  0  0  0  0  0  0  0  0  0
   -2.7735    4.4422    1.7728 H   0  0  0  0  0  0  0  0  0  0  0  0
   -4.3691    2.5546    1.6173 H   0  0  0  0  0  0  0  0  0  0  0  0
   -5.3650   -2.1410    0.4885 H   0  0  0  0  0  0  0  0  0  0  0  0
   -4.6299   -4.3642   -0.3196 H   0  0  0  0  0  0  0  0  0  0  0  0
   -2.3189   -4.6536   -1.1787 H   0  0  0  0  0  0  0  0  0  0  0  0
   -0.7728   -2.7833   -1.2462 H   0  0  0  0  0  0  0  0  0  0  0  0
    2.1005    0.9752   -1.5134 H   0  0  0  0  0  0  0  0  0  0  0  0
    3.2365   -1.4991    1.0974 H   0  0  0  0  0  0  0  0  0  0  0  0
    5.5186   -1.4283    1.9706 H   0  0  0  0  0  0  0  0  0  0  0  0
    7.1393    0.2690    1.1604 H   0  0  0  0  0  0  0  0  0  0  0  0
    6.4300    1.9241   -0.5673 H   0  0  0  0  0  0  0  0  0  0  0  0
  1  2  2  0
  2  3  1  0
  3  4  1  0
  4  5  1  0
  5  6  2  0
  6  7  1  0
  7  8  2  0
  8  9  1  0
  9 10  2  0
 10 11  1  0
 11 12  2  0
 11 13  1  0
 13 14  2  0
 14 15  1  0
 15 16  2  0
 16 17  1  0
 17 18  2  0
  2 19  1  0
 19 20  1  0
 20 21  2  0
 21 22  1  0
 22 23  2  0
 23 24  1  0
 24 25  2  0
 25 26  1  0
 18  4  1  0
 25 20  1  0
 10  5  1  0
 18 13  1  0
  3 27  1  0
  3 28  1  0
  6 29  1  0
  7 30  1  0
  8 31  1  0
  9 32  1  0
 14 33  1  0
 15 34  1  0
 16 35  1  0
 17 36  1  0
 19 37  1  0
 21 38  1  0
 22 39  1  0
 23 40  1  0
 24 41  1  0
M  END
$$$$
