
     RDKit          3D

 57 59  0  0  0  0  0  0  0  0999 V2000
   -2.8663   -4.4556   -1.1911 C   0  0  0  0  0  0  0  0  0  0  0  0
   -2.1833   -3.1413   -1.5242 C   0  0  0  0  0  0  0  0  0  0  0  0
   -1.3698   -2.6130   -0.3469 C   0  0  0  0  0  0  0  0  0  0  0  0
   -0.7339   -1.3852   -0.7154 O   0  0  0  0  0  0  0  0  0  0  0  0
   -1.2265   -0.2397   -0.1420 C   0  0  0  0  0  0  0  0  0  0  0  0
   -2.5892   -0.0303    0.1109 C   0  0  0  0  0  0  0  0  0  0  0  0
   -3.0681    1.1716    0.6627 C   0  0  0  0  0  0  0  0  0  0  0  0
   -4.4467    1.3269    0.8989 N   0  0  0  0  0  0  0  0  0  0  0  0
   -5.2801    1.2709   -0.3199 C   0  0  0  0  0  0  0  0  0  0  0  0
   -5.1745    2.5320   -1.1681 C   0  0  0  0  0  0  0  0  0  0  0  0
   -4.8461    2.2618    1.9637 C   0  0  0  0  0  0  0  0  0  0  0  0
   -6.2217    1.9279    2.5246 C   0  0  0  0  0  0  0  0  0  0  0  0
   -2.1271    2.1684    0.9512 C   0  0  0  0  0  0  0  0  0  0  0  0
   -0.7666    1.9842    0.6825 C   0  0  0  0  0  0  0  0  0  0  0  0
   -0.3063    0.7831    0.1344 C   0  0  0  0  0  0  0  0  0  0  0  0
    1.1354    0.6600   -0.1373 C   0  0  0  0  0  0  0  0  0  0  0  0
    1.9852   -0.1913    0.4736 C   0  0  0  0  0  0  0  0  0  0  0  0
    1.5448   -1.0924    1.4930 C   0  0  0  0  0  0  0  0  0  0  0  0
    1.2773   -1.8620    2.3202 N   0  0  0  0  0  0  0  0  0  0  0  0
    3.3600   -0.1487    0.0796 C   0  0  0  0  0  0  0  0  0  0  0  0
    3.9795    0.6495   -0.7741 N   0  0  0  0  0  0  0  0  0  0  0  0
    5.2974    0.2651   -0.7757 C   0  0  0  0  0  0  0  0  0  0  0  0
    6.3825    0.7784   -1.5013 C   0  0  0  0  0  0  0  0  0  0  0  0
    7.6559    0.2106   -1.3190 C   0  0  0  0  0  0  0  0  0  0  0  0
    8.8315    0.7241   -2.0986 C   0  0  0  0  0  0  0  0  0  0  0  0
    7.8205   -0.8664   -0.4346 C   0  0  0  0  0  0  0  0  0  0  0  0
    6.7470   -1.3921    0.2962 C   0  0  0  0  0  0  0  0  0  0  0  0
    5.5026   -0.7943    0.0952 C   0  0  0  0  0  0  0  0  0  0  0  0
    4.2620   -1.0417    0.6248 N   0  0  0  0  0  0  0  0  0  0  0  0
   -3.5623   -4.3334   -0.3550 H   0  0  0  0  0  0  0  0  0  0  0  0
   -2.1325   -5.2214   -0.9193 H   0  0  0  0  0  0  0  0  0  0  0  0
   -3.4325   -4.8186   -2.0544 H   0  0  0  0  0  0  0  0  0  0  0  0
   -1.5248   -3.2745   -2.3910 H   0  0  0  0  0  0  0  0  0  0  0  0
   -2.9329   -2.4029   -1.8298 H   0  0  0  0  0  0  0  0  0  0  0  0
   -1.9678   -2.5297    0.5686 H   0  0  0  0  0  0  0  0  0  0  0  0
   -0.5657   -3.3236   -0.1209 H   0  0  0  0  0  0  0  0  0  0  0  0
   -3.3086   -0.8114   -0.1112 H   0  0  0  0  0  0  0  0  0  0  0  0
   -6.3279    1.1141   -0.0427 H   0  0  0  0  0  0  0  0  0  0  0  0
   -5.0221    0.4018   -0.9367 H   0  0  0  0  0  0  0  0  0  0  0  0
   -5.5069    3.4168   -0.6164 H   0  0  0  0  0  0  0  0  0  0  0  0
   -4.1475    2.7076   -1.5031 H   0  0  0  0  0  0  0  0  0  0  0  0
   -5.8057    2.4377   -2.0578 H   0  0  0  0  0  0  0  0  0  0  0  0
   -4.1422    2.1924    2.8035 H   0  0  0  0  0  0  0  0  0  0  0  0
   -4.8318    3.2979    1.6067 H   0  0  0  0  0  0  0  0  0  0  0  0
   -6.2865    0.8731    2.8116 H   0  0  0  0  0  0  0  0  0  0  0  0
   -6.4237    2.5373    3.4117 H   0  0  0  0  0  0  0  0  0  0  0  0
   -7.0147    2.1347    1.7997 H   0  0  0  0  0  0  0  0  0  0  0  0
   -2.4376    3.1249    1.3614 H   0  0  0  0  0  0  0  0  0  0  0  0
   -0.0721    2.7918    0.9044 H   0  0  0  0  0  0  0  0  0  0  0  0
    1.5011    1.3479   -0.8988 H   0  0  0  0  0  0  0  0  0  0  0  0
    6.2210    1.6030   -2.1870 H   0  0  0  0  0  0  0  0  0  0  0  0
    9.0767    0.0291   -2.9072 H   0  0  0  0  0  0  0  0  0  0  0  0
    9.7029    0.8373   -1.4452 H   0  0  0  0  0  0  0  0  0  0  0  0
    8.6214    1.7054   -2.5365 H   0  0  0  0  0  0  0  0  0  0  0  0
    8.8064   -1.3118   -0.3066 H   0  0  0  0  0  0  0  0  0  0  0  0
    6.8854   -2.2229    0.9794 H   0  0  0  0  0  0  0  0  0  0  0  0
    4.0556   -1.7630    1.3018 H   0  0  0  0  0  0  0  0  0  0  0  0
  1  2  1  0
  2  3  1  0
  3  4  1  0
  4  5  1  0
  5  6  2  0
  6  7  1  0
  7  8  1  0
  8  9  1  0
  9 10  1  0
  8 11  1  0
 11 12  1  0
  7 13  2  0
 13 14  1  0
 14 15  2  0
 15 16  1  0
 16 17  2  3
 17 18  1  0
 18 19  3  0
 17 20  1  0
 20 21  2  0
 21 22  1  0
 22 23  2  0
 23 24  1  0
 24 25  1  0
 24 26  2  0
 26 27  1  0
 27 28  2  0
 28 29  1  0
 15  5  1  0
 29 20  1  0
 28 22  1  0
  1 30  1  0
  1 31  1  0
  1 32  1  0
  2 33  1  0
  2 34  1  0
  3 35  1  0
  3 36  1  0
  6 37  1  0
  9 38  1  0
  9 39  1  0
 10 40  1  0
 10 41  1  0
 10 42  1  0
 11 43  1  0
 11 44  1  0
 12 45  1  0
 12 46  1  0
 12 47  1  0
 13 48  1  0
 14 49  1  0
 16 50  1  0
 23 51  1  0
 25 52  1  0
 25 53  1  0
 25 54  1  0
 26 55  1  0
 27 56  1  0
 29 57  1  0
M  END
$$$$
