
     RDKit          3D

 51 54  0  0  0  0  0  0  0  0999 V2000
   -0.0428    3.5135    3.5415 C   0  0  0  0  0  0  0  0  0  0  0  0
   -0.0679    2.4255    2.4831 C   0  0  0  0  0  0  0  0  0  0  0  0
    0.9985    1.5194    2.7595 O   0  0  0  0  0  0  0  0  0  0  0  0
    1.3133    0.6005    1.7885 C   0  0  0  0  0  0  0  0  0  0  0  0
    0.4319    0.2108    0.7697 C   0  0  0  0  0  0  0  0  0  0  0  0
    0.8032   -0.7501   -0.1880 C   0  0  0  0  0  0  0  0  0  0  0  0
   -0.1362   -1.2419   -1.2903 C   0  0  0  0  0  0  0  0  0  0  0  0
   -1.2471   -2.1953   -0.8197 C   0  0  0  0  0  0  0  0  0  0  0  0
   -0.6857   -3.3431   -0.0148 C   0  0  0  0  0  0  0  0  0  0  0  0
    0.3120   -3.9516   -0.4091 O   0  0  0  0  0  0  0  0  0  0  0  0
   -1.4513   -3.8403    1.1893 C   0  0  0  0  0  0  0  0  0  0  0  0
   -2.1650   -2.7089    1.9093 C   0  0  0  0  0  0  0  0  0  0  0  0
   -3.1308   -2.0110    0.9688 C   0  0  0  0  0  0  0  0  0  0  0  0
   -2.3605   -1.3913   -0.1706 C   0  0  0  0  0  0  0  0  0  0  0  0
   -2.7434   -0.2278   -0.6089 N   0  0  0  0  0  0  0  0  0  0  0  0
   -2.0447    0.3058   -1.6438 C   0  0  0  0  0  0  0  0  0  0  0  0
   -2.3531    1.2803   -2.4651 N   0  0  0  0  0  0  0  0  0  0  0  0
   -1.2546    1.3944   -3.3102 C   0  0  0  0  0  0  0  0  0  0  0  0
   -1.1873    2.3865   -4.4027 C   0  0  0  0  0  0  0  0  0  0  0  0
   -2.0818    3.1900   -4.6537 O   0  0  0  0  0  0  0  0  0  0  0  0
   -0.0164    2.3167   -5.1136 O   0  0  0  0  0  0  0  0  0  0  0  0
    0.0802    3.2664   -6.1729 C   0  0  0  0  0  0  0  0  0  0  0  0
   -0.2747    0.5044   -3.0343 N   0  0  0  0  0  0  0  0  0  0  0  0
   -0.7842   -0.1236   -1.9669 N   0  0  0  0  0  0  0  0  0  0  0  0
    2.0851   -1.3121   -0.0927 C   0  0  0  0  0  0  0  0  0  0  0  0
    2.9657   -0.9388    0.9271 C   0  0  0  0  0  0  0  0  0  0  0  0
    2.5877    0.0126    1.8760 C   0  0  0  0  0  0  0  0  0  0  0  0
    3.3792    0.4345    2.9142 O   0  0  0  0  0  0  0  0  0  0  0  0
    4.6908   -0.1031    3.0025 C   0  0  0  0  0  0  0  0  0  0  0  0
   -0.8481    4.2351    3.3781 H   0  0  0  0  0  0  0  0  0  0  0  0
    0.9155    4.0434    3.5266 H   0  0  0  0  0  0  0  0  0  0  0  0
   -0.1525    3.0813    4.5417 H   0  0  0  0  0  0  0  0  0  0  0  0
    0.0572    2.8841    1.4951 H   0  0  0  0  0  0  0  0  0  0  0  0
   -1.0278    1.8997    2.5355 H   0  0  0  0  0  0  0  0  0  0  0  0
   -0.5543    0.6600    0.7282 H   0  0  0  0  0  0  0  0  0  0  0  0
    0.4581   -1.7460   -2.0652 H   0  0  0  0  0  0  0  0  0  0  0  0
   -1.7220   -2.6611   -1.6968 H   0  0  0  0  0  0  0  0  0  0  0  0
   -0.7451   -4.3200    1.8755 H   0  0  0  0  0  0  0  0  0  0  0  0
   -2.1676   -4.5952    0.8471 H   0  0  0  0  0  0  0  0  0  0  0  0
   -1.4306   -1.9904    2.2939 H   0  0  0  0  0  0  0  0  0  0  0  0
   -2.7129   -3.1103    2.7689 H   0  0  0  0  0  0  0  0  0  0  0  0
   -3.6815   -1.2311    1.5055 H   0  0  0  0  0  0  0  0  0  0  0  0
   -3.8585   -2.7160    0.5522 H   0  0  0  0  0  0  0  0  0  0  0  0
    0.0390    4.2870   -5.7795 H   0  0  0  0  0  0  0  0  0  0  0  0
    1.0456    3.1263   -6.6669 H   0  0  0  0  0  0  0  0  0  0  0  0
   -0.7118    3.1017   -6.9102 H   0  0  0  0  0  0  0  0  0  0  0  0
    2.4116   -2.0685   -0.8069 H   0  0  0  0  0  0  0  0  0  0  0  0
    3.9392   -1.4174    0.9532 H   0  0  0  0  0  0  0  0  0  0  0  0
    5.2813    0.1452    2.1145 H   0  0  0  0  0  0  0  0  0  0  0  0
    4.6632   -1.1847    3.1709 H   0  0  0  0  0  0  0  0  0  0  0  0
    5.1823    0.3545    3.8665 H   0  0  0  0  0  0  0  0  0  0  0  0
  1  2  1  0
  2  3  1  0
  3  4  1  0
  4  5  2  0
  5  6  1  0
  6  7  1  0
  7  8  1  0
  8  9  1  0
  9 10  2  0
  9 11  1  0
 11 12  1  0
 12 13  1  0
 13 14  1  0
 14 15  2  0
 15 16  1  0
 16 17  2  0
 17 18  1  0
 18 19  1  0
 19 20  2  0
 19 21  1  0
 21 22  1  0
 18 23  2  0
 23 24  1  0
  6 25  2  0
 25 26  1  0
 26 27  2  0
 27 28  1  0
 28 29  1  0
 27  4  1  0
 24  7  1  0
 14  8  1  0
 24 16  1  0
  1 30  1  0
  1 31  1  0
  1 32  1  0
  2 33  1  0
  2 34  1  0
  5 35  1  0
  7 36  1  0
  8 37  1  0
 11 38  1  0
 11 39  1  0
 12 40  1  0
 12 41  1  0
 13 42  1  0
 13 43  1  0
 22 44  1  0
 22 45  1  0
 22 46  1  0
 25 47  1  0
 26 48  1  0
 29 49  1  0
 29 50  1  0
 29 51  1  0
M  END
$$$$
