
     RDKit          3D

 44 46  0  0  0  0  0  0  0  0999 V2000
    6.9775   -0.5055    2.0092 C   0  0  0  0  0  0  0  0  0  0  0  0
    6.8477    0.2787    0.7170 C   0  0  0  0  0  0  0  0  0  0  0  0
    5.5938   -0.0156    0.0836 O   0  0  0  0  0  0  0  0  0  0  0  0
    4.5399    0.7387    0.4851 C   0  0  0  0  0  0  0  0  0  0  0  0
    4.5708    1.6242    1.3249 O   0  0  0  0  0  0  0  0  0  0  0  0
    3.3045    0.3383   -0.2423 C   0  0  0  0  0  0  0  0  0  0  0  0
    3.2921   -0.6732   -1.2085 C   0  0  0  0  0  0  0  0  0  0  0  0
    2.0993   -1.0085   -1.8618 C   0  0  0  0  0  0  0  0  0  0  0  0
    0.8924   -0.3631   -1.5510 C   0  0  0  0  0  0  0  0  0  0  0  0
   -0.2717   -0.6980   -2.2771 N   0  0  0  0  0  0  0  0  0  0  0  0
   -1.6250   -0.5586   -1.8787 C   0  0  0  0  0  0  0  0  0  0  0  0
   -2.5985   -0.7263   -2.8471 C   0  0  0  0  0  0  0  0  0  0  0  0
   -3.9134   -0.5817   -2.4553 C   0  0  0  0  0  0  0  0  0  0  0  0
   -5.0227   -0.7406   -3.4501 C   0  0  0  0  0  0  0  0  0  0  0  0
   -4.2554   -0.2923   -1.1876 N   0  0  0  0  0  0  0  0  0  0  0  0
   -3.2513   -0.1383   -0.3037 C   0  0  0  0  0  0  0  0  0  0  0  0
   -3.6013    0.1855    1.0950 C   0  0  0  0  0  0  0  0  0  0  0  0
   -2.6122    0.3093    2.0911 C   0  0  0  0  0  0  0  0  0  0  0  0
   -2.9402    0.6173    3.4156 C   0  0  0  0  0  0  0  0  0  0  0  0
   -4.2700    0.8091    3.7772 C   0  0  0  0  0  0  0  0  0  0  0  0
   -5.2701    0.6927    2.8168 C   0  0  0  0  0  0  0  0  0  0  0  0
   -4.9378    0.3845    1.4932 C   0  0  0  0  0  0  0  0  0  0  0  0
   -1.9470   -0.2601   -0.6115 N   0  0  0  0  0  0  0  0  0  0  0  0
    0.9273    0.6715   -0.6089 C   0  0  0  0  0  0  0  0  0  0  0  0
    2.1150    1.0130    0.0492 C   0  0  0  0  0  0  0  0  0  0  0  0
    6.1989   -0.2185    2.7230 H   0  0  0  0  0  0  0  0  0  0  0  0
    7.9543   -0.3344    2.4703 H   0  0  0  0  0  0  0  0  0  0  0  0
    6.8580   -1.5777    1.8217 H   0  0  0  0  0  0  0  0  0  0  0  0
    6.9664    1.3551    0.8868 H   0  0  0  0  0  0  0  0  0  0  0  0
    7.6363   -0.0256    0.0211 H   0  0  0  0  0  0  0  0  0  0  0  0
    4.2016   -1.2081   -1.4700 H   0  0  0  0  0  0  0  0  0  0  0  0
    2.1256   -1.7901   -2.6173 H   0  0  0  0  0  0  0  0  0  0  0  0
   -0.1598   -1.5642   -2.7923 H   0  0  0  0  0  0  0  0  0  0  0  0
   -2.3400   -0.9465   -3.8749 H   0  0  0  0  0  0  0  0  0  0  0  0
   -4.9992   -1.7442   -3.8861 H   0  0  0  0  0  0  0  0  0  0  0  0
   -4.9239    0.0012   -4.2487 H   0  0  0  0  0  0  0  0  0  0  0  0
   -5.9979   -0.5996   -2.9728 H   0  0  0  0  0  0  0  0  0  0  0  0
   -1.5633    0.1620    1.8366 H   0  0  0  0  0  0  0  0  0  0  0  0
   -2.1537    0.7060    4.1606 H   0  0  0  0  0  0  0  0  0  0  0  0
   -4.5263    1.0487    4.8056 H   0  0  0  0  0  0  0  0  0  0  0  0
   -6.3108    0.8412    3.0926 H   0  0  0  0  0  0  0  0  0  0  0  0
   -5.7402    0.3002    0.7617 H   0  0  0  0  0  0  0  0  0  0  0  0
    0.0283    1.2372   -0.3765 H   0  0  0  0  0  0  0  0  0  0  0  0
    2.1021    1.8153    0.7846 H   0  0  0  0  0  0  0  0  0  0  0  0
  1  2  1  0
  2  3  1  0
  3  4  1  0
  4  5  2  0
  4  6  1  0
  6  7  2  0
  7  8  1  0
  8  9  2  0
  9 10  1  0
 10 11  1  0
 11 12  2  0
 12 13  1  0
 13 14  1  0
 13 15  2  0
 15 16  1  0
 16 17  1  0
 17 18  2  0
 18 19  1  0
 19 20  2  0
 20 21  1  0
 21 22  2  0
 16 23  2  0
  9 24  1  0
 24 25  2  0
 25  6  1  0
 23 11  1  0
 22 17  1  0
  1 26  1  0
  1 27  1  0
  1 28  1  0
  2 29  1  0
  2 30  1  0
  7 31  1  0
  8 32  1  0
 10 33  1  0
 12 34  1  0
 14 35  1  0
 14 36  1  0
 14 37  1  0
 18 38  1  0
 19 39  1  0
 20 40  1  0
 21 41  1  0
 22 42  1  0
 24 43  1  0
 25 44  1  0
M  END
$$$$
