
     RDKit          3D

 52 54  0  0  0  0  0  0  0  0999 V2000
    2.4129    2.3608   -2.7970 C   0  0  0  0  0  0  0  0  0  0  0  0
    2.2636    0.8617   -2.9805 C   0  0  0  0  0  0  0  0  0  0  0  0
    3.0259    0.1538   -1.9889 O   0  0  0  0  0  0  0  0  0  0  0  0
    2.4146   -0.0309   -0.7909 C   0  0  0  0  0  0  0  0  0  0  0  0
    1.2971    0.3655   -0.4917 O   0  0  0  0  0  0  0  0  0  0  0  0
    3.2774   -0.8028    0.1529 C   0  0  0  0  0  0  0  0  0  0  0  0
    4.5694   -1.1989   -0.2471 C   0  0  0  0  0  0  0  0  0  0  0  0
    5.3927   -1.9196    0.6159 C   0  0  0  0  0  0  0  0  0  0  0  0
    4.9342   -2.2527    1.8840 C   0  0  0  0  0  0  0  0  0  0  0  0
    3.6542   -1.8640    2.2953 C   0  0  0  0  0  0  0  0  0  0  0  0
    2.8056   -1.1351    1.4485 C   0  0  0  0  0  0  0  0  0  0  0  0
    1.5071   -0.7188    1.8573 N   0  0  0  0  0  0  0  0  0  0  0  0
    0.8943   -0.9046    3.0789 C   0  0  0  0  0  0  0  0  0  0  0  0
    1.3519   -1.5461    4.0230 O   0  0  0  0  0  0  0  0  0  0  0  0
   -0.4770   -0.2602    3.2258 C   0  0  0  0  0  0  0  0  0  0  0  0
   -0.4939    1.2326    2.9153 C   0  0  0  0  0  0  0  0  0  0  0  0
   -1.2246    1.3398    1.6005 C   0  0  0  0  0  0  0  0  0  0  0  0
   -1.3975    2.3850    0.9990 O   0  0  0  0  0  0  0  0  0  0  0  0
   -1.6894    0.0796    1.2472 N   0  0  0  0  0  0  0  0  0  0  0  0
   -2.6145   -0.1860    0.1433 C   0  0  0  0  0  0  0  0  0  0  0  0
   -3.9689    0.5183    0.3453 C   0  0  0  0  0  0  0  0  0  0  0  0
   -4.9272    0.2446   -0.8112 C   0  0  0  0  0  0  0  0  0  0  0  0
   -4.3013    0.5985   -2.1591 C   0  0  0  0  0  0  0  0  0  0  0  0
   -2.9720   -0.1246   -2.3637 C   0  0  0  0  0  0  0  0  0  0  0  0
   -1.9975    0.1602   -1.2231 C   0  0  0  0  0  0  0  0  0  0  0  0
   -1.5099   -0.8818    2.3092 C   0  0  0  0  0  0  0  0  0  0  0  0
    1.9637    2.6905   -1.8515 H   0  0  0  0  0  0  0  0  0  0  0  0
    1.9310    2.9028   -3.6183 H   0  0  0  0  0  0  0  0  0  0  0  0
    3.4704    2.6396   -2.7619 H   0  0  0  0  0  0  0  0  0  0  0  0
    1.2103    0.5554   -2.9637 H   0  0  0  0  0  0  0  0  0  0  0  0
    2.6683    0.5714   -3.9581 H   0  0  0  0  0  0  0  0  0  0  0  0
    4.9536   -0.9499   -1.2345 H   0  0  0  0  0  0  0  0  0  0  0  0
    6.3893   -2.2197    0.2998 H   0  0  0  0  0  0  0  0  0  0  0  0
    5.5699   -2.8168    2.5634 H   0  0  0  0  0  0  0  0  0  0  0  0
    3.3546   -2.1525    3.2991 H   0  0  0  0  0  0  0  0  0  0  0  0
    0.9851   -0.1983    1.1461 H   0  0  0  0  0  0  0  0  0  0  0  0
   -0.7662   -0.4177    4.2732 H   0  0  0  0  0  0  0  0  0  0  0  0
    0.5044    1.6754    2.8353 H   0  0  0  0  0  0  0  0  0  0  0  0
   -1.0767    1.7751    3.6678 H   0  0  0  0  0  0  0  0  0  0  0  0
   -2.7941   -1.2724    0.1477 H   0  0  0  0  0  0  0  0  0  0  0  0
   -3.8283    1.6047    0.4345 H   0  0  0  0  0  0  0  0  0  0  0  0
   -4.4289    0.1869    1.2868 H   0  0  0  0  0  0  0  0  0  0  0  0
   -5.8507    0.8208   -0.6688 H   0  0  0  0  0  0  0  0  0  0  0  0
   -5.2091   -0.8173   -0.8068 H   0  0  0  0  0  0  0  0  0  0  0  0
   -4.9929    0.3352   -2.9665 H   0  0  0  0  0  0  0  0  0  0  0  0
   -4.1423    1.6843   -2.2149 H   0  0  0  0  0  0  0  0  0  0  0  0
   -3.1510   -1.2063   -2.4284 H   0  0  0  0  0  0  0  0  0  0  0  0
   -2.5222    0.1813   -3.3148 H   0  0  0  0  0  0  0  0  0  0  0  0
   -1.0797   -0.4270   -1.3793 H   0  0  0  0  0  0  0  0  0  0  0  0
   -1.7033    1.2195   -1.2630 H   0  0  0  0  0  0  0  0  0  0  0  0
   -1.2095   -1.8495    1.8934 H   0  0  0  0  0  0  0  0  0  0  0  0
   -2.4726   -0.9898    2.8255 H   0  0  0  0  0  0  0  0  0  0  0  0
  1  2  1  0
  2  3  1  0
  3  4  1  0
  4  5  2  0
  4  6  1  0
  6  7  2  0
  7  8  1  0
  8  9  2  0
  9 10  1  0
 10 11  2  0
 11 12  1  0
 12 13  1  0
 13 14  2  0
 13 15  1  0
 15 16  1  0
 16 17  1  0
 17 18  2  0
 17 19  1  0
 19 20  1  0
 20 21  1  0
 21 22  1  0
 22 23  1  0
 23 24  1  0
 24 25  1  0
 19 26  1  0
 11  6  1  0
 26 15  1  0
 25 20  1  0
  1 27  1  0
  1 28  1  0
  1 29  1  0
  2 30  1  0
  2 31  1  0
  7 32  1  0
  8 33  1  0
  9 34  1  0
 10 35  1  0
 12 36  1  0
 15 37  1  0
 16 38  1  0
 16 39  1  0
 20 40  1  0
 21 41  1  0
 21 42  1  0
 22 43  1  0
 22 44  1  0
 23 45  1  0
 23 46  1  0
 24 47  1  0
 24 48  1  0
 25 49  1  0
 25 50  1  0
 26 51  1  0
 26 52  1  0
M  END
$$$$
