
     RDKit          3D

 47 51  0  0  0  0  0  0  0  0999 V2000
   -4.8957   -2.9410    0.8248 C   0  0  0  0  0  0  0  0  0  0  0  0
   -5.0180   -1.5114    0.4398 C   0  0  0  0  0  0  0  0  0  0  0  0
   -3.9716   -0.6290    0.1995 C   0  0  0  0  0  0  0  0  0  0  0  0
   -2.5274   -0.8083    0.2438 C   0  0  0  0  0  0  0  0  0  0  0  0
   -2.0080   -1.8803    0.5360 O   0  0  0  0  0  0  0  0  0  0  0  0
   -1.8420    0.3512   -0.0773 N   0  0  0  0  0  0  0  0  0  0  0  0
   -0.4514    0.5613   -0.1397 C   0  0  0  0  0  0  0  0  0  0  0  0
   -0.0258    1.8436   -0.4988 C   0  0  0  0  0  0  0  0  0  0  0  0
    1.3366    2.1564   -0.5896 C   0  0  0  0  0  0  0  0  0  0  0  0
    2.2983    1.1668   -0.3152 C   0  0  0  0  0  0  0  0  0  0  0  0
    3.6692    1.3322   -0.3634 N   0  0  0  0  0  0  0  0  0  0  0  0
    4.2986    0.2185   -0.0545 C   0  0  0  0  0  0  0  0  0  0  0  0
    5.6574    0.1180   -0.0317 N   0  0  0  0  0  0  0  0  0  0  0  0
    6.4720    1.3323   -0.1590 C   0  0  0  0  0  0  0  0  0  0  0  0
    7.6856    1.2494    0.7803 C   0  0  0  0  0  0  0  0  0  0  0  0
    8.5348    0.1159    0.5454 O   0  0  0  0  0  0  0  0  0  0  0  0
    7.8483   -0.9991   -0.0403 C   0  0  0  0  0  0  0  0  0  0  0  0
    6.3683   -1.0992    0.3638 C   0  0  0  0  0  0  0  0  0  0  0  0
    3.2358   -1.0984    0.3147 S   0  0  0  0  0  0  0  0  0  0  0  0
    1.8631   -0.1046    0.0408 C   0  0  0  0  0  0  0  0  0  0  0  0
    0.4960   -0.4315    0.1353 C   0  0  0  0  0  0  0  0  0  0  0  0
   -4.4679    0.6064   -0.1315 O   0  0  0  0  0  0  0  0  0  0  0  0
   -5.8234    0.5201   -0.1030 C   0  0  0  0  0  0  0  0  0  0  0  0
   -6.7013    1.5657   -0.3801 C   0  0  0  0  0  0  0  0  0  0  0  0
   -8.0663    1.2743   -0.2963 C   0  0  0  0  0  0  0  0  0  0  0  0
   -8.5101   -0.0042    0.0486 C   0  0  0  0  0  0  0  0  0  0  0  0
   -7.5997   -1.0354    0.3218 C   0  0  0  0  0  0  0  0  0  0  0  0
   -6.2203   -0.7645    0.2434 C   0  0  0  0  0  0  0  0  0  0  0  0
   -4.3688   -3.0362    1.7798 H   0  0  0  0  0  0  0  0  0  0  0  0
   -4.3403   -3.4974    0.0628 H   0  0  0  0  0  0  0  0  0  0  0  0
   -5.8762   -3.4142    0.9349 H   0  0  0  0  0  0  0  0  0  0  0  0
   -2.4404    1.1418   -0.2945 H   0  0  0  0  0  0  0  0  0  0  0  0
   -0.7466    2.6286   -0.7168 H   0  0  0  0  0  0  0  0  0  0  0  0
    1.6601    3.1539   -0.8696 H   0  0  0  0  0  0  0  0  0  0  0  0
    5.9092    2.2397    0.0889 H   0  0  0  0  0  0  0  0  0  0  0  0
    6.8103    1.4162   -1.1984 H   0  0  0  0  0  0  0  0  0  0  0  0
    7.3531    1.1981    1.8240 H   0  0  0  0  0  0  0  0  0  0  0  0
    8.3028    2.1478    0.6790 H   0  0  0  0  0  0  0  0  0  0  0  0
    8.3823   -1.9068    0.2583 H   0  0  0  0  0  0  0  0  0  0  0  0
    7.9403   -0.9097   -1.1292 H   0  0  0  0  0  0  0  0  0  0  0  0
    6.2927   -1.2227    1.4506 H   0  0  0  0  0  0  0  0  0  0  0  0
    5.9428   -1.9838   -0.1230 H   0  0  0  0  0  0  0  0  0  0  0  0
    0.2164   -1.4398    0.4177 H   0  0  0  0  0  0  0  0  0  0  0  0
   -6.3408    2.5516   -0.6457 H   0  0  0  0  0  0  0  0  0  0  0  0
   -8.7935    2.0569   -0.5033 H   0  0  0  0  0  0  0  0  0  0  0  0
   -9.5780   -0.2051    0.1071 H   0  0  0  0  0  0  0  0  0  0  0  0
   -7.9603   -2.0242    0.5894 H   0  0  0  0  0  0  0  0  0  0  0  0
  1  2  1  0
  2  3  2  0
  3  4  1  0
  4  5  2  0
  4  6  1  0
  6  7  1  0
  7  8  2  0
  8  9  1  0
  9 10  2  0
 10 11  1  0
 11 12  2  0
 12 13  1  0
 13 14  1  0
 14 15  1  0
 15 16  1  0
 16 17  1  0
 17 18  1  0
 12 19  1  0
 19 20  1  0
 20 21  2  0
  3 22  1  0
 22 23  1  0
 23 24  2  0
 24 25  1  0
 25 26  2  0
 26 27  1  0
 27 28  2  0
 28  2  1  0
 21  7  1  0
 28 23  1  0
 20 10  1  0
 18 13  1  0
  1 29  1  0
  1 30  1  0
  1 31  1  0
  6 32  1  0
  8 33  1  0
  9 34  1  0
 14 35  1  0
 14 36  1  0
 15 37  1  0
 15 38  1  0
 17 39  1  0
 17 40  1  0
 18 41  1  0
 18 42  1  0
 21 43  1  0
 24 44  1  0
 25 45  1  0
 26 46  1  0
 27 47  1  0
M  END
$$$$
