
     RDKit          3D

 45 47  0  0  0  0  0  0  0  0999 V2000
    2.2343    1.0091    1.0385 O   0  0  0  0  0  0  0  0  0  0  0  0
    1.2204    0.5141    0.5720 C   0  0  0  0  0  0  0  0  0  0  0  0
    1.0652   -0.7552    0.0863 N   0  0  0  0  0  0  0  0  0  0  0  0
    2.1301   -1.7223    0.0938 C   0  0  0  0  0  0  0  0  0  0  0  0
    1.9660   -2.5859    1.2879 C   0  0  0  0  0  0  0  0  0  0  0  0
    2.4572   -2.5198    2.5756 C   0  0  0  0  0  0  0  0  0  0  0  0
    1.9362   -3.6436    3.2605 C   0  0  0  0  0  0  0  0  0  0  0  0
    1.1578   -4.3194    2.3509 C   0  0  0  0  0  0  0  0  0  0  0  0
    1.1678   -3.6851    1.1503 O   0  0  0  0  0  0  0  0  0  0  0  0
   -0.0519    1.3501    0.5310 C   0  0  0  0  0  0  0  0  0  0  0  0
   -0.8842    1.2275    1.7564 C   0  0  0  0  0  0  0  0  0  0  0  0
   -2.1975    0.9501    1.7262 C   0  0  0  0  0  0  0  0  0  0  0  0
   -3.0421    0.6659    0.5112 C   0  0  0  0  0  0  0  0  0  0  0  0
   -2.6247   -0.5800   -0.2377 C   0  0  0  0  0  0  0  0  0  0  0  0
   -2.2732   -0.5072   -1.5927 C   0  0  0  0  0  0  0  0  0  0  0  0
   -1.8560   -1.6475   -2.2815 C   0  0  0  0  0  0  0  0  0  0  0  0
   -1.7947   -2.8756   -1.6267 C   0  0  0  0  0  0  0  0  0  0  0  0
   -2.1547   -2.9652   -0.2841 C   0  0  0  0  0  0  0  0  0  0  0  0
   -2.5734   -1.8261    0.4059 C   0  0  0  0  0  0  0  0  0  0  0  0
   -0.3631    2.1576   -0.4383 N   0  0  0  0  0  0  0  0  0  0  0  0
    0.4959    2.1918   -1.5111 C   0  0  0  0  0  0  0  0  0  0  0  0
    0.7538    1.2159   -2.2048 O   0  0  0  0  0  0  0  0  0  0  0  0
    1.0024    3.5307   -1.7377 C   0  0  0  0  0  0  0  0  0  0  0  0
    0.8015    4.7338   -1.0802 C   0  0  0  0  0  0  0  0  0  0  0  0
    1.5697    5.7096   -1.7617 C   0  0  0  0  0  0  0  0  0  0  0  0
    2.1948    5.0507   -2.7939 C   0  0  0  0  0  0  0  0  0  0  0  0
    3.3668    5.8530   -4.0589 Br  0  0  0  0  0  0  0  0  0  0  0  0
    1.8582    3.7349   -2.7897 O   0  0  0  0  0  0  0  0  0  0  0  0
    0.1631   -1.0480   -0.2735 H   0  0  0  0  0  0  0  0  0  0  0  0
    3.1021   -1.2186    0.1087 H   0  0  0  0  0  0  0  0  0  0  0  0
    2.0552   -2.3090   -0.8268 H   0  0  0  0  0  0  0  0  0  0  0  0
    3.1100   -1.7496    2.9646 H   0  0  0  0  0  0  0  0  0  0  0  0
    2.1054   -3.9264    4.2898 H   0  0  0  0  0  0  0  0  0  0  0  0
    0.5636   -5.2211    2.3980 H   0  0  0  0  0  0  0  0  0  0  0  0
   -0.3557    1.3425    2.6977 H   0  0  0  0  0  0  0  0  0  0  0  0
   -2.7205    0.8797    2.6784 H   0  0  0  0  0  0  0  0  0  0  0  0
   -3.0473    1.5433   -0.1467 H   0  0  0  0  0  0  0  0  0  0  0  0
   -4.0845    0.5325    0.8282 H   0  0  0  0  0  0  0  0  0  0  0  0
   -2.3000    0.4449   -2.1202 H   0  0  0  0  0  0  0  0  0  0  0  0
   -1.5707   -1.5725   -3.3281 H   0  0  0  0  0  0  0  0  0  0  0  0
   -1.4641   -3.7620   -2.1619 H   0  0  0  0  0  0  0  0  0  0  0  0
   -2.1013   -3.9225    0.2283 H   0  0  0  0  0  0  0  0  0  0  0  0
   -2.8467   -1.9164    1.4549 H   0  0  0  0  0  0  0  0  0  0  0  0
    0.1729    4.8801   -0.2122 H   0  0  0  0  0  0  0  0  0  0  0  0
    1.6557    6.7613   -1.5267 H   0  0  0  0  0  0  0  0  0  0  0  0
  1  2  2  0
  2  3  1  0
  3  4  1  0
  4  5  1  0
  5  6  2  0
  6  7  1  0
  7  8  2  0
  8  9  1  0
  2 10  1  0
 10 11  1  0
 11 12  2  3
 12 13  1  0
 13 14  1  0
 14 15  2  0
 15 16  1  0
 16 17  2  0
 17 18  1  0
 18 19  2  0
 10 20  2  3
 20 21  1  0
 21 22  2  0
 21 23  1  0
 23 24  2  0
 24 25  1  0
 25 26  2  0
 26 27  1  0
 26 28  1  0
  9  5  1  0
 19 14  1  0
 28 23  1  0
  3 29  1  0
  4 30  1  0
  4 31  1  0
  6 32  1  0
  7 33  1  0
  8 34  1  0
 11 35  1  0
 12 36  1  0
 13 37  1  0
 13 38  1  0
 15 39  1  0
 16 40  1  0
 17 41  1  0
 18 42  1  0
 19 43  1  0
 24 44  1  0
 25 45  1  0
M  END
$$$$
