
     RDKit          3D

 36 37  0  0  0  0  0  0  0  0999 V2000
    4.2669    1.0306    1.0652 C   0  0  0  0  0  0  0  0  0  0  0  0
    3.4645    0.4250    0.0337 N   0  0  0  0  0  0  0  0  0  0  0  0
    2.5997    1.1446   -0.7570 C   0  0  0  0  0  0  0  0  0  0  0  0
    2.4111    2.3527   -0.6419 O   0  0  0  0  0  0  0  0  0  0  0  0
    1.8513    0.3090   -1.7937 C   0  0  0  0  0  0  0  0  0  0  0  0
    0.7411   -0.3847   -1.2140 O   0  0  0  0  0  0  0  0  0  0  0  0
    1.0519   -1.5531   -0.5995 C   0  0  0  0  0  0  0  0  0  0  0  0
    2.1822   -2.0083   -0.4976 O   0  0  0  0  0  0  0  0  0  0  0  0
   -0.1663   -2.2424   -0.0867 C   0  0  0  0  0  0  0  0  0  0  0  0
   -0.0309   -3.6339    0.0887 C   0  0  0  0  0  0  0  0  0  0  0  0
   -1.0904   -4.3983    0.5678 C   0  0  0  0  0  0  0  0  0  0  0  0
   -2.2914   -3.7778    0.8825 C   0  0  0  0  0  0  0  0  0  0  0  0
   -2.4359   -2.3952    0.7227 C   0  0  0  0  0  0  0  0  0  0  0  0
   -1.3863   -1.6009    0.2386 C   0  0  0  0  0  0  0  0  0  0  0  0
   -1.5158   -0.1938    0.0975 N   0  0  0  0  0  0  0  0  0  0  0  0
   -2.6305    0.6065    0.3167 C   0  0  0  0  0  0  0  0  0  0  0  0
   -3.7288    0.1785    0.6582 O   0  0  0  0  0  0  0  0  0  0  0  0
   -2.3922    2.0277    0.0913 C   0  0  0  0  0  0  0  0  0  0  0  0
   -1.2536    2.7877   -0.1279 C   0  0  0  0  0  0  0  0  0  0  0  0
   -1.6735    4.1336   -0.2746 C   0  0  0  0  0  0  0  0  0  0  0  0
   -3.0381    4.1243   -0.1306 C   0  0  0  0  0  0  0  0  0  0  0  0
   -3.4818    2.8631    0.0925 O   0  0  0  0  0  0  0  0  0  0  0  0
    3.8547    1.9940    1.3751 H   0  0  0  0  0  0  0  0  0  0  0  0
    4.2998    0.3497    1.9191 H   0  0  0  0  0  0  0  0  0  0  0  0
    5.2779    1.1715    0.6743 H   0  0  0  0  0  0  0  0  0  0  0  0
    3.5056   -0.5873   -0.0881 H   0  0  0  0  0  0  0  0  0  0  0  0
    1.4541    0.9881   -2.5560 H   0  0  0  0  0  0  0  0  0  0  0  0
    2.5375   -0.3751   -2.3071 H   0  0  0  0  0  0  0  0  0  0  0  0
    0.9078   -4.1313   -0.1519 H   0  0  0  0  0  0  0  0  0  0  0  0
   -0.9787   -5.4718    0.6973 H   0  0  0  0  0  0  0  0  0  0  0  0
   -3.1260   -4.3645    1.2611 H   0  0  0  0  0  0  0  0  0  0  0  0
   -3.3974   -1.9724    0.9988 H   0  0  0  0  0  0  0  0  0  0  0  0
   -0.7010    0.2761   -0.2790 H   0  0  0  0  0  0  0  0  0  0  0  0
   -0.2324    2.4368   -0.1671 H   0  0  0  0  0  0  0  0  0  0  0  0
   -1.0538    5.0013   -0.4545 H   0  0  0  0  0  0  0  0  0  0  0  0
   -3.8015    4.8899   -0.1559 H   0  0  0  0  0  0  0  0  0  0  0  0
  1  2  1  0
  2  3  1  0
  3  4  2  0
  3  5  1  0
  5  6  1  0
  6  7  1  0
  7  8  2  0
  7  9  1  0
  9 10  2  0
 10 11  1  0
 11 12  2  0
 12 13  1  0
 13 14  2  0
 14 15  1  0
 15 16  1  0
 16 17  2  0
 16 18  1  0
 18 19  2  0
 19 20  1  0
 20 21  2  0
 21 22  1  0
 14  9  1  0
 22 18  1  0
  1 23  1  0
  1 24  1  0
  1 25  1  0
  2 26  1  0
  5 27  1  0
  5 28  1  0
 10 29  1  0
 11 30  1  0
 12 31  1  0
 13 32  1  0
 15 33  1  0
 19 34  1  0
 20 35  1  0
 21 36  1  0
M  END
$$$$
