
     RDKit          3D

 50 53  0  0  0  0  0  0  0  0999 V2000
   -3.6315    0.5211    2.2225 C   0  0  0  0  0  0  0  0  0  0  0  0
   -2.3560    0.8711    1.7045 O   0  0  0  0  0  0  0  0  0  0  0  0
   -2.2174    0.5991    0.3593 C   0  0  0  0  0  0  0  0  0  0  0  0
   -1.0296    0.8917   -0.1353 N   0  0  0  0  0  0  0  0  0  0  0  0
   -0.8924    0.6309   -1.4266 C   0  0  0  0  0  0  0  0  0  0  0  0
    0.3459    0.8794   -2.0761 N   0  0  0  0  0  0  0  0  0  0  0  0
    1.0139    2.0137   -1.6988 N   0  0  0  0  0  0  0  0  0  0  0  0
    1.9533    1.9093   -0.7990 C   0  0  0  0  0  0  0  0  0  0  0  0
    2.4882    0.7417   -0.1439 C   0  0  0  0  0  0  0  0  0  0  0  0
    2.2191   -0.6127   -0.1817 C   0  0  0  0  0  0  0  0  0  0  0  0
    3.1189   -1.2414    0.7150 C   0  0  0  0  0  0  0  0  0  0  0  0
    3.8949   -0.2400    1.2579 C   0  0  0  0  0  0  0  0  0  0  0  0
    5.0080   -0.2112    2.1998 C   0  0  0  0  0  0  0  0  0  0  0  0
    5.9192   -1.2820    2.2044 C   0  0  0  0  0  0  0  0  0  0  0  0
    7.0274   -1.2907    3.0616 C   0  0  0  0  0  0  0  0  0  0  0  0
    7.2512   -0.2291    3.9365 C   0  0  0  0  0  0  0  0  0  0  0  0
    6.3624    0.8419    3.9632 C   0  0  0  0  0  0  0  0  0  0  0  0
    5.2530    0.8357    3.1021 C   0  0  0  0  0  0  0  0  0  0  0  0
    4.3308    1.9468    3.2235 N   0  0  0  0  0  4  0  0  0  0  0  0
    4.7463    3.0613    2.8756 O   0  0  0  0  0  0  0  0  0  0  0  0
    3.2247    1.7100    3.7277 O   0  0  0  0  0  1  0  0  0  0  0  0
    3.5272    0.9583    0.7251 O   0  0  0  0  0  0  0  0  0  0  0  0
   -1.8485    0.1053   -2.1887 N   0  0  0  0  0  0  0  0  0  0  0  0
   -3.0165   -0.1487   -1.6044 C   0  0  0  0  0  0  0  0  0  0  0  0
   -4.0377   -0.7242   -2.3678 N   0  0  0  0  0  0  0  0  0  0  0  0
   -3.9278   -0.4686   -3.8142 C   0  0  0  0  0  0  0  0  0  0  0  0
   -5.0332   -1.2215   -4.5701 C   0  0  0  0  0  0  0  0  0  0  0  0
   -6.3361   -0.8931   -4.0639 O   0  0  0  0  0  0  0  0  0  0  0  0
   -6.4274   -1.2557   -2.6776 C   0  0  0  0  0  0  0  0  0  0  0  0
   -5.3908   -0.5045   -1.8283 C   0  0  0  0  0  0  0  0  0  0  0  0
   -3.2372    0.0827   -0.3168 N   0  0  0  0  0  0  0  0  0  0  0  0
   -4.4286    1.1001    1.7432 H   0  0  0  0  0  0  0  0  0  0  0  0
   -3.6384    0.7679    3.2887 H   0  0  0  0  0  0  0  0  0  0  0  0
   -3.8176   -0.5547    2.1300 H   0  0  0  0  0  0  0  0  0  0  0  0
    0.0817    0.8634   -3.0618 H   0  0  0  0  0  0  0  0  0  0  0  0
    2.4339    2.8602   -0.5101 H   0  0  0  0  0  0  0  0  0  0  0  0
    1.4610   -1.0987   -0.7778 H   0  0  0  0  0  0  0  0  0  0  0  0
    3.1827   -2.2969    0.9392 H   0  0  0  0  0  0  0  0  0  0  0  0
    5.7877   -2.1203    1.5218 H   0  0  0  0  0  0  0  0  0  0  0  0
    7.7209   -2.1291    3.0389 H   0  0  0  0  0  0  0  0  0  0  0  0
    8.1147   -0.2399    4.5978 H   0  0  0  0  0  0  0  0  0  0  0  0
    6.5283    1.6673    4.6524 H   0  0  0  0  0  0  0  0  0  0  0  0
   -2.9616   -0.8033   -4.2098 H   0  0  0  0  0  0  0  0  0  0  0  0
   -4.0331    0.6076   -4.0037 H   0  0  0  0  0  0  0  0  0  0  0  0
   -5.0101   -0.9486   -5.6299 H   0  0  0  0  0  0  0  0  0  0  0  0
   -4.8874   -2.3064   -4.5022 H   0  0  0  0  0  0  0  0  0  0  0  0
   -7.4372   -1.0080   -2.3354 H   0  0  0  0  0  0  0  0  0  0  0  0
   -6.3008   -2.3410   -2.5839 H   0  0  0  0  0  0  0  0  0  0  0  0
   -5.4762   -0.8650   -0.7963 H   0  0  0  0  0  0  0  0  0  0  0  0
   -5.6217    0.5687   -1.8475 H   0  0  0  0  0  0  0  0  0  0  0  0
  1  2  1  0
  2  3  1  0
  3  4  2  0
  4  5  1  0
  5  6  1  0
  6  7  1  0
  7  8  2  3
  8  9  1  0
  9 10  2  0
 10 11  1  0
 11 12  2  0
 12 13  1  0
 13 14  2  0
 14 15  1  0
 15 16  2  0
 16 17  1  0
 17 18  2  0
 18 19  1  0
 19 20  2  0
 19 21  1  0
 12 22  1  0
  5 23  2  0
 23 24  1  0
 24 25  1  0
 25 26  1  0
 26 27  1  0
 27 28  1  0
 28 29  1  0
 29 30  1  0
 24 31  2  0
 31  3  1  0
 22  9  1  0
 30 25  1  0
 18 13  1  0
  1 32  1  0
  1 33  1  0
  1 34  1  0
  6 35  1  0
  8 36  1  0
 10 37  1  0
 11 38  1  0
 14 39  1  0
 15 40  1  0
 16 41  1  0
 17 42  1  0
 26 43  1  0
 26 44  1  0
 27 45  1  0
 27 46  1  0
 29 47  1  0
 29 48  1  0
 30 49  1  0
 30 50  1  0
M  CHG  2  19   1  21  -1
M  END
$$$$
