
     RDKit          3D

 63 67  0  0  0  0  0  0  0  0999 V2000
    9.7889   -0.8169   -0.2758 C   0  0  0  0  0  0  0  0  0  0  0  0
    9.0139    0.3335   -0.5800 O   0  0  0  0  0  0  0  0  0  0  0  0
    7.6533    0.2466   -0.4182 C   0  0  0  0  0  0  0  0  0  0  0  0
    6.9861   -0.8772    0.0752 C   0  0  0  0  0  0  0  0  0  0  0  0
    5.5938   -0.8730    0.2065 C   0  0  0  0  0  0  0  0  0  0  0  0
    4.8383    0.2496   -0.1547 C   0  0  0  0  0  0  0  0  0  0  0  0
    3.3741    0.2483   -0.0219 C   0  0  0  0  0  0  0  0  0  0  0  0
    2.5483    0.4767   -1.1367 C   0  0  0  0  0  0  0  0  0  0  0  0
    1.1538    0.4777   -1.0169 C   0  0  0  0  0  0  0  0  0  0  0  0
    0.5574    0.2442    0.2249 C   0  0  0  0  0  0  0  0  0  0  0  0
    1.3683    0.0397    1.3318 C   0  0  0  0  0  0  0  0  0  0  0  0
    2.7637    0.0279    1.2220 C   0  0  0  0  0  0  0  0  0  0  0  0
    0.6217   -0.1898    2.8994 S   0  0  0  0  0  6  0  0  0  0  0  0
    1.3138   -1.2965    3.5308 O   0  0  0  0  0  0  0  0  0  0  0  0
    0.5297    1.1132    3.5229 O   0  0  0  0  0  0  0  0  0  0  0  0
   -1.0246   -0.7322    2.6184 C   0  0  0  0  0  0  0  0  0  0  0  0
   -1.7045   -1.3921    3.6509 C   0  0  0  0  0  0  0  0  0  0  0  0
   -2.9966   -1.8648    3.4323 C   0  0  0  0  0  0  0  0  0  0  0  0
   -3.5891   -1.7026    2.1805 C   0  0  0  0  0  0  0  0  0  0  0  0
   -2.8931   -1.0435    1.1538 C   0  0  0  0  0  0  0  0  0  0  0  0
   -3.4989   -1.0519   -0.1895 C   0  0  0  0  0  0  0  0  0  0  0  0
   -2.9867   -1.7398   -1.0624 O   0  0  0  0  0  0  0  0  0  0  0  0
   -4.6440   -0.3023   -0.3172 N   0  0  0  0  0  0  0  0  0  0  0  0
   -5.3808   -0.2371   -1.5726 C   0  0  0  0  0  0  0  0  0  0  0  0
   -6.3404   -1.4276   -1.7068 C   0  0  0  0  0  0  0  0  0  0  0  0
   -7.5333   -1.3256   -0.7561 C   0  0  0  0  0  0  0  0  0  0  0  0
   -8.2735   -0.0022   -0.9250 C   0  0  0  0  0  0  0  0  0  0  0  0
   -7.3382    1.1920   -0.7658 C   0  0  0  0  0  0  0  0  0  0  0  0
   -6.1304    1.0956   -1.6990 C   0  0  0  0  0  0  0  0  0  0  0  0
   -1.6068   -0.5329    1.3694 C   0  0  0  0  0  0  0  0  0  0  0  0
   -0.9155    0.2544    0.3244 C   0  0  0  0  0  0  0  0  0  0  0  0
   -1.5600    0.9608   -0.4407 O   0  0  0  0  0  0  0  0  0  0  0  0
    5.5163    1.3775   -0.6478 C   0  0  0  0  0  0  0  0  0  0  0  0
    6.9116    1.3878   -0.7792 C   0  0  0  0  0  0  0  0  0  0  0  0
    7.6379    2.4530   -1.2525 O   0  0  0  0  0  0  0  0  0  0  0  0
    6.9354    3.6491   -1.5581 C   0  0  0  0  0  0  0  0  0  0  0  0
    9.7114   -1.0750    0.7854 H   0  0  0  0  0  0  0  0  0  0  0  0
    9.5080   -1.6629   -0.9117 H   0  0  0  0  0  0  0  0  0  0  0  0
   10.8370   -0.5797   -0.4835 H   0  0  0  0  0  0  0  0  0  0  0  0
    7.5182   -1.7760    0.3668 H   0  0  0  0  0  0  0  0  0  0  0  0
    5.1007   -1.7664    0.5853 H   0  0  0  0  0  0  0  0  0  0  0  0
    2.9900    0.6471   -2.1183 H   0  0  0  0  0  0  0  0  0  0  0  0
    0.5379    0.6541   -1.8982 H   0  0  0  0  0  0  0  0  0  0  0  0
    3.3755   -0.1318    2.1096 H   0  0  0  0  0  0  0  0  0  0  0  0
   -1.2299   -1.5421    4.6198 H   0  0  0  0  0  0  0  0  0  0  0  0
   -3.5288   -2.3845    4.2269 H   0  0  0  0  0  0  0  0  0  0  0  0
   -4.5759   -2.1216    1.9917 H   0  0  0  0  0  0  0  0  0  0  0  0
   -4.9650    0.2470    0.4683 H   0  0  0  0  0  0  0  0  0  0  0  0
   -4.6431   -0.2977   -2.3826 H   0  0  0  0  0  0  0  0  0  0  0  0
   -6.7145   -1.4664   -2.7377 H   0  0  0  0  0  0  0  0  0  0  0  0
   -5.8128   -2.3718   -1.5260 H   0  0  0  0  0  0  0  0  0  0  0  0
   -8.2232   -2.1559   -0.9440 H   0  0  0  0  0  0  0  0  0  0  0  0
   -7.1908   -1.4264    0.2811 H   0  0  0  0  0  0  0  0  0  0  0  0
   -9.0852    0.0641   -0.1914 H   0  0  0  0  0  0  0  0  0  0  0  0
   -8.7385    0.0302   -1.9179 H   0  0  0  0  0  0  0  0  0  0  0  0
   -6.9998    1.2549    0.2755 H   0  0  0  0  0  0  0  0  0  0  0  0
   -7.8881    2.1177   -0.9732 H   0  0  0  0  0  0  0  0  0  0  0  0
   -6.4784    1.2068   -2.7341 H   0  0  0  0  0  0  0  0  0  0  0  0
   -5.4512    1.9337   -1.5005 H   0  0  0  0  0  0  0  0  0  0  0  0
    4.9284    2.2489   -0.9175 H   0  0  0  0  0  0  0  0  0  0  0  0
    6.4296    4.0479   -0.6724 H   0  0  0  0  0  0  0  0  0  0  0  0
    7.6674    4.3940   -1.8862 H   0  0  0  0  0  0  0  0  0  0  0  0
    6.2312    3.4924   -2.3815 H   0  0  0  0  0  0  0  0  0  0  0  0
  1  2  1  0
  2  3  1  0
  3  4  2  0
  4  5  1  0
  5  6  2  0
  6  7  1  0
  7  8  2  0
  8  9  1  0
  9 10  2  0
 10 11  1  0
 11 12  2  0
 11 13  1  0
 13 14  2  0
 13 15  2  0
 13 16  1  0
 16 17  2  0
 17 18  1  0
 18 19  2  0
 19 20  1  0
 20 21  1  0
 21 22  2  0
 21 23  1  0
 23 24  1  0
 24 25  1  0
 25 26  1  0
 26 27  1  0
 27 28  1  0
 28 29  1  0
 20 30  2  0
 30 31  1  0
 31 32  2  0
  6 33  1  0
 33 34  2  0
 34 35  1  0
 35 36  1  0
 34  3  1  0
 12  7  1  0
 30 16  1  0
 31 10  1  0
 29 24  1  0
  1 37  1  0
  1 38  1  0
  1 39  1  0
  4 40  1  0
  5 41  1  0
  8 42  1  0
  9 43  1  0
 12 44  1  0
 17 45  1  0
 18 46  1  0
 19 47  1  0
 23 48  1  0
 24 49  1  0
 25 50  1  0
 25 51  1  0
 26 52  1  0
 26 53  1  0
 27 54  1  0
 27 55  1  0
 28 56  1  0
 28 57  1  0
 29 58  1  0
 29 59  1  0
 33 60  1  0
 36 61  1  0
 36 62  1  0
 36 63  1  0
M  END
$$$$
