
     RDKit          3D

 36 39  0  0  0  0  0  0  0  0999 V2000
   -1.7706    0.4986    2.9061 C   0  0  0  0  0  0  0  0  0  0  0  0
   -0.9391    0.3062    1.6902 C   0  0  0  0  0  0  0  0  0  0  0  0
    0.3930    0.2972    1.7991 N   0  0  0  0  0  0  0  0  0  0  0  0
    0.8486    0.0781    0.5412 N   0  0  0  0  0  0  0  0  0  0  0  0
    2.1866   -0.0158    0.1282 C   0  0  0  0  0  0  0  0  0  0  0  0
    2.4502   -0.2234   -1.1755 C   0  0  0  0  0  0  0  0  0  0  0  0
    1.2706   -0.3507   -2.0716 C   0  0  0  0  0  0  0  0  0  0  0  0
    0.0250   -0.2743   -1.7098 N   0  0  0  0  0  0  0  0  0  0  0  0
   -0.2030   -0.0497   -0.3760 C   0  0  0  0  0  0  0  0  0  0  0  0
   -1.3687    0.1085    0.3528 C   0  0  0  0  0  0  0  0  0  0  0  0
   -2.7074    0.0678   -0.2121 C   0  0  0  0  0  0  0  0  0  0  0  0
   -3.0947   -0.9739   -1.0649 C   0  0  0  0  0  0  0  0  0  0  0  0
   -4.3885   -1.0173   -1.5900 C   0  0  0  0  0  0  0  0  0  0  0  0
   -5.3062   -0.0195   -1.2678 C   0  0  0  0  0  0  0  0  0  0  0  0
   -4.9307    1.0243   -0.4243 C   0  0  0  0  0  0  0  0  0  0  0  0
   -3.6368    1.0686    0.1013 C   0  0  0  0  0  0  0  0  0  0  0  0
    3.8420   -0.2848   -1.6757 C   0  0  0  0  0  0  0  0  0  0  0  0
    4.0642   -0.4869   -2.8672 O   0  0  0  0  0  0  0  0  0  0  0  0
    4.9608   -0.0173   -0.6934 C   0  0  0  0  0  0  0  0  0  0  0  0
    4.5895   -0.4921    0.7034 C   0  0  0  0  0  0  0  0  0  0  0  0
    3.2646    0.1099    1.1712 C   0  0  0  0  0  0  0  0  0  0  0  0
   -2.0981    1.5401    2.9812 H   0  0  0  0  0  0  0  0  0  0  0  0
   -2.6561   -0.1444    2.8804 H   0  0  0  0  0  0  0  0  0  0  0  0
   -1.2101    0.2524    3.8142 H   0  0  0  0  0  0  0  0  0  0  0  0
    1.4965   -0.5260   -3.1372 H   0  0  0  0  0  0  0  0  0  0  0  0
   -2.3895   -1.7588   -1.3296 H   0  0  0  0  0  0  0  0  0  0  0  0
   -4.6756   -1.8289   -2.2533 H   0  0  0  0  0  0  0  0  0  0  0  0
   -6.3115   -0.0522   -1.6797 H   0  0  0  0  0  0  0  0  0  0  0  0
   -5.6428    1.8081   -0.1799 H   0  0  0  0  0  0  0  0  0  0  0  0
   -3.3594    1.9009    0.7429 H   0  0  0  0  0  0  0  0  0  0  0  0
    5.1734    1.0573   -0.6991 H   0  0  0  0  0  0  0  0  0  0  0  0
    5.8566   -0.5501   -1.0303 H   0  0  0  0  0  0  0  0  0  0  0  0
    5.3852   -0.2338    1.4111 H   0  0  0  0  0  0  0  0  0  0  0  0
    4.5060   -1.5870    0.7032 H   0  0  0  0  0  0  0  0  0  0  0  0
    3.4031    1.1705    1.4148 H   0  0  0  0  0  0  0  0  0  0  0  0
    2.9729   -0.4017    2.0962 H   0  0  0  0  0  0  0  0  0  0  0  0
  1  2  1  0
  2  3  2  0
  3  4  1  0
  4  5  1  0
  5  6  2  0
  6  7  1  0
  7  8  2  0
  8  9  1  0
  9 10  2  0
 10 11  1  0
 11 12  2  0
 12 13  1  0
 13 14  2  0
 14 15  1  0
 15 16  2  0
  6 17  1  0
 17 18  2  0
 17 19  1  0
 19 20  1  0
 20 21  1  0
 10  2  1  0
 16 11  1  0
  9  4  1  0
 21  5  1  0
  1 22  1  0
  1 23  1  0
  1 24  1  0
  7 25  1  0
 12 26  1  0
 13 27  1  0
 14 28  1  0
 15 29  1  0
 16 30  1  0
 19 31  1  0
 19 32  1  0
 20 33  1  0
 20 34  1  0
 21 35  1  0
 21 36  1  0
M  END
$$$$
