
     RDKit          3D

 43 45  0  0  0  0  0  0  0  0999 V2000
    6.4593   -0.3982   -2.7201 C   0  0  0  0  0  0  0  0  0  0  0  0
    5.9594    0.3883   -1.5188 C   0  0  0  0  0  0  0  0  0  0  0  0
    4.5753   -0.0847   -1.0765 C   0  0  0  0  0  0  0  0  0  0  0  0
    4.0759    0.7139    0.1297 C   0  0  0  0  0  0  0  0  0  0  0  0
    2.7701    0.2601    0.5999 N   0  0  0  0  0  0  0  0  0  0  0  0
    1.5970    0.7138   -0.1301 C   0  0  0  0  0  0  0  0  0  0  0  0
    0.3097    0.3731    0.5386 C   0  0  0  0  0  0  0  0  0  0  0  0
   -0.9038    0.9673    0.1816 C   0  0  0  0  0  0  0  0  0  0  0  0
   -2.0854    0.5401    0.7913 C   0  0  0  0  0  0  0  0  0  0  0  0
   -3.3651    1.1962    0.4383 C   0  0  0  0  0  0  0  0  0  0  0  0
   -3.3453    2.3470    0.0055 O   0  0  0  0  0  0  0  0  0  0  0  0
   -4.6771    0.5353    0.6227 C   0  0  0  0  0  0  0  0  0  0  0  0
   -5.7091    1.2957    1.1838 C   0  0  0  0  0  0  0  0  0  0  0  0
   -6.9608    0.7208    1.3613 C   0  0  0  0  0  0  0  0  0  0  0  0
   -7.9467    1.4421    1.9092 F   0  0  0  0  0  0  0  0  0  0  0  0
   -7.2087   -0.5941    0.9797 C   0  0  0  0  0  0  0  0  0  0  0  0
   -6.1904   -1.3505    0.3977 C   0  0  0  0  0  0  0  0  0  0  0  0
   -4.9285   -0.7814    0.2126 C   0  0  0  0  0  0  0  0  0  0  0  0
   -3.9438   -1.5099   -0.3908 O   0  0  0  0  0  0  0  0  0  0  0  0
   -1.9915   -0.4620    1.7481 C   0  0  0  0  0  0  0  0  0  0  0  0
   -0.8287   -1.0631    2.1053 N   0  0  0  0  0  0  0  0  0  0  0  0
    0.2909   -0.6269    1.4937 C   0  0  0  0  0  0  0  0  0  0  0  0
    1.4809   -1.2242    1.8574 N   0  0  0  0  0  0  0  0  0  0  0  0
    2.7159   -0.8162    1.4638 C   0  0  0  0  0  0  0  0  0  0  0  0
    3.7145   -1.3839    1.9026 O   0  0  0  0  0  0  0  0  0  0  0  0
    5.7850   -0.2803   -3.5743 H   0  0  0  0  0  0  0  0  0  0  0  0
    7.4510   -0.0443   -3.0188 H   0  0  0  0  0  0  0  0  0  0  0  0
    6.5354   -1.4650   -2.4866 H   0  0  0  0  0  0  0  0  0  0  0  0
    6.6726    0.2761   -0.6939 H   0  0  0  0  0  0  0  0  0  0  0  0
    5.9244    1.4535   -1.7754 H   0  0  0  0  0  0  0  0  0  0  0  0
    3.8695    0.0185   -1.9092 H   0  0  0  0  0  0  0  0  0  0  0  0
    4.6123   -1.1522   -0.8271 H   0  0  0  0  0  0  0  0  0  0  0  0
    4.0028    1.7803   -0.1132 H   0  0  0  0  0  0  0  0  0  0  0  0
    4.7957    0.6222    0.9520 H   0  0  0  0  0  0  0  0  0  0  0  0
    1.6172    0.2523   -1.1237 H   0  0  0  0  0  0  0  0  0  0  0  0
    1.6744    1.8014   -0.2413 H   0  0  0  0  0  0  0  0  0  0  0  0
   -0.9341    1.7528   -0.5708 H   0  0  0  0  0  0  0  0  0  0  0  0
   -5.5466    2.3285    1.4795 H   0  0  0  0  0  0  0  0  0  0  0  0
   -8.1982   -1.0161    1.1300 H   0  0  0  0  0  0  0  0  0  0  0  0
   -6.4013   -2.3711    0.0909 H   0  0  0  0  0  0  0  0  0  0  0  0
   -4.2991   -2.3687   -0.6793 H   0  0  0  0  0  0  0  0  0  0  0  0
   -2.8602   -0.8275    2.2869 H   0  0  0  0  0  0  0  0  0  0  0  0
    1.4354   -1.9593    2.5462 H   0  0  0  0  0  0  0  0  0  0  0  0
  1  2  1  0
  2  3  1  0
  3  4  1  0
  4  5  1  0
  5  6  1  0
  6  7  1  0
  7  8  2  0
  8  9  1  0
  9 10  1  0
 10 11  2  0
 10 12  1  0
 12 13  2  0
 13 14  1  0
 14 15  1  0
 14 16  2  0
 16 17  1  0
 17 18  2  0
 18 19  1  0
  9 20  2  0
 20 21  1  0
 21 22  2  0
 22 23  1  0
 23 24  1  0
 24 25  2  0
 24  5  1  0
 22  7  1  0
 18 12  1  0
  1 26  1  0
  1 27  1  0
  1 28  1  0
  2 29  1  0
  2 30  1  0
  3 31  1  0
  3 32  1  0
  4 33  1  0
  4 34  1  0
  6 35  1  0
  6 36  1  0
  8 37  1  0
 13 38  1  0
 16 39  1  0
 17 40  1  0
 19 41  1  0
 20 42  1  0
 23 43  1  0
M  END
$$$$
