
     RDKit          3D

 44 47  0  0  0  0  0  0  0  0999 V2000
    3.5222   -0.7114   -0.5794 C   0  0  0  0  0  0  0  0  0  0  0  0
    3.2143    0.5743    0.2060 C   0  0  0  0  0  0  0  0  0  0  0  0
    4.4984    1.0059    0.9361 C   0  0  0  0  0  0  0  0  0  0  0  0
    2.0942    0.3913    1.2455 C   0  0  0  0  0  0  0  0  0  0  0  0
    0.7048    0.2516    0.5887 C   0  0  0  0  0  0  0  0  0  0  0  0
   -0.3522    0.4067    1.6979 C   0  0  0  0  0  0  0  0  0  0  0  0
   -1.7738    0.0434    1.2541 C   0  0  0  0  0  0  0  0  0  0  0  0
   -2.5137    1.2006    0.6011 C   0  0  0  0  0  0  0  0  0  0  0  0
   -2.8671    1.4016   -0.7233 C   0  0  0  0  0  0  0  0  0  0  0  0
   -3.5577    2.6302   -0.9293 C   0  0  0  0  0  0  0  0  0  0  0  0
   -3.7351    3.3246    0.2442 C   0  0  0  0  0  0  0  0  0  0  0  0
   -3.0791    2.4965    1.5848 S   0  0  0  0  0  0  0  0  0  0  0  0
   -1.7441   -1.2083    0.4101 C   0  0  0  0  0  0  0  0  0  0  0  0
   -2.9258   -1.9470    0.2048 C   0  0  0  0  0  0  0  0  0  0  0  0
   -2.9080   -3.1045   -0.5719 C   0  0  0  0  0  0  0  0  0  0  0  0
   -4.3663   -3.9897   -0.8139 Cl  0  0  0  0  0  0  0  0  0  0  0  0
   -1.7132   -3.5367   -1.1440 C   0  0  0  0  0  0  0  0  0  0  0  0
   -1.6402   -4.6666   -1.9110 O   0  0  0  0  0  0  0  0  0  0  0  0
   -0.5399   -2.8184   -0.9444 C   0  0  0  0  0  0  0  0  0  0  0  0
   -0.5553   -1.6538   -0.1724 C   0  0  0  0  0  0  0  0  0  0  0  0
    0.6520   -1.0415   -0.0212 O   0  0  0  0  0  0  0  0  0  0  0  0
    0.5561    1.2519   -0.4505 N   0  0  0  0  0  0  0  0  0  0  0  0
    1.5590    1.8230   -1.1501 C   0  0  0  0  0  0  0  0  0  0  0  0
    1.2390    2.7768   -2.4705 S   0  0  0  0  0  0  0  0  0  0  0  0
    2.8271    1.6292   -0.7220 N   0  0  0  0  0  0  0  0  0  0  0  0
    4.4200   -0.5836   -1.1967 H   0  0  0  0  0  0  0  0  0  0  0  0
    2.7202   -0.9826   -1.2722 H   0  0  0  0  0  0  0  0  0  0  0  0
    3.6994   -1.5563    0.0946 H   0  0  0  0  0  0  0  0  0  0  0  0
    5.3199    1.1750    0.2300 H   0  0  0  0  0  0  0  0  0  0  0  0
    4.8212    0.2445    1.6548 H   0  0  0  0  0  0  0  0  0  0  0  0
    4.3482    1.9449    1.4816 H   0  0  0  0  0  0  0  0  0  0  0  0
    2.0837    1.2726    1.9031 H   0  0  0  0  0  0  0  0  0  0  0  0
    2.3099   -0.4807    1.8767 H   0  0  0  0  0  0  0  0  0  0  0  0
   -0.0877   -0.2884    2.5093 H   0  0  0  0  0  0  0  0  0  0  0  0
   -0.3139    1.4141    2.1307 H   0  0  0  0  0  0  0  0  0  0  0  0
   -2.3283   -0.2117    2.1704 H   0  0  0  0  0  0  0  0  0  0  0  0
   -2.6360    0.7066   -1.5230 H   0  0  0  0  0  0  0  0  0  0  0  0
   -3.9083    2.9853   -1.8910 H   0  0  0  0  0  0  0  0  0  0  0  0
   -4.2243    4.2795    0.3801 H   0  0  0  0  0  0  0  0  0  0  0  0
   -3.8603   -1.6110    0.6505 H   0  0  0  0  0  0  0  0  0  0  0  0
   -2.5387   -5.0439   -1.9580 H   0  0  0  0  0  0  0  0  0  0  0  0
    0.3883   -3.1638   -1.3919 H   0  0  0  0  0  0  0  0  0  0  0  0
   -0.3480    1.3486   -0.8888 H   0  0  0  0  0  0  0  0  0  0  0  0
    3.5389    2.0212   -1.3295 H   0  0  0  0  0  0  0  0  0  0  0  0
  1  2  1  0
  2  3  1  0
  2  4  1  0
  4  5  1  0
  5  6  1  0
  6  7  1  0
  7  8  1  0
  8  9  2  0
  9 10  1  0
 10 11  2  0
 11 12  1  0
  7 13  1  0
 13 14  2  0
 14 15  1  0
 15 16  1  0
 15 17  2  0
 17 18  1  0
 17 19  1  0
 19 20  2  0
 20 21  1  0
  5 22  1  0
 22 23  1  0
 23 24  2  0
 23 25  1  0
 25  2  1  0
 21  5  1  0
 12  8  1  0
 20 13  1  0
  1 26  1  0
  1 27  1  0
  1 28  1  0
  3 29  1  0
  3 30  1  0
  3 31  1  0
  4 32  1  0
  4 33  1  0
  6 34  1  0
  6 35  1  0
  7 36  1  0
  9 37  1  0
 10 38  1  0
 11 39  1  0
 14 40  1  0
 18 41  1  0
 19 42  1  0
 22 43  1  0
 25 44  1  0
M  END
$$$$
