
     RDKit          3D

 33 35  0  0  0  0  0  0  0  0999 V2000
   -0.3841   -1.2204   -2.0657 O   0  0  0  0  0  0  0  0  0  0  0  0
    0.0426   -0.1644   -1.6176 C   0  0  0  0  0  0  0  0  0  0  0  0
    1.2759   -0.0133   -0.7998 C   0  0  0  0  0  0  0  0  0  0  0  0
    1.9934   -1.0909   -0.4549 C   0  0  0  0  0  0  0  0  0  0  0  0
    3.1914   -1.0740    0.3169 C   0  0  0  0  0  0  0  0  0  0  0  0
    3.5517   -0.3414    1.4361 C   0  0  0  0  0  0  0  0  0  0  0  0
    4.8625   -0.6453    1.9080 C   0  0  0  0  0  0  0  0  0  0  0  0
    5.4685   -1.6180    1.1493 C   0  0  0  0  0  0  0  0  0  0  0  0
    4.4592   -2.1648   -0.1133 S   0  0  0  0  0  0  0  0  0  0  0  0
    1.5665    1.6556   -0.4762 S   0  0  0  0  0  0  0  0  0  0  0  0
    0.1324    2.1921   -1.3489 C   0  0  0  0  0  0  0  0  0  0  0  0
   -0.2680    3.7943   -1.5436 S   0  0  0  0  0  0  0  0  0  0  0  0
   -0.5366    1.0780   -1.8073 N   0  0  0  0  0  0  0  0  0  0  0  0
   -1.8264    1.1454   -2.5880 N   0  0  0  0  0  0  0  0  0  0  0  0
   -3.2866    1.1382   -1.7020 S   0  0  0  0  0  6  0  0  0  0  0  0
   -3.6947    2.5082   -1.4890 O   0  0  0  0  0  0  0  0  0  0  0  0
   -4.1507    0.1874   -2.3681 O   0  0  0  0  0  0  0  0  0  0  0  0
   -2.8465    0.4522   -0.1221 C   0  0  0  0  0  0  0  0  0  0  0  0
   -2.5406    1.3078    0.9417 C   0  0  0  0  0  0  0  0  0  0  0  0
   -2.1711    0.7666    2.1723 C   0  0  0  0  0  0  0  0  0  0  0  0
   -2.1245   -0.6183    2.3403 C   0  0  0  0  0  0  0  0  0  0  0  0
   -2.4581   -1.4676    1.2838 C   0  0  0  0  0  0  0  0  0  0  0  0
   -2.8295   -0.9350    0.0497 C   0  0  0  0  0  0  0  0  0  0  0  0
    1.6632   -2.0677   -0.8103 H   0  0  0  0  0  0  0  0  0  0  0  0
    2.9051    0.3847    1.9138 H   0  0  0  0  0  0  0  0  0  0  0  0
    5.3321   -0.1769    2.7645 H   0  0  0  0  0  0  0  0  0  0  0  0
    6.4548   -2.0418    1.2803 H   0  0  0  0  0  0  0  0  0  0  0  0
   -1.8942    0.4049   -3.2973 H   0  0  0  0  0  0  0  0  0  0  0  0
   -2.5904    2.3890    0.8231 H   0  0  0  0  0  0  0  0  0  0  0  0
   -1.9310    1.4233    3.0057 H   0  0  0  0  0  0  0  0  0  0  0  0
   -1.8431   -1.0381    3.3038 H   0  0  0  0  0  0  0  0  0  0  0  0
   -2.4346   -2.5460    1.4250 H   0  0  0  0  0  0  0  0  0  0  0  0
   -3.0887   -1.6038   -0.7691 H   0  0  0  0  0  0  0  0  0  0  0  0
  1  2  2  0
  2  3  1  0
  3  4  2  3
  4  5  1  0
  5  6  2  0
  6  7  1  0
  7  8  2  0
  8  9  1  0
  3 10  1  0
 10 11  1  0
 11 12  2  0
 11 13  1  0
 13 14  1  0
 14 15  1  0
 15 16  2  0
 15 17  2  0
 15 18  1  0
 18 19  2  0
 19 20  1  0
 20 21  2  0
 21 22  1  0
 22 23  2  0
 13  2  1  0
 23 18  1  0
  9  5  1  0
  4 24  1  0
  6 25  1  0
  7 26  1  0
  8 27  1  0
 14 28  1  0
 19 29  1  0
 20 30  1  0
 21 31  1  0
 22 32  1  0
 23 33  1  0
M  END
$$$$
