
     RDKit          3D

 55 56  0  0  0  0  0  0  0  0999 V2000
   -2.5765   -2.3713    0.8942 C   0  0  0  0  0  0  0  0  0  0  0  0
   -2.2034   -1.2833   -0.0429 C   0  0  0  0  0  0  0  0  0  0  0  0
   -1.5886   -1.4028   -1.2725 C   0  0  0  0  0  0  0  0  0  0  0  0
   -1.4177   -0.0904   -1.7510 C   0  0  0  0  0  0  0  0  0  0  0  0
   -0.7543    0.3286   -2.9877 C   0  0  0  0  0  0  0  0  0  0  0  0
   -0.2172   -0.4460   -3.7778 O   0  0  0  0  0  0  0  0  0  0  0  0
   -0.7325    1.7066   -3.1507 N   0  0  0  0  0  0  0  0  0  0  0  0
    0.3781    2.2837   -4.0162 N   0  0  0  0  0  0  0  0  0  0  0  0
    1.7482    2.9174   -3.2131 S   0  0  0  0  0  6  0  0  0  0  0  0
    2.8446    2.8988   -4.1560 O   0  0  0  0  0  0  0  0  0  0  0  0
    1.3353    4.1298   -2.5378 O   0  0  0  0  0  0  0  0  0  0  0  0
    2.0743    1.6903   -1.9703 C   0  0  0  0  0  0  0  0  0  0  0  0
    2.7529    0.5237   -2.3143 C   0  0  0  0  0  0  0  0  0  0  0  0
    2.9472   -0.4670   -1.3477 C   0  0  0  0  0  0  0  0  0  0  0  0
    2.4741   -0.3152   -0.0274 C   0  0  0  0  0  0  0  0  0  0  0  0
    2.6779   -1.4423    1.0019 C   0  0  0  0  0  0  0  0  0  0  0  0
    2.1497   -2.7820    0.4419 C   0  0  0  0  0  0  0  0  0  0  0  0
    4.1830   -1.5790    1.3080 C   0  0  0  0  0  0  0  0  0  0  0  0
    1.9452   -1.2002    2.3409 C   0  0  0  0  0  0  0  0  0  0  0  0
    1.8343    0.8944    0.2966 C   0  0  0  0  0  0  0  0  0  0  0  0
    1.6377    1.8933   -0.6617 C   0  0  0  0  0  0  0  0  0  0  0  0
   -1.9074    0.8056   -0.8778 N   0  0  0  0  0  0  0  0  0  0  0  0
   -2.4033    0.0701    0.1500 N   0  0  0  0  0  0  0  0  0  0  0  0
   -2.9800    0.7902    1.3087 C   0  0  0  0  0  0  0  0  0  0  0  0
   -4.2957    0.1510    1.7923 C   0  0  0  0  0  0  0  0  0  0  0  0
   -1.9521    0.8206    2.4535 C   0  0  0  0  0  0  0  0  0  0  0  0
   -3.3176    2.2602    0.9424 C   0  0  0  0  0  0  0  0  0  0  0  0
   -2.1049   -3.3138    0.5940 H   0  0  0  0  0  0  0  0  0  0  0  0
   -2.2459   -2.1631    1.9137 H   0  0  0  0  0  0  0  0  0  0  0  0
   -3.6579   -2.5348    0.8875 H   0  0  0  0  0  0  0  0  0  0  0  0
   -1.2730   -2.3176   -1.7570 H   0  0  0  0  0  0  0  0  0  0  0  0
   -1.0303    2.2566   -2.3424 H   0  0  0  0  0  0  0  0  0  0  0  0
    0.6632    1.6788   -4.7966 H   0  0  0  0  0  0  0  0  0  0  0  0
    3.1138    0.3645   -3.3280 H   0  0  0  0  0  0  0  0  0  0  0  0
    3.4733   -1.3720   -1.6462 H   0  0  0  0  0  0  0  0  0  0  0  0
    2.2226   -3.5802    1.1907 H   0  0  0  0  0  0  0  0  0  0  0  0
    2.7152   -3.1192   -0.4332 H   0  0  0  0  0  0  0  0  0  0  0  0
    1.0977   -2.6981    0.1455 H   0  0  0  0  0  0  0  0  0  0  0  0
    4.3672   -2.3637    2.0513 H   0  0  0  0  0  0  0  0  0  0  0  0
    4.7617   -1.8372    0.4138 H   0  0  0  0  0  0  0  0  0  0  0  0
    4.5916   -0.6421    1.7040 H   0  0  0  0  0  0  0  0  0  0  0  0
    2.0876   -2.0423    3.0282 H   0  0  0  0  0  0  0  0  0  0  0  0
    0.8667   -1.0824    2.1883 H   0  0  0  0  0  0  0  0  0  0  0  0
    2.3186   -0.3062    2.8527 H   0  0  0  0  0  0  0  0  0  0  0  0
    1.4639    1.0890    1.2992 H   0  0  0  0  0  0  0  0  0  0  0  0
    1.1241    2.8100   -0.3795 H   0  0  0  0  0  0  0  0  0  0  0  0
   -4.9825   -0.0243    0.9573 H   0  0  0  0  0  0  0  0  0  0  0  0
   -4.8073    0.7983    2.5148 H   0  0  0  0  0  0  0  0  0  0  0  0
   -4.1328   -0.8005    2.3045 H   0  0  0  0  0  0  0  0  0  0  0  0
   -1.6868   -0.1838    2.7941 H   0  0  0  0  0  0  0  0  0  0  0  0
   -2.3396    1.3679    3.3199 H   0  0  0  0  0  0  0  0  0  0  0  0
   -1.0244    1.3108    2.1382 H   0  0  0  0  0  0  0  0  0  0  0  0
   -4.0273    2.3082    0.1079 H   0  0  0  0  0  0  0  0  0  0  0  0
   -2.4224    2.8251    0.6553 H   0  0  0  0  0  0  0  0  0  0  0  0
   -3.7685    2.7873    1.7914 H   0  0  0  0  0  0  0  0  0  0  0  0
  1  2  1  0
  2  3  2  0
  3  4  1  0
  4  5  1  0
  5  6  2  0
  5  7  1  0
  7  8  1  0
  8  9  1  0
  9 10  2  0
  9 11  2  0
  9 12  1  0
 12 13  2  0
 13 14  1  0
 14 15  2  0
 15 16  1  0
 16 17  1  0
 16 18  1  0
 16 19  1  0
 15 20  1  0
 20 21  2  0
  4 22  2  0
 22 23  1  0
 23 24  1  0
 24 25  1  0
 24 26  1  0
 24 27  1  0
 23  2  1  0
 21 12  1  0
  1 28  1  0
  1 29  1  0
  1 30  1  0
  3 31  1  0
  7 32  1  0
  8 33  1  0
 13 34  1  0
 14 35  1  0
 17 36  1  0
 17 37  1  0
 17 38  1  0
 18 39  1  0
 18 40  1  0
 18 41  1  0
 19 42  1  0
 19 43  1  0
 19 44  1  0
 20 45  1  0
 21 46  1  0
 25 47  1  0
 25 48  1  0
 25 49  1  0
 26 50  1  0
 26 51  1  0
 26 52  1  0
 27 53  1  0
 27 54  1  0
 27 55  1  0
M  END
$$$$
