
     RDKit          3D

 43 46  0  0  0  0  0  0  0  0999 V2000
   -2.8866    6.2826   -4.5957 N   0  0  0  0  0  0  0  0  0  0  0  0
   -2.7417    5.2789   -4.0327 C   0  0  0  0  0  0  0  0  0  0  0  0
   -2.5391    4.0200   -3.3120 C   0  0  0  0  0  0  0  0  0  0  0  0
   -1.0540    3.7079   -3.2116 C   0  0  0  0  0  0  0  0  0  0  0  0
   -0.8110    2.5054   -2.4378 N   0  0  0  0  0  0  0  0  0  0  0  0
   -0.1852    2.4214   -1.2310 C   0  0  0  0  0  0  0  0  0  0  0  0
   -0.1715    1.0840   -0.9038 C   0  0  0  0  0  0  0  0  0  0  0  0
    0.3437    0.4995    0.2979 C   0  0  0  0  0  0  0  0  0  0  0  0
    1.4173    0.8672    1.0340 C   0  0  0  0  0  0  0  0  0  0  0  0
    2.2446    1.9678    0.6527 C   0  0  0  0  0  0  0  0  0  0  0  0
    2.9121    2.8685    0.3491 N   0  0  0  0  0  0  0  0  0  0  0  0
    1.7272    0.0820    2.2032 C   0  0  0  0  0  0  0  0  0  0  0  0
    1.1275   -1.0438    2.5545 N   0  0  0  0  0  0  0  0  0  0  0  0
    1.6517   -1.5566    3.7285 C   0  0  0  0  0  0  0  0  0  0  0  0
    1.2383   -2.7412    4.3705 C   0  0  0  0  0  0  0  0  0  0  0  0
    1.8605   -3.1413    5.5576 C   0  0  0  0  0  0  0  0  0  0  0  0
    2.8844   -2.3770    6.1079 C   0  0  0  0  0  0  0  0  0  0  0  0
    3.3109   -1.1980    5.4885 C   0  0  0  0  0  0  0  0  0  0  0  0
    2.6780   -0.8073    4.2968 C   0  0  0  0  0  0  0  0  0  0  0  0
    2.9719    0.5689    3.3147 S   0  0  0  0  0  0  0  0  0  0  0  0
   -0.8485    0.4287   -1.9833 C   0  0  0  0  0  0  0  0  0  0  0  0
   -1.1311   -0.9958   -2.1732 C   0  0  0  0  0  0  0  0  0  0  0  0
   -2.3901   -1.4022   -2.6448 C   0  0  0  0  0  0  0  0  0  0  0  0
   -2.6758   -2.7572   -2.8276 C   0  0  0  0  0  0  0  0  0  0  0  0
   -1.7005   -3.7055   -2.5459 C   0  0  0  0  0  0  0  0  0  0  0  0
   -1.9731   -5.0050   -2.7206 F   0  0  0  0  0  0  0  0  0  0  0  0
   -0.4436   -3.3252   -2.0907 C   0  0  0  0  0  0  0  0  0  0  0  0
   -0.1560   -1.9699   -1.9078 C   0  0  0  0  0  0  0  0  0  0  0  0
   -1.2521    1.3266   -2.8986 N   0  0  0  0  0  0  0  0  0  0  0  0
   -3.0692    3.2115   -3.8291 H   0  0  0  0  0  0  0  0  0  0  0  0
   -2.9785    4.0936   -2.3099 H   0  0  0  0  0  0  0  0  0  0  0  0
   -0.5082    4.5298   -2.7324 H   0  0  0  0  0  0  0  0  0  0  0  0
   -0.6081    3.5487   -4.2010 H   0  0  0  0  0  0  0  0  0  0  0  0
    0.1785    3.3064   -0.7262 H   0  0  0  0  0  0  0  0  0  0  0  0
   -0.2171   -0.3760    0.6324 H   0  0  0  0  0  0  0  0  0  0  0  0
    0.4390   -3.3353    3.9385 H   0  0  0  0  0  0  0  0  0  0  0  0
    1.5399   -4.0560    6.0510 H   0  0  0  0  0  0  0  0  0  0  0  0
    3.3606   -2.6991    7.0320 H   0  0  0  0  0  0  0  0  0  0  0  0
    4.1103   -0.6025    5.9194 H   0  0  0  0  0  0  0  0  0  0  0  0
   -3.1527   -0.6601   -2.8730 H   0  0  0  0  0  0  0  0  0  0  0  0
   -3.6479   -3.0746   -3.1905 H   0  0  0  0  0  0  0  0  0  0  0  0
    0.3061   -4.0835   -1.8880 H   0  0  0  0  0  0  0  0  0  0  0  0
    0.8392   -1.6863   -1.5747 H   0  0  0  0  0  0  0  0  0  0  0  0
  1  2  3  0
  2  3  1  0
  3  4  1  0
  4  5  1  0
  5  6  1  0
  6  7  2  0
  7  8  1  0
  8  9  2  3
  9 10  1  0
 10 11  3  0
  9 12  1  0
 12 13  2  0
 13 14  1  0
 14 15  2  0
 15 16  1  0
 16 17  2  0
 17 18  1  0
 18 19  2  0
 19 20  1  0
  7 21  1  0
 21 22  1  0
 22 23  2  0
 23 24  1  0
 24 25  2  0
 25 26  1  0
 25 27  1  0
 27 28  2  0
 21 29  2  0
 29  5  1  0
 20 12  1  0
 28 22  1  0
 19 14  1  0
  3 30  1  0
  3 31  1  0
  4 32  1  0
  4 33  1  0
  6 34  1  0
  8 35  1  0
 15 36  1  0
 16 37  1  0
 17 38  1  0
 18 39  1  0
 23 40  1  0
 24 41  1  0
 27 42  1  0
 28 43  1  0
M  END
$$$$
