
     RDKit          3D

 37 39  0  0  0  0  0  0  0  0999 V2000
    1.5211   -0.5407   -1.9913 O   0  0  0  0  0  0  0  0  0  0  0  0
    2.2073   -0.1800   -1.0334 C   0  0  0  0  0  0  0  0  0  0  0  0
    3.6463   -0.6732   -0.9362 C   0  0  0  0  0  0  0  0  0  0  0  0
    3.7575   -1.7758    0.0748 C   0  0  0  0  0  0  0  0  0  0  0  0
    2.9519   -2.8879    0.2324 C   0  0  0  0  0  0  0  0  0  0  0  0
    3.3780   -3.7189    1.3078 C   0  0  0  0  0  0  0  0  0  0  0  0
    4.5047   -3.2255    1.9256 C   0  0  0  0  0  0  0  0  0  0  0  0
    5.0457   -1.7729    1.2069 S   0  0  0  0  0  0  0  0  0  0  0  0
    1.7689    0.7050   -0.0483 N   0  0  0  0  0  0  0  0  0  0  0  0
    2.6153    1.3113    0.9432 C   0  0  0  0  0  0  0  0  0  0  0  0
    1.7105    2.3243    1.6137 C   0  0  0  0  0  0  0  0  0  0  0  0
    0.3365    1.9198    1.2667 N   0  0  0  0  0  0  0  0  0  0  0  0
    0.4651    1.0523    0.3103 C   0  0  0  0  0  0  0  0  0  0  0  0
   -0.9058    0.3106   -0.4377 S   0  0  0  0  0  0  0  0  0  0  0  0
   -2.2272    1.4111    0.1371 C   0  0  0  0  0  0  0  0  0  0  0  0
   -3.5665    1.0166   -0.4406 C   0  0  0  0  0  0  0  0  0  0  0  0
   -4.3608    0.0884    0.2592 C   0  0  0  0  0  0  0  0  0  0  0  0
   -5.5994   -0.3190   -0.2401 C   0  0  0  0  0  0  0  0  0  0  0  0
   -6.0634    0.1887   -1.4501 C   0  0  0  0  0  0  0  0  0  0  0  0
   -5.2866    1.1018   -2.1622 C   0  0  0  0  0  0  0  0  0  0  0  0
   -4.0449    1.5128   -1.6645 C   0  0  0  0  0  0  0  0  0  0  0  0
   -3.1448    2.6444   -2.6115 Cl  0  0  0  0  0  0  0  0  0  0  0  0
    4.3233    0.1619   -0.7349 H   0  0  0  0  0  0  0  0  0  0  0  0
    3.9357   -1.0648   -1.9197 H   0  0  0  0  0  0  0  0  0  0  0  0
    2.0900   -3.0966   -0.3938 H   0  0  0  0  0  0  0  0  0  0  0  0
    2.8852   -4.6356    1.6084 H   0  0  0  0  0  0  0  0  0  0  0  0
    5.0421   -3.6541    2.7607 H   0  0  0  0  0  0  0  0  0  0  0  0
    3.4978    1.7771    0.4973 H   0  0  0  0  0  0  0  0  0  0  0  0
    2.9313    0.5436    1.6562 H   0  0  0  0  0  0  0  0  0  0  0  0
    1.8938    3.3348    1.2325 H   0  0  0  0  0  0  0  0  0  0  0  0
    1.8541    2.3346    2.6985 H   0  0  0  0  0  0  0  0  0  0  0  0
   -1.9923    2.4523   -0.1070 H   0  0  0  0  0  0  0  0  0  0  0  0
   -2.2849    1.3613    1.2314 H   0  0  0  0  0  0  0  0  0  0  0  0
   -4.0101   -0.3289    1.2018 H   0  0  0  0  0  0  0  0  0  0  0  0
   -6.1978   -1.0384    0.3135 H   0  0  0  0  0  0  0  0  0  0  0  0
   -7.0255   -0.1300   -1.8425 H   0  0  0  0  0  0  0  0  0  0  0  0
   -5.6523    1.4897   -3.1095 H   0  0  0  0  0  0  0  0  0  0  0  0
  1  2  2  0
  2  3  1  0
  3  4  1  0
  4  5  2  0
  5  6  1  0
  6  7  2  0
  7  8  1  0
  2  9  1  0
  9 10  1  0
 10 11  1  0
 11 12  1  0
 12 13  2  0
 13 14  1  0
 14 15  1  0
 15 16  1  0
 16 17  2  0
 17 18  1  0
 18 19  2  0
 19 20  1  0
 20 21  2  0
 21 22  1  0
  8  4  1  0
 13  9  1  0
 21 16  1  0
  3 23  1  0
  3 24  1  0
  5 25  1  0
  6 26  1  0
  7 27  1  0
 10 28  1  0
 10 29  1  0
 11 30  1  0
 11 31  1  0
 15 32  1  0
 15 33  1  0
 17 34  1  0
 18 35  1  0
 19 36  1  0
 20 37  1  0
M  END
$$$$
