
     RDKit          3D

 41 42  0  0  0  0  0  0  0  0999 V2000
    2.5277   -0.9790    1.8055 C   0  0  0  0  0  0  0  0  0  0  0  0
    2.4042    0.2139    0.8754 C   0  0  0  0  0  0  0  0  0  0  0  0
    1.3997    1.0461    0.8696 N   0  0  0  0  0  0  0  0  0  0  0  0
    0.3080    0.7632    1.6478 N   0  0  0  0  0  0  0  0  0  0  0  0
   -0.5306   -0.3056    1.3142 C   0  0  0  0  0  0  0  0  0  0  0  0
   -0.2330   -1.2297    0.5602 O   0  0  0  0  0  0  0  0  0  0  0  0
   -1.8593   -0.2740    2.0503 C   0  0  0  0  0  0  0  0  0  0  0  0
   -2.6600    1.3643    1.9474 S   0  0  0  0  0  0  0  0  0  0  0  0
   -3.1773    1.3507    0.1906 C   0  0  0  0  0  0  0  0  0  0  0  0
   -4.3236    0.4078   -0.0929 C   0  0  0  0  0  0  0  0  0  0  0  0
   -5.5484    0.6157    0.5758 C   0  0  0  0  0  0  0  0  0  0  0  0
   -6.6487   -0.2146    0.3548 C   0  0  0  0  0  0  0  0  0  0  0  0
   -6.5532   -1.2663   -0.5485 C   0  0  0  0  0  0  0  0  0  0  0  0
   -5.3602   -1.4807   -1.2355 C   0  0  0  0  0  0  0  0  0  0  0  0
   -4.2540   -0.6487   -1.0170 C   0  0  0  0  0  0  0  0  0  0  0  0
   -2.7011   -1.0227   -2.0447 Br  0  0  0  0  0  0  0  0  0  0  0  0
    3.5325    0.4665   -0.0782 C   0  0  0  0  0  0  0  0  0  0  0  0
    3.7278    1.7635   -0.5779 C   0  0  0  0  0  0  0  0  0  0  0  0
    4.7642    2.0343   -1.4749 C   0  0  0  0  0  0  0  0  0  0  0  0
    5.6139    1.0092   -1.8876 C   0  0  0  0  0  0  0  0  0  0  0  0
    5.4144   -0.2888   -1.3989 C   0  0  0  0  0  0  0  0  0  0  0  0
    6.3049   -1.3713   -1.8363 N   0  0  0  0  0  4  0  0  0  0  0  0
    7.1472   -1.1094   -2.7066 O   0  0  0  0  0  0  0  0  0  0  0  0
    6.1656   -2.4814   -1.3036 O   0  0  0  0  0  1  0  0  0  0  0  0
    4.3759   -0.5686   -0.4977 C   0  0  0  0  0  0  0  0  0  0  0  0
    1.9629   -0.8221    2.7282 H   0  0  0  0  0  0  0  0  0  0  0  0
    3.5712   -1.1300    2.0982 H   0  0  0  0  0  0  0  0  0  0  0  0
    2.1645   -1.8802    1.3055 H   0  0  0  0  0  0  0  0  0  0  0  0
   -0.2097    1.5996    1.9188 H   0  0  0  0  0  0  0  0  0  0  0  0
   -1.6681   -0.5032    3.1036 H   0  0  0  0  0  0  0  0  0  0  0  0
   -2.5234   -1.0473    1.6547 H   0  0  0  0  0  0  0  0  0  0  0  0
   -3.5068    2.3663   -0.0597 H   0  0  0  0  0  0  0  0  0  0  0  0
   -2.2942    1.1695   -0.4245 H   0  0  0  0  0  0  0  0  0  0  0  0
   -5.6519    1.4368    1.2846 H   0  0  0  0  0  0  0  0  0  0  0  0
   -7.5791   -0.0369    0.8885 H   0  0  0  0  0  0  0  0  0  0  0  0
   -7.4073   -1.9154   -0.7238 H   0  0  0  0  0  0  0  0  0  0  0  0
   -5.3022   -2.3008   -1.9478 H   0  0  0  0  0  0  0  0  0  0  0  0
    3.0705    2.5749   -0.2690 H   0  0  0  0  0  0  0  0  0  0  0  0
    4.9037    3.0451   -1.8525 H   0  0  0  0  0  0  0  0  0  0  0  0
    6.4162    1.2345   -2.5878 H   0  0  0  0  0  0  0  0  0  0  0  0
    4.2170   -1.5853   -0.1472 H   0  0  0  0  0  0  0  0  0  0  0  0
  1  2  1  0
  2  3  2  3
  3  4  1  0
  4  5  1  0
  5  6  2  0
  5  7  1  0
  7  8  1  0
  8  9  1  0
  9 10  1  0
 10 11  2  0
 11 12  1  0
 12 13  2  0
 13 14  1  0
 14 15  2  0
 15 16  1  0
  2 17  1  0
 17 18  2  0
 18 19  1  0
 19 20  2  0
 20 21  1  0
 21 22  1  0
 22 23  2  0
 22 24  1  0
 21 25  2  0
 15 10  1  0
 25 17  1  0
  1 26  1  0
  1 27  1  0
  1 28  1  0
  4 29  1  0
  7 30  1  0
  7 31  1  0
  9 32  1  0
  9 33  1  0
 11 34  1  0
 12 35  1  0
 13 36  1  0
 14 37  1  0
 18 38  1  0
 19 39  1  0
 20 40  1  0
 25 41  1  0
M  CHG  2  22   1  24  -1
M  END
$$$$
