
     RDKit          3D

 64 67  0  0  0  0  0  0  0  0999 V2000
    9.2910   -0.1722   -2.4132 C   0  0  0  0  0  0  0  0  0  0  0  0
    9.1025    0.3810   -1.0087 C   0  0  0  0  0  0  0  0  0  0  0  0
    7.7035    0.1496   -0.4976 C   0  0  0  0  0  0  0  0  0  0  0  0
    6.6786    1.0540   -0.7964 C   0  0  0  0  0  0  0  0  0  0  0  0
    5.3757    0.8332   -0.3349 C   0  0  0  0  0  0  0  0  0  0  0  0
    5.0682   -0.2990    0.4328 C   0  0  0  0  0  0  0  0  0  0  0  0
    3.7056   -0.5382    0.9268 C   0  0  0  0  0  0  0  0  0  0  0  0
    2.5124    0.1682    0.5961 C   0  0  0  0  0  0  0  0  0  0  0  0
    1.5174   -0.4303    1.3307 C   0  0  0  0  0  0  0  0  0  0  0  0
    0.1126   -0.2054    1.4677 C   0  0  0  0  0  0  0  0  0  0  0  0
   -0.4914    0.6690    0.8481 O   0  0  0  0  0  0  0  0  0  0  0  0
   -0.5270   -1.0821    2.3622 N   0  0  0  0  0  0  0  0  0  0  0  0
   -1.9534   -0.9147    2.6191 C   0  0  0  0  0  0  0  0  0  0  0  0
   -2.7778   -1.5056    1.4781 C   0  0  0  0  0  0  0  0  0  0  0  0
   -3.2543   -2.6373    1.5171 O   0  0  0  0  0  0  0  0  0  0  0  0
   -2.9196   -0.6656    0.3899 N   0  0  0  0  0  0  0  0  0  0  0  0
   -3.5727   -1.1240   -0.8201 C   0  0  0  0  0  0  0  0  0  0  0  0
   -3.8390   -0.0070   -1.8505 C   0  0  0  0  0  0  0  0  0  0  0  0
   -4.8121    1.0491   -1.5226 N   0  0  0  0  0  0  0  0  0  0  0  0
   -4.4002    1.9176   -0.4242 C   0  0  0  0  0  0  0  0  0  0  0  0
   -5.2455    3.1941   -0.4219 C   0  0  0  0  0  0  0  0  0  0  0  0
   -6.7436    2.9241   -0.5672 C   0  0  0  0  0  0  0  0  0  0  0  0
   -7.0604    1.4373   -0.4548 C   0  0  0  0  0  0  0  0  0  0  0  0
   -6.2076    0.5834   -1.4195 C   0  0  0  0  0  0  0  0  0  0  0  0
   -6.8330    0.5828   -2.8200 C   0  0  0  0  0  0  0  0  0  0  0  0
    0.1211   -2.0932    3.0787 N   0  0  0  0  0  0  0  0  0  0  0  0
    1.4010   -2.2503    2.8974 C   0  0  0  0  0  0  0  0  0  0  0  0
    2.2005   -3.3006    3.5993 C   0  0  0  0  0  0  0  0  0  0  0  0
    2.1126   -1.4281    2.0316 N   0  0  0  0  0  0  0  0  0  0  0  0
    3.4380   -1.5213    1.8080 N   0  0  0  0  0  0  0  0  0  0  0  0
    6.1001   -1.2039    0.7244 C   0  0  0  0  0  0  0  0  0  0  0  0
    7.4022   -0.9852    0.2623 C   0  0  0  0  0  0  0  0  0  0  0  0
   10.3147    0.0072   -2.7562 H   0  0  0  0  0  0  0  0  0  0  0  0
    8.6074    0.3051   -3.1235 H   0  0  0  0  0  0  0  0  0  0  0  0
    9.1068   -1.2516   -2.4431 H   0  0  0  0  0  0  0  0  0  0  0  0
    9.8273   -0.0828   -0.3284 H   0  0  0  0  0  0  0  0  0  0  0  0
    9.3230    1.4555   -0.9998 H   0  0  0  0  0  0  0  0  0  0  0  0
    6.8873    1.9407   -1.3916 H   0  0  0  0  0  0  0  0  0  0  0  0
    4.6154    1.5678   -0.5849 H   0  0  0  0  0  0  0  0  0  0  0  0
    2.3895    1.0011   -0.0820 H   0  0  0  0  0  0  0  0  0  0  0  0
   -2.1853    0.1512    2.7240 H   0  0  0  0  0  0  0  0  0  0  0  0
   -2.2259   -1.4132    3.5555 H   0  0  0  0  0  0  0  0  0  0  0  0
   -2.2376    0.0885    0.3015 H   0  0  0  0  0  0  0  0  0  0  0  0
   -2.9056   -1.8683   -1.2715 H   0  0  0  0  0  0  0  0  0  0  0  0
   -4.4934   -1.6502   -0.5489 H   0  0  0  0  0  0  0  0  0  0  0  0
   -4.1521   -0.4872   -2.7855 H   0  0  0  0  0  0  0  0  0  0  0  0
   -2.8830    0.4762   -2.0925 H   0  0  0  0  0  0  0  0  0  0  0  0
   -3.3497    2.2127   -0.5343 H   0  0  0  0  0  0  0  0  0  0  0  0
   -4.4938    1.4135    0.5448 H   0  0  0  0  0  0  0  0  0  0  0  0
   -4.9238    3.8552   -1.2366 H   0  0  0  0  0  0  0  0  0  0  0  0
   -5.0583    3.7425    0.5088 H   0  0  0  0  0  0  0  0  0  0  0  0
   -7.2997    3.4848    0.1931 H   0  0  0  0  0  0  0  0  0  0  0  0
   -7.0878    3.3013   -1.5380 H   0  0  0  0  0  0  0  0  0  0  0  0
   -6.8663    1.1142    0.5769 H   0  0  0  0  0  0  0  0  0  0  0  0
   -8.1299    1.2715   -0.6296 H   0  0  0  0  0  0  0  0  0  0  0  0
   -6.2527   -0.4424   -1.0357 H   0  0  0  0  0  0  0  0  0  0  0  0
   -6.3137   -0.1107   -3.4899 H   0  0  0  0  0  0  0  0  0  0  0  0
   -7.8801    0.2642   -2.7758 H   0  0  0  0  0  0  0  0  0  0  0  0
   -6.8041    1.5774   -3.2792 H   0  0  0  0  0  0  0  0  0  0  0  0
    2.6890   -3.9564    2.8726 H   0  0  0  0  0  0  0  0  0  0  0  0
    2.9567   -2.8339    4.2373 H   0  0  0  0  0  0  0  0  0  0  0  0
    1.5439   -3.9096    4.2276 H   0  0  0  0  0  0  0  0  0  0  0  0
    5.8984   -2.0945    1.3168 H   0  0  0  0  0  0  0  0  0  0  0  0
    8.1777   -1.7092    0.5025 H   0  0  0  0  0  0  0  0  0  0  0  0
  1  2  1  0
  2  3  1  0
  3  4  2  0
  4  5  1  0
  5  6  2  0
  6  7  1  0
  7  8  1  0
  8  9  2  0
  9 10  1  0
 10 11  2  0
 10 12  1  0
 12 13  1  0
 13 14  1  0
 14 15  2  0
 14 16  1  0
 16 17  1  0
 17 18  1  0
 18 19  1  0
 19 20  1  0
 20 21  1  0
 21 22  1  0
 22 23  1  0
 23 24  1  0
 24 25  1  0
 12 26  1  0
 26 27  2  0
 27 28  1  0
 27 29  1  0
 29 30  1  0
  6 31  1  0
 31 32  2  0
 32  3  1  0
 30  7  2  0
 29  9  1  0
 24 19  1  0
  1 33  1  0
  1 34  1  0
  1 35  1  0
  2 36  1  0
  2 37  1  0
  4 38  1  0
  5 39  1  0
  8 40  1  0
 13 41  1  0
 13 42  1  0
 16 43  1  0
 17 44  1  0
 17 45  1  0
 18 46  1  0
 18 47  1  0
 20 48  1  0
 20 49  1  0
 21 50  1  0
 21 51  1  0
 22 52  1  0
 22 53  1  0
 23 54  1  0
 23 55  1  0
 24 56  1  0
 25 57  1  0
 25 58  1  0
 25 59  1  0
 28 60  1  0
 28 61  1  0
 28 62  1  0
 31 63  1  0
 32 64  1  0
M  END
$$$$
