
     RDKit          3D

 62 64  0  0  0  0  0  0  0  0999 V2000
    4.6030    6.2563    0.3092 C   0  0  0  0  0  0  0  0  0  0  0  0
    5.2712    5.2976    1.1209 O   0  0  0  0  0  0  0  0  0  0  0  0
    4.8335    4.0041    1.0281 C   0  0  0  0  0  0  0  0  0  0  0  0
    5.4680    3.1094    1.8916 C   0  0  0  0  0  0  0  0  0  0  0  0
    5.1055    1.7593    1.9131 C   0  0  0  0  0  0  0  0  0  0  0  0
    4.1030    1.2810    1.0613 C   0  0  0  0  0  0  0  0  0  0  0  0
    3.6854   -0.1695    1.1086 C   0  0  0  0  0  0  0  0  0  0  0  0
    2.3974   -0.3820    1.9028 C   0  0  0  0  0  0  0  0  0  0  0  0
    1.1690   -0.2639    1.0198 C   0  0  0  0  0  0  0  0  0  0  0  0
    0.5169    0.7749    0.9645 O   0  0  0  0  0  0  0  0  0  0  0  0
    0.9017   -1.4253    0.3263 N   0  0  0  0  0  0  0  0  0  0  0  0
   -0.1667   -1.6811   -0.5573 C   0  0  0  0  0  0  0  0  0  0  0  0
   -0.9897   -0.6893   -1.0869 C   0  0  0  0  0  0  0  0  0  0  0  0
   -2.0636   -1.0528   -1.9022 C   0  0  0  0  0  0  0  0  0  0  0  0
   -3.1299    0.2117   -2.5687 S   0  0  0  0  0  6  0  0  0  0  0  0
   -4.0140   -0.4397   -3.5133 O   0  0  0  0  0  0  0  0  0  0  0  0
   -2.2934    1.3192   -2.9757 O   0  0  0  0  0  0  0  0  0  0  0  0
   -4.0703    0.6822   -1.2368 N   0  0  0  0  0  0  0  0  0  0  0  0
   -5.0798   -0.2858   -0.7515 C   0  0  0  0  0  0  0  0  0  0  0  0
   -5.8700    0.3144    0.4060 C   0  0  0  0  0  0  0  0  0  0  0  0
   -4.9669    0.6437    1.5939 C   0  0  0  0  0  0  0  0  0  0  0  0
   -3.5285    0.9432    1.1713 C   0  0  0  0  0  0  0  0  0  0  0  0
   -3.4676    1.5730   -0.2152 C   0  0  0  0  0  0  0  0  0  0  0  0
   -2.2879   -2.3931   -2.2353 C   0  0  0  0  0  0  0  0  0  0  0  0
   -1.4401   -3.3834   -1.7346 C   0  0  0  0  0  0  0  0  0  0  0  0
   -0.3726   -3.0429   -0.8914 C   0  0  0  0  0  0  0  0  0  0  0  0
    0.5119   -4.0132   -0.3333 N   0  0  0  0  0  0  0  0  0  0  0  0
   -0.1848   -4.8598    0.6452 C   0  0  0  0  0  0  0  0  0  0  0  0
    1.2125   -4.7745   -1.3763 C   0  0  0  0  0  0  0  0  0  0  0  0
    3.4792    2.1784    0.1863 C   0  0  0  0  0  0  0  0  0  0  0  0
    3.8414    3.5305    0.1686 C   0  0  0  0  0  0  0  0  0  0  0  0
    3.5322    6.2965    0.5380 H   0  0  0  0  0  0  0  0  0  0  0  0
    4.7743    6.0568   -0.7542 H   0  0  0  0  0  0  0  0  0  0  0  0
    5.0275    7.2394    0.5357 H   0  0  0  0  0  0  0  0  0  0  0  0
    6.2477    3.4683    2.5585 H   0  0  0  0  0  0  0  0  0  0  0  0
    5.6143    1.0891    2.6006 H   0  0  0  0  0  0  0  0  0  0  0  0
    3.6017   -0.5537    0.0842 H   0  0  0  0  0  0  0  0  0  0  0  0
    4.4882   -0.7496    1.5817 H   0  0  0  0  0  0  0  0  0  0  0  0
    2.4019   -1.3895    2.3395 H   0  0  0  0  0  0  0  0  0  0  0  0
    2.3009    0.3176    2.7419 H   0  0  0  0  0  0  0  0  0  0  0  0
    1.4088   -2.2772    0.5620 H   0  0  0  0  0  0  0  0  0  0  0  0
   -0.7995    0.3591   -0.8856 H   0  0  0  0  0  0  0  0  0  0  0  0
   -4.5947   -1.2140   -0.4298 H   0  0  0  0  0  0  0  0  0  0  0  0
   -5.7765   -0.5219   -1.5631 H   0  0  0  0  0  0  0  0  0  0  0  0
   -6.3672    1.2324    0.0668 H   0  0  0  0  0  0  0  0  0  0  0  0
   -6.6632   -0.3721    0.7241 H   0  0  0  0  0  0  0  0  0  0  0  0
   -4.9610   -0.1936    2.3029 H   0  0  0  0  0  0  0  0  0  0  0  0
   -5.3880    1.5007    2.1337 H   0  0  0  0  0  0  0  0  0  0  0  0
   -2.9553    0.0066    1.1727 H   0  0  0  0  0  0  0  0  0  0  0  0
   -3.0566    1.5997    1.9112 H   0  0  0  0  0  0  0  0  0  0  0  0
   -2.4324    1.8267   -0.4561 H   0  0  0  0  0  0  0  0  0  0  0  0
   -4.0235    2.5189   -0.2253 H   0  0  0  0  0  0  0  0  0  0  0  0
   -3.1123   -2.6733   -2.8878 H   0  0  0  0  0  0  0  0  0  0  0  0
   -1.6270   -4.4199   -1.9994 H   0  0  0  0  0  0  0  0  0  0  0  0
    0.5381   -5.5158    1.1426 H   0  0  0  0  0  0  0  0  0  0  0  0
   -0.6570   -4.2493    1.4235 H   0  0  0  0  0  0  0  0  0  0  0  0
   -0.9471   -5.4930    0.1764 H   0  0  0  0  0  0  0  0  0  0  0  0
    1.6895   -4.1050   -2.1004 H   0  0  0  0  0  0  0  0  0  0  0  0
    0.5447   -5.4604   -1.9091 H   0  0  0  0  0  0  0  0  0  0  0  0
    2.0071   -5.3714   -0.9160 H   0  0  0  0  0  0  0  0  0  0  0  0
    2.6892    1.8395   -0.4820 H   0  0  0  0  0  0  0  0  0  0  0  0
    3.3209    4.1856   -0.5223 H   0  0  0  0  0  0  0  0  0  0  0  0
  1  2  1  0
  2  3  1  0
  3  4  2  0
  4  5  1  0
  5  6  2  0
  6  7  1  0
  7  8  1  0
  8  9  1  0
  9 10  2  0
  9 11  1  0
 11 12  1  0
 12 13  2  0
 13 14  1  0
 14 15  1  0
 15 16  2  0
 15 17  2  0
 15 18  1  0
 18 19  1  0
 19 20  1  0
 20 21  1  0
 21 22  1  0
 22 23  1  0
 14 24  2  0
 24 25  1  0
 25 26  2  0
 26 27  1  0
 27 28  1  0
 27 29  1  0
  6 30  1  0
 30 31  2  0
 31  3  1  0
 26 12  1  0
 23 18  1  0
  1 32  1  0
  1 33  1  0
  1 34  1  0
  4 35  1  0
  5 36  1  0
  7 37  1  0
  7 38  1  0
  8 39  1  0
  8 40  1  0
 11 41  1  0
 13 42  1  0
 19 43  1  0
 19 44  1  0
 20 45  1  0
 20 46  1  0
 21 47  1  0
 21 48  1  0
 22 49  1  0
 22 50  1  0
 23 51  1  0
 23 52  1  0
 24 53  1  0
 25 54  1  0
 28 55  1  0
 28 56  1  0
 28 57  1  0
 29 58  1  0
 29 59  1  0
 29 60  1  0
 30 61  1  0
 31 62  1  0
M  END
$$$$
