
     RDKit          3D

 50 52  0  0  0  0  0  0  0  0999 V2000
    3.8758    2.0924    2.6597 O   0  0  0  0  0  0  0  0  0  0  0  0
    3.6486    1.1528    1.9227 C   0  0  0  0  0  0  0  0  0  0  0  0
    3.4953   -0.0931    2.4048 O   0  0  0  0  0  0  0  0  0  0  0  0
    3.5086    1.2156    0.4487 C   0  0  0  0  0  0  0  0  0  0  0  0
    3.3352    0.0610   -0.3250 C   0  0  0  0  0  0  0  0  0  0  0  0
    3.2057    0.1639   -1.7104 C   0  0  0  0  0  0  0  0  0  0  0  0
    2.9975   -1.0231   -2.4665 N   0  0  0  0  0  0  0  0  0  0  0  0
    1.5446   -1.2500   -3.2970 S   0  0  0  0  0  6  0  0  0  0  0  0
    1.3769   -0.1983   -4.2744 O   0  0  0  0  0  0  0  0  0  0  0  0
    1.5053   -2.6468   -3.6718 O   0  0  0  0  0  0  0  0  0  0  0  0
    0.3264   -1.0065   -2.0245 C   0  0  0  0  0  0  0  0  0  0  0  0
   -0.0278   -2.0699   -1.1928 C   0  0  0  0  0  0  0  0  0  0  0  0
   -0.9723   -1.8754   -0.1747 C   0  0  0  0  0  0  0  0  0  0  0  0
   -1.5958   -0.6337    0.0342 C   0  0  0  0  0  0  0  0  0  0  0  0
   -2.5325   -0.4563    1.0449 N   0  0  0  0  0  0  0  0  0  0  0  0
   -3.9368   -0.2632    0.6493 C   0  0  0  0  0  0  0  0  0  0  0  0
   -4.7329   -1.5526    0.8423 C   0  0  0  0  0  0  0  0  0  0  0  0
   -4.5956   -2.0771    2.2681 C   0  0  0  0  0  0  0  0  0  0  0  0
   -3.1266   -2.2774    2.6279 C   0  0  0  0  0  0  0  0  0  0  0  0
   -2.3083   -1.0099    2.3855 C   0  0  0  0  0  0  0  0  0  0  0  0
   -1.2101    0.4036   -0.8408 C   0  0  0  0  0  0  0  0  0  0  0  0
   -1.7019    1.7487   -0.6312 N   0  0  0  0  0  4  0  0  0  0  0  0
   -2.6801    2.1024   -1.3045 O   0  0  0  0  0  0  0  0  0  0  0  0
   -1.0598    2.4651    0.1495 O   0  0  0  0  0  1  0  0  0  0  0  0
   -0.2734    0.2399   -1.8703 C   0  0  0  0  0  0  0  0  0  0  0  0
    3.2518    1.4119   -2.3308 C   0  0  0  0  0  0  0  0  0  0  0  0
    3.4278    2.5691   -1.5612 C   0  0  0  0  0  0  0  0  0  0  0  0
    3.4892    3.9169   -2.1751 C   0  0  0  0  0  0  0  0  0  0  0  0
    3.7247    4.9551   -1.5875 O   0  0  0  0  0  0  0  0  0  0  0  0
    3.2443    3.8954   -3.4951 O   0  0  0  0  0  0  0  0  0  0  0  0
    3.5564    2.4693   -0.1707 C   0  0  0  0  0  0  0  0  0  0  0  0
    3.6058    0.0227    3.3733 H   0  0  0  0  0  0  0  0  0  0  0  0
    3.2948   -0.9131    0.1554 H   0  0  0  0  0  0  0  0  0  0  0  0
    3.3789   -1.8998   -2.1124 H   0  0  0  0  0  0  0  0  0  0  0  0
    0.4185   -3.0539   -1.3256 H   0  0  0  0  0  0  0  0  0  0  0  0
   -1.2292   -2.7296    0.4456 H   0  0  0  0  0  0  0  0  0  0  0  0
   -4.3667    0.5339    1.2679 H   0  0  0  0  0  0  0  0  0  0  0  0
   -4.0356    0.0556   -0.3938 H   0  0  0  0  0  0  0  0  0  0  0  0
   -4.3777   -2.3154    0.1383 H   0  0  0  0  0  0  0  0  0  0  0  0
   -5.7894   -1.3711    0.6154 H   0  0  0  0  0  0  0  0  0  0  0  0
   -5.0534   -1.3677    2.9682 H   0  0  0  0  0  0  0  0  0  0  0  0
   -5.1357   -3.0249    2.3702 H   0  0  0  0  0  0  0  0  0  0  0  0
   -3.0414   -2.5730    3.6798 H   0  0  0  0  0  0  0  0  0  0  0  0
   -2.7263   -3.1076    2.0363 H   0  0  0  0  0  0  0  0  0  0  0  0
   -1.2443   -1.2019    2.5706 H   0  0  0  0  0  0  0  0  0  0  0  0
   -2.6091   -0.2490    3.1169 H   0  0  0  0  0  0  0  0  0  0  0  0
   -0.0053    1.0755   -2.5138 H   0  0  0  0  0  0  0  0  0  0  0  0
    3.1649    1.4842   -3.4132 H   0  0  0  0  0  0  0  0  0  0  0  0
    3.2996    4.8359   -3.7673 H   0  0  0  0  0  0  0  0  0  0  0  0
    3.6913    3.3695    0.4297 H   0  0  0  0  0  0  0  0  0  0  0  0
  1  2  2  0
  2  3  1  0
  2  4  1  0
  4  5  2  0
  5  6  1  0
  6  7  1  0
  7  8  1  0
  8  9  2  0
  8 10  2  0
  8 11  1  0
 11 12  2  0
 12 13  1  0
 13 14  2  0
 14 15  1  0
 15 16  1  0
 16 17  1  0
 17 18  1  0
 18 19  1  0
 19 20  1  0
 14 21  1  0
 21 22  1  0
 22 23  2  0
 22 24  1  0
 21 25  2  0
  6 26  2  0
 26 27  1  0
 27 28  1  0
 28 29  2  0
 28 30  1  0
 27 31  2  0
 31  4  1  0
 25 11  1  0
 20 15  1  0
  3 32  1  0
  5 33  1  0
  7 34  1  0
 12 35  1  0
 13 36  1  0
 16 37  1  0
 16 38  1  0
 17 39  1  0
 17 40  1  0
 18 41  1  0
 18 42  1  0
 19 43  1  0
 19 44  1  0
 20 45  1  0
 20 46  1  0
 25 47  1  0
 26 48  1  0
 30 49  1  0
 31 50  1  0
M  CHG  2  22   1  24  -1
M  END
$$$$
