
     RDKit          3D

 51 54  0  0  0  0  0  0  0  0999 V2000
    3.3761    1.4177   -2.1596 C   0  0  0  0  0  0  0  0  0  0  0  0
    2.5254    0.2357   -1.6759 C   0  0  0  0  0  0  0  0  0  0  0  0
    1.0993    0.3352   -2.2595 C   0  0  0  0  0  0  0  0  0  0  0  0
    0.3386    0.8904   -1.0959 C   0  0  0  0  0  0  0  0  0  0  0  0
   -0.9606    1.3757   -1.0946 C   0  0  0  0  0  0  0  0  0  0  0  0
   -1.5086    1.7695    0.1308 C   0  0  0  0  0  0  0  0  0  0  0  0
   -3.1645    2.4298    0.1788 S   0  0  0  0  0  6  0  0  0  0  0  0
   -3.2418    3.3255    1.3134 O   0  0  0  0  0  0  0  0  0  0  0  0
   -3.4825    2.8908   -1.1569 O   0  0  0  0  0  0  0  0  0  0  0  0
   -4.1217    1.0581    0.5095 N   0  0  0  0  0  0  0  0  0  0  0  0
   -4.2036    0.0348   -0.5602 C   0  0  0  0  0  0  0  0  0  0  0  0
   -5.4156   -0.8603   -0.3128 C   0  0  0  0  0  0  0  0  0  0  0  0
   -5.3654   -1.4917    1.0757 C   0  0  0  0  0  0  0  0  0  0  0  0
   -5.1960   -0.4206    2.1497 C   0  0  0  0  0  0  0  0  0  0  0  0
   -3.9865    0.4662    1.8628 C   0  0  0  0  0  0  0  0  0  0  0  0
   -0.7576    1.6993    1.3170 C   0  0  0  0  0  0  0  0  0  0  0  0
    0.5465    1.1923    1.2958 C   0  0  0  0  0  0  0  0  0  0  0  0
    1.0861    0.7954    0.0825 C   0  0  0  0  0  0  0  0  0  0  0  0
    2.3636    0.2636   -0.1994 N   0  0  0  0  0  0  0  0  0  0  0  0
    3.2933   -0.1483    0.7534 C   0  0  0  0  0  0  0  0  0  0  0  0
    3.1161    0.0018    1.9690 O   0  0  0  0  0  0  0  0  0  0  0  0
    4.5668   -0.8623    0.2120 C   0  0  0  0  0  0  0  0  0  0  0  0
    5.6583   -1.2724    1.2462 C   0  0  0  0  0  0  0  0  0  0  0  0
    5.8910   -2.5393    0.4035 C   0  0  0  0  0  0  0  0  0  0  0  0
    4.4453   -2.3819   -0.1010 C   0  0  0  0  0  0  0  0  0  0  0  0
    3.4937    1.3845   -3.2479 H   0  0  0  0  0  0  0  0  0  0  0  0
    4.3743    1.4135   -1.7147 H   0  0  0  0  0  0  0  0  0  0  0  0
    2.9143    2.3767   -1.8983 H   0  0  0  0  0  0  0  0  0  0  0  0
    3.0018   -0.7000   -1.9846 H   0  0  0  0  0  0  0  0  0  0  0  0
    1.0392    0.9729   -3.1462 H   0  0  0  0  0  0  0  0  0  0  0  0
    0.7126   -0.6619   -2.4980 H   0  0  0  0  0  0  0  0  0  0  0  0
   -1.5322    1.4430   -2.0157 H   0  0  0  0  0  0  0  0  0  0  0  0
   -4.3204    0.5086   -1.5398 H   0  0  0  0  0  0  0  0  0  0  0  0
   -3.2885   -0.5677   -0.5756 H   0  0  0  0  0  0  0  0  0  0  0  0
   -6.3340   -0.2672   -0.4065 H   0  0  0  0  0  0  0  0  0  0  0  0
   -5.4589   -1.6456   -1.0757 H   0  0  0  0  0  0  0  0  0  0  0  0
   -4.5290   -2.1994    1.1275 H   0  0  0  0  0  0  0  0  0  0  0  0
   -6.2826   -2.0621    1.2593 H   0  0  0  0  0  0  0  0  0  0  0  0
   -6.1020    0.1972    2.1896 H   0  0  0  0  0  0  0  0  0  0  0  0
   -5.0844   -0.8944    3.1313 H   0  0  0  0  0  0  0  0  0  0  0  0
   -3.0660   -0.1245    1.9256 H   0  0  0  0  0  0  0  0  0  0  0  0
   -3.9465    1.2504    2.6251 H   0  0  0  0  0  0  0  0  0  0  0  0
   -1.1803    2.0399    2.2603 H   0  0  0  0  0  0  0  0  0  0  0  0
    1.1131    1.1427    2.2198 H   0  0  0  0  0  0  0  0  0  0  0  0
    5.0351   -0.3135   -0.6140 H   0  0  0  0  0  0  0  0  0  0  0  0
    6.5143   -0.5967    1.3228 H   0  0  0  0  0  0  0  0  0  0  0  0
    5.2827   -1.4831    2.2543 H   0  0  0  0  0  0  0  0  0  0  0  0
    6.1032   -3.4527    0.9642 H   0  0  0  0  0  0  0  0  0  0  0  0
    6.6475   -2.4152   -0.3798 H   0  0  0  0  0  0  0  0  0  0  0  0
    3.7025   -2.9086    0.5096 H   0  0  0  0  0  0  0  0  0  0  0  0
    4.2885   -2.6420   -1.1510 H   0  0  0  0  0  0  0  0  0  0  0  0
  1  2  1  0
  2  3  1  0
  3  4  1  0
  4  5  2  0
  5  6  1  0
  6  7  1  0
  7  8  2  0
  7  9  2  0
  7 10  1  0
 10 11  1  0
 11 12  1  0
 12 13  1  0
 13 14  1  0
 14 15  1  0
  6 16  2  0
 16 17  1  0
 17 18  2  0
 18 19  1  0
 19 20  1  0
 20 21  2  0
 20 22  1  0
 22 23  1  0
 23 24  1  0
 24 25  1  0
 19  2  1  0
 25 22  1  0
 18  4  1  0
 15 10  1  0
  1 26  1  0
  1 27  1  0
  1 28  1  0
  2 29  1  0
  3 30  1  0
  3 31  1  0
  5 32  1  0
 11 33  1  0
 11 34  1  0
 12 35  1  0
 12 36  1  0
 13 37  1  0
 13 38  1  0
 14 39  1  0
 14 40  1  0
 15 41  1  0
 15 42  1  0
 16 43  1  0
 17 44  1  0
 22 45  1  0
 23 46  1  0
 23 47  1  0
 24 48  1  0
 24 49  1  0
 25 50  1  0
 25 51  1  0
M  END
$$$$
