
     RDKit          3D

 49 52  0  0  0  0  0  0  0  0999 V2000
    1.1799   -0.2313   -3.5339 N   0  0  0  0  0  0  0  0  0  0  0  0
    0.8881    0.1113   -2.4617 C   0  0  0  0  0  0  0  0  0  0  0  0
    0.6428    0.5890   -1.0903 C   0  0  0  0  0  0  0  0  0  0  0  0
    1.2351   -0.3872   -0.0731 C   0  0  0  0  0  0  0  0  0  0  0  0
    0.6123   -0.8161    0.8991 O   0  0  0  0  0  0  0  0  0  0  0  0
    2.5788   -0.6940   -0.2559 N   0  0  0  0  0  0  0  0  0  0  0  0
    3.2405   -1.6831    0.5707 C   0  0  0  0  0  0  0  0  0  0  0  0
    3.2267   -3.0338   -0.0972 C   0  0  0  0  0  0  0  0  0  0  0  0
    2.0943   -3.8573   -0.0039 C   0  0  0  0  0  0  0  0  0  0  0  0
    2.0641   -5.0966   -0.6449 C   0  0  0  0  0  0  0  0  0  0  0  0
    3.1628   -5.5244   -1.3883 C   0  0  0  0  0  0  0  0  0  0  0  0
    4.2913   -4.7124   -1.4940 C   0  0  0  0  0  0  0  0  0  0  0  0
    4.3231   -3.4709   -0.8551 C   0  0  0  0  0  0  0  0  0  0  0  0
   -0.8235    0.8608   -0.8299 C   0  0  0  0  0  0  0  0  0  0  0  0
   -1.7418    0.0900   -1.4823 N   0  0  0  0  0  0  0  0  0  0  0  0
   -3.0386    0.3447   -1.2433 C   0  0  0  0  0  0  0  0  0  0  0  0
   -4.0168   -0.4086   -1.8815 C   0  0  0  0  0  0  0  0  0  0  0  0
   -5.3743   -0.1704   -1.6621 C   0  0  0  0  0  0  0  0  0  0  0  0
   -5.7591    0.8388   -0.7892 C   0  0  0  0  0  0  0  0  0  0  0  0
   -4.7825    1.5998   -0.1442 C   0  0  0  0  0  0  0  0  0  0  0  0
   -3.4277    1.3708   -0.3559 C   0  0  0  0  0  0  0  0  0  0  0  0
   -2.5175    2.1281    0.2857 N   0  0  0  0  0  0  0  0  0  0  0  0
   -1.2079    1.8762    0.0623 C   0  0  0  0  0  0  0  0  0  0  0  0
   -0.2342    2.6267    0.7489 N   0  0  0  0  0  0  0  0  0  0  0  0
    0.0107    2.0617    2.0979 C   0  0  0  0  0  0  0  0  0  0  0  0
   -0.1906    3.2197    3.0732 C   0  0  0  0  0  0  0  0  0  0  0  0
    0.0808    4.4429    2.2199 C   0  0  0  0  0  0  0  0  0  0  0  0
   -0.5782    4.0527    0.9035 C   0  0  0  0  0  0  0  0  0  0  0  0
    1.2050    1.5268   -0.9871 H   0  0  0  0  0  0  0  0  0  0  0  0
    3.0000   -0.5352   -1.1635 H   0  0  0  0  0  0  0  0  0  0  0  0
    4.2718   -1.3423    0.7183 H   0  0  0  0  0  0  0  0  0  0  0  0
    2.7751   -1.7411    1.5611 H   0  0  0  0  0  0  0  0  0  0  0  0
    1.2248   -3.5303    0.5658 H   0  0  0  0  0  0  0  0  0  0  0  0
    1.1798   -5.7247   -0.5681 H   0  0  0  0  0  0  0  0  0  0  0  0
    3.1368   -6.4884   -1.8903 H   0  0  0  0  0  0  0  0  0  0  0  0
    5.1453   -5.0451   -2.0791 H   0  0  0  0  0  0  0  0  0  0  0  0
    5.2099   -2.8485   -0.9546 H   0  0  0  0  0  0  0  0  0  0  0  0
   -3.7112   -1.1977   -2.5649 H   0  0  0  0  0  0  0  0  0  0  0  0
   -6.1222   -0.7720   -2.1725 H   0  0  0  0  0  0  0  0  0  0  0  0
   -6.8126    1.0363   -0.6075 H   0  0  0  0  0  0  0  0  0  0  0  0
   -5.0815    2.3897    0.5405 H   0  0  0  0  0  0  0  0  0  0  0  0
   -0.6379    1.2177    2.3626 H   0  0  0  0  0  0  0  0  0  0  0  0
    1.0509    1.7192    2.1407 H   0  0  0  0  0  0  0  0  0  0  0  0
    0.4685    3.1533    3.9434 H   0  0  0  0  0  0  0  0  0  0  0  0
   -1.2275    3.2324    3.4302 H   0  0  0  0  0  0  0  0  0  0  0  0
    1.1603    4.5818    2.0840 H   0  0  0  0  0  0  0  0  0  0  0  0
   -0.3375    5.3594    2.6451 H   0  0  0  0  0  0  0  0  0  0  0  0
   -0.1807    4.6386    0.0689 H   0  0  0  0  0  0  0  0  0  0  0  0
   -1.6558    4.2428    0.9776 H   0  0  0  0  0  0  0  0  0  0  0  0
  1  2  3  0
  2  3  1  0
  3  4  1  0
  4  5  2  0
  4  6  1  0
  6  7  1  0
  7  8  1  0
  8  9  2  0
  9 10  1  0
 10 11  2  0
 11 12  1  0
 12 13  2  0
  3 14  1  0
 14 15  2  0
 15 16  1  0
 16 17  2  0
 17 18  1  0
 18 19  2  0
 19 20  1  0
 20 21  2  0
 21 22  1  0
 22 23  2  0
 23 24  1  0
 24 25  1  0
 25 26  1  0
 26 27  1  0
 27 28  1  0
 13  8  1  0
 23 14  1  0
 28 24  1  0
 21 16  1  0
  3 29  1  0
  6 30  1  0
  7 31  1  0
  7 32  1  0
  9 33  1  0
 10 34  1  0
 11 35  1  0
 12 36  1  0
 13 37  1  0
 17 38  1  0
 18 39  1  0
 19 40  1  0
 20 41  1  0
 25 42  1  0
 25 43  1  0
 26 44  1  0
 26 45  1  0
 27 46  1  0
 27 47  1  0
 28 48  1  0
 28 49  1  0
M  END
$$$$
