
     RDKit          3D

 47 49  0  0  0  0  0  0  0  0999 V2000
   -7.8382   -1.8016   -1.2884 C   0  0  0  0  0  0  0  0  0  0  0  0
   -6.5029   -1.0953   -1.4395 C   0  0  0  0  0  0  0  0  0  0  0  0
   -5.9330   -0.9489   -0.1399 O   0  0  0  0  0  0  0  0  0  0  0  0
   -4.7259   -0.3123   -0.0544 C   0  0  0  0  0  0  0  0  0  0  0  0
   -4.2396   -0.1628    1.2492 C   0  0  0  0  0  0  0  0  0  0  0  0
   -3.0173    0.4674    1.4862 C   0  0  0  0  0  0  0  0  0  0  0  0
   -2.2749    0.9440    0.4048 C   0  0  0  0  0  0  0  0  0  0  0  0
   -0.7196    1.7386    0.7123 S   0  0  0  0  0  6  0  0  0  0  0  0
   -0.9193    2.6883    1.7853 O   0  0  0  0  0  0  0  0  0  0  0  0
   -0.1469    2.1522   -0.5521 O   0  0  0  0  0  0  0  0  0  0  0  0
    0.2475    0.4600    1.3073 N   0  0  0  0  0  0  0  0  0  0  0  0
    0.4010   -0.7091    0.3721 C   0  0  0  0  0  0  0  0  0  0  0  0
    1.7410   -1.4337    0.5419 C   0  0  0  0  0  0  0  0  0  0  0  0
    2.8778   -0.5279    0.3697 N   0  0  0  0  0  0  0  0  0  0  0  0
    4.0922   -1.0658   -0.0407 C   0  0  0  0  0  0  0  0  0  0  0  0
    4.2766   -2.2711   -0.1897 O   0  0  0  0  0  0  0  0  0  0  0  0
    5.2266   -0.1569   -0.3114 C   0  0  0  0  0  0  0  0  0  0  0  0
    6.4570   -0.4320    0.2806 C   0  0  0  0  0  0  0  0  0  0  0  0
    7.5076    0.4190   -0.0021 C   0  0  0  0  0  0  0  0  0  0  0  0
    7.4048    1.4881   -0.8224 N   0  0  0  0  0  0  0  0  0  0  0  0
    6.2064    1.7061   -1.4069 C   0  0  0  0  0  0  0  0  0  0  0  0
    5.0937    0.9156   -1.1911 C   0  0  0  0  0  0  0  0  0  0  0  0
    2.7011    0.8338    0.8947 C   0  0  0  0  0  0  0  0  0  0  0  0
    1.5452    0.9230    1.8999 C   0  0  0  0  0  0  0  0  0  0  0  0
   -2.7506    0.8092   -0.9013 C   0  0  0  0  0  0  0  0  0  0  0  0
   -3.9778    0.1772   -1.1283 C   0  0  0  0  0  0  0  0  0  0  0  0
   -7.7050   -2.7813   -0.8175 H   0  0  0  0  0  0  0  0  0  0  0  0
   -8.3186   -1.9395   -2.2611 H   0  0  0  0  0  0  0  0  0  0  0  0
   -8.5080   -1.2255   -0.6414 H   0  0  0  0  0  0  0  0  0  0  0  0
   -5.8475   -1.7015   -2.0753 H   0  0  0  0  0  0  0  0  0  0  0  0
   -6.6676   -0.1125   -1.8961 H   0  0  0  0  0  0  0  0  0  0  0  0
   -4.8239   -0.5379    2.0868 H   0  0  0  0  0  0  0  0  0  0  0  0
   -2.6532    0.5837    2.5045 H   0  0  0  0  0  0  0  0  0  0  0  0
    0.3228   -0.3742   -0.6684 H   0  0  0  0  0  0  0  0  0  0  0  0
   -0.4165   -1.4118    0.5656 H   0  0  0  0  0  0  0  0  0  0  0  0
    1.8199   -1.8674    1.5462 H   0  0  0  0  0  0  0  0  0  0  0  0
    1.8102   -2.2576   -0.1770 H   0  0  0  0  0  0  0  0  0  0  0  0
    6.5901   -1.2854    0.9364 H   0  0  0  0  0  0  0  0  0  0  0  0
    8.4911    0.2603    0.4314 H   0  0  0  0  0  0  0  0  0  0  0  0
    6.1683    2.5584   -2.0798 H   0  0  0  0  0  0  0  0  0  0  0  0
    4.1626    1.1208   -1.7061 H   0  0  0  0  0  0  0  0  0  0  0  0
    2.5020    1.4860    0.0379 H   0  0  0  0  0  0  0  0  0  0  0  0
    3.6279    1.1663    1.3729 H   0  0  0  0  0  0  0  0  0  0  0  0
    1.7513    0.2901    2.7721 H   0  0  0  0  0  0  0  0  0  0  0  0
    1.4643    1.9459    2.2814 H   0  0  0  0  0  0  0  0  0  0  0  0
   -2.1802    1.1922   -1.7448 H   0  0  0  0  0  0  0  0  0  0  0  0
   -4.3223    0.0858   -2.1534 H   0  0  0  0  0  0  0  0  0  0  0  0
  1  2  1  0
  2  3  1  0
  3  4  1  0
  4  5  2  0
  5  6  1  0
  6  7  2  0
  7  8  1  0
  8  9  2  0
  8 10  2  0
  8 11  1  0
 11 12  1  0
 12 13  1  0
 13 14  1  0
 14 15  1  0
 15 16  2  0
 15 17  1  0
 17 18  2  0
 18 19  1  0
 19 20  2  0
 20 21  1  0
 21 22  2  0
 14 23  1  0
 23 24  1  0
  7 25  1  0
 25 26  2  0
 26  4  1  0
 24 11  1  0
 22 17  1  0
  1 27  1  0
  1 28  1  0
  1 29  1  0
  2 30  1  0
  2 31  1  0
  5 32  1  0
  6 33  1  0
 12 34  1  0
 12 35  1  0
 13 36  1  0
 13 37  1  0
 18 38  1  0
 19 39  1  0
 21 40  1  0
 22 41  1  0
 23 42  1  0
 23 43  1  0
 24 44  1  0
 24 45  1  0
 25 46  1  0
 26 47  1  0
M  END
$$$$
