
     RDKit          3D

 53 58  0  0  0  0  0  0  0  0999 V2000
   -0.9931   -1.9410   -0.7482 O   0  0  0  0  0  0  0  0  0  0  0  0
   -1.4848   -0.8086   -0.7492 C   0  0  0  0  0  0  0  0  0  0  0  0
   -0.6786    0.3276   -1.4160 C   0  0  0  0  0  0  0  0  0  0  0  0
    0.7566    0.1995   -1.0988 N   0  0  0  0  0  4  0  0  0  0  0  0
    1.4755    0.9496   -0.1686 C   0  0  0  0  0  0  0  0  0  0  0  0
    2.7838    0.4821   -0.1243 C   0  0  0  0  0  0  0  0  0  0  0  0
    3.9341    1.0191    0.8015 C   0  0  0  0  0  0  0  0  0  0  0  0
    5.1912    0.4114    0.8035 C   0  0  0  0  0  0  0  0  0  0  0  0
    6.2055    0.8986    1.6326 C   0  0  0  0  0  0  0  0  0  0  0  0
    5.9683    1.9912    2.4628 C   0  0  0  0  0  0  0  0  0  0  0  0
    4.7155    2.5982    2.4689 C   0  0  0  0  0  0  0  0  0  0  0  0
    3.6982    2.1146    1.6424 C   0  0  0  0  0  0  0  0  0  0  0  0
    2.7892   -0.5330   -1.0641 N   0  0  0  0  0  0  0  0  0  0  0  0
    1.5822   -0.7186   -1.5930 C   0  0  0  0  0  0  0  0  0  0  0  0
    1.5425   -1.8263   -2.5770 C   0  0  0  0  0  0  0  0  0  0  0  0
    3.0415   -2.0770   -2.8345 C   0  0  0  0  0  0  0  0  0  0  0  0
    3.7641   -1.4722   -1.5998 C   0  0  0  0  0  0  0  0  0  0  0  0
   -2.6605   -0.4147   -0.0861 N   0  0  0  0  0  0  0  0  0  0  0  0
   -3.4763    0.6697   -0.5701 C   0  0  0  0  0  0  0  0  0  0  0  0
   -3.6096    0.8679   -1.9597 C   0  0  0  0  0  0  0  0  0  0  0  0
   -4.3796    1.9145   -2.4734 C   0  0  0  0  0  0  0  0  0  0  0  0
   -5.0438    2.7746   -1.6087 C   0  0  0  0  0  0  0  0  0  0  0  0
   -4.9563    2.5729   -0.2333 C   0  0  0  0  0  0  0  0  0  0  0  0
   -4.1933    1.5177    0.2875 C   0  0  0  0  0  0  0  0  0  0  0  0
   -4.1332    1.3256    2.0460 S   0  0  0  0  0  0  0  0  0  0  0  0
   -3.8377   -0.4275    2.1094 C   0  0  0  0  0  0  0  0  0  0  0  0
   -4.2725   -1.1045    3.2605 C   0  0  0  0  0  0  0  0  0  0  0  0
   -4.0195   -2.4625    3.4208 C   0  0  0  0  0  0  0  0  0  0  0  0
   -3.3256   -3.1477    2.4339 C   0  0  0  0  0  0  0  0  0  0  0  0
   -2.8845   -2.4757    1.2880 C   0  0  0  0  0  0  0  0  0  0  0  0
   -3.1307   -1.1044    1.0945 C   0  0  0  0  0  0  0  0  0  0  0  0
   -0.7910    0.2622   -2.5024 H   0  0  0  0  0  0  0  0  0  0  0  0
   -0.9964    1.3163   -1.0742 H   0  0  0  0  0  0  0  0  0  0  0  0
    0.9530    1.7258    0.3646 H   0  0  0  0  0  0  0  0  0  0  0  0
    5.4172   -0.4487    0.1873 H   0  0  0  0  0  0  0  0  0  0  0  0
    7.1845    0.4232    1.6356 H   0  0  0  0  0  0  0  0  0  0  0  0
    6.7597    2.3676    3.1079 H   0  0  0  0  0  0  0  0  0  0  0  0
    4.5327    3.4503    3.1207 H   0  0  0  0  0  0  0  0  0  0  0  0
    2.7376    2.6195    1.6788 H   0  0  0  0  0  0  0  0  0  0  0  0
    0.9955   -1.5003   -3.4622 H   0  0  0  0  0  0  0  0  0  0  0  0
    1.0662   -2.6765   -2.0865 H   0  0  0  0  0  0  0  0  0  0  0  0
    3.2783   -3.1327   -2.9909 H   0  0  0  0  0  0  0  0  0  0  0  0
    3.3478   -1.5250   -3.7311 H   0  0  0  0  0  0  0  0  0  0  0  0
    3.9673   -2.2382   -0.8458 H   0  0  0  0  0  0  0  0  0  0  0  0
    4.6821   -0.9601   -1.8961 H   0  0  0  0  0  0  0  0  0  0  0  0
   -3.1732    0.1747   -2.6750 H   0  0  0  0  0  0  0  0  0  0  0  0
   -4.4839    2.0440   -3.5490 H   0  0  0  0  0  0  0  0  0  0  0  0
   -5.6522    3.5867   -2.0017 H   0  0  0  0  0  0  0  0  0  0  0  0
   -5.5018    3.2406    0.4323 H   0  0  0  0  0  0  0  0  0  0  0  0
   -4.8095   -0.5742    4.0451 H   0  0  0  0  0  0  0  0  0  0  0  0
   -4.3639   -2.9823    4.3118 H   0  0  0  0  0  0  0  0  0  0  0  0
   -3.1322   -4.2126    2.5461 H   0  0  0  0  0  0  0  0  0  0  0  0
   -2.3862   -3.0817    0.5375 H   0  0  0  0  0  0  0  0  0  0  0  0
  1  2  2  0
  2  3  1  0
  3  4  1  0
  4  5  1  0
  5  6  2  0
  6  7  1  0
  7  8  2  0
  8  9  1  0
  9 10  2  0
 10 11  1  0
 11 12  2  0
  6 13  1  0
 13 14  1  0
 14 15  1  0
 15 16  1  0
 16 17  1  0
  2 18  1  0
 18 19  1  0
 19 20  2  0
 20 21  1  0
 21 22  2  0
 22 23  1  0
 23 24  2  0
 24 25  1  0
 25 26  1  0
 26 27  2  0
 27 28  1  0
 28 29  2  0
 29 30  1  0
 30 31  2  0
 14  4  2  0
 31 18  1  0
 12  7  1  0
 17 13  1  0
 24 19  1  0
 31 26  1  0
  3 32  1  0
  3 33  1  0
  5 34  1  0
  8 35  1  0
  9 36  1  0
 10 37  1  0
 11 38  1  0
 12 39  1  0
 15 40  1  0
 15 41  1  0
 16 42  1  0
 16 43  1  0
 17 44  1  0
 17 45  1  0
 20 46  1  0
 21 47  1  0
 22 48  1  0
 23 49  1  0
 27 50  1  0
 28 51  1  0
 29 52  1  0
 30 53  1  0
M  CHG  1   4   1
M  END
$$$$
