
     RDKit          3D

 70 72  0  0  0  0  0  0  0  0999 V2000
    9.9748    0.0416   -0.7089 C   0  0  0  0  0  0  0  0  0  0  0  0
    9.3145   -0.0281    0.6600 C   0  0  0  0  0  0  0  0  0  0  0  0
    7.7945   -0.1977    0.5941 C   0  0  0  0  0  0  0  0  0  0  0  0
    7.0784    1.0287    0.0199 C   0  0  0  0  0  0  0  0  0  0  0  0
    5.5516    0.9379    0.1238 C   0  0  0  0  0  0  0  0  0  0  0  0
    4.9427   -0.0880   -0.8360 C   0  0  0  0  0  0  0  0  0  0  0  0
    3.4223   -0.2264   -0.6914 C   0  0  0  0  0  0  0  0  0  0  0  0
    2.6575    1.0468   -1.0638 C   0  0  0  0  0  0  0  0  0  0  0  0
    1.1362    0.8478   -1.1300 C   0  0  0  0  0  0  0  0  0  0  0  0
    0.5391    0.4553    0.2235 C   0  0  0  0  0  0  0  0  0  0  0  0
   -1.0165    0.4573    0.2768 N   0  0  0  0  0  4  0  0  0  0  0  0
   -1.5483    1.8794    0.1257 C   0  0  0  0  0  0  0  0  0  0  0  0
   -1.5873   -0.4167   -0.8355 C   0  0  0  0  0  0  0  0  0  0  0  0
   -1.3814   -0.1194    1.6805 C   0  0  0  0  0  0  0  0  0  0  0  0
   -2.8634   -0.0561    2.1023 C   0  0  0  0  0  0  0  0  0  0  0  0
   -3.7564   -1.0713    1.4357 C   0  0  0  0  0  0  0  0  0  0  0  0
   -4.9187   -0.8765    0.7693 C   0  0  0  0  0  0  0  0  0  0  0  0
   -5.4747   -2.0339    0.0135 C   0  0  0  0  0  0  0  0  0  0  0  0
   -5.6505   -3.2973    0.5990 C   0  0  0  0  0  0  0  0  0  0  0  0
   -6.1732   -4.3544   -0.1486 C   0  0  0  0  0  0  0  0  0  0  0  0
   -6.5317   -4.1589   -1.4815 C   0  0  0  0  0  0  0  0  0  0  0  0
   -6.3741   -2.9045   -2.0715 C   0  0  0  0  0  0  0  0  0  0  0  0
   -5.8599   -1.8355   -1.3284 C   0  0  0  0  0  0  0  0  0  0  0  0
   -5.6973   -0.2355   -2.1298 S   0  0  0  0  0  0  0  0  0  0  0  0
   -5.9011    0.8584   -0.7238 C   0  0  0  0  0  0  0  0  0  0  0  0
   -6.4648    2.1225   -0.9371 C   0  0  0  0  0  0  0  0  0  0  0  0
   -6.6799    2.9863    0.1384 C   0  0  0  0  0  0  0  0  0  0  0  0
   -6.3472    2.5801    1.4281 C   0  0  0  0  0  0  0  0  0  0  0  0
   -6.6171    3.6394    2.7562 Cl  0  0  0  0  0  0  0  0  0  0  0  0
   -5.7852    1.3242    1.6541 C   0  0  0  0  0  0  0  0  0  0  0  0
   -5.5204    0.4680    0.5758 C   0  0  0  0  0  0  0  0  0  0  0  0
    9.7290   -0.8406   -1.3090 H   0  0  0  0  0  0  0  0  0  0  0  0
   11.0630    0.0828   -0.5981 H   0  0  0  0  0  0  0  0  0  0  0  0
    9.6637    0.9340   -1.2609 H   0  0  0  0  0  0  0  0  0  0  0  0
    9.7365   -0.8805    1.2070 H   0  0  0  0  0  0  0  0  0  0  0  0
    9.5660    0.8721    1.2330 H   0  0  0  0  0  0  0  0  0  0  0  0
    7.4277   -0.3819    1.6113 H   0  0  0  0  0  0  0  0  0  0  0  0
    7.5576   -1.0900    0.0039 H   0  0  0  0  0  0  0  0  0  0  0  0
    7.3613    1.1811   -1.0280 H   0  0  0  0  0  0  0  0  0  0  0  0
    7.4057    1.9195    0.5710 H   0  0  0  0  0  0  0  0  0  0  0  0
    5.2637    0.7036    1.1555 H   0  0  0  0  0  0  0  0  0  0  0  0
    5.1451    1.9308   -0.1009 H   0  0  0  0  0  0  0  0  0  0  0  0
    5.3850   -1.0735   -0.6556 H   0  0  0  0  0  0  0  0  0  0  0  0
    5.1892    0.1843   -1.8688 H   0  0  0  0  0  0  0  0  0  0  0  0
    3.1874   -0.5234    0.3367 H   0  0  0  0  0  0  0  0  0  0  0  0
    3.0914   -1.0441   -1.3423 H   0  0  0  0  0  0  0  0  0  0  0  0
    2.8791    1.8467   -0.3476 H   0  0  0  0  0  0  0  0  0  0  0  0
    2.9994    1.3955   -2.0463 H   0  0  0  0  0  0  0  0  0  0  0  0
    0.9226    0.0790   -1.8804 H   0  0  0  0  0  0  0  0  0  0  0  0
    0.7018    1.7834   -1.4934 H   0  0  0  0  0  0  0  0  0  0  0  0
    0.8510   -0.5611    0.4892 H   0  0  0  0  0  0  0  0  0  0  0  0
    0.8775    1.1434    1.0072 H   0  0  0  0  0  0  0  0  0  0  0  0
   -1.1585    2.4844    0.9488 H   0  0  0  0  0  0  0  0  0  0  0  0
   -1.2277    2.2820   -0.8367 H   0  0  0  0  0  0  0  0  0  0  0  0
   -2.6401    1.8552    0.1432 H   0  0  0  0  0  0  0  0  0  0  0  0
   -1.2427   -1.4436   -0.6840 H   0  0  0  0  0  0  0  0  0  0  0  0
   -1.2518   -0.0303   -1.8014 H   0  0  0  0  0  0  0  0  0  0  0  0
   -2.6733   -0.3544   -0.8135 H   0  0  0  0  0  0  0  0  0  0  0  0
   -1.0120   -1.1522    1.7031 H   0  0  0  0  0  0  0  0  0  0  0  0
   -0.7983    0.4649    2.4032 H   0  0  0  0  0  0  0  0  0  0  0  0
   -2.9000   -0.2794    3.1776 H   0  0  0  0  0  0  0  0  0  0  0  0
   -3.2273    0.9677    2.0097 H   0  0  0  0  0  0  0  0  0  0  0  0
   -3.3600   -2.0875    1.4902 H   0  0  0  0  0  0  0  0  0  0  0  0
   -5.3977   -3.4686    1.6434 H   0  0  0  0  0  0  0  0  0  0  0  0
   -6.3094   -5.3324    0.3102 H   0  0  0  0  0  0  0  0  0  0  0  0
   -6.9434   -4.9833   -2.0603 H   0  0  0  0  0  0  0  0  0  0  0  0
   -6.6699   -2.7668   -3.1093 H   0  0  0  0  0  0  0  0  0  0  0  0
   -6.7591    2.4363   -1.9366 H   0  0  0  0  0  0  0  0  0  0  0  0
   -7.1266    3.9624   -0.0345 H   0  0  0  0  0  0  0  0  0  0  0  0
   -5.5681    1.0113    2.6726 H   0  0  0  0  0  0  0  0  0  0  0  0
  1  2  1  0
  2  3  1  0
  3  4  1  0
  4  5  1  0
  5  6  1  0
  6  7  1  0
  7  8  1  0
  8  9  1  0
  9 10  1  0
 10 11  1  0
 11 12  1  0
 11 13  1  0
 11 14  1  0
 14 15  1  0
 15 16  1  0
 16 17  2  3
 17 18  1  0
 18 19  2  0
 19 20  1  0
 20 21  2  0
 21 22  1  0
 22 23  2  0
 23 24  1  0
 24 25  1  0
 25 26  2  0
 26 27  1  0
 27 28  2  0
 28 29  1  0
 28 30  1  0
 30 31  2  0
 31 17  1  0
 23 18  1  0
 31 25  1  0
  1 32  1  0
  1 33  1  0
  1 34  1  0
  2 35  1  0
  2 36  1  0
  3 37  1  0
  3 38  1  0
  4 39  1  0
  4 40  1  0
  5 41  1  0
  5 42  1  0
  6 43  1  0
  6 44  1  0
  7 45  1  0
  7 46  1  0
  8 47  1  0
  8 48  1  0
  9 49  1  0
  9 50  1  0
 10 51  1  0
 10 52  1  0
 12 53  1  0
 12 54  1  0
 12 55  1  0
 13 56  1  0
 13 57  1  0
 13 58  1  0
 14 59  1  0
 14 60  1  0
 15 61  1  0
 15 62  1  0
 16 63  1  0
 19 64  1  0
 20 65  1  0
 21 66  1  0
 22 67  1  0
 26 68  1  0
 27 69  1  0
 30 70  1  0
M  CHG  1  11   1
M  END
$$$$
