
     RDKit          3D

 50 53  0  0  0  0  0  0  0  0999 V2000
    0.2230    0.2470   -0.2902 O   0  0  0  0  0  0  0  0  0  0  0  0
    1.0991    0.8648   -0.8919 C   0  0  0  0  0  0  0  0  0  0  0  0
    0.8042    1.7262   -1.9455 N   0  0  0  0  0  0  0  0  0  0  0  0
   -0.4136    2.0678   -2.5116 C   0  0  0  0  0  0  0  0  0  0  0  0
   -0.3087    3.1510   -3.7807 S   0  0  0  0  0  0  0  0  0  0  0  0
   -1.5113    1.4734   -1.9535 N   0  0  0  0  0  0  0  0  0  0  0  0
   -2.9066    1.5316   -2.1973 C   0  0  0  0  0  0  0  0  0  0  0  0
   -3.5381    2.3141   -3.1627 C   0  0  0  0  0  0  0  0  0  0  0  0
   -4.9297    2.2803   -3.3038 C   0  0  0  0  0  0  0  0  0  0  0  0
   -5.7031    1.4661   -2.4818 C   0  0  0  0  0  0  0  0  0  0  0  0
   -5.0885    0.6794   -1.5106 C   0  0  0  0  0  0  0  0  0  0  0  0
   -3.6941    0.6996   -1.3553 C   0  0  0  0  0  0  0  0  0  0  0  0
   -3.0287   -0.0821   -0.3760 N   0  0  0  0  0  0  0  0  0  0  0  0
   -3.2094   -1.5388   -0.5687 C   0  0  0  0  0  0  0  0  0  0  0  0
   -2.3864   -2.2993    0.4854 C   0  0  0  0  0  0  0  0  0  0  0  0
   -2.7630   -1.9109    1.8194 O   0  0  0  0  0  0  0  0  0  0  0  0
   -2.5319   -0.5019    2.0014 C   0  0  0  0  0  0  0  0  0  0  0  0
   -3.3592    0.3307    1.0075 C   0  0  0  0  0  0  0  0  0  0  0  0
    2.5120    0.7561   -0.5707 C   0  0  0  0  0  0  0  0  0  0  0  0
    3.6610    1.3322   -1.0846 C   0  0  0  0  0  0  0  0  0  0  0  0
    4.7504    0.8146   -0.3369 C   0  0  0  0  0  0  0  0  0  0  0  0
    4.2185   -0.0508    0.5971 C   0  0  0  0  0  0  0  0  0  0  0  0
    4.7769   -0.8946    1.6514 C   0  0  0  0  0  0  0  0  0  0  0  0
    6.1651   -0.9539    1.8583 C   0  0  0  0  0  0  0  0  0  0  0  0
    6.7094   -1.7581    2.8648 C   0  0  0  0  0  0  0  0  0  0  0  0
    5.8714   -2.5156    3.6801 C   0  0  0  0  0  0  0  0  0  0  0  0
    4.4935   -2.4653    3.4854 C   0  0  0  0  0  0  0  0  0  0  0  0
    3.4571   -3.4001    4.4940 Cl  0  0  0  0  0  0  0  0  0  0  0  0
    3.9465   -1.6642    2.4821 C   0  0  0  0  0  0  0  0  0  0  0  0
    2.8617   -0.0821    0.4544 O   0  0  0  0  0  0  0  0  0  0  0  0
    1.5751    2.1959   -2.3941 H   0  0  0  0  0  0  0  0  0  0  0  0
   -1.3187    0.8205   -1.1831 H   0  0  0  0  0  0  0  0  0  0  0  0
   -2.9941    2.9691   -3.8282 H   0  0  0  0  0  0  0  0  0  0  0  0
   -5.4076    2.8975   -4.0616 H   0  0  0  0  0  0  0  0  0  0  0  0
   -6.7831    1.4449   -2.5964 H   0  0  0  0  0  0  0  0  0  0  0  0
   -5.7054    0.0525   -0.8738 H   0  0  0  0  0  0  0  0  0  0  0  0
   -4.2658   -1.8118   -0.4544 H   0  0  0  0  0  0  0  0  0  0  0  0
   -2.8767   -1.8351   -1.5707 H   0  0  0  0  0  0  0  0  0  0  0  0
   -2.5667   -3.3748    0.3926 H   0  0  0  0  0  0  0  0  0  0  0  0
   -1.3117   -2.1267    0.3530 H   0  0  0  0  0  0  0  0  0  0  0  0
   -2.8206   -0.2495    3.0264 H   0  0  0  0  0  0  0  0  0  0  0  0
   -1.4598   -0.2992    1.8962 H   0  0  0  0  0  0  0  0  0  0  0  0
   -4.4250    0.1653    1.2097 H   0  0  0  0  0  0  0  0  0  0  0  0
   -3.1360    1.3940    1.1531 H   0  0  0  0  0  0  0  0  0  0  0  0
    3.7290    2.0405   -1.8973 H   0  0  0  0  0  0  0  0  0  0  0  0
    5.7972    1.0499   -0.4687 H   0  0  0  0  0  0  0  0  0  0  0  0
    6.8447   -0.3748    1.2375 H   0  0  0  0  0  0  0  0  0  0  0  0
    7.7865   -1.7924    3.0108 H   0  0  0  0  0  0  0  0  0  0  0  0
    6.2951   -3.1403    4.4614 H   0  0  0  0  0  0  0  0  0  0  0  0
    2.8664   -1.6426    2.3501 H   0  0  0  0  0  0  0  0  0  0  0  0
  1  2  2  0
  2  3  1  0
  3  4  1  0
  4  5  2  0
  4  6  1  0
  6  7  1  0
  7  8  2  0
  8  9  1  0
  9 10  2  0
 10 11  1  0
 11 12  2  0
 12 13  1  0
 13 14  1  0
 14 15  1  0
 15 16  1  0
 16 17  1  0
 17 18  1  0
  2 19  1  0
 19 20  2  0
 20 21  1  0
 21 22  2  0
 22 23  1  0
 23 24  2  0
 24 25  1  0
 25 26  2  0
 26 27  1  0
 27 28  1  0
 27 29  2  0
 22 30  1  0
 12  7  1  0
 18 13  1  0
 30 19  1  0
 29 23  1  0
  3 31  1  0
  6 32  1  0
  8 33  1  0
  9 34  1  0
 10 35  1  0
 11 36  1  0
 14 37  1  0
 14 38  1  0
 15 39  1  0
 15 40  1  0
 17 41  1  0
 17 42  1  0
 18 43  1  0
 18 44  1  0
 20 45  1  0
 21 46  1  0
 24 47  1  0
 25 48  1  0
 26 49  1  0
 29 50  1  0
M  END
$$$$
