
     RDKit          3D

 46 48  0  0  0  0  0  0  0  0999 V2000
   -1.7083    5.3171   -0.9138 C   0  0  0  0  0  0  0  0  0  0  0  0
   -2.2502    4.0204   -0.3421 C   0  0  0  0  0  0  0  0  0  0  0  0
   -1.2137    3.0308   -0.2924 O   0  0  0  0  0  0  0  0  0  0  0  0
   -1.0576    2.3036   -1.4178 C   0  0  0  0  0  0  0  0  0  0  0  0
   -1.6735    2.3857   -2.4633 O   0  0  0  0  0  0  0  0  0  0  0  0
    0.0598    1.3180   -1.2042 C   0  0  0  0  0  0  0  0  0  0  0  0
    1.1330    1.2966   -1.9390 N   0  0  0  0  0  0  0  0  0  0  0  0
    1.9325    0.3211   -1.4157 N   0  0  0  0  0  0  0  0  0  0  0  0
    1.2547   -0.4767   -0.3917 C   0  0  0  0  0  0  0  0  0  0  0  0
    2.0898   -0.6761    0.8764 C   0  0  0  0  0  0  0  0  0  0  0  0
    1.5774   -0.8033    1.9897 O   0  0  0  0  0  0  0  0  0  0  0  0
    3.5614   -0.8413    0.7679 C   0  0  0  0  0  0  0  0  0  0  0  0
    4.1380   -1.6036   -0.2542 C   0  0  0  0  0  0  0  0  0  0  0  0
    5.5256   -1.7480   -0.3125 C   0  0  0  0  0  0  0  0  0  0  0  0
    6.3331   -1.1448    0.6525 C   0  0  0  0  0  0  0  0  0  0  0  0
    5.7574   -0.4035    1.6844 C   0  0  0  0  0  0  0  0  0  0  0  0
    4.3714   -0.2564    1.7478 C   0  0  0  0  0  0  0  0  0  0  0  0
   -0.0311    0.3099   -0.0993 C   0  0  0  0  0  0  0  0  0  0  0  0
   -1.2706   -0.5573   -0.1165 C   0  0  0  0  0  0  0  0  0  0  0  0
   -1.8615   -1.0010   -1.3071 C   0  0  0  0  0  0  0  0  0  0  0  0
   -2.9950   -1.8176   -1.2722 C   0  0  0  0  0  0  0  0  0  0  0  0
   -3.5527   -2.2174   -0.0568 C   0  0  0  0  0  0  0  0  0  0  0  0
   -4.6566   -3.0163   -0.1685 O   0  0  0  0  0  0  0  0  0  0  0  0
   -5.2668   -3.4415    1.0435 C   0  0  0  0  0  0  0  0  0  0  0  0
   -2.9614   -1.7943    1.1317 C   0  0  0  0  0  0  0  0  0  0  0  0
   -1.8280   -0.9740    1.1012 C   0  0  0  0  0  0  0  0  0  0  0  0
   -2.4755    6.0963   -0.9028 H   0  0  0  0  0  0  0  0  0  0  0  0
   -1.3651    5.1788   -1.9440 H   0  0  0  0  0  0  0  0  0  0  0  0
   -0.8457    5.6619   -0.3342 H   0  0  0  0  0  0  0  0  0  0  0  0
   -3.1162    3.6630   -0.9114 H   0  0  0  0  0  0  0  0  0  0  0  0
   -2.5869    4.1837    0.6868 H   0  0  0  0  0  0  0  0  0  0  0  0
    2.6445   -0.0524   -2.0438 H   0  0  0  0  0  0  0  0  0  0  0  0
    1.0557   -1.4636   -0.8263 H   0  0  0  0  0  0  0  0  0  0  0  0
    3.5258   -2.1063   -0.9973 H   0  0  0  0  0  0  0  0  0  0  0  0
    5.9796   -2.3384   -1.1050 H   0  0  0  0  0  0  0  0  0  0  0  0
    7.4135   -1.2607    0.6063 H   0  0  0  0  0  0  0  0  0  0  0  0
    6.3875    0.0559    2.4421 H   0  0  0  0  0  0  0  0  0  0  0  0
    3.9255    0.3141    2.5598 H   0  0  0  0  0  0  0  0  0  0  0  0
    0.0253    0.8702    0.8427 H   0  0  0  0  0  0  0  0  0  0  0  0
   -1.4560   -0.7231   -2.2789 H   0  0  0  0  0  0  0  0  0  0  0  0
   -3.4478   -2.1473   -2.2047 H   0  0  0  0  0  0  0  0  0  0  0  0
   -5.6303   -2.5870    1.6239 H   0  0  0  0  0  0  0  0  0  0  0  0
   -6.1319   -4.0591    0.7834 H   0  0  0  0  0  0  0  0  0  0  0  0
   -4.5825   -4.0593    1.6343 H   0  0  0  0  0  0  0  0  0  0  0  0
   -3.3507   -2.0869    2.1012 H   0  0  0  0  0  0  0  0  0  0  0  0
   -1.3756   -0.6700    2.0452 H   0  0  0  0  0  0  0  0  0  0  0  0
  1  2  1  0
  2  3  1  0
  3  4  1  0
  4  5  2  0
  4  6  1  0
  6  7  2  0
  7  8  1  0
  8  9  1  0
  9 10  1  0
 10 11  2  0
 10 12  1  0
 12 13  2  0
 13 14  1  0
 14 15  2  0
 15 16  1  0
 16 17  2  0
  9 18  1  0
 18 19  1  0
 19 20  2  0
 20 21  1  0
 21 22  2  0
 22 23  1  0
 23 24  1  0
 22 25  1  0
 25 26  2  0
 18  6  1  0
 26 19  1  0
 17 12  1  0
  1 27  1  0
  1 28  1  0
  1 29  1  0
  2 30  1  0
  2 31  1  0
  8 32  1  0
  9 33  1  0
 13 34  1  0
 14 35  1  0
 15 36  1  0
 16 37  1  0
 17 38  1  0
 18 39  1  0
 20 40  1  0
 21 41  1  0
 24 42  1  0
 24 43  1  0
 24 44  1  0
 25 45  1  0
 26 46  1  0
M  END
$$$$
