
     RDKit          3D

 80 84  0  0  0  0  0  0  0  0999 V2000
    0.8490    1.4771   -3.9277 C   0  0  0  0  0  0  0  0  0  0  0  0
    0.2154    1.2130   -2.6833 O   0  0  0  0  0  0  0  0  0  0  0  0
    0.9499    0.6092   -1.6950 C   0  0  0  0  0  0  0  0  0  0  0  0
    2.2604    0.1479   -1.8686 C   0  0  0  0  0  0  0  0  0  0  0  0
    2.9631   -0.4752   -0.8247 C   0  0  0  0  0  0  0  0  0  0  0  0
    4.2512   -0.9225   -0.9643 O   0  0  0  0  0  0  0  0  0  0  0  0
    4.8106   -1.0078   -2.2664 C   0  0  0  0  0  0  0  0  0  0  0  0
    2.3543   -0.6411    0.4354 C   0  0  0  0  0  0  0  0  0  0  0  0
    3.0131   -1.2725    1.6078 C   0  0  0  0  0  0  0  0  0  0  0  0
    4.3815   -1.8272    1.6771 C   0  0  0  0  0  0  0  0  0  0  0  0
    4.6127   -3.1772    1.3811 C   0  0  0  0  0  0  0  0  0  0  0  0
    5.9024   -3.7046    1.4668 C   0  0  0  0  0  0  0  0  0  0  0  0
    6.9661   -2.8888    1.8510 C   0  0  0  0  0  0  0  0  0  0  0  0
    6.7435   -1.5449    2.1497 C   0  0  0  0  0  0  0  0  0  0  0  0
    5.4551   -1.0143    2.0650 C   0  0  0  0  0  0  0  0  0  0  0  0
    2.3314   -1.3724    2.7607 C   0  0  0  0  0  0  0  0  0  0  0  0
    0.9587   -0.8980    2.9313 C   0  0  0  0  0  0  0  0  0  0  0  0
    0.3772   -1.0133    4.0037 O   0  0  0  0  0  0  0  0  0  0  0  0
    0.3691   -0.3327    1.8218 O   0  0  0  0  0  0  0  0  0  0  0  0
    1.0369   -0.1780    0.5837 C   0  0  0  0  0  0  0  0  0  0  0  0
    0.3104    0.4509   -0.4522 C   0  0  0  0  0  0  0  0  0  0  0  0
   -1.1233    0.9606   -0.2420 C   0  0  0  0  0  0  0  0  0  0  0  0
   -2.1454   -0.1856   -0.0135 C   0  0  0  0  0  0  0  0  0  0  0  0
   -2.2716   -1.1065   -1.2406 C   0  0  0  0  0  0  0  0  0  0  0  0
   -3.1966   -2.2329   -1.0208 N   0  0  0  0  0  0  0  0  0  0  0  0
   -4.6095   -1.8419   -0.9075 C   0  0  0  0  0  0  0  0  0  0  0  0
   -5.2413   -1.3958   -2.2280 C   0  0  0  0  0  0  0  0  0  0  0  0
   -5.0647   -2.4554   -3.3118 C   0  0  0  0  0  0  0  0  0  0  0  0
   -3.5970   -2.8822   -3.4298 C   0  0  0  0  0  0  0  0  0  0  0  0
   -3.4498   -4.0366   -4.4201 C   0  0  0  0  0  0  0  0  0  0  0  0
   -3.0389   -3.2755   -2.0497 C   0  0  0  0  0  0  0  0  0  0  0  0
   -1.1814    2.0951    0.7844 C   0  0  0  0  0  0  0  0  0  0  0  0
   -1.6999    1.9423    2.0712 C   0  0  0  0  0  0  0  0  0  0  0  0
   -1.7122    3.0150    2.9777 C   0  0  0  0  0  0  0  0  0  0  0  0
   -1.2033    4.2842    2.6557 C   0  0  0  0  0  0  0  0  0  0  0  0
   -1.2301    5.3541    3.5617 N   0  0  0  0  0  0  0  0  0  0  0  0
   -1.5035    5.0730    4.9703 C   0  0  0  0  0  0  0  0  0  0  0  0
   -0.3670    6.5060    3.3076 C   0  0  0  0  0  0  0  0  0  0  0  0
   -0.7045    4.4223    1.3500 C   0  0  0  0  0  0  0  0  0  0  0  0
   -0.6845    3.3567    0.4367 C   0  0  0  0  0  0  0  0  0  0  0  0
    1.7159    2.1333   -3.7995 H   0  0  0  0  0  0  0  0  0  0  0  0
    0.1287    1.9998   -4.5640 H   0  0  0  0  0  0  0  0  0  0  0  0
    1.1247    0.5464   -4.4338 H   0  0  0  0  0  0  0  0  0  0  0  0
    2.7465    0.2813   -2.8260 H   0  0  0  0  0  0  0  0  0  0  0  0
    4.1813   -1.6063   -2.9333 H   0  0  0  0  0  0  0  0  0  0  0  0
    4.9920   -0.0106   -2.6793 H   0  0  0  0  0  0  0  0  0  0  0  0
    5.7779   -1.5122   -2.1813 H   0  0  0  0  0  0  0  0  0  0  0  0
    3.7908   -3.8204    1.0764 H   0  0  0  0  0  0  0  0  0  0  0  0
    6.0768   -4.7510    1.2321 H   0  0  0  0  0  0  0  0  0  0  0  0
    7.9700   -3.3001    1.9164 H   0  0  0  0  0  0  0  0  0  0  0  0
    7.5733   -0.9087    2.4464 H   0  0  0  0  0  0  0  0  0  0  0  0
    5.2928    0.0361    2.2947 H   0  0  0  0  0  0  0  0  0  0  0  0
    2.7597   -1.8203    3.6520 H   0  0  0  0  0  0  0  0  0  0  0  0
   -1.4736    1.4398   -1.1666 H   0  0  0  0  0  0  0  0  0  0  0  0
   -1.8847   -0.7894    0.8630 H   0  0  0  0  0  0  0  0  0  0  0  0
   -3.1203    0.2694    0.1977 H   0  0  0  0  0  0  0  0  0  0  0  0
   -2.5536   -0.5151   -2.1190 H   0  0  0  0  0  0  0  0  0  0  0  0
   -1.2782   -1.5213   -1.4480 H   0  0  0  0  0  0  0  0  0  0  0  0
   -4.7497   -1.0650   -0.1495 H   0  0  0  0  0  0  0  0  0  0  0  0
   -5.1704   -2.7060   -0.5263 H   0  0  0  0  0  0  0  0  0  0  0  0
   -6.3102   -1.2062   -2.0761 H   0  0  0  0  0  0  0  0  0  0  0  0
   -4.8000   -0.4490   -2.5600 H   0  0  0  0  0  0  0  0  0  0  0  0
   -5.6876   -3.3252   -3.0670 H   0  0  0  0  0  0  0  0  0  0  0  0
   -5.4259   -2.0661   -4.2707 H   0  0  0  0  0  0  0  0  0  0  0  0
   -3.0187   -2.0362   -3.8228 H   0  0  0  0  0  0  0  0  0  0  0  0
   -2.3974   -4.3153   -4.5362 H   0  0  0  0  0  0  0  0  0  0  0  0
   -3.9999   -4.9225   -4.0857 H   0  0  0  0  0  0  0  0  0  0  0  0
   -3.8319   -3.7527   -5.4061 H   0  0  0  0  0  0  0  0  0  0  0  0
   -1.9819   -3.5587   -2.1374 H   0  0  0  0  0  0  0  0  0  0  0  0
   -3.5488   -4.1821   -1.6960 H   0  0  0  0  0  0  0  0  0  0  0  0
   -2.0925    0.9860    2.4091 H   0  0  0  0  0  0  0  0  0  0  0  0
   -2.1338    2.8122    3.9575 H   0  0  0  0  0  0  0  0  0  0  0  0
   -2.5005    4.6391    5.1027 H   0  0  0  0  0  0  0  0  0  0  0  0
   -1.4978    5.9932    5.5654 H   0  0  0  0  0  0  0  0  0  0  0  0
   -0.7480    4.4014    5.3931 H   0  0  0  0  0  0  0  0  0  0  0  0
   -0.4572    7.2530    4.1043 H   0  0  0  0  0  0  0  0  0  0  0  0
   -0.6519    7.0198    2.3834 H   0  0  0  0  0  0  0  0  0  0  0  0
    0.6857    6.2068    3.2547 H   0  0  0  0  0  0  0  0  0  0  0  0
   -0.3144    5.3718    0.9984 H   0  0  0  0  0  0  0  0  0  0  0  0
   -0.2744    3.5268   -0.5569 H   0  0  0  0  0  0  0  0  0  0  0  0
  1  2  1  0
  2  3  1  0
  3  4  2  0
  4  5  1  0
  5  6  1  0
  6  7  1  0
  5  8  2  0
  8  9  1  0
  9 10  1  0
 10 11  2  0
 11 12  1  0
 12 13  2  0
 13 14  1  0
 14 15  2  0
  9 16  2  0
 16 17  1  0
 17 18  2  0
 17 19  1  0
 19 20  1  0
 20 21  2  0
 21 22  1  0
 22 23  1  0
 23 24  1  0
 24 25  1  0
 25 26  1  0
 26 27  1  0
 27 28  1  0
 28 29  1  0
 29 30  1  0
 29 31  1  0
 22 32  1  0
 32 33  2  0
 33 34  1  0
 34 35  2  0
 35 36  1  0
 36 37  1  0
 36 38  1  0
 35 39  1  0
 39 40  2  0
 21  3  1  0
 31 25  1  0
 40 32  1  0
 20  8  1  0
 15 10  1  0
  1 41  1  0
  1 42  1  0
  1 43  1  0
  4 44  1  0
  7 45  1  0
  7 46  1  0
  7 47  1  0
 11 48  1  0
 12 49  1  0
 13 50  1  0
 14 51  1  0
 15 52  1  0
 16 53  1  0
 22 54  1  0
 23 55  1  0
 23 56  1  0
 24 57  1  0
 24 58  1  0
 26 59  1  0
 26 60  1  0
 27 61  1  0
 27 62  1  0
 28 63  1  0
 28 64  1  0
 29 65  1  0
 30 66  1  0
 30 67  1  0
 30 68  1  0
 31 69  1  0
 31 70  1  0
 33 71  1  0
 34 72  1  0
 37 73  1  0
 37 74  1  0
 37 75  1  0
 38 76  1  0
 38 77  1  0
 38 78  1  0
 39 79  1  0
 40 80  1  0
M  END
$$$$
