
     RDKit          3D

 64 67  0  0  0  0  0  0  0  0999 V2000
   10.7044   -0.5268    0.2369 C   0  0  0  0  0  0  0  0  0  0  0  0
    9.8002   -0.4782    1.4592 C   0  0  0  0  0  0  0  0  0  0  0  0
    8.3420   -0.5187    1.0794 C   0  0  0  0  0  0  0  0  0  0  0  0
    7.6678   -1.7397    0.9708 C   0  0  0  0  0  0  0  0  0  0  0  0
    6.3173   -1.7784    0.6032 C   0  0  0  0  0  0  0  0  0  0  0  0
    5.6133   -0.5974    0.3282 C   0  0  0  0  0  0  0  0  0  0  0  0
    4.1966   -0.6259   -0.0609 C   0  0  0  0  0  0  0  0  0  0  0  0
    3.3220   -1.7493   -0.1168 C   0  0  0  0  0  0  0  0  0  0  0  0
    2.1124   -1.2518   -0.5373 C   0  0  0  0  0  0  0  0  0  0  0  0
    0.8341   -1.8392   -0.7943 C   0  0  0  0  0  0  0  0  0  0  0  0
    0.6193   -3.0427   -0.6766 O   0  0  0  0  0  0  0  0  0  0  0  0
   -0.1433   -0.9162   -1.2135 N   0  0  0  0  0  0  0  0  0  0  0  0
   -1.5073   -1.3872   -1.3958 C   0  0  0  0  0  0  0  0  0  0  0  0
   -2.2515   -1.4330   -0.0591 C   0  0  0  0  0  0  0  0  0  0  0  0
   -1.7391   -1.1800    1.0285 O   0  0  0  0  0  0  0  0  0  0  0  0
   -3.5775   -1.8051   -0.1895 N   0  0  0  0  0  0  0  0  0  0  0  0
   -4.4724   -1.7917    0.9519 C   0  0  0  0  0  0  0  0  0  0  0  0
   -5.0284   -0.3936    1.2834 C   0  0  0  0  0  0  0  0  0  0  0  0
   -5.7724    0.1804    0.1356 N   0  0  0  0  0  0  0  0  0  0  0  0
   -4.9594    1.1600   -0.6089 C   0  0  0  0  0  0  0  0  0  0  0  0
   -5.2306    2.6066   -0.2053 C   0  0  0  0  0  0  0  0  0  0  0  0
   -6.6880    2.9881   -0.4566 C   0  0  0  0  0  0  0  0  0  0  0  0
   -7.6202    1.7778   -0.4154 C   0  0  0  0  0  0  0  0  0  0  0  0
   -7.0965    0.6990    0.5467 C   0  0  0  0  0  0  0  0  0  0  0  0
   -8.0979   -0.4597    0.6058 C   0  0  0  0  0  0  0  0  0  0  0  0
    0.0744    0.4561   -1.3890 N   0  0  0  0  0  0  0  0  0  0  0  0
    1.2647    0.9175   -1.1319 C   0  0  0  0  0  0  0  0  0  0  0  0
    1.6259    2.3608   -1.2758 C   0  0  0  0  0  0  0  0  0  0  0  0
    2.2892    0.0816   -0.7032 N   0  0  0  0  0  0  0  0  0  0  0  0
    3.5439    0.4936   -0.4307 N   0  0  0  0  0  0  0  0  0  0  0  0
    6.2985    0.6225    0.4318 C   0  0  0  0  0  0  0  0  0  0  0  0
    7.6468    0.6627    0.8023 C   0  0  0  0  0  0  0  0  0  0  0  0
   11.7551   -0.4963    0.5427 H   0  0  0  0  0  0  0  0  0  0  0  0
   10.5458   -1.4443   -0.3404 H   0  0  0  0  0  0  0  0  0  0  0  0
   10.5192    0.3243   -0.4274 H   0  0  0  0  0  0  0  0  0  0  0  0
   10.0045    0.4324    2.0360 H   0  0  0  0  0  0  0  0  0  0  0  0
   10.0333   -1.3173    2.1267 H   0  0  0  0  0  0  0  0  0  0  0  0
    8.1893   -2.6733    1.1714 H   0  0  0  0  0  0  0  0  0  0  0  0
    5.8354   -2.7502    0.5348 H   0  0  0  0  0  0  0  0  0  0  0  0
    3.5330   -2.7826    0.1200 H   0  0  0  0  0  0  0  0  0  0  0  0
   -1.4987   -2.3946   -1.8264 H   0  0  0  0  0  0  0  0  0  0  0  0
   -2.0281   -0.7100   -2.0823 H   0  0  0  0  0  0  0  0  0  0  0  0
   -4.0212   -1.7175   -1.0948 H   0  0  0  0  0  0  0  0  0  0  0  0
   -3.9423   -2.1898    1.8248 H   0  0  0  0  0  0  0  0  0  0  0  0
   -5.2949   -2.4776    0.7198 H   0  0  0  0  0  0  0  0  0  0  0  0
   -5.6804   -0.5187    2.1569 H   0  0  0  0  0  0  0  0  0  0  0  0
   -4.2230    0.2768    1.6111 H   0  0  0  0  0  0  0  0  0  0  0  0
   -5.1894    1.0401   -1.6756 H   0  0  0  0  0  0  0  0  0  0  0  0
   -3.8865    0.9531   -0.5226 H   0  0  0  0  0  0  0  0  0  0  0  0
   -4.5703    3.2864   -0.7588 H   0  0  0  0  0  0  0  0  0  0  0  0
   -4.9936    2.7419    0.8586 H   0  0  0  0  0  0  0  0  0  0  0  0
   -6.9960    3.7274    0.2930 H   0  0  0  0  0  0  0  0  0  0  0  0
   -6.7867    3.4779   -1.4329 H   0  0  0  0  0  0  0  0  0  0  0  0
   -7.7178    1.3591   -1.4262 H   0  0  0  0  0  0  0  0  0  0  0  0
   -8.6257    2.1050   -0.1226 H   0  0  0  0  0  0  0  0  0  0  0  0
   -7.0324    1.1587    1.5436 H   0  0  0  0  0  0  0  0  0  0  0  0
   -7.7864   -1.2292    1.3190 H   0  0  0  0  0  0  0  0  0  0  0  0
   -8.2127   -0.9348   -0.3756 H   0  0  0  0  0  0  0  0  0  0  0  0
   -9.0837   -0.1007    0.9221 H   0  0  0  0  0  0  0  0  0  0  0  0
    1.9347    2.7711   -0.3095 H   0  0  0  0  0  0  0  0  0  0  0  0
    2.4388    2.4782   -1.9990 H   0  0  0  0  0  0  0  0  0  0  0  0
    0.7600    2.9276   -1.6331 H   0  0  0  0  0  0  0  0  0  0  0  0
    5.7845    1.5593    0.2248 H   0  0  0  0  0  0  0  0  0  0  0  0
    8.1479    1.6254    0.8716 H   0  0  0  0  0  0  0  0  0  0  0  0
  1  2  1  0
  2  3  1  0
  3  4  2  0
  4  5  1  0
  5  6  2  0
  6  7  1  0
  7  8  1  0
  8  9  2  0
  9 10  1  0
 10 11  2  0
 10 12  1  0
 12 13  1  0
 13 14  1  0
 14 15  2  0
 14 16  1  0
 16 17  1  0
 17 18  1  0
 18 19  1  0
 19 20  1  0
 20 21  1  0
 21 22  1  0
 22 23  1  0
 23 24  1  0
 24 25  1  0
 12 26  1  0
 26 27  2  0
 27 28  1  0
 27 29  1  0
 29 30  1  0
  6 31  1  0
 31 32  2  0
 32  3  1  0
 30  7  2  0
 29  9  1  0
 24 19  1  0
  1 33  1  0
  1 34  1  0
  1 35  1  0
  2 36  1  0
  2 37  1  0
  4 38  1  0
  5 39  1  0
  8 40  1  0
 13 41  1  0
 13 42  1  0
 16 43  1  0
 17 44  1  0
 17 45  1  0
 18 46  1  0
 18 47  1  0
 20 48  1  0
 20 49  1  0
 21 50  1  0
 21 51  1  0
 22 52  1  0
 22 53  1  0
 23 54  1  0
 23 55  1  0
 24 56  1  0
 25 57  1  0
 25 58  1  0
 25 59  1  0
 28 60  1  0
 28 61  1  0
 28 62  1  0
 31 63  1  0
 32 64  1  0
M  END
$$$$
