
     RDKit          3D

 49 52  0  0  0  0  0  0  0  0999 V2000
    7.7881    0.8488   -0.7990 C   0  0  0  0  0  0  0  0  0  0  0  0
    7.1711   -0.5117   -0.5131 C   0  0  0  0  0  0  0  0  0  0  0  0
    5.6660   -0.4493   -0.4838 C   0  0  0  0  0  0  0  0  0  0  0  0
    4.9852   -0.1732    0.7064 C   0  0  0  0  0  0  0  0  0  0  0  0
    3.5851   -0.0985    0.7323 C   0  0  0  0  0  0  0  0  0  0  0  0
    2.8258   -0.2931   -0.4306 C   0  0  0  0  0  0  0  0  0  0  0  0
    1.3459   -0.2275   -0.4703 C   0  0  0  0  0  0  0  0  0  0  0  0
    0.6121    0.0578    0.8311 C   0  0  0  0  0  0  0  0  0  0  0  0
   -0.8432    0.1132    0.9099 N   0  0  0  0  0  0  0  0  0  0  0  0
   -1.4625    1.2732    0.2773 C   0  0  0  0  0  0  0  0  0  0  0  0
   -2.9621    1.2759    0.3791 C   0  0  0  0  0  0  0  0  0  0  0  0
   -3.6806    0.2245    0.8151 C   0  0  0  0  0  0  0  0  0  0  0  0
   -5.1492    0.2984    0.9035 C   0  0  0  0  0  0  0  0  0  0  0  0
   -5.9577   -0.6292    0.2342 C   0  0  0  0  0  0  0  0  0  0  0  0
   -7.3503   -0.5561    0.3261 C   0  0  0  0  0  0  0  0  0  0  0  0
   -7.9485    0.4444    1.0893 C   0  0  0  0  0  0  0  0  0  0  0  0
   -7.1560    1.3731    1.7602 C   0  0  0  0  0  0  0  0  0  0  0  0
   -5.7640    1.3007    1.6673 C   0  0  0  0  0  0  0  0  0  0  0  0
   -2.9981   -1.0652    1.1999 C   0  0  0  0  0  0  0  0  0  0  0  0
   -1.5487   -1.1441    0.6847 C   0  0  0  0  0  0  0  0  0  0  0  0
    0.7653   -0.4278   -1.6643 C   0  0  0  0  0  0  0  0  0  0  0  0
    1.4931   -0.7071   -2.9104 C   0  0  0  0  0  0  0  0  0  0  0  0
    0.8867   -0.8788   -3.9618 O   0  0  0  0  0  0  0  0  0  0  0  0
    2.8689   -0.7650   -2.8330 O   0  0  0  0  0  0  0  0  0  0  0  0
    3.5279   -0.5597   -1.6080 C   0  0  0  0  0  0  0  0  0  0  0  0
    4.9229   -0.6377   -1.6508 C   0  0  0  0  0  0  0  0  0  0  0  0
    8.8799    0.7735   -0.8142 H   0  0  0  0  0  0  0  0  0  0  0  0
    7.4611    1.2374   -1.7695 H   0  0  0  0  0  0  0  0  0  0  0  0
    7.5090    1.5805   -0.0332 H   0  0  0  0  0  0  0  0  0  0  0  0
    7.5431   -0.8933    0.4455 H   0  0  0  0  0  0  0  0  0  0  0  0
    7.4957   -1.2330   -1.2730 H   0  0  0  0  0  0  0  0  0  0  0  0
    5.5406   -0.0122    1.6288 H   0  0  0  0  0  0  0  0  0  0  0  0
    3.1167    0.1177    1.6889 H   0  0  0  0  0  0  0  0  0  0  0  0
    0.9866    1.0142    1.2220 H   0  0  0  0  0  0  0  0  0  0  0  0
    0.9315   -0.6961    1.5640 H   0  0  0  0  0  0  0  0  0  0  0  0
   -1.0953    2.1821    0.7692 H   0  0  0  0  0  0  0  0  0  0  0  0
   -1.2027    1.3555   -0.7824 H   0  0  0  0  0  0  0  0  0  0  0  0
   -3.4576    2.1927    0.0694 H   0  0  0  0  0  0  0  0  0  0  0  0
   -5.5127   -1.4086   -0.3790 H   0  0  0  0  0  0  0  0  0  0  0  0
   -7.9667   -1.2790   -0.2018 H   0  0  0  0  0  0  0  0  0  0  0  0
   -9.0315    0.5006    1.1605 H   0  0  0  0  0  0  0  0  0  0  0  0
   -7.6194    2.1533    2.3582 H   0  0  0  0  0  0  0  0  0  0  0  0
   -5.1596    2.0272    2.2058 H   0  0  0  0  0  0  0  0  0  0  0  0
   -3.5405   -1.9362    0.8158 H   0  0  0  0  0  0  0  0  0  0  0  0
   -2.9991   -1.1424    2.2950 H   0  0  0  0  0  0  0  0  0  0  0  0
   -1.0494   -1.9658    1.2128 H   0  0  0  0  0  0  0  0  0  0  0  0
   -1.5663   -1.4137   -0.3765 H   0  0  0  0  0  0  0  0  0  0  0  0
   -0.3059   -0.3967   -1.8068 H   0  0  0  0  0  0  0  0  0  0  0  0
    5.4194   -0.8441   -2.5959 H   0  0  0  0  0  0  0  0  0  0  0  0
  1  2  1  0
  2  3  1  0
  3  4  2  0
  4  5  1  0
  5  6  2  0
  6  7  1  0
  7  8  1  0
  8  9  1  0
  9 10  1  0
 10 11  1  0
 11 12  2  0
 12 13  1  0
 13 14  2  0
 14 15  1  0
 15 16  2  0
 16 17  1  0
 17 18  2  0
 12 19  1  0
 19 20  1  0
  7 21  2  0
 21 22  1  0
 22 23  2  0
 22 24  1  0
 24 25  1  0
 25 26  2  0
 26  3  1  0
 25  6  1  0
 20  9  1  0
 18 13  1  0
  1 27  1  0
  1 28  1  0
  1 29  1  0
  2 30  1  0
  2 31  1  0
  4 32  1  0
  5 33  1  0
  8 34  1  0
  8 35  1  0
 10 36  1  0
 10 37  1  0
 11 38  1  0
 14 39  1  0
 15 40  1  0
 16 41  1  0
 17 42  1  0
 18 43  1  0
 19 44  1  0
 19 45  1  0
 20 46  1  0
 20 47  1  0
 21 48  1  0
 26 49  1  0
M  END
$$$$
