
     RDKit          3D

 42 44  0  0  0  0  0  0  0  0999 V2000
   -4.8688   -1.8860    1.3842 C   0  0  0  0  0  0  0  0  0  0  0  0
   -5.3322   -1.4377    0.0249 C   0  0  0  0  0  0  0  0  0  0  0  0
   -6.6363   -1.7346   -0.3991 C   0  0  0  0  0  0  0  0  0  0  0  0
   -7.0823   -1.3262   -1.6545 C   0  0  0  0  0  0  0  0  0  0  0  0
   -6.2297   -0.6179   -2.4959 C   0  0  0  0  0  0  0  0  0  0  0  0
   -4.9286   -0.3159   -2.0853 C   0  0  0  0  0  0  0  0  0  0  0  0
   -4.4713   -0.7219   -0.8274 C   0  0  0  0  0  0  0  0  0  0  0  0
   -3.2183   -0.4783   -0.3306 O   0  0  0  0  0  0  0  0  0  0  0  0
   -2.3090    0.2339   -1.1534 C   0  0  0  0  0  0  0  0  0  0  0  0
   -0.9609    0.4188   -0.4508 C   0  0  0  0  0  0  0  0  0  0  0  0
   -0.7225    0.0638    0.7005 O   0  0  0  0  0  0  0  0  0  0  0  0
   -0.0066    1.0335   -1.2442 N   0  0  0  0  0  0  0  0  0  0  0  0
    1.3327    1.2911   -0.7449 C   0  0  0  0  0  0  0  0  0  0  0  0
    2.1899    0.0265   -0.6897 C   0  0  0  0  0  0  0  0  0  0  0  0
    3.5045    0.3071   -0.0530 C   0  0  0  0  0  0  0  0  0  0  0  0
    4.5697    0.8156   -0.6367 N   0  0  0  0  0  0  0  0  0  0  0  0
    5.5240    0.8988    0.3487 C   0  0  0  0  0  0  0  0  0  0  0  0
    6.8448    1.3647    0.2824 C   0  0  0  0  0  0  0  0  0  0  0  0
    7.6227    1.3472    1.4474 C   0  0  0  0  0  0  0  0  0  0  0  0
    7.0957    0.8759    2.6527 C   0  0  0  0  0  0  0  0  0  0  0  0
    5.7793    0.4068    2.7380 C   0  0  0  0  0  0  0  0  0  0  0  0
    5.0275    0.4352    1.5617 C   0  0  0  0  0  0  0  0  0  0  0  0
    3.7385    0.0643    1.2790 N   0  0  0  0  0  0  0  0  0  0  0  0
   -5.6559   -2.4288    1.9182 H   0  0  0  0  0  0  0  0  0  0  0  0
   -4.0091   -2.5572    1.2894 H   0  0  0  0  0  0  0  0  0  0  0  0
   -4.5903   -1.0206    1.9943 H   0  0  0  0  0  0  0  0  0  0  0  0
   -7.3123   -2.2869    0.2496 H   0  0  0  0  0  0  0  0  0  0  0  0
   -8.0942   -1.5605   -1.9743 H   0  0  0  0  0  0  0  0  0  0  0  0
   -6.5781   -0.2987   -3.4749 H   0  0  0  0  0  0  0  0  0  0  0  0
   -4.3010    0.2385   -2.7739 H   0  0  0  0  0  0  0  0  0  0  0  0
   -2.6992    1.2349   -1.3731 H   0  0  0  0  0  0  0  0  0  0  0  0
   -2.1226   -0.3229   -2.0796 H   0  0  0  0  0  0  0  0  0  0  0  0
   -0.2120    1.2525   -2.2107 H   0  0  0  0  0  0  0  0  0  0  0  0
    1.2425    1.7398    0.2520 H   0  0  0  0  0  0  0  0  0  0  0  0
    1.7871    2.0390   -1.4045 H   0  0  0  0  0  0  0  0  0  0  0  0
    2.3499   -0.3545   -1.7057 H   0  0  0  0  0  0  0  0  0  0  0  0
    1.6747   -0.7712   -0.1417 H   0  0  0  0  0  0  0  0  0  0  0  0
    7.2461    1.7289   -0.6564 H   0  0  0  0  0  0  0  0  0  0  0  0
    8.6487    1.7054    1.4100 H   0  0  0  0  0  0  0  0  0  0  0  0
    7.7209    0.8730    3.5434 H   0  0  0  0  0  0  0  0  0  0  0  0
    5.3710    0.0411    3.6736 H   0  0  0  0  0  0  0  0  0  0  0  0
    3.0710   -0.3165    1.9353 H   0  0  0  0  0  0  0  0  0  0  0  0
  1  2  1  0
  2  3  2  0
  3  4  1  0
  4  5  2  0
  5  6  1  0
  6  7  2  0
  7  8  1  0
  8  9  1  0
  9 10  1  0
 10 11  2  0
 10 12  1  0
 12 13  1  0
 13 14  1  0
 14 15  1  0
 15 16  2  0
 16 17  1  0
 17 18  2  0
 18 19  1  0
 19 20  2  0
 20 21  1  0
 21 22  2  0
 22 23  1  0
  7  2  1  0
 23 15  1  0
 22 17  1  0
  1 24  1  0
  1 25  1  0
  1 26  1  0
  3 27  1  0
  4 28  1  0
  5 29  1  0
  6 30  1  0
  9 31  1  0
  9 32  1  0
 12 33  1  0
 13 34  1  0
 13 35  1  0
 14 36  1  0
 14 37  1  0
 18 38  1  0
 19 39  1  0
 20 40  1  0
 21 41  1  0
 23 42  1  0
M  END
$$$$
