
     RDKit          3D

 46 50  0  0  0  0  0  0  0  0999 V2000
    6.0138    3.2562   -0.0083 C   0  0  0  0  0  0  0  0  0  0  0  0
    5.4770    2.3056   -0.9193 O   0  0  0  0  0  0  0  0  0  0  0  0
    4.2497    1.7838   -0.6185 C   0  0  0  0  0  0  0  0  0  0  0  0
    3.4663    2.1115    0.4877 C   0  0  0  0  0  0  0  0  0  0  0  0
    2.2214    1.4976    0.6757 C   0  0  0  0  0  0  0  0  0  0  0  0
    1.7473    0.5481   -0.2376 C   0  0  0  0  0  0  0  0  0  0  0  0
    0.4482   -0.0832   -0.0431 C   0  0  0  0  0  0  0  0  0  0  0  0
   -0.7056    0.6541    0.1093 N   0  0  0  0  0  0  0  0  0  0  0  0
   -1.7846   -0.1926    0.1918 C   0  0  0  0  0  0  0  0  0  0  0  0
   -3.1795    0.2384    0.3470 C   0  0  0  0  0  0  0  0  0  0  0  0
   -4.1842   -0.7488    0.5009 C   0  0  0  0  0  0  0  0  0  0  0  0
   -5.5329   -0.4071    0.6544 C   0  0  0  0  0  0  0  0  0  0  0  0
   -5.8540    0.9300    0.6501 C   0  0  0  0  0  0  0  0  0  0  0  0
   -4.8924    1.8999    0.5008 C   0  0  0  0  0  0  0  0  0  0  0  0
   -3.5544    1.5917    0.3475 C   0  0  0  0  0  0  0  0  0  0  0  0
   -5.4153    3.1561    0.5228 O   0  0  0  0  0  0  0  0  0  0  0  0
   -6.8176    2.8627    0.7008 C   0  0  0  0  0  0  0  0  0  0  0  0
   -7.1018    1.4513    0.7849 O   0  0  0  0  0  0  0  0  0  0  0  0
   -1.3677   -1.4415    0.1083 N   0  0  0  0  0  0  0  0  0  0  0  0
    0.0046   -1.3961   -0.0232 C   0  0  0  0  0  0  0  0  0  0  0  0
    0.8003   -2.6081   -0.1415 C   0  0  0  0  0  0  0  0  0  0  0  0
    2.0680   -2.7266    0.4432 C   0  0  0  0  0  0  0  0  0  0  0  0
    2.8040   -3.9076    0.3103 C   0  0  0  0  0  0  0  0  0  0  0  0
    2.2754   -4.9849   -0.3986 C   0  0  0  0  0  0  0  0  0  0  0  0
    1.0086   -4.8860   -0.9698 C   0  0  0  0  0  0  0  0  0  0  0  0
    0.2739   -3.7052   -0.8377 C   0  0  0  0  0  0  0  0  0  0  0  0
    2.5361    0.2241   -1.3449 C   0  0  0  0  0  0  0  0  0  0  0  0
    3.7774    0.8387   -1.5313 C   0  0  0  0  0  0  0  0  0  0  0  0
    6.9933    3.5651   -0.3858 H   0  0  0  0  0  0  0  0  0  0  0  0
    6.1631    2.8136    0.9821 H   0  0  0  0  0  0  0  0  0  0  0  0
    5.3821    4.1489    0.0481 H   0  0  0  0  0  0  0  0  0  0  0  0
    3.7942    2.8355    1.2260 H   0  0  0  0  0  0  0  0  0  0  0  0
    1.6366    1.7560    1.5557 H   0  0  0  0  0  0  0  0  0  0  0  0
   -0.7477    1.6611    0.1170 H   0  0  0  0  0  0  0  0  0  0  0  0
   -3.9040   -1.8024    0.5012 H   0  0  0  0  0  0  0  0  0  0  0  0
   -6.2946   -1.1692    0.7719 H   0  0  0  0  0  0  0  0  0  0  0  0
   -2.8422    2.3982    0.2288 H   0  0  0  0  0  0  0  0  0  0  0  0
   -7.1620    3.3456    1.6225 H   0  0  0  0  0  0  0  0  0  0  0  0
   -7.3734    3.2829   -0.1454 H   0  0  0  0  0  0  0  0  0  0  0  0
    2.4933   -1.9084    1.0181 H   0  0  0  0  0  0  0  0  0  0  0  0
    3.7875   -3.9861    0.7661 H   0  0  0  0  0  0  0  0  0  0  0  0
    2.8471   -5.9036   -0.4989 H   0  0  0  0  0  0  0  0  0  0  0  0
    0.5879   -5.7266   -1.5149 H   0  0  0  0  0  0  0  0  0  0  0  0
   -0.7179   -3.6398   -1.2814 H   0  0  0  0  0  0  0  0  0  0  0  0
    2.1933   -0.5082   -2.0731 H   0  0  0  0  0  0  0  0  0  0  0  0
    4.3814    0.5753   -2.3964 H   0  0  0  0  0  0  0  0  0  0  0  0
  1  2  1  0
  2  3  1  0
  3  4  2  0
  4  5  1  0
  5  6  2  0
  6  7  1  0
  7  8  1  0
  8  9  1  0
  9 10  1  0
 10 11  2  0
 11 12  1  0
 12 13  2  0
 13 14  1  0
 14 15  2  0
 14 16  1  0
 16 17  1  0
 17 18  1  0
  9 19  2  0
 19 20  1  0
 20 21  1  0
 21 22  2  0
 22 23  1  0
 23 24  2  0
 24 25  1  0
 25 26  2  0
  6 27  1  0
 27 28  2  0
 28  3  1  0
 20  7  2  0
 26 21  1  0
 15 10  1  0
 18 13  1  0
  1 29  1  0
  1 30  1  0
  1 31  1  0
  4 32  1  0
  5 33  1  0
  8 34  1  0
 11 35  1  0
 12 36  1  0
 15 37  1  0
 17 38  1  0
 17 39  1  0
 22 40  1  0
 23 41  1  0
 24 42  1  0
 25 43  1  0
 26 44  1  0
 27 45  1  0
 28 46  1  0
M  END
$$$$
