
     RDKit          3D

 50 52  0  0  0  0  0  0  0  0999 V2000
   -5.0044   -2.5426   -2.1665 C   0  0  0  0  0  0  0  0  0  0  0  0
   -4.9417   -2.0148   -0.8462 O   0  0  0  0  0  0  0  0  0  0  0  0
   -4.0182   -1.0253   -0.6243 C   0  0  0  0  0  0  0  0  0  0  0  0
   -2.8930   -0.8053   -1.4183 C   0  0  0  0  0  0  0  0  0  0  0  0
   -1.9979    0.2174   -1.0817 C   0  0  0  0  0  0  0  0  0  0  0  0
   -0.8144    0.4326   -1.9403 C   0  0  0  0  0  0  0  0  0  0  0  0
   -1.0099    0.6578   -3.1321 O   0  0  0  0  0  0  0  0  0  0  0  0
    0.4526    0.3830   -1.3553 N   0  0  0  0  0  0  0  0  0  0  0  0
    0.7370   -0.4620   -0.1780 C   0  0  0  0  0  0  0  0  0  0  0  0
    2.0431   -0.0655    0.5396 C   0  0  0  0  0  0  0  0  0  0  0  0
    3.1479   -0.0144   -0.4379 N   0  0  0  0  0  0  0  0  0  0  0  0
    4.4370    0.0488    0.1196 C   0  0  0  0  0  0  0  0  0  0  0  0
    5.2570   -1.0699   -0.1270 C   0  0  0  0  0  0  0  0  0  0  0  0
    6.5542   -1.1463    0.3806 C   0  0  0  0  0  0  0  0  0  0  0  0
    7.5188   -2.5345    0.0610 Cl  0  0  0  0  0  0  0  0  0  0  0  0
    7.0713   -0.1080    1.1472 C   0  0  0  0  0  0  0  0  0  0  0  0
    6.2847    1.0158    1.3979 C   0  0  0  0  0  0  0  0  0  0  0  0
    4.9791    1.1007    0.8895 C   0  0  0  0  0  0  0  0  0  0  0  0
    4.1093    2.5508    1.2556 Cl  0  0  0  0  0  0  0  0  0  0  0  0
    2.8942    0.9437   -1.5357 C   0  0  0  0  0  0  0  0  0  0  0  0
    1.5934    0.5587   -2.2669 C   0  0  0  0  0  0  0  0  0  0  0  0
   -2.2304    1.0602    0.0120 C   0  0  0  0  0  0  0  0  0  0  0  0
   -3.3546    0.8531    0.8102 C   0  0  0  0  0  0  0  0  0  0  0  0
   -3.6618    1.6050    1.9150 O   0  0  0  0  0  0  0  0  0  0  0  0
   -3.1538    2.9342    1.9325 C   0  0  0  0  0  0  0  0  0  0  0  0
   -4.2226   -0.2129    0.5067 C   0  0  0  0  0  0  0  0  0  0  0  0
   -5.3516   -0.4015    1.2752 O   0  0  0  0  0  0  0  0  0  0  0  0
   -5.0626   -1.3102    2.3395 C   0  0  0  0  0  0  0  0  0  0  0  0
   -5.8994   -3.1666   -2.2336 H   0  0  0  0  0  0  0  0  0  0  0  0
   -5.0968   -1.7478   -2.9132 H   0  0  0  0  0  0  0  0  0  0  0  0
   -4.1364   -3.1798   -2.3718 H   0  0  0  0  0  0  0  0  0  0  0  0
   -2.6789   -1.4139   -2.2914 H   0  0  0  0  0  0  0  0  0  0  0  0
   -0.0870   -0.4354    0.5376 H   0  0  0  0  0  0  0  0  0  0  0  0
    0.8103   -1.4939   -0.5454 H   0  0  0  0  0  0  0  0  0  0  0  0
    1.8939    0.9074    1.0206 H   0  0  0  0  0  0  0  0  0  0  0  0
    2.2552   -0.8049    1.3222 H   0  0  0  0  0  0  0  0  0  0  0  0
    4.8634   -1.8889   -0.7272 H   0  0  0  0  0  0  0  0  0  0  0  0
    8.0804   -0.1641    1.5474 H   0  0  0  0  0  0  0  0  0  0  0  0
    6.6964    1.8280    1.9941 H   0  0  0  0  0  0  0  0  0  0  0  0
    3.7211    0.9331   -2.2560 H   0  0  0  0  0  0  0  0  0  0  0  0
    2.7922    1.9643   -1.1499 H   0  0  0  0  0  0  0  0  0  0  0  0
    1.3554    1.3245   -3.0142 H   0  0  0  0  0  0  0  0  0  0  0  0
    1.7282   -0.3924   -2.7986 H   0  0  0  0  0  0  0  0  0  0  0  0
   -1.5235    1.8572    0.2178 H   0  0  0  0  0  0  0  0  0  0  0  0
   -2.0892    2.9373    2.1883 H   0  0  0  0  0  0  0  0  0  0  0  0
   -3.6868    3.4846    2.7143 H   0  0  0  0  0  0  0  0  0  0  0  0
   -3.3308    3.4498    0.9812 H   0  0  0  0  0  0  0  0  0  0  0  0
   -5.9854   -1.4597    2.9090 H   0  0  0  0  0  0  0  0  0  0  0  0
   -4.7390   -2.2888    1.9593 H   0  0  0  0  0  0  0  0  0  0  0  0
   -4.3059   -0.8985    3.0209 H   0  0  0  0  0  0  0  0  0  0  0  0
  1  2  1  0
  2  3  1  0
  3  4  2  0
  4  5  1  0
  5  6  1  0
  6  7  2  0
  6  8  1  0
  8  9  1  0
  9 10  1  0
 10 11  1  0
 11 12  1  0
 12 13  2  0
 13 14  1  0
 14 15  1  0
 14 16  2  0
 16 17  1  0
 17 18  2  0
 18 19  1  0
 11 20  1  0
 20 21  1  0
  5 22  2  0
 22 23  1  0
 23 24  1  0
 24 25  1  0
 23 26  2  0
 26 27  1  0
 27 28  1  0
 26  3  1  0
 21  8  1  0
 18 12  1  0
  1 29  1  0
  1 30  1  0
  1 31  1  0
  4 32  1  0
  9 33  1  0
  9 34  1  0
 10 35  1  0
 10 36  1  0
 13 37  1  0
 16 38  1  0
 17 39  1  0
 20 40  1  0
 20 41  1  0
 21 42  1  0
 21 43  1  0
 22 44  1  0
 25 45  1  0
 25 46  1  0
 25 47  1  0
 28 48  1  0
 28 49  1  0
 28 50  1  0
M  END
$$$$
