
     RDKit          3D

 55 57  0  0  0  0  0  0  0  0999 V2000
    8.5008   -0.8116    1.6276 C   0  0  0  0  0  0  0  0  0  0  0  0
    7.0165   -0.5408    1.5611 C   0  0  0  0  0  0  0  0  0  0  0  0
    6.6161   -0.6504    0.1874 O   0  0  0  0  0  0  0  0  0  0  0  0
    5.3021   -0.3793   -0.1110 C   0  0  0  0  0  0  0  0  0  0  0  0
    4.3145   -0.0420    0.8261 C   0  0  0  0  0  0  0  0  0  0  0  0
    2.9926    0.2280    0.4196 C   0  0  0  0  0  0  0  0  0  0  0  0
    2.6367    0.1552   -0.9291 C   0  0  0  0  0  0  0  0  0  0  0  0
    1.2520    0.4151   -1.4298 C   0  0  0  0  0  0  0  0  0  0  0  0
    1.0780    0.5146   -2.6448 O   0  0  0  0  0  0  0  0  0  0  0  0
    0.1101    0.5621   -0.4551 C   0  0  0  0  0  0  0  0  0  0  0  0
   -0.1000    1.9745   -0.0284 C   0  0  0  0  0  0  0  0  0  0  0  0
    0.7549    2.7324    0.4071 O   0  0  0  0  0  0  0  0  0  0  0  0
   -1.5736    2.3321   -0.1543 C   0  0  0  0  0  0  0  0  0  0  0  0
   -2.0205    3.4386    0.0668 O   0  0  0  0  0  0  0  0  0  0  0  0
   -2.2260    1.1841   -0.5796 N   0  0  0  0  0  0  0  0  0  0  0  0
   -3.5390    1.2788   -1.2210 C   0  0  0  0  0  0  0  0  0  0  0  0
   -4.6833    1.9560   -0.4299 C   0  0  0  0  0  0  0  0  0  0  0  0
   -5.2095    1.1603    0.7050 N   0  0  0  0  0  0  0  0  0  0  0  0
   -6.6226    1.5081    0.9376 C   0  0  0  0  0  0  0  0  0  0  0  0
   -4.4427    1.4084    1.9307 C   0  0  0  0  0  0  0  0  0  0  0  0
   -1.2451    0.2462   -1.1180 C   0  0  0  0  0  0  0  0  0  0  0  0
   -1.6202   -1.2085   -0.9196 C   0  0  0  0  0  0  0  0  0  0  0  0
   -2.1070   -1.6803    0.3088 C   0  0  0  0  0  0  0  0  0  0  0  0
   -2.4144   -3.0276    0.4779 C   0  0  0  0  0  0  0  0  0  0  0  0
   -2.2446   -3.9191   -0.5763 C   0  0  0  0  0  0  0  0  0  0  0  0
   -1.7622   -3.4651   -1.8015 C   0  0  0  0  0  0  0  0  0  0  0  0
   -1.4484   -2.1209   -1.9725 C   0  0  0  0  0  0  0  0  0  0  0  0
    3.6226   -0.1866   -1.8699 C   0  0  0  0  0  0  0  0  0  0  0  0
    4.9413   -0.4466   -1.4646 C   0  0  0  0  0  0  0  0  0  0  0  0
    6.1101   -0.8384   -2.6920 Cl  0  0  0  0  0  0  0  0  0  0  0  0
    9.0429   -0.0820    1.0280 H   0  0  0  0  0  0  0  0  0  0  0  0
    8.8645   -0.7678    2.6646 H   0  0  0  0  0  0  0  0  0  0  0  0
    8.7364   -1.7899    1.2117 H   0  0  0  0  0  0  0  0  0  0  0  0
    6.8180    0.4628    1.9397 H   0  0  0  0  0  0  0  0  0  0  0  0
    6.4930   -1.2811    2.1689 H   0  0  0  0  0  0  0  0  0  0  0  0
    4.5373    0.0283    1.8848 H   0  0  0  0  0  0  0  0  0  0  0  0
    2.2736    0.5104    1.1908 H   0  0  0  0  0  0  0  0  0  0  0  0
    0.2553   -0.0548    0.4394 H   0  0  0  0  0  0  0  0  0  0  0  0
   -3.3916    1.8402   -2.1574 H   0  0  0  0  0  0  0  0  0  0  0  0
   -3.8619    0.2694   -1.5004 H   0  0  0  0  0  0  0  0  0  0  0  0
   -4.4308    2.9807   -0.1344 H   0  0  0  0  0  0  0  0  0  0  0  0
   -5.4919    2.0652   -1.1727 H   0  0  0  0  0  0  0  0  0  0  0  0
   -6.7523    2.5709    1.1948 H   0  0  0  0  0  0  0  0  0  0  0  0
   -7.2207    1.2977    0.0391 H   0  0  0  0  0  0  0  0  0  0  0  0
   -7.0463    0.8949    1.7437 H   0  0  0  0  0  0  0  0  0  0  0  0
   -3.3957    1.1027    1.8262 H   0  0  0  0  0  0  0  0  0  0  0  0
   -4.4751    2.4656    2.2370 H   0  0  0  0  0  0  0  0  0  0  0  0
   -4.8550    0.7964    2.7522 H   0  0  0  0  0  0  0  0  0  0  0  0
   -1.2186    0.4583   -2.1964 H   0  0  0  0  0  0  0  0  0  0  0  0
   -2.2617   -0.9975    1.1427 H   0  0  0  0  0  0  0  0  0  0  0  0
   -2.7952   -3.3807    1.4313 H   0  0  0  0  0  0  0  0  0  0  0  0
   -2.4869   -4.9675   -0.4474 H   0  0  0  0  0  0  0  0  0  0  0  0
   -1.6312   -4.1667   -2.6278 H   0  0  0  0  0  0  0  0  0  0  0  0
   -1.0677   -1.7905   -2.9367 H   0  0  0  0  0  0  0  0  0  0  0  0
    3.3727   -0.2423   -2.9263 H   0  0  0  0  0  0  0  0  0  0  0  0
  1  2  1  0
  2  3  1  0
  3  4  1  0
  4  5  2  0
  5  6  1  0
  6  7  2  0
  7  8  1  0
  8  9  2  0
  8 10  1  0
 10 11  1  0
 11 12  2  0
 11 13  1  0
 13 14  2  0
 13 15  1  0
 15 16  1  0
 16 17  1  0
 17 18  1  0
 18 19  1  0
 18 20  1  0
 15 21  1  0
 21 22  1  0
 22 23  2  0
 23 24  1  0
 24 25  2  0
 25 26  1  0
 26 27  2  0
  7 28  1  0
 28 29  2  0
 29 30  1  0
 29  4  1  0
 21 10  1  0
 27 22  1  0
  1 31  1  0
  1 32  1  0
  1 33  1  0
  2 34  1  0
  2 35  1  0
  5 36  1  0
  6 37  1  0
 10 38  1  0
 16 39  1  0
 16 40  1  0
 17 41  1  0
 17 42  1  0
 19 43  1  0
 19 44  1  0
 19 45  1  0
 20 46  1  0
 20 47  1  0
 20 48  1  0
 21 49  1  0
 23 50  1  0
 24 51  1  0
 25 52  1  0
 26 53  1  0
 27 54  1  0
 28 55  1  0
M  END
$$$$
