
     RDKit          3D

 63 67  0  0  0  0  0  0  0  0999 V2000
   -3.1468    3.1909   -0.0462 O   0  0  0  0  0  0  0  0  0  0  0  0
   -2.7202    2.1754    0.4900 C   0  0  0  0  0  0  0  0  0  0  0  0
   -3.3133    0.9399    0.3728 N   0  0  0  0  0  0  0  0  0  0  0  0
   -4.4741    0.7208   -0.4801 C   0  0  0  0  0  0  0  0  0  0  0  0
   -3.9974    0.5137   -1.9272 C   0  0  0  0  0  0  0  0  0  0  0  0
   -5.1158   -0.0312   -2.8022 C   0  0  0  0  0  0  0  0  0  0  0  0
   -5.5472   -1.4053   -2.3007 C   0  0  0  0  0  0  0  0  0  0  0  0
   -5.8336   -1.4201   -0.8197 C   0  0  0  0  0  0  0  0  0  0  0  0
   -6.6077   -2.4664   -0.2929 C   0  0  0  0  0  0  0  0  0  0  0  0
   -6.9036   -2.5187    1.0679 C   0  0  0  0  0  0  0  0  0  0  0  0
   -6.4313   -1.5251    1.9186 C   0  0  0  0  0  0  0  0  0  0  0  0
   -5.6497   -0.4882    1.4098 C   0  0  0  0  0  0  0  0  0  0  0  0
   -5.3162   -0.4337    0.0432 C   0  0  0  0  0  0  0  0  0  0  0  0
   -1.5058    2.2439    1.3449 C   0  0  0  0  0  0  0  0  0  0  0  0
   -1.2535    3.4289    2.0509 C   0  0  0  0  0  0  0  0  0  0  0  0
   -0.1258    3.5405    2.8690 C   0  0  0  0  0  0  0  0  0  0  0  0
    0.7665    2.4746    2.9743 C   0  0  0  0  0  0  0  0  0  0  0  0
    0.5270    1.3067    2.2450 C   0  0  0  0  0  0  0  0  0  0  0  0
    1.6606   -0.0561    2.3388 S   0  0  0  0  0  6  0  0  0  0  0  0
    2.7405    0.3020    3.2334 O   0  0  0  0  0  0  0  0  0  0  0  0
    0.8640   -1.2457    2.5523 O   0  0  0  0  0  0  0  0  0  0  0  0
    2.2926   -0.1160    0.7555 N   0  0  0  0  0  0  0  0  0  0  0  0
    3.1332    1.0709    0.3645 C   0  0  0  0  0  0  0  0  0  0  0  0
    3.5601    0.9733   -1.1153 C   0  0  0  0  0  0  0  0  0  0  0  0
    4.2539   -0.2987   -1.4068 N   0  0  0  0  0  0  0  0  0  0  0  0
    5.6397   -0.4083   -1.2662 C   0  0  0  0  0  0  0  0  0  0  0  0
    6.3168   -1.5199   -1.8004 C   0  0  0  0  0  0  0  0  0  0  0  0
    7.7045   -1.6716   -1.6925 C   0  0  0  0  0  0  0  0  0  0  0  0
    8.4610   -0.6993   -1.0522 C   0  0  0  0  0  0  0  0  0  0  0  0
    7.8276    0.4243   -0.5358 C   0  0  0  0  0  0  0  0  0  0  0  0
    6.4378    0.5684   -0.6512 C   0  0  0  0  0  0  0  0  0  0  0  0
    3.4443   -1.4756   -1.0049 C   0  0  0  0  0  0  0  0  0  0  0  0
    3.0484   -1.3911    0.4828 C   0  0  0  0  0  0  0  0  0  0  0  0
   -0.6059    1.1782    1.4334 C   0  0  0  0  0  0  0  0  0  0  0  0
   -2.9468    0.1381    0.8674 H   0  0  0  0  0  0  0  0  0  0  0  0
   -5.1043    1.6200   -0.4516 H   0  0  0  0  0  0  0  0  0  0  0  0
   -3.1476   -0.1827   -1.9519 H   0  0  0  0  0  0  0  0  0  0  0  0
   -3.6297    1.4618   -2.3377 H   0  0  0  0  0  0  0  0  0  0  0  0
   -5.9668    0.6609   -2.7903 H   0  0  0  0  0  0  0  0  0  0  0  0
   -4.7778   -0.1086   -3.8413 H   0  0  0  0  0  0  0  0  0  0  0  0
   -4.7573   -2.1382   -2.5060 H   0  0  0  0  0  0  0  0  0  0  0  0
   -6.4402   -1.7156   -2.8568 H   0  0  0  0  0  0  0  0  0  0  0  0
   -6.9933   -3.2449   -0.9479 H   0  0  0  0  0  0  0  0  0  0  0  0
   -7.5106   -3.3295    1.4615 H   0  0  0  0  0  0  0  0  0  0  0  0
   -6.6737   -1.5537    2.9774 H   0  0  0  0  0  0  0  0  0  0  0  0
   -5.3023    0.2890    2.0886 H   0  0  0  0  0  0  0  0  0  0  0  0
   -1.9446    4.2671    1.9698 H   0  0  0  0  0  0  0  0  0  0  0  0
    0.0534    4.4592    3.4234 H   0  0  0  0  0  0  0  0  0  0  0  0
    1.6407    2.5649    3.6161 H   0  0  0  0  0  0  0  0  0  0  0  0
    2.5557    1.9917    0.4895 H   0  0  0  0  0  0  0  0  0  0  0  0
    4.0135    1.1220    1.0138 H   0  0  0  0  0  0  0  0  0  0  0  0
    4.1566    1.8435   -1.4124 H   0  0  0  0  0  0  0  0  0  0  0  0
    2.6577    1.0087   -1.7401 H   0  0  0  0  0  0  0  0  0  0  0  0
    5.7677   -2.2800   -2.3507 H   0  0  0  0  0  0  0  0  0  0  0  0
    8.1876   -2.5450   -2.1222 H   0  0  0  0  0  0  0  0  0  0  0  0
    9.5384   -0.8094   -0.9665 H   0  0  0  0  0  0  0  0  0  0  0  0
    8.4116    1.1970   -0.0423 H   0  0  0  0  0  0  0  0  0  0  0  0
    6.0041    1.4678   -0.2281 H   0  0  0  0  0  0  0  0  0  0  0  0
    2.5340   -1.4828   -1.6178 H   0  0  0  0  0  0  0  0  0  0  0  0
    3.9452   -2.4301   -1.1932 H   0  0  0  0  0  0  0  0  0  0  0  0
    2.4118   -2.2511    0.7151 H   0  0  0  0  0  0  0  0  0  0  0  0
    3.9411   -1.4323    1.1176 H   0  0  0  0  0  0  0  0  0  0  0  0
   -0.7550    0.2648    0.8637 H   0  0  0  0  0  0  0  0  0  0  0  0
  1  2  2  0
  2  3  1  0
  3  4  1  0
  4  5  1  0
  5  6  1  0
  6  7  1  0
  7  8  1  0
  8  9  2  0
  9 10  1  0
 10 11  2  0
 11 12  1  0
 12 13  2  0
  2 14  1  0
 14 15  2  0
 15 16  1  0
 16 17  2  0
 17 18  1  0
 18 19  1  0
 19 20  2  0
 19 21  2  0
 19 22  1  0
 22 23  1  0
 23 24  1  0
 24 25  1  0
 25 26  1  0
 26 27  2  0
 27 28  1  0
 28 29  2  0
 29 30  1  0
 30 31  2  0
 25 32  1  0
 32 33  1  0
 18 34  2  0
 13  4  1  0
 34 14  1  0
 13  8  1  0
 33 22  1  0
 31 26  1  0
  3 35  1  0
  4 36  1  0
  5 37  1  0
  5 38  1  0
  6 39  1  0
  6 40  1  0
  7 41  1  0
  7 42  1  0
  9 43  1  0
 10 44  1  0
 11 45  1  0
 12 46  1  0
 15 47  1  0
 16 48  1  0
 17 49  1  0
 23 50  1  0
 23 51  1  0
 24 52  1  0
 24 53  1  0
 27 54  1  0
 28 55  1  0
 29 56  1  0
 30 57  1  0
 31 58  1  0
 32 59  1  0
 32 60  1  0
 33 61  1  0
 33 62  1  0
 34 63  1  0
M  END
$$$$
