
     RDKit          3D

 47 50  0  0  0  0  0  0  0  0999 V2000
    6.9628    1.1675    0.1194 C   0  0  0  0  0  0  0  0  0  0  0  0
    6.5355    0.4472   -0.9263 C   0  0  0  0  0  0  0  0  0  0  0  0
    5.9531   -0.9360   -0.8257 C   0  0  0  0  0  0  0  0  0  0  0  0
    4.5174   -0.8604   -1.0522 N   0  0  0  0  0  0  0  0  0  0  0  0
    4.0701   -0.9371   -2.3544 C   0  0  0  0  0  0  0  0  0  0  0  0
    4.8093   -1.0226   -3.3338 O   0  0  0  0  0  0  0  0  0  0  0  0
    2.7229   -0.8984   -2.5470 N   0  0  0  0  0  0  0  0  0  0  0  0
    1.7700   -0.5660   -1.6308 C   0  0  0  0  0  0  0  0  0  0  0  0
    0.6329   -0.3017   -1.9989 O   0  0  0  0  0  0  0  0  0  0  0  0
    2.2434   -0.5378   -0.2304 C   0  0  0  0  0  0  0  0  0  0  0  0
    1.4355   -0.3531    0.8336 C   0  0  0  0  0  0  0  0  0  0  0  0
   -0.0175   -0.1710    0.8235 C   0  0  0  0  0  0  0  0  0  0  0  0
   -0.8702   -1.2733    0.7633 C   0  0  0  0  0  0  0  0  0  0  0  0
   -2.2643   -1.0978    0.7636 C   0  0  0  0  0  0  0  0  0  0  0  0
   -2.8272    0.1908    0.8590 C   0  0  0  0  0  0  0  0  0  0  0  0
   -1.9541    1.2952    0.9334 C   0  0  0  0  0  0  0  0  0  0  0  0
   -0.5614    1.1108    0.9023 C   0  0  0  0  0  0  0  0  0  0  0  0
   -2.5029    2.6973    1.0076 C   0  0  0  0  0  0  0  0  0  0  0  0
   -3.9199    2.7063    1.5627 C   0  0  0  0  0  0  0  0  0  0  0  0
   -4.7738    1.7063    0.7993 C   0  0  0  0  0  0  0  0  0  0  0  0
   -4.2046    0.3679    0.8844 N   0  0  0  0  0  0  0  0  0  0  0  0
   -5.1012   -0.7806    0.9079 C   0  0  0  0  0  0  0  0  0  0  0  0
   -4.5214   -1.9477    0.1246 C   0  0  0  0  0  0  0  0  0  0  0  0
   -3.1546   -2.3113    0.6860 C   0  0  0  0  0  0  0  0  0  0  0  0
    3.6950   -0.7188    0.0559 C   0  0  0  0  0  0  0  0  0  0  0  0
    4.1155   -0.7419    1.2127 O   0  0  0  0  0  0  0  0  0  0  0  0
    6.8912    0.7919    1.1369 H   0  0  0  0  0  0  0  0  0  0  0  0
    7.3853    2.1578   -0.0208 H   0  0  0  0  0  0  0  0  0  0  0  0
    6.6281    0.8622   -1.9284 H   0  0  0  0  0  0  0  0  0  0  0  0
    6.4243   -1.5809   -1.5763 H   0  0  0  0  0  0  0  0  0  0  0  0
    6.1629   -1.3817    0.1533 H   0  0  0  0  0  0  0  0  0  0  0  0
    2.4210   -0.8862   -3.5109 H   0  0  0  0  0  0  0  0  0  0  0  0
    1.8504   -0.3309    1.8414 H   0  0  0  0  0  0  0  0  0  0  0  0
   -0.4574   -2.2774    0.7045 H   0  0  0  0  0  0  0  0  0  0  0  0
    0.0945    1.9773    0.9450 H   0  0  0  0  0  0  0  0  0  0  0  0
   -2.4904    3.1305   -0.0000 H   0  0  0  0  0  0  0  0  0  0  0  0
   -1.8675    3.3202    1.6481 H   0  0  0  0  0  0  0  0  0  0  0  0
   -3.9043    2.4416    2.6280 H   0  0  0  0  0  0  0  0  0  0  0  0
   -4.3479    3.7117    1.4832 H   0  0  0  0  0  0  0  0  0  0  0  0
   -5.7865    1.7156    1.2196 H   0  0  0  0  0  0  0  0  0  0  0  0
   -4.8590    1.9989   -0.2544 H   0  0  0  0  0  0  0  0  0  0  0  0
   -6.0736   -0.5150    0.4764 H   0  0  0  0  0  0  0  0  0  0  0  0
   -5.2818   -1.0731    1.9496 H   0  0  0  0  0  0  0  0  0  0  0  0
   -4.4290   -1.6729   -0.9344 H   0  0  0  0  0  0  0  0  0  0  0  0
   -5.1922   -2.8123    0.1792 H   0  0  0  0  0  0  0  0  0  0  0  0
   -2.7003   -3.0753    0.0442 H   0  0  0  0  0  0  0  0  0  0  0  0
   -3.2582   -2.7359    1.6918 H   0  0  0  0  0  0  0  0  0  0  0  0
  1  2  2  0
  2  3  1  0
  3  4  1  0
  4  5  1  0
  5  6  2  0
  5  7  1  0
  7  8  1  0
  8  9  2  0
  8 10  1  0
 10 11  2  3
 11 12  1  0
 12 13  2  0
 13 14  1  0
 14 15  2  0
 15 16  1  0
 16 17  2  0
 16 18  1  0
 18 19  1  0
 19 20  1  0
 20 21  1  0
 21 22  1  0
 22 23  1  0
 23 24  1  0
 10 25  1  0
 25 26  2  0
 25  4  1  0
 17 12  1  0
 24 14  1  0
 21 15  1  0
  1 27  1  0
  1 28  1  0
  2 29  1  0
  3 30  1  0
  3 31  1  0
  7 32  1  0
 11 33  1  0
 13 34  1  0
 17 35  1  0
 18 36  1  0
 18 37  1  0
 19 38  1  0
 19 39  1  0
 20 40  1  0
 20 41  1  0
 22 42  1  0
 22 43  1  0
 23 44  1  0
 23 45  1  0
 24 46  1  0
 24 47  1  0
M  END
$$$$
