
     RDKit          3D

 23 24  0  0  0  0  0  0  0  0999 V2000
   -5.0409    0.2865    0.4573 C   0  0  0  0  0  0  0  0  0  0  0  0
   -4.2331    1.7632   -0.1961 S   0  0  0  0  0  0  0  0  0  0  0  0
   -2.5865    1.1895   -0.3630 C   0  0  0  0  0  0  0  0  0  0  0  0
   -2.2348   -0.0282   -0.0228 N   0  0  0  0  0  0  0  0  0  0  0  0
   -0.8835   -0.2078   -0.2598 C   0  0  0  0  0  0  0  0  0  0  0  0
   -0.1546   -1.3916   -0.0198 C   0  0  0  0  0  0  0  0  0  0  0  0
    1.2144   -1.4385   -0.3044 C   0  0  0  0  0  0  0  0  0  0  0  0
    1.8565   -0.3117   -0.8171 C   0  0  0  0  0  0  0  0  0  0  0  0
    3.5844   -0.3917   -1.2005 S   0  0  0  0  0  6  0  0  0  0  0  0
    4.2761    0.1817    0.2166 N   0  0  0  0  0  0  0  0  0  0  0  0
    3.8868    0.5861   -2.2188 O   0  0  0  0  0  0  0  0  0  0  0  0
    3.9834   -1.7750   -1.3081 O   0  0  0  0  0  0  0  0  0  0  0  0
    1.1588    0.8750   -1.0792 C   0  0  0  0  0  0  0  0  0  0  0  0
   -0.2146    0.9006   -0.7855 C   0  0  0  0  0  0  0  0  0  0  0  0
   -1.3409    2.1886   -0.9795 S   0  0  0  0  0  0  0  0  0  0  0  0
   -4.6038   -0.0018    1.4175 H   0  0  0  0  0  0  0  0  0  0  0  0
   -4.9565   -0.5455   -0.2475 H   0  0  0  0  0  0  0  0  0  0  0  0
   -6.1023    0.4982    0.6131 H   0  0  0  0  0  0  0  0  0  0  0  0
   -0.6658   -2.2614    0.3826 H   0  0  0  0  0  0  0  0  0  0  0  0
    1.7653   -2.3592   -0.1214 H   0  0  0  0  0  0  0  0  0  0  0  0
    4.8473   -0.5485    0.6437 H   0  0  0  0  0  0  0  0  0  0  0  0
    4.7886    1.0441    0.0285 H   0  0  0  0  0  0  0  0  0  0  0  0
    1.6560    1.7474   -1.4944 H   0  0  0  0  0  0  0  0  0  0  0  0
  1  2  1  0
  2  3  1  0
  3  4  2  0
  4  5  1  0
  5  6  2  0
  6  7  1  0
  7  8  2  0
  8  9  1  0
  9 10  1  0
  9 11  2  0
  9 12  2  0
  8 13  1  0
 13 14  2  0
 14 15  1  0
 15  3  1  0
 14  5  1  0
  1 16  1  0
  1 17  1  0
  1 18  1  0
  6 19  1  0
  7 20  1  0
 10 21  1  0
 10 22  1  0
 13 23  1  0
M  END
$$$$
