
     RDKit          3D

 30 31  0  0  0  0  0  0  0  0999 V2000
    0.1763    1.0731   -2.7505 C   0  0  0  0  0  0  0  0  0  0  0  0
    0.4599    0.6101   -1.4331 O   0  0  0  0  0  0  0  0  0  0  0  0
   -0.5915    0.4191   -0.5711 C   0  0  0  0  0  0  0  0  0  0  0  0
   -1.9307    0.6417   -0.9346 C   0  0  0  0  0  0  0  0  0  0  0  0
   -2.9775    0.4265   -0.0287 C   0  0  0  0  0  0  0  0  0  0  0  0
   -4.6512    0.7469   -0.5599 S   0  0  0  0  0  0  0  0  0  0  0  0
   -5.4548   -0.8040   -0.0715 C   0  0  0  0  0  0  0  0  0  0  0  0
   -2.6824    0.0081    1.2657 C   0  0  0  0  0  0  0  0  0  0  0  0
   -1.3570   -0.2189    1.6414 C   0  0  0  0  0  0  0  0  0  0  0  0
   -0.2960   -0.0227    0.7366 C   0  0  0  0  0  0  0  0  0  0  0  0
    1.0895   -0.3065    1.2659 C   0  0  0  0  0  0  0  0  0  0  0  0
    1.1901   -0.7274    2.4147 O   0  0  0  0  0  0  0  0  0  0  0  0
    2.1308   -0.0653    0.4050 N   0  0  0  0  0  0  0  0  0  0  0  0
    3.4709   -0.2341    0.6310 C   0  0  0  0  0  0  0  0  0  0  0  0
    4.3528    0.0385   -0.3048 N   0  0  0  0  0  0  0  0  0  0  0  0
    5.6247   -0.2132    0.1719 C   0  0  0  0  0  0  0  0  0  0  0  0
    5.6908   -0.6751    1.4678 C   0  0  0  0  0  0  0  0  0  0  0  0
    4.1071   -0.7973    2.1085 S   0  0  0  0  0  0  0  0  0  0  0  0
   -0.2954    2.0608   -2.7280 H   0  0  0  0  0  0  0  0  0  0  0  0
   -0.4350    0.3493   -3.2990 H   0  0  0  0  0  0  0  0  0  0  0  0
    1.1291    1.1719   -3.2795 H   0  0  0  0  0  0  0  0  0  0  0  0
   -2.1911    0.9845   -1.9318 H   0  0  0  0  0  0  0  0  0  0  0  0
   -6.4759   -0.8130   -0.4625 H   0  0  0  0  0  0  0  0  0  0  0  0
   -5.5050   -0.8926    1.0166 H   0  0  0  0  0  0  0  0  0  0  0  0
   -4.9180   -1.6623   -0.4849 H   0  0  0  0  0  0  0  0  0  0  0  0
   -3.4678   -0.1341    2.0035 H   0  0  0  0  0  0  0  0  0  0  0  0
   -1.1548   -0.5478    2.6606 H   0  0  0  0  0  0  0  0  0  0  0  0
    1.9236    0.2765   -0.5255 H   0  0  0  0  0  0  0  0  0  0  0  0
    6.4770   -0.0410   -0.4738 H   0  0  0  0  0  0  0  0  0  0  0  0
    6.5618   -0.9377    2.0499 H   0  0  0  0  0  0  0  0  0  0  0  0
  1  2  1  0
  2  3  1  0
  3  4  2  0
  4  5  1  0
  5  6  1  0
  6  7  1  0
  5  8  2  0
  8  9  1  0
  9 10  2  0
 10 11  1  0
 11 12  2  0
 11 13  1  0
 13 14  1  0
 14 15  2  0
 15 16  1  0
 16 17  2  0
 17 18  1  0
 10  3  1  0
 18 14  1  0
  1 19  1  0
  1 20  1  0
  1 21  1  0
  4 22  1  0
  7 23  1  0
  7 24  1  0
  7 25  1  0
  8 26  1  0
  9 27  1  0
 13 28  1  0
 16 29  1  0
 17 30  1  0
M  END
$$$$
