
     RDKit          3D

 57 59  0  0  0  0  0  0  0  0999 V2000
    6.9247   -1.5068   -1.7754 C   0  0  0  0  0  0  0  0  0  0  0  0
    7.1162   -1.4154   -0.3301 N   0  0  0  0  0  0  0  0  0  0  0  0
    7.7077   -0.1300    0.0283 C   0  0  0  0  0  0  0  0  0  0  0  0
    5.8987   -1.7392    0.4311 C   0  0  0  0  0  0  0  0  0  0  0  0
    4.6072   -0.9320    0.1765 C   0  0  0  0  0  0  0  0  0  0  0  0
    4.7239    0.4395    0.6666 N   0  0  0  0  0  0  0  0  0  0  0  0
    4.0887    1.7221   -0.1816 S   0  0  0  0  0  6  0  0  0  0  0  0
    4.5014    1.6090   -1.5616 O   0  0  0  0  0  0  0  0  0  0  0  0
    4.3506    2.9064    0.6040 O   0  0  0  0  0  0  0  0  0  0  0  0
    2.3451    1.4014   -0.0923 C   0  0  0  0  0  0  0  0  0  0  0  0
    1.6720    0.8750   -1.1937 C   0  0  0  0  0  0  0  0  0  0  0  0
    0.2943    0.6396   -1.1133 C   0  0  0  0  0  0  0  0  0  0  0  0
   -0.4525    0.9305    0.0468 C   0  0  0  0  0  0  0  0  0  0  0  0
   -1.8194    0.6531   -0.0272 N   0  0  0  0  0  0  0  0  0  0  0  0
   -2.7894    1.6653    0.4543 C   0  0  0  0  0  0  0  0  0  0  0  0
   -4.2062    1.3222   -0.0658 C   0  0  0  0  0  0  0  0  0  0  0  0
   -4.6015   -0.0422    0.3648 N   0  0  0  0  0  0  0  0  0  0  0  0
   -5.9369   -0.4311    0.1731 C   0  0  0  0  0  0  0  0  0  0  0  0
   -6.4384   -1.5378    0.8847 C   0  0  0  0  0  0  0  0  0  0  0  0
   -7.7615   -1.9652    0.7408 C   0  0  0  0  0  0  0  0  0  0  0  0
   -8.6067   -1.2815   -0.1182 C   0  0  0  0  0  0  0  0  0  0  0  0
   -9.8754   -1.6857   -0.2614 F   0  0  0  0  0  0  0  0  0  0  0  0
   -8.1535   -0.1793   -0.8270 C   0  0  0  0  0  0  0  0  0  0  0  0
   -6.8279    0.2445   -0.6768 C   0  0  0  0  0  0  0  0  0  0  0  0
   -3.6167   -1.0775   -0.0541 C   0  0  0  0  0  0  0  0  0  0  0  0
   -2.1845   -0.7167    0.4144 C   0  0  0  0  0  0  0  0  0  0  0  0
    0.2713    1.4605    1.1299 C   0  0  0  0  0  0  0  0  0  0  0  0
   -0.3634    1.7206    2.3995 N   0  0  0  0  0  4  0  0  0  0  0  0
   -0.5168    0.7547    3.1592 O   0  0  0  0  0  0  0  0  0  0  0  0
   -0.6642    2.8960    2.6467 O   0  0  0  0  0  1  0  0  0  0  0  0
    1.6528    1.7083    1.0773 C   0  0  0  0  0  0  0  0  0  0  0  0
    7.8872   -1.4217   -2.2925 H   0  0  0  0  0  0  0  0  0  0  0  0
    6.2633   -0.7253   -2.1638 H   0  0  0  0  0  0  0  0  0  0  0  0
    6.5081   -2.4820   -2.0502 H   0  0  0  0  0  0  0  0  0  0  0  0
    7.8281   -0.0424    1.1136 H   0  0  0  0  0  0  0  0  0  0  0  0
    8.7123   -0.0478   -0.4023 H   0  0  0  0  0  0  0  0  0  0  0  0
    7.1255    0.7240   -0.3300 H   0  0  0  0  0  0  0  0  0  0  0  0
    5.6659   -2.7944    0.2355 H   0  0  0  0  0  0  0  0  0  0  0  0
    6.1374   -1.6985    1.5024 H   0  0  0  0  0  0  0  0  0  0  0  0
    3.7884   -1.4110    0.7262 H   0  0  0  0  0  0  0  0  0  0  0  0
    4.3390   -0.9635   -0.8834 H   0  0  0  0  0  0  0  0  0  0  0  0
    5.0801    0.6303    1.6006 H   0  0  0  0  0  0  0  0  0  0  0  0
    2.2008    0.6514   -2.1186 H   0  0  0  0  0  0  0  0  0  0  0  0
   -0.2196    0.2372   -1.9864 H   0  0  0  0  0  0  0  0  0  0  0  0
   -2.5088    2.6617    0.0940 H   0  0  0  0  0  0  0  0  0  0  0  0
   -2.8235    1.6827    1.5486 H   0  0  0  0  0  0  0  0  0  0  0  0
   -4.9055    2.0654    0.3358 H   0  0  0  0  0  0  0  0  0  0  0  0
   -4.2110    1.3884   -1.1614 H   0  0  0  0  0  0  0  0  0  0  0  0
   -5.7979   -2.0632    1.5890 H   0  0  0  0  0  0  0  0  0  0  0  0
   -8.1329   -2.8167    1.3007 H   0  0  0  0  0  0  0  0  0  0  0  0
   -8.8300    0.3468   -1.4925 H   0  0  0  0  0  0  0  0  0  0  0  0
   -6.5092    1.1061   -1.2549 H   0  0  0  0  0  0  0  0  0  0  0  0
   -3.6288   -1.1624   -1.1489 H   0  0  0  0  0  0  0  0  0  0  0  0
   -3.8625   -2.0622    0.3589 H   0  0  0  0  0  0  0  0  0  0  0  0
   -1.4887   -1.4566    0.0002 H   0  0  0  0  0  0  0  0  0  0  0  0
   -2.1329   -0.7814    1.5082 H   0  0  0  0  0  0  0  0  0  0  0  0
    2.1754    2.1268    1.9357 H   0  0  0  0  0  0  0  0  0  0  0  0
  1  2  1  0
  2  3  1  0
  2  4  1  0
  4  5  1  0
  5  6  1  0
  6  7  1  0
  7  8  2  0
  7  9  2  0
  7 10  1  0
 10 11  2  0
 11 12  1  0
 12 13  2  0
 13 14  1  0
 14 15  1  0
 15 16  1  0
 16 17  1  0
 17 18  1  0
 18 19  2  0
 19 20  1  0
 20 21  2  0
 21 22  1  0
 21 23  1  0
 23 24  2  0
 17 25  1  0
 25 26  1  0
 13 27  1  0
 27 28  1  0
 28 29  2  0
 28 30  1  0
 27 31  2  0
 31 10  1  0
 26 14  1  0
 24 18  1  0
  1 32  1  0
  1 33  1  0
  1 34  1  0
  3 35  1  0
  3 36  1  0
  3 37  1  0
  4 38  1  0
  4 39  1  0
  5 40  1  0
  5 41  1  0
  6 42  1  0
 11 43  1  0
 12 44  1  0
 15 45  1  0
 15 46  1  0
 16 47  1  0
 16 48  1  0
 19 49  1  0
 20 50  1  0
 23 51  1  0
 24 52  1  0
 25 53  1  0
 25 54  1  0
 26 55  1  0
 26 56  1  0
 31 57  1  0
M  CHG  2  28   1  30  -1
M  END
$$$$
