
     RDKit          3D

 49 51  0  0  0  0  0  0  0  0999 V2000
   -8.2131   -0.3489    1.4477 C   0  0  0  0  0  0  0  0  0  0  0  0
   -7.5303   -0.4313    0.1061 C   0  0  0  0  0  0  0  0  0  0  0  0
   -8.1808   -0.7064   -0.9022 O   0  0  0  0  0  0  0  0  0  0  0  0
   -6.1604   -0.2066    0.0778 N   0  0  0  0  0  0  0  0  0  0  0  0
   -5.4245    0.4473    1.1686 C   0  0  0  0  0  0  0  0  0  0  0  0
   -3.9289    0.0792    1.1834 C   0  0  0  0  0  0  0  0  0  0  0  0
   -3.3241    0.3080   -0.1439 N   0  0  0  0  0  0  0  0  0  0  0  0
   -1.9251    0.2525   -0.2460 C   0  0  0  0  0  0  0  0  0  0  0  0
   -1.2928    0.8039   -1.3700 C   0  0  0  0  0  0  0  0  0  0  0  0
    0.1027    0.7869   -1.5296 C   0  0  0  0  0  0  0  0  0  0  0  0
    0.9173    0.2150   -0.5613 C   0  0  0  0  0  0  0  0  0  0  0  0
    2.3258    0.1352   -0.5994 N   0  0  0  0  0  0  0  0  0  0  0  0
    3.2741    0.4585   -1.5399 C   0  0  0  0  0  0  0  0  0  0  0  0
    3.1001    1.0420   -3.0943 S   0  0  0  0  0  0  0  0  0  0  0  0
    4.5859    0.2611   -1.1253 N   0  0  0  0  0  0  0  0  0  0  0  0
    5.0599   -0.2300    0.0848 C   0  0  0  0  0  0  0  0  0  0  0  0
    4.3309   -0.6699    0.9701 O   0  0  0  0  0  0  0  0  0  0  0  0
    6.5378   -0.2500    0.2507 C   0  0  0  0  0  0  0  0  0  0  0  0
    7.1023   -1.2549    1.0464 C   0  0  0  0  0  0  0  0  0  0  0  0
    8.4849   -1.3116    1.2275 C   0  0  0  0  0  0  0  0  0  0  0  0
    9.3062   -0.3599    0.6243 C   0  0  0  0  0  0  0  0  0  0  0  0
    8.7479    0.6544   -0.1537 C   0  0  0  0  0  0  0  0  0  0  0  0
    7.3647    0.7154   -0.3394 C   0  0  0  0  0  0  0  0  0  0  0  0
    0.3010   -0.3202    0.5762 C   0  0  0  0  0  0  0  0  0  0  0  0
   -1.0932   -0.2994    0.7319 C   0  0  0  0  0  0  0  0  0  0  0  0
   -4.0199   -0.4508   -1.2145 C   0  0  0  0  0  0  0  0  0  0  0  0
   -5.5195   -0.1056   -1.2390 C   0  0  0  0  0  0  0  0  0  0  0  0
   -7.7638   -1.0606    2.1451 H   0  0  0  0  0  0  0  0  0  0  0  0
   -9.2700   -0.6087    1.3322 H   0  0  0  0  0  0  0  0  0  0  0  0
   -8.1532    0.6692    1.8411 H   0  0  0  0  0  0  0  0  0  0  0  0
   -5.5455    1.5284    1.0271 H   0  0  0  0  0  0  0  0  0  0  0  0
   -5.8610    0.1922    2.1376 H   0  0  0  0  0  0  0  0  0  0  0  0
   -3.8254   -0.9761    1.4670 H   0  0  0  0  0  0  0  0  0  0  0  0
   -3.4352    0.6952    1.9447 H   0  0  0  0  0  0  0  0  0  0  0  0
   -1.8892    1.2905   -2.1388 H   0  0  0  0  0  0  0  0  0  0  0  0
    0.4950    1.2545   -2.4217 H   0  0  0  0  0  0  0  0  0  0  0  0
    2.7365   -0.2787    0.2400 H   0  0  0  0  0  0  0  0  0  0  0  0
    5.2584    0.4869   -1.8452 H   0  0  0  0  0  0  0  0  0  0  0  0
    6.4674   -1.9982    1.5251 H   0  0  0  0  0  0  0  0  0  0  0  0
    8.9204   -2.0957    1.8424 H   0  0  0  0  0  0  0  0  0  0  0  0
   10.3833   -0.4030    0.7696 H   0  0  0  0  0  0  0  0  0  0  0  0
    9.3922    1.4045   -0.6070 H   0  0  0  0  0  0  0  0  0  0  0  0
    6.9552    1.5377   -0.9194 H   0  0  0  0  0  0  0  0  0  0  0  0
    0.8983   -0.7714    1.3662 H   0  0  0  0  0  0  0  0  0  0  0  0
   -1.5014   -0.7450    1.6332 H   0  0  0  0  0  0  0  0  0  0  0  0
   -3.8963   -1.5267   -1.0324 H   0  0  0  0  0  0  0  0  0  0  0  0
   -3.6096   -0.2336   -2.2071 H   0  0  0  0  0  0  0  0  0  0  0  0
   -6.0273   -0.7568   -1.9588 H   0  0  0  0  0  0  0  0  0  0  0  0
   -5.6578    0.9288   -1.5782 H   0  0  0  0  0  0  0  0  0  0  0  0
  1  2  1  0
  2  3  2  0
  2  4  1  0
  4  5  1  0
  5  6  1  0
  6  7  1  0
  7  8  1  0
  8  9  2  0
  9 10  1  0
 10 11  2  0
 11 12  1  0
 12 13  1  0
 13 14  2  0
 13 15  1  0
 15 16  1  0
 16 17  2  0
 16 18  1  0
 18 19  2  0
 19 20  1  0
 20 21  2  0
 21 22  1  0
 22 23  2  0
 11 24  1  0
 24 25  2  0
  7 26  1  0
 26 27  1  0
 27  4  1  0
 25  8  1  0
 23 18  1  0
  1 28  1  0
  1 29  1  0
  1 30  1  0
  5 31  1  0
  5 32  1  0
  6 33  1  0
  6 34  1  0
  9 35  1  0
 10 36  1  0
 12 37  1  0
 15 38  1  0
 19 39  1  0
 20 40  1  0
 21 41  1  0
 22 42  1  0
 23 43  1  0
 24 44  1  0
 25 45  1  0
 26 46  1  0
 26 47  1  0
 27 48  1  0
 27 49  1  0
M  END
$$$$
