
     RDKit          3D

 45 47  0  0  0  0  0  0  0  0999 V2000
    2.3698    0.5841    1.1885 O   0  0  0  0  0  0  0  0  0  0  0  0
    1.7419    1.1090    0.2650 C   0  0  0  0  0  0  0  0  0  0  0  0
    2.2022    2.4429   -0.3080 C   0  0  0  0  0  0  0  0  0  0  0  0
    3.2726    2.2030   -1.7671 S   0  0  0  0  0  0  0  0  0  0  0  0
    4.6798    1.3997   -1.0228 C   0  0  0  0  0  0  0  0  0  0  0  0
    5.0567    0.1312   -1.4771 C   0  0  0  0  0  0  0  0  0  0  0  0
    6.1640   -0.5179   -0.9244 C   0  0  0  0  0  0  0  0  0  0  0  0
    6.9013    0.1081    0.0782 C   0  0  0  0  0  0  0  0  0  0  0  0
    8.3998   -0.7674    0.8271 Br  0  0  0  0  0  0  0  0  0  0  0  0
    6.5452    1.3776    0.5282 C   0  0  0  0  0  0  0  0  0  0  0  0
    5.4372    2.0245   -0.0265 C   0  0  0  0  0  0  0  0  0  0  0  0
    0.6036    0.5176   -0.2656 N   0  0  0  0  0  0  0  0  0  0  0  0
   -0.2128    1.0863   -1.3452 C   0  0  0  0  0  0  0  0  0  0  0  0
   -1.2004    0.0713   -1.9345 C   0  0  0  0  0  0  0  0  0  0  0  0
   -2.1003   -0.5123   -0.8869 N   0  0  0  0  0  0  0  0  0  0  0  0
   -3.6103    0.2826   -0.7709 S   0  0  0  0  0  6  0  0  0  0  0  0
   -3.3827    1.5261   -0.0644 O   0  0  0  0  0  0  0  0  0  0  0  0
   -4.2228    0.2732   -2.0819 O   0  0  0  0  0  0  0  0  0  0  0  0
   -4.5479   -0.8073    0.2670 C   0  0  0  0  0  0  0  0  0  0  0  0
   -4.9121   -0.4094    1.5561 C   0  0  0  0  0  0  0  0  0  0  0  0
   -5.6491   -1.2812    2.3574 C   0  0  0  0  0  0  0  0  0  0  0  0
   -6.0214   -2.5353    1.8686 C   0  0  0  0  0  0  0  0  0  0  0  0
   -5.6626   -2.9229    0.5760 C   0  0  0  0  0  0  0  0  0  0  0  0
   -4.9257   -2.0577   -0.2317 C   0  0  0  0  0  0  0  0  0  0  0  0
   -1.4089   -0.7587    0.4268 C   0  0  0  0  0  0  0  0  0  0  0  0
    0.1197   -0.7429    0.3046 C   0  0  0  0  0  0  0  0  0  0  0  0
    2.7317    2.9993    0.4721 H   0  0  0  0  0  0  0  0  0  0  0  0
    1.3430    3.0576   -0.5892 H   0  0  0  0  0  0  0  0  0  0  0  0
    4.4887   -0.3656   -2.2600 H   0  0  0  0  0  0  0  0  0  0  0  0
    6.4393   -1.5064   -1.2815 H   0  0  0  0  0  0  0  0  0  0  0  0
    7.1201    1.8721    1.3065 H   0  0  0  0  0  0  0  0  0  0  0  0
    5.1792    3.0194    0.3263 H   0  0  0  0  0  0  0  0  0  0  0  0
   -0.7504    1.9428   -0.9234 H   0  0  0  0  0  0  0  0  0  0  0  0
    0.4400    1.4586   -2.1384 H   0  0  0  0  0  0  0  0  0  0  0  0
   -0.6566   -0.7607   -2.3993 H   0  0  0  0  0  0  0  0  0  0  0  0
   -1.7780    0.5393   -2.7382 H   0  0  0  0  0  0  0  0  0  0  0  0
   -4.6322    0.5690    1.9398 H   0  0  0  0  0  0  0  0  0  0  0  0
   -5.9396   -0.9827    3.3621 H   0  0  0  0  0  0  0  0  0  0  0  0
   -6.5997   -3.2107    2.4951 H   0  0  0  0  0  0  0  0  0  0  0  0
   -5.9628   -3.8973    0.1979 H   0  0  0  0  0  0  0  0  0  0  0  0
   -4.6511   -2.3559   -1.2412 H   0  0  0  0  0  0  0  0  0  0  0  0
   -1.7312   -1.7353    0.8038 H   0  0  0  0  0  0  0  0  0  0  0  0
   -1.7016    0.0025    1.1586 H   0  0  0  0  0  0  0  0  0  0  0  0
    0.5659   -0.9244    1.2877 H   0  0  0  0  0  0  0  0  0  0  0  0
    0.4589   -1.5461   -0.3606 H   0  0  0  0  0  0  0  0  0  0  0  0
  1  2  2  0
  2  3  1  0
  3  4  1  0
  4  5  1  0
  5  6  2  0
  6  7  1  0
  7  8  2  0
  8  9  1  0
  8 10  1  0
 10 11  2  0
  2 12  1  0
 12 13  1  0
 13 14  1  0
 14 15  1  0
 15 16  1  0
 16 17  2  0
 16 18  2  0
 16 19  1  0
 19 20  2  0
 20 21  1  0
 21 22  2  0
 22 23  1  0
 23 24  2  0
 15 25  1  0
 25 26  1  0
 11  5  1  0
 26 12  1  0
 24 19  1  0
  3 27  1  0
  3 28  1  0
  6 29  1  0
  7 30  1  0
 10 31  1  0
 11 32  1  0
 13 33  1  0
 13 34  1  0
 14 35  1  0
 14 36  1  0
 20 37  1  0
 21 38  1  0
 22 39  1  0
 23 40  1  0
 24 41  1  0
 25 42  1  0
 25 43  1  0
 26 44  1  0
 26 45  1  0
M  END
$$$$
