
     RDKit          3D

 57 60  0  0  0  0  0  0  0  0999 V2000
    5.5096    1.7345    0.6210 C   0  0  0  0  0  0  0  0  0  0  0  0
    5.6959    0.2672    0.9804 C   0  0  0  0  0  0  0  0  0  0  0  0
    5.8269   -0.6147   -0.2454 C   0  0  0  0  0  0  0  0  0  0  0  0
    7.1304   -0.9830   -0.6279 C   0  0  0  0  0  0  0  0  0  0  0  0
    7.3508   -1.7584   -1.7586 C   0  0  0  0  0  0  0  0  0  0  0  0
    6.2683   -2.2012   -2.5083 C   0  0  0  0  0  0  0  0  0  0  0  0
    4.9476   -1.8713   -2.1484 C   0  0  0  0  0  0  0  0  0  0  0  0
    3.8560   -2.5047   -2.9702 C   0  0  0  0  0  0  0  0  0  0  0  0
    4.7241   -1.0221   -1.0412 C   0  0  0  0  0  0  0  0  0  0  0  0
    3.4305   -0.5994   -0.6434 N   0  0  0  0  0  0  0  0  0  0  0  0
    2.4139   -0.1846   -1.4872 C   0  0  0  0  0  0  0  0  0  0  0  0
    2.4829   -0.0444   -2.7017 O   0  0  0  0  0  0  0  0  0  0  0  0
    1.1535    0.2072   -0.7915 C   0  0  0  0  0  0  0  0  0  0  0  0
    0.7411   -0.4230    0.3899 C   0  0  0  0  0  0  0  0  0  0  0  0
   -0.4456   -0.0301    1.0158 C   0  0  0  0  0  0  0  0  0  0  0  0
   -1.2385    0.9874    0.4655 C   0  0  0  0  0  0  0  0  0  0  0  0
   -2.5230    1.4198    1.1474 C   0  0  0  0  0  0  0  0  0  0  0  0
   -3.7118    1.2852    0.2913 N   0  0  0  0  0  0  0  0  0  0  0  0
   -3.9648   -0.1284   -0.0756 C   0  0  0  0  0  0  0  0  0  0  0  0
   -5.4438   -0.5408   -0.1758 C   0  0  0  0  0  0  0  0  0  0  0  0
   -6.1284   -0.1781    1.1148 C   0  0  0  0  0  0  0  0  0  0  0  0
   -7.0495   -1.0132    1.7481 C   0  0  0  0  0  0  0  0  0  0  0  0
   -7.6340   -0.6093    2.9485 C   0  0  0  0  0  0  0  0  0  0  0  0
   -7.3079    0.6275    3.5087 C   0  0  0  0  0  0  0  0  0  0  0  0
   -6.3990    1.4717    2.8688 C   0  0  0  0  0  0  0  0  0  0  0  0
   -5.8020    1.0704    1.6713 C   0  0  0  0  0  0  0  0  0  0  0  0
   -4.8766    1.9672    0.8845 C   0  0  0  0  0  0  0  0  0  0  0  0
   -0.8236    1.6047   -0.7244 C   0  0  0  0  0  0  0  0  0  0  0  0
    0.3601    1.2130   -1.3531 C   0  0  0  0  0  0  0  0  0  0  0  0
    5.4451    2.3398    1.5308 H   0  0  0  0  0  0  0  0  0  0  0  0
    6.3521    2.1048    0.0269 H   0  0  0  0  0  0  0  0  0  0  0  0
    4.5952    1.8991    0.0426 H   0  0  0  0  0  0  0  0  0  0  0  0
    6.5939    0.1692    1.6041 H   0  0  0  0  0  0  0  0  0  0  0  0
    4.8758   -0.0833    1.6167 H   0  0  0  0  0  0  0  0  0  0  0  0
    7.9889   -0.6516   -0.0472 H   0  0  0  0  0  0  0  0  0  0  0  0
    8.3623   -2.0281   -2.0493 H   0  0  0  0  0  0  0  0  0  0  0  0
    6.4541   -2.8304   -3.3769 H   0  0  0  0  0  0  0  0  0  0  0  0
    3.6425   -1.9015   -3.8570 H   0  0  0  0  0  0  0  0  0  0  0  0
    2.9436   -2.6605   -2.3875 H   0  0  0  0  0  0  0  0  0  0  0  0
    4.1628   -3.5014   -3.3091 H   0  0  0  0  0  0  0  0  0  0  0  0
    3.3499   -0.2447    0.2980 H   0  0  0  0  0  0  0  0  0  0  0  0
    1.3162   -1.2392    0.8192 H   0  0  0  0  0  0  0  0  0  0  0  0
   -0.7565   -0.5334    1.9291 H   0  0  0  0  0  0  0  0  0  0  0  0
   -2.6615    0.8725    2.0893 H   0  0  0  0  0  0  0  0  0  0  0  0
   -2.3764    2.4728    1.4240 H   0  0  0  0  0  0  0  0  0  0  0  0
   -3.5009   -0.7994    0.6617 H   0  0  0  0  0  0  0  0  0  0  0  0
   -3.4759   -0.3326   -1.0355 H   0  0  0  0  0  0  0  0  0  0  0  0
   -5.5070   -1.6197   -0.3578 H   0  0  0  0  0  0  0  0  0  0  0  0
   -5.9381   -0.0290   -1.0098 H   0  0  0  0  0  0  0  0  0  0  0  0
   -7.3114   -1.9762    1.3182 H   0  0  0  0  0  0  0  0  0  0  0  0
   -8.3488   -1.2583    3.4481 H   0  0  0  0  0  0  0  0  0  0  0  0
   -7.7725    0.9381    4.4410 H   0  0  0  0  0  0  0  0  0  0  0  0
   -6.1704    2.4411    3.3036 H   0  0  0  0  0  0  0  0  0  0  0  0
   -4.5666    2.8264    1.4927 H   0  0  0  0  0  0  0  0  0  0  0  0
   -5.4654    2.3970    0.0630 H   0  0  0  0  0  0  0  0  0  0  0  0
   -1.4351    2.3859   -1.1728 H   0  0  0  0  0  0  0  0  0  0  0  0
    0.6613    1.6938   -2.2818 H   0  0  0  0  0  0  0  0  0  0  0  0
  1  2  1  0
  2  3  1  0
  3  4  2  0
  4  5  1  0
  5  6  2  0
  6  7  1  0
  7  8  1  0
  7  9  2  0
  9 10  1  0
 10 11  1  0
 11 12  2  0
 11 13  1  0
 13 14  2  0
 14 15  1  0
 15 16  2  0
 16 17  1  0
 17 18  1  0
 18 19  1  0
 19 20  1  0
 20 21  1  0
 21 22  2  0
 22 23  1  0
 23 24  2  0
 24 25  1  0
 25 26  2  0
 26 27  1  0
 16 28  1  0
 28 29  2  0
  9  3  1  0
 29 13  1  0
 27 18  1  0
 26 21  1  0
  1 30  1  0
  1 31  1  0
  1 32  1  0
  2 33  1  0
  2 34  1  0
  4 35  1  0
  5 36  1  0
  6 37  1  0
  8 38  1  0
  8 39  1  0
  8 40  1  0
 10 41  1  0
 14 42  1  0
 15 43  1  0
 17 44  1  0
 17 45  1  0
 19 46  1  0
 19 47  1  0
 20 48  1  0
 20 49  1  0
 22 50  1  0
 23 51  1  0
 24 52  1  0
 25 53  1  0
 27 54  1  0
 27 55  1  0
 28 56  1  0
 29 57  1  0
M  END
$$$$
