
     RDKit          3D

 59 63  0  0  0  0  0  0  0  0999 V2000
   -1.4090   -4.2600    3.3283 C   0  0  0  0  0  0  0  0  0  0  0  0
   -1.9487   -3.2894    2.3215 C   0  0  0  0  0  0  0  0  0  0  0  0
   -1.8667   -3.5597    0.9513 C   0  0  0  0  0  0  0  0  0  0  0  0
   -2.3554   -2.6431    0.0191 C   0  0  0  0  0  0  0  0  0  0  0  0
   -2.9395   -1.4413    0.4389 C   0  0  0  0  0  0  0  0  0  0  0  0
   -3.4186   -0.4284   -0.5704 C   0  0  0  0  0  0  0  0  0  0  0  0
   -2.3807    0.5422   -0.8148 N   0  0  0  0  0  0  0  0  0  0  0  0
   -2.4289    1.8197   -0.3172 C   0  0  0  0  0  0  0  0  0  0  0  0
   -3.4330    2.2923    0.2041 O   0  0  0  0  0  0  0  0  0  0  0  0
   -1.2074    2.5677   -0.4723 C   0  0  0  0  0  0  0  0  0  0  0  0
   -1.0515    3.8587   -0.9391 C   0  0  0  0  0  0  0  0  0  0  0  0
    0.3397    4.1416   -0.8967 C   0  0  0  0  0  0  0  0  0  0  0  0
    1.0342    5.3616   -1.3231 C   0  0  0  0  0  0  0  0  0  0  0  0
    0.3307    6.5482   -1.5798 C   0  0  0  0  0  0  0  0  0  0  0  0
    1.0036    7.7010   -1.9979 C   0  0  0  0  0  0  0  0  0  0  0  0
    2.3864    7.6827   -2.1642 C   0  0  0  0  0  0  0  0  0  0  0  0
    3.0997    6.5142   -1.9099 C   0  0  0  0  0  0  0  0  0  0  0  0
    2.4277    5.3631   -1.4900 C   0  0  0  0  0  0  0  0  0  0  0  0
    1.0056    3.0931   -0.3871 N   0  0  0  0  0  0  0  0  0  0  0  0
    0.0546    2.1814   -0.1093 N   0  0  0  0  0  0  0  0  0  0  0  0
    0.4505    0.9776    0.6013 C   0  0  0  0  0  0  0  0  0  0  0  0
    1.1556   -0.0132   -0.3127 C   0  0  0  0  0  0  0  0  0  0  0  0
    1.5420   -1.2818    0.4191 C   0  0  0  0  0  0  0  0  0  0  0  0
    1.2487   -2.2646   -0.6599 C   0  0  0  0  0  0  0  0  0  0  0  0
    1.6980   -3.6661   -0.5866 C   0  0  0  0  0  0  0  0  0  0  0  0
    2.4338   -4.1667    0.4913 C   0  0  0  0  0  0  0  0  0  0  0  0
    2.8103   -5.5104    0.4991 C   0  0  0  0  0  0  0  0  0  0  0  0
    2.4312   -6.3062   -0.5708 C   0  0  0  0  0  0  0  0  0  0  0  0
    1.7141   -5.8539   -1.6252 N   0  0  0  0  0  0  0  0  0  0  0  0
    1.3656   -4.5437   -1.6122 C   0  0  0  0  0  0  0  0  0  0  0  0
    0.5388   -1.7990   -1.6369 N   0  0  0  0  0  0  0  0  0  0  0  0
    0.2572   -0.4476   -1.3460 O   0  0  0  0  0  0  0  0  0  0  0  0
   -3.0117   -1.1664    1.8121 C   0  0  0  0  0  0  0  0  0  0  0  0
   -2.5192   -2.0813    2.7444 C   0  0  0  0  0  0  0  0  0  0  0  0
   -2.1444   -4.4361    4.1222 H   0  0  0  0  0  0  0  0  0  0  0  0
   -1.1845   -5.2260    2.8668 H   0  0  0  0  0  0  0  0  0  0  0  0
   -0.4875   -3.8677    3.7706 H   0  0  0  0  0  0  0  0  0  0  0  0
   -1.4219   -4.4854    0.5943 H   0  0  0  0  0  0  0  0  0  0  0  0
   -2.2601   -2.8681   -1.0418 H   0  0  0  0  0  0  0  0  0  0  0  0
   -3.6456   -0.9187   -1.5244 H   0  0  0  0  0  0  0  0  0  0  0  0
   -4.3376    0.0524   -0.2228 H   0  0  0  0  0  0  0  0  0  0  0  0
   -1.5471    0.2079   -1.2867 H   0  0  0  0  0  0  0  0  0  0  0  0
   -1.8499    4.4955   -1.2887 H   0  0  0  0  0  0  0  0  0  0  0  0
   -0.7470    6.5983   -1.4515 H   0  0  0  0  0  0  0  0  0  0  0  0
    0.4465    8.6144   -2.1933 H   0  0  0  0  0  0  0  0  0  0  0  0
    2.9082    8.5782   -2.4909 H   0  0  0  0  0  0  0  0  0  0  0  0
    4.1786    6.4932   -2.0391 H   0  0  0  0  0  0  0  0  0  0  0  0
    3.0013    4.4583   -1.2970 H   0  0  0  0  0  0  0  0  0  0  0  0
   -0.4456    0.5425    1.0515 H   0  0  0  0  0  0  0  0  0  0  0  0
    1.1078    1.2913    1.4208 H   0  0  0  0  0  0  0  0  0  0  0  0
    2.0274    0.4391   -0.8017 H   0  0  0  0  0  0  0  0  0  0  0  0
    0.8979   -1.4954    1.2771 H   0  0  0  0  0  0  0  0  0  0  0  0
    2.5888   -1.2721    0.7256 H   0  0  0  0  0  0  0  0  0  0  0  0
    2.7211   -3.5398    1.3296 H   0  0  0  0  0  0  0  0  0  0  0  0
    3.3877   -5.9288    1.3215 H   0  0  0  0  0  0  0  0  0  0  0  0
    2.7003   -7.3579   -0.6100 H   0  0  0  0  0  0  0  0  0  0  0  0
    0.7882   -4.2187   -2.4784 H   0  0  0  0  0  0  0  0  0  0  0  0
   -3.4497   -0.2324    2.1584 H   0  0  0  0  0  0  0  0  0  0  0  0
   -2.5908   -1.8467    3.8063 H   0  0  0  0  0  0  0  0  0  0  0  0
  1  2  1  0
  2  3  2  0
  3  4  1  0
  4  5  2  0
  5  6  1  0
  6  7  1  0
  7  8  1  0
  8  9  2  0
  8 10  1  0
 10 11  2  0
 11 12  1  0
 12 13  1  0
 13 14  2  0
 14 15  1  0
 15 16  2  0
 16 17  1  0
 17 18  2  0
 12 19  2  0
 19 20  1  0
 20 21  1  0
 21 22  1  0
 22 23  1  0
 23 24  1  0
 24 25  1  0
 25 26  2  0
 26 27  1  0
 27 28  2  0
 28 29  1  0
 29 30  2  0
 24 31  2  0
 31 32  1  0
  5 33  1  0
 33 34  2  0
 34  2  1  0
 20 10  1  0
 32 22  1  0
 18 13  1  0
 30 25  1  0
  1 35  1  0
  1 36  1  0
  1 37  1  0
  3 38  1  0
  4 39  1  0
  6 40  1  0
  6 41  1  0
  7 42  1  0
 11 43  1  0
 14 44  1  0
 15 45  1  0
 16 46  1  0
 17 47  1  0
 18 48  1  0
 21 49  1  0
 21 50  1  0
 22 51  1  0
 23 52  1  0
 23 53  1  0
 26 54  1  0
 27 55  1  0
 28 56  1  0
 30 57  1  0
 33 58  1  0
 34 59  1  0
M  END
$$$$
