
     RDKit          3D

 56 60  0  0  0  0  0  0  0  0999 V2000
    8.1540   -1.2783   -0.9273 C   0  0  0  0  0  0  0  0  0  0  0  0
    6.8369   -1.2323   -0.2474 C   0  0  0  0  0  0  0  0  0  0  0  0
    5.9346   -2.1981   -0.4631 N   0  0  0  0  0  0  0  0  0  0  0  0
    4.8713   -1.8398    0.2941 N   0  0  0  0  0  0  0  0  0  0  0  0
    3.6928   -2.7023    0.3005 C   0  0  0  0  0  0  0  0  0  0  0  0
    2.5890   -2.1606   -0.5752 C   0  0  0  0  0  0  0  0  0  0  0  0
    2.7594   -2.0639   -1.9644 C   0  0  0  0  0  0  0  0  0  0  0  0
    1.7312   -1.5832   -2.7767 C   0  0  0  0  0  0  0  0  0  0  0  0
    0.5190   -1.1850   -2.2115 C   0  0  0  0  0  0  0  0  0  0  0  0
    0.3367   -1.2600   -0.8258 C   0  0  0  0  0  0  0  0  0  0  0  0
   -0.9370   -0.8468   -0.1712 C   0  0  0  0  0  0  0  0  0  0  0  0
   -1.2601   -1.3616    0.8921 O   0  0  0  0  0  0  0  0  0  0  0  0
   -1.6547    0.1419   -0.8132 N   0  0  0  0  0  0  0  0  0  0  0  0
   -2.8847    0.7473   -0.2886 C   0  0  0  0  0  0  0  0  0  0  0  0
   -3.4031    1.7772   -1.3294 C   0  0  0  0  0  0  0  0  0  0  0  0
   -4.6902    2.4588   -0.8386 C   0  0  0  0  0  0  0  0  0  0  0  0
   -4.4041    3.1809    0.4875 C   0  0  0  0  0  0  0  0  0  0  0  0
   -3.9169    2.1725    1.5402 C   0  0  0  0  0  0  0  0  0  0  0  0
   -4.9989    1.1001    1.7539 C   0  0  0  0  0  0  0  0  0  0  0  0
   -5.2917    0.3717    0.4309 C   0  0  0  0  0  0  0  0  0  0  0  0
   -5.7715    1.3907   -0.6140 C   0  0  0  0  0  0  0  0  0  0  0  0
   -4.0029   -0.3039   -0.0706 C   0  0  0  0  0  0  0  0  0  0  0  0
   -2.6267    1.4986    1.0405 C   0  0  0  0  0  0  0  0  0  0  0  0
    1.3653   -1.7626   -0.0159 C   0  0  0  0  0  0  0  0  0  0  0  0
    5.0754   -0.6806    1.0085 C   0  0  0  0  0  0  0  0  0  0  0  0
    4.0641   -0.0836    1.9152 C   0  0  0  0  0  0  0  0  0  0  0  0
    6.3417   -0.2736    0.6577 C   0  0  0  0  0  0  0  0  0  0  0  0
    7.2688    1.2463    1.2402 Br  0  0  0  0  0  0  0  0  0  0  0  0
    8.2224   -2.1286   -1.6139 H   0  0  0  0  0  0  0  0  0  0  0  0
    8.9603   -1.3741   -0.1929 H   0  0  0  0  0  0  0  0  0  0  0  0
    8.3191   -0.3649   -1.5080 H   0  0  0  0  0  0  0  0  0  0  0  0
    3.9945   -3.6974   -0.0482 H   0  0  0  0  0  0  0  0  0  0  0  0
    3.3726   -2.8111    1.3424 H   0  0  0  0  0  0  0  0  0  0  0  0
    3.7005   -2.3701   -2.4222 H   0  0  0  0  0  0  0  0  0  0  0  0
    1.8752   -1.5285   -3.8533 H   0  0  0  0  0  0  0  0  0  0  0  0
   -0.2787   -0.8479   -2.8670 H   0  0  0  0  0  0  0  0  0  0  0  0
   -1.1747    0.6576   -1.5385 H   0  0  0  0  0  0  0  0  0  0  0  0
   -2.6349    2.5382   -1.5228 H   0  0  0  0  0  0  0  0  0  0  0  0
   -3.5896    1.2800   -2.2909 H   0  0  0  0  0  0  0  0  0  0  0  0
   -5.0345    3.1818   -1.5864 H   0  0  0  0  0  0  0  0  0  0  0  0
   -5.3111    3.6851    0.8430 H   0  0  0  0  0  0  0  0  0  0  0  0
   -3.6463    3.9593    0.3350 H   0  0  0  0  0  0  0  0  0  0  0  0
   -3.7195    2.6916    2.4848 H   0  0  0  0  0  0  0  0  0  0  0  0
   -5.9163    1.5656    2.1348 H   0  0  0  0  0  0  0  0  0  0  0  0
   -4.6684    0.3805    2.5130 H   0  0  0  0  0  0  0  0  0  0  0  0
   -6.0671   -0.3860    0.5901 H   0  0  0  0  0  0  0  0  0  0  0  0
   -6.7019    1.8639   -0.2770 H   0  0  0  0  0  0  0  0  0  0  0  0
   -5.9975    0.8811   -1.5587 H   0  0  0  0  0  0  0  0  0  0  0  0
   -4.2023   -0.8422   -1.0066 H   0  0  0  0  0  0  0  0  0  0  0  0
   -3.6961   -1.0618    0.6591 H   0  0  0  0  0  0  0  0  0  0  0  0
   -1.8413    2.2531    0.9012 H   0  0  0  0  0  0  0  0  0  0  0  0
   -2.2585    0.8122    1.8123 H   0  0  0  0  0  0  0  0  0  0  0  0
    1.2036   -1.8374    1.0589 H   0  0  0  0  0  0  0  0  0  0  0  0
    3.6539   -0.8327    2.5992 H   0  0  0  0  0  0  0  0  0  0  0  0
    4.4961    0.7120    2.5295 H   0  0  0  0  0  0  0  0  0  0  0  0
    3.2426    0.3513    1.3381 H   0  0  0  0  0  0  0  0  0  0  0  0
  1  2  1  0
  2  3  2  0
  3  4  1  0
  4  5  1  0
  5  6  1  0
  6  7  2  0
  7  8  1  0
  8  9  2  0
  9 10  1  0
 10 11  1  0
 11 12  2  0
 11 13  1  0
 13 14  1  0
 14 15  1  0
 15 16  1  0
 16 17  1  0
 17 18  1  0
 18 19  1  0
 19 20  1  0
 20 21  1  0
 20 22  1  0
 18 23  1  0
 10 24  2  0
  4 25  1  0
 25 26  1  0
 25 27  2  0
 27 28  1  0
 27  2  1  0
 24  6  1  0
 22 14  1  0
 23 14  1  0
 21 16  1  0
  1 29  1  0
  1 30  1  0
  1 31  1  0
  5 32  1  0
  5 33  1  0
  7 34  1  0
  8 35  1  0
  9 36  1  0
 13 37  1  0
 15 38  1  0
 15 39  1  0
 16 40  1  0
 17 41  1  0
 17 42  1  0
 18 43  1  0
 19 44  1  0
 19 45  1  0
 20 46  1  0
 21 47  1  0
 21 48  1  0
 22 49  1  0
 22 50  1  0
 23 51  1  0
 23 52  1  0
 24 53  1  0
 26 54  1  0
 26 55  1  0
 26 56  1  0
M  END
$$$$
