
     RDKit          3D

 42 45  0  0  0  0  0  0  0  0999 V2000
   -4.0352   -1.9266    0.3238 O   0  0  0  0  0  0  0  0  0  0  0  0
   -4.0625   -0.7119    0.1102 C   0  0  0  0  0  0  0  0  0  0  0  0
   -2.8348   -0.0206   -0.3205 C   0  0  0  0  0  0  0  0  0  0  0  0
   -1.5388   -0.6073   -0.3805 C   0  0  0  0  0  0  0  0  0  0  0  0
   -0.7153    0.3890   -0.8419 C   0  0  0  0  0  0  0  0  0  0  0  0
    0.7290    0.4867   -1.1538 C   0  0  0  0  0  0  0  0  0  0  0  0
    1.4225   -0.2140   -0.1225 O   0  0  0  0  0  0  0  0  0  0  0  0
    2.7862   -0.2554   -0.2079 C   0  0  0  0  0  0  0  0  0  0  0  0
    3.4112   -0.9691    0.8195 C   0  0  0  0  0  0  0  0  0  0  0  0
    4.8039   -1.0944    0.8669 C   0  0  0  0  0  0  0  0  0  0  0  0
    5.5882   -0.4963   -0.1256 C   0  0  0  0  0  0  0  0  0  0  0  0
    7.0034   -0.5919   -0.1018 N   0  0  0  0  0  0  0  0  0  0  0  0
    7.8131   -1.2415    0.7987 C   0  0  0  0  0  0  0  0  0  0  0  0
    9.0788   -1.0831    0.4819 N   0  0  0  0  0  0  0  0  0  0  0  0
    9.0099   -0.3147   -0.6391 C   0  0  0  0  0  0  0  0  0  0  0  0
    7.7808    0.0093   -1.0410 N   0  0  0  0  0  0  0  0  0  0  0  0
    4.9621    0.2179   -1.1585 C   0  0  0  0  0  0  0  0  0  0  0  0
    3.5675    0.3355   -1.1996 C   0  0  0  0  0  0  0  0  0  0  0  0
   -1.4588    1.5031   -1.0635 O   0  0  0  0  0  0  0  0  0  0  0  0
   -2.7771    1.2533   -0.7425 N   0  0  0  0  0  0  0  0  0  0  0  0
   -5.2460   -0.0024    0.2740 N   0  0  0  0  0  0  0  0  0  0  0  0
   -6.4735   -0.6909    0.6317 C   0  0  0  0  0  0  0  0  0  0  0  0
   -7.5681    0.3386    0.4026 C   0  0  0  0  0  0  0  0  0  0  0  0
   -6.8668    1.6493    0.7279 C   0  0  0  0  0  0  0  0  0  0  0  0
   -5.4616    1.4349    0.1772 C   0  0  0  0  0  0  0  0  0  0  0  0
   -1.2620   -1.6177   -0.1187 H   0  0  0  0  0  0  0  0  0  0  0  0
    1.0365    1.5385   -1.1706 H   0  0  0  0  0  0  0  0  0  0  0  0
    0.9164    0.0186   -2.1267 H   0  0  0  0  0  0  0  0  0  0  0  0
    2.8044   -1.4318    1.5954 H   0  0  0  0  0  0  0  0  0  0  0  0
    5.2314   -1.6579    1.6895 H   0  0  0  0  0  0  0  0  0  0  0  0
    7.4441   -1.7984    1.6469 H   0  0  0  0  0  0  0  0  0  0  0  0
    9.8852    0.0220   -1.1833 H   0  0  0  0  0  0  0  0  0  0  0  0
    5.5483    0.6936   -1.9436 H   0  0  0  0  0  0  0  0  0  0  0  0
    3.1334    0.8989   -2.0188 H   0  0  0  0  0  0  0  0  0  0  0  0
   -6.4056   -0.9771    1.6872 H   0  0  0  0  0  0  0  0  0  0  0  0
   -6.6133   -1.5914    0.0256 H   0  0  0  0  0  0  0  0  0  0  0  0
   -7.8709    0.3305   -0.6504 H   0  0  0  0  0  0  0  0  0  0  0  0
   -8.4537    0.1598    1.0178 H   0  0  0  0  0  0  0  0  0  0  0  0
   -7.3616    2.5212    0.2909 H   0  0  0  0  0  0  0  0  0  0  0  0
   -6.8248    1.7860    1.8149 H   0  0  0  0  0  0  0  0  0  0  0  0
   -5.4084    1.7200   -0.8784 H   0  0  0  0  0  0  0  0  0  0  0  0
   -4.7171    1.9878    0.7554 H   0  0  0  0  0  0  0  0  0  0  0  0
  1  2  2  0
  2  3  1  0
  3  4  1  0
  4  5  2  0
  5  6  1  0
  6  7  1  0
  7  8  1  0
  8  9  2  0
  9 10  1  0
 10 11  2  0
 11 12  1  0
 12 13  1  0
 13 14  2  0
 14 15  1  0
 15 16  2  0
 11 17  1  0
 17 18  2  0
  5 19  1  0
 19 20  1  0
  2 21  1  0
 21 22  1  0
 22 23  1  0
 23 24  1  0
 24 25  1  0
 20  3  2  0
 25 21  1  0
 18  8  1  0
 16 12  1  0
  4 26  1  0
  6 27  1  0
  6 28  1  0
  9 29  1  0
 10 30  1  0
 13 31  1  0
 15 32  1  0
 17 33  1  0
 18 34  1  0
 22 35  1  0
 22 36  1  0
 23 37  1  0
 23 38  1  0
 24 39  1  0
 24 40  1  0
 25 41  1  0
 25 42  1  0
M  END
$$$$
