
     RDKit          3D

 41 44  0  0  0  0  0  0  0  0999 V2000
    5.3850   -1.2598   -3.0980 Cl  0  0  0  0  0  0  0  0  0  0  0  0
    4.2883   -0.9563   -1.8078 C   0  0  0  0  0  0  0  0  0  0  0  0
    4.2742    0.2927   -1.1913 C   0  0  0  0  0  0  0  0  0  0  0  0
    3.3834    0.5418   -0.1444 C   0  0  0  0  0  0  0  0  0  0  0  0
    2.4983   -0.4571    0.2896 C   0  0  0  0  0  0  0  0  0  0  0  0
    1.5244   -0.1876    1.4121 C   0  0  0  0  0  0  0  0  0  0  0  0
    0.1490   -0.1680    0.9435 N   0  0  0  0  0  0  0  0  0  0  0  0
   -0.6634   -1.2162    1.1939 N   0  0  0  0  0  0  0  0  0  0  0  0
   -1.7918   -0.8541    0.5633 C   0  0  0  0  0  0  0  0  0  0  0  0
   -3.0009   -1.6711    0.5139 C   0  0  0  0  0  0  0  0  0  0  0  0
   -3.0546   -2.9225    1.1457 C   0  0  0  0  0  0  0  0  0  0  0  0
   -4.2160   -3.6981    1.0928 C   0  0  0  0  0  0  0  0  0  0  0  0
   -5.3361   -3.2309    0.4076 C   0  0  0  0  0  0  0  0  0  0  0  0
   -5.2973   -1.9896   -0.2246 C   0  0  0  0  0  0  0  0  0  0  0  0
   -4.1360   -1.2140   -0.1717 C   0  0  0  0  0  0  0  0  0  0  0  0
   -1.7129    0.3782   -0.0472 N   0  0  0  0  0  0  0  0  0  0  0  0
   -0.4960    0.8050    0.2228 C   0  0  0  0  0  0  0  0  0  0  0  0
    0.0891    2.0661   -0.2098 C   0  0  0  0  0  0  0  0  0  0  0  0
    0.4058    3.0687    0.7157 C   0  0  0  0  0  0  0  0  0  0  0  0
    0.9865    4.2643    0.2874 C   0  0  0  0  0  0  0  0  0  0  0  0
    1.2468    4.4672   -1.0673 C   0  0  0  0  0  0  0  0  0  0  0  0
    0.9185    3.4811   -1.9965 C   0  0  0  0  0  0  0  0  0  0  0  0
    0.3358    2.2864   -1.5699 C   0  0  0  0  0  0  0  0  0  0  0  0
    2.5272   -1.7114   -0.3412 C   0  0  0  0  0  0  0  0  0  0  0  0
    3.4191   -1.9596   -1.3869 C   0  0  0  0  0  0  0  0  0  0  0  0
    4.9496    1.0770   -1.5225 H   0  0  0  0  0  0  0  0  0  0  0  0
    3.3813    1.5270    0.3187 H   0  0  0  0  0  0  0  0  0  0  0  0
    1.7244    0.7687    1.9062 H   0  0  0  0  0  0  0  0  0  0  0  0
    1.6156   -0.9663    2.1789 H   0  0  0  0  0  0  0  0  0  0  0  0
   -2.1884   -3.3007    1.6847 H   0  0  0  0  0  0  0  0  0  0  0  0
   -4.2438   -4.6657    1.5868 H   0  0  0  0  0  0  0  0  0  0  0  0
   -6.2393   -3.8341    0.3664 H   0  0  0  0  0  0  0  0  0  0  0  0
   -6.1692   -1.6225   -0.7597 H   0  0  0  0  0  0  0  0  0  0  0  0
   -4.1201   -0.2464   -0.6701 H   0  0  0  0  0  0  0  0  0  0  0  0
    0.1873    2.9333    1.7725 H   0  0  0  0  0  0  0  0  0  0  0  0
    1.2250    5.0425    1.0082 H   0  0  0  0  0  0  0  0  0  0  0  0
    1.6933    5.4004   -1.4019 H   0  0  0  0  0  0  0  0  0  0  0  0
    1.1093    3.6430   -3.0544 H   0  0  0  0  0  0  0  0  0  0  0  0
    0.0765    1.5238   -2.3020 H   0  0  0  0  0  0  0  0  0  0  0  0
    1.8458   -2.5016   -0.0264 H   0  0  0  0  0  0  0  0  0  0  0  0
    3.4263   -2.9336   -1.8690 H   0  0  0  0  0  0  0  0  0  0  0  0
  1  2  1  0
  2  3  2  0
  3  4  1  0
  4  5  2  0
  5  6  1  0
  6  7  1  0
  7  8  1  0
  8  9  2  0
  9 10  1  0
 10 11  2  0
 11 12  1  0
 12 13  2  0
 13 14  1  0
 14 15  2  0
  9 16  1  0
 16 17  2  0
 17 18  1  0
 18 19  2  0
 19 20  1  0
 20 21  2  0
 21 22  1  0
 22 23  2  0
  5 24  1  0
 24 25  2  0
 25  2  1  0
 17  7  1  0
 23 18  1  0
 15 10  1  0
  3 26  1  0
  4 27  1  0
  6 28  1  0
  6 29  1  0
 11 30  1  0
 12 31  1  0
 13 32  1  0
 14 33  1  0
 15 34  1  0
 19 35  1  0
 20 36  1  0
 21 37  1  0
 22 38  1  0
 23 39  1  0
 24 40  1  0
 25 41  1  0
M  END
$$$$
