
     RDKit          3D

 57 60  0  0  0  0  0  0  0  0999 V2000
   -7.4101   -0.6189   -1.3313 C   0  0  0  0  0  0  0  0  0  0  0  0
   -5.9115   -0.6398   -1.3960 C   0  0  0  0  0  0  0  0  0  0  0  0
   -5.1499   -0.6577   -0.2218 C   0  0  0  0  0  0  0  0  0  0  0  0
   -3.7543   -0.7035   -0.2814 C   0  0  0  0  0  0  0  0  0  0  0  0
   -3.1061   -0.7472   -1.5211 C   0  0  0  0  0  0  0  0  0  0  0  0
   -1.6823   -0.8002   -1.5827 N   0  0  0  0  0  0  0  0  0  0  0  0
   -0.9313   -1.6582   -2.3847 C   0  0  0  0  0  0  0  0  0  0  0  0
   -1.4957   -2.6970   -3.2916 C   0  0  0  0  0  0  0  0  0  0  0  0
    0.4048   -1.4052   -2.1461 C   0  0  0  0  0  0  0  0  0  0  0  0
    0.4937   -0.4147   -1.1402 C   0  0  0  0  0  0  0  0  0  0  0  0
    1.7111    0.1075   -0.5543 C   0  0  0  0  0  0  0  0  0  0  0  0
    2.2909    0.8455   -1.4014 O   0  0  0  0  0  1  0  0  0  0  0  0
    2.0489   -0.1830    0.7366 C   0  0  0  0  0  0  0  0  0  0  0  0
    3.2972    0.4520    1.4085 C   0  0  0  0  0  0  0  0  0  0  0  0
    3.9687   -0.2440    2.7982 S   0  0  0  0  0  0  0  0  0  0  0  0
    3.7797    1.5689    0.7396 N   0  0  0  0  0  0  0  0  0  0  0  0
    4.7796    2.5276    1.0022 C   0  0  0  0  0  0  0  0  0  0  0  0
    5.1366    3.3484   -0.0820 C   0  0  0  0  0  0  0  0  0  0  0  0
    6.1067    4.3441    0.0530 C   0  0  0  0  0  0  0  0  0  0  0  0
    6.7199    4.5349    1.2826 C   0  0  0  0  0  0  0  0  0  0  0  0
    7.6471    5.4966    1.4016 F   0  0  0  0  0  0  0  0  0  0  0  0
    6.3654    3.7454    2.3725 C   0  0  0  0  0  0  0  0  0  0  0  0
    7.1054    3.9976    3.9093 Cl  0  0  0  0  0  0  0  0  0  0  0  0
    5.3939    2.7465    2.2359 C   0  0  0  0  0  0  0  0  0  0  0  0
    1.1777   -1.1427    1.5235 N   0  0  0  0  0  4  0  0  0  0  0  0
    0.5819   -0.7157    2.6578 C   0  0  0  0  0  0  0  0  0  0  0  0
   -0.2269   -1.5705    3.3993 C   0  0  0  0  0  0  0  0  0  0  0  0
   -0.4163   -2.8759    2.9638 C   0  0  0  0  0  0  0  0  0  0  0  0
    0.2097   -3.3021    1.7994 C   0  0  0  0  0  0  0  0  0  0  0  0
    1.0119   -2.4129    1.0923 C   0  0  0  0  0  0  0  0  0  0  0  0
   -0.8012   -0.0195   -0.8293 C   0  0  0  0  0  0  0  0  0  0  0  0
   -1.2368    1.1320    0.0178 C   0  0  0  0  0  0  0  0  0  0  0  0
   -3.8626   -0.7447   -2.6972 C   0  0  0  0  0  0  0  0  0  0  0  0
   -5.2577   -0.6950   -2.6323 C   0  0  0  0  0  0  0  0  0  0  0  0
   -7.8306   -0.0912   -2.1938 H   0  0  0  0  0  0  0  0  0  0  0  0
   -7.7556   -0.0976   -0.4322 H   0  0  0  0  0  0  0  0  0  0  0  0
   -7.7981   -1.6420   -1.3178 H   0  0  0  0  0  0  0  0  0  0  0  0
   -5.6409   -0.6395    0.7485 H   0  0  0  0  0  0  0  0  0  0  0  0
   -3.1948   -0.7472    0.6477 H   0  0  0  0  0  0  0  0  0  0  0  0
   -2.3632   -3.1958   -2.8492 H   0  0  0  0  0  0  0  0  0  0  0  0
   -1.7775   -2.2613   -4.2545 H   0  0  0  0  0  0  0  0  0  0  0  0
   -0.7492   -3.4740   -3.4910 H   0  0  0  0  0  0  0  0  0  0  0  0
    1.2404   -1.8906   -2.6352 H   0  0  0  0  0  0  0  0  0  0  0  0
    3.3555    1.6566   -0.2049 H   0  0  0  0  0  0  0  0  0  0  0  0
    4.6645    3.2083   -1.0552 H   0  0  0  0  0  0  0  0  0  0  0  0
    6.3817    4.9662   -0.7928 H   0  0  0  0  0  0  0  0  0  0  0  0
    5.1243    2.1848    3.1195 H   0  0  0  0  0  0  0  0  0  0  0  0
    0.7419    0.3189    2.9448 H   0  0  0  0  0  0  0  0  0  0  0  0
   -0.7075   -1.2163    4.3074 H   0  0  0  0  0  0  0  0  0  0  0  0
   -1.0473   -3.5589    3.5290 H   0  0  0  0  0  0  0  0  0  0  0  0
    0.0785   -4.3191    1.4395 H   0  0  0  0  0  0  0  0  0  0  0  0
    1.5370   -2.7040    0.1877 H   0  0  0  0  0  0  0  0  0  0  0  0
   -1.5241    0.7932    1.0169 H   0  0  0  0  0  0  0  0  0  0  0  0
   -2.0771    1.6692   -0.4330 H   0  0  0  0  0  0  0  0  0  0  0  0
   -0.4296    1.8620    0.1382 H   0  0  0  0  0  0  0  0  0  0  0  0
   -3.3857   -0.7337   -3.6735 H   0  0  0  0  0  0  0  0  0  0  0  0
   -5.8307   -0.6866   -3.5572 H   0  0  0  0  0  0  0  0  0  0  0  0
  1  2  1  0
  2  3  2  0
  3  4  1  0
  4  5  2  0
  5  6  1  0
  6  7  1  0
  7  8  1  0
  7  9  2  0
  9 10  1  0
 10 11  1  0
 11 12  1  0
 11 13  2  3
 13 14  1  0
 14 15  2  0
 14 16  1  0
 16 17  1  0
 17 18  2  0
 18 19  1  0
 19 20  2  0
 20 21  1  0
 20 22  1  0
 22 23  1  0
 22 24  2  0
 13 25  1  0
 25 26  2  0
 26 27  1  0
 27 28  2  0
 28 29  1  0
 29 30  2  0
 10 31  2  0
 31 32  1  0
  5 33  1  0
 33 34  2  0
 34  2  1  0
 31  6  1  0
 24 17  1  0
 30 25  1  0
  1 35  1  0
  1 36  1  0
  1 37  1  0
  3 38  1  0
  4 39  1  0
  8 40  1  0
  8 41  1  0
  8 42  1  0
  9 43  1  0
 16 44  1  0
 18 45  1  0
 19 46  1  0
 24 47  1  0
 26 48  1  0
 27 49  1  0
 28 50  1  0
 29 51  1  0
 30 52  1  0
 32 53  1  0
 32 54  1  0
 32 55  1  0
 33 56  1  0
 34 57  1  0
M  CHG  2  12  -1  25   1
M  END
$$$$
