
     RDKit          3D

 41 43  0  0  0  0  0  0  0  0999 V2000
   -7.1962   -0.2302   -0.5999 C   0  0  0  0  0  0  0  0  0  0  0  0
   -6.7237    0.6712    0.5273 C   0  0  0  0  0  0  0  0  0  0  0  0
   -5.6198    0.0845    1.2146 O   0  0  0  0  0  0  0  0  0  0  0  0
   -4.3529    0.3632    0.7886 C   0  0  0  0  0  0  0  0  0  0  0  0
   -4.0002    1.0546   -0.3674 C   0  0  0  0  0  0  0  0  0  0  0  0
   -2.6502    1.2647   -0.6828 C   0  0  0  0  0  0  0  0  0  0  0  0
   -1.6296    0.7943    0.1558 C   0  0  0  0  0  0  0  0  0  0  0  0
   -0.2369    1.0011   -0.1670 N   0  0  0  0  0  0  0  0  0  0  0  0
    0.5711   -0.1503   -0.1790 C   0  0  0  0  0  0  0  0  0  0  0  0
    0.1436   -1.2907    0.0180 O   0  0  0  0  0  0  0  0  0  0  0  0
    2.0207    0.0429   -0.5003 C   0  0  0  0  0  0  0  0  0  0  0  0
    2.7895   -1.0575   -0.3662 C   0  0  0  0  0  0  0  0  0  0  0  0
    4.1843   -1.1735   -0.6087 C   0  0  0  0  0  0  0  0  0  0  0  0
    4.9643   -0.8172   -1.7027 C   0  0  0  0  0  0  0  0  0  0  0  0
    6.2983   -1.2100   -1.4402 C   0  0  0  0  0  0  0  0  0  0  0  0
    6.2767   -1.8151   -0.2082 C   0  0  0  0  0  0  0  0  0  0  0  0
    7.3096   -2.4425    0.6379 C   0  0  0  0  0  0  0  0  0  0  0  0
    5.0125   -1.8129    0.2887 O   0  0  0  0  0  0  0  0  0  0  0  0
    2.5030    1.3781   -0.8962 C   0  0  0  0  0  0  0  0  0  0  0  0
    3.6524    1.6662   -1.1995 O   0  0  0  0  0  0  0  0  0  0  0  0
    1.5529    2.3561   -0.8797 N   0  0  0  0  0  0  0  0  0  0  0  0
    0.2467    2.2782   -0.4738 C   0  0  0  0  0  0  0  0  0  0  0  0
   -0.5383    3.7626   -0.3555 S   0  0  0  0  0  0  0  0  0  0  0  0
   -1.9947    0.0765    1.3023 C   0  0  0  0  0  0  0  0  0  0  0  0
   -3.3422   -0.1314    1.6139 C   0  0  0  0  0  0  0  0  0  0  0  0
   -8.0857    0.1866   -1.0810 H   0  0  0  0  0  0  0  0  0  0  0  0
   -7.4384   -1.2271   -0.2167 H   0  0  0  0  0  0  0  0  0  0  0  0
   -6.4197   -0.3633   -1.3589 H   0  0  0  0  0  0  0  0  0  0  0  0
   -6.5151    1.6918    0.1877 H   0  0  0  0  0  0  0  0  0  0  0  0
   -7.5331    0.7594    1.2610 H   0  0  0  0  0  0  0  0  0  0  0  0
   -4.7451    1.4330   -1.0590 H   0  0  0  0  0  0  0  0  0  0  0  0
   -2.4179    1.7758   -1.6141 H   0  0  0  0  0  0  0  0  0  0  0  0
    2.3467   -1.9805    0.0057 H   0  0  0  0  0  0  0  0  0  0  0  0
    4.6076   -0.3186   -2.5935 H   0  0  0  0  0  0  0  0  0  0  0  0
    7.1625   -1.0717   -2.0743 H   0  0  0  0  0  0  0  0  0  0  0  0
    7.3753   -1.9324    1.6038 H   0  0  0  0  0  0  0  0  0  0  0  0
    7.0699   -3.4950    0.8179 H   0  0  0  0  0  0  0  0  0  0  0  0
    8.2926   -2.3938    0.1593 H   0  0  0  0  0  0  0  0  0  0  0  0
    1.9049    3.2828   -1.0898 H   0  0  0  0  0  0  0  0  0  0  0  0
   -1.2409   -0.3230    1.9767 H   0  0  0  0  0  0  0  0  0  0  0  0
   -3.6047   -0.6869    2.5115 H   0  0  0  0  0  0  0  0  0  0  0  0
  1  2  1  0
  2  3  1  0
  3  4  1  0
  4  5  2  0
  5  6  1  0
  6  7  2  0
  7  8  1  0
  8  9  1  0
  9 10  2  0
  9 11  1  0
 11 12  2  3
 12 13  1  0
 13 14  2  0
 14 15  1  0
 15 16  2  0
 16 17  1  0
 16 18  1  0
 11 19  1  0
 19 20  2  0
 19 21  1  0
 21 22  1  0
 22 23  2  0
  7 24  1  0
 24 25  2  0
 25  4  1  0
 22  8  1  0
 18 13  1  0
  1 26  1  0
  1 27  1  0
  1 28  1  0
  2 29  1  0
  2 30  1  0
  5 31  1  0
  6 32  1  0
 12 33  1  0
 14 34  1  0
 15 35  1  0
 17 36  1  0
 17 37  1  0
 17 38  1  0
 21 39  1  0
 24 40  1  0
 25 41  1  0
M  END
$$$$
