
     RDKit          3D

 50 51  0  0  0  0  0  0  0  0999 V2000
    6.6554    1.8090    0.3314 C   0  0  0  0  0  0  0  0  0  0  0  0
    5.4719    0.8870    0.3500 C   0  0  0  0  0  0  0  0  0  0  0  0
    4.2732    1.2867    0.9521 C   0  0  0  0  0  0  0  0  0  0  0  0
    3.1804    0.4179    1.0004 C   0  0  0  0  0  0  0  0  0  0  0  0
    3.2726   -0.8640    0.4491 C   0  0  0  0  0  0  0  0  0  0  0  0
    2.1324   -1.7781    0.5004 C   0  0  0  0  0  0  0  0  0  0  0  0
    1.9740   -2.6604    1.4957 C   0  0  0  0  0  0  0  0  0  0  0  0
    0.5473   -3.6192    1.2866 S   0  0  0  0  0  0  0  0  0  0  0  0
    0.1428   -2.7763   -0.2204 C   0  0  0  0  0  0  0  0  0  0  0  0
   -1.2145   -3.1164   -1.1255 S   0  0  0  0  0  0  0  0  0  0  0  0
    1.1357   -1.8242   -0.4688 N   0  0  0  0  0  0  0  0  0  0  0  0
    1.0995   -0.9057   -1.6109 C   0  0  0  0  0  0  0  0  0  0  0  0
    0.2401    0.3180   -1.3106 C   0  0  0  0  0  0  0  0  0  0  0  0
    0.1944    0.9115   -0.2424 O   0  0  0  0  0  0  0  0  0  0  0  0
   -0.4646    0.6756   -2.4227 O   0  0  0  0  0  0  0  0  0  0  0  0
   -1.1849    1.9018   -2.3064 C   0  0  0  0  0  0  0  0  0  0  0  0
   -2.4663    1.8990   -1.4645 C   0  0  0  0  0  0  0  0  0  0  0  0
   -2.9835    2.9474   -1.0842 O   0  0  0  0  0  0  0  0  0  0  0  0
   -3.0200    0.6560   -1.2381 N   0  0  0  0  0  0  0  0  0  0  0  0
   -4.1919    0.4831   -0.3825 C   0  0  0  0  0  0  0  0  0  0  0  0
   -4.9123   -0.8108   -0.7606 C   0  0  0  0  0  0  0  0  0  0  0  0
   -3.8168    0.5933    1.1204 C   0  0  0  0  0  0  0  0  0  0  0  0
   -2.8887   -0.5238    1.6043 C   0  0  0  0  0  0  0  0  0  0  0  0
   -5.0611    0.6553    2.0112 C   0  0  0  0  0  0  0  0  0  0  0  0
    4.4773   -1.2740   -0.1339 C   0  0  0  0  0  0  0  0  0  0  0  0
    5.5703   -0.4049   -0.1799 C   0  0  0  0  0  0  0  0  0  0  0  0
    7.2499    1.6729    1.2400 H   0  0  0  0  0  0  0  0  0  0  0  0
    7.2896    1.6131   -0.5395 H   0  0  0  0  0  0  0  0  0  0  0  0
    6.3346    2.8543    0.2706 H   0  0  0  0  0  0  0  0  0  0  0  0
    4.1803    2.2790    1.3889 H   0  0  0  0  0  0  0  0  0  0  0  0
    2.2557    0.7525    1.4683 H   0  0  0  0  0  0  0  0  0  0  0  0
    2.6380   -2.7834    2.3411 H   0  0  0  0  0  0  0  0  0  0  0  0
    2.1035   -0.5735   -1.8899 H   0  0  0  0  0  0  0  0  0  0  0  0
    0.6868   -1.4349   -2.4760 H   0  0  0  0  0  0  0  0  0  0  0  0
   -0.5185    2.6862   -1.9267 H   0  0  0  0  0  0  0  0  0  0  0  0
   -1.4775    2.1922   -3.3215 H   0  0  0  0  0  0  0  0  0  0  0  0
   -2.4630   -0.1619   -1.4529 H   0  0  0  0  0  0  0  0  0  0  0  0
   -4.8708    1.3143   -0.6152 H   0  0  0  0  0  0  0  0  0  0  0  0
   -5.1739   -0.8032   -1.8250 H   0  0  0  0  0  0  0  0  0  0  0  0
   -4.2855   -1.6913   -0.5923 H   0  0  0  0  0  0  0  0  0  0  0  0
   -5.8406   -0.9351   -0.1958 H   0  0  0  0  0  0  0  0  0  0  0  0
   -3.2777    1.5391    1.2647 H   0  0  0  0  0  0  0  0  0  0  0  0
   -2.6012   -0.3567    2.6483 H   0  0  0  0  0  0  0  0  0  0  0  0
   -3.3688   -1.5056    1.5493 H   0  0  0  0  0  0  0  0  0  0  0  0
   -1.9679   -0.5549    1.0156 H   0  0  0  0  0  0  0  0  0  0  0  0
   -4.7799    0.8728    3.0475 H   0  0  0  0  0  0  0  0  0  0  0  0
   -5.7402    1.4474    1.6791 H   0  0  0  0  0  0  0  0  0  0  0  0
   -5.6105   -0.2913    2.0109 H   0  0  0  0  0  0  0  0  0  0  0  0
    4.5745   -2.2726   -0.5545 H   0  0  0  0  0  0  0  0  0  0  0  0
    6.5007   -0.7431   -0.6313 H   0  0  0  0  0  0  0  0  0  0  0  0
  1  2  1  0
  2  3  2  0
  3  4  1  0
  4  5  2  0
  5  6  1  0
  6  7  2  0
  7  8  1  0
  8  9  1  0
  9 10  2  0
  9 11  1  0
 11 12  1  0
 12 13  1  0
 13 14  2  0
 13 15  1  0
 15 16  1  0
 16 17  1  0
 17 18  2  0
 17 19  1  0
 19 20  1  0
 20 21  1  0
 20 22  1  0
 22 23  1  0
 22 24  1  0
  5 25  1  0
 25 26  2  0
 26  2  1  0
 11  6  1  0
  1 27  1  0
  1 28  1  0
  1 29  1  0
  3 30  1  0
  4 31  1  0
  7 32  1  0
 12 33  1  0
 12 34  1  0
 16 35  1  0
 16 36  1  0
 19 37  1  0
 20 38  1  0
 21 39  1  0
 21 40  1  0
 21 41  1  0
 22 42  1  0
 23 43  1  0
 23 44  1  0
 23 45  1  0
 24 46  1  0
 24 47  1  0
 24 48  1  0
 25 49  1  0
 26 50  1  0
M  END
$$$$
