
     RDKit          3D

 48 50  0  0  0  0  0  0  0  0999 V2000
    4.8528   -2.5930   -0.3098 C   0  0  0  0  0  0  0  0  0  0  0  0
    5.1622   -1.2834    0.4046 C   0  0  0  0  0  0  0  0  0  0  0  0
    4.7412   -0.1087   -0.3834 N   0  0  0  0  0  0  0  0  0  0  0  0
    5.5962    0.2230   -1.5329 C   0  0  0  0  0  0  0  0  0  0  0  0
    5.7188    1.7299   -1.7145 C   0  0  0  0  0  0  0  0  0  0  0  0
    3.3609    0.1243   -0.4350 C   0  0  0  0  0  0  0  0  0  0  0  0
    2.6227    0.2446    0.7549 C   0  0  0  0  0  0  0  0  0  0  0  0
    1.2410    0.4738    0.7530 C   0  0  0  0  0  0  0  0  0  0  0  0
    0.5532    0.5902   -0.4532 C   0  0  0  0  0  0  0  0  0  0  0  0
   -0.8866    0.8561   -0.4782 C   0  0  0  0  0  0  0  0  0  0  0  0
   -1.8859   -0.0131   -0.2225 C   0  0  0  0  0  0  0  0  0  0  0  0
   -1.6774   -1.4396    0.1073 C   0  0  0  0  0  0  0  0  0  0  0  0
   -0.6047   -2.0271    0.0535 O   0  0  0  0  0  0  0  0  0  0  0  0
   -2.8079   -2.1134    0.4614 N   0  0  0  0  0  0  0  0  0  0  0  0
   -4.0971   -1.6950    0.3233 C   0  0  0  0  0  0  0  0  0  0  0  0
   -5.0020   -2.5179    0.4471 O   0  0  0  0  0  0  0  0  0  0  0  0
   -4.2887   -0.3676    0.0064 N   0  0  0  0  0  0  0  0  0  0  0  0
   -5.6576    0.1297   -0.0309 C   0  0  0  0  0  0  0  0  0  0  0  0
   -5.9768    0.7782    1.2719 C   0  0  0  0  0  0  0  0  0  0  0  0
   -5.9203    2.0827    1.7191 C   0  0  0  0  0  0  0  0  0  0  0  0
   -6.3473    2.0612    3.0683 C   0  0  0  0  0  0  0  0  0  0  0  0
   -6.6353    0.7484    3.3582 C   0  0  0  0  0  0  0  0  0  0  0  0
   -6.4111   -0.0380    2.2747 O   0  0  0  0  0  0  0  0  0  0  0  0
   -3.2732    0.5263   -0.2923 C   0  0  0  0  0  0  0  0  0  0  0  0
   -3.4870    1.6961   -0.6119 O   0  0  0  0  0  0  0  0  0  0  0  0
    1.2641    0.4939   -1.6483 C   0  0  0  0  0  0  0  0  0  0  0  0
    2.6476    0.2665   -1.6342 C   0  0  0  0  0  0  0  0  0  0  0  0
    5.2126   -3.4392    0.2841 H   0  0  0  0  0  0  0  0  0  0  0  0
    3.7764   -2.7222   -0.4616 H   0  0  0  0  0  0  0  0  0  0  0  0
    5.3387   -2.6372   -1.2897 H   0  0  0  0  0  0  0  0  0  0  0  0
    6.2426   -1.2238    0.5861 H   0  0  0  0  0  0  0  0  0  0  0  0
    4.7066   -1.2918    1.4006 H   0  0  0  0  0  0  0  0  0  0  0  0
    5.2516   -0.2629   -2.4522 H   0  0  0  0  0  0  0  0  0  0  0  0
    6.6094   -0.1606   -1.3576 H   0  0  0  0  0  0  0  0  0  0  0  0
    4.7604    2.1928   -1.9671 H   0  0  0  0  0  0  0  0  0  0  0  0
    6.4221    1.9559   -2.5224 H   0  0  0  0  0  0  0  0  0  0  0  0
    6.0882    2.2041   -0.7989 H   0  0  0  0  0  0  0  0  0  0  0  0
    3.1283    0.1889    1.7152 H   0  0  0  0  0  0  0  0  0  0  0  0
    0.7199    0.5623    1.7022 H   0  0  0  0  0  0  0  0  0  0  0  0
   -1.1130    1.8914   -0.7341 H   0  0  0  0  0  0  0  0  0  0  0  0
   -2.6893   -3.1002    0.6431 H   0  0  0  0  0  0  0  0  0  0  0  0
   -5.7678    0.8551   -0.8454 H   0  0  0  0  0  0  0  0  0  0  0  0
   -6.3655   -0.6830   -0.2273 H   0  0  0  0  0  0  0  0  0  0  0  0
   -5.6014    2.9392    1.1396 H   0  0  0  0  0  0  0  0  0  0  0  0
   -6.4332    2.8979    3.7472 H   0  0  0  0  0  0  0  0  0  0  0  0
   -6.9898    0.2357    4.2417 H   0  0  0  0  0  0  0  0  0  0  0  0
    0.7552    0.5876   -2.6043 H   0  0  0  0  0  0  0  0  0  0  0  0
    3.1463    0.1819   -2.5939 H   0  0  0  0  0  0  0  0  0  0  0  0
  1  2  1  0
  2  3  1  0
  3  4  1  0
  4  5  1  0
  3  6  1  0
  6  7  2  0
  7  8  1  0
  8  9  2  0
  9 10  1  0
 10 11  2  3
 11 12  1  0
 12 13  2  0
 12 14  1  0
 14 15  1  0
 15 16  2  0
 15 17  1  0
 17 18  1  0
 18 19  1  0
 19 20  2  0
 20 21  1  0
 21 22  2  0
 22 23  1  0
 17 24  1  0
 24 25  2  0
  9 26  1  0
 26 27  2  0
 27  6  1  0
 24 11  1  0
 23 19  1  0
  1 28  1  0
  1 29  1  0
  1 30  1  0
  2 31  1  0
  2 32  1  0
  4 33  1  0
  4 34  1  0
  5 35  1  0
  5 36  1  0
  5 37  1  0
  7 38  1  0
  8 39  1  0
 10 40  1  0
 14 41  1  0
 18 42  1  0
 18 43  1  0
 20 44  1  0
 21 45  1  0
 22 46  1  0
 26 47  1  0
 27 48  1  0
M  END
$$$$
