
     RDKit          3D

 45 47  0  0  0  0  0  0  0  0999 V2000
    6.9290   -1.4345    1.5951 C   0  0  0  0  0  0  0  0  0  0  0  0
    6.3148   -0.4992    0.7213 O   0  0  0  0  0  0  0  0  0  0  0  0
    4.9460   -0.5207    0.6230 C   0  0  0  0  0  0  0  0  0  0  0  0
    4.1158   -1.3880    1.3367 C   0  0  0  0  0  0  0  0  0  0  0  0
    2.7285   -1.3353    1.1688 C   0  0  0  0  0  0  0  0  0  0  0  0
    2.1493   -0.4202    0.2852 C   0  0  0  0  0  0  0  0  0  0  0  0
    0.7417   -0.4219    0.1867 N   0  0  0  0  0  0  0  0  0  0  0  0
   -0.0367    0.2305   -0.7450 C   0  0  0  0  0  0  0  0  0  0  0  0
    0.3959    0.8136   -1.7354 O   0  0  0  0  0  0  0  0  0  0  0  0
   -1.4071    0.1603   -0.4870 N   0  0  0  0  0  0  0  0  0  0  0  0
   -1.9978   -0.2146    0.8016 C   0  0  0  0  0  0  0  0  0  0  0  0
   -3.3252    0.4883    1.0434 C   0  0  0  0  0  0  0  0  0  0  0  0
   -4.3253    0.1678   -0.0693 C   0  0  0  0  0  0  0  0  0  0  0  0
   -3.6693   -0.0291   -1.4400 C   0  0  0  0  0  0  0  0  0  0  0  0
   -2.3219    0.6736   -1.5078 C   0  0  0  0  0  0  0  0  0  0  0  0
   -5.0295   -1.0409    0.2819 O   0  0  0  0  0  0  0  0  0  0  0  0
   -6.4073   -0.7349    0.0697 C   0  0  0  0  0  0  0  0  0  0  0  0
   -6.4834    0.7311    0.3904 C   0  0  0  0  0  0  0  0  0  0  0  0
   -5.2724    1.2503   -0.1575 O   0  0  0  0  0  0  0  0  0  0  0  0
    2.9777    0.4561   -0.4202 C   0  0  0  0  0  0  0  0  0  0  0  0
    4.3714    0.4086   -0.2659 C   0  0  0  0  0  0  0  0  0  0  0  0
    5.2513    1.2338   -0.9253 O   0  0  0  0  0  0  0  0  0  0  0  0
    4.7220    2.0790   -1.9381 C   0  0  0  0  0  0  0  0  0  0  0  0
    8.0112   -1.2818    1.5417 H   0  0  0  0  0  0  0  0  0  0  0  0
    6.6211   -1.2670    2.6325 H   0  0  0  0  0  0  0  0  0  0  0  0
    6.7231   -2.4632    1.2816 H   0  0  0  0  0  0  0  0  0  0  0  0
    4.5150   -2.1176    2.0327 H   0  0  0  0  0  0  0  0  0  0  0  0
    2.1115   -2.0242    1.7399 H   0  0  0  0  0  0  0  0  0  0  0  0
    0.2633   -1.1227    0.7290 H   0  0  0  0  0  0  0  0  0  0  0  0
   -1.3057    0.0365    1.6123 H   0  0  0  0  0  0  0  0  0  0  0  0
   -2.1295   -1.3028    0.7954 H   0  0  0  0  0  0  0  0  0  0  0  0
   -3.7267    0.1876    2.0187 H   0  0  0  0  0  0  0  0  0  0  0  0
   -3.1556    1.5719    1.0957 H   0  0  0  0  0  0  0  0  0  0  0  0
   -4.3194    0.3497   -2.2376 H   0  0  0  0  0  0  0  0  0  0  0  0
   -3.5199   -1.0992   -1.6348 H   0  0  0  0  0  0  0  0  0  0  0  0
   -1.8842    0.5325   -2.5024 H   0  0  0  0  0  0  0  0  0  0  0  0
   -2.4303    1.7531   -1.3479 H   0  0  0  0  0  0  0  0  0  0  0  0
   -6.6431   -0.9324   -0.9817 H   0  0  0  0  0  0  0  0  0  0  0  0
   -7.0440   -1.3532    0.7071 H   0  0  0  0  0  0  0  0  0  0  0  0
   -7.3517    1.2281   -0.0489 H   0  0  0  0  0  0  0  0  0  0  0  0
   -6.4707    0.9090    1.4711 H   0  0  0  0  0  0  0  0  0  0  0  0
    2.5344    1.1891   -1.0820 H   0  0  0  0  0  0  0  0  0  0  0  0
    4.2120    1.4996   -2.7149 H   0  0  0  0  0  0  0  0  0  0  0  0
    5.5611    2.5991   -2.4102 H   0  0  0  0  0  0  0  0  0  0  0  0
    4.0609    2.8391   -1.5093 H   0  0  0  0  0  0  0  0  0  0  0  0
  1  2  1  0
  2  3  1  0
  3  4  2  0
  4  5  1  0
  5  6  2  0
  6  7  1  0
  7  8  1  0
  8  9  2  0
  8 10  1  0
 10 11  1  0
 11 12  1  0
 12 13  1  0
 13 14  1  0
 14 15  1  0
 13 16  1  0
 16 17  1  0
 17 18  1  0
 18 19  1  0
  6 20  1  0
 20 21  2  0
 21 22  1  0
 22 23  1  0
 21  3  1  0
 15 10  1  0
 19 13  1  0
  1 24  1  0
  1 25  1  0
  1 26  1  0
  4 27  1  0
  5 28  1  0
  7 29  1  0
 11 30  1  0
 11 31  1  0
 12 32  1  0
 12 33  1  0
 14 34  1  0
 14 35  1  0
 15 36  1  0
 15 37  1  0
 17 38  1  0
 17 39  1  0
 18 40  1  0
 18 41  1  0
 20 42  1  0
 23 43  1  0
 23 44  1  0
 23 45  1  0
M  END
$$$$
