
     RDKit          3D

 54 58  0  0  0  0  0  0  0  0999 V2000
   -8.3355   -1.2772    1.1320 O   0  0  0  0  0  0  0  0  0  0  0  0
   -7.7977   -0.1988    1.3027 C   0  0  0  0  0  0  0  0  0  0  0  0
   -8.5136    0.8993    1.6018 O   0  0  0  0  0  0  0  0  0  0  0  0
   -6.3429    0.0700    1.2092 C   0  0  0  0  0  0  0  0  0  0  0  0
   -5.4887   -0.9872    0.8916 C   0  0  0  0  0  0  0  0  0  0  0  0
   -4.1067   -0.7753    0.7914 C   0  0  0  0  0  0  0  0  0  0  0  0
   -3.5434    0.4929    0.9974 C   0  0  0  0  0  0  0  0  0  0  0  0
   -2.1343    0.7172    0.8898 N   0  0  0  0  0  0  0  0  0  0  0  0
   -1.4801    1.7410    1.6227 C   0  0  0  0  0  0  0  0  0  0  0  0
   -1.9091    2.5787    2.3976 O   0  0  0  0  0  0  0  0  0  0  0  0
   -0.0288    1.5725    1.2768 C   0  0  0  0  0  0  0  0  0  0  0  0
    0.9001    2.3803    1.8039 C   0  0  0  0  0  0  0  0  0  0  0  0
    2.2943    2.2978    1.5328 C   0  0  0  0  0  0  0  0  0  0  0  0
    3.3020    3.1339    1.9985 C   0  0  0  0  0  0  0  0  0  0  0  0
    4.5331    2.6742    1.4726 C   0  0  0  0  0  0  0  0  0  0  0  0
    4.2401    1.5690    0.7055 C   0  0  0  0  0  0  0  0  0  0  0  0
    5.0315    0.6397   -0.0988 C   0  0  0  0  0  0  0  0  0  0  0  0
    6.4093    0.8475   -0.2791 C   0  0  0  0  0  0  0  0  0  0  0  0
    7.1799   -0.0361   -1.0448 C   0  0  0  0  0  0  0  0  0  0  0  0
    6.5702   -1.1457   -1.6407 C   0  0  0  0  0  0  0  0  0  0  0  0
    7.3733   -2.0773   -2.4423 N   0  0  0  0  0  4  0  0  0  0  0  0
    8.5774   -1.8221   -2.5874 O   0  0  0  0  0  0  0  0  0  0  0  0
    6.8005   -3.0646   -2.9254 O   0  0  0  0  0  1  0  0  0  0  0  0
    5.2003   -1.3729   -1.4758 C   0  0  0  0  0  0  0  0  0  0  0  0
    4.4419   -0.4813   -0.7081 C   0  0  0  0  0  0  0  0  0  0  0  0
    2.8955    1.3439    0.7437 O   0  0  0  0  0  0  0  0  0  0  0  0
    0.0555    0.4766    0.3533 C   0  0  0  0  0  0  0  0  0  0  0  0
   -1.1842    0.0025    0.1535 C   0  0  0  0  0  0  0  0  0  0  0  0
   -1.4462   -1.0373   -0.8429 C   0  0  0  0  0  0  0  0  0  0  0  0
   -0.9129   -2.3249   -0.6851 C   0  0  0  0  0  0  0  0  0  0  0  0
   -1.1477   -3.3098   -1.6467 C   0  0  0  0  0  0  0  0  0  0  0  0
   -1.9101   -3.0147   -2.7759 C   0  0  0  0  0  0  0  0  0  0  0  0
   -2.4359   -1.7352   -2.9478 C   0  0  0  0  0  0  0  0  0  0  0  0
   -2.2016   -0.7486   -1.9880 C   0  0  0  0  0  0  0  0  0  0  0  0
   -4.4184    1.5401    1.3301 C   0  0  0  0  0  0  0  0  0  0  0  0
   -5.8019    1.3365    1.4323 C   0  0  0  0  0  0  0  0  0  0  0  0
   -9.4382    0.5758    1.6310 H   0  0  0  0  0  0  0  0  0  0  0  0
   -5.8883   -1.9866    0.7287 H   0  0  0  0  0  0  0  0  0  0  0  0
   -3.4887   -1.6443    0.5902 H   0  0  0  0  0  0  0  0  0  0  0  0
    0.5803    3.1622    2.4905 H   0  0  0  0  0  0  0  0  0  0  0  0
    3.1565    3.9865    2.6484 H   0  0  0  0  0  0  0  0  0  0  0  0
    5.5105    3.1026    1.6412 H   0  0  0  0  0  0  0  0  0  0  0  0
    6.9040    1.7045    0.1735 H   0  0  0  0  0  0  0  0  0  0  0  0
    8.2444    0.1562   -1.1634 H   0  0  0  0  0  0  0  0  0  0  0  0
    4.7079   -2.2299   -1.9314 H   0  0  0  0  0  0  0  0  0  0  0  0
    3.3775   -0.6752   -0.5880 H   0  0  0  0  0  0  0  0  0  0  0  0
    0.9533    0.1327   -0.1328 H   0  0  0  0  0  0  0  0  0  0  0  0
   -0.3189   -2.5721    0.1922 H   0  0  0  0  0  0  0  0  0  0  0  0
   -0.7369   -4.3077   -1.5147 H   0  0  0  0  0  0  0  0  0  0  0  0
   -2.0931   -3.7820   -3.5242 H   0  0  0  0  0  0  0  0  0  0  0  0
   -3.0270   -1.5042   -3.8303 H   0  0  0  0  0  0  0  0  0  0  0  0
   -2.6153    0.2467   -2.1373 H   0  0  0  0  0  0  0  0  0  0  0  0
   -4.0520    2.5512    1.4908 H   0  0  0  0  0  0  0  0  0  0  0  0
   -6.4412    2.1790    1.6852 H   0  0  0  0  0  0  0  0  0  0  0  0
  1  2  2  0
  2  3  1  0
  2  4  1  0
  4  5  2  0
  5  6  1  0
  6  7  2  0
  7  8  1  0
  8  9  1  0
  9 10  2  0
  9 11  1  0
 11 12  2  3
 12 13  1  0
 13 14  2  0
 14 15  1  0
 15 16  2  0
 16 17  1  0
 17 18  2  0
 18 19  1  0
 19 20  2  0
 20 21  1  0
 21 22  2  0
 21 23  1  0
 20 24  1  0
 24 25  2  0
 16 26  1  0
 11 27  1  0
 27 28  2  0
 28 29  1  0
 29 30  2  0
 30 31  1  0
 31 32  2  0
 32 33  1  0
 33 34  2  0
  7 35  1  0
 35 36  2  0
 36  4  1  0
 28  8  1  0
 34 29  1  0
 26 13  1  0
 25 17  1  0
  3 37  1  0
  5 38  1  0
  6 39  1  0
 12 40  1  0
 14 41  1  0
 15 42  1  0
 18 43  1  0
 19 44  1  0
 24 45  1  0
 25 46  1  0
 27 47  1  0
 30 48  1  0
 31 49  1  0
 32 50  1  0
 33 51  1  0
 34 52  1  0
 35 53  1  0
 36 54  1  0
M  CHG  2  21   1  23  -1
M  END
$$$$
