
     RDKit          3D

 50 53  0  0  0  0  0  0  0  0999 V2000
   -3.5092   -0.1914    2.3380 C   0  0  0  0  0  0  0  0  0  0  0  0
   -2.2897    0.3511    1.8513 O   0  0  0  0  0  0  0  0  0  0  0  0
   -2.1890    0.3220    0.4755 C   0  0  0  0  0  0  0  0  0  0  0  0
   -1.0614    0.8182    0.0025 N   0  0  0  0  0  0  0  0  0  0  0  0
   -0.9594    0.7887   -1.3183 C   0  0  0  0  0  0  0  0  0  0  0  0
    0.2130    1.2749   -1.9547 N   0  0  0  0  0  0  0  0  0  0  0  0
    0.7921    2.3883   -1.4064 N   0  0  0  0  0  0  0  0  0  0  0  0
    1.7531    2.2217   -0.5392 C   0  0  0  0  0  0  0  0  0  0  0  0
    2.3954    1.0124   -0.0885 C   0  0  0  0  0  0  0  0  0  0  0  0
    2.3257   -0.3211   -0.4431 C   0  0  0  0  0  0  0  0  0  0  0  0
    3.2350   -1.0211    0.3885 C   0  0  0  0  0  0  0  0  0  0  0  0
    3.8315   -0.0768    1.1955 C   0  0  0  0  0  0  0  0  0  0  0  0
    4.8194   -0.1283    2.2652 C   0  0  0  0  0  0  0  0  0  0  0  0
    4.7873   -1.2063    3.1666 C   0  0  0  0  0  0  0  0  0  0  0  0
    5.6885   -1.2846    4.2361 C   0  0  0  0  0  0  0  0  0  0  0  0
    6.6434   -0.2875    4.4290 C   0  0  0  0  0  0  0  0  0  0  0  0
    6.7069    0.7880    3.5471 C   0  0  0  0  0  0  0  0  0  0  0  0
    5.8015    0.8523    2.4757 C   0  0  0  0  0  0  0  0  0  0  0  0
    5.9596    1.9589    1.5513 N   0  0  0  0  0  4  0  0  0  0  0  0
    5.7920    3.0994    2.0060 O   0  0  0  0  0  0  0  0  0  0  0  0
    6.3126    1.6865    0.3954 O   0  0  0  0  0  1  0  0  0  0  0  0
    3.3178    1.1533    0.9164 O   0  0  0  0  0  0  0  0  0  0  0  0
   -1.8929    0.2954   -2.1285 N   0  0  0  0  0  0  0  0  0  0  0  0
   -2.9999   -0.1760   -1.5612 C   0  0  0  0  0  0  0  0  0  0  0  0
   -3.9920   -0.7261   -2.3794 N   0  0  0  0  0  0  0  0  0  0  0  0
   -3.9734   -0.2319   -3.7671 C   0  0  0  0  0  0  0  0  0  0  0  0
   -5.0310   -0.9668   -4.6049 C   0  0  0  0  0  0  0  0  0  0  0  0
   -6.3359   -0.8638   -4.0147 O   0  0  0  0  0  0  0  0  0  0  0  0
   -6.3277   -1.4523   -2.7052 C   0  0  0  0  0  0  0  0  0  0  0  0
   -5.3346   -0.7412   -1.7735 C   0  0  0  0  0  0  0  0  0  0  0  0
   -3.1819   -0.1837   -0.2470 N   0  0  0  0  0  0  0  0  0  0  0  0
   -4.3715    0.3828    1.9813 H   0  0  0  0  0  0  0  0  0  0  0  0
   -3.4937   -0.1212    3.4300 H   0  0  0  0  0  0  0  0  0  0  0  0
   -3.6068   -1.2506    2.0753 H   0  0  0  0  0  0  0  0  0  0  0  0
   -0.0926    1.3988   -2.9204 H   0  0  0  0  0  0  0  0  0  0  0  0
    2.1494    3.1497   -0.0915 H   0  0  0  0  0  0  0  0  0  0  0  0
    1.6963   -0.7462   -1.2111 H   0  0  0  0  0  0  0  0  0  0  0  0
    3.4363   -2.0830    0.3858 H   0  0  0  0  0  0  0  0  0  0  0  0
    4.0413   -1.9923    3.0579 H   0  0  0  0  0  0  0  0  0  0  0  0
    5.6367   -2.1256    4.9250 H   0  0  0  0  0  0  0  0  0  0  0  0
    7.3379   -0.3519    5.2637 H   0  0  0  0  0  0  0  0  0  0  0  0
    7.4581    1.5621    3.6896 H   0  0  0  0  0  0  0  0  0  0  0  0
   -4.1943    0.8434   -3.7745 H   0  0  0  0  0  0  0  0  0  0  0  0
   -2.9973   -0.3946   -4.2392 H   0  0  0  0  0  0  0  0  0  0  0  0
   -5.0833   -0.5265   -5.6056 H   0  0  0  0  0  0  0  0  0  0  0  0
   -4.7745   -2.0269   -4.7203 H   0  0  0  0  0  0  0  0  0  0  0  0
   -6.0887   -2.5190   -2.7949 H   0  0  0  0  0  0  0  0  0  0  0  0
   -7.3408   -1.3717   -2.2985 H   0  0  0  0  0  0  0  0  0  0  0  0
   -5.3367   -1.2698   -0.8128 H   0  0  0  0  0  0  0  0  0  0  0  0
   -5.6726    0.2903   -1.6094 H   0  0  0  0  0  0  0  0  0  0  0  0
  1  2  1  0
  2  3  1  0
  3  4  2  0
  4  5  1  0
  5  6  1  0
  6  7  1  0
  7  8  2  3
  8  9  1  0
  9 10  2  0
 10 11  1  0
 11 12  2  0
 12 13  1  0
 13 14  2  0
 14 15  1  0
 15 16  2  0
 16 17  1  0
 17 18  2  0
 18 19  1  0
 19 20  2  0
 19 21  1  0
 12 22  1  0
  5 23  2  0
 23 24  1  0
 24 25  1  0
 25 26  1  0
 26 27  1  0
 27 28  1  0
 28 29  1  0
 29 30  1  0
 24 31  2  0
 31  3  1  0
 22  9  1  0
 30 25  1  0
 18 13  1  0
  1 32  1  0
  1 33  1  0
  1 34  1  0
  6 35  1  0
  8 36  1  0
 10 37  1  0
 11 38  1  0
 14 39  1  0
 15 40  1  0
 16 41  1  0
 17 42  1  0
 26 43  1  0
 26 44  1  0
 27 45  1  0
 27 46  1  0
 29 47  1  0
 29 48  1  0
 30 49  1  0
 30 50  1  0
M  CHG  2  19   1  21  -1
M  END
$$$$
