
     RDKit          3D

 48 49  0  0  0  0  0  0  0  0999 V2000
    2.3244   -2.9426    0.8352 C   0  0  0  0  0  0  0  0  0  0  0  0
    2.6594   -1.5835    1.0843 O   0  0  0  0  0  0  0  0  0  0  0  0
    1.6380   -0.6686    1.0515 C   0  0  0  0  0  0  0  0  0  0  0  0
    0.3000   -0.9677    0.7612 C   0  0  0  0  0  0  0  0  0  0  0  0
   -0.6745    0.0382    0.7579 C   0  0  0  0  0  0  0  0  0  0  0  0
   -2.0321   -0.1940    0.4850 N   0  0  0  0  0  0  0  0  0  0  0  0
   -2.6786   -1.3924    0.2431 C   0  0  0  0  0  0  0  0  0  0  0  0
   -2.1690   -2.5085    0.2076 O   0  0  0  0  0  0  0  0  0  0  0  0
   -4.1876   -1.1907   -0.0433 C   0  0  0  0  0  0  0  0  0  0  0  0
   -4.4605   -1.3598   -1.5483 C   0  0  0  0  0  0  0  0  0  0  0  0
   -4.3615   -0.0333   -2.2949 C   0  0  0  0  0  0  0  0  0  0  0  0
   -5.2799    1.0280   -1.6830 C   0  0  0  0  0  0  0  0  0  0  0  0
   -5.7392    0.6813   -0.2666 C   0  0  0  0  0  0  0  0  0  0  0  0
   -4.6320    0.1255    0.5064 N   0  0  0  0  0  0  0  0  0  0  0  0
   -0.3008    1.3568    1.0423 C   0  0  0  0  0  0  0  0  0  0  0  0
    1.0267    1.6679    1.3352 C   0  0  0  0  0  0  0  0  0  0  0  0
    1.9913    0.6605    1.3234 C   0  0  0  0  0  0  0  0  0  0  0  0
    3.2827    0.9662    1.6685 O   0  0  0  0  0  0  0  0  0  0  0  0
    3.9699    1.6729    0.6275 C   0  0  0  0  0  0  0  0  0  0  0  0
    4.9810    0.7536   -0.0766 C   0  0  0  0  0  0  0  0  0  0  0  0
    5.7257    1.5243   -1.1675 C   0  0  0  0  0  0  0  0  0  0  0  0
    5.9758    0.1464    0.9163 C   0  0  0  0  0  0  0  0  0  0  0  0
    1.6239   -3.3212    1.5871 H   0  0  0  0  0  0  0  0  0  0  0  0
    1.9296   -3.0706   -0.1778 H   0  0  0  0  0  0  0  0  0  0  0  0
    3.2431   -3.5318    0.9074 H   0  0  0  0  0  0  0  0  0  0  0  0
    0.0128   -1.9861    0.5373 H   0  0  0  0  0  0  0  0  0  0  0  0
   -2.6738    0.5974    0.5165 H   0  0  0  0  0  0  0  0  0  0  0  0
   -4.7145   -1.9826    0.5037 H   0  0  0  0  0  0  0  0  0  0  0  0
   -5.4718   -1.7638   -1.6878 H   0  0  0  0  0  0  0  0  0  0  0  0
   -3.7679   -2.0821   -1.9967 H   0  0  0  0  0  0  0  0  0  0  0  0
   -4.6059   -0.1730   -3.3545 H   0  0  0  0  0  0  0  0  0  0  0  0
   -3.3245    0.3240   -2.2622 H   0  0  0  0  0  0  0  0  0  0  0  0
   -4.7538    1.9910   -1.6820 H   0  0  0  0  0  0  0  0  0  0  0  0
   -6.1647    1.1600   -2.3172 H   0  0  0  0  0  0  0  0  0  0  0  0
   -6.5809   -0.0223   -0.2901 H   0  0  0  0  0  0  0  0  0  0  0  0
   -6.1065    1.5905    0.2233 H   0  0  0  0  0  0  0  0  0  0  0  0
   -4.9301   -0.0217    1.4739 H   0  0  0  0  0  0  0  0  0  0  0  0
   -1.0396    2.1539    1.0573 H   0  0  0  0  0  0  0  0  0  0  0  0
    1.3054    2.6880    1.5842 H   0  0  0  0  0  0  0  0  0  0  0  0
    4.4955    2.5072    1.1066 H   0  0  0  0  0  0  0  0  0  0  0  0
    3.2844    2.1148   -0.1079 H   0  0  0  0  0  0  0  0  0  0  0  0
    4.4338   -0.0733   -0.5485 H   0  0  0  0  0  0  0  0  0  0  0  0
    6.3167    2.3421   -0.7408 H   0  0  0  0  0  0  0  0  0  0  0  0
    6.4100    0.8617   -1.7097 H   0  0  0  0  0  0  0  0  0  0  0  0
    5.0255    1.9524   -1.8927 H   0  0  0  0  0  0  0  0  0  0  0  0
    6.5254    0.9289    1.4498 H   0  0  0  0  0  0  0  0  0  0  0  0
    5.4655   -0.4772    1.6570 H   0  0  0  0  0  0  0  0  0  0  0  0
    6.7031   -0.4867    0.3985 H   0  0  0  0  0  0  0  0  0  0  0  0
  1  2  1  0
  2  3  1  0
  3  4  2  0
  4  5  1  0
  5  6  1  0
  6  7  1  0
  7  8  2  0
  7  9  1  0
  9 10  1  0
 10 11  1  0
 11 12  1  0
 12 13  1  0
 13 14  1  0
  5 15  2  0
 15 16  1  0
 16 17  2  0
 17 18  1  0
 18 19  1  0
 19 20  1  0
 20 21  1  0
 20 22  1  0
 17  3  1  0
 14  9  1  0
  1 23  1  0
  1 24  1  0
  1 25  1  0
  4 26  1  0
  6 27  1  0
  9 28  1  0
 10 29  1  0
 10 30  1  0
 11 31  1  0
 11 32  1  0
 12 33  1  0
 12 34  1  0
 13 35  1  0
 13 36  1  0
 14 37  1  0
 15 38  1  0
 16 39  1  0
 19 40  1  0
 19 41  1  0
 20 42  1  0
 21 43  1  0
 21 44  1  0
 21 45  1  0
 22 46  1  0
 22 47  1  0
 22 48  1  0
M  END
$$$$
