
     RDKit          3D

 38 39  0  0  0  0  0  0  0  0999 V2000
   -4.1319    2.8740    1.7303 C   0  0  0  0  0  0  0  0  0  0  0  0
   -3.8944    1.5535    1.1672 N   0  0  0  0  0  0  0  0  0  0  0  0
   -2.7381    1.5659    0.2691 C   0  0  0  0  0  0  0  0  0  0  0  0
   -2.4639    0.1805   -0.2768 C   0  0  0  0  0  0  0  0  0  0  0  0
   -3.3226   -0.3343   -1.2654 C   0  0  0  0  0  0  0  0  0  0  0  0
   -3.1187   -1.6049   -1.7982 C   0  0  0  0  0  0  0  0  0  0  0  0
   -2.0545   -2.3781   -1.3482 C   0  0  0  0  0  0  0  0  0  0  0  0
   -1.1986   -1.8878   -0.3587 C   0  0  0  0  0  0  0  0  0  0  0  0
   -1.4022   -0.6165    0.1916 C   0  0  0  0  0  0  0  0  0  0  0  0
   -0.6016   -0.0537    1.1522 O   0  0  0  0  0  0  0  0  0  0  0  0
    0.2494   -0.9123    1.9044 C   0  0  0  0  0  0  0  0  0  0  0  0
    1.6307   -1.1603    1.2838 C   0  0  0  0  0  0  0  0  0  0  0  0
    2.3481   -2.0645    1.7020 O   0  0  0  0  0  0  0  0  0  0  0  0
    1.9318   -0.2617    0.2765 N   0  0  0  0  0  0  0  0  0  0  0  0
    3.1045   -0.1827   -0.4967 C   0  0  0  0  0  0  0  0  0  0  0  0
    4.2162   -1.0065   -0.3144 C   0  0  0  0  0  0  0  0  0  0  0  0
    5.3455   -0.8615   -1.1270 C   0  0  0  0  0  0  0  0  0  0  0  0
    5.3720    0.1078   -2.1269 C   0  0  0  0  0  0  0  0  0  0  0  0
    4.2685    0.9350   -2.3160 C   0  0  0  0  0  0  0  0  0  0  0  0
    3.1406    0.7903   -1.5040 C   0  0  0  0  0  0  0  0  0  0  0  0
   -3.2768    3.2202    2.3201 H   0  0  0  0  0  0  0  0  0  0  0  0
   -4.3457    3.6066    0.9453 H   0  0  0  0  0  0  0  0  0  0  0  0
   -5.0031    2.8369    2.3917 H   0  0  0  0  0  0  0  0  0  0  0  0
   -3.7067    0.8924    1.9206 H   0  0  0  0  0  0  0  0  0  0  0  0
   -2.9263    2.2375   -0.5788 H   0  0  0  0  0  0  0  0  0  0  0  0
   -1.8545    1.9623    0.7823 H   0  0  0  0  0  0  0  0  0  0  0  0
   -4.1642    0.2622   -1.6136 H   0  0  0  0  0  0  0  0  0  0  0  0
   -3.7904   -1.9893   -2.5612 H   0  0  0  0  0  0  0  0  0  0  0  0
   -1.8881   -3.3678   -1.7667 H   0  0  0  0  0  0  0  0  0  0  0  0
   -0.3767   -2.5272   -0.0519 H   0  0  0  0  0  0  0  0  0  0  0  0
   -0.2366   -1.8675    2.1355 H   0  0  0  0  0  0  0  0  0  0  0  0
    0.4303   -0.4111    2.8624 H   0  0  0  0  0  0  0  0  0  0  0  0
    1.1874    0.3889    0.0438 H   0  0  0  0  0  0  0  0  0  0  0  0
    4.2395   -1.7726    0.4539 H   0  0  0  0  0  0  0  0  0  0  0  0
    6.2046   -1.5100   -0.9744 H   0  0  0  0  0  0  0  0  0  0  0  0
    6.2512    0.2168   -2.7564 H   0  0  0  0  0  0  0  0  0  0  0  0
    4.2840    1.6923   -3.0953 H   0  0  0  0  0  0  0  0  0  0  0  0
    2.2913    1.4471   -1.6734 H   0  0  0  0  0  0  0  0  0  0  0  0
  1  2  1  0
  2  3  1  0
  3  4  1  0
  4  5  2  0
  5  6  1  0
  6  7  2  0
  7  8  1  0
  8  9  2  0
  9 10  1  0
 10 11  1  0
 11 12  1  0
 12 13  2  0
 12 14  1  0
 14 15  1  0
 15 16  2  0
 16 17  1  0
 17 18  2  0
 18 19  1  0
 19 20  2  0
  9  4  1  0
 20 15  1  0
  1 21  1  0
  1 22  1  0
  1 23  1  0
  2 24  1  0
  3 25  1  0
  3 26  1  0
  5 27  1  0
  6 28  1  0
  7 29  1  0
  8 30  1  0
 11 31  1  0
 11 32  1  0
 14 33  1  0
 16 34  1  0
 17 35  1  0
 18 36  1  0
 19 37  1  0
 20 38  1  0
M  END
$$$$
