
     RDKit          3D

 45 47  0  0  0  0  0  0  0  0999 V2000
    3.1064   -2.2526   -0.7943 O   0  0  0  0  0  0  0  0  0  0  0  0
    2.5925   -1.5342    0.0597 C   0  0  0  0  0  0  0  0  0  0  0  0
    3.3345   -0.6826    0.8577 N   0  0  0  0  0  0  0  0  0  0  0  0
    4.6885   -0.5126    0.5098 N   0  0  0  0  0  0  0  0  0  0  0  0
    5.1978    0.7765    0.5010 C   0  0  0  0  0  0  0  0  0  0  0  0
    4.5591    1.7020    1.0085 O   0  0  0  0  0  0  0  0  0  0  0  0
    6.4919    0.9564   -0.1408 C   0  0  0  0  0  0  0  0  0  0  0  0
    7.1932    2.1429   -0.2655 C   0  0  0  0  0  0  0  0  0  0  0  0
    8.4319    1.9811   -0.9506 C   0  0  0  0  0  0  0  0  0  0  0  0
    8.6405    0.6748   -1.3299 C   0  0  0  0  0  0  0  0  0  0  0  0
    7.3497   -0.3426   -0.8607 S   0  0  0  0  0  0  0  0  0  0  0  0
    1.1153   -1.5143    0.2541 C   0  0  0  0  0  0  0  0  0  0  0  0
    0.5232   -1.0684    1.4458 C   0  0  0  0  0  0  0  0  0  0  0  0
   -0.8686   -1.0676    1.5809 C   0  0  0  0  0  0  0  0  0  0  0  0
   -1.6643   -1.5170    0.5233 C   0  0  0  0  0  0  0  0  0  0  0  0
   -3.4366   -1.5292    0.6778 S   0  0  0  0  0  6  0  0  0  0  0  0
   -3.7796   -0.9677    1.9667 O   0  0  0  0  0  0  0  0  0  0  0  0
   -3.8763   -2.8540    0.2963 O   0  0  0  0  0  0  0  0  0  0  0  0
   -3.9185   -0.4283   -0.5281 N   0  0  0  0  0  0  0  0  0  0  0  0
   -3.5012    0.9900   -0.3890 C   0  0  0  0  0  0  0  0  0  0  0  0
   -4.4658    1.7923    0.4787 C   0  0  0  0  0  0  0  0  0  0  0  0
   -5.9092    1.6435    0.0094 C   0  0  0  0  0  0  0  0  0  0  0  0
   -6.2927    0.1727   -0.1164 C   0  0  0  0  0  0  0  0  0  0  0  0
   -5.3135   -0.5699   -1.0163 C   0  0  0  0  0  0  0  0  0  0  0  0
   -1.0858   -1.9842   -0.6599 C   0  0  0  0  0  0  0  0  0  0  0  0
    0.3043   -1.9827   -0.7911 C   0  0  0  0  0  0  0  0  0  0  0  0
    2.9071    0.1288    1.3031 H   0  0  0  0  0  0  0  0  0  0  0  0
    5.0793   -1.2185   -0.1146 H   0  0  0  0  0  0  0  0  0  0  0  0
    6.8256    3.0867    0.1225 H   0  0  0  0  0  0  0  0  0  0  0  0
    9.1326    2.7819   -1.1540 H   0  0  0  0  0  0  0  0  0  0  0  0
    9.4900    0.2669   -1.8612 H   0  0  0  0  0  0  0  0  0  0  0  0
    1.1250   -0.7443    2.2910 H   0  0  0  0  0  0  0  0  0  0  0  0
   -1.3205   -0.7282    2.5111 H   0  0  0  0  0  0  0  0  0  0  0  0
   -3.4565    1.4257   -1.3952 H   0  0  0  0  0  0  0  0  0  0  0  0
   -2.4861    1.0621    0.0126 H   0  0  0  0  0  0  0  0  0  0  0  0
   -4.1814    2.8506    0.4585 H   0  0  0  0  0  0  0  0  0  0  0  0
   -4.3919    1.4711    1.5233 H   0  0  0  0  0  0  0  0  0  0  0  0
   -6.0305    2.1381   -0.9622 H   0  0  0  0  0  0  0  0  0  0  0  0
   -6.5832    2.1465    0.7116 H   0  0  0  0  0  0  0  0  0  0  0  0
   -6.3131   -0.2870    0.8787 H   0  0  0  0  0  0  0  0  0  0  0  0
   -7.3053    0.0913   -0.5271 H   0  0  0  0  0  0  0  0  0  0  0  0
   -5.3594   -0.1687   -2.0366 H   0  0  0  0  0  0  0  0  0  0  0  0
   -5.5939   -1.6248   -1.0982 H   0  0  0  0  0  0  0  0  0  0  0  0
   -1.7097   -2.3519   -1.4723 H   0  0  0  0  0  0  0  0  0  0  0  0
    0.7554   -2.3505   -1.7117 H   0  0  0  0  0  0  0  0  0  0  0  0
  1  2  2  0
  2  3  1  0
  3  4  1  0
  4  5  1  0
  5  6  2  0
  5  7  1  0
  7  8  2  0
  8  9  1  0
  9 10  2  0
 10 11  1  0
  2 12  1  0
 12 13  2  0
 13 14  1  0
 14 15  2  0
 15 16  1  0
 16 17  2  0
 16 18  2  0
 16 19  1  0
 19 20  1  0
 20 21  1  0
 21 22  1  0
 22 23  1  0
 23 24  1  0
 15 25  1  0
 25 26  2  0
 11  7  1  0
 26 12  1  0
 24 19  1  0
  3 27  1  0
  4 28  1  0
  8 29  1  0
  9 30  1  0
 10 31  1  0
 13 32  1  0
 14 33  1  0
 20 34  1  0
 20 35  1  0
 21 36  1  0
 21 37  1  0
 22 38  1  0
 22 39  1  0
 23 40  1  0
 23 41  1  0
 24 42  1  0
 24 43  1  0
 25 44  1  0
 26 45  1  0
M  END
$$$$
