
     RDKit          3D

 45 47  0  0  0  0  0  0  0  0999 V2000
   -5.1783    2.6722   -0.4056 C   0  0  0  0  0  0  0  0  0  0  0  0
   -5.3394    1.2605    0.1405 C   0  0  0  0  0  0  0  0  0  0  0  0
   -4.3307    0.3555   -0.4243 N   0  0  0  0  0  0  0  0  0  0  0  0
   -4.7161   -0.3410   -1.6588 C   0  0  0  0  0  0  0  0  0  0  0  0
   -5.3288   -1.6995   -1.3493 C   0  0  0  0  0  0  0  0  0  0  0  0
   -3.0723    0.1982    0.1474 C   0  0  0  0  0  0  0  0  0  0  0  0
   -2.1485   -0.7546   -0.3155 C   0  0  0  0  0  0  0  0  0  0  0  0
   -0.8762   -0.9210    0.2572 C   0  0  0  0  0  0  0  0  0  0  0  0
   -0.4658   -0.1204    1.3180 C   0  0  0  0  0  0  0  0  0  0  0  0
    0.8302   -0.2858    1.9818 C   0  0  0  0  0  0  0  0  0  0  0  0
    2.0408   -0.3248    1.4092 C   0  0  0  0  0  0  0  0  0  0  0  0
    3.2682   -0.4824    2.2386 C   0  0  0  0  0  0  0  0  0  0  0  0
    3.3548   -0.6040    3.4424 O   0  0  0  0  0  0  0  0  0  0  0  0
    4.3874   -0.4599    1.2913 C   0  0  0  0  0  0  0  0  0  0  0  0
    5.7381   -0.5724    1.5673 C   0  0  0  0  0  0  0  0  0  0  0  0
    6.6267   -0.5217    0.4862 C   0  0  0  0  0  0  0  0  0  0  0  0
    6.1534   -0.3607   -0.8383 C   0  0  0  0  0  0  0  0  0  0  0  0
    7.0803   -0.3056   -1.9956 C   0  0  0  0  0  0  0  0  0  0  0  0
    6.7546   -0.1756   -3.1600 O   0  0  0  0  0  0  0  0  0  0  0  0
    8.3696   -0.4164   -1.6346 O   0  0  0  0  0  0  0  0  0  0  0  0
    4.7779   -0.2485   -1.0925 C   0  0  0  0  0  0  0  0  0  0  0  0
    3.9175   -0.3013   -0.0091 C   0  0  0  0  0  0  0  0  0  0  0  0
    2.4517   -0.2081   -0.0174 C   0  0  0  0  0  0  0  0  0  0  0  0
    1.7726   -0.0691   -1.0108 O   0  0  0  0  0  0  0  0  0  0  0  0
   -1.3651    0.8218    1.8125 C   0  0  0  0  0  0  0  0  0  0  0  0
   -2.6357    0.9754    1.2335 C   0  0  0  0  0  0  0  0  0  0  0  0
   -5.2735    2.6856   -1.4963 H   0  0  0  0  0  0  0  0  0  0  0  0
   -5.9502    3.3278    0.0097 H   0  0  0  0  0  0  0  0  0  0  0  0
   -4.2019    3.0966   -0.1535 H   0  0  0  0  0  0  0  0  0  0  0  0
   -5.3202    1.2592    1.2361 H   0  0  0  0  0  0  0  0  0  0  0  0
   -6.3431    0.9013   -0.1209 H   0  0  0  0  0  0  0  0  0  0  0  0
   -5.4592    0.2560   -2.2030 H   0  0  0  0  0  0  0  0  0  0  0  0
   -3.8746   -0.4384   -2.3538 H   0  0  0  0  0  0  0  0  0  0  0  0
   -5.6296   -2.1981   -2.2761 H   0  0  0  0  0  0  0  0  0  0  0  0
   -4.6245   -2.3531   -0.8258 H   0  0  0  0  0  0  0  0  0  0  0  0
   -6.2166   -1.5953   -0.7169 H   0  0  0  0  0  0  0  0  0  0  0  0
   -2.3923   -1.4158   -1.1409 H   0  0  0  0  0  0  0  0  0  0  0  0
   -0.2205   -1.6860   -0.1510 H   0  0  0  0  0  0  0  0  0  0  0  0
    0.7635   -0.3602    3.0676 H   0  0  0  0  0  0  0  0  0  0  0  0
    6.0944   -0.6955    2.5861 H   0  0  0  0  0  0  0  0  0  0  0  0
    7.6951   -0.6083    0.6798 H   0  0  0  0  0  0  0  0  0  0  0  0
    8.8593   -0.3638   -2.4831 H   0  0  0  0  0  0  0  0  0  0  0  0
    4.3928   -0.1238   -2.1018 H   0  0  0  0  0  0  0  0  0  0  0  0
   -1.0940    1.4588    2.6513 H   0  0  0  0  0  0  0  0  0  0  0  0
   -3.2717    1.7424    1.6635 H   0  0  0  0  0  0  0  0  0  0  0  0
  1  2  1  0
  2  3  1  0
  3  4  1  0
  4  5  1  0
  3  6  1  0
  6  7  2  0
  7  8  1  0
  8  9  2  0
  9 10  1  0
 10 11  2  3
 11 12  1  0
 12 13  2  0
 12 14  1  0
 14 15  2  0
 15 16  1  0
 16 17  2  0
 17 18  1  0
 18 19  2  0
 18 20  1  0
 17 21  1  0
 21 22  2  0
 22 23  1  0
 23 24  2  0
  9 25  1  0
 25 26  2  0
 26  6  1  0
 23 11  1  0
 22 14  1  0
  1 27  1  0
  1 28  1  0
  1 29  1  0
  2 30  1  0
  2 31  1  0
  4 32  1  0
  4 33  1  0
  5 34  1  0
  5 35  1  0
  5 36  1  0
  7 37  1  0
  8 38  1  0
 10 39  1  0
 15 40  1  0
 16 41  1  0
 20 42  1  0
 21 43  1  0
 25 44  1  0
 26 45  1  0
M  END
$$$$
