
     RDKit          3D

 46 48  0  0  0  0  0  0  0  0999 V2000
    7.9026    0.1751   -0.4917 C   0  0  0  0  0  0  0  0  0  0  0  0
    7.0654    0.7901    0.4793 O   0  0  0  0  0  0  0  0  0  0  0  0
    5.7328    0.4914    0.4297 C   0  0  0  0  0  0  0  0  0  0  0  0
    4.9570    1.1196    1.4051 C   0  0  0  0  0  0  0  0  0  0  0  0
    3.5780    0.9026    1.4685 C   0  0  0  0  0  0  0  0  0  0  0  0
    2.9535    0.0477    0.5525 C   0  0  0  0  0  0  0  0  0  0  0  0
    1.4755   -0.1526    0.6596 C   0  0  0  0  0  0  0  0  0  0  0  0
    0.8420    0.4998    1.4902 O   0  0  0  0  0  0  0  0  0  0  0  0
    0.8132   -1.1547   -0.2819 C   0  0  0  0  0  0  0  0  0  0  0  0
   -0.5809   -1.2852    0.0712 N   0  0  0  0  0  0  0  0  0  0  0  0
   -1.0586   -2.1579    0.9932 C   0  0  0  0  0  0  0  0  0  0  0  0
   -0.4274   -2.9902    1.6222 O   0  0  0  0  0  0  0  0  0  0  0  0
   -2.4148   -1.9678    1.1074 N   0  0  0  0  0  0  0  0  0  0  0  0
   -2.8823   -0.7961    0.3681 C   0  0  0  0  0  0  0  0  0  0  0  0
   -3.2475    0.2920    1.3854 C   0  0  0  0  0  0  0  0  0  0  0  0
   -3.3125    1.7369    0.8981 C   0  0  0  0  0  0  0  0  0  0  0  0
   -4.1005    2.0442   -0.3706 C   0  0  0  0  0  0  0  0  0  0  0  0
   -5.1944    1.0531   -0.7423 C   0  0  0  0  0  0  0  0  0  0  0  0
   -4.6510   -0.1815   -1.4542 C   0  0  0  0  0  0  0  0  0  0  0  0
   -4.0310   -1.2350   -0.5431 C   0  0  0  0  0  0  0  0  0  0  0  0
   -1.5785   -0.4791   -0.3991 C   0  0  0  0  0  0  0  0  0  0  0  0
   -1.4473    0.3671   -1.2740 O   0  0  0  0  0  0  0  0  0  0  0  0
    3.7308   -0.5812   -0.4277 C   0  0  0  0  0  0  0  0  0  0  0  0
    5.1144   -0.3592   -0.4867 C   0  0  0  0  0  0  0  0  0  0  0  0
    7.8907   -0.9151   -0.3892 H   0  0  0  0  0  0  0  0  0  0  0  0
    8.9273    0.5152   -0.3135 H   0  0  0  0  0  0  0  0  0  0  0  0
    7.6216    0.4804   -1.5050 H   0  0  0  0  0  0  0  0  0  0  0  0
    5.4292    1.7858    2.1239 H   0  0  0  0  0  0  0  0  0  0  0  0
    2.9974    1.4062    2.2397 H   0  0  0  0  0  0  0  0  0  0  0  0
    1.2959   -2.1307   -0.1742 H   0  0  0  0  0  0  0  0  0  0  0  0
    0.8905   -0.7874   -1.3096 H   0  0  0  0  0  0  0  0  0  0  0  0
   -2.9305   -2.4442    1.8360 H   0  0  0  0  0  0  0  0  0  0  0  0
   -2.5196    0.2783    2.2100 H   0  0  0  0  0  0  0  0  0  0  0  0
   -4.2047    0.0303    1.8569 H   0  0  0  0  0  0  0  0  0  0  0  0
   -3.7417    2.3320    1.7156 H   0  0  0  0  0  0  0  0  0  0  0  0
   -2.2930    2.1243    0.7740 H   0  0  0  0  0  0  0  0  0  0  0  0
   -4.5570    3.0349   -0.2451 H   0  0  0  0  0  0  0  0  0  0  0  0
   -3.4068    2.1573   -1.2125 H   0  0  0  0  0  0  0  0  0  0  0  0
   -5.7994    0.7784    0.1289 H   0  0  0  0  0  0  0  0  0  0  0  0
   -5.8730    1.5599   -1.4405 H   0  0  0  0  0  0  0  0  0  0  0  0
   -3.9365    0.1120   -2.2320 H   0  0  0  0  0  0  0  0  0  0  0  0
   -5.4854   -0.6593   -1.9842 H   0  0  0  0  0  0  0  0  0  0  0  0
   -4.8304   -1.6641    0.0773 H   0  0  0  0  0  0  0  0  0  0  0  0
   -3.6876   -2.0593   -1.1842 H   0  0  0  0  0  0  0  0  0  0  0  0
    3.2950   -1.2480   -1.1657 H   0  0  0  0  0  0  0  0  0  0  0  0
    5.6795   -0.8660   -1.2627 H   0  0  0  0  0  0  0  0  0  0  0  0
  1  2  1  0
  2  3  1  0
  3  4  2  0
  4  5  1  0
  5  6  2  0
  6  7  1  0
  7  8  2  0
  7  9  1  0
  9 10  1  0
 10 11  1  0
 11 12  2  0
 11 13  1  0
 13 14  1  0
 14 15  1  0
 15 16  1  0
 16 17  1  0
 17 18  1  0
 18 19  1  0
 19 20  1  0
 14 21  1  0
 21 22  2  0
  6 23  1  0
 23 24  2  0
 24  3  1  0
 21 10  1  0
 20 14  1  0
  1 25  1  0
  1 26  1  0
  1 27  1  0
  4 28  1  0
  5 29  1  0
  9 30  1  0
  9 31  1  0
 13 32  1  0
 15 33  1  0
 15 34  1  0
 16 35  1  0
 16 36  1  0
 17 37  1  0
 17 38  1  0
 18 39  1  0
 18 40  1  0
 19 41  1  0
 19 42  1  0
 20 43  1  0
 20 44  1  0
 23 45  1  0
 24 46  1  0
M  END
$$$$
