
     RDKit          3D

 40 41  0  0  0  0  0  0  0  0999 V2000
   -0.5239   -0.1551   -0.9823 O   0  0  0  0  0  0  0  0  0  0  0  0
   -1.2346   -0.9415   -0.3627 C   0  0  0  0  0  0  0  0  0  0  0  0
   -0.7308   -2.3419    0.0213 C   0  0  0  0  0  0  0  0  0  0  0  0
    0.6921   -2.4316    0.0449 O   0  0  0  0  0  0  0  0  0  0  0  0
    1.2601   -1.7828    1.0987 C   0  0  0  0  0  0  0  0  0  0  0  0
    0.6430   -1.2714    2.0237 O   0  0  0  0  0  0  0  0  0  0  0  0
    2.7608   -1.7718    0.9683 C   0  0  0  0  0  0  0  0  0  0  0  0
    3.2201   -0.7391   -0.0537 C   0  0  0  0  0  0  0  0  0  0  0  0
    4.7290   -0.7699   -0.2839 C   0  0  0  0  0  0  0  0  0  0  0  0
    5.0326    0.5689   -0.9483 C   0  0  0  0  0  0  0  0  0  0  0  0
    3.9130    1.5183   -0.5205 C   0  0  0  0  0  0  0  0  0  0  0  0
    2.9944    0.7067    0.3869 C   0  0  0  0  0  0  0  0  0  0  0  0
   -2.5391   -0.7187    0.0495 N   0  0  0  0  0  0  0  0  0  0  0  0
   -3.3389    0.4436   -0.1199 C   0  0  0  0  0  0  0  0  0  0  0  0
   -2.8558    1.5715   -0.7985 C   0  0  0  0  0  0  0  0  0  0  0  0
   -3.6436    2.7173   -0.9662 C   0  0  0  0  0  0  0  0  0  0  0  0
   -4.9364    2.7653   -0.4589 C   0  0  0  0  0  0  0  0  0  0  0  0
   -5.4479    1.6644    0.2215 C   0  0  0  0  0  0  0  0  0  0  0  0
   -4.6579    0.5096    0.3930 C   0  0  0  0  0  0  0  0  0  0  0  0
   -5.2631   -0.6158    1.1265 N   0  0  0  0  0  4  0  0  0  0  0  0
   -6.3556   -0.4283    1.6808 O   0  0  0  0  0  0  0  0  0  0  0  0
   -4.6506   -1.6962    1.1511 O   0  0  0  0  0  1  0  0  0  0  0  0
   -1.1501   -2.6662    0.9813 H   0  0  0  0  0  0  0  0  0  0  0  0
   -1.0890   -3.0377   -0.7452 H   0  0  0  0  0  0  0  0  0  0  0  0
    3.0906   -2.7789    0.6864 H   0  0  0  0  0  0  0  0  0  0  0  0
    3.1891   -1.5737    1.9580 H   0  0  0  0  0  0  0  0  0  0  0  0
    2.7069   -0.9038   -1.0110 H   0  0  0  0  0  0  0  0  0  0  0  0
    5.2675   -0.8400    0.6693 H   0  0  0  0  0  0  0  0  0  0  0  0
    5.0381   -1.6152   -0.9065 H   0  0  0  0  0  0  0  0  0  0  0  0
    5.0323    0.4629   -2.0393 H   0  0  0  0  0  0  0  0  0  0  0  0
    6.0187    0.9436   -0.6558 H   0  0  0  0  0  0  0  0  0  0  0  0
    4.3023    2.4024   -0.0056 H   0  0  0  0  0  0  0  0  0  0  0  0
    3.3652    1.8671   -1.4036 H   0  0  0  0  0  0  0  0  0  0  0  0
    1.9497    1.0178    0.2899 H   0  0  0  0  0  0  0  0  0  0  0  0
    3.2913    0.8468    1.4336 H   0  0  0  0  0  0  0  0  0  0  0  0
   -2.9856   -1.4841    0.5568 H   0  0  0  0  0  0  0  0  0  0  0  0
   -1.8543    1.6027   -1.2182 H   0  0  0  0  0  0  0  0  0  0  0  0
   -3.2349    3.5749   -1.4973 H   0  0  0  0  0  0  0  0  0  0  0  0
   -5.5422    3.6588   -0.5918 H   0  0  0  0  0  0  0  0  0  0  0  0
   -6.4624    1.7211    0.6125 H   0  0  0  0  0  0  0  0  0  0  0  0
  1  2  2  0
  2  3  1  0
  3  4  1  0
  4  5  1  0
  5  6  2  0
  5  7  1  0
  7  8  1  0
  8  9  1  0
  9 10  1  0
 10 11  1  0
 11 12  1  0
  2 13  1  0
 13 14  1  0
 14 15  2  0
 15 16  1  0
 16 17  2  0
 17 18  1  0
 18 19  2  0
 19 20  1  0
 20 21  2  0
 20 22  1  0
 12  8  1  0
 19 14  1  0
  3 23  1  0
  3 24  1  0
  7 25  1  0
  7 26  1  0
  8 27  1  0
  9 28  1  0
  9 29  1  0
 10 30  1  0
 10 31  1  0
 11 32  1  0
 11 33  1  0
 12 34  1  0
 12 35  1  0
 13 36  1  0
 15 37  1  0
 16 38  1  0
 17 39  1  0
 18 40  1  0
M  CHG  2  20   1  22  -1
M  END
$$$$
