
     RDKit          3D

 63 68  0  0  0  0  0  0  0  0999 V2000
   -4.2993    2.8836    5.2896 C   0  0  0  0  0  0  0  0  0  0  0  0
   -3.8972    3.5195    4.0835 O   0  0  0  0  0  0  0  0  0  0  0  0
   -3.3883    2.7136    3.1024 C   0  0  0  0  0  0  0  0  0  0  0  0
   -3.1630    1.3418    3.2015 C   0  0  0  0  0  0  0  0  0  0  0  0
   -2.6317    0.6344    2.1165 C   0  0  0  0  0  0  0  0  0  0  0  0
   -2.3230    1.2854    0.9103 C   0  0  0  0  0  0  0  0  0  0  0  0
   -1.7385    0.5281   -0.2865 C   0  0  0  0  0  0  0  0  0  0  0  0
   -2.6241   -0.6380   -0.6915 C   0  0  0  0  0  0  0  0  0  0  0  0
   -3.8856   -0.4184   -1.2577 C   0  0  0  0  0  0  0  0  0  0  0  0
   -4.7058   -1.4964   -1.5909 C   0  0  0  0  0  0  0  0  0  0  0  0
   -4.2885   -2.8163   -1.3642 C   0  0  0  0  0  0  0  0  0  0  0  0
   -5.1199   -3.8993   -1.6956 C   0  0  0  0  0  0  0  0  0  0  0  0
   -4.7082   -5.2135   -1.4730 C   0  0  0  0  0  0  0  0  0  0  0  0
   -3.4596   -5.4626   -0.9156 C   0  0  0  0  0  0  0  0  0  0  0  0
   -2.6228   -4.3970   -0.5798 C   0  0  0  0  0  0  0  0  0  0  0  0
   -3.0162   -3.0584   -0.7944 C   0  0  0  0  0  0  0  0  0  0  0  0
   -2.1956   -1.9529   -0.4689 C   0  0  0  0  0  0  0  0  0  0  0  0
   -0.9629   -2.2197    0.0911 O   0  0  0  0  0  0  0  0  0  0  0  0
   -0.0008   -1.2153    0.1598 C   0  0  0  0  0  0  0  0  0  0  0  0
    1.2714   -1.6686    0.4519 N   0  0  0  0  0  0  0  0  0  0  0  0
    2.1976   -0.7696    0.5279 C   0  0  0  0  0  0  0  0  0  0  0  0
    2.0398    0.5852    0.3426 N   0  0  0  0  0  0  0  0  0  0  0  0
    3.2166    1.4519    0.4543 C   0  0  0  0  0  0  0  0  0  0  0  0
    3.9120    1.6447   -0.9118 C   0  0  0  0  0  0  0  0  0  0  0  0
    4.6112    0.4461   -1.4129 N   0  0  0  0  0  0  0  0  0  0  0  0
    5.8106    0.1204   -0.6059 C   0  0  0  0  0  0  0  0  0  0  0  0
    6.8639   -0.6543   -1.4130 C   0  0  0  0  0  0  0  0  0  0  0  0
    7.3904    0.1191   -2.4987 O   0  0  0  0  0  0  0  0  0  0  0  0
    6.4277    1.0132   -3.0727 C   0  0  0  0  0  0  0  0  0  0  0  0
    4.9727    0.5742   -2.8439 C   0  0  0  0  0  0  0  0  0  0  0  0
    0.7899    1.0693   -0.0163 C   0  0  0  0  0  0  0  0  0  0  0  0
    0.5190    2.2928   -0.3555 N   0  0  0  0  0  0  0  0  0  0  0  0
   -0.3304    0.0785   -0.0310 C   0  0  0  0  0  0  0  0  0  0  0  0
   -2.5478    2.6661    0.8254 C   0  0  0  0  0  0  0  0  0  0  0  0
   -3.0737    3.3698    1.9119 C   0  0  0  0  0  0  0  0  0  0  0  0
   -4.7115    3.6518    5.9510 H   0  0  0  0  0  0  0  0  0  0  0  0
   -5.0873    2.1462    5.1046 H   0  0  0  0  0  0  0  0  0  0  0  0
   -3.4437    2.4294    5.8003 H   0  0  0  0  0  0  0  0  0  0  0  0
   -3.3853    0.7880    4.1069 H   0  0  0  0  0  0  0  0  0  0  0  0
   -2.4642   -0.4358    2.2228 H   0  0  0  0  0  0  0  0  0  0  0  0
   -1.7215    1.1947   -1.1608 H   0  0  0  0  0  0  0  0  0  0  0  0
   -4.2416    0.5953   -1.4293 H   0  0  0  0  0  0  0  0  0  0  0  0
   -5.6829   -1.2954   -2.0255 H   0  0  0  0  0  0  0  0  0  0  0  0
   -6.1007   -3.7250   -2.1326 H   0  0  0  0  0  0  0  0  0  0  0  0
   -5.3622   -6.0404   -1.7361 H   0  0  0  0  0  0  0  0  0  0  0  0
   -3.1317   -6.4839   -0.7410 H   0  0  0  0  0  0  0  0  0  0  0  0
   -1.6483   -4.6167   -0.1463 H   0  0  0  0  0  0  0  0  0  0  0  0
    3.2273   -1.0801    0.7666 H   0  0  0  0  0  0  0  0  0  0  0  0
    2.9268    2.4313    0.8533 H   0  0  0  0  0  0  0  0  0  0  0  0
    3.9192    1.0516    1.1957 H   0  0  0  0  0  0  0  0  0  0  0  0
    4.6124    2.4872   -0.8429 H   0  0  0  0  0  0  0  0  0  0  0  0
    3.1414    1.9414   -1.6346 H   0  0  0  0  0  0  0  0  0  0  0  0
    6.2822    1.0403   -0.2351 H   0  0  0  0  0  0  0  0  0  0  0  0
    5.5109   -0.4773    0.2609 H   0  0  0  0  0  0  0  0  0  0  0  0
    6.4477   -1.5851   -1.8156 H   0  0  0  0  0  0  0  0  0  0  0  0
    7.7053   -0.9272   -0.7680 H   0  0  0  0  0  0  0  0  0  0  0  0
    6.6373    1.0734   -4.1456 H   0  0  0  0  0  0  0  0  0  0  0  0
    6.5994    2.0104   -2.6515 H   0  0  0  0  0  0  0  0  0  0  0  0
    4.8372   -0.4170   -3.2954 H   0  0  0  0  0  0  0  0  0  0  0  0
    4.2891    1.2442   -3.3781 H   0  0  0  0  0  0  0  0  0  0  0  0
    1.3393    2.8918   -0.3215 H   0  0  0  0  0  0  0  0  0  0  0  0
   -2.2985    3.2081   -0.0841 H   0  0  0  0  0  0  0  0  0  0  0  0
   -3.2357    4.4413    1.8287 H   0  0  0  0  0  0  0  0  0  0  0  0
  1  2  1  0
  2  3  1  0
  3  4  2  0
  4  5  1  0
  5  6  2  0
  6  7  1  0
  7  8  1  0
  8  9  2  0
  9 10  1  0
 10 11  2  0
 11 12  1  0
 12 13  2  0
 13 14  1  0
 14 15  2  0
 15 16  1  0
 16 17  2  0
 17 18  1  0
 18 19  1  0
 19 20  1  0
 20 21  2  0
 21 22  1  0
 22 23  1  0
 23 24  1  0
 24 25  1  0
 25 26  1  0
 26 27  1  0
 27 28  1  0
 28 29  1  0
 29 30  1  0
 22 31  1  0
 31 32  2  3
 31 33  1  0
  6 34  1  0
 34 35  2  0
 35  3  1  0
 33  7  1  0
 17  8  1  0
 33 19  2  0
 16 11  1  0
 30 25  1  0
  1 36  1  0
  1 37  1  0
  1 38  1  0
  4 39  1  0
  5 40  1  0
  7 41  1  0
  9 42  1  0
 10 43  1  0
 12 44  1  0
 13 45  1  0
 14 46  1  0
 15 47  1  0
 21 48  1  0
 23 49  1  0
 23 50  1  0
 24 51  1  0
 24 52  1  0
 26 53  1  0
 26 54  1  0
 27 55  1  0
 27 56  1  0
 29 57  1  0
 29 58  1  0
 30 59  1  0
 30 60  1  0
 32 61  1  0
 34 62  1  0
 35 63  1  0
M  END
$$$$
