
     RDKit          3D

 54 57  0  0  0  0  0  0  0  0999 V2000
   -3.2680    5.8463   -0.5265 C   0  0  0  0  0  0  0  0  0  0  0  0
   -2.8556    4.8599    0.4103 O   0  0  0  0  0  0  0  0  0  0  0  0
   -2.1581    3.7916   -0.0816 C   0  0  0  0  0  0  0  0  0  0  0  0
   -1.8092    3.5818   -1.4149 C   0  0  0  0  0  0  0  0  0  0  0  0
   -1.0914    2.4376   -1.7842 C   0  0  0  0  0  0  0  0  0  0  0  0
   -0.7149    1.4809   -0.8280 C   0  0  0  0  0  0  0  0  0  0  0  0
    0.0863    0.2617   -1.2608 C   0  0  0  0  0  0  0  0  0  0  0  0
    1.5830    0.4848   -1.0364 C   0  0  0  0  0  0  0  0  0  0  0  0
    1.8501   -0.5206    0.0490 C   0  0  0  0  0  0  0  0  0  0  0  0
    3.1660   -0.6114    0.7235 C   0  0  0  0  0  0  0  0  0  0  0  0
    3.3436   -1.5566    1.7389 C   0  0  0  0  0  0  0  0  0  0  0  0
    4.5729   -1.6627    2.3891 C   0  0  0  0  0  0  0  0  0  0  0  0
    5.6322   -0.8263    2.0296 C   0  0  0  0  0  0  0  0  0  0  0  0
    5.4651    0.1184    1.0162 C   0  0  0  0  0  0  0  0  0  0  0  0
    6.4171    0.9933    0.5691 O   0  0  0  0  0  0  0  0  0  0  0  0
    7.6893    0.9390    1.2028 C   0  0  0  0  0  0  0  0  0  0  0  0
    4.2310    0.2216    0.3648 C   0  0  0  0  0  0  0  0  0  0  0  0
    0.8581   -1.3123    0.3232 N   0  0  0  0  0  0  0  0  0  0  0  0
   -0.1926   -0.9354   -0.4635 N   0  0  0  0  0  0  0  0  0  0  0  0
   -1.3415   -1.7215   -0.5412 C   0  0  0  0  0  0  0  0  0  0  0  0
   -1.4667   -2.8883    0.2372 C   0  0  0  0  0  0  0  0  0  0  0  0
   -2.6082   -3.6959    0.1890 C   0  0  0  0  0  0  0  0  0  0  0  0
   -3.6640   -3.3359   -0.6439 C   0  0  0  0  0  0  0  0  0  0  0  0
   -5.1005   -4.3594   -0.7324 S   0  0  0  0  0  6  0  0  0  0  0  0
   -6.0490   -3.7378    0.5051 N   0  0  0  0  0  0  0  0  0  0  0  0
   -5.8145   -4.0770   -1.9563 O   0  0  0  0  0  0  0  0  0  0  0  0
   -4.7567   -5.7040   -0.3320 O   0  0  0  0  0  0  0  0  0  0  0  0
   -3.5734   -2.1951   -1.4388 C   0  0  0  0  0  0  0  0  0  0  0  0
   -2.4219   -1.3993   -1.3800 C   0  0  0  0  0  0  0  0  0  0  0  0
   -1.0632    1.7075    0.5110 C   0  0  0  0  0  0  0  0  0  0  0  0
   -1.7802    2.8496    0.8760 C   0  0  0  0  0  0  0  0  0  0  0  0
   -2.4046    6.3248   -1.0006 H   0  0  0  0  0  0  0  0  0  0  0  0
   -3.8176    6.6183    0.0207 H   0  0  0  0  0  0  0  0  0  0  0  0
   -3.9460    5.4228   -1.2751 H   0  0  0  0  0  0  0  0  0  0  0  0
   -2.0778    4.2885   -2.1930 H   0  0  0  0  0  0  0  0  0  0  0  0
   -0.8287    2.3010   -2.8317 H   0  0  0  0  0  0  0  0  0  0  0  0
   -0.0927    0.0575   -2.3245 H   0  0  0  0  0  0  0  0  0  0  0  0
    1.8426    1.5004   -0.7248 H   0  0  0  0  0  0  0  0  0  0  0  0
    2.1592    0.2079   -1.9256 H   0  0  0  0  0  0  0  0  0  0  0  0
    2.5271   -2.2147    2.0294 H   0  0  0  0  0  0  0  0  0  0  0  0
    4.7049   -2.3994    3.1781 H   0  0  0  0  0  0  0  0  0  0  0  0
    6.5725   -0.9394    2.5593 H   0  0  0  0  0  0  0  0  0  0  0  0
    8.1658   -0.0347    1.0480 H   0  0  0  0  0  0  0  0  0  0  0  0
    8.3262    1.6988    0.7399 H   0  0  0  0  0  0  0  0  0  0  0  0
    7.6099    1.1761    2.2688 H   0  0  0  0  0  0  0  0  0  0  0  0
    4.1282    0.9626   -0.4220 H   0  0  0  0  0  0  0  0  0  0  0  0
   -0.6532   -3.1792    0.8994 H   0  0  0  0  0  0  0  0  0  0  0  0
   -2.6576   -4.5917    0.8026 H   0  0  0  0  0  0  0  0  0  0  0  0
   -6.1925   -4.4480    1.2229 H   0  0  0  0  0  0  0  0  0  0  0  0
   -6.9118   -3.3520    0.1218 H   0  0  0  0  0  0  0  0  0  0  0  0
   -4.3873   -1.9116   -2.1018 H   0  0  0  0  0  0  0  0  0  0  0  0
   -2.3947   -0.5124   -2.0060 H   0  0  0  0  0  0  0  0  0  0  0  0
   -0.7893    0.9873    1.2814 H   0  0  0  0  0  0  0  0  0  0  0  0
   -2.0479    3.0028    1.9186 H   0  0  0  0  0  0  0  0  0  0  0  0
  1  2  1  0
  2  3  1  0
  3  4  2  0
  4  5  1  0
  5  6  2  0
  6  7  1  0
  7  8  1  0
  8  9  1  0
  9 10  1  0
 10 11  2  0
 11 12  1  0
 12 13  2  0
 13 14  1  0
 14 15  1  0
 15 16  1  0
 14 17  2  0
  9 18  2  0
 18 19  1  0
 19 20  1  0
 20 21  2  0
 21 22  1  0
 22 23  2  0
 23 24  1  0
 24 25  1  0
 24 26  2  0
 24 27  2  0
 23 28  1  0
 28 29  2  0
  6 30  1  0
 30 31  2  0
 31  3  1  0
 19  7  1  0
 29 20  1  0
 17 10  1  0
  1 32  1  0
  1 33  1  0
  1 34  1  0
  4 35  1  0
  5 36  1  0
  7 37  1  0
  8 38  1  0
  8 39  1  0
 11 40  1  0
 12 41  1  0
 13 42  1  0
 16 43  1  0
 16 44  1  0
 16 45  1  0
 17 46  1  0
 21 47  1  0
 22 48  1  0
 25 49  1  0
 25 50  1  0
 28 51  1  0
 29 52  1  0
 30 53  1  0
 31 54  1  0
M  END
$$$$
