
     RDKit          3D

 53 56  0  0  0  0  0  0  0  0999 V2000
   -0.5274   -0.3751   -3.7291 C   0  0  0  0  0  0  0  0  0  0  0  0
   -1.0117   -1.3932   -2.7308 C   0  0  0  0  0  0  0  0  0  0  0  0
   -0.5687   -2.5414   -2.7191 O   0  0  0  0  0  0  0  0  0  0  0  0
   -2.0375   -0.9531   -1.7546 C   0  0  0  0  0  0  0  0  0  0  0  0
   -1.6448   -0.5822   -0.5154 C   0  0  0  0  0  0  0  0  0  0  0  0
   -0.3429   -0.6165   -0.0294 N   0  0  0  0  0  0  0  0  0  0  0  0
    0.3558   -1.8974    0.2354 C   0  0  0  0  0  0  0  0  0  0  0  0
    1.7869   -1.8774   -0.3377 C   0  0  0  0  0  0  0  0  0  0  0  0
    2.6465   -0.8230    0.2512 N   0  0  0  0  0  0  0  0  0  0  0  0
    3.7505   -0.5045   -0.6682 C   0  0  0  0  0  0  0  0  0  0  0  0
    4.8643    0.2971   -0.0255 C   0  0  0  0  0  0  0  0  0  0  0  0
    5.3643    1.4486   -0.6509 C   0  0  0  0  0  0  0  0  0  0  0  0
    6.4099    2.1725   -0.0741 C   0  0  0  0  0  0  0  0  0  0  0  0
    6.9716    1.7504    1.1288 C   0  0  0  0  0  0  0  0  0  0  0  0
    6.4902    0.6032    1.7558 C   0  0  0  0  0  0  0  0  0  0  0  0
    5.4457   -0.1218    1.1803 C   0  0  0  0  0  0  0  0  0  0  0  0
    1.8575    0.3658    0.6426 C   0  0  0  0  0  0  0  0  0  0  0  0
    0.5363    0.5673   -0.1307 C   0  0  0  0  0  0  0  0  0  0  0  0
   -2.6048   -0.1196    0.3464 N   0  0  0  0  0  0  0  0  0  0  0  0
   -3.9385   -0.1043    0.0427 C   0  0  0  0  0  0  0  0  0  0  0  0
   -4.9348    0.3107    1.0816 C   0  0  0  0  0  0  0  0  0  0  0  0
   -6.2743   -0.0770    0.9428 C   0  0  0  0  0  0  0  0  0  0  0  0
   -7.2169    0.2896    1.9053 C   0  0  0  0  0  0  0  0  0  0  0  0
   -6.8286    1.0492    3.0081 C   0  0  0  0  0  0  0  0  0  0  0  0
   -5.5003    1.4504    3.1463 C   0  0  0  0  0  0  0  0  0  0  0  0
   -4.5533    1.0855    2.1853 C   0  0  0  0  0  0  0  0  0  0  0  0
   -4.3789   -0.4482   -1.1308 N   0  0  0  0  0  0  0  0  0  0  0  0
   -3.4935   -0.8448   -2.1188 C   0  0  0  0  0  0  0  0  0  0  0  0
   -4.0883   -1.1897   -3.6692 S   0  0  0  0  0  0  0  0  0  0  0  0
   -0.7800   -0.7073   -4.7396 H   0  0  0  0  0  0  0  0  0  0  0  0
   -0.9856    0.6014   -3.5521 H   0  0  0  0  0  0  0  0  0  0  0  0
    0.5562   -0.2682   -3.6314 H   0  0  0  0  0  0  0  0  0  0  0  0
    0.3911   -2.0534    1.3210 H   0  0  0  0  0  0  0  0  0  0  0  0
   -0.1981   -2.7452   -0.1817 H   0  0  0  0  0  0  0  0  0  0  0  0
    1.7157   -1.7430   -1.4249 H   0  0  0  0  0  0  0  0  0  0  0  0
    2.2587   -2.8507   -0.1612 H   0  0  0  0  0  0  0  0  0  0  0  0
    4.2126   -1.4329   -1.0295 H   0  0  0  0  0  0  0  0  0  0  0  0
    3.3659    0.0195   -1.5528 H   0  0  0  0  0  0  0  0  0  0  0  0
    4.9452    1.7891   -1.5937 H   0  0  0  0  0  0  0  0  0  0  0  0
    6.7902    3.0641   -0.5654 H   0  0  0  0  0  0  0  0  0  0  0  0
    7.7864    2.3133    1.5757 H   0  0  0  0  0  0  0  0  0  0  0  0
    6.9280    0.2696    2.6918 H   0  0  0  0  0  0  0  0  0  0  0  0
    5.0778   -1.0178    1.6763 H   0  0  0  0  0  0  0  0  0  0  0  0
    1.6092    0.2417    1.7054 H   0  0  0  0  0  0  0  0  0  0  0  0
    2.4475    1.2878    0.5893 H   0  0  0  0  0  0  0  0  0  0  0  0
    0.7550    0.7737   -1.1855 H   0  0  0  0  0  0  0  0  0  0  0  0
    0.0160    1.4426    0.2772 H   0  0  0  0  0  0  0  0  0  0  0  0
   -2.2812   -0.0414    1.3009 H   0  0  0  0  0  0  0  0  0  0  0  0
   -6.5903   -0.6707    0.0871 H   0  0  0  0  0  0  0  0  0  0  0  0
   -8.2534   -0.0185    1.7926 H   0  0  0  0  0  0  0  0  0  0  0  0
   -7.5642    1.3353    3.7561 H   0  0  0  0  0  0  0  0  0  0  0  0
   -5.2041    2.0536    4.0017 H   0  0  0  0  0  0  0  0  0  0  0  0
   -3.5333    1.4363    2.3062 H   0  0  0  0  0  0  0  0  0  0  0  0
  1  2  1  0
  2  3  2  0
  2  4  1  0
  4  5  2  0
  5  6  1  0
  6  7  1  0
  7  8  1  0
  8  9  1  0
  9 10  1  0
 10 11  1  0
 11 12  2  0
 12 13  1  0
 13 14  2  0
 14 15  1  0
 15 16  2  0
  9 17  1  0
 17 18  1  0
  5 19  1  0
 19 20  1  0
 20 21  1  0
 21 22  2  0
 22 23  1  0
 23 24  2  0
 24 25  1  0
 25 26  2  0
 20 27  2  0
 27 28  1  0
 28 29  2  0
 28  4  1  0
 18  6  1  0
 26 21  1  0
 16 11  1  0
  1 30  1  0
  1 31  1  0
  1 32  1  0
  7 33  1  0
  7 34  1  0
  8 35  1  0
  8 36  1  0
 10 37  1  0
 10 38  1  0
 12 39  1  0
 13 40  1  0
 14 41  1  0
 15 42  1  0
 16 43  1  0
 17 44  1  0
 17 45  1  0
 18 46  1  0
 18 47  1  0
 19 48  1  0
 22 49  1  0
 23 50  1  0
 24 51  1  0
 25 52  1  0
 26 53  1  0
M  END
$$$$
