
     RDKit          3D

 40 41  0  0  0  0  0  0  0  0999 V2000
    0.5993    2.8624    0.4857 C   0  0  0  0  0  0  0  0  0  0  0  0
    1.3245    1.5954    0.9239 C   0  0  0  0  0  0  0  0  0  0  0  0
    0.7794    0.3428    0.2193 C   0  0  0  0  0  0  0  0  0  0  0  0
    1.5254   -0.9320    0.6553 C   0  0  0  0  0  0  0  0  0  0  0  0
    2.9289   -1.0326    0.1128 C   0  0  0  0  0  0  0  0  0  0  0  0
    4.0364   -0.8552    0.9523 C   0  0  0  0  0  0  0  0  0  0  0  0
    5.3320   -0.9427    0.4402 C   0  0  0  0  0  0  0  0  0  0  0  0
    5.5322   -1.2093   -0.9131 C   0  0  0  0  0  0  0  0  0  0  0  0
    4.4373   -1.3901   -1.7559 C   0  0  0  0  0  0  0  0  0  0  0  0
    3.1414   -1.3030   -1.2462 C   0  0  0  0  0  0  0  0  0  0  0  0
   -0.6114    0.2116    0.5900 O   0  0  0  0  0  0  0  0  0  0  0  0
   -1.3932   -0.4251   -0.3132 C   0  0  0  0  0  0  0  0  0  0  0  0
   -1.0533   -0.9661   -1.3502 O   0  0  0  0  0  0  0  0  0  0  0  0
   -2.7802   -0.3864    0.1700 C   0  0  0  0  0  0  0  0  0  0  0  0
   -3.0981   -1.0635    1.3562 C   0  0  0  0  0  0  0  0  0  0  0  0
   -4.4225   -1.1155    1.7924 C   0  0  0  0  0  0  0  0  0  0  0  0
   -5.4280   -0.5012    1.0453 C   0  0  0  0  0  0  0  0  0  0  0  0
   -5.1118    0.1756   -0.1356 C   0  0  0  0  0  0  0  0  0  0  0  0
   -3.7821    0.2381   -0.5784 C   0  0  0  0  0  0  0  0  0  0  0  0
   -3.4424    1.0230   -1.7821 C   0  0  0  0  0  0  0  0  0  0  0  0
   -2.4407    1.6902   -1.9492 O   0  0  0  0  0  0  0  0  0  0  0  0
   -4.4027    0.9365   -2.7195 O   0  0  0  0  0  0  0  0  0  0  0  0
   -0.4631    2.8262    0.7458 H   0  0  0  0  0  0  0  0  0  0  0  0
    0.6845    3.0073   -0.5960 H   0  0  0  0  0  0  0  0  0  0  0  0
    1.0358    3.7359    0.9805 H   0  0  0  0  0  0  0  0  0  0  0  0
    1.2070    1.4929    2.0096 H   0  0  0  0  0  0  0  0  0  0  0  0
    2.3928    1.7161    0.7151 H   0  0  0  0  0  0  0  0  0  0  0  0
    0.8610    0.4939   -0.8653 H   0  0  0  0  0  0  0  0  0  0  0  0
    1.5313   -0.9996    1.7514 H   0  0  0  0  0  0  0  0  0  0  0  0
    0.9713   -1.8234    0.3327 H   0  0  0  0  0  0  0  0  0  0  0  0
    3.8983   -0.6452    2.0103 H   0  0  0  0  0  0  0  0  0  0  0  0
    6.1860   -0.8027    1.0976 H   0  0  0  0  0  0  0  0  0  0  0  0
    6.5411   -1.2774   -1.3109 H   0  0  0  0  0  0  0  0  0  0  0  0
    4.5912   -1.5997   -2.8112 H   0  0  0  0  0  0  0  0  0  0  0  0
    2.2946   -1.4489   -1.9153 H   0  0  0  0  0  0  0  0  0  0  0  0
   -2.3196   -1.5601    1.9312 H   0  0  0  0  0  0  0  0  0  0  0  0
   -4.6726   -1.6422    2.7108 H   0  0  0  0  0  0  0  0  0  0  0  0
   -6.4608   -0.5452    1.3849 H   0  0  0  0  0  0  0  0  0  0  0  0
   -5.9040    0.6626   -0.7007 H   0  0  0  0  0  0  0  0  0  0  0  0
   -4.0451    1.4563   -3.4703 H   0  0  0  0  0  0  0  0  0  0  0  0
  1  2  1  0
  2  3  1  0
  3  4  1  0
  4  5  1  0
  5  6  2  0
  6  7  1  0
  7  8  2  0
  8  9  1  0
  9 10  2  0
  3 11  1  0
 11 12  1  0
 12 13  2  0
 12 14  1  0
 14 15  2  0
 15 16  1  0
 16 17  2  0
 17 18  1  0
 18 19  2  0
 19 20  1  0
 20 21  2  0
 20 22  1  0
 10  5  1  0
 19 14  1  0
  1 23  1  0
  1 24  1  0
  1 25  1  0
  2 26  1  0
  2 27  1  0
  3 28  1  0
  4 29  1  0
  4 30  1  0
  6 31  1  0
  7 32  1  0
  8 33  1  0
  9 34  1  0
 10 35  1  0
 15 36  1  0
 16 37  1  0
 17 38  1  0
 18 39  1  0
 22 40  1  0
M  END
$$$$
