
     RDKit          3D

 36 38  0  0  0  0  0  0  0  0999 V2000
   -2.7461    4.8598   -0.1772 C   0  0  0  0  0  0  0  0  0  0  0  0
   -2.7803    3.3636   -0.0810 C   0  0  0  0  0  0  0  0  0  0  0  0
   -3.9751    2.6672   -0.2436 C   0  0  0  0  0  0  0  0  0  0  0  0
   -3.9852    1.2698   -0.1958 C   0  0  0  0  0  0  0  0  0  0  0  0
   -2.8273    0.5312    0.0060 C   0  0  0  0  0  0  0  0  0  0  0  0
   -2.9196   -0.8022    0.0218 N   0  0  0  0  0  0  0  0  0  0  0  0
   -1.7909   -1.5258    0.1806 C   0  0  0  0  0  0  0  0  0  0  0  0
   -1.8777   -3.0595    0.2174 C   0  0  0  0  0  0  0  0  0  0  0  0
   -0.4477   -3.8137   -0.5860 Cl  0  0  0  0  0  0  0  0  0  0  0  0
   -1.9386   -3.6185    1.9238 Cl  0  0  0  0  0  0  0  0  0  0  0  0
   -3.3383   -3.6832   -0.6336 Cl  0  0  0  0  0  0  0  0  0  0  0  0
   -0.5863   -0.9551    0.3714 N   0  0  0  0  0  0  0  0  0  0  0  0
   -0.4982    0.3909    0.3869 C   0  0  0  0  0  0  0  0  0  0  0  0
    0.7902    1.0018    0.5722 N   0  0  0  0  0  0  0  0  0  0  0  0
    1.8537    0.1801    0.8667 N   0  0  0  0  0  0  0  0  0  0  0  0
    2.2755   -0.5301   -0.1342 C   0  0  0  0  0  0  0  0  0  0  0  0
    3.3802   -1.4949    0.0059 C   0  0  0  0  0  0  0  0  0  0  0  0
    4.0361   -1.6583    1.2230 C   0  0  0  0  0  0  0  0  0  0  0  0
    5.0617   -2.5829    1.2793 C   0  0  0  0  0  0  0  0  0  0  0  0
    5.4574   -3.3295    0.2246 N   0  0  0  0  0  0  0  0  0  0  0  0
    4.7945   -3.1501   -0.9385 C   0  0  0  0  0  0  0  0  0  0  0  0
    3.7561   -2.2511   -1.1007 C   0  0  0  0  0  0  0  0  0  0  0  0
   -1.6185    1.2125    0.1737 C   0  0  0  0  0  0  0  0  0  0  0  0
   -1.6037    2.6328    0.1126 C   0  0  0  0  0  0  0  0  0  0  0  0
   -3.6938    5.2951    0.1567 H   0  0  0  0  0  0  0  0  0  0  0  0
   -1.9570    5.2733    0.4596 H   0  0  0  0  0  0  0  0  0  0  0  0
   -2.5625    5.1642   -1.2121 H   0  0  0  0  0  0  0  0  0  0  0  0
   -4.9086    3.1994   -0.4146 H   0  0  0  0  0  0  0  0  0  0  0  0
   -4.9288    0.7436   -0.3284 H   0  0  0  0  0  0  0  0  0  0  0  0
    0.6672    1.7088    1.2994 H   0  0  0  0  0  0  0  0  0  0  0  0
    1.8148   -0.4423   -1.1356 H   0  0  0  0  0  0  0  0  0  0  0  0
    3.7573   -1.0875    2.1016 H   0  0  0  0  0  0  0  0  0  0  0  0
    5.6100   -2.7554    2.2011 H   0  0  0  0  0  0  0  0  0  0  0  0
    5.1328   -3.7713   -1.7632 H   0  0  0  0  0  0  0  0  0  0  0  0
    3.2596   -2.1550   -2.0590 H   0  0  0  0  0  0  0  0  0  0  0  0
   -0.6627    3.1721    0.2043 H   0  0  0  0  0  0  0  0  0  0  0  0
  1  2  1  0
  2  3  2  0
  3  4  1  0
  4  5  2  0
  5  6  1  0
  6  7  2  0
  7  8  1  0
  8  9  1  0
  8 10  1  0
  8 11  1  0
  7 12  1  0
 12 13  2  0
 13 14  1  0
 14 15  1  0
 15 16  2  3
 16 17  1  0
 17 18  2  0
 18 19  1  0
 19 20  2  0
 20 21  1  0
 21 22  2  0
 13 23  1  0
 23 24  2  0
 24  2  1  0
 23  5  1  0
 22 17  1  0
  1 25  1  0
  1 26  1  0
  1 27  1  0
  3 28  1  0
  4 29  1  0
 14 30  1  0
 16 31  1  0
 18 32  1  0
 19 33  1  0
 21 34  1  0
 22 35  1  0
 24 36  1  0
M  END
$$$$
