
     RDKit          3D

 35 38  0  0  0  0  0  0  0  0999 V2000
   -2.5157   -2.1390   -0.5084 O   0  0  0  0  0  0  0  0  0  0  0  0
   -1.6748   -0.9009   -0.2758 P   0  0  0  0  0  5  0  0  0  0  0  0
   -1.8184    0.2794   -1.4057 N   0  0  0  0  0  0  0  0  0  0  0  0
   -1.9716    1.5639   -1.0631 C   0  0  0  0  0  0  0  0  0  0  0  0
   -2.2744    2.0285    0.1274 N   0  0  0  0  0  0  0  0  0  0  0  0
   -2.3365    3.4071    0.1150 C   0  0  0  0  0  0  0  0  0  0  0  0
   -2.0665    3.9989   -1.1012 C   0  0  0  0  0  0  0  0  0  0  0  0
   -1.7622    2.7841   -2.2744 S   0  0  0  0  0  0  0  0  0  0  0  0
   -1.4665   -0.4817    1.4486 C   0  0  0  0  0  0  0  0  0  0  0  0
   -2.6046   -0.5805    2.2862 C   0  0  0  0  0  0  0  0  0  0  0  0
   -2.5349   -0.2525    3.6418 C   0  0  0  0  0  0  0  0  0  0  0  0
   -1.3210    0.1736    4.1876 C   0  0  0  0  0  0  0  0  0  0  0  0
   -0.1838    0.2718    3.3800 C   0  0  0  0  0  0  0  0  0  0  0  0
   -0.2548   -0.0479    2.0189 C   0  0  0  0  0  0  0  0  0  0  0  0
    0.0038   -1.2196   -0.8518 C   0  0  0  0  0  0  0  0  0  0  0  0
    0.8338   -0.2581   -1.2286 N   0  0  0  0  0  0  0  0  0  0  0  0
    2.0453   -0.8071   -1.6111 C   0  0  0  0  0  0  0  0  0  0  0  0
    3.1665   -0.0804   -2.0515 C   0  0  0  0  0  0  0  0  0  0  0  0
    4.3305   -0.7614   -2.4274 C   0  0  0  0  0  0  0  0  0  0  0  0
    4.3764   -2.1570   -2.4140 C   0  0  0  0  0  0  0  0  0  0  0  0
    3.2811   -2.8998   -1.9636 C   0  0  0  0  0  0  0  0  0  0  0  0
    2.1214   -2.2037   -1.5596 C   0  0  0  0  0  0  0  0  0  0  0  0
    0.6270   -2.8263   -0.9546 S   0  0  0  0  0  0  0  0  0  0  0  0
   -1.4659    0.0998   -2.3376 H   0  0  0  0  0  0  0  0  0  0  0  0
   -2.5822    3.9250    1.0370 H   0  0  0  0  0  0  0  0  0  0  0  0
   -2.0421    5.0511   -1.3468 H   0  0  0  0  0  0  0  0  0  0  0  0
   -3.5569   -0.9108    1.8672 H   0  0  0  0  0  0  0  0  0  0  0  0
   -3.4282   -0.3276    4.2652 H   0  0  0  0  0  0  0  0  0  0  0  0
   -1.2688    0.4422    5.2403 H   0  0  0  0  0  0  0  0  0  0  0  0
    0.7548    0.6090    3.8073 H   0  0  0  0  0  0  0  0  0  0  0  0
    0.6489    0.0614    1.4167 H   0  0  0  0  0  0  0  0  0  0  0  0
    3.1178    1.0071   -2.0981 H   0  0  0  0  0  0  0  0  0  0  0  0
    5.1977   -0.1944   -2.7595 H   0  0  0  0  0  0  0  0  0  0  0  0
    5.2889   -2.6736   -2.7273 H   0  0  0  0  0  0  0  0  0  0  0  0
    3.3359   -3.9807   -1.8793 H   0  0  0  0  0  0  0  0  0  0  0  0
  1  2  2  0
  2  3  1  0
  3  4  1  0
  4  5  2  0
  5  6  1  0
  6  7  2  0
  7  8  1  0
  2  9  1  0
  9 10  2  0
 10 11  1  0
 11 12  2  0
 12 13  1  0
 13 14  2  0
  2 15  1  0
 15 16  2  0
 16 17  1  0
 17 18  2  0
 18 19  1  0
 19 20  2  0
 20 21  1  0
 21 22  2  0
 22 23  1  0
  8  4  1  0
 14  9  1  0
 23 15  1  0
 22 17  1  0
  3 24  1  0
  6 25  1  0
  7 26  1  0
 10 27  1  0
 11 28  1  0
 12 29  1  0
 13 30  1  0
 14 31  1  0
 18 32  1  0
 19 33  1  0
 20 34  1  0
 21 35  1  0
M  END
$$$$
