
     RDKit          3D

 22 22  0  0  0  0  0  0  0  0999 V2000
    3.0291    1.1579   -0.0344 C   0  0  0  0  0  0  0  0  0  0  0  0
    1.5441    0.9292   -0.0841 C   0  0  0  0  0  0  0  0  0  0  0  0
    0.8042    2.0010   -0.4708 N   0  0  0  0  0  0  0  0  0  0  0  0
   -0.5283    1.8281   -0.6063 C   0  0  0  0  0  0  0  0  0  0  0  0
   -1.1729    0.6302   -0.3626 C   0  0  0  0  0  0  0  0  0  0  0  0
   -2.6072    0.5797   -0.6613 C   0  0  0  0  0  0  0  0  0  0  0  0
   -3.4091    1.4692   -0.4516 O   0  0  0  0  0  0  0  0  0  0  0  0
   -2.9355   -0.5370   -1.3331 O   0  0  0  0  0  0  0  0  0  0  0  0
   -0.4131   -0.4465    0.1019 C   0  0  0  0  0  0  0  0  0  0  0  0
   -1.0663   -1.6962    0.5471 C   0  0  0  0  0  0  0  0  0  0  0  0
   -0.6242   -2.8256    0.4449 O   0  0  0  0  0  0  0  0  0  0  0  0
   -2.1835   -1.4472    1.2560 O   0  0  0  0  0  0  0  0  0  0  0  0
    0.9861   -0.3196    0.2488 C   0  0  0  0  0  0  0  0  0  0  0  0
    1.8109   -1.4233    0.5283 N   0  0  0  0  0  0  0  0  0  0  0  0
    3.4020    1.0170    0.9848 H   0  0  0  0  0  0  0  0  0  0  0  0
    3.2759    2.1793   -0.3431 H   0  0  0  0  0  0  0  0  0  0  0  0
    3.5451    0.4703   -0.7117 H   0  0  0  0  0  0  0  0  0  0  0  0
   -1.0708    2.7068   -0.9486 H   0  0  0  0  0  0  0  0  0  0  0  0
   -3.8939   -0.4398   -1.5169 H   0  0  0  0  0  0  0  0  0  0  0  0
   -2.4941   -2.3339    1.5370 H   0  0  0  0  0  0  0  0  0  0  0  0
    1.3283   -2.2655    0.8489 H   0  0  0  0  0  0  0  0  0  0  0  0
    2.6732   -1.2339    1.0265 H   0  0  0  0  0  0  0  0  0  0  0  0
  1  2  1  0
  2  3  2  0
  3  4  1  0
  4  5  2  0
  5  6  1  0
  6  7  2  0
  6  8  1  0
  5  9  1  0
  9 10  1  0
 10 11  2  0
 10 12  1  0
  9 13  2  0
 13 14  1  0
 13  2  1  0
  1 15  1  0
  1 16  1  0
  1 17  1  0
  4 18  1  0
  8 19  1  0
 12 20  1  0
 14 21  1  0
 14 22  1  0
M  END
$$$$
