
     RDKit          3D

 67 71  0  0  0  0  0  0  0  0999 V2000
    6.8818    1.5050    2.3522 O   0  0  0  0  0  0  0  0  0  0  0  0
    7.6197    0.7638    1.7249 C   0  0  0  0  0  0  0  0  0  0  0  0
    8.9307    1.1727    1.0962 C   0  0  0  0  0  0  0  0  0  0  0  0
    9.3188   -0.0456    0.2706 C   0  0  0  0  0  0  0  0  0  0  0  0
    8.6568   -1.1928    1.0045 C   0  0  0  0  0  0  0  0  0  0  0  0
    7.4403   -0.6033    1.5078 N   0  0  0  0  0  0  0  0  0  0  0  0
    6.4861   -1.3921    2.2703 C   0  0  0  0  0  0  0  0  0  0  0  0
    5.0276   -0.9885    2.0502 C   0  0  0  0  0  0  0  0  0  0  0  0
    4.5991   -1.1423    0.5921 C   0  0  0  0  0  0  0  0  0  0  0  0
    3.2004   -0.7646    0.4522 N   0  0  0  0  0  0  0  0  0  0  0  0
    2.5106   -0.8447   -0.7334 C   0  0  0  0  0  0  0  0  0  0  0  0
    2.6889   -2.0036   -1.6678 C   0  0  0  0  0  0  0  0  0  0  0  0
    1.9791   -2.0319   -2.8021 C   0  0  0  0  0  0  0  0  0  0  0  0
    1.0975   -0.9713   -3.0790 C   0  0  0  0  0  0  0  0  0  0  0  0
    0.2826   -0.7265   -4.0802 N   0  0  0  0  0  0  0  0  0  0  0  0
   -0.3397    0.4767   -3.8272 N   0  0  0  0  0  0  0  0  0  0  0  0
    0.1127    0.9395   -2.6781 C   0  0  0  0  0  0  0  0  0  0  0  0
   -0.2572    2.2163   -2.0056 C   0  0  0  0  0  0  0  0  0  0  0  0
   -1.4191    2.0251   -1.0322 C   0  0  0  0  0  0  0  0  0  0  0  0
   -2.7791    2.1229   -1.7072 C   0  0  0  0  0  0  0  0  0  0  0  0
   -2.9245    2.7040   -2.7823 O   0  0  0  0  0  0  0  0  0  0  0  0
   -3.8574    1.5885   -1.0189 N   0  0  0  0  0  0  0  0  0  0  0  0
   -5.1767    1.5976   -1.6551 C   0  0  0  0  0  0  0  0  0  0  0  0
   -6.0537    0.4030   -1.2384 C   0  0  0  0  0  0  0  0  0  0  0  0
   -6.1791    0.2925    0.2274 N   0  0  0  0  0  0  0  0  0  0  0  0
   -7.2990   -0.2912    0.8010 C   0  0  0  0  0  0  0  0  0  0  0  0
   -8.0868   -1.2210    0.1007 C   0  0  0  0  0  0  0  0  0  0  0  0
   -9.2184   -1.8191    0.6706 C   0  0  0  0  0  0  0  0  0  0  0  0
   -9.5943   -1.5007    1.9687 C   0  0  0  0  0  0  0  0  0  0  0  0
   -8.8381   -0.5865    2.6909 C   0  0  0  0  0  0  0  0  0  0  0  0
   -7.7073    0.0053    2.1120 C   0  0  0  0  0  0  0  0  0  0  0  0
   -5.1526    0.9583    1.0421 C   0  0  0  0  0  0  0  0  0  0  0  0
   -3.7915    0.9979    0.3210 C   0  0  0  0  0  0  0  0  0  0  0  0
    1.0177    0.0447   -2.1535 N   0  0  0  0  0  0  0  0  0  0  0  0
    1.6883    0.1467   -0.9666 N   0  0  0  0  0  0  0  0  0  0  0  0
    8.8061    2.0619    0.4738 H   0  0  0  0  0  0  0  0  0  0  0  0
    9.6573    1.3642    1.8918 H   0  0  0  0  0  0  0  0  0  0  0  0
    8.8973    0.0465   -0.7382 H   0  0  0  0  0  0  0  0  0  0  0  0
   10.4009   -0.1683    0.1747 H   0  0  0  0  0  0  0  0  0  0  0  0
    8.4303   -2.0364    0.3460 H   0  0  0  0  0  0  0  0  0  0  0  0
    9.2636   -1.5311    1.8520 H   0  0  0  0  0  0  0  0  0  0  0  0
    6.7411   -1.2888    3.3312 H   0  0  0  0  0  0  0  0  0  0  0  0
    6.6152   -2.4447    1.9928 H   0  0  0  0  0  0  0  0  0  0  0  0
    4.8557    0.0420    2.3803 H   0  0  0  0  0  0  0  0  0  0  0  0
    4.3910   -1.6192    2.6838 H   0  0  0  0  0  0  0  0  0  0  0  0
    5.2088   -0.5062   -0.0595 H   0  0  0  0  0  0  0  0  0  0  0  0
    4.7460   -2.1830    0.2841 H   0  0  0  0  0  0  0  0  0  0  0  0
    2.9967    0.1258    0.9060 H   0  0  0  0  0  0  0  0  0  0  0  0
    3.3638   -2.8030   -1.3961 H   0  0  0  0  0  0  0  0  0  0  0  0
    2.0561   -2.8502   -3.5077 H   0  0  0  0  0  0  0  0  0  0  0  0
   -0.4805    2.9752   -2.7640 H   0  0  0  0  0  0  0  0  0  0  0  0
    0.6113    2.5924   -1.4502 H   0  0  0  0  0  0  0  0  0  0  0  0
   -1.3888    2.8276   -0.2854 H   0  0  0  0  0  0  0  0  0  0  0  0
   -1.3180    1.0687   -0.5095 H   0  0  0  0  0  0  0  0  0  0  0  0
   -5.6604    2.5373   -1.3598 H   0  0  0  0  0  0  0  0  0  0  0  0
   -5.0715    1.6105   -2.7455 H   0  0  0  0  0  0  0  0  0  0  0  0
   -7.0354    0.5375   -1.7082 H   0  0  0  0  0  0  0  0  0  0  0  0
   -5.6125   -0.5242   -1.6239 H   0  0  0  0  0  0  0  0  0  0  0  0
   -7.8184   -1.5184   -0.9087 H   0  0  0  0  0  0  0  0  0  0  0  0
   -9.7975   -2.5367    0.0957 H   0  0  0  0  0  0  0  0  0  0  0  0
  -10.4706   -1.9616    2.4150 H   0  0  0  0  0  0  0  0  0  0  0  0
   -9.1239   -0.3248    3.7060 H   0  0  0  0  0  0  0  0  0  0  0  0
   -7.1639    0.7303    2.7108 H   0  0  0  0  0  0  0  0  0  0  0  0
   -5.0019    0.4306    1.9909 H   0  0  0  0  0  0  0  0  0  0  0  0
   -5.4800    1.9806    1.2659 H   0  0  0  0  0  0  0  0  0  0  0  0
   -3.4090   -0.0222    0.1947 H   0  0  0  0  0  0  0  0  0  0  0  0
   -3.0730    1.5527    0.9325 H   0  0  0  0  0  0  0  0  0  0  0  0
  1  2  2  0
  2  3  1  0
  3  4  1  0
  4  5  1  0
  5  6  1  0
  6  7  1  0
  7  8  1  0
  8  9  1  0
  9 10  1  0
 10 11  1  0
 11 12  1  0
 12 13  2  0
 13 14  1  0
 14 15  2  0
 15 16  1  0
 16 17  2  0
 17 18  1  0
 18 19  1  0
 19 20  1  0
 20 21  2  0
 20 22  1  0
 22 23  1  0
 23 24  1  0
 24 25  1  0
 25 26  1  0
 26 27  2  0
 27 28  1  0
 28 29  2  0
 29 30  1  0
 30 31  2  0
 25 32  1  0
 32 33  1  0
 17 34  1  0
 34 35  1  0
  6  2  1  0
 35 11  2  0
 34 14  1  0
 33 22  1  0
 31 26  1  0
  3 36  1  0
  3 37  1  0
  4 38  1  0
  4 39  1  0
  5 40  1  0
  5 41  1  0
  7 42  1  0
  7 43  1  0
  8 44  1  0
  8 45  1  0
  9 46  1  0
  9 47  1  0
 10 48  1  0
 12 49  1  0
 13 50  1  0
 18 51  1  0
 18 52  1  0
 19 53  1  0
 19 54  1  0
 23 55  1  0
 23 56  1  0
 24 57  1  0
 24 58  1  0
 27 59  1  0
 28 60  1  0
 29 61  1  0
 30 62  1  0
 31 63  1  0
 32 64  1  0
 32 65  1  0
 33 66  1  0
 33 67  1  0
M  END
$$$$
