
     RDKit          3D

 56 59  0  0  0  0  0  0  0  0999 V2000
   -1.6185   -2.7259    0.9977 C   0  0  0  0  0  0  0  0  0  0  0  0
   -1.5203   -1.3756    0.2744 C   0  0  0  0  0  0  0  0  0  0  0  0
   -2.6295   -1.3858   -0.8223 C   0  0  0  0  0  0  0  0  0  0  0  0
   -2.4023   -1.8594   -1.9387 O   0  0  0  0  0  0  0  0  0  0  0  0
   -3.8632   -0.8655   -0.4443 N   0  0  0  0  0  0  0  0  0  0  0  0
   -4.1926   -0.2393    0.8495 C   0  0  0  0  0  0  0  0  0  0  0  0
   -5.6877    0.0980    0.8419 C   0  0  0  0  0  0  0  0  0  0  0  0
   -6.0613   -0.1921   -0.5738 C   0  0  0  0  0  0  0  0  0  0  0  0
   -7.2950    0.0187   -1.1730 C   0  0  0  0  0  0  0  0  0  0  0  0
   -7.4556   -0.3541   -2.5074 C   0  0  0  0  0  0  0  0  0  0  0  0
   -6.3928   -0.9326   -3.2149 C   0  0  0  0  0  0  0  0  0  0  0  0
   -5.1548   -1.1436   -2.5984 C   0  0  0  0  0  0  0  0  0  0  0  0
   -4.9989   -0.7665   -1.2750 C   0  0  0  0  0  0  0  0  0  0  0  0
   -0.1752   -1.1395   -0.3206 N   0  0  0  0  0  0  0  0  0  0  0  0
    0.9175   -1.2912    0.6624 C   0  0  0  0  0  0  0  0  0  0  0  0
    2.2118   -0.5650    0.2532 C   0  0  0  0  0  0  0  0  0  0  0  0
    2.0015    0.9156    0.1626 N   0  0  0  0  0  0  0  0  0  0  0  0
    2.5745    1.8317    1.4792 S   0  0  0  0  0  6  0  0  0  0  0  0
    2.2979    3.2270    1.2146 O   0  0  0  0  0  0  0  0  0  0  0  0
    2.1014    1.1862    2.6864 O   0  0  0  0  0  0  0  0  0  0  0  0
    4.3333    1.6160    1.3707 C   0  0  0  0  0  0  0  0  0  0  0  0
    4.9964    2.0423    0.2170 C   0  0  0  0  0  0  0  0  0  0  0  0
    6.3791    1.8780    0.1185 C   0  0  0  0  0  0  0  0  0  0  0  0
    7.1042    1.2862    1.1671 C   0  0  0  0  0  0  0  0  0  0  0  0
    8.6041    1.1316    1.0684 C   0  0  0  0  0  0  0  0  0  0  0  0
    9.2688    2.2205    1.5419 F   0  0  0  0  0  0  0  0  0  0  0  0
    9.0386    0.9518   -0.2100 F   0  0  0  0  0  0  0  0  0  0  0  0
    9.0772    0.0665    1.7739 F   0  0  0  0  0  0  0  0  0  0  0  0
    6.4204    0.8768    2.3253 C   0  0  0  0  0  0  0  0  0  0  0  0
    5.0371    1.0383    2.4293 C   0  0  0  0  0  0  0  0  0  0  0  0
    0.6038    1.2791   -0.2371 C   0  0  0  0  0  0  0  0  0  0  0  0
   -0.0752    0.1528   -1.0374 C   0  0  0  0  0  0  0  0  0  0  0  0
   -1.3053   -3.5477    0.3433 H   0  0  0  0  0  0  0  0  0  0  0  0
   -2.6478   -2.9374    1.3073 H   0  0  0  0  0  0  0  0  0  0  0  0
   -0.9976   -2.7494    1.8987 H   0  0  0  0  0  0  0  0  0  0  0  0
   -1.7101   -0.5735    0.9938 H   0  0  0  0  0  0  0  0  0  0  0  0
   -3.5899    0.6712    0.9509 H   0  0  0  0  0  0  0  0  0  0  0  0
   -3.9384   -0.9141    1.6730 H   0  0  0  0  0  0  0  0  0  0  0  0
   -5.8621    1.1443    1.1096 H   0  0  0  0  0  0  0  0  0  0  0  0
   -6.2392   -0.5550    1.5260 H   0  0  0  0  0  0  0  0  0  0  0  0
   -8.1198    0.4581   -0.6212 H   0  0  0  0  0  0  0  0  0  0  0  0
   -8.4113   -0.2004   -3.0027 H   0  0  0  0  0  0  0  0  0  0  0  0
   -6.5299   -1.2226   -4.2540 H   0  0  0  0  0  0  0  0  0  0  0  0
   -4.3488   -1.5935   -3.1675 H   0  0  0  0  0  0  0  0  0  0  0  0
    1.1420   -2.3574    0.7797 H   0  0  0  0  0  0  0  0  0  0  0  0
    0.6058   -0.9080    1.6426 H   0  0  0  0  0  0  0  0  0  0  0  0
    3.0055   -0.8091    0.9662 H   0  0  0  0  0  0  0  0  0  0  0  0
    2.5613   -0.9187   -0.7246 H   0  0  0  0  0  0  0  0  0  0  0  0
    4.4422    2.5029   -0.5988 H   0  0  0  0  0  0  0  0  0  0  0  0
    6.8933    2.2153   -0.7811 H   0  0  0  0  0  0  0  0  0  0  0  0
    6.9686    0.4303    3.1547 H   0  0  0  0  0  0  0  0  0  0  0  0
    4.5228    0.7187    3.3334 H   0  0  0  0  0  0  0  0  0  0  0  0
   -0.0012    1.5031    0.6498 H   0  0  0  0  0  0  0  0  0  0  0  0
    0.6510    2.1812   -0.8573 H   0  0  0  0  0  0  0  0  0  0  0  0
    0.5137   -0.0287   -1.9461 H   0  0  0  0  0  0  0  0  0  0  0  0
   -1.0495    0.5096   -1.3889 H   0  0  0  0  0  0  0  0  0  0  0  0
  1  2  1  0
  2  3  1  0
  3  4  2  0
  3  5  1  0
  5  6  1  0
  6  7  1  0
  7  8  1  0
  8  9  2  0
  9 10  1  0
 10 11  2  0
 11 12  1  0
 12 13  2  0
  2 14  1  0
 14 15  1  0
 15 16  1  0
 16 17  1  0
 17 18  1  0
 18 19  2  0
 18 20  2  0
 18 21  1  0
 21 22  2  0
 22 23  1  0
 23 24  2  0
 24 25  1  0
 25 26  1  0
 25 27  1  0
 25 28  1  0
 24 29  1  0
 29 30  2  0
 17 31  1  0
 31 32  1  0
 13  5  1  0
 32 14  1  0
 13  8  1  0
 30 21  1  0
  1 33  1  0
  1 34  1  0
  1 35  1  0
  2 36  1  0
  6 37  1  0
  6 38  1  0
  7 39  1  0
  7 40  1  0
  9 41  1  0
 10 42  1  0
 11 43  1  0
 12 44  1  0
 15 45  1  0
 15 46  1  0
 16 47  1  0
 16 48  1  0
 22 49  1  0
 23 50  1  0
 29 51  1  0
 30 52  1  0
 31 53  1  0
 31 54  1  0
 32 55  1  0
 32 56  1  0
M  END
$$$$
