
     RDKit          3D

 34 36  0  0  0  0  0  0  0  0999 V2000
    2.5516    1.3975   -0.2911 O   0  0  0  0  0  0  0  0  0  0  0  0
    2.1114    0.2990    0.0398 C   0  0  0  0  0  0  0  0  0  0  0  0
    2.8886   -0.9897   -0.1021 C   0  0  0  0  0  0  0  0  0  0  0  0
    4.3082   -0.8151    0.1276 N   0  0  0  0  0  0  0  0  0  0  0  0
    5.1946   -0.0875   -0.6087 C   0  0  0  0  0  0  0  0  0  0  0  0
    6.4103   -0.2908   -0.1553 N   0  0  0  0  0  0  0  0  0  0  0  0
    6.2155   -1.1748    0.8653 C   0  0  0  0  0  0  0  0  0  0  0  0
    4.9462   -1.5395    1.0717 N   0  0  0  0  0  0  0  0  0  0  0  0
    0.8253    0.1353    0.5102 N   0  0  0  0  0  0  0  0  0  0  0  0
   -0.0480    1.2757    0.6977 C   0  0  0  0  0  0  0  0  0  0  0  0
   -1.4789    0.8281    0.8863 C   0  0  0  0  0  0  0  0  0  0  0  0
   -1.9807    0.7519    2.2001 C   0  0  0  0  0  0  0  0  0  0  0  0
   -3.2882    0.3413    2.4397 C   0  0  0  0  0  0  0  0  0  0  0  0
   -4.1117   -0.0097    1.3714 C   0  0  0  0  0  0  0  0  0  0  0  0
   -3.6378    0.0328    0.0519 C   0  0  0  0  0  0  0  0  0  0  0  0
   -4.4832   -0.3346   -1.0112 C   0  0  0  0  0  0  0  0  0  0  0  0
   -4.0290   -0.3191   -2.3285 C   0  0  0  0  0  0  0  0  0  0  0  0
   -2.7247    0.0727   -2.6021 C   0  0  0  0  0  0  0  0  0  0  0  0
   -1.8777    0.4570   -1.5583 C   0  0  0  0  0  0  0  0  0  0  0  0
   -2.3060    0.4480   -0.2096 C   0  0  0  0  0  0  0  0  0  0  0  0
    2.7601   -1.3714   -1.1197 H   0  0  0  0  0  0  0  0  0  0  0  0
    2.5198   -1.7412    0.6050 H   0  0  0  0  0  0  0  0  0  0  0  0
    4.9078    0.5498   -1.4368 H   0  0  0  0  0  0  0  0  0  0  0  0
    7.0206   -1.5675    1.4678 H   0  0  0  0  0  0  0  0  0  0  0  0
    0.5418   -0.7394    0.9385 H   0  0  0  0  0  0  0  0  0  0  0  0
    0.3116    1.8319    1.5748 H   0  0  0  0  0  0  0  0  0  0  0  0
    0.0432    1.9642   -0.1528 H   0  0  0  0  0  0  0  0  0  0  0  0
   -1.3511    1.0194    3.0478 H   0  0  0  0  0  0  0  0  0  0  0  0
   -3.6701    0.2993    3.4565 H   0  0  0  0  0  0  0  0  0  0  0  0
   -5.1334   -0.3238    1.5798 H   0  0  0  0  0  0  0  0  0  0  0  0
   -5.5085   -0.6443   -0.8172 H   0  0  0  0  0  0  0  0  0  0  0  0
   -4.6963   -0.6080   -3.1388 H   0  0  0  0  0  0  0  0  0  0  0  0
   -2.3644    0.0906   -3.6278 H   0  0  0  0  0  0  0  0  0  0  0  0
   -0.8666    0.7619   -1.8202 H   0  0  0  0  0  0  0  0  0  0  0  0
  1  2  2  0
  2  3  1  0
  3  4  1  0
  4  5  1  0
  5  6  2  0
  6  7  1  0
  7  8  2  0
  2  9  1  0
  9 10  1  0
 10 11  1  0
 11 12  2  0
 12 13  1  0
 13 14  2  0
 14 15  1  0
 15 16  2  0
 16 17  1  0
 17 18  2  0
 18 19  1  0
 19 20  2  0
  8  4  1  0
 20 11  1  0
 20 15  1  0
  3 21  1  0
  3 22  1  0
  5 23  1  0
  7 24  1  0
  9 25  1  0
 10 26  1  0
 10 27  1  0
 12 28  1  0
 13 29  1  0
 14 30  1  0
 16 31  1  0
 17 32  1  0
 18 33  1  0
 19 34  1  0
M  END
$$$$
