
     RDKit          3D

 53 56  0  0  0  0  0  0  0  0999 V2000
   -0.4230   -4.0660   -0.7142 C   0  0  0  0  0  0  0  0  0  0  0  0
   -1.1094   -3.0873   -1.6301 C   0  0  0  0  0  0  0  0  0  0  0  0
   -0.8918   -3.0616   -2.8406 O   0  0  0  0  0  0  0  0  0  0  0  0
   -2.0670   -2.1429   -1.0111 C   0  0  0  0  0  0  0  0  0  0  0  0
   -1.5991   -0.9464   -0.5928 C   0  0  0  0  0  0  0  0  0  0  0  0
   -0.2570   -0.5902   -0.7121 N   0  0  0  0  0  0  0  0  0  0  0  0
    0.5373   -0.2920    0.4985 C   0  0  0  0  0  0  0  0  0  0  0  0
    2.0467   -0.4078    0.1994 C   0  0  0  0  0  0  0  0  0  0  0  0
    2.4631    0.5015   -0.8952 N   0  0  0  0  0  0  0  0  0  0  0  0
    3.9047    0.3758   -1.1880 C   0  0  0  0  0  0  0  0  0  0  0  0
    4.7972    0.8279   -0.0466 C   0  0  0  0  0  0  0  0  0  0  0  0
    4.5507    2.0392    0.6243 C   0  0  0  0  0  0  0  0  0  0  0  0
    5.3602    2.4382    1.6856 C   0  0  0  0  0  0  0  0  0  0  0  0
    6.4412    1.6484    2.0758 C   0  0  0  0  0  0  0  0  0  0  0  0
    6.7120    0.4564    1.4055 C   0  0  0  0  0  0  0  0  0  0  0  0
    5.8973    0.0522    0.3483 C   0  0  0  0  0  0  0  0  0  0  0  0
    1.6699    0.1803   -2.1068 C   0  0  0  0  0  0  0  0  0  0  0  0
    0.1462    0.2598   -1.8613 C   0  0  0  0  0  0  0  0  0  0  0  0
   -2.4892   -0.0703   -0.0271 N   0  0  0  0  0  0  0  0  0  0  0  0
   -3.8242   -0.3457    0.1021 C   0  0  0  0  0  0  0  0  0  0  0  0
   -4.7529    0.6874    0.6674 C   0  0  0  0  0  0  0  0  0  0  0  0
   -5.9881    0.2806    1.1913 C   0  0  0  0  0  0  0  0  0  0  0  0
   -6.8702    1.2196    1.7299 C   0  0  0  0  0  0  0  0  0  0  0  0
   -6.5261    2.5721    1.7464 C   0  0  0  0  0  0  0  0  0  0  0  0
   -5.3055    2.9866    1.2153 C   0  0  0  0  0  0  0  0  0  0  0  0
   -4.4191    2.0500    0.6732 C   0  0  0  0  0  0  0  0  0  0  0  0
   -4.3238   -1.4964   -0.2469 N   0  0  0  0  0  0  0  0  0  0  0  0
   -3.5088   -2.4824   -0.7791 C   0  0  0  0  0  0  0  0  0  0  0  0
   -4.1612   -4.0122   -1.1117 S   0  0  0  0  0  0  0  0  0  0  0  0
    0.6545   -3.8819   -0.7267 H   0  0  0  0  0  0  0  0  0  0  0  0
   -0.7850   -3.9646    0.3151 H   0  0  0  0  0  0  0  0  0  0  0  0
   -0.6288   -5.0875   -1.0456 H   0  0  0  0  0  0  0  0  0  0  0  0
    0.2819   -1.0028    1.2918 H   0  0  0  0  0  0  0  0  0  0  0  0
    0.2991    0.7132    0.8615 H   0  0  0  0  0  0  0  0  0  0  0  0
    2.5831   -0.1712    1.1254 H   0  0  0  0  0  0  0  0  0  0  0  0
    2.2841   -1.4499   -0.0600 H   0  0  0  0  0  0  0  0  0  0  0  0
    4.1587    1.0120   -2.0484 H   0  0  0  0  0  0  0  0  0  0  0  0
    4.1490   -0.6580   -1.4723 H   0  0  0  0  0  0  0  0  0  0  0  0
    3.7093    2.6582    0.3250 H   0  0  0  0  0  0  0  0  0  0  0  0
    5.1512    3.3688    2.2043 H   0  0  0  0  0  0  0  0  0  0  0  0
    7.0696    1.9566    2.9054 H   0  0  0  0  0  0  0  0  0  0  0  0
    7.5586   -0.1608    1.7116 H   0  0  0  0  0  0  0  0  0  0  0  0
    6.1226   -0.8813   -0.1629 H   0  0  0  0  0  0  0  0  0  0  0  0
    1.9147   -0.8293   -2.4695 H   0  0  0  0  0  0  0  0  0  0  0  0
    1.9235    0.8849   -2.9083 H   0  0  0  0  0  0  0  0  0  0  0  0
   -0.1478    1.2988   -1.6689 H   0  0  0  0  0  0  0  0  0  0  0  0
   -0.3719   -0.0680   -2.7685 H   0  0  0  0  0  0  0  0  0  0  0  0
   -2.0943    0.8102    0.2700 H   0  0  0  0  0  0  0  0  0  0  0  0
   -6.2693   -0.7734    1.1867 H   0  0  0  0  0  0  0  0  0  0  0  0
   -7.8266    0.8896    2.1328 H   0  0  0  0  0  0  0  0  0  0  0  0
   -7.2119    3.3014    2.1682 H   0  0  0  0  0  0  0  0  0  0  0  0
   -5.0464    4.0445    1.2197 H   0  0  0  0  0  0  0  0  0  0  0  0
   -3.4880    2.4155    0.2460 H   0  0  0  0  0  0  0  0  0  0  0  0
  1  2  1  0
  2  3  2  0
  2  4  1  0
  4  5  2  0
  5  6  1  0
  6  7  1  0
  7  8  1  0
  8  9  1  0
  9 10  1  0
 10 11  1  0
 11 12  2  0
 12 13  1  0
 13 14  2  0
 14 15  1  0
 15 16  2  0
  9 17  1  0
 17 18  1  0
  5 19  1  0
 19 20  1  0
 20 21  1  0
 21 22  2  0
 22 23  1  0
 23 24  2  0
 24 25  1  0
 25 26  2  0
 20 27  2  0
 27 28  1  0
 28 29  2  0
 28  4  1  0
 18  6  1  0
 26 21  1  0
 16 11  1  0
  1 30  1  0
  1 31  1  0
  1 32  1  0
  7 33  1  0
  7 34  1  0
  8 35  1  0
  8 36  1  0
 10 37  1  0
 10 38  1  0
 12 39  1  0
 13 40  1  0
 14 41  1  0
 15 42  1  0
 16 43  1  0
 17 44  1  0
 17 45  1  0
 18 46  1  0
 18 47  1  0
 19 48  1  0
 22 49  1  0
 23 50  1  0
 24 51  1  0
 25 52  1  0
 26 53  1  0
M  END
$$$$
