
     RDKit          3D

 53 56  0  0  0  0  0  0  0  0999 V2000
   -0.6072   -2.2105   -3.4040 C   0  0  0  0  0  0  0  0  0  0  0  0
   -1.0063   -2.7019   -2.0371 C   0  0  0  0  0  0  0  0  0  0  0  0
   -0.5241   -3.7256   -1.5532 O   0  0  0  0  0  0  0  0  0  0  0  0
   -2.0060   -1.8983   -1.2926 C   0  0  0  0  0  0  0  0  0  0  0  0
   -1.5775   -0.9586   -0.4196 C   0  0  0  0  0  0  0  0  0  0  0  0
   -0.2530   -0.6941   -0.0848 N   0  0  0  0  0  0  0  0  0  0  0  0
    0.4775    0.4139   -0.7390 C   0  0  0  0  0  0  0  0  0  0  0  0
    1.8696    0.6218   -0.1071 C   0  0  0  0  0  0  0  0  0  0  0  0
    2.7504   -0.5634   -0.2160 N   0  0  0  0  0  0  0  0  0  0  0  0
    3.8419   -0.5209    0.7704 C   0  0  0  0  0  0  0  0  0  0  0  0
    4.7795    0.6535    0.5817 C   0  0  0  0  0  0  0  0  0  0  0  0
    5.4959    0.8052   -0.6152 C   0  0  0  0  0  0  0  0  0  0  0  0
    6.3661    1.8819   -0.7902 C   0  0  0  0  0  0  0  0  0  0  0  0
    6.5320    2.8166    0.2298 C   0  0  0  0  0  0  0  0  0  0  0  0
    5.8284    2.6758    1.4248 C   0  0  0  0  0  0  0  0  0  0  0  0
    4.9568    1.5994    1.6016 C   0  0  0  0  0  0  0  0  0  0  0  0
    1.9781   -1.8245   -0.1128 C   0  0  0  0  0  0  0  0  0  0  0  0
    0.6075   -1.6966    0.5857 C   0  0  0  0  0  0  0  0  0  0  0  0
   -2.5259   -0.1753    0.1875 N   0  0  0  0  0  0  0  0  0  0  0  0
   -3.8703   -0.3766    0.0357 C   0  0  0  0  0  0  0  0  0  0  0  0
   -4.8382    0.4389    0.8352 C   0  0  0  0  0  0  0  0  0  0  0  0
   -6.1331   -0.0492    1.0530 C   0  0  0  0  0  0  0  0  0  0  0  0
   -7.0482    0.6930    1.8020 C   0  0  0  0  0  0  0  0  0  0  0  0
   -6.6769    1.9280    2.3312 C   0  0  0  0  0  0  0  0  0  0  0  0
   -5.3935    2.4257    2.1083 C   0  0  0  0  0  0  0  0  0  0  0  0
   -4.4739    1.6857    1.3601 C   0  0  0  0  0  0  0  0  0  0  0  0
   -4.3442   -1.2668   -0.7837 N   0  0  0  0  0  0  0  0  0  0  0  0
   -3.4831   -2.0404   -1.5433 C   0  0  0  0  0  0  0  0  0  0  0  0
   -4.1287   -3.0977   -2.7013 S   0  0  0  0  0  0  0  0  0  0  0  0
   -0.8598   -2.9687   -4.1495 H   0  0  0  0  0  0  0  0  0  0  0  0
   -1.1263   -1.2819   -3.6577 H   0  0  0  0  0  0  0  0  0  0  0  0
    0.4689   -2.0183   -3.4156 H   0  0  0  0  0  0  0  0  0  0  0  0
   -0.0999    1.3407   -0.6391 H   0  0  0  0  0  0  0  0  0  0  0  0
    0.5835    0.2029   -1.8101 H   0  0  0  0  0  0  0  0  0  0  0  0
    1.7221    0.8948    0.9469 H   0  0  0  0  0  0  0  0  0  0  0  0
    2.3487    1.4743   -0.6021 H   0  0  0  0  0  0  0  0  0  0  0  0
    4.4590   -1.4251    0.6797 H   0  0  0  0  0  0  0  0  0  0  0  0
    3.4372   -0.5266    1.7912 H   0  0  0  0  0  0  0  0  0  0  0  0
    5.3681    0.0819   -1.4183 H   0  0  0  0  0  0  0  0  0  0  0  0
    6.9136    1.9901   -1.7227 H   0  0  0  0  0  0  0  0  0  0  0  0
    7.2108    3.6543    0.0936 H   0  0  0  0  0  0  0  0  0  0  0  0
    5.9605    3.4042    2.2206 H   0  0  0  0  0  0  0  0  0  0  0  0
    4.4177    1.5043    2.5411 H   0  0  0  0  0  0  0  0  0  0  0  0
    1.8129   -2.1737   -1.1391 H   0  0  0  0  0  0  0  0  0  0  0  0
    2.5616   -2.6145    0.3756 H   0  0  0  0  0  0  0  0  0  0  0  0
    0.1197   -2.6755    0.6350 H   0  0  0  0  0  0  0  0  0  0  0  0
    0.7550   -1.3785    1.6254 H   0  0  0  0  0  0  0  0  0  0  0  0
   -2.1629    0.3660    0.9601 H   0  0  0  0  0  0  0  0  0  0  0  0
   -6.4354   -1.0109    0.6431 H   0  0  0  0  0  0  0  0  0  0  0  0
   -8.0509    0.3070    1.9682 H   0  0  0  0  0  0  0  0  0  0  0  0
   -7.3922    2.5063    2.9110 H   0  0  0  0  0  0  0  0  0  0  0  0
   -5.1128    3.3961    2.5108 H   0  0  0  0  0  0  0  0  0  0  0  0
   -3.4927    2.1116    1.1767 H   0  0  0  0  0  0  0  0  0  0  0  0
  1  2  1  0
  2  3  2  0
  2  4  1  0
  4  5  2  0
  5  6  1  0
  6  7  1  0
  7  8  1  0
  8  9  1  0
  9 10  1  0
 10 11  1  0
 11 12  2  0
 12 13  1  0
 13 14  2  0
 14 15  1  0
 15 16  2  0
  9 17  1  0
 17 18  1  0
  5 19  1  0
 19 20  1  0
 20 21  1  0
 21 22  2  0
 22 23  1  0
 23 24  2  0
 24 25  1  0
 25 26  2  0
 20 27  2  0
 27 28  1  0
 28 29  2  0
 28  4  1  0
 18  6  1  0
 26 21  1  0
 16 11  1  0
  1 30  1  0
  1 31  1  0
  1 32  1  0
  7 33  1  0
  7 34  1  0
  8 35  1  0
  8 36  1  0
 10 37  1  0
 10 38  1  0
 12 39  1  0
 13 40  1  0
 14 41  1  0
 15 42  1  0
 16 43  1  0
 17 44  1  0
 17 45  1  0
 18 46  1  0
 18 47  1  0
 19 48  1  0
 22 49  1  0
 23 50  1  0
 24 51  1  0
 25 52  1  0
 26 53  1  0
M  END
$$$$
