
     RDKit          3D

 45 48  0  0  0  0  0  0  0  0999 V2000
   -2.6712    0.6407   -2.5129 C   0  0  0  0  0  0  0  0  0  0  0  0
   -3.9446    0.5137   -1.6739 C   0  0  0  0  0  0  0  0  0  0  0  0
   -5.0310    1.4317   -2.2368 C   0  0  0  0  0  0  0  0  0  0  0  0
   -3.6933    0.8489   -0.1928 C   0  0  0  0  0  0  0  0  0  0  0  0
   -2.7986   -0.1037    0.4624 N   0  0  0  0  0  0  0  0  0  0  0  0
   -1.4827    0.2733    0.5629 N   0  0  0  0  0  0  0  0  0  0  0  0
   -0.6358   -0.5345    1.1323 C   0  0  0  0  0  0  0  0  0  0  0  0
    0.8034   -0.0258    1.1919 C   0  0  0  0  0  0  0  0  0  0  0  0
    1.4573   -0.1941    2.2067 O   0  0  0  0  0  0  0  0  0  0  0  0
    1.1560    0.5999    0.0240 N   0  0  0  0  0  0  0  0  0  0  0  0
    2.3635    1.1707   -0.2749 C   0  0  0  0  0  0  0  0  0  0  0  0
    2.5782    1.8134   -1.4022 N   0  0  0  0  0  0  0  0  0  0  0  0
    3.8709    2.2953   -1.4877 N   0  0  0  0  0  0  0  0  0  0  0  0
    4.5713    1.9802   -0.4214 C   0  0  0  0  0  0  0  0  0  0  0  0
    6.0607    2.4072   -0.2467 C   0  0  0  0  0  0  0  0  0  0  0  0
    6.9862    2.3504   -1.4357 C   0  0  0  0  0  0  0  0  0  0  0  0
    7.1432    1.3601   -0.3192 C   0  0  0  0  0  0  0  0  0  0  0  0
    3.7166    1.0897    0.7594 S   0  0  0  0  0  0  0  0  0  0  0  0
   -0.9972   -1.8630    1.6549 C   0  0  0  0  0  0  0  0  0  0  0  0
   -0.0754   -2.7555    2.2164 C   0  0  0  0  0  0  0  0  0  0  0  0
   -0.5011   -4.0032    2.6818 C   0  0  0  0  0  0  0  0  0  0  0  0
   -1.8419   -4.3688    2.5838 C   0  0  0  0  0  0  0  0  0  0  0  0
   -2.7602   -3.4876    2.0156 C   0  0  0  0  0  0  0  0  0  0  0  0
   -2.3343   -2.2360    1.5489 C   0  0  0  0  0  0  0  0  0  0  0  0
   -3.3044   -1.3166    0.9244 C   0  0  0  0  0  0  0  0  0  0  0  0
   -4.4821   -1.6523    0.8292 O   0  0  0  0  0  0  0  0  0  0  0  0
   -2.2392    1.6438   -2.4309 H   0  0  0  0  0  0  0  0  0  0  0  0
   -2.8828    0.4495   -3.5704 H   0  0  0  0  0  0  0  0  0  0  0  0
   -1.9142   -0.0837   -2.1967 H   0  0  0  0  0  0  0  0  0  0  0  0
   -4.3009   -0.5208   -1.7553 H   0  0  0  0  0  0  0  0  0  0  0  0
   -5.2434    1.1879   -3.2832 H   0  0  0  0  0  0  0  0  0  0  0  0
   -4.7276    2.4831   -2.1885 H   0  0  0  0  0  0  0  0  0  0  0  0
   -5.9638    1.3213   -1.6737 H   0  0  0  0  0  0  0  0  0  0  0  0
   -3.2708    1.8560   -0.0870 H   0  0  0  0  0  0  0  0  0  0  0  0
   -4.6453    0.8422    0.3523 H   0  0  0  0  0  0  0  0  0  0  0  0
    0.4305    0.7464   -0.6694 H   0  0  0  0  0  0  0  0  0  0  0  0
    6.2034    3.2299    0.4458 H   0  0  0  0  0  0  0  0  0  0  0  0
    6.5914    1.9957   -2.3818 H   0  0  0  0  0  0  0  0  0  0  0  0
    7.7290    3.1334   -1.5343 H   0  0  0  0  0  0  0  0  0  0  0  0
    6.8654    0.3310   -0.5172 H   0  0  0  0  0  0  0  0  0  0  0  0
    7.9962    1.4687    0.3408 H   0  0  0  0  0  0  0  0  0  0  0  0
    0.9793   -2.5106    2.3118 H   0  0  0  0  0  0  0  0  0  0  0  0
    0.2173   -4.6907    3.1243 H   0  0  0  0  0  0  0  0  0  0  0  0
   -2.1720   -5.3394    2.9471 H   0  0  0  0  0  0  0  0  0  0  0  0
   -3.8063   -3.7779    1.9339 H   0  0  0  0  0  0  0  0  0  0  0  0
  1  2  1  0
  2  3  1  0
  2  4  1  0
  4  5  1  0
  5  6  1  0
  6  7  2  0
  7  8  1  0
  8  9  2  0
  8 10  1  0
 10 11  1  0
 11 12  2  0
 12 13  1  0
 13 14  2  0
 14 15  1  0
 15 16  1  0
 16 17  1  0
 14 18  1  0
  7 19  1  0
 19 20  2  0
 20 21  1  0
 21 22  2  0
 22 23  1  0
 23 24  2  0
 24 25  1  0
 25 26  2  0
 25  5  1  0
 18 11  1  0
 24 19  1  0
 17 15  1  0
  1 27  1  0
  1 28  1  0
  1 29  1  0
  2 30  1  0
  3 31  1  0
  3 32  1  0
  3 33  1  0
  4 34  1  0
  4 35  1  0
 10 36  1  0
 15 37  1  0
 16 38  1  0
 16 39  1  0
 17 40  1  0
 17 41  1  0
 20 42  1  0
 21 43  1  0
 22 44  1  0
 23 45  1  0
M  END
$$$$
