
     RDKit          3D

 43 44  0  0  0  0  0  0  0  0999 V2000
    5.8749   -0.2827    2.4395 C   0  0  0  0  0  0  0  0  0  0  0  0
    4.7794   -0.1459    1.5337 O   0  0  0  0  0  0  0  0  0  0  0  0
    5.1500    0.0727    0.2479 C   0  0  0  0  0  0  0  0  0  0  0  0
    6.2978    0.1639   -0.1587 O   0  0  0  0  0  0  0  0  0  0  0  0
    3.9561    0.1997   -0.6307 C   0  0  0  0  0  0  0  0  0  0  0  0
    4.1629    0.4296   -1.9977 C   0  0  0  0  0  0  0  0  0  0  0  0
    3.0761    0.5466   -2.8690 C   0  0  0  0  0  0  0  0  0  0  0  0
    1.7690    0.4737   -2.3830 C   0  0  0  0  0  0  0  0  0  0  0  0
    0.6914    0.4544   -3.2862 N   0  0  0  0  0  0  0  0  0  0  0  0
    1.5605    0.2178   -1.0085 C   0  0  0  0  0  0  0  0  0  0  0  0
    0.2515    0.0918   -0.5077 N   0  0  0  0  0  0  0  0  0  0  0  0
   -0.2935    1.1890   -0.0892 C   0  0  0  0  0  0  0  0  0  0  0  0
   -1.7225    1.1929    0.3780 C   0  0  0  0  0  0  0  0  0  0  0  0
   -1.8724    0.4324    1.6707 C   0  0  0  0  0  0  0  0  0  0  0  0
   -1.0331    0.5404    2.5697 O   0  0  0  0  0  0  0  0  0  0  0  0
   -3.1530   -0.3262    1.9320 C   0  0  0  0  0  0  0  0  0  0  0  0
   -3.7147   -1.0130    0.6814 C   0  0  0  0  0  0  0  0  0  0  0  0
   -2.7922   -2.1539    0.2140 C   0  0  0  0  0  0  0  0  0  0  0  0
   -5.0874   -1.6217    1.0280 C   0  0  0  0  0  0  0  0  0  0  0  0
   -3.9074    0.0312   -0.4248 C   0  0  0  0  0  0  0  0  0  0  0  0
   -2.6368    0.7795   -0.7506 C   0  0  0  0  0  0  0  0  0  0  0  0
   -2.4258    1.1572   -1.9081 O   0  0  0  0  0  0  0  0  0  0  0  0
    2.6499    0.0854   -0.1415 C   0  0  0  0  0  0  0  0  0  0  0  0
    5.4680   -0.4599    3.4389 H   0  0  0  0  0  0  0  0  0  0  0  0
    6.4975   -1.1391    2.1622 H   0  0  0  0  0  0  0  0  0  0  0  0
    6.4681    0.6368    2.4650 H   0  0  0  0  0  0  0  0  0  0  0  0
    5.1740    0.4980   -2.3957 H   0  0  0  0  0  0  0  0  0  0  0  0
    3.2580    0.6801   -3.9321 H   0  0  0  0  0  0  0  0  0  0  0  0
   -0.2127    0.5742   -2.8256 H   0  0  0  0  0  0  0  0  0  0  0  0
    0.8053    1.0368   -4.1066 H   0  0  0  0  0  0  0  0  0  0  0  0
    0.2418    2.1563   -0.0763 H   0  0  0  0  0  0  0  0  0  0  0  0
   -1.9943    2.2306    0.6118 H   0  0  0  0  0  0  0  0  0  0  0  0
   -2.9574   -1.0685    2.7156 H   0  0  0  0  0  0  0  0  0  0  0  0
   -3.8740    0.3969    2.3333 H   0  0  0  0  0  0  0  0  0  0  0  0
   -1.7909   -1.7998   -0.0464 H   0  0  0  0  0  0  0  0  0  0  0  0
   -3.2034   -2.6532   -0.6707 H   0  0  0  0  0  0  0  0  0  0  0  0
   -2.6772   -2.9112    0.9980 H   0  0  0  0  0  0  0  0  0  0  0  0
   -4.9995   -2.3670    1.8267 H   0  0  0  0  0  0  0  0  0  0  0  0
   -5.7899   -0.8523    1.3678 H   0  0  0  0  0  0  0  0  0  0  0  0
   -5.5324   -2.1161    0.1570 H   0  0  0  0  0  0  0  0  0  0  0  0
   -4.6530    0.7795   -0.1289 H   0  0  0  0  0  0  0  0  0  0  0  0
   -4.2671   -0.4504   -1.3423 H   0  0  0  0  0  0  0  0  0  0  0  0
    2.4583   -0.1159    0.9090 H   0  0  0  0  0  0  0  0  0  0  0  0
  1  2  1  0
  2  3  1  0
  3  4  2  0
  3  5  1  0
  5  6  2  0
  6  7  1  0
  7  8  2  0
  8  9  1  0
  8 10  1  0
 10 11  1  0
 11 12  2  3
 12 13  1  0
 13 14  1  0
 14 15  2  0
 14 16  1  0
 16 17  1  0
 17 18  1  0
 17 19  1  0
 17 20  1  0
 20 21  1  0
 21 22  2  0
 10 23  2  0
 23  5  1  0
 21 13  1  0
  1 24  1  0
  1 25  1  0
  1 26  1  0
  6 27  1  0
  7 28  1  0
  9 29  1  0
  9 30  1  0
 12 31  1  0
 13 32  1  0
 16 33  1  0
 16 34  1  0
 18 35  1  0
 18 36  1  0
 18 37  1  0
 19 38  1  0
 19 39  1  0
 19 40  1  0
 20 41  1  0
 20 42  1  0
 23 43  1  0
M  END
$$$$
