
     RDKit          3D

 43 45  0  0  0  0  0  0  0  0999 V2000
   -0.1543   -3.4134   -1.7197 C   0  0  0  0  0  0  0  0  0  0  0  0
   -0.2145   -1.9947   -2.2219 C   0  0  0  0  0  0  0  0  0  0  0  0
   -0.9680   -1.6664   -3.1380 O   0  0  0  0  0  0  0  0  0  0  0  0
    0.6735   -1.0041   -1.5659 C   0  0  0  0  0  0  0  0  0  0  0  0
    0.1790   -0.2320   -0.5718 C   0  0  0  0  0  0  0  0  0  0  0  0
   -1.1286   -0.2465   -0.0963 N   0  0  0  0  0  0  0  0  0  0  0  0
   -2.2730    0.1788   -0.9386 C   0  0  0  0  0  0  0  0  0  0  0  0
   -3.4298   -0.8433   -0.8903 C   0  0  0  0  0  0  0  0  0  0  0  0
   -3.9389   -1.1522    0.4662 N   0  0  0  0  0  0  0  0  0  0  0  0
   -5.2145   -0.4927    0.7309 C   0  0  0  0  0  0  0  0  0  0  0  0
   -2.9503   -0.8190    1.5119 C   0  0  0  0  0  0  0  0  0  0  0  0
   -1.4927   -1.0741    1.0752 C   0  0  0  0  0  0  0  0  0  0  0  0
    1.0435    0.6287    0.0518 N   0  0  0  0  0  0  0  0  0  0  0  0
    2.3671    0.7348   -0.2708 C   0  0  0  0  0  0  0  0  0  0  0  0
    3.2399    1.7023    0.4663 C   0  0  0  0  0  0  0  0  0  0  0  0
    4.6235    1.4853    0.5055 C   0  0  0  0  0  0  0  0  0  0  0  0
    5.4559    2.3699    1.1940 C   0  0  0  0  0  0  0  0  0  0  0  0
    4.9120    3.4783    1.8406 C   0  0  0  0  0  0  0  0  0  0  0  0
    3.5374    3.7080    1.7951 C   0  0  0  0  0  0  0  0  0  0  0  0
    2.7002    2.8246    1.1080 C   0  0  0  0  0  0  0  0  0  0  0  0
    2.9058    0.0062   -1.2023 N   0  0  0  0  0  0  0  0  0  0  0  0
    2.1328   -0.8917   -1.9191 C   0  0  0  0  0  0  0  0  0  0  0  0
    2.8662   -1.8238   -3.1315 S   0  0  0  0  0  0  0  0  0  0  0  0
   -1.1458   -3.7106   -1.3678 H   0  0  0  0  0  0  0  0  0  0  0  0
    0.1676   -4.0718   -2.5305 H   0  0  0  0  0  0  0  0  0  0  0  0
    0.5495   -3.5092   -0.8881 H   0  0  0  0  0  0  0  0  0  0  0  0
   -1.9653    0.3453   -1.9763 H   0  0  0  0  0  0  0  0  0  0  0  0
   -2.6268    1.1483   -0.5662 H   0  0  0  0  0  0  0  0  0  0  0  0
   -4.2379   -0.5108   -1.5536 H   0  0  0  0  0  0  0  0  0  0  0  0
   -3.0726   -1.7905   -1.3120 H   0  0  0  0  0  0  0  0  0  0  0  0
   -5.5848   -0.7561    1.7279 H   0  0  0  0  0  0  0  0  0  0  0  0
   -5.1360    0.5986    0.6677 H   0  0  0  0  0  0  0  0  0  0  0  0
   -5.9747   -0.8263    0.0160 H   0  0  0  0  0  0  0  0  0  0  0  0
   -3.1657   -1.4174    2.4046 H   0  0  0  0  0  0  0  0  0  0  0  0
   -3.0376    0.2377    1.8004 H   0  0  0  0  0  0  0  0  0  0  0  0
   -0.8244   -0.8355    1.9111 H   0  0  0  0  0  0  0  0  0  0  0  0
   -1.3568   -2.1354    0.8344 H   0  0  0  0  0  0  0  0  0  0  0  0
    0.6296    1.1505    0.8103 H   0  0  0  0  0  0  0  0  0  0  0  0
    5.0605    0.6257    0.0013 H   0  0  0  0  0  0  0  0  0  0  0  0
    6.5286    2.1944    1.2203 H   0  0  0  0  0  0  0  0  0  0  0  0
    5.5622    4.1690    2.3722 H   0  0  0  0  0  0  0  0  0  0  0  0
    3.1191    4.5830    2.2870 H   0  0  0  0  0  0  0  0  0  0  0  0
    1.6393    3.0481    1.0619 H   0  0  0  0  0  0  0  0  0  0  0  0
  1  2  1  0
  2  3  2  0
  2  4  1  0
  4  5  2  0
  5  6  1  0
  6  7  1  0
  7  8  1  0
  8  9  1  0
  9 10  1  0
  9 11  1  0
 11 12  1  0
  5 13  1  0
 13 14  1  0
 14 15  1  0
 15 16  2  0
 16 17  1  0
 17 18  2  0
 18 19  1  0
 19 20  2  0
 14 21  2  0
 21 22  1  0
 22 23  2  0
 22  4  1  0
 12  6  1  0
 20 15  1  0
  1 24  1  0
  1 25  1  0
  1 26  1  0
  7 27  1  0
  7 28  1  0
  8 29  1  0
  8 30  1  0
 10 31  1  0
 10 32  1  0
 10 33  1  0
 11 34  1  0
 11 35  1  0
 12 36  1  0
 12 37  1  0
 13 38  1  0
 16 39  1  0
 17 40  1  0
 18 41  1  0
 19 42  1  0
 20 43  1  0
M  END
$$$$
