
     RDKit          3D

 58 61  0  0  0  0  0  0  0  0999 V2000
    9.0518    0.9489    0.9409 C   0  0  0  0  0  0  0  0  0  0  0  0
    7.8122    0.6383    0.1556 C   0  0  0  0  0  0  0  0  0  0  0  0
    7.0706   -0.5156    0.4309 C   0  0  0  0  0  0  0  0  0  0  0  0
    5.9001   -0.7910   -0.2792 C   0  0  0  0  0  0  0  0  0  0  0  0
    5.4468    0.0855   -1.2741 C   0  0  0  0  0  0  0  0  0  0  0  0
    4.1692   -0.2065   -2.0169 C   0  0  0  0  0  0  0  0  0  0  0  0
    3.0220    0.2068   -1.2395 N   0  0  0  0  0  0  0  0  0  0  0  0
    2.2917   -0.6939   -0.4940 C   0  0  0  0  0  0  0  0  0  0  0  0
    2.4698   -1.9064   -0.5388 O   0  0  0  0  0  0  0  0  0  0  0  0
    1.2117   -0.0334    0.3653 C   0  0  0  0  0  0  0  0  0  0  0  0
    0.6310   -1.0094    1.4036 C   0  0  0  0  0  0  0  0  0  0  0  0
   -0.5909   -1.7437    0.8623 C   0  0  0  0  0  0  0  0  0  0  0  0
   -1.7463   -0.7768    0.5376 C   0  0  0  0  0  0  0  0  0  0  0  0
   -2.6608   -1.4139   -0.5261 C   0  0  0  0  0  0  0  0  0  0  0  0
   -3.9043   -0.6756   -0.6855 N   0  0  0  0  0  0  0  0  0  0  0  0
   -4.9864   -0.6260    0.1804 C   0  0  0  0  0  0  0  0  0  0  0  0
   -5.0590   -1.5332    1.2043 N   0  0  0  0  0  0  0  0  0  0  0  0
   -6.0520   -1.6099    2.1436 C   0  0  0  0  0  0  0  0  0  0  0  0
   -5.9325   -2.8102    3.3088 S   0  0  0  0  0  0  0  0  0  0  0  0
   -7.0774   -0.7102    2.0861 N   0  0  0  0  0  0  0  0  0  0  0  0
   -7.0542    0.1596    1.1282 C   0  0  0  0  0  0  0  0  0  0  0  0
   -8.1644    1.1506    1.0467 C   0  0  0  0  0  0  0  0  0  0  0  0
   -8.1953    2.0698    0.0734 C   0  0  0  0  0  0  0  0  0  0  0  0
   -7.1726    2.1464   -0.9399 C   0  0  0  0  0  0  0  0  0  0  0  0
   -6.1316    1.3016   -0.9461 C   0  0  0  0  0  0  0  0  0  0  0  0
   -5.9923    0.2722    0.0716 C   0  0  0  0  0  0  0  0  0  0  0  0
   -1.2358    0.6205    0.1290 C   0  0  0  0  0  0  0  0  0  0  0  0
    0.1293    0.5691   -0.5487 C   0  0  0  0  0  0  0  0  0  0  0  0
    6.1781    1.2520   -1.5326 C   0  0  0  0  0  0  0  0  0  0  0  0
    7.3496    1.5263   -0.8220 C   0  0  0  0  0  0  0  0  0  0  0  0
    9.7585    1.5324    0.3414 H   0  0  0  0  0  0  0  0  0  0  0  0
    9.5641    0.0290    1.2417 H   0  0  0  0  0  0  0  0  0  0  0  0
    8.7931    1.5200    1.8379 H   0  0  0  0  0  0  0  0  0  0  0  0
    7.3984   -1.2100    1.2014 H   0  0  0  0  0  0  0  0  0  0  0  0
    5.3355   -1.6939   -0.0496 H   0  0  0  0  0  0  0  0  0  0  0  0
    4.1395    0.3525   -2.9587 H   0  0  0  0  0  0  0  0  0  0  0  0
    4.1098   -1.2709   -2.2697 H   0  0  0  0  0  0  0  0  0  0  0  0
    2.9590    1.1880   -1.0057 H   0  0  0  0  0  0  0  0  0  0  0  0
    1.7047    0.7736    0.9247 H   0  0  0  0  0  0  0  0  0  0  0  0
    0.3353   -0.4472    2.2992 H   0  0  0  0  0  0  0  0  0  0  0  0
    1.3851   -1.7329    1.7342 H   0  0  0  0  0  0  0  0  0  0  0  0
   -0.3008   -2.3109   -0.0313 H   0  0  0  0  0  0  0  0  0  0  0  0
   -0.9353   -2.4816    1.5971 H   0  0  0  0  0  0  0  0  0  0  0  0
   -2.3315   -0.6402    1.4571 H   0  0  0  0  0  0  0  0  0  0  0  0
   -2.8799   -2.4579   -0.2728 H   0  0  0  0  0  0  0  0  0  0  0  0
   -2.1464   -1.4368   -1.4943 H   0  0  0  0  0  0  0  0  0  0  0  0
   -3.8374    0.1036   -1.3303 H   0  0  0  0  0  0  0  0  0  0  0  0
   -4.3333   -2.2278    1.2885 H   0  0  0  0  0  0  0  0  0  0  0  0
   -8.9337    1.0871    1.8071 H   0  0  0  0  0  0  0  0  0  0  0  0
   -9.0101    2.7863    0.0241 H   0  0  0  0  0  0  0  0  0  0  0  0
   -7.2745    2.9092   -1.7066 H   0  0  0  0  0  0  0  0  0  0  0  0
   -5.3917    1.3850   -1.7323 H   0  0  0  0  0  0  0  0  0  0  0  0
   -1.9517    1.1353   -0.5204 H   0  0  0  0  0  0  0  0  0  0  0  0
   -1.1503    1.2416    1.0308 H   0  0  0  0  0  0  0  0  0  0  0  0
    0.4278    1.5830   -0.8427 H   0  0  0  0  0  0  0  0  0  0  0  0
    0.0447   -0.0044   -1.4810 H   0  0  0  0  0  0  0  0  0  0  0  0
    5.8425    1.9569   -2.2897 H   0  0  0  0  0  0  0  0  0  0  0  0
    7.9009    2.4390   -1.0374 H   0  0  0  0  0  0  0  0  0  0  0  0
  1  2  1  0
  2  3  2  0
  3  4  1  0
  4  5  2  0
  5  6  1  0
  6  7  1  0
  7  8  1  0
  8  9  2  0
  8 10  1  0
 10 11  1  0
 11 12  1  0
 12 13  1  0
 13 14  1  0
 14 15  1  0
 15 16  1  0
 16 17  1  0
 17 18  1  0
 18 19  2  0
 18 20  1  0
 20 21  2  0
 21 22  1  0
 22 23  2  0
 23 24  1  0
 24 25  2  0
 25 26  1  0
 13 27  1  0
 27 28  1  0
  5 29  1  0
 29 30  2  0
 30  2  1  0
 28 10  1  0
 26 16  2  0
 26 21  1  0
  1 31  1  0
  1 32  1  0
  1 33  1  0
  3 34  1  0
  4 35  1  0
  6 36  1  0
  6 37  1  0
  7 38  1  0
 10 39  1  0
 11 40  1  0
 11 41  1  0
 12 42  1  0
 12 43  1  0
 13 44  1  0
 14 45  1  0
 14 46  1  0
 15 47  1  0
 17 48  1  0
 22 49  1  0
 23 50  1  0
 24 51  1  0
 25 52  1  0
 27 53  1  0
 27 54  1  0
 28 55  1  0
 28 56  1  0
 29 57  1  0
 30 58  1  0
M  END
$$$$
