
     RDKit          3D

 46 47  0  0  0  0  0  0  0  0999 V2000
    7.6728   -2.3444    1.1342 O   0  0  0  0  0  0  0  0  0  0  0  0
    7.0392   -2.1911    2.1647 C   0  0  0  0  0  0  0  0  0  0  0  0
    7.5136   -2.6459    3.3394 O   0  0  0  0  0  0  0  0  0  0  0  0
    5.7054   -1.5209    2.3139 C   0  0  0  0  0  0  0  0  0  0  0  0
    5.2265   -0.9728    0.9752 C   0  0  0  0  0  0  0  0  0  0  0  0
    3.8811   -0.2827    1.0926 C   0  0  0  0  0  0  0  0  0  0  0  0
    3.2712   -0.2266    2.1533 O   0  0  0  0  0  0  0  0  0  0  0  0
    3.4716    0.2368   -0.1251 N   0  0  0  0  0  0  0  0  0  0  0  0
    2.2898    0.9552   -0.3999 C   0  0  0  0  0  0  0  0  0  0  0  0
    2.0842    1.3601   -1.7272 C   0  0  0  0  0  0  0  0  0  0  0  0
    0.9399    2.0778   -2.0876 C   0  0  0  0  0  0  0  0  0  0  0  0
   -0.0106    2.3886   -1.1142 C   0  0  0  0  0  0  0  0  0  0  0  0
   -1.4523    3.3223   -1.5656 S   0  0  0  0  0  6  0  0  0  0  0  0
   -2.0201    3.8945   -0.3659 O   0  0  0  0  0  0  0  0  0  0  0  0
   -1.1106    4.1344   -2.7125 O   0  0  0  0  0  0  0  0  0  0  0  0
   -2.4944    2.1362   -2.1245 N   0  0  0  0  0  0  0  0  0  0  0  0
   -2.9153    1.0499   -1.2354 C   0  0  0  0  0  0  0  0  0  0  0  0
   -4.3267    0.5993   -1.6165 C   0  0  0  0  0  0  0  0  0  0  0  0
   -4.8035   -0.5351   -0.7453 C   0  0  0  0  0  0  0  0  0  0  0  0
   -4.6236   -1.8659   -1.1452 C   0  0  0  0  0  0  0  0  0  0  0  0
   -5.0454   -2.9129   -0.3244 C   0  0  0  0  0  0  0  0  0  0  0  0
   -5.6463   -2.6399    0.9030 C   0  0  0  0  0  0  0  0  0  0  0  0
   -5.8260   -1.3199    1.3115 C   0  0  0  0  0  0  0  0  0  0  0  0
   -5.4055   -0.2713    0.4925 C   0  0  0  0  0  0  0  0  0  0  0  0
    0.1886    2.0097    0.2140 C   0  0  0  0  0  0  0  0  0  0  0  0
    1.3348    1.2878    0.5650 C   0  0  0  0  0  0  0  0  0  0  0  0
    8.3747   -3.0570    3.1161 H   0  0  0  0  0  0  0  0  0  0  0  0
    4.9898   -2.2548    2.7010 H   0  0  0  0  0  0  0  0  0  0  0  0
    5.8044   -0.7064    3.0401 H   0  0  0  0  0  0  0  0  0  0  0  0
    5.9540   -0.2514    0.5829 H   0  0  0  0  0  0  0  0  0  0  0  0
    5.1335   -1.7878    0.2468 H   0  0  0  0  0  0  0  0  0  0  0  0
    4.0900    0.0827   -0.9124 H   0  0  0  0  0  0  0  0  0  0  0  0
    2.8139    1.1281   -2.4994 H   0  0  0  0  0  0  0  0  0  0  0  0
    0.8038    2.3947   -3.1192 H   0  0  0  0  0  0  0  0  0  0  0  0
   -2.4452    1.9708   -3.1278 H   0  0  0  0  0  0  0  0  0  0  0  0
   -2.9038    1.3766   -0.1900 H   0  0  0  0  0  0  0  0  0  0  0  0
   -2.2109    0.2167   -1.3378 H   0  0  0  0  0  0  0  0  0  0  0  0
   -5.0273    1.4410   -1.5379 H   0  0  0  0  0  0  0  0  0  0  0  0
   -4.3544    0.2923   -2.6702 H   0  0  0  0  0  0  0  0  0  0  0  0
   -4.1556   -2.0976   -2.0992 H   0  0  0  0  0  0  0  0  0  0  0  0
   -4.9055   -3.9429   -0.6421 H   0  0  0  0  0  0  0  0  0  0  0  0
   -5.9747   -3.4558    1.5415 H   0  0  0  0  0  0  0  0  0  0  0  0
   -6.2940   -1.1062    2.2691 H   0  0  0  0  0  0  0  0  0  0  0  0
   -5.5515    0.7540    0.8269 H   0  0  0  0  0  0  0  0  0  0  0  0
   -0.5346    2.2708    0.9841 H   0  0  0  0  0  0  0  0  0  0  0  0
    1.4549    1.0089    1.6079 H   0  0  0  0  0  0  0  0  0  0  0  0
  1  2  2  0
  2  3  1  0
  2  4  1  0
  4  5  1  0
  5  6  1  0
  6  7  2  0
  6  8  1  0
  8  9  1  0
  9 10  2  0
 10 11  1  0
 11 12  2  0
 12 13  1  0
 13 14  2  0
 13 15  2  0
 13 16  1  0
 16 17  1  0
 17 18  1  0
 18 19  1  0
 19 20  2  0
 20 21  1  0
 21 22  2  0
 22 23  1  0
 23 24  2  0
 12 25  1  0
 25 26  2  0
 26  9  1  0
 24 19  1  0
  3 27  1  0
  4 28  1  0
  4 29  1  0
  5 30  1  0
  5 31  1  0
  8 32  1  0
 10 33  1  0
 11 34  1  0
 16 35  1  0
 17 36  1  0
 17 37  1  0
 18 38  1  0
 18 39  1  0
 20 40  1  0
 21 41  1  0
 22 42  1  0
 23 43  1  0
 24 44  1  0
 25 45  1  0
 26 46  1  0
M  END
$$$$
