
     RDKit          3D

 53 55  0  0  0  0  0  0  0  0999 V2000
    5.3573    0.9501    0.8453 C   0  0  0  0  0  0  0  0  0  0  0  0
    5.0778    0.1938   -0.3941 C   0  0  0  0  0  0  0  0  0  0  0  0
    5.5674   -1.0783   -0.4325 O   0  0  0  0  0  0  0  0  0  0  0  0
    5.2803   -1.5803   -1.6593 C   0  0  0  0  0  0  0  0  0  0  0  0
    4.6024   -0.6511   -2.4098 C   0  0  0  0  0  0  0  0  0  0  0  0
    4.4245    0.4936   -1.5792 C   0  0  0  0  0  0  0  0  0  0  0  0
    3.7894    1.7508   -1.9406 C   0  0  0  0  0  0  0  0  0  0  0  0
    4.0719    2.2954   -3.0060 O   0  0  0  0  0  0  0  0  0  0  0  0
    2.8694    2.3088   -1.0438 N   0  0  0  0  0  0  0  0  0  0  0  0
    2.4043    3.6536   -1.3436 C   0  0  0  0  0  0  0  0  0  0  0  0
    2.0470    1.5142   -0.1188 C   0  0  0  0  0  0  0  0  0  0  0  0
    0.6188    1.2380   -0.6290 C   0  0  0  0  0  0  0  0  0  0  0  0
    0.6115    0.4101   -1.9253 C   0  0  0  0  0  0  0  0  0  0  0  0
   -0.6513   -0.4391   -2.0705 C   0  0  0  0  0  0  0  0  0  0  0  0
   -1.8467    0.1863   -1.3567 C   0  0  0  0  0  0  0  0  0  0  0  0
   -1.6269    0.4170    0.0793 N   0  0  0  0  0  0  0  0  0  0  0  0
   -2.3200   -0.5578    0.9395 C   0  0  0  0  0  0  0  0  0  0  0  0
   -3.8361   -0.3067    1.0099 C   0  0  0  0  0  0  0  0  0  0  0  0
   -4.5289   -1.3275    1.8783 C   0  0  0  0  0  0  0  0  0  0  0  0
   -5.1694   -2.4373    1.3106 C   0  0  0  0  0  0  0  0  0  0  0  0
   -5.7946   -3.3852    2.1253 C   0  0  0  0  0  0  0  0  0  0  0  0
   -5.7829   -3.2368    3.5127 C   0  0  0  0  0  0  0  0  0  0  0  0
   -5.1437   -2.1399    4.0870 C   0  0  0  0  0  0  0  0  0  0  0  0
   -4.5230   -1.1992    3.2705 C   0  0  0  0  0  0  0  0  0  0  0  0
   -3.9044   -0.1560    3.8420 F   0  0  0  0  0  0  0  0  0  0  0  0
   -0.2064    0.5216    0.4514 C   0  0  0  0  0  0  0  0  0  0  0  0
    5.3025    2.0290    0.6726 H   0  0  0  0  0  0  0  0  0  0  0  0
    6.3606    0.7228    1.2194 H   0  0  0  0  0  0  0  0  0  0  0  0
    4.6341    0.6872    1.6230 H   0  0  0  0  0  0  0  0  0  0  0  0
    5.6299   -2.5859   -1.8471 H   0  0  0  0  0  0  0  0  0  0  0  0
    4.2664   -0.7714   -3.4305 H   0  0  0  0  0  0  0  0  0  0  0  0
    1.5893    3.6009   -2.0712 H   0  0  0  0  0  0  0  0  0  0  0  0
    3.2148    4.2536   -1.7689 H   0  0  0  0  0  0  0  0  0  0  0  0
    2.0583    4.1355   -0.4248 H   0  0  0  0  0  0  0  0  0  0  0  0
    2.0049    2.0767    0.8219 H   0  0  0  0  0  0  0  0  0  0  0  0
    2.5234    0.5583    0.1082 H   0  0  0  0  0  0  0  0  0  0  0  0
    0.1325    2.2016   -0.8339 H   0  0  0  0  0  0  0  0  0  0  0  0
    1.4773   -0.2597   -1.9746 H   0  0  0  0  0  0  0  0  0  0  0  0
    0.6982    1.0907   -2.7813 H   0  0  0  0  0  0  0  0  0  0  0  0
   -0.4668   -1.4392   -1.6572 H   0  0  0  0  0  0  0  0  0  0  0  0
   -0.8771   -0.5815   -3.1336 H   0  0  0  0  0  0  0  0  0  0  0  0
   -2.7327   -0.4300   -1.5453 H   0  0  0  0  0  0  0  0  0  0  0  0
   -2.0607    1.1582   -1.8193 H   0  0  0  0  0  0  0  0  0  0  0  0
   -1.9270   -0.4808    1.9626 H   0  0  0  0  0  0  0  0  0  0  0  0
   -2.1081   -1.5825    0.6062 H   0  0  0  0  0  0  0  0  0  0  0  0
   -4.0331    0.6974    1.4076 H   0  0  0  0  0  0  0  0  0  0  0  0
   -4.2889   -0.3246    0.0118 H   0  0  0  0  0  0  0  0  0  0  0  0
   -5.1869   -2.5702    0.2310 H   0  0  0  0  0  0  0  0  0  0  0  0
   -6.2922   -4.2416    1.6761 H   0  0  0  0  0  0  0  0  0  0  0  0
   -6.2704   -3.9752    4.1440 H   0  0  0  0  0  0  0  0  0  0  0  0
   -5.1231   -2.0110    5.1643 H   0  0  0  0  0  0  0  0  0  0  0  0
    0.2245   -0.4735    0.6305 H   0  0  0  0  0  0  0  0  0  0  0  0
   -0.1374    1.0771    1.3947 H   0  0  0  0  0  0  0  0  0  0  0  0
  1  2  1  0
  2  3  1  0
  3  4  1  0
  4  5  2  0
  5  6  1  0
  6  7  1  0
  7  8  2  0
  7  9  1  0
  9 10  1  0
  9 11  1  0
 11 12  1  0
 12 13  1  0
 13 14  1  0
 14 15  1  0
 15 16  1  0
 16 17  1  0
 17 18  1  0
 18 19  1  0
 19 20  2  0
 20 21  1  0
 21 22  2  0
 22 23  1  0
 23 24  2  0
 24 25  1  0
 16 26  1  0
  6  2  2  0
 26 12  1  0
 24 19  1  0
  1 27  1  0
  1 28  1  0
  1 29  1  0
  4 30  1  0
  5 31  1  0
 10 32  1  0
 10 33  1  0
 10 34  1  0
 11 35  1  0
 11 36  1  0
 12 37  1  0
 13 38  1  0
 13 39  1  0
 14 40  1  0
 14 41  1  0
 15 42  1  0
 15 43  1  0
 17 44  1  0
 17 45  1  0
 18 46  1  0
 18 47  1  0
 20 48  1  0
 21 49  1  0
 22 50  1  0
 23 51  1  0
 26 52  1  0
 26 53  1  0
M  END
$$$$
