
     RDKit          3D

 48 51  0  0  0  0  0  0  0  0999 V2000
    3.3276    2.9172   -0.0580 C   0  0  0  0  0  0  0  0  0  0  0  0
    2.5374    1.6694    0.3285 C   0  0  0  0  0  0  0  0  0  0  0  0
    2.7932    1.3065    1.7926 C   0  0  0  0  0  0  0  0  0  0  0  0
    2.8823    0.5048   -0.6087 C   0  0  0  0  0  0  0  0  0  0  0  0
    2.0620   -0.6192   -0.2685 O   0  0  0  0  0  0  0  0  0  0  0  0
    2.0588   -1.6180   -1.1850 C   0  0  0  0  0  0  0  0  0  0  0  0
    2.7589   -1.6912   -2.1817 O   0  0  0  0  0  0  0  0  0  0  0  0
    1.1615   -2.7012   -0.7132 C   0  0  0  0  0  0  0  0  0  0  0  0
    1.6697   -4.0060   -0.8224 C   0  0  0  0  0  0  0  0  0  0  0  0
    0.9722   -5.0871   -0.2813 C   0  0  0  0  0  0  0  0  0  0  0  0
   -0.2383   -4.8765    0.3752 C   0  0  0  0  0  0  0  0  0  0  0  0
   -0.7656   -3.5879    0.4767 C   0  0  0  0  0  0  0  0  0  0  0  0
   -0.0769   -2.4948   -0.0790 C   0  0  0  0  0  0  0  0  0  0  0  0
   -0.7055   -1.2171   -0.0346 N   0  0  0  0  0  0  0  0  0  0  0  0
   -0.8669   -0.3506   -1.1339 C   0  0  0  0  0  0  0  0  0  0  0  0
   -0.4117   -0.6445   -2.3468 O   0  0  0  0  0  0  0  0  0  0  0  0
   -1.5877    0.7172   -0.6893 C   0  0  0  0  0  0  0  0  0  0  0  0
   -1.9014    0.5179    0.6668 C   0  0  0  0  0  0  0  0  0  0  0  0
   -1.3515   -0.6552    1.0885 C   0  0  0  0  0  0  0  0  0  0  0  0
   -1.3448   -1.1805    2.3122 O   0  0  0  0  0  0  0  0  0  0  0  0
   -2.6969    1.6998    1.1214 C   0  0  0  0  0  0  0  0  0  0  0  0
   -4.0798    1.6360    0.4228 C   0  0  0  0  0  0  0  0  0  0  0  0
   -3.7389    1.8526   -1.0884 C   0  0  0  0  0  0  0  0  0  0  0  0
   -2.1975    2.0216   -1.0949 C   0  0  0  0  0  0  0  0  0  0  0  0
   -2.0296    2.8114    0.2456 C   0  0  0  0  0  0  0  0  0  0  0  0
    3.0610    3.7618    0.5861 H   0  0  0  0  0  0  0  0  0  0  0  0
    3.1153    3.2069   -1.0926 H   0  0  0  0  0  0  0  0  0  0  0  0
    4.4061    2.7490    0.0327 H   0  0  0  0  0  0  0  0  0  0  0  0
    1.4668    1.8885    0.2295 H   0  0  0  0  0  0  0  0  0  0  0  0
    2.5482    2.1486    2.4487 H   0  0  0  0  0  0  0  0  0  0  0  0
    2.1767    0.4568    2.1037 H   0  0  0  0  0  0  0  0  0  0  0  0
    3.8434    1.0429    1.9579 H   0  0  0  0  0  0  0  0  0  0  0  0
    2.6931    0.8024   -1.6476 H   0  0  0  0  0  0  0  0  0  0  0  0
    3.9358    0.2206   -0.5022 H   0  0  0  0  0  0  0  0  0  0  0  0
    2.6258   -4.1789   -1.3143 H   0  0  0  0  0  0  0  0  0  0  0  0
    1.3767   -6.0927   -0.3699 H   0  0  0  0  0  0  0  0  0  0  0  0
   -0.7854   -5.7210    0.7885 H   0  0  0  0  0  0  0  0  0  0  0  0
   -1.7430   -3.4599    0.9404 H   0  0  0  0  0  0  0  0  0  0  0  0
   -0.6579    0.0912   -2.9349 H   0  0  0  0  0  0  0  0  0  0  0  0
   -0.6359   -1.8452    2.3650 H   0  0  0  0  0  0  0  0  0  0  0  0
   -2.7105    1.8855    2.1951 H   0  0  0  0  0  0  0  0  0  0  0  0
   -4.5877    0.6788    0.5829 H   0  0  0  0  0  0  0  0  0  0  0  0
   -4.7340    2.4413    0.7754 H   0  0  0  0  0  0  0  0  0  0  0  0
   -4.0709    1.0043   -1.6968 H   0  0  0  0  0  0  0  0  0  0  0  0
   -4.2337    2.7592   -1.4545 H   0  0  0  0  0  0  0  0  0  0  0  0
   -1.7714    2.4939   -1.9798 H   0  0  0  0  0  0  0  0  0  0  0  0
   -2.5717    3.7633    0.2617 H   0  0  0  0  0  0  0  0  0  0  0  0
   -0.9773    2.9785    0.5072 H   0  0  0  0  0  0  0  0  0  0  0  0
  1  2  1  0
  2  3  1  0
  2  4  1  0
  4  5  1  0
  5  6  1  0
  6  7  2  0
  6  8  1  0
  8  9  2  0
  9 10  1  0
 10 11  2  0
 11 12  1  0
 12 13  2  0
 13 14  1  0
 14 15  1  0
 15 16  1  0
 15 17  2  0
 17 18  1  0
 18 19  2  0
 19 20  1  0
 18 21  1  0
 21 22  1  0
 22 23  1  0
 23 24  1  0
 24 25  1  0
 13  8  1  0
 19 14  1  0
 25 21  1  0
 24 17  1  0
  1 26  1  0
  1 27  1  0
  1 28  1  0
  2 29  1  0
  3 30  1  0
  3 31  1  0
  3 32  1  0
  4 33  1  0
  4 34  1  0
  9 35  1  0
 10 36  1  0
 11 37  1  0
 12 38  1  0
 16 39  1  0
 20 40  1  0
 21 41  1  0
 22 42  1  0
 22 43  1  0
 23 44  1  0
 23 45  1  0
 24 46  1  0
 25 47  1  0
 25 48  1  0
M  END
$$$$
