
     RDKit          3D

 53 56  0  0  0  0  0  0  0  0999 V2000
   -0.0382   -1.9407    3.1609 C   0  0  0  0  0  0  0  0  0  0  0  0
   -0.3867   -0.4596    3.0866 C   0  0  0  0  0  0  0  0  0  0  0  0
    0.1184    0.1922    1.8642 N   0  0  0  0  0  0  0  0  0  0  0  0
    1.4351    0.6605    1.7205 C   0  0  0  0  0  0  0  0  0  0  0  0
    1.8241    1.1470    0.6513 O   0  0  0  0  0  0  0  0  0  0  0  0
    2.3444    0.6562    2.9490 C   0  0  0  0  0  0  0  0  0  0  0  0
    4.0885    0.4376    2.4713 S   0  0  0  0  0  0  0  0  0  0  0  0
    4.0265   -1.2313    2.0181 C   0  0  0  0  0  0  0  0  0  0  0  0
    3.7970   -2.2284    2.8433 N   0  0  0  0  0  0  0  0  0  0  0  0
    3.8196   -3.3935    2.1072 N   0  0  0  0  0  0  0  0  0  0  0  0
    4.0552   -3.0712    0.8516 C   0  0  0  0  0  0  0  0  0  0  0  0
    4.1878   -3.8476   -0.3326 C   0  0  0  0  0  0  0  0  0  0  0  0
    4.4334   -3.2333   -1.5069 C   0  0  0  0  0  0  0  0  0  0  0  0
    4.5608   -1.7859   -1.5975 C   0  0  0  0  0  0  0  0  0  0  0  0
    4.4372   -1.0487   -0.4802 C   0  0  0  0  0  0  0  0  0  0  0  0
    4.1906   -1.6916    0.7343 N   0  0  0  0  0  0  0  0  0  0  0  0
   -0.6062   -0.0315    0.6793 C   0  0  0  0  0  0  0  0  0  0  0  0
   -1.8270    0.5068    0.4318 C   0  0  0  0  0  0  0  0  0  0  0  0
   -2.3993    1.3994    1.3369 N   0  0  0  0  0  0  0  0  0  0  0  0
   -2.4963    0.1792   -0.7488 N   0  0  0  0  0  0  0  0  0  0  0  0
   -3.7855    0.7909   -1.0871 C   0  0  0  0  0  0  0  0  0  0  0  0
   -3.6469    2.0357   -1.9397 C   0  0  0  0  0  0  0  0  0  0  0  0
   -3.3981    3.2852   -1.3545 C   0  0  0  0  0  0  0  0  0  0  0  0
   -3.2625    4.4274   -2.1462 C   0  0  0  0  0  0  0  0  0  0  0  0
   -3.3704    4.3338   -3.5319 C   0  0  0  0  0  0  0  0  0  0  0  0
   -3.6102    3.0978   -4.1276 C   0  0  0  0  0  0  0  0  0  0  0  0
   -3.7456    1.9553   -3.3370 C   0  0  0  0  0  0  0  0  0  0  0  0
   -1.9460   -0.6495   -1.7207 C   0  0  0  0  0  0  0  0  0  0  0  0
   -2.5418   -1.0389   -2.7245 O   0  0  0  0  0  0  0  0  0  0  0  0
   -0.6672   -1.0630   -1.5098 N   0  0  0  0  0  0  0  0  0  0  0  0
   -0.0078   -0.9614   -0.3285 C   0  0  0  0  0  0  0  0  0  0  0  0
    0.9734   -1.6591   -0.0826 O   0  0  0  0  0  0  0  0  0  0  0  0
   -0.5210   -2.4988    2.3521 H   0  0  0  0  0  0  0  0  0  0  0  0
    1.0380   -2.1099    3.0820 H   0  0  0  0  0  0  0  0  0  0  0  0
   -0.3822   -2.3617    4.1106 H   0  0  0  0  0  0  0  0  0  0  0  0
    0.0087    0.0666    3.9609 H   0  0  0  0  0  0  0  0  0  0  0  0
   -1.4756   -0.3536    3.1381 H   0  0  0  0  0  0  0  0  0  0  0  0
    2.0948   -0.1254    3.6654 H   0  0  0  0  0  0  0  0  0  0  0  0
    2.2345    1.6246    3.4468 H   0  0  0  0  0  0  0  0  0  0  0  0
    4.0847   -4.9240   -0.2628 H   0  0  0  0  0  0  0  0  0  0  0  0
    4.5342   -3.8084   -2.4224 H   0  0  0  0  0  0  0  0  0  0  0  0
    4.7404   -1.3312   -2.5658 H   0  0  0  0  0  0  0  0  0  0  0  0
    4.5042    0.0321   -0.4761 H   0  0  0  0  0  0  0  0  0  0  0  0
   -1.7975    1.5703    2.1387 H   0  0  0  0  0  0  0  0  0  0  0  0
   -3.3225    1.0964    1.6335 H   0  0  0  0  0  0  0  0  0  0  0  0
   -4.3987    0.0557   -1.6252 H   0  0  0  0  0  0  0  0  0  0  0  0
   -4.3646    1.0174   -0.1849 H   0  0  0  0  0  0  0  0  0  0  0  0
   -3.2997    3.3773   -0.2757 H   0  0  0  0  0  0  0  0  0  0  0  0
   -3.0658    5.3893   -1.6803 H   0  0  0  0  0  0  0  0  0  0  0  0
   -3.2606    5.2223   -4.1477 H   0  0  0  0  0  0  0  0  0  0  0  0
   -3.6860    3.0200   -5.2090 H   0  0  0  0  0  0  0  0  0  0  0  0
   -3.9212    0.9956   -3.8207 H   0  0  0  0  0  0  0  0  0  0  0  0
   -0.3003   -1.7245   -2.1753 H   0  0  0  0  0  0  0  0  0  0  0  0
  1  2  1  0
  2  3  1  0
  3  4  1  0
  4  5  2  0
  4  6  1  0
  6  7  1  0
  7  8  1  0
  8  9  2  0
  9 10  1  0
 10 11  2  0
 11 12  1  0
 12 13  2  0
 13 14  1  0
 14 15  2  0
 15 16  1  0
  3 17  1  0
 17 18  2  0
 18 19  1  0
 18 20  1  0
 20 21  1  0
 21 22  1  0
 22 23  2  0
 23 24  1  0
 24 25  2  0
 25 26  1  0
 26 27  2  0
 20 28  1  0
 28 29  2  0
 28 30  1  0
 30 31  1  0
 31 32  2  0
 16  8  1  0
 31 17  1  0
 16 11  1  0
 27 22  1  0
  1 33  1  0
  1 34  1  0
  1 35  1  0
  2 36  1  0
  2 37  1  0
  6 38  1  0
  6 39  1  0
 12 40  1  0
 13 41  1  0
 14 42  1  0
 15 43  1  0
 19 44  1  0
 19 45  1  0
 21 46  1  0
 21 47  1  0
 23 48  1  0
 24 49  1  0
 25 50  1  0
 26 51  1  0
 27 52  1  0
 30 53  1  0
M  END
$$$$
