
     RDKit          3D

 50 52  0  0  0  0  0  0  0  0999 V2000
    5.8069    0.4945    1.9832 O   0  0  0  0  0  0  0  0  0  0  0  0
    5.4300    0.7462    0.8546 C   0  0  0  0  0  0  0  0  0  0  0  0
    5.9355    1.7769    0.1578 O   0  0  0  0  0  0  0  0  0  0  0  0
    4.4015   -0.0065    0.0974 C   0  0  0  0  0  0  0  0  0  0  0  0
    4.0785    0.3103   -1.2283 C   0  0  0  0  0  0  0  0  0  0  0  0
    3.1132   -0.4339   -1.9048 C   0  0  0  0  0  0  0  0  0  0  0  0
    2.7211   -0.0758   -3.2254 N   0  0  0  0  0  0  0  0  0  0  0  0
    1.8105    1.3348   -3.4508 S   0  0  0  0  0  6  0  0  0  0  0  0
    2.5660    2.4748   -2.9821 O   0  0  0  0  0  0  0  0  0  0  0  0
    1.2853    1.2714   -4.7972 O   0  0  0  0  0  0  0  0  0  0  0  0
    0.4460    1.0935   -2.3339 C   0  0  0  0  0  0  0  0  0  0  0  0
   -0.6745    0.3725   -2.7559 C   0  0  0  0  0  0  0  0  0  0  0  0
   -1.7182    0.1196   -1.8567 C   0  0  0  0  0  0  0  0  0  0  0  0
   -1.6663    0.5773   -0.5287 C   0  0  0  0  0  0  0  0  0  0  0  0
   -2.6861    0.2920    0.3948 N   0  0  0  0  0  0  0  0  0  0  0  0
   -3.8416    1.1988    0.2535 C   0  0  0  0  0  0  0  0  0  0  0  0
   -4.7506    1.0466    1.4733 C   0  0  0  0  0  0  0  0  0  0  0  0
   -5.1671   -0.4090    1.6787 C   0  0  0  0  0  0  0  0  0  0  0  0
   -3.9449   -1.3249    1.7278 C   0  0  0  0  0  0  0  0  0  0  0  0
   -3.0604   -1.1293    0.4961 C   0  0  0  0  0  0  0  0  0  0  0  0
   -0.5403    1.3388   -0.1628 C   0  0  0  0  0  0  0  0  0  0  0  0
   -0.4051    1.8181    1.1965 N   0  0  0  0  0  4  0  0  0  0  0  0
   -1.0705    2.8120    1.5200 O   0  0  0  0  0  0  0  0  0  0  0  0
    0.4319    1.2406    1.9068 O   0  0  0  0  0  1  0  0  0  0  0  0
    0.5138    1.6116   -1.0419 C   0  0  0  0  0  0  0  0  0  0  0  0
    2.4577   -1.4853   -1.2649 C   0  0  0  0  0  0  0  0  0  0  0  0
    2.7653   -1.7951    0.0656 C   0  0  0  0  0  0  0  0  0  0  0  0
    2.0115   -2.8937    0.7132 C   0  0  0  0  0  0  0  0  0  0  0  0
    1.0804   -3.4974    0.2127 O   0  0  0  0  0  0  0  0  0  0  0  0
    2.4679   -3.1827    1.9415 O   0  0  0  0  0  0  0  0  0  0  0  0
    3.7413   -1.0583    0.7456 C   0  0  0  0  0  0  0  0  0  0  0  0
    6.5807    2.1899    0.7697 H   0  0  0  0  0  0  0  0  0  0  0  0
    4.5789    1.1335   -1.7351 H   0  0  0  0  0  0  0  0  0  0  0  0
    2.4265   -0.8198   -3.8578 H   0  0  0  0  0  0  0  0  0  0  0  0
   -0.7430   -0.0058   -3.7744 H   0  0  0  0  0  0  0  0  0  0  0  0
   -2.5787   -0.4455   -2.2086 H   0  0  0  0  0  0  0  0  0  0  0  0
   -3.5143    2.2437    0.1888 H   0  0  0  0  0  0  0  0  0  0  0  0
   -4.4012    0.9683   -0.6625 H   0  0  0  0  0  0  0  0  0  0  0  0
   -5.6403    1.6749    1.3548 H   0  0  0  0  0  0  0  0  0  0  0  0
   -4.2220    1.3991    2.3680 H   0  0  0  0  0  0  0  0  0  0  0  0
   -5.8249   -0.7204    0.8580 H   0  0  0  0  0  0  0  0  0  0  0  0
   -5.7417   -0.5045    2.6066 H   0  0  0  0  0  0  0  0  0  0  0  0
   -3.3656   -1.1059    2.6336 H   0  0  0  0  0  0  0  0  0  0  0  0
   -4.2659   -2.3703    1.7933 H   0  0  0  0  0  0  0  0  0  0  0  0
   -3.6011   -1.4623   -0.3985 H   0  0  0  0  0  0  0  0  0  0  0  0
   -2.1638   -1.7525    0.6031 H   0  0  0  0  0  0  0  0  0  0  0  0
    1.3764    2.1869   -0.7116 H   0  0  0  0  0  0  0  0  0  0  0  0
    1.6903   -2.0553   -1.7846 H   0  0  0  0  0  0  0  0  0  0  0  0
    1.8872   -3.9033    2.2643 H   0  0  0  0  0  0  0  0  0  0  0  0
    3.9840   -1.2892    1.7821 H   0  0  0  0  0  0  0  0  0  0  0  0
  1  2  2  0
  2  3  1  0
  2  4  1  0
  4  5  2  0
  5  6  1  0
  6  7  1  0
  7  8  1  0
  8  9  2  0
  8 10  2  0
  8 11  1  0
 11 12  2  0
 12 13  1  0
 13 14  2  0
 14 15  1  0
 15 16  1  0
 16 17  1  0
 17 18  1  0
 18 19  1  0
 19 20  1  0
 14 21  1  0
 21 22  1  0
 22 23  2  0
 22 24  1  0
 21 25  2  0
  6 26  2  0
 26 27  1  0
 27 28  1  0
 28 29  2  0
 28 30  1  0
 27 31  2  0
 31  4  1  0
 25 11  1  0
 20 15  1  0
  3 32  1  0
  5 33  1  0
  7 34  1  0
 12 35  1  0
 13 36  1  0
 16 37  1  0
 16 38  1  0
 17 39  1  0
 17 40  1  0
 18 41  1  0
 18 42  1  0
 19 43  1  0
 19 44  1  0
 20 45  1  0
 20 46  1  0
 25 47  1  0
 26 48  1  0
 30 49  1  0
 31 50  1  0
M  CHG  2  22   1  24  -1
M  END
$$$$
