
     RDKit          3D

 33 33  0  0  0  0  0  0  0  0999 V2000
    2.4534    0.8337    3.7474 C   0  0  0  0  0  0  0  0  0  0  0  0
    3.3684    1.6351    3.1799 C   0  0  0  0  0  0  0  0  0  0  0  0
    3.8454    1.6288    1.7575 C   0  0  0  0  0  0  0  0  0  0  0  0
    2.8744    1.0057    0.8863 N   0  0  0  0  0  0  0  0  0  0  0  0
    3.0719    0.6477   -0.4203 C   0  0  0  0  0  0  0  0  0  0  0  0
    4.5112    0.7151   -1.2592 S   0  0  0  0  0  0  0  0  0  0  0  0
    1.9421    0.1892   -1.0619 N   0  0  0  0  0  0  0  0  0  0  0  0
    0.8192   -0.2258   -0.3200 N   0  0  0  0  0  0  0  0  0  0  0  0
    0.3886   -1.5288   -0.5120 C   0  0  0  0  0  0  0  0  0  0  0  0
    0.9936   -2.3616   -1.1827 O   0  0  0  0  0  0  0  0  0  0  0  0
   -0.9138   -1.8457    0.2150 C   0  0  0  0  0  0  0  0  0  0  0  0
   -1.8465   -0.7741    0.1661 O   0  0  0  0  0  0  0  0  0  0  0  0
   -2.6342   -0.6315   -0.9459 C   0  0  0  0  0  0  0  0  0  0  0  0
   -2.4917   -1.3680   -2.1255 C   0  0  0  0  0  0  0  0  0  0  0  0
   -3.3482   -1.1408   -3.2086 C   0  0  0  0  0  0  0  0  0  0  0  0
   -4.3450   -0.1734   -3.1207 C   0  0  0  0  0  0  0  0  0  0  0  0
   -5.3925    0.0967   -4.4565 Cl  0  0  0  0  0  0  0  0  0  0  0  0
   -4.4943    0.5774   -1.9603 C   0  0  0  0  0  0  0  0  0  0  0  0
   -3.6393    0.3496   -0.8810 C   0  0  0  0  0  0  0  0  0  0  0  0
   -3.8512    1.3168    0.5383 Cl  0  0  0  0  0  0  0  0  0  0  0  0
    2.2077    0.9374    4.8003 H   0  0  0  0  0  0  0  0  0  0  0  0
    1.9568    0.0396    3.1999 H   0  0  0  0  0  0  0  0  0  0  0  0
    3.8524    2.3790    3.8119 H   0  0  0  0  0  0  0  0  0  0  0  0
    3.9759    2.6590    1.4095 H   0  0  0  0  0  0  0  0  0  0  0  0
    4.8086    1.1156    1.6874 H   0  0  0  0  0  0  0  0  0  0  0  0
    1.9051    1.0723    1.1541 H   0  0  0  0  0  0  0  0  0  0  0  0
    2.1105   -0.3150   -1.9353 H   0  0  0  0  0  0  0  0  0  0  0  0
    0.0997    0.4770   -0.1634 H   0  0  0  0  0  0  0  0  0  0  0  0
   -0.6591   -2.0097    1.2678 H   0  0  0  0  0  0  0  0  0  0  0  0
   -1.3464   -2.7833   -0.1517 H   0  0  0  0  0  0  0  0  0  0  0  0
   -1.7252   -2.1278   -2.2494 H   0  0  0  0  0  0  0  0  0  0  0  0
   -3.2289   -1.7262   -4.1178 H   0  0  0  0  0  0  0  0  0  0  0  0
   -5.2686    1.3359   -1.8957 H   0  0  0  0  0  0  0  0  0  0  0  0
  1  2  2  0
  2  3  1  0
  3  4  1  0
  4  5  1  0
  5  6  2  0
  5  7  1  0
  7  8  1  0
  8  9  1  0
  9 10  2  0
  9 11  1  0
 11 12  1  0
 12 13  1  0
 13 14  2  0
 14 15  1  0
 15 16  2  0
 16 17  1  0
 16 18  1  0
 18 19  2  0
 19 20  1  0
 19 13  1  0
  1 21  1  0
  1 22  1  0
  2 23  1  0
  3 24  1  0
  3 25  1  0
  4 26  1  0
  7 27  1  0
  8 28  1  0
 11 29  1  0
 11 30  1  0
 14 31  1  0
 15 32  1  0
 18 33  1  0
M  END
$$$$
