
     RDKit          3D

 48 48  0  0  0  0  0  0  0  0999 V2000
    3.1475    1.0883   -2.1719 C   0  0  0  0  0  0  0  0  0  0  0  0
    3.4757    0.2039   -0.9611 C   0  0  0  0  0  0  0  0  0  0  0  0
    2.6690    0.6471    0.2696 C   0  0  0  0  0  0  0  0  0  0  0  0
    1.2404    0.4579    0.0754 N   0  0  0  0  0  0  0  0  0  0  0  0
    0.3248    1.2090    0.7863 C   0  0  0  0  0  0  0  0  0  0  0  0
    0.6307    2.1376    1.5251 O   0  0  0  0  0  0  0  0  0  0  0  0
   -1.1022    0.8076    0.6423 C   0  0  0  0  0  0  0  0  0  0  0  0
   -1.9826    1.0802    1.6898 C   0  0  0  0  0  0  0  0  0  0  0  0
   -3.3296    0.7167    1.5904 C   0  0  0  0  0  0  0  0  0  0  0  0
   -3.8384    0.0806    0.4407 C   0  0  0  0  0  0  0  0  0  0  0  0
   -5.3278   -0.3022    0.3677 C   0  0  0  0  0  0  0  0  0  0  0  0
   -5.7295   -1.0013   -0.9508 C   0  0  0  0  0  0  0  0  0  0  0  0
   -5.6725   -1.2708    1.5199 C   0  0  0  0  0  0  0  0  0  0  0  0
   -6.1965    0.9678    0.4946 C   0  0  0  0  0  0  0  0  0  0  0  0
   -2.9384   -0.1676   -0.6099 C   0  0  0  0  0  0  0  0  0  0  0  0
   -1.5875    0.1931   -0.5148 C   0  0  0  0  0  0  0  0  0  0  0  0
    4.9949    0.2657   -0.6841 C   0  0  0  0  0  0  0  0  0  0  0  0
    5.4426   -0.5892    0.4296 N   0  0  0  0  0  0  0  0  0  0  0  0
    5.3655   -2.0132    0.0962 C   0  0  0  0  0  0  0  0  0  0  0  0
    6.8181   -0.2465    0.8043 C   0  0  0  0  0  0  0  0  0  0  0  0
    3.3773    2.1401   -1.9700 H   0  0  0  0  0  0  0  0  0  0  0  0
    2.0880    1.0180   -2.4391 H   0  0  0  0  0  0  0  0  0  0  0  0
    3.7276    0.7769   -3.0473 H   0  0  0  0  0  0  0  0  0  0  0  0
    3.1910   -0.8210   -1.2280 H   0  0  0  0  0  0  0  0  0  0  0  0
    2.9348    0.0545    1.1516 H   0  0  0  0  0  0  0  0  0  0  0  0
    2.8701    1.6984    0.5063 H   0  0  0  0  0  0  0  0  0  0  0  0
    0.9422   -0.4538   -0.2430 H   0  0  0  0  0  0  0  0  0  0  0  0
   -1.6237    1.5755    2.5900 H   0  0  0  0  0  0  0  0  0  0  0  0
   -3.9806    0.9449    2.4320 H   0  0  0  0  0  0  0  0  0  0  0  0
   -5.5535   -0.3565   -1.8196 H   0  0  0  0  0  0  0  0  0  0  0  0
   -6.7955   -1.2589   -0.9526 H   0  0  0  0  0  0  0  0  0  0  0  0
   -5.1725   -1.9339   -1.0987 H   0  0  0  0  0  0  0  0  0  0  0  0
   -5.0491   -2.1718    1.4774 H   0  0  0  0  0  0  0  0  0  0  0  0
   -5.5238   -0.8141    2.5044 H   0  0  0  0  0  0  0  0  0  0  0  0
   -6.7208   -1.5878    1.4695 H   0  0  0  0  0  0  0  0  0  0  0  0
   -6.0561    1.4715    1.4572 H   0  0  0  0  0  0  0  0  0  0  0  0
   -5.9552    1.6911   -0.2934 H   0  0  0  0  0  0  0  0  0  0  0  0
   -7.2628    0.7273    0.4114 H   0  0  0  0  0  0  0  0  0  0  0  0
   -3.2641   -0.6384   -1.5337 H   0  0  0  0  0  0  0  0  0  0  0  0
   -0.9373    0.0117   -1.3661 H   0  0  0  0  0  0  0  0  0  0  0  0
    5.2423    1.3108   -0.4514 H   0  0  0  0  0  0  0  0  0  0  0  0
    5.5493    0.0135   -1.5983 H   0  0  0  0  0  0  0  0  0  0  0  0
    5.7265   -2.6232    0.9324 H   0  0  0  0  0  0  0  0  0  0  0  0
    4.3313   -2.3250   -0.0780 H   0  0  0  0  0  0  0  0  0  0  0  0
    5.9591   -2.2632   -0.7905 H   0  0  0  0  0  0  0  0  0  0  0  0
    7.5224   -0.4044   -0.0206 H   0  0  0  0  0  0  0  0  0  0  0  0
    7.1463   -0.8479    1.6595 H   0  0  0  0  0  0  0  0  0  0  0  0
    6.8826    0.8011    1.1191 H   0  0  0  0  0  0  0  0  0  0  0  0
  1  2  1  0
  2  3  1  0
  3  4  1  0
  4  5  1  0
  5  6  2  0
  5  7  1  0
  7  8  2  0
  8  9  1  0
  9 10  2  0
 10 11  1  0
 11 12  1  0
 11 13  1  0
 11 14  1  0
 10 15  1  0
 15 16  2  0
  2 17  1  0
 17 18  1  0
 18 19  1  0
 18 20  1  0
 16  7  1  0
  1 21  1  0
  1 22  1  0
  1 23  1  0
  2 24  1  0
  3 25  1  0
  3 26  1  0
  4 27  1  0
  8 28  1  0
  9 29  1  0
 12 30  1  0
 12 31  1  0
 12 32  1  0
 13 33  1  0
 13 34  1  0
 13 35  1  0
 14 36  1  0
 14 37  1  0
 14 38  1  0
 15 39  1  0
 16 40  1  0
 17 41  1  0
 17 42  1  0
 19 43  1  0
 19 44  1  0
 19 45  1  0
 20 46  1  0
 20 47  1  0
 20 48  1  0
M  END
$$$$
