
     RDKit          3D

 53 56  0  0  0  0  0  0  0  0999 V2000
    6.8189    0.2835   -2.1296 C   0  0  0  0  0  0  0  0  0  0  0  0
    5.7170    1.0627   -1.6789 O   0  0  0  0  0  0  0  0  0  0  0  0
    5.3862    0.7780   -0.3178 C   0  0  0  0  0  0  0  0  0  0  0  0
    4.1064    1.5159    0.0717 C   0  0  0  0  0  0  0  0  0  0  0  0
    2.8970    0.7407   -0.2073 N   0  0  0  0  0  0  0  0  0  0  0  0
    2.1710    0.7924   -1.3777 C   0  0  0  0  0  0  0  0  0  0  0  0
    2.5469    1.6141   -2.5614 C   0  0  0  0  0  0  0  0  0  0  0  0
    1.0883   -0.0463   -1.2268 C   0  0  0  0  0  0  0  0  0  0  0  0
    1.1215   -0.6043    0.0805 C   0  0  0  0  0  0  0  0  0  0  0  0
    0.0993   -1.5104    0.6219 C   0  0  0  0  0  0  0  0  0  0  0  0
   -0.5012   -2.2837   -0.1306 O   0  0  0  0  0  0  0  0  0  0  0  0
   -0.2093   -1.4582    2.1114 C   0  0  0  0  0  0  0  0  0  0  0  0
   -2.0034   -1.5550    2.4340 S   0  0  0  0  0  0  0  0  0  0  0  0
   -2.5312   -0.1625    1.4775 C   0  0  0  0  0  0  0  0  0  0  0  0
   -1.7616    0.9465    1.4735 N   0  0  0  0  0  0  0  0  0  0  0  0
   -2.1431    1.9946    0.7195 C   0  0  0  0  0  0  0  0  0  0  0  0
   -1.2526    3.2003    0.7406 C   0  0  0  0  0  0  0  0  0  0  0  0
   -3.2573    2.0734   -0.0181 N   0  0  0  0  0  0  0  0  0  0  0  0
   -3.9968    0.9523    0.0157 C   0  0  0  0  0  0  0  0  0  0  0  0
   -5.4544    0.8503   -0.8950 S   0  0  0  0  0  0  0  0  0  0  0  0
   -5.6894   -0.7198   -0.3741 C   0  0  0  0  0  0  0  0  0  0  0  0
   -4.7235   -1.1781    0.4800 C   0  0  0  0  0  0  0  0  0  0  0  0
   -3.7101   -0.2113    0.7303 C   0  0  0  0  0  0  0  0  0  0  0  0
   -4.9938   -2.5843    0.8789 C   0  0  0  0  0  0  0  0  0  0  0  0
   -6.4569   -2.8052    0.3791 C   0  0  0  0  0  0  0  0  0  0  0  0
   -6.7436   -1.7102   -0.6917 C   0  0  0  0  0  0  0  0  0  0  0  0
    2.2891   -0.1383    0.6815 C   0  0  0  0  0  0  0  0  0  0  0  0
    2.8841   -0.4659    2.0112 C   0  0  0  0  0  0  0  0  0  0  0  0
    6.5667   -0.7820   -2.1049 H   0  0  0  0  0  0  0  0  0  0  0  0
    7.7040    0.4767   -1.5152 H   0  0  0  0  0  0  0  0  0  0  0  0
    7.0413    0.5676   -3.1618 H   0  0  0  0  0  0  0  0  0  0  0  0
    6.2105    1.1410    0.3063 H   0  0  0  0  0  0  0  0  0  0  0  0
    5.2854   -0.3039   -0.1735 H   0  0  0  0  0  0  0  0  0  0  0  0
    4.1034    1.7283    1.1452 H   0  0  0  0  0  0  0  0  0  0  0  0
    4.0194    2.4749   -0.4451 H   0  0  0  0  0  0  0  0  0  0  0  0
    2.6611    2.6689   -2.2920 H   0  0  0  0  0  0  0  0  0  0  0  0
    1.7719    1.5549   -3.3334 H   0  0  0  0  0  0  0  0  0  0  0  0
    3.4796    1.2544   -3.0046 H   0  0  0  0  0  0  0  0  0  0  0  0
    0.3228   -0.2274   -1.9728 H   0  0  0  0  0  0  0  0  0  0  0  0
    0.1671   -0.5376    2.5651 H   0  0  0  0  0  0  0  0  0  0  0  0
    0.2819   -2.3084    2.5954 H   0  0  0  0  0  0  0  0  0  0  0  0
   -0.2002    2.8986    0.7734 H   0  0  0  0  0  0  0  0  0  0  0  0
   -1.4758    3.8064    1.6241 H   0  0  0  0  0  0  0  0  0  0  0  0
   -1.4044    3.8132   -0.1536 H   0  0  0  0  0  0  0  0  0  0  0  0
   -4.9280   -2.7423    1.9590 H   0  0  0  0  0  0  0  0  0  0  0  0
   -4.3061   -3.2665    0.3651 H   0  0  0  0  0  0  0  0  0  0  0  0
   -6.6108   -3.8165   -0.0119 H   0  0  0  0  0  0  0  0  0  0  0  0
   -7.1470   -2.6718    1.2229 H   0  0  0  0  0  0  0  0  0  0  0  0
   -7.7580   -1.3141   -0.5891 H   0  0  0  0  0  0  0  0  0  0  0  0
   -6.6060   -2.1146   -1.7002 H   0  0  0  0  0  0  0  0  0  0  0  0
    3.9767   -0.5043    1.9682 H   0  0  0  0  0  0  0  0  0  0  0  0
    2.5558   -1.4492    2.3599 H   0  0  0  0  0  0  0  0  0  0  0  0
    2.5910    0.2824    2.7542 H   0  0  0  0  0  0  0  0  0  0  0  0
  1  2  1  0
  2  3  1  0
  3  4  1  0
  4  5  1  0
  5  6  1  0
  6  7  1  0
  6  8  2  0
  8  9  1  0
  9 10  1  0
 10 11  2  0
 10 12  1  0
 12 13  1  0
 13 14  1  0
 14 15  2  0
 15 16  1  0
 16 17  1  0
 16 18  2  0
 18 19  1  0
 19 20  1  0
 20 21  1  0
 21 22  2  0
 22 23  1  0
 22 24  1  0
 24 25  1  0
 25 26  1  0
  9 27  2  0
 27 28  1  0
 27  5  1  0
 23 14  1  0
 23 19  2  0
 26 21  1  0
  1 29  1  0
  1 30  1  0
  1 31  1  0
  3 32  1  0
  3 33  1  0
  4 34  1  0
  4 35  1  0
  7 36  1  0
  7 37  1  0
  7 38  1  0
  8 39  1  0
 12 40  1  0
 12 41  1  0
 17 42  1  0
 17 43  1  0
 17 44  1  0
 24 45  1  0
 24 46  1  0
 25 47  1  0
 25 48  1  0
 26 49  1  0
 26 50  1  0
 28 51  1  0
 28 52  1  0
 28 53  1  0
M  END
$$$$
