
     RDKit          3D

 52 55  0  0  0  0  0  0  0  0999 V2000
   -8.4562   -2.0639   -1.6815 C   0  0  0  0  0  0  0  0  0  0  0  0
   -7.7129   -3.1506   -1.1453 O   0  0  0  0  0  0  0  0  0  0  0  0
   -6.4869   -2.8598   -0.6140 C   0  0  0  0  0  0  0  0  0  0  0  0
   -5.7777   -3.9669   -0.1418 C   0  0  0  0  0  0  0  0  0  0  0  0
   -4.5143   -3.8095    0.4330 C   0  0  0  0  0  0  0  0  0  0  0  0
   -3.9314   -2.5414    0.5294 C   0  0  0  0  0  0  0  0  0  0  0  0
   -2.6251   -2.4241    1.1923 C   0  0  0  0  0  0  0  0  0  0  0  0
   -1.5410   -1.7411    0.7918 C   0  0  0  0  0  0  0  0  0  0  0  0
   -1.3394   -0.8171   -0.6400 S   0  0  0  0  0  0  0  0  0  0  0  0
    0.1718   -0.1478   -0.0470 C   0  0  0  0  0  0  0  0  0  0  0  0
    0.6592    1.0109   -0.5472 C   0  0  0  0  0  0  0  0  0  0  0  0
    0.0738    1.6766   -1.6643 C   0  0  0  0  0  0  0  0  0  0  0  0
   -0.3881    2.2241   -2.5776 N   0  0  0  0  0  0  0  0  0  0  0  0
    1.7000    1.7880    0.1748 C   0  0  0  0  0  0  0  0  0  0  0  0
    1.5901    2.0365    1.3700 O   0  0  0  0  0  0  0  0  0  0  0  0
    2.7414    2.2327   -0.6022 N   0  0  0  0  0  0  0  0  0  0  0  0
    3.8723    2.9195   -0.0177 C   0  0  0  0  0  0  0  0  0  0  0  0
    4.5080    3.7659   -1.0595 C   0  0  0  0  0  0  0  0  0  0  0  0
    4.8726    5.0977   -1.1022 C   0  0  0  0  0  0  0  0  0  0  0  0
    5.4406    5.3154   -2.3820 C   0  0  0  0  0  0  0  0  0  0  0  0
    5.3777    4.1094   -3.0432 C   0  0  0  0  0  0  0  0  0  0  0  0
    4.8075    3.1622   -2.2515 O   0  0  0  0  0  0  0  0  0  0  0  0
    0.6570   -0.9030    1.0258 N   0  0  0  0  0  0  0  0  0  0  0  0
    2.0255   -0.9870    1.4566 C   0  0  0  0  0  0  0  0  0  0  0  0
    2.3519   -1.1415    2.8109 C   0  0  0  0  0  0  0  0  0  0  0  0
    3.6850   -1.2470    3.2199 C   0  0  0  0  0  0  0  0  0  0  0  0
    4.7098   -1.2123    2.2782 C   0  0  0  0  0  0  0  0  0  0  0  0
    4.4030   -1.0776    0.9262 C   0  0  0  0  0  0  0  0  0  0  0  0
    3.0702   -0.9696    0.5178 C   0  0  0  0  0  0  0  0  0  0  0  0
   -0.2840   -1.7829    1.5926 C   0  0  0  0  0  0  0  0  0  0  0  0
   -0.1492   -2.5297    2.5534 O   0  0  0  0  0  0  0  0  0  0  0  0
   -4.6525   -1.4325    0.0721 C   0  0  0  0  0  0  0  0  0  0  0  0
   -5.9180   -1.5909   -0.5072 C   0  0  0  0  0  0  0  0  0  0  0  0
   -7.9320   -1.6111   -2.5304 H   0  0  0  0  0  0  0  0  0  0  0  0
   -8.6839   -1.3176   -0.9119 H   0  0  0  0  0  0  0  0  0  0  0  0
   -9.4043   -2.4604   -2.0539 H   0  0  0  0  0  0  0  0  0  0  0  0
   -6.2147   -4.9606   -0.2210 H   0  0  0  0  0  0  0  0  0  0  0  0
   -3.9891   -4.6925    0.7960 H   0  0  0  0  0  0  0  0  0  0  0  0
   -2.5540   -3.0079    2.1124 H   0  0  0  0  0  0  0  0  0  0  0  0
    2.8174    2.0020   -1.5863 H   0  0  0  0  0  0  0  0  0  0  0  0
    4.5785    2.1615    0.3378 H   0  0  0  0  0  0  0  0  0  0  0  0
    3.5467    3.5212    0.8391 H   0  0  0  0  0  0  0  0  0  0  0  0
    4.7455    5.8175   -0.3009 H   0  0  0  0  0  0  0  0  0  0  0  0
    5.8466    6.2376   -2.7758 H   0  0  0  0  0  0  0  0  0  0  0  0
    5.6788    3.7786   -4.0306 H   0  0  0  0  0  0  0  0  0  0  0  0
    1.5778   -1.1596    3.5736 H   0  0  0  0  0  0  0  0  0  0  0  0
    3.9173   -1.3611    4.2764 H   0  0  0  0  0  0  0  0  0  0  0  0
    5.7460   -1.3016    2.5971 H   0  0  0  0  0  0  0  0  0  0  0  0
    5.1997   -1.0731    0.1865 H   0  0  0  0  0  0  0  0  0  0  0  0
    2.8659   -0.9165   -0.5486 H   0  0  0  0  0  0  0  0  0  0  0  0
   -4.2504   -0.4264    0.1747 H   0  0  0  0  0  0  0  0  0  0  0  0
   -6.4324   -0.7009   -0.8547 H   0  0  0  0  0  0  0  0  0  0  0  0
  1  2  1  0
  2  3  1  0
  3  4  2  0
  4  5  1  0
  5  6  2  0
  6  7  1  0
  7  8  2  3
  8  9  1  0
  9 10  1  0
 10 11  2  3
 11 12  1  0
 12 13  3  0
 11 14  1  0
 14 15  2  0
 14 16  1  0
 16 17  1  0
 17 18  1  0
 18 19  2  0
 19 20  1  0
 20 21  2  0
 21 22  1  0
 10 23  1  0
 23 24  1  0
 24 25  2  0
 25 26  1  0
 26 27  2  0
 27 28  1  0
 28 29  2  0
 23 30  1  0
 30 31  2  0
  6 32  1  0
 32 33  2  0
 33  3  1  0
 30  8  1  0
 22 18  1  0
 29 24  1  0
  1 34  1  0
  1 35  1  0
  1 36  1  0
  4 37  1  0
  5 38  1  0
  7 39  1  0
 16 40  1  0
 17 41  1  0
 17 42  1  0
 19 43  1  0
 20 44  1  0
 21 45  1  0
 25 46  1  0
 26 47  1  0
 27 48  1  0
 28 49  1  0
 29 50  1  0
 32 51  1  0
 33 52  1  0
M  END
$$$$
