
     RDKit          3D

 90 91  0  0  0  0  0  0  0  0999 V2000
    4.6021   -3.1278   -0.1794 C   0  0  0  0  0  0  0  0  0  0  0  0
    3.5514   -2.1077   -0.4944 C   0  0  0  0  0  0  0  0  0  0  0  0
    3.0766   -1.9378   -1.6063 O   0  0  0  0  0  0  0  0  0  0  0  0
    3.2005   -1.4431    0.6320 O   0  0  0  0  0  0  0  0  0  0  0  0
    2.1722   -0.4031    0.5444 C   0  0  1  0  0  0  0  0  0  0  0  0
    1.0334   -0.8143    1.5066 C   0  0  2  0  0  0  0  0  0  0  0  0
    1.6385   -1.1031    2.7916 O   0  0  0  0  0  0  0  0  0  0  0  0
    0.8839   -0.9470    3.9062 C   0  0  0  0  0  0  0  0  0  0  0  0
    1.6916   -1.2874    5.1211 C   0  0  0  0  0  0  0  0  0  0  0  0
   -0.2720   -0.5559    3.9399 O   0  0  0  0  0  0  0  0  0  0  0  0
    0.2447   -2.0220    0.9915 C   0  0  0  0  0  0  0  0  0  0  0  0
    0.6132   -3.3727    1.5551 C   0  0  0  0  0  0  0  0  0  0  0  0
   -0.7651   -1.9341    0.0942 C   0  0  0  0  0  0  0  0  0  0  0  0
   -1.2476   -0.6968   -0.6796 C   0  0  1  0  0  0  0  0  0  0  0  0
   -1.7116   -1.0580   -2.1137 C   0  0  1  0  0  0  0  0  0  0  0  0
   -0.8812   -2.0286   -2.7570 O   0  0  0  0  0  0  0  0  0  0  0  0
    0.2813   -1.5296   -3.2714 C   0  0  0  0  0  0  0  0  0  0  0  0
    1.0690   -2.6292   -3.9141 C   0  0  0  0  0  0  0  0  0  0  0  0
    0.6117   -0.3510   -3.2491 O   0  0  0  0  0  0  0  0  0  0  0  0
   -3.1792   -1.5115   -1.9629 C   0  0  1  0  0  0  0  0  0  0  0  0
   -3.4530   -2.9972   -2.1648 C   0  0  0  0  0  0  0  0  0  0  0  0
   -3.6124   -1.0082   -0.5694 C   0  0  0  0  0  0  0  0  0  0  0  0
   -2.5205   -0.0016   -0.0951 C   0  0  1  0  0  0  0  0  0  0  0  0
   -2.4025    0.0235    1.3557 O   0  0  0  0  0  0  0  0  0  0  0  0
   -3.5173    0.2598    2.1008 C   0  0  0  0  0  0  0  0  0  0  0  0
   -3.1960    0.2479    3.5603 C   0  0  0  0  0  0  0  0  0  0  0  0
   -4.6386    0.4600    1.6558 O   0  0  0  0  0  0  0  0  0  0  0  0
   -2.7641    1.4820   -0.6143 C   0  0  2  0  0  0  0  0  0  0  0  0
   -3.4579    1.4372   -1.8917 O   0  0  0  0  0  0  0  0  0  0  0  0
   -4.5991    2.1689   -2.0217 C   0  0  0  0  0  0  0  0  0  0  0  0
   -5.1962    1.9376   -3.3766 C   0  0  0  0  0  0  0  0  0  0  0  0
   -5.0691    2.9233   -1.1855 O   0  0  0  0  0  0  0  0  0  0  0  0
   -1.5014    2.3868   -0.8171 C   0  0  1  0  0  0  0  0  0  0  0  0
   -1.9064    3.8496   -1.0673 C   0  0  0  0  0  0  0  0  0  0  0  0
   -0.4835    2.3807    0.3063 C   0  0  0  0  0  0  0  0  0  0  0  0
    0.8379    2.2694    0.0683 C   0  0  0  0  0  0  0  0  0  0  0  0
    1.9896    2.2422    1.0682 C   0  0  0  0  0  0  0  0  0  0  0  0
    1.5392    2.3695    2.5411 C   0  0  0  0  0  0  0  0  0  0  0  0
    2.8370    3.5146    0.7909 C   0  0  0  0  0  0  0  0  0  0  0  0
    2.8815    0.9498    0.8656 C   0  0  2  0  0  0  0  0  0  0  0  0
    3.7514    1.2084   -0.2861 O   0  0  0  0  0  0  0  0  0  0  0  0
    5.0673    0.8903   -0.1832 C   0  0  0  0  0  0  0  0  0  0  0  0
    5.7645    1.2044   -1.4712 C   0  0  0  0  0  0  0  0  0  0  0  0
    5.6155    0.4149    0.8000 O   0  0  0  0  0  0  0  0  0  0  0  0
    5.3418   -2.7067    0.5082 H   0  0  0  0  0  0  0  0  0  0  0  0
    4.1358   -4.0134    0.2593 H   0  0  0  0  0  0  0  0  0  0  0  0
    5.1229   -3.4072   -1.1002 H   0  0  0  0  0  0  0  0  0  0  0  0
    1.7940   -0.3544   -0.4817 H   0  0  0  0  0  0  0  0  0  0  0  0
    0.3260    0.0072    1.6171 H   0  0  0  0  0  0  0  0  0  0  0  0
    1.0203   -1.4302    5.9726 H   0  0  0  0  0  0  0  0  0  0  0  0
    2.2374   -2.2219    4.9607 H   0  0  0  0  0  0  0  0  0  0  0  0
    2.3863   -0.4725    5.3387 H   0  0  0  0  0  0  0  0  0  0  0  0
    0.3175   -3.4477    2.6052 H   0  0  0  0  0  0  0  0  0  0  0  0
    0.1237   -4.1912    1.0167 H   0  0  0  0  0  0  0  0  0  0  0  0
    1.6908   -3.5440    1.4812 H   0  0  0  0  0  0  0  0  0  0  0  0
   -1.2845   -2.8583   -0.1542 H   0  0  0  0  0  0  0  0  0  0  0  0
   -0.4013   -0.0198   -0.7523 H   0  0  0  0  0  0  0  0  0  0  0  0
   -1.7233   -0.1511   -2.7331 H   0  0  0  0  0  0  0  0  0  0  0  0
    2.0429   -2.2430   -4.2291 H   0  0  0  0  0  0  0  0  0  0  0  0
    1.2332   -3.4386   -3.1974 H   0  0  0  0  0  0  0  0  0  0  0  0
    0.5360   -2.9996   -4.7932 H   0  0  0  0  0  0  0  0  0  0  0  0
   -3.7698   -0.9867   -2.7245 H   0  0  0  0  0  0  0  0  0  0  0  0
   -2.9047   -3.6220   -1.4549 H   0  0  0  0  0  0  0  0  0  0  0  0
   -4.5206   -3.2084   -2.0371 H   0  0  0  0  0  0  0  0  0  0  0  0
   -3.1728   -3.3093   -3.1765 H   0  0  0  0  0  0  0  0  0  0  0  0
   -4.6087   -0.5558   -0.6194 H   0  0  0  0  0  0  0  0  0  0  0  0
   -3.6916   -1.8433    0.1394 H   0  0  0  0  0  0  0  0  0  0  0  0
   -2.8859   -0.7544    3.8626 H   0  0  0  0  0  0  0  0  0  0  0  0
   -2.4207    0.9873    3.7764 H   0  0  0  0  0  0  0  0  0  0  0  0
   -4.0911    0.5199    4.1269 H   0  0  0  0  0  0  0  0  0  0  0  0
   -3.3943    1.9875    0.1257 H   0  0  0  0  0  0  0  0  0  0  0  0
   -5.3677    0.8690   -3.5324 H   0  0  0  0  0  0  0  0  0  0  0  0
   -4.5307    2.3374   -4.1462 H   0  0  0  0  0  0  0  0  0  0  0  0
   -6.1594    2.4519   -3.4401 H   0  0  0  0  0  0  0  0  0  0  0  0
   -1.0117    2.0538   -1.7434 H   0  0  0  0  0  0  0  0  0  0  0  0
   -2.4958    3.9485   -1.9836 H   0  0  0  0  0  0  0  0  0  0  0  0
   -1.0245    4.4897   -1.1889 H   0  0  0  0  0  0  0  0  0  0  0  0
   -2.4974    4.2474   -0.2344 H   0  0  0  0  0  0  0  0  0  0  0  0
   -0.8672    2.4924    1.3178 H   0  0  0  0  0  0  0  0  0  0  0  0
    1.1574    2.1867   -0.9752 H   0  0  0  0  0  0  0  0  0  0  0  0
    2.3971    2.2996    3.2203 H   0  0  0  0  0  0  0  0  0  0  0  0
    0.8199    1.6105    2.8417 H   0  0  0  0  0  0  0  0  0  0  0  0
    1.0610    3.3391    2.7280 H   0  0  0  0  0  0  0  0  0  0  0  0
    3.7419    3.5254    1.4094 H   0  0  0  0  0  0  0  0  0  0  0  0
    3.1463    3.5913   -0.2583 H   0  0  0  0  0  0  0  0  0  0  0  0
    2.2700    4.4264    1.0167 H   0  0  0  0  0  0  0  0  0  0  0  0
    3.5092    0.8241    1.7569 H   0  0  0  0  0  0  0  0  0  0  0  0
    5.7073    2.2778   -1.6697 H   0  0  0  0  0  0  0  0  0  0  0  0
    5.3091    0.6366   -2.2870 H   0  0  0  0  0  0  0  0  0  0  0  0
    6.8166    0.9169   -1.3926 H   0  0  0  0  0  0  0  0  0  0  0  0
  1  2  1  0
  2  3  2  0
  2  4  1  0
  4  5  1  0
  5  6  1  0
  6  7  1  0
  7  8  1  0
  8  9  1  0
  8 10  2  0
  6 11  1  0
 11 12  1  0
 11 13  2  0
 13 14  1  0
 14 15  1  0
 15 16  1  0
 16 17  1  0
 17 18  1  0
 17 19  2  0
 15 20  1  0
 20 21  1  0
 20 22  1  0
 22 23  1  0
 23 24  1  1
 24 25  1  0
 25 26  1  0
 25 27  2  0
 23 28  1  0
 28 29  1  0
 29 30  1  0
 30 31  1  0
 30 32  2  0
 28 33  1  0
 33 34  1  0
 33 35  1  0
 35 36  2  0
 36 37  1  0
 37 38  1  0
 37 39  1  0
 37 40  1  0
 40 41  1  0
 41 42  1  0
 42 43  1  0
 42 44  2  0
 40  5  1  0
 23 14  1  0
  1 45  1  0
  1 46  1  0
  1 47  1  0
  5 48  1  6
  6 49  1  1
  9 50  1  0
  9 51  1  0
  9 52  1  0
 12 53  1  0
 12 54  1  0
 12 55  1  0
 13 56  1  0
 14 57  1  6
 15 58  1  6
 18 59  1  0
 18 60  1  0
 18 61  1  0
 20 62  1  6
 21 63  1  0
 21 64  1  0
 21 65  1  0
 22 66  1  0
 22 67  1  0
 26 68  1  0
 26 69  1  0
 26 70  1  0
 28 71  1  1
 31 72  1  0
 31 73  1  0
 31 74  1  0
 33 75  1  6
 34 76  1  0
 34 77  1  0
 34 78  1  0
 35 79  1  0
 36 80  1  0
 38 81  1  0
 38 82  1  0
 38 83  1  0
 39 84  1  0
 39 85  1  0
 39 86  1  0
 40 87  1  1
 43 88  1  0
 43 89  1  0
 43 90  1  0
M  END
$$$$
