
     RDKit          3D

 45 46  0  0  0  0  0  0  0  0999 V2000
    5.8851    1.6907    0.4930 C   0  0  0  0  0  0  0  0  0  0  0  0
    4.4922    1.6470    0.2154 O   0  0  0  0  0  0  0  0  0  0  0  0
    4.0740    0.8014   -0.7802 C   0  0  0  0  0  0  0  0  0  0  0  0
    4.9248    0.0808   -1.6219 C   0  0  0  0  0  0  0  0  0  0  0  0
    4.3979   -0.7605   -2.6047 C   0  0  0  0  0  0  0  0  0  0  0  0
    3.0169   -0.8999   -2.7477 C   0  0  0  0  0  0  0  0  0  0  0  0
    2.1393   -0.2006   -1.9102 C   0  0  0  0  0  0  0  0  0  0  0  0
    0.6969   -0.3989   -2.1197 C   0  0  0  0  0  0  0  0  0  0  0  0
   -0.1614   -0.6323   -1.1154 C   0  0  0  0  0  0  0  0  0  0  0  0
   -1.6037   -0.8394   -1.4045 C   0  0  0  0  0  0  0  0  0  0  0  0
   -1.9763   -1.1473   -2.5345 O   0  0  0  0  0  0  0  0  0  0  0  0
   -2.4755   -0.6747   -0.3439 N   0  0  0  0  0  0  0  0  0  0  0  0
   -3.8967   -0.9497   -0.5472 C   0  0  0  0  0  0  0  0  0  0  0  0
   -4.5762   -1.4763    0.7321 C   0  0  0  0  0  0  0  0  0  0  0  0
   -4.1774   -2.9197    1.0294 C   0  0  0  0  0  0  0  0  0  0  0  0
   -4.3148   -0.7019    1.9169 O   0  0  0  0  0  0  0  0  0  0  0  0
   -3.3627    0.3558    1.7389 C   0  0  0  0  0  0  0  0  0  0  0  0
   -2.9834    0.8712    3.1201 C   0  0  0  0  0  0  0  0  0  0  0  0
   -2.1210   -0.1240    0.9690 C   0  0  0  0  0  0  0  0  0  0  0  0
    2.6811    0.6771   -0.9502 C   0  0  0  0  0  0  0  0  0  0  0  0
    1.8315    1.3855   -0.1261 O   0  0  0  0  0  0  0  0  0  0  0  0
    1.6501    2.7068   -0.6370 C   0  0  0  0  0  0  0  0  0  0  0  0
    6.0346    2.3576    1.3477 H   0  0  0  0  0  0  0  0  0  0  0  0
    6.4414    2.1063   -0.3534 H   0  0  0  0  0  0  0  0  0  0  0  0
    6.2663    0.7027    0.7717 H   0  0  0  0  0  0  0  0  0  0  0  0
    6.0044    0.1522   -1.5427 H   0  0  0  0  0  0  0  0  0  0  0  0
    5.0667   -1.3165   -3.2577 H   0  0  0  0  0  0  0  0  0  0  0  0
    2.6300   -1.5721   -3.5115 H   0  0  0  0  0  0  0  0  0  0  0  0
    0.3506   -0.3714   -3.1507 H   0  0  0  0  0  0  0  0  0  0  0  0
    0.1802   -0.6996   -0.0916 H   0  0  0  0  0  0  0  0  0  0  0  0
   -4.3525    0.0043   -0.8399 H   0  0  0  0  0  0  0  0  0  0  0  0
   -4.0449   -1.6473   -1.3788 H   0  0  0  0  0  0  0  0  0  0  0  0
   -5.6614   -1.4554    0.5787 H   0  0  0  0  0  0  0  0  0  0  0  0
   -3.1090   -3.0008    1.2550 H   0  0  0  0  0  0  0  0  0  0  0  0
   -4.4083   -3.5779    0.1863 H   0  0  0  0  0  0  0  0  0  0  0  0
   -4.7110   -3.2866    1.9131 H   0  0  0  0  0  0  0  0  0  0  0  0
   -3.8588    1.1655    1.1892 H   0  0  0  0  0  0  0  0  0  0  0  0
   -2.5326    0.0763    3.7245 H   0  0  0  0  0  0  0  0  0  0  0  0
   -2.2782    1.7053    3.0542 H   0  0  0  0  0  0  0  0  0  0  0  0
   -3.8747    1.2091    3.6599 H   0  0  0  0  0  0  0  0  0  0  0  0
   -1.4140    0.7023    0.8379 H   0  0  0  0  0  0  0  0  0  0  0  0
   -1.6202   -0.9296    1.5189 H   0  0  0  0  0  0  0  0  0  0  0  0
    1.2778    2.6910   -1.6675 H   0  0  0  0  0  0  0  0  0  0  0  0
    0.8982    3.2029   -0.0158 H   0  0  0  0  0  0  0  0  0  0  0  0
    2.5742    3.2907   -0.5770 H   0  0  0  0  0  0  0  0  0  0  0  0
  1  2  1  0
  2  3  1  0
  3  4  2  0
  4  5  1  0
  5  6  2  0
  6  7  1  0
  7  8  1  0
  8  9  2  3
  9 10  1  0
 10 11  2  0
 10 12  1  0
 12 13  1  0
 13 14  1  0
 14 15  1  0
 14 16  1  0
 16 17  1  0
 17 18  1  0
 17 19  1  0
  7 20  2  0
 20 21  1  0
 21 22  1  0
 20  3  1  0
 19 12  1  0
  1 23  1  0
  1 24  1  0
  1 25  1  0
  4 26  1  0
  5 27  1  0
  6 28  1  0
  8 29  1  0
  9 30  1  0
 13 31  1  0
 13 32  1  0
 14 33  1  0
 15 34  1  0
 15 35  1  0
 15 36  1  0
 17 37  1  0
 18 38  1  0
 18 39  1  0
 18 40  1  0
 19 41  1  0
 19 42  1  0
 22 43  1  0
 22 44  1  0
 22 45  1  0
M  END
$$$$
