
     RDKit          3D

 65 69  0  0  0  0  0  0  0  0999 V2000
   -2.4636    5.2678    2.8823 C   0  0  0  0  0  0  0  0  0  0  0  0
   -2.0925    4.3812    1.7070 C   0  0  0  0  0  0  0  0  0  0  0  0
   -1.6817    3.1153    2.2227 O   0  0  0  0  0  0  0  0  0  0  0  0
   -1.3748    2.1417    1.3133 C   0  0  0  0  0  0  0  0  0  0  0  0
   -1.3263    2.2951   -0.0708 C   0  0  0  0  0  0  0  0  0  0  0  0
   -0.9996    1.2076   -0.8907 C   0  0  0  0  0  0  0  0  0  0  0  0
   -0.7189   -0.0529   -0.3420 C   0  0  0  0  0  0  0  0  0  0  0  0
   -0.3339   -1.1975   -1.2549 C   0  0  0  0  0  0  0  0  0  0  0  0
    1.1755   -1.3181   -1.5454 C   0  0  0  0  0  0  0  0  0  0  0  0
    2.0616   -1.0485   -0.3537 C   0  0  0  0  0  0  0  0  0  0  0  0
    1.9972   -1.7007    0.6848 O   0  0  0  0  0  0  0  0  0  0  0  0
    3.0288    0.0700   -0.4449 C   0  0  0  0  0  0  0  0  0  0  0  0
    3.8314    0.2356   -1.5912 C   0  0  0  0  0  0  0  0  0  0  0  0
    4.7316    1.3023   -1.6682 C   0  0  0  0  0  0  0  0  0  0  0  0
    4.8115    2.1623   -0.5908 C   0  0  0  0  0  0  0  0  0  0  0  0
    4.0334    1.9966    0.5439 C   0  0  0  0  0  0  0  0  0  0  0  0
    3.1318    0.9506    0.6412 C   0  0  0  0  0  0  0  0  0  0  0  0
    4.3030    3.1026    1.4905 C   0  0  0  0  0  0  0  0  0  0  0  0
    5.5687    3.6936    0.8451 C   0  0  0  0  0  0  0  0  0  0  0  0
    6.8504    3.2770    1.5659 C   0  0  0  0  0  0  0  0  0  0  0  0
    5.6480    3.2453   -0.5347 O   0  0  0  0  0  0  0  0  0  0  0  0
    1.2591   -2.7558   -1.9365 C   0  0  0  0  0  0  0  0  0  0  0  0
    2.1540   -3.2645   -2.5861 O   0  0  0  0  0  0  0  0  0  0  0  0
    0.0321   -3.4934   -1.4052 C   0  0  0  0  0  0  0  0  0  0  0  0
   -0.1576   -4.6856   -1.5173 O   0  0  0  0  0  0  0  0  0  0  0  0
   -0.8026   -2.5240   -0.8688 N   0  0  0  0  0  0  0  0  0  0  0  0
   -2.1979   -2.8304   -0.5675 C   0  0  0  0  0  0  0  0  0  0  0  0
   -3.0849   -2.8549   -1.8143 C   0  0  0  0  0  0  0  0  0  0  0  0
   -4.5691   -2.9935   -1.4762 C   0  0  0  0  0  0  0  0  0  0  0  0
   -4.9148   -4.2351   -0.8213 N   0  0  0  0  0  0  0  0  0  0  0  0
   -4.9436   -5.4728   -1.3974 C   0  0  0  0  0  0  0  0  0  0  0  0
   -5.3461   -6.3210   -0.3917 C   0  0  0  0  0  0  0  0  0  0  0  0
   -5.5770   -5.6260    0.7672 N   0  0  0  0  0  0  0  0  0  0  0  0
   -5.3129   -4.3722    0.4776 C   0  0  0  0  0  0  0  0  0  0  0  0
   -0.7545   -0.1902    1.0524 C   0  0  0  0  0  0  0  0  0  0  0  0
   -1.0821    0.8960    1.8678 C   0  0  0  0  0  0  0  0  0  0  0  0
   -2.7841    6.2562    2.5397 H   0  0  0  0  0  0  0  0  0  0  0  0
   -3.2735    4.8165    3.4660 H   0  0  0  0  0  0  0  0  0  0  0  0
   -1.6103    5.3878    3.5593 H   0  0  0  0  0  0  0  0  0  0  0  0
   -1.2702    4.8484    1.1518 H   0  0  0  0  0  0  0  0  0  0  0  0
   -2.9679    4.2642    1.0563 H   0  0  0  0  0  0  0  0  0  0  0  0
   -1.5320    3.2484   -0.5456 H   0  0  0  0  0  0  0  0  0  0  0  0
   -0.9660    1.3631   -1.9675 H   0  0  0  0  0  0  0  0  0  0  0  0
   -0.8261   -1.0155   -2.2231 H   0  0  0  0  0  0  0  0  0  0  0  0
    1.4297   -0.6807   -2.3978 H   0  0  0  0  0  0  0  0  0  0  0  0
    3.7849   -0.4718   -2.4167 H   0  0  0  0  0  0  0  0  0  0  0  0
    5.3625    1.4454   -2.5389 H   0  0  0  0  0  0  0  0  0  0  0  0
    2.5159    0.8217    1.5272 H   0  0  0  0  0  0  0  0  0  0  0  0
    3.4792    3.8239    1.4586 H   0  0  0  0  0  0  0  0  0  0  0  0
    4.4614    2.7713    2.5195 H   0  0  0  0  0  0  0  0  0  0  0  0
    5.5134    4.7898    0.8428 H   0  0  0  0  0  0  0  0  0  0  0  0
    6.9637    2.1869    1.5805 H   0  0  0  0  0  0  0  0  0  0  0  0
    6.8565    3.6446    2.5962 H   0  0  0  0  0  0  0  0  0  0  0  0
    7.7281    3.6773    1.0452 H   0  0  0  0  0  0  0  0  0  0  0  0
   -2.5711   -2.1027    0.1586 H   0  0  0  0  0  0  0  0  0  0  0  0
   -2.2190   -3.8141   -0.0839 H   0  0  0  0  0  0  0  0  0  0  0  0
   -2.7682   -3.6686   -2.4781 H   0  0  0  0  0  0  0  0  0  0  0  0
   -2.9540   -1.9253   -2.3800 H   0  0  0  0  0  0  0  0  0  0  0  0
   -5.1654   -2.9444   -2.3946 H   0  0  0  0  0  0  0  0  0  0  0  0
   -4.8941   -2.1667   -0.8335 H   0  0  0  0  0  0  0  0  0  0  0  0
   -4.6769   -5.6500   -2.4301 H   0  0  0  0  0  0  0  0  0  0  0  0
   -5.4837   -7.3935   -0.4409 H   0  0  0  0  0  0  0  0  0  0  0  0
   -5.3934   -3.5401    1.1647 H   0  0  0  0  0  0  0  0  0  0  0  0
   -0.5160   -1.1435    1.5241 H   0  0  0  0  0  0  0  0  0  0  0  0
   -1.1064    0.7676    2.9480 H   0  0  0  0  0  0  0  0  0  0  0  0
  1  2  1  0
  2  3  1  0
  3  4  1  0
  4  5  2  0
  5  6  1  0
  6  7  2  0
  7  8  1  0
  8  9  1  0
  9 10  1  0
 10 11  2  0
 10 12  1  0
 12 13  2  0
 13 14  1  0
 14 15  2  0
 15 16  1  0
 16 17  2  0
 16 18  1  0
 18 19  1  0
 19 20  1  0
 19 21  1  0
  9 22  1  0
 22 23  2  0
 22 24  1  0
 24 25  2  0
 24 26  1  0
 26 27  1  0
 27 28  1  0
 28 29  1  0
 29 30  1  0
 30 31  1  0
 31 32  2  0
 32 33  1  0
 33 34  2  0
  7 35  1  0
 35 36  2  0
 36  4  1  0
 26  8  1  0
 34 30  1  0
 17 12  1  0
 21 15  1  0
  1 37  1  0
  1 38  1  0
  1 39  1  0
  2 40  1  0
  2 41  1  0
  5 42  1  0
  6 43  1  0
  8 44  1  0
  9 45  1  0
 13 46  1  0
 14 47  1  0
 17 48  1  0
 18 49  1  0
 18 50  1  0
 19 51  1  0
 20 52  1  0
 20 53  1  0
 20 54  1  0
 27 55  1  0
 27 56  1  0
 28 57  1  0
 28 58  1  0
 29 59  1  0
 29 60  1  0
 31 61  1  0
 32 62  1  0
 34 63  1  0
 35 64  1  0
 36 65  1  0
M  END
$$$$
