
     RDKit          3D

 56 59  0  0  0  0  0  0  0  0999 V2000
   -1.5813    0.1756   -2.8954 C   0  0  0  0  0  0  0  0  0  0  0  0
   -1.4687   -0.6148   -1.5874 C   0  0  0  0  0  0  0  0  0  0  0  0
   -2.5253   -0.0695   -0.5813 C   0  0  0  0  0  0  0  0  0  0  0  0
   -2.2444    0.8566    0.1845 O   0  0  0  0  0  0  0  0  0  0  0  0
   -3.7844   -0.6597   -0.6418 N   0  0  0  0  0  0  0  0  0  0  0  0
   -4.1616   -1.8428   -1.4400 C   0  0  0  0  0  0  0  0  0  0  0  0
   -5.6494   -2.1247   -1.2017 C   0  0  0  0  0  0  0  0  0  0  0  0
   -6.0054   -1.0791   -0.1967 C   0  0  0  0  0  0  0  0  0  0  0  0
   -7.2452   -0.8794    0.3943 C   0  0  0  0  0  0  0  0  0  0  0  0
   -7.3857    0.1687    1.3059 C   0  0  0  0  0  0  0  0  0  0  0  0
   -6.2953    0.9936    1.6101 C   0  0  0  0  0  0  0  0  0  0  0  0
   -5.0488    0.7818    1.0080 C   0  0  0  0  0  0  0  0  0  0  0  0
   -4.9151   -0.2597    0.1030 C   0  0  0  0  0  0  0  0  0  0  0  0
   -0.0876   -0.6577   -1.0447 N   0  0  0  0  0  0  0  0  0  0  0  0
    0.6113    0.6319   -0.9267 C   0  0  0  0  0  0  0  0  0  0  0  0
    2.0024    0.4769   -0.2730 C   0  0  0  0  0  0  0  0  0  0  0  0
    1.9358   -0.1143    1.1059 N   0  0  0  0  0  0  0  0  0  0  0  0
    3.2617   -1.0978    1.5457 S   0  0  0  0  0  6  0  0  0  0  0  0
    3.4098   -2.1240    0.5319 O   0  0  0  0  0  0  0  0  0  0  0  0
    3.1271   -1.4470    2.9452 O   0  0  0  0  0  0  0  0  0  0  0  0
    4.6354    0.0237    1.4176 C   0  0  0  0  0  0  0  0  0  0  0  0
    4.7619    1.0516    2.3583 C   0  0  0  0  0  0  0  0  0  0  0  0
    5.8463    1.9272    2.2782 C   0  0  0  0  0  0  0  0  0  0  0  0
    6.8123    1.7758    1.2678 C   0  0  0  0  0  0  0  0  0  0  0  0
    7.9769    2.7349    1.1915 C   0  0  0  0  0  0  0  0  0  0  0  0
    8.9467    2.3424    0.3185 F   0  0  0  0  0  0  0  0  0  0  0  0
    8.5997    2.9020    2.3916 F   0  0  0  0  0  0  0  0  0  0  0  0
    7.5938    3.9796    0.7903 F   0  0  0  0  0  0  0  0  0  0  0  0
    6.6687    0.7347    0.3329 C   0  0  0  0  0  0  0  0  0  0  0  0
    5.5863   -0.1453    0.4084 C   0  0  0  0  0  0  0  0  0  0  0  0
    0.6027   -0.7306    1.3997 C   0  0  0  0  0  0  0  0  0  0  0  0
    0.0373   -1.4782    0.1772 C   0  0  0  0  0  0  0  0  0  0  0  0
   -1.4230    1.2506   -2.7363 H   0  0  0  0  0  0  0  0  0  0  0  0
   -2.5822    0.0671   -3.3382 H   0  0  0  0  0  0  0  0  0  0  0  0
   -0.8550   -0.1845   -3.6333 H   0  0  0  0  0  0  0  0  0  0  0  0
   -1.7039   -1.6565   -1.8297 H   0  0  0  0  0  0  0  0  0  0  0  0
   -3.5482   -2.6934   -1.1189 H   0  0  0  0  0  0  0  0  0  0  0  0
   -3.9574   -1.6517   -2.4986 H   0  0  0  0  0  0  0  0  0  0  0  0
   -5.8009   -3.1307   -0.8007 H   0  0  0  0  0  0  0  0  0  0  0  0
   -6.2276   -2.0041   -2.1239 H   0  0  0  0  0  0  0  0  0  0  0  0
   -8.0907   -1.5167    0.1546 H   0  0  0  0  0  0  0  0  0  0  0  0
   -8.3480    0.3484    1.7813 H   0  0  0  0  0  0  0  0  0  0  0  0
   -6.4166    1.8094    2.3205 H   0  0  0  0  0  0  0  0  0  0  0  0
   -4.2227    1.4371    1.2584 H   0  0  0  0  0  0  0  0  0  0  0  0
    0.7657    1.0612   -1.9227 H   0  0  0  0  0  0  0  0  0  0  0  0
    0.0335    1.3590   -0.3493 H   0  0  0  0  0  0  0  0  0  0  0  0
    2.6301   -0.1380   -0.9314 H   0  0  0  0  0  0  0  0  0  0  0  0
    2.4735    1.4654   -0.1923 H   0  0  0  0  0  0  0  0  0  0  0  0
    4.0231    1.1687    3.1500 H   0  0  0  0  0  0  0  0  0  0  0  0
    5.9422    2.7272    3.0133 H   0  0  0  0  0  0  0  0  0  0  0  0
    7.4087    0.5985   -0.4554 H   0  0  0  0  0  0  0  0  0  0  0  0
    5.4965   -0.9557   -0.3139 H   0  0  0  0  0  0  0  0  0  0  0  0
   -0.0757    0.0698    1.7142 H   0  0  0  0  0  0  0  0  0  0  0  0
    0.6656   -1.4150    2.2517 H   0  0  0  0  0  0  0  0  0  0  0  0
    0.7077   -2.3067   -0.0674 H   0  0  0  0  0  0  0  0  0  0  0  0
   -0.9121   -1.9415    0.4583 H   0  0  0  0  0  0  0  0  0  0  0  0
  1  2  1  0
  2  3  1  0
  3  4  2  0
  3  5  1  0
  5  6  1  0
  6  7  1  0
  7  8  1  0
  8  9  2  0
  9 10  1  0
 10 11  2  0
 11 12  1  0
 12 13  2  0
  2 14  1  0
 14 15  1  0
 15 16  1  0
 16 17  1  0
 17 18  1  0
 18 19  2  0
 18 20  2  0
 18 21  1  0
 21 22  2  0
 22 23  1  0
 23 24  2  0
 24 25  1  0
 25 26  1  0
 25 27  1  0
 25 28  1  0
 24 29  1  0
 29 30  2  0
 17 31  1  0
 31 32  1  0
 13  5  1  0
 32 14  1  0
 13  8  1  0
 30 21  1  0
  1 33  1  0
  1 34  1  0
  1 35  1  0
  2 36  1  0
  6 37  1  0
  6 38  1  0
  7 39  1  0
  7 40  1  0
  9 41  1  0
 10 42  1  0
 11 43  1  0
 12 44  1  0
 15 45  1  0
 15 46  1  0
 16 47  1  0
 16 48  1  0
 22 49  1  0
 23 50  1  0
 29 51  1  0
 30 52  1  0
 31 53  1  0
 31 54  1  0
 32 55  1  0
 32 56  1  0
M  END
$$$$
