
     RDKit          3D

 59 63  0  0  0  0  0  0  0  0999 V2000
    3.1283   -3.1094    3.9857 C   0  0  0  0  0  0  0  0  0  0  0  0
    3.7006   -1.8157    3.8398 O   0  0  0  0  0  0  0  0  0  0  0  0
    3.6943   -1.2766    2.5831 C   0  0  0  0  0  0  0  0  0  0  0  0
    3.1632   -1.8691    1.4380 C   0  0  0  0  0  0  0  0  0  0  0  0
    3.2218   -1.2014    0.2085 C   0  0  0  0  0  0  0  0  0  0  0  0
    3.8099    0.0660    0.1069 C   0  0  0  0  0  0  0  0  0  0  0  0
    3.8442    0.7677   -1.1832 C   0  0  0  0  0  0  0  0  0  0  0  0
    5.3683    1.1316   -1.8717 S   0  0  0  0  0  0  0  0  0  0  0  0
    4.6715    1.8600   -3.2614 C   0  0  0  0  0  0  0  0  0  0  0  0
    5.3615    2.4342   -4.3481 C   0  0  0  0  0  0  0  0  0  0  0  0
    4.6305    2.9914   -5.3989 C   0  0  0  0  0  0  0  0  0  0  0  0
    3.2442    2.9820   -5.3730 C   0  0  0  0  0  0  0  0  0  0  0  0
    2.5647    2.4103   -4.2933 C   0  0  0  0  0  0  0  0  0  0  0  0
    3.2767    1.8295   -3.2105 C   0  0  0  0  0  0  0  0  0  0  0  0
    2.8053    1.1873   -2.0016 C   0  0  0  0  0  0  0  0  0  0  0  0
    1.4064    0.9824   -1.6364 C   0  0  0  0  0  0  0  0  0  0  0  0
    0.8509    1.6523   -0.5408 C   0  0  0  0  0  0  0  0  0  0  0  0
   -0.4872    1.4444   -0.1873 C   0  0  0  0  0  0  0  0  0  0  0  0
   -1.2796    0.5669   -0.9279 C   0  0  0  0  0  0  0  0  0  0  0  0
   -2.5930    0.2728   -0.6905 O   0  0  0  0  0  0  0  0  0  0  0  0
   -3.1755    0.8043    0.5006 C   0  0  0  0  0  0  0  0  0  0  0  0
   -4.6230    0.2896    0.6408 C   0  0  0  0  0  0  0  0  0  0  0  0
   -4.7539   -1.1725    0.8048 N   0  0  0  0  0  0  0  0  0  0  0  0
   -4.2334   -1.6787    2.0921 C   0  0  0  0  0  0  0  0  0  0  0  0
   -5.1285   -1.3539    3.3005 C   0  0  0  0  0  0  0  0  0  0  0  0
   -6.4666   -1.8270    3.1046 O   0  0  0  0  0  0  0  0  0  0  0  0
   -7.0300   -1.2818    1.9053 C   0  0  0  0  0  0  0  0  0  0  0  0
   -6.1629   -1.6077    0.6772 C   0  0  0  0  0  0  0  0  0  0  0  0
   -0.7266   -0.0905   -2.0298 C   0  0  0  0  0  0  0  0  0  0  0  0
    0.6086    0.1128   -2.3856 C   0  0  0  0  0  0  0  0  0  0  0  0
    4.3407    0.6553    1.2604 C   0  0  0  0  0  0  0  0  0  0  0  0
    4.2824   -0.0136    2.4865 C   0  0  0  0  0  0  0  0  0  0  0  0
    3.6694   -3.8507    3.3883 H   0  0  0  0  0  0  0  0  0  0  0  0
    2.0624   -3.0998    3.7349 H   0  0  0  0  0  0  0  0  0  0  0  0
    3.2199   -3.3985    5.0371 H   0  0  0  0  0  0  0  0  0  0  0  0
    2.6944   -2.8469    1.4622 H   0  0  0  0  0  0  0  0  0  0  0  0
    2.8012   -1.6813   -0.6727 H   0  0  0  0  0  0  0  0  0  0  0  0
    6.4477    2.4452   -4.3687 H   0  0  0  0  0  0  0  0  0  0  0  0
    5.1545    3.4373   -6.2409 H   0  0  0  0  0  0  0  0  0  0  0  0
    2.6809    3.4211   -6.1927 H   0  0  0  0  0  0  0  0  0  0  0  0
    1.4770    2.4159   -4.2854 H   0  0  0  0  0  0  0  0  0  0  0  0
    1.4562    2.3380    0.0479 H   0  0  0  0  0  0  0  0  0  0  0  0
   -0.8754    1.9844    0.6693 H   0  0  0  0  0  0  0  0  0  0  0  0
   -2.5830    0.5332    1.3808 H   0  0  0  0  0  0  0  0  0  0  0  0
   -3.2143    1.8980    0.4227 H   0  0  0  0  0  0  0  0  0  0  0  0
   -5.1079    0.8271    1.4632 H   0  0  0  0  0  0  0  0  0  0  0  0
   -5.1454    0.5738   -0.2820 H   0  0  0  0  0  0  0  0  0  0  0  0
   -3.2114   -1.3342    2.2765 H   0  0  0  0  0  0  0  0  0  0  0  0
   -4.1638   -2.7710    2.0038 H   0  0  0  0  0  0  0  0  0  0  0  0
   -4.7338   -1.8505    4.1927 H   0  0  0  0  0  0  0  0  0  0  0  0
   -5.1537   -0.2785    3.5090 H   0  0  0  0  0  0  0  0  0  0  0  0
   -7.1649   -0.2015    2.0304 H   0  0  0  0  0  0  0  0  0  0  0  0
   -8.0239   -1.7235    1.7803 H   0  0  0  0  0  0  0  0  0  0  0  0
   -6.1565   -2.6967    0.5379 H   0  0  0  0  0  0  0  0  0  0  0  0
   -6.6174   -1.1898   -0.2287 H   0  0  0  0  0  0  0  0  0  0  0  0
   -1.3418   -0.7732   -2.6113 H   0  0  0  0  0  0  0  0  0  0  0  0
    1.0196   -0.4171   -3.2415 H   0  0  0  0  0  0  0  0  0  0  0  0
    4.7974    1.6412    1.2172 H   0  0  0  0  0  0  0  0  0  0  0  0
    4.6987    0.4554    3.3747 H   0  0  0  0  0  0  0  0  0  0  0  0
  1  2  1  0
  2  3  1  0
  3  4  2  0
  4  5  1  0
  5  6  2  0
  6  7  1  0
  7  8  1  0
  8  9  1  0
  9 10  2  0
 10 11  1  0
 11 12  2  0
 12 13  1  0
 13 14  2  0
 14 15  1  0
 15 16  1  0
 16 17  2  0
 17 18  1  0
 18 19  2  0
 19 20  1  0
 20 21  1  0
 21 22  1  0
 22 23  1  0
 23 24  1  0
 24 25  1  0
 25 26  1  0
 26 27  1  0
 27 28  1  0
 19 29  1  0
 29 30  2  0
  6 31  1  0
 31 32  2  0
 32  3  1  0
 15  7  2  0
 30 16  1  0
 14  9  1  0
 28 23  1  0
  1 33  1  0
  1 34  1  0
  1 35  1  0
  4 36  1  0
  5 37  1  0
 10 38  1  0
 11 39  1  0
 12 40  1  0
 13 41  1  0
 17 42  1  0
 18 43  1  0
 21 44  1  0
 21 45  1  0
 22 46  1  0
 22 47  1  0
 24 48  1  0
 24 49  1  0
 25 50  1  0
 25 51  1  0
 27 52  1  0
 27 53  1  0
 28 54  1  0
 28 55  1  0
 29 56  1  0
 30 57  1  0
 31 58  1  0
 32 59  1  0
M  END
$$$$
