
     RDKit          3D

 36 37  0  0  0  0  0  0  0  0999 V2000
    4.4213    1.0298    1.0116 C   0  0  0  0  0  0  0  0  0  0  0  0
    3.6779    0.4509   -0.0796 N   0  0  0  0  0  0  0  0  0  0  0  0
    2.6174    1.1112   -0.6628 C   0  0  0  0  0  0  0  0  0  0  0  0
    2.2544    2.2420   -0.3499 O   0  0  0  0  0  0  0  0  0  0  0  0
    1.8853    0.2996   -1.7275 C   0  0  0  0  0  0  0  0  0  0  0  0
    0.7539   -0.3861   -1.1826 O   0  0  0  0  0  0  0  0  0  0  0  0
    1.0570   -1.5214   -0.5019 C   0  0  0  0  0  0  0  0  0  0  0  0
    2.1873   -1.9428   -0.3075 O   0  0  0  0  0  0  0  0  0  0  0  0
   -0.1753   -2.2265   -0.0560 C   0  0  0  0  0  0  0  0  0  0  0  0
   -0.0431   -3.6220    0.0832 C   0  0  0  0  0  0  0  0  0  0  0  0
   -1.1206   -4.4003    0.4949 C   0  0  0  0  0  0  0  0  0  0  0  0
   -2.3352   -3.7894    0.7782 C   0  0  0  0  0  0  0  0  0  0  0  0
   -2.4737   -2.4016    0.6586 C   0  0  0  0  0  0  0  0  0  0  0  0
   -1.4049   -1.5924    0.2463 C   0  0  0  0  0  0  0  0  0  0  0  0
   -1.5295   -0.1812    0.1366 N   0  0  0  0  0  0  0  0  0  0  0  0
   -2.6251    0.6218    0.4324 C   0  0  0  0  0  0  0  0  0  0  0  0
   -3.6794    0.2003    0.8983 O   0  0  0  0  0  0  0  0  0  0  0  0
   -2.4258    2.0367    0.1354 C   0  0  0  0  0  0  0  0  0  0  0  0
   -1.3438    2.7849   -0.2962 C   0  0  0  0  0  0  0  0  0  0  0  0
   -1.7867    4.1262   -0.4205 C   0  0  0  0  0  0  0  0  0  0  0  0
   -3.1102    4.1246   -0.0616 C   0  0  0  0  0  0  0  0  0  0  0  0
   -3.5060    2.8738    0.2750 O   0  0  0  0  0  0  0  0  0  0  0  0
    5.4442    0.6367    0.9754 H   0  0  0  0  0  0  0  0  0  0  0  0
    4.4389    2.1250    0.9409 H   0  0  0  0  0  0  0  0  0  0  0  0
    3.9402    0.7287    1.9511 H   0  0  0  0  0  0  0  0  0  0  0  0
    3.6766   -0.5664   -0.1569 H   0  0  0  0  0  0  0  0  0  0  0  0
    1.5216    0.9937   -2.4911 H   0  0  0  0  0  0  0  0  0  0  0  0
    2.5654   -0.3947   -2.2345 H   0  0  0  0  0  0  0  0  0  0  0  0
    0.9067   -4.1097   -0.1306 H   0  0  0  0  0  0  0  0  0  0  0  0
   -1.0125   -5.4775    0.5968 H   0  0  0  0  0  0  0  0  0  0  0  0
   -3.1855   -4.3875    1.1013 H   0  0  0  0  0  0  0  0  0  0  0  0
   -3.4494   -1.9882    0.8992 H   0  0  0  0  0  0  0  0  0  0  0  0
   -0.7146    0.2953   -0.2336 H   0  0  0  0  0  0  0  0  0  0  0  0
   -0.3443    2.4299   -0.4958 H   0  0  0  0  0  0  0  0  0  0  0  0
   -1.2097    4.9870   -0.7286 H   0  0  0  0  0  0  0  0  0  0  0  0
   -3.8727    4.8894   -0.0000 H   0  0  0  0  0  0  0  0  0  0  0  0
  1  2  1  0
  2  3  1  0
  3  4  2  0
  3  5  1  0
  5  6  1  0
  6  7  1  0
  7  8  2  0
  7  9  1  0
  9 10  2  0
 10 11  1  0
 11 12  2  0
 12 13  1  0
 13 14  2  0
 14 15  1  0
 15 16  1  0
 16 17  2  0
 16 18  1  0
 18 19  2  0
 19 20  1  0
 20 21  2  0
 21 22  1  0
 14  9  1  0
 22 18  1  0
  1 23  1  0
  1 24  1  0
  1 25  1  0
  2 26  1  0
  5 27  1  0
  5 28  1  0
 10 29  1  0
 11 30  1  0
 12 31  1  0
 13 32  1  0
 15 33  1  0
 19 34  1  0
 20 35  1  0
 21 36  1  0
M  END
$$$$
