
     RDKit          3D

 43 45  0  0  0  0  0  0  0  0999 V2000
    2.3223    2.3506   -0.5001 O   0  0  0  0  0  0  0  0  0  0  0  0
    1.9591    1.5240    0.3358 C   0  0  0  0  0  0  0  0  0  0  0  0
    1.3697    1.9629    1.6757 C   0  0  0  0  0  0  0  0  0  0  0  0
   -0.0621    2.1853    1.5308 N   0  0  0  0  0  0  0  0  0  0  0  0
   -0.9236    1.0989    1.5476 C   0  0  0  0  0  0  0  0  0  0  0  0
   -0.4897   -0.0420    1.7133 O   0  0  0  0  0  0  0  0  0  0  0  0
   -2.4040    1.4410    1.2794 C   0  0  0  0  0  0  0  0  0  0  0  0
   -2.9792    2.3476    2.3643 C   0  0  0  0  0  0  0  0  0  0  0  0
   -3.0902    1.6720    3.6219 O   0  0  0  0  0  0  0  0  0  0  0  0
   -3.6420    0.4264    3.4681 C   0  0  0  0  0  0  0  0  0  0  0  0
   -4.1341   -0.1883    4.6187 C   0  0  0  0  0  0  0  0  0  0  0  0
   -4.7450   -1.4411    4.5309 C   0  0  0  0  0  0  0  0  0  0  0  0
   -4.8545   -2.0816    3.2937 C   0  0  0  0  0  0  0  0  0  0  0  0
   -4.3401   -1.4749    2.1459 C   0  0  0  0  0  0  0  0  0  0  0  0
   -3.7228   -0.2269    2.2348 C   0  0  0  0  0  0  0  0  0  0  0  0
   -3.2284    0.2974    1.0687 O   0  0  0  0  0  0  0  0  0  0  0  0
    1.9237    0.1375    0.1723 N   0  0  0  0  0  0  0  0  0  0  0  0
    2.2196   -0.5145   -1.0005 N   0  0  0  0  0  0  0  0  0  0  0  0
    3.1990   -0.0588   -1.7187 C   0  0  0  0  0  0  0  0  0  0  0  0
    3.5506   -0.6706   -3.0165 C   0  0  0  0  0  0  0  0  0  0  0  0
    4.5634   -0.0805   -3.7872 C   0  0  0  0  0  0  0  0  0  0  0  0
    4.9065   -0.6342   -5.0216 C   0  0  0  0  0  0  0  0  0  0  0  0
    4.2376   -1.7716   -5.4812 C   0  0  0  0  0  0  0  0  0  0  0  0
    3.2299   -2.3470   -4.7080 C   0  0  0  0  0  0  0  0  0  0  0  0
    2.5935   -3.4458   -5.2066 O   0  0  0  0  0  0  0  0  0  0  0  0
    2.8782   -1.8071   -3.4758 C   0  0  0  0  0  0  0  0  0  0  0  0
    1.5672    1.2129    2.4508 H   0  0  0  0  0  0  0  0  0  0  0  0
    1.8361    2.9091    1.9782 H   0  0  0  0  0  0  0  0  0  0  0  0
   -0.3435    3.0247    1.0364 H   0  0  0  0  0  0  0  0  0  0  0  0
   -2.4146    1.9945    0.3331 H   0  0  0  0  0  0  0  0  0  0  0  0
   -2.3524    3.2324    2.5251 H   0  0  0  0  0  0  0  0  0  0  0  0
   -3.9785    2.6985    2.0789 H   0  0  0  0  0  0  0  0  0  0  0  0
   -4.0550    0.3145    5.5804 H   0  0  0  0  0  0  0  0  0  0  0  0
   -5.1393   -1.9176    5.4250 H   0  0  0  0  0  0  0  0  0  0  0  0
   -5.3365   -3.0543    3.2226 H   0  0  0  0  0  0  0  0  0  0  0  0
   -4.4116   -1.9788    1.1862 H   0  0  0  0  0  0  0  0  0  0  0  0
    1.2116   -0.3443    0.7282 H   0  0  0  0  0  0  0  0  0  0  0  0
    3.8325    0.7885   -1.3988 H   0  0  0  0  0  0  0  0  0  0  0  0
    5.0814    0.8090   -3.4411 H   0  0  0  0  0  0  0  0  0  0  0  0
    5.6844   -0.1761   -5.6322 H   0  0  0  0  0  0  0  0  0  0  0  0
    4.4954   -2.2041   -6.4438 H   0  0  0  0  0  0  0  0  0  0  0  0
    1.8965   -3.7142   -4.5837 H   0  0  0  0  0  0  0  0  0  0  0  0
    2.0888   -2.2533   -2.8741 H   0  0  0  0  0  0  0  0  0  0  0  0
  1  2  2  0
  2  3  1  0
  3  4  1  0
  4  5  1  0
  5  6  2  0
  5  7  1  0
  7  8  1  0
  8  9  1  0
  9 10  1  0
 10 11  2  0
 11 12  1  0
 12 13  2  0
 13 14  1  0
 14 15  2  0
 15 16  1  0
  2 17  1  0
 17 18  1  0
 18 19  2  3
 19 20  1  0
 20 21  2  0
 21 22  1  0
 22 23  2  0
 23 24  1  0
 24 25  1  0
 24 26  2  0
 16  7  1  0
 26 20  1  0
 15 10  1  0
  3 27  1  0
  3 28  1  0
  4 29  1  0
  7 30  1  0
  8 31  1  0
  8 32  1  0
 11 33  1  0
 12 34  1  0
 13 35  1  0
 14 36  1  0
 17 37  1  0
 19 38  1  0
 21 39  1  0
 22 40  1  0
 23 41  1  0
 25 42  1  0
 26 43  1  0
M  END
$$$$
