
     RDKit          3D

 59 62  0  0  0  0  0  0  0  0999 V2000
   -4.3893    4.9952   -1.2736 C   0  0  0  0  0  0  0  0  0  0  0  0
   -2.8790    4.9057   -1.3950 C   0  0  0  0  0  0  0  0  0  0  0  0
   -2.4568    3.5339   -1.3449 O   0  0  0  0  0  0  0  0  0  0  0  0
   -2.2700    3.0060   -0.1064 C   0  0  0  0  0  0  0  0  0  0  0  0
   -2.4632    3.6188    0.9395 O   0  0  0  0  0  0  0  0  0  0  0  0
   -1.8054    1.5384   -0.1437 C   0  0  0  0  0  0  0  0  0  0  0  0
   -3.0060    0.7438    0.4502 C   0  0  0  0  0  0  0  0  0  0  0  0
   -2.8106   -0.7366    0.6925 C   0  0  0  0  0  0  0  0  0  0  0  0
   -2.3200   -1.2026    1.9197 C   0  0  0  0  0  0  0  0  0  0  0  0
   -2.1341   -2.5712    2.1477 C   0  0  0  0  0  0  0  0  0  0  0  0
   -2.4463   -3.4966    1.1537 C   0  0  0  0  0  0  0  0  0  0  0  0
   -2.3114   -4.8541    1.2449 O   0  0  0  0  0  0  0  0  0  0  0  0
   -1.8344   -5.3713    2.4812 C   0  0  0  0  0  0  0  0  0  0  0  0
   -2.9517   -3.0395   -0.0641 C   0  0  0  0  0  0  0  0  0  0  0  0
   -3.1402   -1.6739   -0.2928 C   0  0  0  0  0  0  0  0  0  0  0  0
   -0.5320    1.4823    0.7464 C   0  0  0  0  0  0  0  0  0  0  0  0
    0.5391    0.5321    0.2146 C   0  0  0  0  0  0  0  0  0  0  0  0
    0.9379    0.8798   -1.1501 N   0  0  0  0  0  0  0  0  0  0  0  0
    2.2521    0.8646   -1.6200 C   0  0  0  0  0  0  0  0  0  0  0  0
    2.5753    1.5322   -2.6037 O   0  0  0  0  0  0  0  0  0  0  0  0
    3.2414    0.0537   -0.9383 C   0  0  0  0  0  0  0  0  0  0  0  0
    3.1555   -1.1223   -0.2116 C   0  0  0  0  0  0  0  0  0  0  0  0
    4.4624   -1.4907    0.2117 C   0  0  0  0  0  0  0  0  0  0  0  0
    4.9827   -2.5527    0.9754 C   0  0  0  0  0  0  0  0  0  0  0  0
    6.3622   -2.6188    1.2039 C   0  0  0  0  0  0  0  0  0  0  0  0
    7.2167   -1.6507    0.6800 C   0  0  0  0  0  0  0  0  0  0  0  0
    6.7224   -0.5917   -0.0875 C   0  0  0  0  0  0  0  0  0  0  0  0
    5.3405   -0.5405   -0.3027 C   0  0  0  0  0  0  0  0  0  0  0  0
    4.5848    0.3564   -1.0174 N   0  0  0  0  0  0  0  0  0  0  0  0
   -0.0754    1.4946   -2.0019 C   0  0  0  0  0  0  0  0  0  0  0  0
   -1.4773    1.0616   -1.5843 C   0  0  0  0  0  0  0  0  0  0  0  0
   -4.7256    6.0310   -1.3779 H   0  0  0  0  0  0  0  0  0  0  0  0
   -4.8746    4.3863   -2.0440 H   0  0  0  0  0  0  0  0  0  0  0  0
   -4.7296    4.6136   -0.3054 H   0  0  0  0  0  0  0  0  0  0  0  0
   -2.3761    5.5040   -0.6263 H   0  0  0  0  0  0  0  0  0  0  0  0
   -2.5642    5.3005   -2.3670 H   0  0  0  0  0  0  0  0  0  0  0  0
   -3.8806    0.8740   -0.2040 H   0  0  0  0  0  0  0  0  0  0  0  0
   -3.3164    1.1942    1.4042 H   0  0  0  0  0  0  0  0  0  0  0  0
   -2.0851   -0.5036    2.7201 H   0  0  0  0  0  0  0  0  0  0  0  0
   -1.7494   -2.8783    3.1145 H   0  0  0  0  0  0  0  0  0  0  0  0
   -0.8192   -5.0180    2.6916 H   0  0  0  0  0  0  0  0  0  0  0  0
   -2.5169   -5.1260    3.3016 H   0  0  0  0  0  0  0  0  0  0  0  0
   -1.7967   -6.4614    2.3953 H   0  0  0  0  0  0  0  0  0  0  0  0
   -3.2071   -3.7549   -0.8419 H   0  0  0  0  0  0  0  0  0  0  0  0
   -3.5472   -1.3537   -1.2495 H   0  0  0  0  0  0  0  0  0  0  0  0
   -0.0726    2.4797    0.8046 H   0  0  0  0  0  0  0  0  0  0  0  0
   -0.7831    1.2227    1.7802 H   0  0  0  0  0  0  0  0  0  0  0  0
    1.4025    0.5779    0.8845 H   0  0  0  0  0  0  0  0  0  0  0  0
    0.1698   -0.4982    0.1981 H   0  0  0  0  0  0  0  0  0  0  0  0
    2.2496   -1.6776   -0.0084 H   0  0  0  0  0  0  0  0  0  0  0  0
    4.3240   -3.3134    1.3828 H   0  0  0  0  0  0  0  0  0  0  0  0
    6.7695   -3.4361    1.7937 H   0  0  0  0  0  0  0  0  0  0  0  0
    8.2859   -1.7210    0.8664 H   0  0  0  0  0  0  0  0  0  0  0  0
    7.3906    0.1569   -0.5005 H   0  0  0  0  0  0  0  0  0  0  0  0
    4.9492    1.1432   -1.5381 H   0  0  0  0  0  0  0  0  0  0  0  0
    0.1107    1.2032   -3.0422 H   0  0  0  0  0  0  0  0  0  0  0  0
    0.0454    2.5822   -1.9394 H   0  0  0  0  0  0  0  0  0  0  0  0
   -2.2153    1.4176   -2.3117 H   0  0  0  0  0  0  0  0  0  0  0  0
   -1.5070   -0.0310   -1.6467 H   0  0  0  0  0  0  0  0  0  0  0  0
  1  2  1  0
  2  3  1  0
  3  4  1  0
  4  5  2  0
  4  6  1  0
  6  7  1  0
  7  8  1  0
  8  9  2  0
  9 10  1  0
 10 11  2  0
 11 12  1  0
 12 13  1  0
 11 14  1  0
 14 15  2  0
  6 16  1  0
 16 17  1  0
 17 18  1  0
 18 19  1  0
 19 20  2  0
 19 21  1  0
 21 22  2  0
 22 23  1  0
 23 24  2  0
 24 25  1  0
 25 26  2  0
 26 27  1  0
 27 28  2  0
 28 29  1  0
 18 30  1  0
 30 31  1  0
 31  6  1  0
 15  8  1  0
 29 21  1  0
 28 23  1  0
  1 32  1  0
  1 33  1  0
  1 34  1  0
  2 35  1  0
  2 36  1  0
  7 37  1  0
  7 38  1  0
  9 39  1  0
 10 40  1  0
 13 41  1  0
 13 42  1  0
 13 43  1  0
 14 44  1  0
 15 45  1  0
 16 46  1  0
 16 47  1  0
 17 48  1  0
 17 49  1  0
 22 50  1  0
 24 51  1  0
 25 52  1  0
 26 53  1  0
 27 54  1  0
 29 55  1  0
 30 56  1  0
 30 57  1  0
 31 58  1  0
 31 59  1  0
M  END
$$$$
