
     RDKit          3D

 38 40  0  0  0  0  0  0  0  0999 V2000
    3.0866   -1.3887   -1.4341 N   0  0  0  0  0  0  0  0  0  0  0  0
    3.1807   -0.2729   -0.7636 C   0  0  0  0  0  0  0  0  0  0  0  0
    2.3383    0.8002   -1.0073 N   0  0  0  0  0  0  0  0  0  0  0  0
    1.2302    0.4286   -1.7995 O   0  0  0  0  0  0  0  0  0  0  0  0
    0.0604    0.4742   -1.0831 C   0  0  0  0  0  0  0  0  0  0  0  0
   -0.0023    0.9033    0.0645 O   0  0  0  0  0  0  0  0  0  0  0  0
   -1.0631   -0.1024   -1.9113 C   0  0  0  0  0  0  0  0  0  0  0  0
   -2.4429    0.3519   -1.4761 C   0  0  0  0  0  0  0  0  0  0  0  0
   -3.0345    1.4110   -2.1908 C   0  0  0  0  0  0  0  0  0  0  0  0
   -4.2969    1.8831   -1.8496 C   0  0  0  0  0  0  0  0  0  0  0  0
   -4.9873    1.3070   -0.7867 C   0  0  0  0  0  0  0  0  0  0  0  0
   -4.4261    0.2552   -0.0477 C   0  0  0  0  0  0  0  0  0  0  0  0
   -5.1409   -0.3068    1.0244 C   0  0  0  0  0  0  0  0  0  0  0  0
   -4.6031   -1.3458    1.7812 C   0  0  0  0  0  0  0  0  0  0  0  0
   -3.3422   -1.8376    1.4731 C   0  0  0  0  0  0  0  0  0  0  0  0
   -2.6196   -1.2918    0.4076 C   0  0  0  0  0  0  0  0  0  0  0  0
   -3.1373   -0.2377   -0.3805 C   0  0  0  0  0  0  0  0  0  0  0  0
    4.2436   -0.1692    0.3089 C   0  0  0  0  0  0  0  0  0  0  0  0
    4.4915    1.0112    0.9990 C   0  0  0  0  0  0  0  0  0  0  0  0
    5.4855    1.0022    1.9751 C   0  0  0  0  0  0  0  0  0  0  0  0
    6.1990   -0.1680    2.2162 C   0  0  0  0  0  0  0  0  0  0  0  0
    5.8929   -1.2936    1.4680 C   0  0  0  0  0  0  0  0  0  0  0  0
    4.9318   -1.3254    0.5207 N   0  0  0  0  0  0  0  0  0  0  0  0
    3.8215   -2.0201   -1.0665 H   0  0  0  0  0  0  0  0  0  0  0  0
    2.0291    1.2984   -0.1688 H   0  0  0  0  0  0  0  0  0  0  0  0
   -0.9069    0.1967   -2.9539 H   0  0  0  0  0  0  0  0  0  0  0  0
   -0.9949   -1.1946   -1.8940 H   0  0  0  0  0  0  0  0  0  0  0  0
   -2.5112    1.8772   -3.0242 H   0  0  0  0  0  0  0  0  0  0  0  0
   -4.7430    2.7023   -2.4076 H   0  0  0  0  0  0  0  0  0  0  0  0
   -5.9724    1.6918   -0.5335 H   0  0  0  0  0  0  0  0  0  0  0  0
   -6.1292    0.0690    1.2806 H   0  0  0  0  0  0  0  0  0  0  0  0
   -5.1674   -1.7658    2.6098 H   0  0  0  0  0  0  0  0  0  0  0  0
   -2.9123   -2.6431    2.0640 H   0  0  0  0  0  0  0  0  0  0  0  0
   -1.6325   -1.7028    0.2128 H   0  0  0  0  0  0  0  0  0  0  0  0
    3.9487    1.9252    0.7928 H   0  0  0  0  0  0  0  0  0  0  0  0
    5.7078    1.9036    2.5411 H   0  0  0  0  0  0  0  0  0  0  0  0
    6.9822   -0.2005    2.9664 H   0  0  0  0  0  0  0  0  0  0  0  0
    6.4361   -2.2252    1.6118 H   0  0  0  0  0  0  0  0  0  0  0  0
  1  2  2  3
  2  3  1  0
  3  4  1  0
  4  5  1  0
  5  6  2  0
  5  7  1  0
  7  8  1  0
  8  9  2  0
  9 10  1  0
 10 11  2  0
 11 12  1  0
 12 13  2  0
 13 14  1  0
 14 15  2  0
 15 16  1  0
 16 17  2  0
  2 18  1  0
 18 19  2  0
 19 20  1  0
 20 21  2  0
 21 22  1  0
 22 23  2  0
 17  8  1  0
 23 18  1  0
 17 12  1  0
  1 24  1  0
  3 25  1  0
  7 26  1  0
  7 27  1  0
  9 28  1  0
 10 29  1  0
 11 30  1  0
 13 31  1  0
 14 32  1  0
 15 33  1  0
 16 34  1  0
 19 35  1  0
 20 36  1  0
 21 37  1  0
 22 38  1  0
M  END
$$$$
