
     RDKit          3D

 35 36  0  0  0  0  0  0  0  0999 V2000
   -5.8667   -0.0211   -0.3812 C   0  0  0  0  0  0  0  0  0  0  0  0
   -4.3869   -0.0503   -0.1391 C   0  0  0  0  0  0  0  0  0  0  0  0
   -3.8631   -0.7194    0.9703 C   0  0  0  0  0  0  0  0  0  0  0  0
   -2.4815   -0.7752    1.1771 C   0  0  0  0  0  0  0  0  0  0  0  0
   -1.5967   -0.1559    0.2792 C   0  0  0  0  0  0  0  0  0  0  0  0
   -0.1903   -0.2410    0.5210 N   0  0  0  0  0  0  0  0  0  0  0  0
    0.2667   -1.1749    1.3983 N   0  0  0  0  0  0  0  0  0  0  0  0
    1.5880   -1.1883    1.2328 C   0  0  0  0  0  0  0  0  0  0  0  0
    2.4108   -2.1813    1.9680 C   0  0  0  0  0  0  0  0  0  0  0  0
    2.0196   -0.1828    0.3318 C   0  0  0  0  0  0  0  0  0  0  0  0
    3.3422    0.0500   -0.0137 N   0  0  0  0  0  0  0  0  0  0  0  0
    3.8141    0.7584   -1.1019 C   0  0  0  0  0  0  0  0  0  0  0  0
    3.1304    1.2959   -1.9701 O   0  0  0  0  0  0  0  0  0  0  0  0
    5.3286    0.8914   -1.1474 C   0  0  0  0  0  0  0  0  0  0  0  0
    6.1456   -0.5107   -0.4143 Cl  0  0  0  0  0  0  0  0  0  0  0  0
    0.8662    0.5069    0.0001 C   0  0  0  0  0  0  0  0  0  0  0  0
    0.6916    1.8304   -0.6572 C   0  0  0  0  0  0  0  0  0  0  0  0
   -2.1213    0.4786   -0.8519 C   0  0  0  0  0  0  0  0  0  0  0  0
   -3.5055    0.5309   -1.0565 C   0  0  0  0  0  0  0  0  0  0  0  0
   -6.1666   -0.8918   -0.9723 H   0  0  0  0  0  0  0  0  0  0  0  0
   -6.4175   -0.0286    0.5653 H   0  0  0  0  0  0  0  0  0  0  0  0
   -6.1565    0.8884   -0.9179 H   0  0  0  0  0  0  0  0  0  0  0  0
   -4.5247   -1.2056    1.6839 H   0  0  0  0  0  0  0  0  0  0  0  0
   -2.1085   -1.3006    2.0548 H   0  0  0  0  0  0  0  0  0  0  0  0
    3.1070   -1.6733    2.6429 H   0  0  0  0  0  0  0  0  0  0  0  0
    2.9906   -2.7899    1.2667 H   0  0  0  0  0  0  0  0  0  0  0  0
    1.7909   -2.8564    2.5672 H   0  0  0  0  0  0  0  0  0  0  0  0
    4.0302   -0.5251    0.4635 H   0  0  0  0  0  0  0  0  0  0  0  0
    5.6559    0.9558   -2.1885 H   0  0  0  0  0  0  0  0  0  0  0  0
    5.6283    1.7927   -0.6064 H   0  0  0  0  0  0  0  0  0  0  0  0
    1.5410    2.4858   -0.4380 H   0  0  0  0  0  0  0  0  0  0  0  0
    0.6029    1.7255   -1.7420 H   0  0  0  0  0  0  0  0  0  0  0  0
   -0.1874    2.3601   -0.2764 H   0  0  0  0  0  0  0  0  0  0  0  0
   -1.4873    0.9012   -1.6229 H   0  0  0  0  0  0  0  0  0  0  0  0
   -3.8902    1.0203   -1.9491 H   0  0  0  0  0  0  0  0  0  0  0  0
  1  2  1  0
  2  3  2  0
  3  4  1  0
  4  5  2  0
  5  6  1  0
  6  7  1  0
  7  8  2  0
  8  9  1  0
  8 10  1  0
 10 11  1  0
 11 12  1  0
 12 13  2  0
 12 14  1  0
 14 15  1  0
 10 16  2  0
 16 17  1  0
  5 18  1  0
 18 19  2  0
 19  2  1  0
 16  6  1  0
  1 20  1  0
  1 21  1  0
  1 22  1  0
  3 23  1  0
  4 24  1  0
  9 25  1  0
  9 26  1  0
  9 27  1  0
 11 28  1  0
 14 29  1  0
 14 30  1  0
 17 31  1  0
 17 32  1  0
 17 33  1  0
 18 34  1  0
 19 35  1  0
M  END
$$$$
