
     RDKit          3D

 45 47  0  0  0  0  0  0  0  0999 V2000
    5.9367   -0.8730   -2.2481 C   0  0  0  0  0  0  0  0  0  0  0  0
    4.8401   -1.8957   -2.0866 C   0  0  0  0  0  0  0  0  0  0  0  0
    5.1473   -3.0639   -1.6198 N   0  0  0  0  0  0  0  0  0  0  0  0
    3.4344   -1.4876   -2.4726 C   0  0  0  0  0  0  0  0  0  0  0  0
    3.1000   -2.0807   -3.7707 C   0  0  0  0  0  0  0  0  0  0  0  0
    2.8786   -2.5236   -4.8208 N   0  0  0  0  0  0  0  0  0  0  0  0
    2.4177   -1.8272   -1.4045 C   0  0  0  0  0  0  0  0  0  0  0  0
    1.3542   -2.4017   -1.6472 O   0  0  0  0  0  0  0  0  0  0  0  0
    2.7484   -1.3655    0.0189 C   0  0  0  0  0  0  0  0  0  0  0  0
    1.5979   -0.8973    0.7203 O   0  0  0  0  0  0  0  0  0  0  0  0
    1.0740    0.2328    0.1835 C   0  0  0  0  0  0  0  0  0  0  0  0
    1.5360    0.8533   -0.7605 O   0  0  0  0  0  0  0  0  0  0  0  0
   -0.2076    0.5456    0.8366 C   0  0  0  0  0  0  0  0  0  0  0  0
   -1.3179    0.6176   -0.0067 C   0  0  0  0  0  0  0  0  0  0  0  0
   -2.5529    0.8977    0.5502 C   0  0  0  0  0  0  0  0  0  0  0  0
   -3.7973    0.9854   -0.2427 C   0  0  0  0  0  0  0  0  0  0  0  0
   -4.8346    1.8557    0.1471 C   0  0  0  0  0  0  0  0  0  0  0  0
   -6.0198    1.9613   -0.5874 C   0  0  0  0  0  0  0  0  0  0  0  0
   -6.1982    1.1910   -1.7322 C   0  0  0  0  0  0  0  0  0  0  0  0
   -5.1917    0.3170   -2.1306 C   0  0  0  0  0  0  0  0  0  0  0  0
   -5.4335   -0.7426   -3.6788 Br  0  0  0  0  0  0  0  0  0  0  0  0
   -4.0055    0.2099   -1.3984 C   0  0  0  0  0  0  0  0  0  0  0  0
   -2.6882    1.1206    1.8809 N   0  0  0  0  0  0  0  0  0  0  0  0
   -1.6160    1.0648    2.6891 C   0  0  0  0  0  0  0  0  0  0  0  0
   -1.8024    1.3068    4.0435 C   0  0  0  0  0  0  0  0  0  0  0  0
   -0.7427    1.2853    4.9527 C   0  0  0  0  0  0  0  0  0  0  0  0
    0.5419    1.0194    4.5029 C   0  0  0  0  0  0  0  0  0  0  0  0
    0.7558    0.7714    3.1483 C   0  0  0  0  0  0  0  0  0  0  0  0
   -0.3204    0.7812    2.2229 C   0  0  0  0  0  0  0  0  0  0  0  0
    5.7245   -0.0122   -1.6083 H   0  0  0  0  0  0  0  0  0  0  0  0
    6.9051   -1.2966   -1.9683 H   0  0  0  0  0  0  0  0  0  0  0  0
    5.9769   -0.5461   -3.2906 H   0  0  0  0  0  0  0  0  0  0  0  0
    4.3585   -3.7237   -1.5956 H   0  0  0  0  0  0  0  0  0  0  0  0
    3.4119   -0.3956   -2.5774 H   0  0  0  0  0  0  0  0  0  0  0  0
    3.5152   -0.5827    0.0120 H   0  0  0  0  0  0  0  0  0  0  0  0
    3.1521   -2.2242    0.5644 H   0  0  0  0  0  0  0  0  0  0  0  0
   -1.2018    0.4609   -1.0747 H   0  0  0  0  0  0  0  0  0  0  0  0
   -4.7186    2.4672    1.0418 H   0  0  0  0  0  0  0  0  0  0  0  0
   -6.8004    2.6436   -0.2606 H   0  0  0  0  0  0  0  0  0  0  0  0
   -7.1212    1.2743   -2.2994 H   0  0  0  0  0  0  0  0  0  0  0  0
   -3.2504   -0.5004   -1.7274 H   0  0  0  0  0  0  0  0  0  0  0  0
   -2.8067    1.5213    4.4035 H   0  0  0  0  0  0  0  0  0  0  0  0
   -0.9275    1.4797    6.0062 H   0  0  0  0  0  0  0  0  0  0  0  0
    1.3746    1.0048    5.2018 H   0  0  0  0  0  0  0  0  0  0  0  0
    1.7734    0.5715    2.8212 H   0  0  0  0  0  0  0  0  0  0  0  0
  1  2  1  0
  2  3  2  3
  2  4  1  0
  4  5  1  0
  5  6  3  0
  4  7  1  0
  7  8  2  0
  7  9  1  0
  9 10  1  0
 10 11  1  0
 11 12  2  0
 11 13  1  0
 13 14  2  0
 14 15  1  0
 15 16  1  0
 16 17  2  0
 17 18  1  0
 18 19  2  0
 19 20  1  0
 20 21  1  0
 20 22  2  0
 15 23  2  0
 23 24  1  0
 24 25  2  0
 25 26  1  0
 26 27  2  0
 27 28  1  0
 28 29  2  0
 29 13  1  0
 22 16  1  0
 29 24  1  0
  1 30  1  0
  1 31  1  0
  1 32  1  0
  3 33  1  0
  4 34  1  0
  9 35  1  0
  9 36  1  0
 14 37  1  0
 17 38  1  0
 18 39  1  0
 19 40  1  0
 22 41  1  0
 25 42  1  0
 26 43  1  0
 27 44  1  0
 28 45  1  0
M  END
$$$$
