
     RDKit          3D

 39 41  0  0  0  0  0  0  0  0999 V2000
   -3.8707   -2.4134   -1.0056 C   0  0  0  0  0  0  0  0  0  0  0  0
   -3.5563   -2.5926    0.4699 C   0  0  0  0  0  0  0  0  0  0  0  0
   -1.8631   -3.2198    0.7307 S   0  0  0  0  0  0  0  0  0  0  0  0
   -0.8829   -1.7480    0.4581 C   0  0  0  0  0  0  0  0  0  0  0  0
    0.4862   -1.8819    0.3648 C   0  0  0  0  0  0  0  0  0  0  0  0
    1.2277   -0.7375    0.1608 C   0  0  0  0  0  0  0  0  0  0  0  0
    2.5974   -0.7681    0.0671 N   0  0  0  0  0  0  0  0  0  0  0  0
    3.3818   -1.9557   -0.2457 C   0  0  0  0  0  0  0  0  0  0  0  0
    4.6791   -1.4012   -0.8357 C   0  0  0  0  0  0  0  0  0  0  0  0
    4.7928   -0.0194   -0.2116 C   0  0  0  0  0  0  0  0  0  0  0  0
    3.3438    0.4578   -0.1879 C   0  0  0  0  0  0  0  0  0  0  0  0
    0.6163    0.4564    0.0779 N   0  0  0  0  0  0  0  0  0  0  0  0
   -0.7237    0.5037    0.1863 C   0  0  0  0  0  0  0  0  0  0  0  0
   -1.3764    1.8270    0.0884 C   0  0  0  0  0  0  0  0  0  0  0  0
   -2.7738    1.9708    0.2223 C   0  0  0  0  0  0  0  0  0  0  0  0
   -3.3920    3.2222    0.1314 C   0  0  0  0  0  0  0  0  0  0  0  0
   -2.6194    4.3517   -0.0962 C   0  0  0  0  0  0  0  0  0  0  0  0
   -3.2095    5.5506   -0.1822 F   0  0  0  0  0  0  0  0  0  0  0  0
   -1.2429    4.2538   -0.2350 C   0  0  0  0  0  0  0  0  0  0  0  0
   -0.6282    3.0008   -0.1426 C   0  0  0  0  0  0  0  0  0  0  0  0
   -1.5077   -0.5672    0.3739 N   0  0  0  0  0  0  0  0  0  0  0  0
   -4.9077   -2.0820   -1.1250 H   0  0  0  0  0  0  0  0  0  0  0  0
   -3.7607   -3.3548   -1.5545 H   0  0  0  0  0  0  0  0  0  0  0  0
   -3.2300   -1.6620   -1.4769 H   0  0  0  0  0  0  0  0  0  0  0  0
   -3.7205   -1.6653    1.0275 H   0  0  0  0  0  0  0  0  0  0  0  0
   -4.2420   -3.3370    0.8883 H   0  0  0  0  0  0  0  0  0  0  0  0
    0.9535   -2.8518    0.4629 H   0  0  0  0  0  0  0  0  0  0  0  0
    2.8928   -2.6146   -0.9716 H   0  0  0  0  0  0  0  0  0  0  0  0
    3.5835   -2.5192    0.6719 H   0  0  0  0  0  0  0  0  0  0  0  0
    5.5417   -2.0382   -0.6216 H   0  0  0  0  0  0  0  0  0  0  0  0
    4.5845   -1.3103   -1.9247 H   0  0  0  0  0  0  0  0  0  0  0  0
    5.4465    0.6508   -0.7764 H   0  0  0  0  0  0  0  0  0  0  0  0
    5.1811   -0.1018    0.8108 H   0  0  0  0  0  0  0  0  0  0  0  0
    3.1933    1.2109    0.5930 H   0  0  0  0  0  0  0  0  0  0  0  0
    3.0689    0.8832   -1.1609 H   0  0  0  0  0  0  0  0  0  0  0  0
   -3.3960    1.0956    0.4032 H   0  0  0  0  0  0  0  0  0  0  0  0
   -4.4675    3.3173    0.2382 H   0  0  0  0  0  0  0  0  0  0  0  0
   -0.6537    5.1475   -0.4128 H   0  0  0  0  0  0  0  0  0  0  0  0
    0.4538    2.9418   -0.2535 H   0  0  0  0  0  0  0  0  0  0  0  0
  1  2  1  0
  2  3  1  0
  3  4  1  0
  4  5  2  0
  5  6  1  0
  6  7  1  0
  7  8  1  0
  8  9  1  0
  9 10  1  0
 10 11  1  0
  6 12  2  0
 12 13  1  0
 13 14  1  0
 14 15  2  0
 15 16  1  0
 16 17  2  0
 17 18  1  0
 17 19  1  0
 19 20  2  0
 13 21  2  0
 21  4  1  0
 11  7  1  0
 20 14  1  0
  1 22  1  0
  1 23  1  0
  1 24  1  0
  2 25  1  0
  2 26  1  0
  5 27  1  0
  8 28  1  0
  8 29  1  0
  9 30  1  0
  9 31  1  0
 10 32  1  0
 10 33  1  0
 11 34  1  0
 11 35  1  0
 15 36  1  0
 16 37  1  0
 19 38  1  0
 20 39  1  0
M  END
$$$$
