
     RDKit          3D

 41 44  0  0  0  0  0  0  0  0999 V2000
    2.8846   -3.8400    3.1147 C   0  0  0  0  0  0  0  0  0  0  0  0
    3.3659   -4.0042    1.7877 O   0  0  0  0  0  0  0  0  0  0  0  0
    2.8602   -3.1695    0.8279 C   0  0  0  0  0  0  0  0  0  0  0  0
    3.3978   -3.3636   -0.4419 C   0  0  0  0  0  0  0  0  0  0  0  0
    2.9781   -2.6021   -1.5335 C   0  0  0  0  0  0  0  0  0  0  0  0
    2.0005   -1.6293   -1.3039 C   0  0  0  0  0  0  0  0  0  0  0  0
    1.4050   -0.7696   -2.1866 N   0  0  0  0  0  0  0  0  0  0  0  0
    0.4599    0.0217   -1.5675 C   0  0  0  0  0  0  0  0  0  0  0  0
   -0.3926    0.9902   -2.1324 C   0  0  0  0  0  0  0  0  0  0  0  0
   -0.3621    1.3014   -3.6097 C   0  0  0  0  0  0  0  0  0  0  0  0
   -1.3031    1.6382   -1.2547 C   0  0  0  0  0  0  0  0  0  0  0  0
   -2.2323    2.5787   -1.7353 C   0  0  0  0  0  0  0  0  0  0  0  0
   -3.1294    3.2007   -0.8812 C   0  0  0  0  0  0  0  0  0  0  0  0
   -3.1241    2.9100    0.4296 N   0  0  0  0  0  4  0  0  0  0  0  0
   -4.0882    3.5575    1.3357 C   0  0  0  0  0  0  0  0  0  0  0  0
   -2.2483    2.0135    0.9321 C   0  0  0  0  0  0  0  0  0  0  0  0
   -1.2992    1.3512    0.1316 C   0  0  0  0  0  0  0  0  0  0  0  0
   -0.3610    0.4156    0.6794 C   0  0  0  0  0  0  0  0  0  0  0  0
   -0.2949    0.1776    2.1712 C   0  0  0  0  0  0  0  0  0  0  0  0
    0.4870   -0.3031   -0.2117 C   0  0  0  0  0  0  0  0  0  0  0  0
    1.4430   -1.3810   -0.0535 C   0  0  0  0  0  0  0  0  0  0  0  0
    1.8813   -2.1867    1.0286 C   0  0  0  0  0  0  0  0  0  0  0  0
    3.1112   -2.8390    3.4965 H   0  0  0  0  0  0  0  0  0  0  0  0
    1.8120   -4.0522    3.1734 H   0  0  0  0  0  0  0  0  0  0  0  0
    3.4025   -4.5642    3.7508 H   0  0  0  0  0  0  0  0  0  0  0  0
    4.1566   -4.1301   -0.5887 H   0  0  0  0  0  0  0  0  0  0  0  0
    3.3990   -2.7717   -2.5197 H   0  0  0  0  0  0  0  0  0  0  0  0
    1.6212   -0.7483   -3.1723 H   0  0  0  0  0  0  0  0  0  0  0  0
   -1.3163    1.0297   -4.0728 H   0  0  0  0  0  0  0  0  0  0  0  0
   -0.1665    2.3669   -3.7691 H   0  0  0  0  0  0  0  0  0  0  0  0
    0.4232    0.7519   -4.1356 H   0  0  0  0  0  0  0  0  0  0  0  0
   -2.2785    2.8399   -2.7907 H   0  0  0  0  0  0  0  0  0  0  0  0
   -3.8543    3.9240   -1.2435 H   0  0  0  0  0  0  0  0  0  0  0  0
   -4.5940    4.3770    0.8195 H   0  0  0  0  0  0  0  0  0  0  0  0
   -4.8117    2.7987    1.6447 H   0  0  0  0  0  0  0  0  0  0  0  0
   -3.5383    3.9499    2.1954 H   0  0  0  0  0  0  0  0  0  0  0  0
   -2.3410    1.8322    1.9974 H   0  0  0  0  0  0  0  0  0  0  0  0
    0.7096   -0.1178    2.4804 H   0  0  0  0  0  0  0  0  0  0  0  0
   -0.4947    1.0905    2.7398 H   0  0  0  0  0  0  0  0  0  0  0  0
   -1.0096   -0.5975    2.4620 H   0  0  0  0  0  0  0  0  0  0  0  0
    1.4418   -2.0470    2.0058 H   0  0  0  0  0  0  0  0  0  0  0  0
  1  2  1  0
  2  3  1  0
  3  4  2  0
  4  5  1  0
  5  6  2  0
  6  7  1  0
  7  8  1  0
  8  9  2  0
  9 10  1  0
  9 11  1  0
 11 12  2  0
 12 13  1  0
 13 14  2  0
 14 15  1  0
 14 16  1  0
 16 17  2  0
 17 18  1  0
 18 19  1  0
 18 20  2  0
 20 21  1  0
 21 22  2  0
 22  3  1  0
 21  6  1  0
 20  8  1  0
 17 11  1  0
  1 23  1  0
  1 24  1  0
  1 25  1  0
  4 26  1  0
  5 27  1  0
  7 28  1  0
 10 29  1  0
 10 30  1  0
 10 31  1  0
 12 32  1  0
 13 33  1  0
 15 34  1  0
 15 35  1  0
 15 36  1  0
 16 37  1  0
 19 38  1  0
 19 39  1  0
 19 40  1  0
 22 41  1  0
M  CHG  1  14   1
M  END
$$$$
