
     RDKit          3D

 37 40  0  0  0  0  0  0  0  0999 V2000
    2.2764    1.0592    2.4973 O   0  0  0  0  0  0  0  0  0  0  0  0
    2.8796    0.6264    1.5381 C   0  0  0  0  0  0  0  0  0  0  0  0
    4.1980    0.2926    1.5100 O   0  0  0  0  0  0  0  0  0  0  0  0
    4.4454   -0.1607    0.2589 C   0  0  0  0  0  0  0  0  0  0  0  0
    5.7896   -0.5770    0.0124 C   0  0  0  0  0  0  0  0  0  0  0  0
    6.3926   -1.0886   -1.1220 C   0  0  0  0  0  0  0  0  0  0  0  0
    7.7490   -1.3254   -0.7927 C   0  0  0  0  0  0  0  0  0  0  0  0
    7.8944   -0.9454    0.5199 C   0  0  0  0  0  0  0  0  0  0  0  0
    6.7158   -0.4908    1.0167 O   0  0  0  0  0  0  0  0  0  0  0  0
    3.4674   -0.1775   -0.5868 N   0  0  0  0  0  0  0  0  0  0  0  0
    2.4154    0.3208    0.1489 C   0  0  0  0  0  0  0  0  0  0  0  0
    1.1905    0.4451   -0.3779 C   0  0  0  0  0  0  0  0  0  0  0  0
    0.0246    0.9419    0.2603 C   0  0  0  0  0  0  0  0  0  0  0  0
   -0.1777    1.9750    1.1655 C   0  0  0  0  0  0  0  0  0  0  0  0
   -1.5641    2.0518    1.4454 C   0  0  0  0  0  0  0  0  0  0  0  0
   -2.1703    1.0796    0.6829 C   0  0  0  0  0  0  0  0  0  0  0  0
   -3.5492    0.6334    0.4947 C   0  0  0  0  0  0  0  0  0  0  0  0
   -4.5977    1.2363    1.2041 C   0  0  0  0  0  0  0  0  0  0  0  0
   -5.9186    0.8134    1.0335 C   0  0  0  0  0  0  0  0  0  0  0  0
   -6.2128   -0.2202    0.1466 C   0  0  0  0  0  0  0  0  0  0  0  0
   -5.1891   -0.8376   -0.5841 C   0  0  0  0  0  0  0  0  0  0  0  0
   -5.4918   -1.9725   -1.5299 C   0  0  0  0  0  0  0  0  0  0  0  0
   -6.7668   -1.9441   -2.0110 F   0  0  0  0  0  0  0  0  0  0  0  0
   -4.6842   -1.9847   -2.6270 F   0  0  0  0  0  0  0  0  0  0  0  0
   -5.3431   -3.1914   -0.9417 F   0  0  0  0  0  0  0  0  0  0  0  0
   -3.8633   -0.4070   -0.3950 C   0  0  0  0  0  0  0  0  0  0  0  0
   -1.2177    0.4252   -0.0407 O   0  0  0  0  0  0  0  0  0  0  0  0
    5.9031   -1.2669   -2.0703 H   0  0  0  0  0  0  0  0  0  0  0  0
    8.5248   -1.7239   -1.4318 H   0  0  0  0  0  0  0  0  0  0  0  0
    8.7272   -0.9362    1.2100 H   0  0  0  0  0  0  0  0  0  0  0  0
    1.0456    0.0965   -1.3978 H   0  0  0  0  0  0  0  0  0  0  0  0
    0.5880    2.6141    1.5838 H   0  0  0  0  0  0  0  0  0  0  0  0
   -2.0510    2.7423    2.1185 H   0  0  0  0  0  0  0  0  0  0  0  0
   -4.4004    2.0439    1.9051 H   0  0  0  0  0  0  0  0  0  0  0  0
   -6.7172    1.2912    1.5963 H   0  0  0  0  0  0  0  0  0  0  0  0
   -7.2460   -0.5429    0.0259 H   0  0  0  0  0  0  0  0  0  0  0  0
   -3.0664   -0.8959   -0.9561 H   0  0  0  0  0  0  0  0  0  0  0  0
  1  2  2  0
  2  3  1  0
  3  4  1  0
  4  5  1  0
  5  6  2  0
  6  7  1  0
  7  8  2  0
  8  9  1  0
  4 10  2  0
 10 11  1  0
 11 12  2  3
 12 13  1  0
 13 14  2  0
 14 15  1  0
 15 16  2  0
 16 17  1  0
 17 18  2  0
 18 19  1  0
 19 20  2  0
 20 21  1  0
 21 22  1  0
 22 23  1  0
 22 24  1  0
 22 25  1  0
 21 26  2  0
 16 27  1  0
 11  2  1  0
 27 13  1  0
  9  5  1  0
 26 17  1  0
  6 28  1  0
  7 29  1  0
  8 30  1  0
 12 31  1  0
 14 32  1  0
 15 33  1  0
 18 34  1  0
 19 35  1  0
 20 36  1  0
 26 37  1  0
M  END
$$$$
