
     RDKit          3D

 57 60  0  0  0  0  0  0  0  0999 V2000
    7.0762   -2.7911    2.4194 C   0  0  0  0  0  0  0  0  0  0  0  0
    6.8207   -1.8112    1.4206 O   0  0  0  0  0  0  0  0  0  0  0  0
    5.5179   -1.6361    1.0448 C   0  0  0  0  0  0  0  0  0  0  0  0
    4.4390   -2.4088    1.4560 C   0  0  0  0  0  0  0  0  0  0  0  0
    3.1550   -2.1061    0.9961 C   0  0  0  0  0  0  0  0  0  0  0  0
    2.9264   -1.0315    0.1169 C   0  0  0  0  0  0  0  0  0  0  0  0
    1.4969   -0.8054   -0.2875 C   0  0  0  0  0  0  0  0  0  0  0  0
    0.6426   -1.6305    0.0226 O   0  0  0  0  0  0  0  0  0  0  0  0
    1.2123    0.3489   -0.9786 N   0  0  0  0  0  0  0  0  0  0  0  0
   -0.1141    0.7879   -1.3646 C   0  0  0  0  0  0  0  0  0  0  0  0
   -0.8498   -0.1975   -2.3019 C   0  0  0  0  0  0  0  0  0  0  0  0
   -2.3763    0.0912   -2.4343 C   0  0  0  0  0  0  0  0  0  0  0  0
   -3.0102   -0.9915   -3.3301 C   0  0  0  0  0  0  0  0  0  0  0  0
   -2.6156    1.4592   -3.1052 C   0  0  0  0  0  0  0  0  0  0  0  0
   -3.0617    0.0450   -1.0312 C   0  0  0  0  0  0  0  0  0  0  0  0
   -2.2601    0.7782   -0.0063 C   0  0  0  0  0  0  0  0  0  0  0  0
   -0.9288    1.1205   -0.1629 C   0  0  0  0  0  0  0  0  0  0  0  0
   -0.6216    1.8743    0.9732 C   0  0  0  0  0  0  0  0  0  0  0  0
   -1.6631    2.0101    1.7902 N   0  0  0  0  0  0  0  0  0  0  0  0
   -2.6560    1.2473    1.2406 N   0  0  0  0  0  0  0  0  0  0  0  0
   -3.8724    1.0691    1.9725 C   0  0  0  0  0  0  0  0  0  0  0  0
   -4.8432    0.1281    1.6095 C   0  0  0  0  0  0  0  0  0  0  0  0
   -6.0122   -0.0126    2.3665 C   0  0  0  0  0  0  0  0  0  0  0  0
   -6.2217    0.7778    3.4950 C   0  0  0  0  0  0  0  0  0  0  0  0
   -5.2623    1.7111    3.8725 C   0  0  0  0  0  0  0  0  0  0  0  0
   -4.0924    1.8519    3.1212 C   0  0  0  0  0  0  0  0  0  0  0  0
    4.0220   -0.2584   -0.3157 C   0  0  0  0  0  0  0  0  0  0  0  0
    3.7773    0.7818   -1.1782 O   0  0  0  0  0  0  0  0  0  0  0  0
    4.8999    1.4238   -1.7764 C   0  0  0  0  0  0  0  0  0  0  0  0
    5.3047   -0.5721    0.1606 C   0  0  0  0  0  0  0  0  0  0  0  0
    6.5276   -2.5716    3.3433 H   0  0  0  0  0  0  0  0  0  0  0  0
    6.8466   -3.7965    2.0503 H   0  0  0  0  0  0  0  0  0  0  0  0
    8.1436   -2.7583    2.6526 H   0  0  0  0  0  0  0  0  0  0  0  0
    4.5532   -3.2522    2.1304 H   0  0  0  0  0  0  0  0  0  0  0  0
    2.3194   -2.7183    1.3355 H   0  0  0  0  0  0  0  0  0  0  0  0
    1.9888    0.9674   -1.1821 H   0  0  0  0  0  0  0  0  0  0  0  0
    0.0443    1.7224   -1.9196 H   0  0  0  0  0  0  0  0  0  0  0  0
   -0.7332   -1.2272   -1.9434 H   0  0  0  0  0  0  0  0  0  0  0  0
   -0.3691   -0.1771   -3.2876 H   0  0  0  0  0  0  0  0  0  0  0  0
   -2.8628   -1.9909   -2.9081 H   0  0  0  0  0  0  0  0  0  0  0  0
   -4.0891   -0.8331   -3.4397 H   0  0  0  0  0  0  0  0  0  0  0  0
   -2.5675   -0.9845   -4.3318 H   0  0  0  0  0  0  0  0  0  0  0  0
   -3.6851    1.6293   -3.2704 H   0  0  0  0  0  0  0  0  0  0  0  0
   -2.1195    1.5103   -4.0802 H   0  0  0  0  0  0  0  0  0  0  0  0
   -2.2439    2.2936   -2.5028 H   0  0  0  0  0  0  0  0  0  0  0  0
   -4.0689    0.4684   -1.1137 H   0  0  0  0  0  0  0  0  0  0  0  0
   -3.1502   -1.0011   -0.7124 H   0  0  0  0  0  0  0  0  0  0  0  0
    0.3131    2.3525    1.2331 H   0  0  0  0  0  0  0  0  0  0  0  0
   -4.7193   -0.5445    0.7707 H   0  0  0  0  0  0  0  0  0  0  0  0
   -6.7547   -0.7538    2.0794 H   0  0  0  0  0  0  0  0  0  0  0  0
   -7.1280    0.6602    4.0821 H   0  0  0  0  0  0  0  0  0  0  0  0
   -5.4138    2.3239    4.7557 H   0  0  0  0  0  0  0  0  0  0  0  0
   -3.3595    2.5902    3.4418 H   0  0  0  0  0  0  0  0  0  0  0  0
    4.5186    2.1429   -2.5081 H   0  0  0  0  0  0  0  0  0  0  0  0
    5.4742    1.9832   -1.0309 H   0  0  0  0  0  0  0  0  0  0  0  0
    5.5297    0.7057   -2.3138 H   0  0  0  0  0  0  0  0  0  0  0  0
    6.1764    0.0055   -0.1312 H   0  0  0  0  0  0  0  0  0  0  0  0
  1  2  1  0
  2  3  1  0
  3  4  2  0
  4  5  1  0
  5  6  2  0
  6  7  1  0
  7  8  2  0
  7  9  1  0
  9 10  1  0
 10 11  1  0
 11 12  1  0
 12 13  1  0
 12 14  1  0
 12 15  1  0
 15 16  1  0
 16 17  2  0
 17 18  1  0
 18 19  2  0
 19 20  1  0
 20 21  1  0
 21 22  2  0
 22 23  1  0
 23 24  2  0
 24 25  1  0
 25 26  2  0
  6 27  1  0
 27 28  1  0
 28 29  1  0
 27 30  2  0
 30  3  1  0
 17 10  1  0
 26 21  1  0
 20 16  1  0
  1 31  1  0
  1 32  1  0
  1 33  1  0
  4 34  1  0
  5 35  1  0
  9 36  1  0
 10 37  1  0
 11 38  1  0
 11 39  1  0
 13 40  1  0
 13 41  1  0
 13 42  1  0
 14 43  1  0
 14 44  1  0
 14 45  1  0
 15 46  1  0
 15 47  1  0
 18 48  1  0
 22 49  1  0
 23 50  1  0
 24 51  1  0
 25 52  1  0
 26 53  1  0
 29 54  1  0
 29 55  1  0
 29 56  1  0
 30 57  1  0
M  END
$$$$
