
     RDKit          3D

 69 73  0  0  0  0  0  0  0  0999 V2000
   -1.2479    4.1673    3.7651 C   0  0  0  0  0  0  0  0  0  0  0  0
   -1.2552    2.8073    3.1333 C   0  0  0  0  0  0  0  0  0  0  0  0
   -1.2341    2.6618    1.7411 C   0  0  0  0  0  0  0  0  0  0  0  0
   -1.2362    1.3904    1.1591 C   0  0  0  0  0  0  0  0  0  0  0  0
   -1.2506    0.2343    1.9539 C   0  0  0  0  0  0  0  0  0  0  0  0
   -1.2605   -1.1700    1.3740 C   0  0  0  0  0  0  0  0  0  0  0  0
   -1.8255   -1.2735    0.0358 N   0  0  0  0  0  0  0  0  0  0  0  0
   -3.2235   -1.3408   -0.0388 C   0  0  0  0  0  0  0  0  0  0  0  0
   -3.9523   -1.4464    0.9517 O   0  0  0  0  0  0  0  0  0  0  0  0
   -3.8497   -1.1553   -1.4292 C   0  0  0  0  0  0  0  0  0  0  0  0
   -4.1025    0.3417   -1.6957 C   0  0  0  0  0  0  0  0  0  0  0  0
   -5.4690    0.6331   -2.3502 C   0  0  0  0  0  0  0  0  0  0  0  0
   -5.6782    2.1462   -2.4630 C   0  0  0  0  0  0  0  0  0  0  0  0
   -5.6174   -0.0091   -3.7296 C   0  0  0  0  0  0  0  0  0  0  0  0
   -3.0283   -1.7585   -2.4696 N   0  0  0  0  0  0  0  0  0  0  0  0
   -1.6700   -1.4633   -2.3980 C   0  0  0  0  0  0  0  0  0  0  0  0
   -1.0567   -1.4359   -3.5902 N   0  0  0  0  0  0  0  0  0  0  0  0
    0.2577   -1.2293   -3.5645 C   0  0  0  0  0  0  0  0  0  0  0  0
    0.9992   -1.0554   -2.4691 N   0  0  0  0  0  0  0  0  0  0  0  0
    0.3642   -1.0684   -1.2734 C   0  0  0  0  0  0  0  0  0  0  0  0
    1.1911   -0.9261   -0.1384 N   0  0  0  0  0  0  0  0  0  0  0  0
    2.0166    0.3102   -0.2099 C   0  0  0  0  0  0  0  0  0  0  0  0
    3.1919    0.2657    0.7934 C   0  0  0  0  0  0  0  0  0  0  0  0
    4.0850   -0.8791    0.5198 N   0  0  0  0  0  0  0  0  0  0  0  0
    5.4234   -0.8454    0.8697 C   0  0  0  0  0  0  0  0  0  0  0  0
    6.3880   -1.6202    0.2028 C   0  0  0  0  0  0  0  0  0  0  0  0
    7.7420   -1.5907    0.5618 C   0  0  0  0  0  0  0  0  0  0  0  0
    8.1666   -0.7868    1.6120 C   0  0  0  0  0  0  0  0  0  0  0  0
    7.2379   -0.0119    2.2972 C   0  0  0  0  0  0  0  0  0  0  0  0
    5.8872   -0.0424    1.9251 C   0  0  0  0  0  0  0  0  0  0  0  0
    3.5077   -1.9759   -0.2784 C   0  0  0  0  0  0  0  0  0  0  0  0
    2.0082   -2.1607    0.0484 C   0  0  0  0  0  0  0  0  0  0  0  0
   -1.0245   -1.2653   -1.1683 C   0  0  0  0  0  0  0  0  0  0  0  0
   -1.2418    0.3903    3.3520 C   0  0  0  0  0  0  0  0  0  0  0  0
   -1.2441    1.6604    3.9345 C   0  0  0  0  0  0  0  0  0  0  0  0
   -1.9498    4.2083    4.6047 H   0  0  0  0  0  0  0  0  0  0  0  0
   -0.2430    4.4053    4.1281 H   0  0  0  0  0  0  0  0  0  0  0  0
   -1.5511    4.9386    3.0482 H   0  0  0  0  0  0  0  0  0  0  0  0
   -1.2253    3.5387    1.0961 H   0  0  0  0  0  0  0  0  0  0  0  0
   -1.2249    1.3225    0.0734 H   0  0  0  0  0  0  0  0  0  0  0  0
   -0.2845   -1.6425    1.4507 H   0  0  0  0  0  0  0  0  0  0  0  0
   -1.8907   -1.7814    2.0336 H   0  0  0  0  0  0  0  0  0  0  0  0
   -4.7992   -1.7036   -1.4027 H   0  0  0  0  0  0  0  0  0  0  0  0
   -3.3057    0.7746   -2.3156 H   0  0  0  0  0  0  0  0  0  0  0  0
   -4.0699    0.8905   -0.7438 H   0  0  0  0  0  0  0  0  0  0  0  0
   -6.2593    0.2357   -1.7005 H   0  0  0  0  0  0  0  0  0  0  0  0
   -6.6580    2.3720   -2.8997 H   0  0  0  0  0  0  0  0  0  0  0  0
   -5.6390    2.6204   -1.4754 H   0  0  0  0  0  0  0  0  0  0  0  0
   -4.9112    2.6054   -3.0959 H   0  0  0  0  0  0  0  0  0  0  0  0
   -4.8271    0.3195   -4.4126 H   0  0  0  0  0  0  0  0  0  0  0  0
   -6.5816    0.2582   -4.1740 H   0  0  0  0  0  0  0  0  0  0  0  0
   -5.5865   -1.1029   -3.6671 H   0  0  0  0  0  0  0  0  0  0  0  0
   -3.3441   -1.6771   -3.4306 H   0  0  0  0  0  0  0  0  0  0  0  0
    0.7727   -1.2034   -4.5172 H   0  0  0  0  0  0  0  0  0  0  0  0
    1.3874    1.1779    0.0138 H   0  0  0  0  0  0  0  0  0  0  0  0
    2.4375    0.4662   -1.2127 H   0  0  0  0  0  0  0  0  0  0  0  0
    3.7400    1.2130    0.7020 H   0  0  0  0  0  0  0  0  0  0  0  0
    2.8062    0.1855    1.8185 H   0  0  0  0  0  0  0  0  0  0  0  0
    6.1058   -2.2503   -0.6361 H   0  0  0  0  0  0  0  0  0  0  0  0
    8.4594   -2.1977    0.0152 H   0  0  0  0  0  0  0  0  0  0  0  0
    9.2159   -0.7653    1.8954 H   0  0  0  0  0  0  0  0  0  0  0  0
    7.5549    0.6097    3.1293 H   0  0  0  0  0  0  0  0  0  0  0  0
    5.1912    0.5598    2.5044 H   0  0  0  0  0  0  0  0  0  0  0  0
    3.6431   -1.7619   -1.3452 H   0  0  0  0  0  0  0  0  0  0  0  0
    4.0050   -2.9267   -0.0536 H   0  0  0  0  0  0  0  0  0  0  0  0
    1.6061   -3.0133   -0.5175 H   0  0  0  0  0  0  0  0  0  0  0  0
    1.9259   -2.4374    1.1081 H   0  0  0  0  0  0  0  0  0  0  0  0
   -1.2469   -0.4846    4.0017 H   0  0  0  0  0  0  0  0  0  0  0  0
   -1.2515    1.7480    5.0205 H   0  0  0  0  0  0  0  0  0  0  0  0
  1  2  1  0
  2  3  2  0
  3  4  1  0
  4  5  2  0
  5  6  1  0
  6  7  1  0
  7  8  1  0
  8  9  2  0
  8 10  1  0
 10 11  1  0
 11 12  1  0
 12 13  1  0
 12 14  1  0
 10 15  1  0
 15 16  1  0
 16 17  2  0
 17 18  1  0
 18 19  2  0
 19 20  1  0
 20 21  1  0
 21 22  1  0
 22 23  1  0
 23 24  1  0
 24 25  1  0
 25 26  2  0
 26 27  1  0
 27 28  2  0
 28 29  1  0
 29 30  2  0
 24 31  1  0
 31 32  1  0
 20 33  2  0
  5 34  1  0
 34 35  2  0
 35  2  1  0
 33  7  1  0
 33 16  1  0
 32 21  1  0
 30 25  1  0
  1 36  1  0
  1 37  1  0
  1 38  1  0
  3 39  1  0
  4 40  1  0
  6 41  1  0
  6 42  1  0
 10 43  1  0
 11 44  1  0
 11 45  1  0
 12 46  1  0
 13 47  1  0
 13 48  1  0
 13 49  1  0
 14 50  1  0
 14 51  1  0
 14 52  1  0
 15 53  1  0
 18 54  1  0
 22 55  1  0
 22 56  1  0
 23 57  1  0
 23 58  1  0
 26 59  1  0
 27 60  1  0
 28 61  1  0
 29 62  1  0
 30 63  1  0
 31 64  1  0
 31 65  1  0
 32 66  1  0
 32 67  1  0
 34 68  1  0
 35 69  1  0
M  END
$$$$
