
     RDKit          3D

 43 45  0  0  0  0  0  0  0  0999 V2000
    4.9891   -1.0439   -1.2182 C   0  0  0  0  0  0  0  0  0  0  0  0
    3.9592   -0.2960   -0.3776 C   0  0  0  0  0  0  0  0  0  0  0  0
    4.6411    0.7153    0.5410 C   0  0  0  0  0  0  0  0  0  0  0  0
    3.0353   -1.5217    0.6280 S   0  0  0  0  0  0  0  0  0  0  0  0
    1.3804   -0.8669    0.4958 C   0  0  0  0  0  0  0  0  0  0  0  0
    0.3269   -1.7459    0.3669 C   0  0  0  0  0  0  0  0  0  0  0  0
   -0.9374   -1.2024    0.2635 C   0  0  0  0  0  0  0  0  0  0  0  0
   -2.0477   -2.0619    0.1188 N   0  0  0  0  0  0  0  0  0  0  0  0
   -3.3449   -1.3739    0.3148 C   0  0  0  0  0  0  0  0  0  0  0  0
   -4.4901   -2.3926    0.2042 C   0  0  0  0  0  0  0  0  0  0  0  0
   -4.4672   -3.0734   -1.0642 O   0  0  0  0  0  0  0  0  0  0  0  0
   -3.2233   -3.7722   -1.2258 C   0  0  0  0  0  0  0  0  0  0  0  0
   -2.0219   -2.8129   -1.1603 C   0  0  0  0  0  0  0  0  0  0  0  0
   -1.1201    0.1256    0.3290 N   0  0  0  0  0  0  0  0  0  0  0  0
   -0.0370    0.9145    0.4771 C   0  0  0  0  0  0  0  0  0  0  0  0
   -0.2546    2.3735    0.5562 C   0  0  0  0  0  0  0  0  0  0  0  0
   -1.5429    2.9311    0.4339 C   0  0  0  0  0  0  0  0  0  0  0  0
   -1.7547    4.3094    0.5220 C   0  0  0  0  0  0  0  0  0  0  0  0
   -0.6771    5.1695    0.7299 C   0  0  0  0  0  0  0  0  0  0  0  0
    0.6087    4.6505    0.8492 C   0  0  0  0  0  0  0  0  0  0  0  0
    0.8150    3.2697    0.7634 C   0  0  0  0  0  0  0  0  0  0  0  0
    1.2244    0.4636    0.5533 N   0  0  0  0  0  0  0  0  0  0  0  0
    4.5060   -1.7786   -1.8725 H   0  0  0  0  0  0  0  0  0  0  0  0
    5.7198   -1.5734   -0.5976 H   0  0  0  0  0  0  0  0  0  0  0  0
    5.5415   -0.3499   -1.8616 H   0  0  0  0  0  0  0  0  0  0  0  0
    3.2800    0.2213   -1.0615 H   0  0  0  0  0  0  0  0  0  0  0  0
    5.3642    0.2273    1.2088 H   0  0  0  0  0  0  0  0  0  0  0  0
    3.9164    1.2573    1.1585 H   0  0  0  0  0  0  0  0  0  0  0  0
    5.1869    1.4620   -0.0476 H   0  0  0  0  0  0  0  0  0  0  0  0
    0.4811   -2.8141    0.3627 H   0  0  0  0  0  0  0  0  0  0  0  0
   -3.3874   -0.9059    1.3060 H   0  0  0  0  0  0  0  0  0  0  0  0
   -3.4838   -0.6004   -0.4524 H   0  0  0  0  0  0  0  0  0  0  0  0
   -5.4529   -1.8792    0.2883 H   0  0  0  0  0  0  0  0  0  0  0  0
   -4.4367   -3.1366    1.0079 H   0  0  0  0  0  0  0  0  0  0  0  0
   -3.1479   -4.5486   -0.4538 H   0  0  0  0  0  0  0  0  0  0  0  0
   -3.2485   -4.2722   -2.2004 H   0  0  0  0  0  0  0  0  0  0  0  0
   -1.1056   -3.4039   -1.2630 H   0  0  0  0  0  0  0  0  0  0  0  0
   -2.0759   -2.1069   -2.0016 H   0  0  0  0  0  0  0  0  0  0  0  0
   -2.4027    2.2855    0.2683 H   0  0  0  0  0  0  0  0  0  0  0  0
   -2.7616    4.7085    0.4281 H   0  0  0  0  0  0  0  0  0  0  0  0
   -0.8403    6.2397    0.8037 H   0  0  0  0  0  0  0  0  0  0  0  0
    1.4552    5.3173    1.0120 H   0  0  0  0  0  0  0  0  0  0  0  0
    1.8310    2.8918    0.8670 H   0  0  0  0  0  0  0  0  0  0  0  0
  1  2  1  0
  2  3  1  0
  2  4  1  0
  4  5  1  0
  5  6  2  0
  6  7  1  0
  7  8  1  0
  8  9  1  0
  9 10  1  0
 10 11  1  0
 11 12  1  0
 12 13  1  0
  7 14  2  0
 14 15  1  0
 15 16  1  0
 16 17  2  0
 17 18  1  0
 18 19  2  0
 19 20  1  0
 20 21  2  0
 15 22  2  0
 22  5  1  0
 13  8  1  0
 21 16  1  0
  1 23  1  0
  1 24  1  0
  1 25  1  0
  2 26  1  0
  3 27  1  0
  3 28  1  0
  3 29  1  0
  6 30  1  0
  9 31  1  0
  9 32  1  0
 10 33  1  0
 10 34  1  0
 12 35  1  0
 12 36  1  0
 13 37  1  0
 13 38  1  0
 17 39  1  0
 18 40  1  0
 19 41  1  0
 20 42  1  0
 21 43  1  0
M  END
$$$$
