
     RDKit          3D

 57 60  0  0  0  0  0  0  0  0999 V2000
    6.5848    1.4022   -2.1268 C   0  0  0  0  0  0  0  0  0  0  0  0
    5.3313    0.8203   -1.7909 O   0  0  0  0  0  0  0  0  0  0  0  0
    5.1924    0.3204   -0.5210 C   0  0  0  0  0  0  0  0  0  0  0  0
    6.2574    0.0949    0.3573 C   0  0  0  0  0  0  0  0  0  0  0  0
    6.0205   -0.3992    1.6397 C   0  0  0  0  0  0  0  0  0  0  0  0
    4.7167   -0.6594    2.0600 C   0  0  0  0  0  0  0  0  0  0  0  0
    3.6299   -0.4395    1.1995 C   0  0  0  0  0  0  0  0  0  0  0  0
    2.2676   -0.7114    1.7524 C   0  0  0  0  0  0  0  0  0  0  0  0
    2.1385   -1.3830    2.7718 O   0  0  0  0  0  0  0  0  0  0  0  0
    1.1979   -0.1628    1.0871 N   0  0  0  0  0  0  0  0  0  0  0  0
   -0.1676   -0.4101    1.4926 C   0  0  0  0  0  0  0  0  0  0  0  0
   -0.6290   -1.8202    1.0557 C   0  0  0  0  0  0  0  0  0  0  0  0
   -2.1742   -2.0084    1.0956 C   0  0  0  0  0  0  0  0  0  0  0  0
   -2.7001   -1.8651    2.5390 C   0  0  0  0  0  0  0  0  0  0  0  0
   -2.5136   -3.4294    0.6064 C   0  0  0  0  0  0  0  0  0  0  0  0
   -2.8762   -0.9741    0.1582 C   0  0  0  0  0  0  0  0  0  0  0  0
   -2.2586    0.3814    0.2733 C   0  0  0  0  0  0  0  0  0  0  0  0
   -1.0415    0.6332    0.8840 C   0  0  0  0  0  0  0  0  0  0  0  0
   -0.9118    2.0249    0.8565 C   0  0  0  0  0  0  0  0  0  0  0  0
   -1.9387    2.6176    0.2538 N   0  0  0  0  0  0  0  0  0  0  0  0
   -2.7580    1.6047   -0.1585 N   0  0  0  0  0  0  0  0  0  0  0  0
   -3.9243    1.9352   -0.9177 C   0  0  0  0  0  0  0  0  0  0  0  0
   -4.2838    3.2920   -1.0494 C   0  0  0  0  0  0  0  0  0  0  0  0
   -5.4165    3.6733   -1.7766 C   0  0  0  0  0  0  0  0  0  0  0  0
   -6.2015    2.7048   -2.3904 C   0  0  0  0  0  0  0  0  0  0  0  0
   -5.8402    1.3697   -2.2768 C   0  0  0  0  0  0  0  0  0  0  0  0
   -6.5886    0.4352   -2.8791 F   0  0  0  0  0  0  0  0  0  0  0  0
   -4.7139    0.9744   -1.5545 C   0  0  0  0  0  0  0  0  0  0  0  0
    3.8795    0.0137   -0.1077 C   0  0  0  0  0  0  0  0  0  0  0  0
    2.8287    0.2192   -0.9760 O   0  0  0  0  0  0  0  0  0  0  0  0
    2.7505   -0.8513   -1.9226 C   0  0  0  0  0  0  0  0  0  0  0  0
    6.8690    2.1807   -1.4105 H   0  0  0  0  0  0  0  0  0  0  0  0
    7.3614    0.6360   -2.2066 H   0  0  0  0  0  0  0  0  0  0  0  0
    6.4815    1.8746   -3.1083 H   0  0  0  0  0  0  0  0  0  0  0  0
    7.2863    0.2904    0.0710 H   0  0  0  0  0  0  0  0  0  0  0  0
    6.8516   -0.5728    2.3187 H   0  0  0  0  0  0  0  0  0  0  0  0
    4.5482   -1.0277    3.0711 H   0  0  0  0  0  0  0  0  0  0  0  0
    1.3714    0.3061    0.2030 H   0  0  0  0  0  0  0  0  0  0  0  0
   -0.2221   -0.3324    2.5850 H   0  0  0  0  0  0  0  0  0  0  0  0
   -0.2795   -2.0126    0.0303 H   0  0  0  0  0  0  0  0  0  0  0  0
   -0.1381   -2.5750    1.6838 H   0  0  0  0  0  0  0  0  0  0  0  0
   -2.5676   -0.8521    2.9294 H   0  0  0  0  0  0  0  0  0  0  0  0
   -3.7712   -2.0933    2.5923 H   0  0  0  0  0  0  0  0  0  0  0  0
   -2.1818   -2.5543    3.2152 H   0  0  0  0  0  0  0  0  0  0  0  0
   -2.1528   -3.5961   -0.4147 H   0  0  0  0  0  0  0  0  0  0  0  0
   -3.5960   -3.6003    0.6083 H   0  0  0  0  0  0  0  0  0  0  0  0
   -2.0526   -4.1893    1.2490 H   0  0  0  0  0  0  0  0  0  0  0  0
   -2.7731   -1.3069   -0.8827 H   0  0  0  0  0  0  0  0  0  0  0  0
   -3.9429   -0.9368    0.4074 H   0  0  0  0  0  0  0  0  0  0  0  0
   -0.1142    2.6369    1.2602 H   0  0  0  0  0  0  0  0  0  0  0  0
   -3.6914    4.0755   -0.5741 H   0  0  0  0  0  0  0  0  0  0  0  0
   -5.6791    4.7240   -1.8550 H   0  0  0  0  0  0  0  0  0  0  0  0
   -7.0853    2.9795   -2.9570 H   0  0  0  0  0  0  0  0  0  0  0  0
   -4.4933   -0.0832   -1.5513 H   0  0  0  0  0  0  0  0  0  0  0  0
    1.8097   -0.7406   -2.4686 H   0  0  0  0  0  0  0  0  0  0  0  0
    3.5669   -0.8062   -2.6492 H   0  0  0  0  0  0  0  0  0  0  0  0
    2.7376   -1.8275   -1.4232 H   0  0  0  0  0  0  0  0  0  0  0  0
  1  2  1  0
  2  3  1  0
  3  4  2  0
  4  5  1  0
  5  6  2  0
  6  7  1  0
  7  8  1  0
  8  9  2  0
  8 10  1  0
 10 11  1  0
 11 12  1  0
 12 13  1  0
 13 14  1  0
 13 15  1  0
 13 16  1  0
 16 17  1  0
 17 18  2  0
 18 19  1  0
 19 20  2  0
 20 21  1  0
 21 22  1  0
 22 23  2  0
 23 24  1  0
 24 25  2  0
 25 26  1  0
 26 27  1  0
 26 28  2  0
  7 29  2  0
 29 30  1  0
 30 31  1  0
 29  3  1  0
 18 11  1  0
 28 22  1  0
 21 17  1  0
  1 32  1  0
  1 33  1  0
  1 34  1  0
  4 35  1  0
  5 36  1  0
  6 37  1  0
 10 38  1  0
 11 39  1  0
 12 40  1  0
 12 41  1  0
 14 42  1  0
 14 43  1  0
 14 44  1  0
 15 45  1  0
 15 46  1  0
 15 47  1  0
 16 48  1  0
 16 49  1  0
 19 50  1  0
 23 51  1  0
 24 52  1  0
 25 53  1  0
 28 54  1  0
 31 55  1  0
 31 56  1  0
 31 57  1  0
M  END
$$$$
