
     RDKit          3D

 49 52  0  0  0  0  0  0  0  0999 V2000
   -5.7609    3.0739    0.4282 C   0  0  0  0  0  0  0  0  0  0  0  0
   -4.4799    2.5217    1.0222 C   0  0  0  0  0  0  0  0  0  0  0  0
   -3.6409    2.0843   -0.0543 O   0  0  0  0  0  0  0  0  0  0  0  0
   -2.4597    1.5293    0.3494 C   0  0  0  0  0  0  0  0  0  0  0  0
   -2.1008    1.4272    1.5135 O   0  0  0  0  0  0  0  0  0  0  0  0
   -1.6600    1.1139   -0.8674 C   0  0  0  0  0  0  0  0  0  0  0  0
   -0.5854    0.0858   -0.5748 C   0  0  0  0  0  0  0  0  0  0  0  0
    0.7121    0.6234   -0.4224 C   0  0  0  0  0  0  0  0  0  0  0  0
    1.7884   -0.2068   -0.1791 C   0  0  0  0  0  0  0  0  0  0  0  0
    3.1733    0.2789   -0.0130 C   0  0  0  0  0  0  0  0  0  0  0  0
    3.6644    1.4013   -0.7037 C   0  0  0  0  0  0  0  0  0  0  0  0
    4.9823    1.8522   -0.5325 C   0  0  0  0  0  0  0  0  0  0  0  0
    5.8451    1.1864    0.3346 C   0  0  0  0  0  0  0  0  0  0  0  0
    7.1455    1.5194    0.5925 O   0  0  0  0  0  0  0  0  0  0  0  0
    7.6674    2.6514   -0.0912 C   0  0  0  0  0  0  0  0  0  0  0  0
    5.3797    0.0668    1.0218 C   0  0  0  0  0  0  0  0  0  0  0  0
    4.0657   -0.3818    0.8483 C   0  0  0  0  0  0  0  0  0  0  0  0
    1.6135   -1.5357   -0.0767 N   0  0  0  0  0  0  0  0  0  0  0  0
    0.3885   -2.0635   -0.2010 C   0  0  0  0  0  0  0  0  0  0  0  0
    0.3660   -3.4345   -0.0764 C   0  0  0  0  0  0  0  0  0  0  0  0
   -0.8070   -4.1663   -0.1744 C   0  0  0  0  0  0  0  0  0  0  0  0
   -2.0183   -3.5255   -0.3924 C   0  0  0  0  0  0  0  0  0  0  0  0
   -3.1732   -4.3241   -0.4701 C   0  0  0  0  0  0  0  0  0  0  0  0
   -4.4248   -3.7613   -0.6721 C   0  0  0  0  0  0  0  0  0  0  0  0
   -4.5275   -2.3897   -0.7930 C   0  0  0  0  0  0  0  0  0  0  0  0
   -3.3774   -1.5910   -0.7182 C   0  0  0  0  0  0  0  0  0  0  0  0
   -2.0663   -2.1089   -0.5242 C   0  0  0  0  0  0  0  0  0  0  0  0
   -0.8077   -1.3346   -0.4428 C   0  0  0  0  0  0  0  0  0  0  0  0
   -6.4369    3.4225    1.2139 H   0  0  0  0  0  0  0  0  0  0  0  0
   -5.5443    3.9076   -0.2479 H   0  0  0  0  0  0  0  0  0  0  0  0
   -6.2722    2.3079   -0.1644 H   0  0  0  0  0  0  0  0  0  0  0  0
   -3.9685    3.3045    1.5933 H   0  0  0  0  0  0  0  0  0  0  0  0
   -4.7120    1.6756    1.6787 H   0  0  0  0  0  0  0  0  0  0  0  0
   -1.2039    2.0319   -1.2622 H   0  0  0  0  0  0  0  0  0  0  0  0
   -2.3008    0.7586   -1.6785 H   0  0  0  0  0  0  0  0  0  0  0  0
    0.8660    1.6975   -0.4757 H   0  0  0  0  0  0  0  0  0  0  0  0
    3.0303    1.9360   -1.4072 H   0  0  0  0  0  0  0  0  0  0  0  0
    5.2994    2.7221   -1.0976 H   0  0  0  0  0  0  0  0  0  0  0  0
    7.6638    2.4944   -1.1749 H   0  0  0  0  0  0  0  0  0  0  0  0
    7.1220    3.5618    0.1787 H   0  0  0  0  0  0  0  0  0  0  0  0
    8.7076    2.7814    0.2227 H   0  0  0  0  0  0  0  0  0  0  0  0
    6.0425   -0.4667    1.6986 H   0  0  0  0  0  0  0  0  0  0  0  0
    3.7349   -1.2612    1.3994 H   0  0  0  0  0  0  0  0  0  0  0  0
    1.3008   -3.9629    0.1035 H   0  0  0  0  0  0  0  0  0  0  0  0
   -0.7523   -5.2477   -0.0683 H   0  0  0  0  0  0  0  0  0  0  0  0
   -3.1049   -5.4060   -0.3680 H   0  0  0  0  0  0  0  0  0  0  0  0
   -5.3089   -4.3896   -0.7272 H   0  0  0  0  0  0  0  0  0  0  0  0
   -5.4998   -1.9267   -0.9422 H   0  0  0  0  0  0  0  0  0  0  0  0
   -3.5652   -0.5333   -0.8090 H   0  0  0  0  0  0  0  0  0  0  0  0
  1  2  1  0
  2  3  1  0
  3  4  1  0
  4  5  2  0
  4  6  1  0
  6  7  1  0
  7  8  2  0
  8  9  1  0
  9 10  1  0
 10 11  2  0
 11 12  1  0
 12 13  2  0
 13 14  1  0
 14 15  1  0
 13 16  1  0
 16 17  2  0
  9 18  2  0
 18 19  1  0
 19 20  2  0
 20 21  1  0
 21 22  2  0
 22 23  1  0
 23 24  2  0
 24 25  1  0
 25 26  2  0
 26 27  1  0
 27 28  2  0
 28  7  1  0
 17 10  1  0
 28 19  1  0
 27 22  1  0
  1 29  1  0
  1 30  1  0
  1 31  1  0
  2 32  1  0
  2 33  1  0
  6 34  1  0
  6 35  1  0
  8 36  1  0
 11 37  1  0
 12 38  1  0
 15 39  1  0
 15 40  1  0
 15 41  1  0
 16 42  1  0
 17 43  1  0
 20 44  1  0
 21 45  1  0
 23 46  1  0
 24 47  1  0
 25 48  1  0
 26 49  1  0
M  END
$$$$
