
     RDKit          3D

 45 47  0  0  0  0  0  0  0  0999 V2000
   -0.2942    2.8347    0.0902 C   0  0  0  0  0  0  0  0  0  0  0  0
    0.4959    1.5673    0.0691 C   0  0  0  0  0  0  0  0  0  0  0  0
   -0.0054    0.3289    0.2017 C   0  0  0  0  0  0  0  0  0  0  0  0
   -1.2920   -0.1621    0.3864 N   0  0  0  0  0  0  0  0  0  0  0  0
   -2.1045   -0.5640   -0.7879 C   0  0  0  0  0  0  0  0  0  0  0  0
   -2.3646    0.6083   -1.7351 C   0  0  0  0  0  0  0  0  0  0  0  0
   -3.4275   -1.1290   -0.2978 C   0  0  0  0  0  0  0  0  0  0  0  0
   -3.9869   -2.2391   -0.9542 C   0  0  0  0  0  0  0  0  0  0  0  0
   -5.2279   -2.7504   -0.5647 C   0  0  0  0  0  0  0  0  0  0  0  0
   -5.9324   -2.1564    0.4808 C   0  0  0  0  0  0  0  0  0  0  0  0
   -5.3950   -1.0545    1.1422 C   0  0  0  0  0  0  0  0  0  0  0  0
   -4.1542   -0.5543    0.7569 C   0  0  0  0  0  0  0  0  0  0  0  0
   -3.6736    0.5143    1.4639 O   0  0  0  0  0  0  0  0  0  0  0  0
    1.1952   -0.5816    0.1829 C   0  0  0  0  0  0  0  0  0  0  0  0
    1.0899   -1.7899    0.3395 O   0  0  0  0  0  0  0  0  0  0  0  0
    2.3177    0.2373    0.0233 N   0  0  0  0  0  0  0  0  0  0  0  0
    3.6385   -0.0964    0.4217 C   0  0  0  0  0  0  0  0  0  0  0  0
    4.5455    0.8898    0.8397 C   0  0  0  0  0  0  0  0  0  0  0  0
    5.8472    0.5572    1.2283 C   0  0  0  0  0  0  0  0  0  0  0  0
    6.2629   -0.7704    1.2072 C   0  0  0  0  0  0  0  0  0  0  0  0
    5.3760   -1.7638    0.8032 C   0  0  0  0  0  0  0  0  0  0  0  0
    4.0739   -1.4288    0.4164 C   0  0  0  0  0  0  0  0  0  0  0  0
    1.8904    1.5949   -0.0878 N   0  0  0  0  0  0  0  0  0  0  0  0
    2.4298    2.2898   -1.2695 C   0  0  0  0  0  0  0  0  0  0  0  0
    0.1569    3.5521    0.7835 H   0  0  0  0  0  0  0  0  0  0  0  0
   -1.3252    2.6687    0.4181 H   0  0  0  0  0  0  0  0  0  0  0  0
   -0.3255    3.2872   -0.9057 H   0  0  0  0  0  0  0  0  0  0  0  0
   -1.1620   -1.0395    0.9150 H   0  0  0  0  0  0  0  0  0  0  0  0
   -1.5570   -1.3477   -1.3281 H   0  0  0  0  0  0  0  0  0  0  0  0
   -1.4327    0.9791   -2.1738 H   0  0  0  0  0  0  0  0  0  0  0  0
   -2.8485    1.4469   -1.2220 H   0  0  0  0  0  0  0  0  0  0  0  0
   -3.0162    0.3068   -2.5631 H   0  0  0  0  0  0  0  0  0  0  0  0
   -3.4614   -2.7129   -1.7809 H   0  0  0  0  0  0  0  0  0  0  0  0
   -5.6475   -3.6104   -1.0807 H   0  0  0  0  0  0  0  0  0  0  0  0
   -6.8985   -2.5516    0.7826 H   0  0  0  0  0  0  0  0  0  0  0  0
   -5.9356   -0.5891    1.9613 H   0  0  0  0  0  0  0  0  0  0  0  0
   -2.7171    0.5874    1.2486 H   0  0  0  0  0  0  0  0  0  0  0  0
    4.2419    1.9310    0.9038 H   0  0  0  0  0  0  0  0  0  0  0  0
    6.5302    1.3360    1.5574 H   0  0  0  0  0  0  0  0  0  0  0  0
    7.2728   -1.0320    1.5119 H   0  0  0  0  0  0  0  0  0  0  0  0
    5.6923   -2.8038    0.7883 H   0  0  0  0  0  0  0  0  0  0  0  0
    3.4159   -2.2325    0.0958 H   0  0  0  0  0  0  0  0  0  0  0  0
    3.5180    2.2048   -1.3361 H   0  0  0  0  0  0  0  0  0  0  0  0
    2.0014    1.8798   -2.1915 H   0  0  0  0  0  0  0  0  0  0  0  0
    2.1930    3.3579   -1.2194 H   0  0  0  0  0  0  0  0  0  0  0  0
  1  2  1  0
  2  3  2  0
  3  4  1  0
  4  5  1  0
  5  6  1  0
  5  7  1  0
  7  8  2  0
  8  9  1  0
  9 10  2  0
 10 11  1  0
 11 12  2  0
 12 13  1  0
  3 14  1  0
 14 15  2  0
 14 16  1  0
 16 17  1  0
 17 18  2  0
 18 19  1  0
 19 20  2  0
 20 21  1  0
 21 22  2  0
 16 23  1  0
 23 24  1  0
 23  2  1  0
 12  7  1  0
 22 17  1  0
  1 25  1  0
  1 26  1  0
  1 27  1  0
  4 28  1  0
  5 29  1  0
  6 30  1  0
  6 31  1  0
  6 32  1  0
  8 33  1  0
  9 34  1  0
 10 35  1  0
 11 36  1  0
 13 37  1  0
 18 38  1  0
 19 39  1  0
 20 40  1  0
 21 41  1  0
 22 42  1  0
 24 43  1  0
 24 44  1  0
 24 45  1  0
M  END
$$$$
