
     RDKit          3D

 39 41  0  0  0  0  0  0  0  0999 V2000
   -2.1080   -1.1775   -2.1711 C   0  0  0  0  0  0  0  0  0  0  0  0
   -2.7560   -0.3235   -1.1116 C   0  0  0  0  0  0  0  0  0  0  0  0
   -4.0510    0.1601   -1.3616 C   0  0  0  0  0  0  0  0  0  0  0  0
   -4.6933    0.9761   -0.4394 C   0  0  0  0  0  0  0  0  0  0  0  0
   -4.0613    1.2909    0.7581 C   0  0  0  0  0  0  0  0  0  0  0  0
   -2.7754    0.8006    1.0565 C   0  0  0  0  0  0  0  0  0  0  0  0
   -2.2469    1.1077    2.4323 C   0  0  0  0  0  0  0  0  0  0  0  0
   -2.0924    0.0295    0.0913 C   0  0  0  0  0  0  0  0  0  0  0  0
   -0.7804   -0.4736    0.2798 N   0  0  0  0  0  0  0  0  0  0  0  0
    0.2908    0.2219    0.8224 C   0  0  0  0  0  0  0  0  0  0  0  0
    0.2748    1.3837    1.2109 O   0  0  0  0  0  0  0  0  0  0  0  0
    1.5575   -0.6321    0.8706 C   0  0  0  0  0  0  0  0  0  0  0  0
    2.7832    0.0598    1.5063 C   0  0  0  0  0  0  0  0  0  0  0  0
    3.8662   -0.0847    0.4215 C   0  0  0  0  0  0  0  0  0  0  0  0
    3.5324    0.8629   -0.7424 C   0  0  0  0  0  0  0  0  0  0  0  0
    2.3316    0.1783   -1.4101 C   0  0  0  0  0  0  0  0  0  0  0  0
    2.0962   -1.0550   -0.5184 C   0  0  0  0  0  0  0  0  0  0  0  0
    3.5346   -1.4506   -0.1761 C   0  0  0  0  0  0  0  0  0  0  0  0
   -1.9231   -2.1850   -1.7849 H   0  0  0  0  0  0  0  0  0  0  0  0
   -2.7449   -1.2776   -3.0566 H   0  0  0  0  0  0  0  0  0  0  0  0
   -1.1648   -0.7286   -2.4994 H   0  0  0  0  0  0  0  0  0  0  0  0
   -4.5643   -0.0875   -2.2882 H   0  0  0  0  0  0  0  0  0  0  0  0
   -5.6902    1.3563   -0.6456 H   0  0  0  0  0  0  0  0  0  0  0  0
   -4.5886    1.9098    1.4820 H   0  0  0  0  0  0  0  0  0  0  0  0
   -3.0677    1.1371    3.1589 H   0  0  0  0  0  0  0  0  0  0  0  0
   -1.7533    2.0834    2.4459 H   0  0  0  0  0  0  0  0  0  0  0  0
   -1.5646    0.3315    2.7904 H   0  0  0  0  0  0  0  0  0  0  0  0
   -0.5210   -1.2488   -0.3123 H   0  0  0  0  0  0  0  0  0  0  0  0
    1.3208   -1.5261    1.4642 H   0  0  0  0  0  0  0  0  0  0  0  0
    2.6233    1.1046    1.7878 H   0  0  0  0  0  0  0  0  0  0  0  0
    3.0839   -0.4853    2.4093 H   0  0  0  0  0  0  0  0  0  0  0  0
    4.8829    0.0300    0.8021 H   0  0  0  0  0  0  0  0  0  0  0  0
    3.2926    1.8757   -0.4035 H   0  0  0  0  0  0  0  0  0  0  0  0
    4.3689    0.9269   -1.4472 H   0  0  0  0  0  0  0  0  0  0  0  0
    2.5975   -0.1305   -2.4280 H   0  0  0  0  0  0  0  0  0  0  0  0
    1.4641    0.8402   -1.4809 H   0  0  0  0  0  0  0  0  0  0  0  0
    1.5104   -1.8376   -1.0054 H   0  0  0  0  0  0  0  0  0  0  0  0
    3.5977   -2.2681    0.5498 H   0  0  0  0  0  0  0  0  0  0  0  0
    4.1377   -1.6948   -1.0571 H   0  0  0  0  0  0  0  0  0  0  0  0
  1  2  1  0
  2  3  2  0
  3  4  1  0
  4  5  2  0
  5  6  1  0
  6  7  1  0
  6  8  2  0
  8  9  1  0
  9 10  1  0
 10 11  2  0
 10 12  1  0
 12 13  1  0
 13 14  1  0
 14 15  1  0
 15 16  1  0
 16 17  1  0
 17 18  1  0
  8  2  1  0
 17 12  1  0
 18 14  1  0
  1 19  1  0
  1 20  1  0
  1 21  1  0
  3 22  1  0
  4 23  1  0
  5 24  1  0
  7 25  1  0
  7 26  1  0
  7 27  1  0
  9 28  1  0
 12 29  1  0
 13 30  1  0
 13 31  1  0
 14 32  1  0
 15 33  1  0
 15 34  1  0
 16 35  1  0
 16 36  1  0
 17 37  1  0
 18 38  1  0
 18 39  1  0
M  END
$$$$
