
     RDKit          3D

 58 60  0  0  0  0  0  0  0  0999 V2000
    1.5366   -0.9793   -4.2404 C   0  0  0  0  0  0  0  0  0  0  0  0
    1.8620   -1.1382   -2.7647 C   0  0  0  0  0  0  0  0  0  0  0  0
    2.3401    0.1786   -2.1528 C   0  0  0  0  0  0  0  0  0  0  0  0
    2.6662    0.0289   -0.6949 C   0  0  0  0  0  0  0  0  0  0  0  0
    3.9588   -0.3210   -0.3207 N   0  0  0  0  0  0  0  0  0  0  0  0
    3.9459   -0.4558    1.0759 N   0  0  0  0  0  0  0  0  0  0  0  0
    5.1398   -0.7190    1.7855 C   0  0  0  0  0  0  0  0  0  0  0  0
    6.3580   -0.8843    1.1007 C   0  0  0  0  0  0  0  0  0  0  0  0
    7.5498   -1.1453    1.7902 C   0  0  0  0  0  0  0  0  0  0  0  0
    7.5329   -1.2385    3.1864 C   0  0  0  0  0  0  0  0  0  0  0  0
    8.7786   -1.5049    3.9152 N   0  0  0  0  0  4  0  0  0  0  0  0
    8.7616   -1.3914    5.1480 O   0  0  0  0  0  0  0  0  0  0  0  0
    9.7735   -1.8310    3.2521 O   0  0  0  0  0  1  0  0  0  0  0  0
    6.3359   -1.0742    3.8898 C   0  0  0  0  0  0  0  0  0  0  0  0
    5.1501   -0.8184    3.1862 C   0  0  0  0  0  0  0  0  0  0  0  0
    2.6700   -0.1338    1.5609 C   0  0  0  0  0  0  0  0  0  0  0  0
    2.2753   -0.0960    2.7123 O   0  0  0  0  0  0  0  0  0  0  0  0
    1.8454    0.1859    0.3614 C   0  0  0  0  0  0  0  0  0  0  0  0
    0.4239    0.5471    0.3100 C   0  0  0  0  0  0  0  0  0  0  0  0
   -0.3896    0.4598    1.3027 N   0  0  0  0  0  0  0  0  0  0  0  0
   -1.7677    0.8815    1.0135 C   0  0  0  0  0  0  0  0  0  0  0  0
   -2.5656   -0.2915    0.4374 C   0  0  0  0  0  0  0  0  0  0  0  0
   -3.9993    0.0669    0.1307 C   0  0  0  0  0  0  0  0  0  0  0  0
   -5.0459   -0.5166    0.8509 C   0  0  0  0  0  0  0  0  0  0  0  0
   -6.3765   -0.2113    0.5487 C   0  0  0  0  0  0  0  0  0  0  0  0
   -6.6820    0.6879   -0.4773 C   0  0  0  0  0  0  0  0  0  0  0  0
   -7.9541    1.0475   -0.8434 O   0  0  0  0  0  0  0  0  0  0  0  0
   -9.0297    0.3213   -0.2666 C   0  0  0  0  0  0  0  0  0  0  0  0
   -5.6352    1.3025   -1.1880 C   0  0  0  0  0  0  0  0  0  0  0  0
   -5.9924    2.1708   -2.1904 O   0  0  0  0  0  0  0  0  0  0  0  0
   -5.0636    3.2109   -2.4728 C   0  0  0  0  0  0  0  0  0  0  0  0
   -4.3057    0.9755   -0.8940 C   0  0  0  0  0  0  0  0  0  0  0  0
    0.7669   -0.2175   -4.3948 H   0  0  0  0  0  0  0  0  0  0  0  0
    1.1650   -1.9241   -4.6490 H   0  0  0  0  0  0  0  0  0  0  0  0
    2.4269   -0.6903   -4.8096 H   0  0  0  0  0  0  0  0  0  0  0  0
    2.6328   -1.9094   -2.6501 H   0  0  0  0  0  0  0  0  0  0  0  0
    0.9684   -1.4959   -2.2393 H   0  0  0  0  0  0  0  0  0  0  0  0
    3.2305    0.5350   -2.6865 H   0  0  0  0  0  0  0  0  0  0  0  0
    1.5805    0.9559   -2.2969 H   0  0  0  0  0  0  0  0  0  0  0  0
    4.2736   -1.1677   -0.7999 H   0  0  0  0  0  0  0  0  0  0  0  0
    6.4088   -0.7956    0.0178 H   0  0  0  0  0  0  0  0  0  0  0  0
    8.4734   -1.2625    1.2254 H   0  0  0  0  0  0  0  0  0  0  0  0
    6.2998   -1.1381    4.9771 H   0  0  0  0  0  0  0  0  0  0  0  0
    4.2387   -0.6966    3.7681 H   0  0  0  0  0  0  0  0  0  0  0  0
    0.0625    0.8885   -0.6755 H   0  0  0  0  0  0  0  0  0  0  0  0
   -2.2245    1.2228    1.9498 H   0  0  0  0  0  0  0  0  0  0  0  0
   -1.7819    1.7454    0.3366 H   0  0  0  0  0  0  0  0  0  0  0  0
   -2.0955   -0.6536   -0.4868 H   0  0  0  0  0  0  0  0  0  0  0  0
   -2.5281   -1.1368    1.1369 H   0  0  0  0  0  0  0  0  0  0  0  0
   -4.8361   -1.2213    1.6522 H   0  0  0  0  0  0  0  0  0  0  0  0
   -7.1516   -0.6922    1.1362 H   0  0  0  0  0  0  0  0  0  0  0  0
   -9.9566    0.6673   -0.7356 H   0  0  0  0  0  0  0  0  0  0  0  0
   -9.1051    0.5212    0.8075 H   0  0  0  0  0  0  0  0  0  0  0  0
   -8.9397   -0.7519   -0.4670 H   0  0  0  0  0  0  0  0  0  0  0  0
   -4.2326    2.8340   -3.0765 H   0  0  0  0  0  0  0  0  0  0  0  0
   -5.5816    3.9719   -3.0643 H   0  0  0  0  0  0  0  0  0  0  0  0
   -4.6990    3.6906   -1.5580 H   0  0  0  0  0  0  0  0  0  0  0  0
   -3.4925    1.4062   -1.4705 H   0  0  0  0  0  0  0  0  0  0  0  0
  1  2  1  0
  2  3  1  0
  3  4  1  0
  4  5  1  0
  5  6  1  0
  6  7  1  0
  7  8  2  0
  8  9  1  0
  9 10  2  0
 10 11  1  0
 11 12  2  0
 11 13  1  0
 10 14  1  0
 14 15  2  0
  6 16  1  0
 16 17  2  0
 16 18  1  0
 18 19  1  0
 19 20  2  3
 20 21  1  0
 21 22  1  0
 22 23  1  0
 23 24  2  0
 24 25  1  0
 25 26  2  0
 26 27  1  0
 27 28  1  0
 26 29  1  0
 29 30  1  0
 30 31  1  0
 29 32  2  0
 18  4  2  0
 32 23  1  0
 15  7  1  0
  1 33  1  0
  1 34  1  0
  1 35  1  0
  2 36  1  0
  2 37  1  0
  3 38  1  0
  3 39  1  0
  5 40  1  0
  8 41  1  0
  9 42  1  0
 14 43  1  0
 15 44  1  0
 19 45  1  0
 21 46  1  0
 21 47  1  0
 22 48  1  0
 22 49  1  0
 24 50  1  0
 25 51  1  0
 28 52  1  0
 28 53  1  0
 28 54  1  0
 31 55  1  0
 31 56  1  0
 31 57  1  0
 32 58  1  0
M  CHG  2  11   1  13  -1
M  END
$$$$
