
     RDKit          3D

 62 65  0  0  0  0  0  0  0  0999 V2000
    3.5049    0.6980   -1.9754 O   0  0  0  0  0  0  0  0  0  0  0  0
    3.8347   -0.1908   -1.2000 C   0  0  0  0  0  0  0  0  0  0  0  0
    5.2628   -0.6913   -1.1269 C   0  0  0  0  0  0  0  0  0  0  0  0
    6.1324   -0.0376   -2.1888 C   0  0  0  0  0  0  0  0  0  0  0  0
    7.8012   -0.6449   -2.1592 S   0  0  0  0  0  6  0  0  0  0  0  0
    7.7217   -2.0954   -2.2117 O   0  0  0  0  0  0  0  0  0  0  0  0
    8.5840    0.0758   -3.1433 O   0  0  0  0  0  0  0  0  0  0  0  0
    8.4574   -0.2253   -0.5758 C   0  0  0  0  0  0  0  0  0  0  0  0
    8.9979   -1.2181    0.2479 C   0  0  0  0  0  0  0  0  0  0  0  0
    9.5080   -0.8700    1.5000 C   0  0  0  0  0  0  0  0  0  0  0  0
    9.4798    0.4607    1.9224 C   0  0  0  0  0  0  0  0  0  0  0  0
    8.9428    1.4461    1.0924 C   0  0  0  0  0  0  0  0  0  0  0  0
    8.4352    1.0979   -0.1561 C   0  0  0  0  0  0  0  0  0  0  0  0
    7.9157    2.0607   -0.9274 F   0  0  0  0  0  0  0  0  0  0  0  0
    3.0197   -0.8480   -0.2938 N   0  0  0  0  0  0  0  0  0  0  0  0
    1.6386   -0.6544   -0.0855 C   0  0  0  0  0  0  0  0  0  0  0  0
    0.8600    0.2579   -0.7873 C   0  0  0  0  0  0  0  0  0  0  0  0
   -0.5137    0.3753   -0.5199 C   0  0  0  0  0  0  0  0  0  0  0  0
   -1.1607   -0.4058    0.4494 C   0  0  0  0  0  0  0  0  0  0  0  0
   -2.5161   -0.2751    0.6997 N   0  0  0  0  0  0  0  0  0  0  0  0
   -3.4357    0.1784   -0.3606 C   0  0  0  0  0  0  0  0  0  0  0  0
   -4.8320   -0.4720   -0.2142 C   0  0  0  0  0  0  0  0  0  0  0  0
   -5.4941   -0.2906    1.0970 N   0  0  0  0  0  0  0  0  0  0  0  0
   -6.4379    0.8381    1.1053 C   0  0  0  0  0  0  0  0  0  0  0  0
   -7.6740    0.5994    0.2626 C   0  0  0  0  0  0  0  0  0  0  0  0
   -8.0830    1.5482   -0.6863 C   0  0  0  0  0  0  0  0  0  0  0  0
   -9.2321    1.3366   -1.4507 C   0  0  0  0  0  0  0  0  0  0  0  0
   -9.9879    0.1795   -1.2709 C   0  0  0  0  0  0  0  0  0  0  0  0
   -9.5975   -0.7667   -0.3254 C   0  0  0  0  0  0  0  0  0  0  0  0
   -8.4494   -0.5565    0.4397 C   0  0  0  0  0  0  0  0  0  0  0  0
   -4.4952   -0.1258    2.1773 C   0  0  0  0  0  0  0  0  0  0  0  0
   -3.1438   -0.8274    1.9101 C   0  0  0  0  0  0  0  0  0  0  0  0
   -0.3521   -1.3079    1.1531 C   0  0  0  0  0  0  0  0  0  0  0  0
    1.0205   -1.4370    0.8907 C   0  0  0  0  0  0  0  0  0  0  0  0
    5.6473   -0.4749   -0.1242 H   0  0  0  0  0  0  0  0  0  0  0  0
    5.2550   -1.7795   -1.2587 H   0  0  0  0  0  0  0  0  0  0  0  0
    5.7450   -0.2626   -3.1897 H   0  0  0  0  0  0  0  0  0  0  0  0
    6.1525    1.0510   -2.0897 H   0  0  0  0  0  0  0  0  0  0  0  0
    9.0353   -2.2562   -0.0772 H   0  0  0  0  0  0  0  0  0  0  0  0
    9.9360   -1.6357    2.1442 H   0  0  0  0  0  0  0  0  0  0  0  0
    9.8831    0.7306    2.8960 H   0  0  0  0  0  0  0  0  0  0  0  0
    8.9216    2.4847    1.4103 H   0  0  0  0  0  0  0  0  0  0  0  0
    3.4516   -1.5614    0.2803 H   0  0  0  0  0  0  0  0  0  0  0  0
    1.2794    0.9024   -1.5530 H   0  0  0  0  0  0  0  0  0  0  0  0
   -1.0679    1.1218   -1.0833 H   0  0  0  0  0  0  0  0  0  0  0  0
   -3.5263    1.2702   -0.3171 H   0  0  0  0  0  0  0  0  0  0  0  0
   -3.0554   -0.0925   -1.3533 H   0  0  0  0  0  0  0  0  0  0  0  0
   -5.4683   -0.1475   -1.0449 H   0  0  0  0  0  0  0  0  0  0  0  0
   -4.7109   -1.5545   -0.3537 H   0  0  0  0  0  0  0  0  0  0  0  0
   -6.7951    1.0150    2.1288 H   0  0  0  0  0  0  0  0  0  0  0  0
   -5.9318    1.7590    0.7872 H   0  0  0  0  0  0  0  0  0  0  0  0
   -7.5076    2.4583   -0.8381 H   0  0  0  0  0  0  0  0  0  0  0  0
   -9.5388    2.0755   -2.1867 H   0  0  0  0  0  0  0  0  0  0  0  0
  -10.8818    0.0157   -1.8663 H   0  0  0  0  0  0  0  0  0  0  0  0
  -10.1857   -1.6693   -0.1827 H   0  0  0  0  0  0  0  0  0  0  0  0
   -8.1504   -1.3022    1.1736 H   0  0  0  0  0  0  0  0  0  0  0  0
   -4.2830    0.9404    2.3402 H   0  0  0  0  0  0  0  0  0  0  0  0
   -4.9230   -0.5152    3.1083 H   0  0  0  0  0  0  0  0  0  0  0  0
   -3.2930   -1.9083    1.7989 H   0  0  0  0  0  0  0  0  0  0  0  0
   -2.5055   -0.6578    2.7857 H   0  0  0  0  0  0  0  0  0  0  0  0
   -0.7801   -1.9569    1.9116 H   0  0  0  0  0  0  0  0  0  0  0  0
    1.5859   -2.1658    1.4648 H   0  0  0  0  0  0  0  0  0  0  0  0
  1  2  2  0
  2  3  1  0
  3  4  1  0
  4  5  1  0
  5  6  2  0
  5  7  2  0
  5  8  1  0
  8  9  2  0
  9 10  1  0
 10 11  2  0
 11 12  1  0
 12 13  2  0
 13 14  1  0
  2 15  1  0
 15 16  1  0
 16 17  2  0
 17 18  1  0
 18 19  2  0
 19 20  1  0
 20 21  1  0
 21 22  1  0
 22 23  1  0
 23 24  1  0
 24 25  1  0
 25 26  2  0
 26 27  1  0
 27 28  2  0
 28 29  1  0
 29 30  2  0
 23 31  1  0
 31 32  1  0
 19 33  1  0
 33 34  2  0
 13  8  1  0
 34 16  1  0
 32 20  1  0
 30 25  1  0
  3 35  1  0
  3 36  1  0
  4 37  1  0
  4 38  1  0
  9 39  1  0
 10 40  1  0
 11 41  1  0
 12 42  1  0
 15 43  1  0
 17 44  1  0
 18 45  1  0
 21 46  1  0
 21 47  1  0
 22 48  1  0
 22 49  1  0
 24 50  1  0
 24 51  1  0
 26 52  1  0
 27 53  1  0
 28 54  1  0
 29 55  1  0
 30 56  1  0
 31 57  1  0
 31 58  1  0
 32 59  1  0
 32 60  1  0
 33 61  1  0
 34 62  1  0
M  END
$$$$
