
     RDKit          3D

 33 35  0  0  0  0  0  0  0  0999 V2000
    4.4990    0.0282    2.3048 C   0  0  0  0  0  0  0  0  0  0  0  0
    4.6441    0.2274    0.8306 C   0  0  0  0  0  0  0  0  0  0  0  0
    5.9094    0.3756    0.1702 C   0  0  0  0  0  0  0  0  0  0  0  0
    5.7829    0.5397   -1.1894 C   0  0  0  0  0  0  0  0  0  0  0  0
    4.1516    0.5172   -1.6831 S   0  0  0  0  0  0  0  0  0  0  0  0
    3.5948    0.2899   -0.0788 C   0  0  0  0  0  0  0  0  0  0  0  0
    2.1746    0.1856    0.2003 C   0  0  0  0  0  0  0  0  0  0  0  0
    1.2774    0.2342   -0.7361 N   0  0  0  0  0  0  0  0  0  0  0  0
   -0.0463    0.0853   -0.3949 N   0  0  0  0  0  0  0  0  0  0  0  0
   -0.5426   -0.7345    0.6119 C   0  0  0  0  0  0  0  0  0  0  0  0
    0.1515   -1.3488    1.4179 O   0  0  0  0  0  0  0  0  0  0  0  0
   -1.9803   -0.8370    0.6403 C   0  0  0  0  0  0  0  0  0  0  0  0
   -2.6240   -1.6986    1.5122 N   0  0  0  0  0  0  0  0  0  0  0  0
   -3.9783   -1.6838    1.4224 N   0  0  0  0  0  0  0  0  0  0  0  0
   -4.1802   -0.7833    0.4748 C   0  0  0  0  0  0  0  0  0  0  0  0
   -3.0076   -0.2300   -0.0392 C   0  0  0  0  0  0  0  0  0  0  0  0
   -3.2955    0.7736   -1.0809 C   0  0  0  0  0  0  0  0  0  0  0  0
   -4.8361    1.0009   -0.9043 C   0  0  0  0  0  0  0  0  0  0  0  0
   -5.4044   -0.2412   -0.1408 C   0  0  0  0  0  0  0  0  0  0  0  0
    3.9808   -0.9131    2.5146 H   0  0  0  0  0  0  0  0  0  0  0  0
    5.4752   -0.0073    2.7991 H   0  0  0  0  0  0  0  0  0  0  0  0
    3.9268    0.8503    2.7467 H   0  0  0  0  0  0  0  0  0  0  0  0
    6.8696    0.3596    0.6727 H   0  0  0  0  0  0  0  0  0  0  0  0
    6.5714    0.6702   -1.9177 H   0  0  0  0  0  0  0  0  0  0  0  0
    1.9049    0.0977    1.2653 H   0  0  0  0  0  0  0  0  0  0  0  0
   -0.6777    0.3228   -1.1509 H   0  0  0  0  0  0  0  0  0  0  0  0
   -2.1830   -2.3176    2.1858 H   0  0  0  0  0  0  0  0  0  0  0  0
   -3.0829    0.3700   -2.0761 H   0  0  0  0  0  0  0  0  0  0  0  0
   -2.7437    1.7069   -0.9406 H   0  0  0  0  0  0  0  0  0  0  0  0
   -4.9932    1.8972   -0.2897 H   0  0  0  0  0  0  0  0  0  0  0  0
   -5.3420    1.1666   -1.8606 H   0  0  0  0  0  0  0  0  0  0  0  0
   -6.1601    0.0554    0.5913 H   0  0  0  0  0  0  0  0  0  0  0  0
   -5.8361   -0.9590   -0.8454 H   0  0  0  0  0  0  0  0  0  0  0  0
  1  2  1  0
  2  3  1  0
  3  4  2  0
  4  5  1  0
  5  6  1  0
  6  7  1  0
  7  8  2  3
  8  9  1  0
  9 10  1  0
 10 11  2  0
 10 12  1  0
 12 13  1  0
 13 14  1  0
 14 15  2  0
 15 16  1  0
 16 17  1  0
 17 18  1  0
 18 19  1  0
  6  2  2  0
 16 12  2  0
 19 15  1  0
  1 20  1  0
  1 21  1  0
  1 22  1  0
  3 23  1  0
  4 24  1  0
  7 25  1  0
  9 26  1  0
 13 27  1  0
 17 28  1  0
 17 29  1  0
 18 30  1  0
 18 31  1  0
 19 32  1  0
 19 33  1  0
M  END
$$$$
