
     RDKit          3D

 45 47  0  0  0  0  0  0  0  0999 V2000
    5.9115   -2.8987   -1.5288 C   0  0  0  0  0  0  0  0  0  0  0  0
    5.1853   -1.5938   -1.2864 C   0  0  0  0  0  0  0  0  0  0  0  0
    5.6604   -0.8054   -0.3747 N   0  0  0  0  0  0  0  0  0  0  0  0
    3.9618   -1.3014   -2.1387 C   0  0  0  0  0  0  0  0  0  0  0  0
    4.3672   -1.1013   -3.5323 C   0  0  0  0  0  0  0  0  0  0  0  0
    4.6314   -0.9483   -4.6515 N   0  0  0  0  0  0  0  0  0  0  0  0
    3.1078   -0.1236   -1.7198 C   0  0  0  0  0  0  0  0  0  0  0  0
    3.4580    0.6759   -0.8468 O   0  0  0  0  0  0  0  0  0  0  0  0
    1.7535    0.0257   -2.4210 C   0  0  0  0  0  0  0  0  0  0  0  0
    0.7018    0.3621   -1.5168 O   0  0  0  0  0  0  0  0  0  0  0  0
    0.4576   -0.6071   -0.5957 C   0  0  0  0  0  0  0  0  0  0  0  0
    1.0218   -1.6880   -0.5505 O   0  0  0  0  0  0  0  0  0  0  0  0
   -0.5770   -0.1379    0.3523 C   0  0  0  0  0  0  0  0  0  0  0  0
   -1.7189    0.4709   -0.1777 C   0  0  0  0  0  0  0  0  0  0  0  0
   -2.7155    0.8850    0.6890 C   0  0  0  0  0  0  0  0  0  0  0  0
   -3.9610    1.5377    0.2346 C   0  0  0  0  0  0  0  0  0  0  0  0
   -5.1685    1.3420    0.9333 C   0  0  0  0  0  0  0  0  0  0  0  0
   -6.3613    1.9434    0.5200 C   0  0  0  0  0  0  0  0  0  0  0  0
   -6.3731    2.7629   -0.6044 C   0  0  0  0  0  0  0  0  0  0  0  0
   -5.1899    2.9793   -1.3036 C   0  0  0  0  0  0  0  0  0  0  0  0
   -5.1949    4.1018   -2.8261 Br  0  0  0  0  0  0  0  0  0  0  0  0
   -3.9961    2.3791   -0.8927 C   0  0  0  0  0  0  0  0  0  0  0  0
   -2.6072    0.6945    2.0253 N   0  0  0  0  0  0  0  0  0  0  0  0
   -1.5079    0.1171    2.5382 C   0  0  0  0  0  0  0  0  0  0  0  0
   -1.4357   -0.0383    3.9161 C   0  0  0  0  0  0  0  0  0  0  0  0
   -0.3286   -0.6167    4.5394 C   0  0  0  0  0  0  0  0  0  0  0  0
    0.7400   -1.0518    3.7709 C   0  0  0  0  0  0  0  0  0  0  0  0
    0.6910   -0.9091    2.3852 C   0  0  0  0  0  0  0  0  0  0  0  0
   -0.4352   -0.3287    1.7447 C   0  0  0  0  0  0  0  0  0  0  0  0
    6.4138   -2.8651   -2.4990 H   0  0  0  0  0  0  0  0  0  0  0  0
    6.6588   -3.0730   -0.7494 H   0  0  0  0  0  0  0  0  0  0  0  0
    5.1942   -3.7237   -1.5215 H   0  0  0  0  0  0  0  0  0  0  0  0
    5.0859    0.0528   -0.2727 H   0  0  0  0  0  0  0  0  0  0  0  0
    3.3261   -2.1927   -2.0634 H   0  0  0  0  0  0  0  0  0  0  0  0
    1.8445    0.8342   -3.1535 H   0  0  0  0  0  0  0  0  0  0  0  0
    1.4877   -0.8865   -2.9672 H   0  0  0  0  0  0  0  0  0  0  0  0
   -1.8296    0.5916   -1.2502 H   0  0  0  0  0  0  0  0  0  0  0  0
   -5.1829    0.7068    1.8190 H   0  0  0  0  0  0  0  0  0  0  0  0
   -7.2767    1.7717    1.0808 H   0  0  0  0  0  0  0  0  0  0  0  0
   -7.3017    3.2301   -0.9208 H   0  0  0  0  0  0  0  0  0  0  0  0
   -3.0856    2.5903   -1.4483 H   0  0  0  0  0  0  0  0  0  0  0  0
   -2.2675    0.3072    4.5267 H   0  0  0  0  0  0  0  0  0  0  0  0
   -0.3053   -0.7193    5.6212 H   0  0  0  0  0  0  0  0  0  0  0  0
    1.6114   -1.4981    4.2439 H   0  0  0  0  0  0  0  0  0  0  0  0
    1.5487   -1.2530    1.8105 H   0  0  0  0  0  0  0  0  0  0  0  0
  1  2  1  0
  2  3  2  3
  2  4  1  0
  4  5  1  0
  5  6  3  0
  4  7  1  0
  7  8  2  0
  7  9  1  0
  9 10  1  0
 10 11  1  0
 11 12  2  0
 11 13  1  0
 13 14  2  0
 14 15  1  0
 15 16  1  0
 16 17  2  0
 17 18  1  0
 18 19  2  0
 19 20  1  0
 20 21  1  0
 20 22  2  0
 15 23  2  0
 23 24  1  0
 24 25  2  0
 25 26  1  0
 26 27  2  0
 27 28  1  0
 28 29  2  0
 29 13  1  0
 22 16  1  0
 29 24  1  0
  1 30  1  0
  1 31  1  0
  1 32  1  0
  3 33  1  0
  4 34  1  0
  9 35  1  0
  9 36  1  0
 14 37  1  0
 17 38  1  0
 18 39  1  0
 19 40  1  0
 22 41  1  0
 25 42  1  0
 26 43  1  0
 27 44  1  0
 28 45  1  0
M  END
$$$$
