
     RDKit          3D

 58 60  0  0  0  0  0  0  0  0999 V2000
   -3.1477    2.8912    1.5588 C   0  0  0  0  0  0  0  0  0  0  0  0
   -2.3429    2.8567    0.3865 O   0  0  0  0  0  0  0  0  0  0  0  0
   -2.3588    1.7186   -0.3774 C   0  0  0  0  0  0  0  0  0  0  0  0
   -3.1070    0.5698   -0.0711 C   0  0  0  0  0  0  0  0  0  0  0  0
   -3.0681   -0.5467   -0.9127 C   0  0  0  0  0  0  0  0  0  0  0  0
   -3.7563   -1.7196   -0.7133 O   0  0  0  0  0  0  0  0  0  0  0  0
   -4.6228   -1.7867    0.4149 C   0  0  0  0  0  0  0  0  0  0  0  0
   -2.2570   -0.5169   -2.0628 C   0  0  0  0  0  0  0  0  0  0  0  0
   -2.1544   -1.6955   -2.8739 N   0  0  0  0  0  0  0  0  0  0  0  0
   -0.7199   -2.5886   -2.7864 S   0  0  0  0  0  6  0  0  0  0  0  0
   -0.9899   -3.8764   -3.3867 O   0  0  0  0  0  0  0  0  0  0  0  0
    0.3839   -1.7703   -3.2320 O   0  0  0  0  0  0  0  0  0  0  0  0
   -0.5111   -2.8539   -1.0363 C   0  0  0  0  0  0  0  0  0  0  0  0
   -1.1441   -3.9323   -0.4149 C   0  0  0  0  0  0  0  0  0  0  0  0
   -0.9992   -4.1083    0.9627 C   0  0  0  0  0  0  0  0  0  0  0  0
   -0.2184   -3.2206    1.7165 C   0  0  0  0  0  0  0  0  0  0  0  0
   -0.1765   -3.4701    3.4230 Cl  0  0  0  0  0  0  0  0  0  0  0  0
    0.4398   -2.1596    1.0824 C   0  0  0  0  0  0  0  0  0  0  0  0
    1.3067   -1.2234    1.8306 C   0  0  0  0  0  0  0  0  0  0  0  0
    2.1220   -1.5491    2.6727 O   0  0  0  0  0  0  0  0  0  0  0  0
    1.0512    0.0330    1.3925 O   0  0  0  0  0  0  0  0  0  0  0  0
    1.8289    1.0857    1.9939 C   0  0  0  0  0  0  0  0  0  0  0  0
    1.0097    1.6855    3.1296 C   0  0  0  0  0  0  0  0  0  0  0  0
    2.1106    2.1296    0.8974 C   0  0  0  0  0  0  0  0  0  0  0  0
    1.5258    3.2128    0.8710 O   0  0  0  0  0  0  0  0  0  0  0  0
    3.0425    1.7917   -0.0645 N   0  0  0  0  0  0  0  0  0  0  0  0
    3.3272    2.6760   -1.1790 C   0  0  0  0  0  0  0  0  0  0  0  0
    4.6433    2.1559   -1.7393 C   0  0  0  0  0  0  0  0  0  0  0  0
    4.5454    0.6572   -1.4929 C   0  0  0  0  0  0  0  0  0  0  0  0
    3.8237    0.5650   -0.1530 C   0  0  0  0  0  0  0  0  0  0  0  0
    0.3018   -1.9843   -0.3030 C   0  0  0  0  0  0  0  0  0  0  0  0
   -1.5067    0.6141   -2.3742 C   0  0  0  0  0  0  0  0  0  0  0  0
   -1.5658    1.7306   -1.5391 C   0  0  0  0  0  0  0  0  0  0  0  0
   -0.6418    3.1229   -1.9896 Cl  0  0  0  0  0  0  0  0  0  0  0  0
   -4.2075    2.7431    1.3146 H   0  0  0  0  0  0  0  0  0  0  0  0
   -2.8014    2.1553    2.2910 H   0  0  0  0  0  0  0  0  0  0  0  0
   -3.0533    3.8862    2.0130 H   0  0  0  0  0  0  0  0  0  0  0  0
   -3.7142    0.5475    0.8256 H   0  0  0  0  0  0  0  0  0  0  0  0
   -5.1345   -2.7530    0.3910 H   0  0  0  0  0  0  0  0  0  0  0  0
   -4.0536   -1.7353    1.3502 H   0  0  0  0  0  0  0  0  0  0  0  0
   -5.3872   -1.0065    0.3820 H   0  0  0  0  0  0  0  0  0  0  0  0
   -2.9631   -2.3170   -2.8036 H   0  0  0  0  0  0  0  0  0  0  0  0
   -1.7576   -4.6249   -0.9870 H   0  0  0  0  0  0  0  0  0  0  0  0
   -1.5088   -4.9392    1.4486 H   0  0  0  0  0  0  0  0  0  0  0  0
    2.7878    0.7255    2.3801 H   0  0  0  0  0  0  0  0  0  0  0  0
    0.7649    0.9264    3.8829 H   0  0  0  0  0  0  0  0  0  0  0  0
    1.5507    2.5035    3.6159 H   0  0  0  0  0  0  0  0  0  0  0  0
    0.0542    2.0764    2.7627 H   0  0  0  0  0  0  0  0  0  0  0  0
    2.5197    2.5604   -1.9081 H   0  0  0  0  0  0  0  0  0  0  0  0
    3.3744    3.7207   -0.8595 H   0  0  0  0  0  0  0  0  0  0  0  0
    5.4824    2.5743   -1.1698 H   0  0  0  0  0  0  0  0  0  0  0  0
    4.7865    2.4064   -2.7949 H   0  0  0  0  0  0  0  0  0  0  0  0
    5.5204    0.1644   -1.4812 H   0  0  0  0  0  0  0  0  0  0  0  0
    3.9363    0.1931   -2.2781 H   0  0  0  0  0  0  0  0  0  0  0  0
    3.1756   -0.3133   -0.1019 H   0  0  0  0  0  0  0  0  0  0  0  0
    4.5287    0.5418    0.6879 H   0  0  0  0  0  0  0  0  0  0  0  0
    0.8127   -1.1638   -0.8075 H   0  0  0  0  0  0  0  0  0  0  0  0
   -0.8872    0.6336   -3.2664 H   0  0  0  0  0  0  0  0  0  0  0  0
  1  2  1  0
  2  3  1  0
  3  4  2  0
  4  5  1  0
  5  6  1  0
  6  7  1  0
  5  8  2  0
  8  9  1  0
  9 10  1  0
 10 11  2  0
 10 12  2  0
 10 13  1  0
 13 14  2  0
 14 15  1  0
 15 16  2  0
 16 17  1  0
 16 18  1  0
 18 19  1  0
 19 20  2  0
 19 21  1  0
 21 22  1  0
 22 23  1  0
 22 24  1  0
 24 25  2  0
 24 26  1  0
 26 27  1  0
 27 28  1  0
 28 29  1  0
 29 30  1  0
 18 31  2  0
  8 32  1  0
 32 33  2  0
 33 34  1  0
 33  3  1  0
 31 13  1  0
 30 26  1  0
  1 35  1  0
  1 36  1  0
  1 37  1  0
  4 38  1  0
  7 39  1  0
  7 40  1  0
  7 41  1  0
  9 42  1  0
 14 43  1  0
 15 44  1  0
 22 45  1  0
 23 46  1  0
 23 47  1  0
 23 48  1  0
 27 49  1  0
 27 50  1  0
 28 51  1  0
 28 52  1  0
 29 53  1  0
 29 54  1  0
 30 55  1  0
 30 56  1  0
 31 57  1  0
 32 58  1  0
M  END
$$$$
