
     RDKit          3D

 35 37  0  0  0  0  0  0  0  0999 V2000
    1.0441    0.6930   -2.8025 O   0  0  0  0  0  0  0  0  0  0  0  0
    1.8644    0.5171   -1.7734 C   0  0  0  0  0  0  0  0  0  0  0  0
    3.2154    0.5502   -1.9616 N   0  0  0  0  0  0  0  0  0  0  0  0
    3.8691    0.3458   -0.7689 C   0  0  0  0  0  0  0  0  0  0  0  0
    5.2398    0.2981   -0.4890 C   0  0  0  0  0  0  0  0  0  0  0  0
    5.6231    0.0717    0.8357 C   0  0  0  0  0  0  0  0  0  0  0  0
    4.6720   -0.0995    1.8383 C   0  0  0  0  0  0  0  0  0  0  0  0
    3.3045   -0.0491    1.5420 C   0  0  0  0  0  0  0  0  0  0  0  0
    2.8887    0.1778    0.2126 C   0  0  0  0  0  0  0  0  0  0  0  0
    1.6158    0.2874   -0.4334 C   0  0  0  0  0  0  0  0  0  0  0  0
    0.3026    0.1816    0.1640 C   0  0  0  0  0  0  0  0  0  0  0  0
   -0.7363    0.3211   -0.6004 N   0  0  0  0  0  0  0  0  0  0  0  0
   -1.9746    0.1869   -0.0193 N   0  0  0  0  0  0  0  0  0  0  0  0
   -2.2454   -0.8727    0.9607 C   0  0  0  0  0  0  0  0  0  0  0  0
   -3.5998   -1.5380    0.7346 C   0  0  0  0  0  0  0  0  0  0  0  0
   -4.7420   -0.5226    0.6944 C   0  0  0  0  0  0  0  0  0  0  0  0
   -4.3516    0.8010    0.0311 C   0  0  0  0  0  0  0  0  0  0  0  0
   -3.0979    0.6686   -0.8228 C   0  0  0  0  0  0  0  0  0  0  0  0
    0.1371    0.6332   -2.4242 H   0  0  0  0  0  0  0  0  0  0  0  0
    3.6578    0.7043   -2.8553 H   0  0  0  0  0  0  0  0  0  0  0  0
    5.9832    0.4317   -1.2683 H   0  0  0  0  0  0  0  0  0  0  0  0
    6.6809    0.0295    1.0857 H   0  0  0  0  0  0  0  0  0  0  0  0
    4.9935   -0.2736    2.8623 H   0  0  0  0  0  0  0  0  0  0  0  0
    2.5771   -0.1836    2.3369 H   0  0  0  0  0  0  0  0  0  0  0  0
    0.2398    0.0003    1.2497 H   0  0  0  0  0  0  0  0  0  0  0  0
   -2.2114   -0.4070    1.9517 H   0  0  0  0  0  0  0  0  0  0  0  0
   -1.4596   -1.6338    0.9074 H   0  0  0  0  0  0  0  0  0  0  0  0
   -3.7915   -2.2844    1.5135 H   0  0  0  0  0  0  0  0  0  0  0  0
   -3.5753   -2.0805   -0.2195 H   0  0  0  0  0  0  0  0  0  0  0  0
   -5.5922   -0.9677    0.1636 H   0  0  0  0  0  0  0  0  0  0  0  0
   -5.0924   -0.3177    1.7133 H   0  0  0  0  0  0  0  0  0  0  0  0
   -5.1860    1.1768   -0.5714 H   0  0  0  0  0  0  0  0  0  0  0  0
   -4.1709    1.5468    0.8160 H   0  0  0  0  0  0  0  0  0  0  0  0
   -2.8257    1.6417   -1.2466 H   0  0  0  0  0  0  0  0  0  0  0  0
   -3.2563   -0.0345   -1.6487 H   0  0  0  0  0  0  0  0  0  0  0  0
  1  2  1  0
  2  3  1  0
  3  4  1  0
  4  5  2  0
  5  6  1  0
  6  7  2  0
  7  8  1  0
  8  9  2  0
  9 10  1  0
 10 11  1  0
 11 12  2  3
 12 13  1  0
 13 14  1  0
 14 15  1  0
 15 16  1  0
 16 17  1  0
 17 18  1  0
 10  2  2  0
 18 13  1  0
  9  4  1  0
  1 19  1  0
  3 20  1  0
  5 21  1  0
  6 22  1  0
  7 23  1  0
  8 24  1  0
 11 25  1  0
 14 26  1  0
 14 27  1  0
 15 28  1  0
 15 29  1  0
 16 30  1  0
 16 31  1  0
 17 32  1  0
 17 33  1  0
 18 34  1  0
 18 35  1  0
M  END
$$$$
