
     RDKit          3D

 48 50  0  0  0  0  0  0  0  0999 V2000
   -2.8697    4.6221   -0.8644 C   0  0  0  0  0  0  0  0  0  0  0  0
   -3.2590    3.3324   -1.5619 C   0  0  0  0  0  0  0  0  0  0  0  0
   -2.6787    2.2088   -0.8833 O   0  0  0  0  0  0  0  0  0  0  0  0
   -1.4134    1.8692   -1.2584 C   0  0  0  0  0  0  0  0  0  0  0  0
   -0.7732    2.4656   -2.1185 O   0  0  0  0  0  0  0  0  0  0  0  0
   -0.8642    0.7286   -0.5089 C   0  0  0  0  0  0  0  0  0  0  0  0
    0.4819    0.3842   -0.6034 C   0  0  0  0  0  0  0  0  0  0  0  0
    1.4270    1.0101   -1.4090 N   0  0  0  0  0  0  0  0  0  0  0  0
    2.7738    0.8325   -1.6134 C   0  0  0  0  0  0  0  0  0  0  0  0
    3.4285    1.8003   -2.8164 S   0  0  0  0  0  0  0  0  0  0  0  0
    3.4248   -0.0498   -0.7987 N   0  0  0  0  0  0  0  0  0  0  0  0
    4.7240   -0.6041   -0.8063 C   0  0  0  0  0  0  0  0  0  0  0  0
    5.1283   -1.2608    0.3665 C   0  0  0  0  0  0  0  0  0  0  0  0
    6.3881   -1.8585    0.4621 C   0  0  0  0  0  0  0  0  0  0  0  0
    7.2582   -1.8189   -0.6219 C   0  0  0  0  0  0  0  0  0  0  0  0
    6.8617   -1.1901   -1.7986 C   0  0  0  0  0  0  0  0  0  0  0  0
    5.5992   -0.5915   -1.8918 C   0  0  0  0  0  0  0  0  0  0  0  0
    0.8788   -0.9306    0.3838 S   0  0  0  0  0  0  0  0  0  0  0  0
   -0.7073   -1.0888    0.9739 C   0  0  0  0  0  0  0  0  0  0  0  0
   -1.5705   -0.1718    0.3962 C   0  0  0  0  0  0  0  0  0  0  0  0
   -3.0465   -0.1207    0.7237 C   0  0  0  0  0  0  0  0  0  0  0  0
   -3.6340   -1.3976    1.3718 C   0  0  0  0  0  0  0  0  0  0  0  0
   -5.0339   -1.0791    1.9250 C   0  0  0  0  0  0  0  0  0  0  0  0
   -3.7628   -2.5434    0.3540 C   0  0  0  0  0  0  0  0  0  0  0  0
   -2.6034   -1.9291    2.8065 S   0  0  0  0  0  0  0  0  0  0  0  0
   -1.0090   -2.1690    1.9662 C   0  0  0  0  0  0  0  0  0  0  0  0
   -3.1578    4.5900    0.1915 H   0  0  0  0  0  0  0  0  0  0  0  0
   -1.7861    4.7737   -0.8941 H   0  0  0  0  0  0  0  0  0  0  0  0
   -3.3553    5.4805   -1.3370 H   0  0  0  0  0  0  0  0  0  0  0  0
   -4.3456    3.2045   -1.5180 H   0  0  0  0  0  0  0  0  0  0  0  0
   -2.9802    3.3472   -2.6217 H   0  0  0  0  0  0  0  0  0  0  0  0
    1.0424    1.7408   -2.0135 H   0  0  0  0  0  0  0  0  0  0  0  0
    2.8790   -0.2927    0.0179 H   0  0  0  0  0  0  0  0  0  0  0  0
    4.4712   -1.3052    1.2315 H   0  0  0  0  0  0  0  0  0  0  0  0
    6.6873   -2.3526    1.3825 H   0  0  0  0  0  0  0  0  0  0  0  0
    8.2389   -2.2819   -0.5544 H   0  0  0  0  0  0  0  0  0  0  0  0
    7.5307   -1.1685   -2.6555 H   0  0  0  0  0  0  0  0  0  0  0  0
    5.3292   -0.1550   -2.8452 H   0  0  0  0  0  0  0  0  0  0  0  0
   -3.2043    0.7402    1.3881 H   0  0  0  0  0  0  0  0  0  0  0  0
   -3.6122    0.0774   -0.1952 H   0  0  0  0  0  0  0  0  0  0  0  0
   -5.7005   -0.7439    1.1213 H   0  0  0  0  0  0  0  0  0  0  0  0
   -5.0049   -0.2790    2.6744 H   0  0  0  0  0  0  0  0  0  0  0  0
   -5.4998   -1.9582    2.3861 H   0  0  0  0  0  0  0  0  0  0  0  0
   -2.8091   -2.8086   -0.1125 H   0  0  0  0  0  0  0  0  0  0  0  0
   -4.1734   -3.4485    0.8167 H   0  0  0  0  0  0  0  0  0  0  0  0
   -4.4427   -2.2605   -0.4586 H   0  0  0  0  0  0  0  0  0  0  0  0
   -1.0182   -3.1455    1.4703 H   0  0  0  0  0  0  0  0  0  0  0  0
   -0.2374   -2.2039    2.7430 H   0  0  0  0  0  0  0  0  0  0  0  0
  1  2  1  0
  2  3  1  0
  3  4  1  0
  4  5  2  0
  4  6  1  0
  6  7  2  0
  7  8  1  0
  8  9  1  0
  9 10  2  0
  9 11  1  0
 11 12  1  0
 12 13  2  0
 13 14  1  0
 14 15  2  0
 15 16  1  0
 16 17  2  0
  7 18  1  0
 18 19  1  0
 19 20  2  0
 20 21  1  0
 21 22  1  0
 22 23  1  0
 22 24  1  0
 22 25  1  0
 25 26  1  0
 20  6  1  0
 17 12  1  0
 26 19  1  0
  1 27  1  0
  1 28  1  0
  1 29  1  0
  2 30  1  0
  2 31  1  0
  8 32  1  0
 11 33  1  0
 13 34  1  0
 14 35  1  0
 15 36  1  0
 16 37  1  0
 17 38  1  0
 21 39  1  0
 21 40  1  0
 23 41  1  0
 23 42  1  0
 23 43  1  0
 24 44  1  0
 24 45  1  0
 24 46  1  0
 26 47  1  0
 26 48  1  0
M  END
$$$$
