
     RDKit          3D

 43 46  0  0  0  0  0  0  0  0999 V2000
   -3.0767    5.0646   -1.0386 N   0  0  0  0  0  0  0  0  0  0  0  0
   -2.7444    4.6515   -2.0703 C   0  0  0  0  0  0  0  0  0  0  0  0
   -2.2844    4.1575   -3.3732 C   0  0  0  0  0  0  0  0  0  0  0  0
   -0.7979    3.8323   -3.3349 C   0  0  0  0  0  0  0  0  0  0  0  0
   -0.5199    2.6217   -2.5846 N   0  0  0  0  0  0  0  0  0  0  0  0
   -0.0222    2.5344   -1.3208 C   0  0  0  0  0  0  0  0  0  0  0  0
    0.0235    1.1903   -1.0338 C   0  0  0  0  0  0  0  0  0  0  0  0
    0.4560    0.6631    0.2197 C   0  0  0  0  0  0  0  0  0  0  0  0
   -0.2476   -0.1371    1.0526 C   0  0  0  0  0  0  0  0  0  0  0  0
   -1.5922   -0.5189    0.7489 C   0  0  0  0  0  0  0  0  0  0  0  0
   -2.6857   -0.8324    0.5156 N   0  0  0  0  0  0  0  0  0  0  0  0
    0.3946   -0.5723    2.2665 C   0  0  0  0  0  0  0  0  0  0  0  0
    1.6479   -0.3181    2.6074 N   0  0  0  0  0  0  0  0  0  0  0  0
    1.9660   -0.8776    3.8330 C   0  0  0  0  0  0  0  0  0  0  0  0
    3.2144   -0.7925    4.4818 C   0  0  0  0  0  0  0  0  0  0  0  0
    3.3957   -1.4102    5.7236 C   0  0  0  0  0  0  0  0  0  0  0  0
    2.3513   -2.1078    6.3218 C   0  0  0  0  0  0  0  0  0  0  0  0
    1.1042   -2.2052    5.6969 C   0  0  0  0  0  0  0  0  0  0  0  0
    0.9351   -1.5804    4.4501 C   0  0  0  0  0  0  0  0  0  0  0  0
   -0.4560   -1.5222    3.4476 S   0  0  0  0  0  0  0  0  0  0  0  0
   -0.4164    0.5291   -2.2205 C   0  0  0  0  0  0  0  0  0  0  0  0
   -0.5027   -0.9033   -2.5006 C   0  0  0  0  0  0  0  0  0  0  0  0
   -1.6518   -1.4305   -3.1099 C   0  0  0  0  0  0  0  0  0  0  0  0
   -1.7503   -2.7994   -3.3679 C   0  0  0  0  0  0  0  0  0  0  0  0
   -0.6971   -3.6378   -3.0241 C   0  0  0  0  0  0  0  0  0  0  0  0
   -0.7894   -4.9507   -3.2728 F   0  0  0  0  0  0  0  0  0  0  0  0
    0.4544   -3.1342   -2.4298 C   0  0  0  0  0  0  0  0  0  0  0  0
    0.5543   -1.7654   -2.1692 C   0  0  0  0  0  0  0  0  0  0  0  0
   -0.7743    1.4318   -3.1502 N   0  0  0  0  0  0  0  0  0  0  0  0
   -2.4577    4.9350   -4.1262 H   0  0  0  0  0  0  0  0  0  0  0  0
   -2.8738    3.2834   -3.6727 H   0  0  0  0  0  0  0  0  0  0  0  0
   -0.2121    4.6461   -2.8914 H   0  0  0  0  0  0  0  0  0  0  0  0
   -0.4190    3.6659   -4.3504 H   0  0  0  0  0  0  0  0  0  0  0  0
    0.2208    3.4117   -0.7357 H   0  0  0  0  0  0  0  0  0  0  0  0
    1.4566    0.9768    0.5195 H   0  0  0  0  0  0  0  0  0  0  0  0
    4.0271   -0.2472    4.0123 H   0  0  0  0  0  0  0  0  0  0  0  0
    4.3600   -1.3429    6.2222 H   0  0  0  0  0  0  0  0  0  0  0  0
    2.5047   -2.5842    7.2882 H   0  0  0  0  0  0  0  0  0  0  0  0
    0.2896   -2.7502    6.1648 H   0  0  0  0  0  0  0  0  0  0  0  0
   -2.4786   -0.7744   -3.3746 H   0  0  0  0  0  0  0  0  0  0  0  0
   -2.6406   -3.2123   -3.8308 H   0  0  0  0  0  0  0  0  0  0  0  0
    1.2672   -3.8083   -2.1792 H   0  0  0  0  0  0  0  0  0  0  0  0
    1.4675   -1.3797   -1.7228 H   0  0  0  0  0  0  0  0  0  0  0  0
  1  2  3  0
  2  3  1  0
  3  4  1  0
  4  5  1  0
  5  6  1  0
  6  7  2  0
  7  8  1  0
  8  9  2  3
  9 10  1  0
 10 11  3  0
  9 12  1  0
 12 13  2  0
 13 14  1  0
 14 15  2  0
 15 16  1  0
 16 17  2  0
 17 18  1  0
 18 19  2  0
 19 20  1  0
  7 21  1  0
 21 22  1  0
 22 23  2  0
 23 24  1  0
 24 25  2  0
 25 26  1  0
 25 27  1  0
 27 28  2  0
 21 29  2  0
 29  5  1  0
 20 12  1  0
 28 22  1  0
 19 14  1  0
  3 30  1  0
  3 31  1  0
  4 32  1  0
  4 33  1  0
  6 34  1  0
  8 35  1  0
 15 36  1  0
 16 37  1  0
 17 38  1  0
 18 39  1  0
 23 40  1  0
 24 41  1  0
 27 42  1  0
 28 43  1  0
M  END
$$$$
