
     RDKit          3D

 40 42  0  0  0  0  0  0  0  0999 V2000
    1.0889    1.8499   -0.0049 O   0  0  0  0  0  0  0  0  0  0  0  0
    0.5565    0.7376   -0.0422 C   0  0  0  0  0  0  0  0  0  0  0  0
    1.2269   -0.4748   -0.0316 N   0  0  0  0  0  0  0  0  0  0  0  0
    2.5837   -0.6484   -0.1358 N   0  0  0  0  0  0  0  0  0  0  0  0
    3.3649    0.2270    0.4115 C   0  0  0  0  0  0  0  0  0  0  0  0
    4.8344    0.1277    0.2941 C   0  0  0  0  0  0  0  0  0  0  0  0
    5.6266    1.1059    0.9078 C   0  0  0  0  0  0  0  0  0  0  0  0
    7.0186    1.0354    0.8119 C   0  0  0  0  0  0  0  0  0  0  0  0
    7.6129   -0.0095    0.1048 C   0  0  0  0  0  0  0  0  0  0  0  0
    6.8134   -0.9744   -0.5012 C   0  0  0  0  0  0  0  0  0  0  0  0
    7.3923   -1.9743   -1.1789 F   0  0  0  0  0  0  0  0  0  0  0  0
    5.4280   -0.9183   -0.4153 C   0  0  0  0  0  0  0  0  0  0  0  0
   -0.9320    0.6394   -0.1162 C   0  0  0  0  0  0  0  0  0  0  0  0
   -1.6892    1.7572   -0.0706 C   0  0  0  0  0  0  0  0  0  0  0  0
   -1.1888    3.0345    0.0355 O   0  0  0  0  0  0  0  0  0  0  0  0
   -3.0541    1.7149   -0.1248 N   0  0  0  0  0  0  0  0  0  0  0  0
   -3.7806    0.5562   -0.2346 C   0  0  0  0  0  0  0  0  0  0  0  0
   -3.1647   -0.6386   -0.3018 C   0  0  0  0  0  0  0  0  0  0  0  0
   -1.6686   -0.6555   -0.2448 C   0  0  0  0  0  0  0  0  0  0  0  0
   -1.0575   -1.7223   -0.3064 O   0  0  0  0  0  0  0  0  0  0  0  0
   -3.8796   -1.9499   -0.4449 C   0  0  0  0  0  0  0  0  0  0  0  0
   -5.3537   -1.7837   -0.8223 C   0  0  0  0  0  0  0  0  0  0  0  0
   -6.0034   -0.6570   -0.0260 C   0  0  0  0  0  0  0  0  0  0  0  0
   -5.2856    0.6739   -0.2655 C   0  0  0  0  0  0  0  0  0  0  0  0
    0.6874   -1.3221   -0.2383 H   0  0  0  0  0  0  0  0  0  0  0  0
    2.9901    1.0689    1.0172 H   0  0  0  0  0  0  0  0  0  0  0  0
    5.1707    1.9256    1.4583 H   0  0  0  0  0  0  0  0  0  0  0  0
    7.6377    1.7933    1.2859 H   0  0  0  0  0  0  0  0  0  0  0  0
    8.6931   -0.0791    0.0201 H   0  0  0  0  0  0  0  0  0  0  0  0
    4.8301   -1.6845   -0.8987 H   0  0  0  0  0  0  0  0  0  0  0  0
   -0.2064    2.9804    0.0343 H   0  0  0  0  0  0  0  0  0  0  0  0
   -3.5275    2.6122   -0.0818 H   0  0  0  0  0  0  0  0  0  0  0  0
   -3.8085   -2.4912    0.5067 H   0  0  0  0  0  0  0  0  0  0  0  0
   -3.3949   -2.5706   -1.2076 H   0  0  0  0  0  0  0  0  0  0  0  0
   -5.4362   -1.5651   -1.8947 H   0  0  0  0  0  0  0  0  0  0  0  0
   -5.8871   -2.7250   -0.6479 H   0  0  0  0  0  0  0  0  0  0  0  0
   -5.9754   -0.9032    1.0432 H   0  0  0  0  0  0  0  0  0  0  0  0
   -7.0592   -0.5606   -0.3031 H   0  0  0  0  0  0  0  0  0  0  0  0
   -5.6218    1.3922    0.4921 H   0  0  0  0  0  0  0  0  0  0  0  0
   -5.5815    1.0758   -1.2428 H   0  0  0  0  0  0  0  0  0  0  0  0
  1  2  2  0
  2  3  1  0
  3  4  1  0
  4  5  2  3
  5  6  1  0
  6  7  2  0
  7  8  1  0
  8  9  2  0
  9 10  1  0
 10 11  1  0
 10 12  2  0
  2 13  1  0
 13 14  2  0
 14 15  1  0
 14 16  1  0
 16 17  1  0
 17 18  2  0
 18 19  1  0
 19 20  2  0
 18 21  1  0
 21 22  1  0
 22 23  1  0
 23 24  1  0
 12  6  1  0
 19 13  1  0
 24 17  1  0
  3 25  1  0
  5 26  1  0
  7 27  1  0
  8 28  1  0
  9 29  1  0
 12 30  1  0
 15 31  1  0
 16 32  1  0
 21 33  1  0
 21 34  1  0
 22 35  1  0
 22 36  1  0
 23 37  1  0
 23 38  1  0
 24 39  1  0
 24 40  1  0
M  END
$$$$
