
     RDKit          3D

 42 44  0  0  0  0  0  0  0  0999 V2000
   -3.5894    4.2093    5.0787 C   0  0  0  0  0  0  0  0  0  0  0  0
   -4.4630    3.2142    4.3307 C   0  0  0  0  0  0  0  0  0  0  0  0
   -3.7501    2.5374    3.1580 C   0  0  0  0  0  0  0  0  0  0  0  0
   -2.5909    1.6374    3.5938 C   0  0  0  0  0  0  0  0  0  0  0  0
   -1.9872    0.9043    2.4209 C   0  0  0  0  0  0  0  0  0  0  0  0
   -0.9772    1.4977    1.6569 C   0  0  0  0  0  0  0  0  0  0  0  0
   -0.4293    0.8238    0.5611 C   0  0  0  0  0  0  0  0  0  0  0  0
   -0.8827   -0.4524    0.1980 C   0  0  0  0  0  0  0  0  0  0  0  0
   -0.2850   -1.1230   -0.9550 C   0  0  0  0  0  0  0  0  0  0  0  0
   -0.8584   -2.1746   -1.6398 C   0  0  0  0  0  0  0  0  0  0  0  0
    0.1510   -2.6629   -2.9338 S   0  0  0  0  0  0  0  0  0  0  0  0
    1.3051   -1.4398   -2.5005 C   0  0  0  0  0  0  0  0  0  0  0  0
    2.5005   -1.2628   -3.2672 C   0  0  0  0  0  0  0  0  0  0  0  0
    2.7251    0.0298   -3.8234 C   0  0  0  0  0  0  0  0  0  0  0  0
    2.9065    1.0713   -4.3048 N   0  0  0  0  0  0  0  0  0  0  0  0
    3.3636   -2.2932   -3.3675 C   0  0  0  0  0  0  0  0  0  0  0  0
    4.6062   -2.3132   -4.0659 C   0  0  0  0  0  0  0  0  0  0  0  0
    5.1537   -1.5152   -5.0669 C   0  0  0  0  0  0  0  0  0  0  0  0
    6.4366   -2.0237   -5.3892 C   0  0  0  0  0  0  0  0  0  0  0  0
    6.6169   -3.1164   -4.5853 C   0  0  0  0  0  0  0  0  0  0  0  0
    5.5313   -3.3048   -3.8004 O   0  0  0  0  0  0  0  0  0  0  0  0
    0.9375   -0.7078   -1.4666 N   0  0  0  0  0  0  0  0  0  0  0  0
   -1.8951   -1.0425    0.9672 C   0  0  0  0  0  0  0  0  0  0  0  0
   -2.4442   -0.3693    2.0649 C   0  0  0  0  0  0  0  0  0  0  0  0
   -4.1803    4.7299    5.8393 H   0  0  0  0  0  0  0  0  0  0  0  0
   -2.7597    3.7112    5.5887 H   0  0  0  0  0  0  0  0  0  0  0  0
   -3.1772    4.9604    4.3976 H   0  0  0  0  0  0  0  0  0  0  0  0
   -5.3411    3.7447    3.9434 H   0  0  0  0  0  0  0  0  0  0  0  0
   -4.8342    2.4561    5.0301 H   0  0  0  0  0  0  0  0  0  0  0  0
   -3.3901    3.3015    2.4573 H   0  0  0  0  0  0  0  0  0  0  0  0
   -4.4888    1.9393    2.6088 H   0  0  0  0  0  0  0  0  0  0  0  0
   -1.8063    2.2252    4.0848 H   0  0  0  0  0  0  0  0  0  0  0  0
   -2.9368    0.9103    4.3393 H   0  0  0  0  0  0  0  0  0  0  0  0
   -0.6071    2.4895    1.9073 H   0  0  0  0  0  0  0  0  0  0  0  0
    0.3577    1.3092   -0.0139 H   0  0  0  0  0  0  0  0  0  0  0  0
   -1.8027   -2.6700   -1.4687 H   0  0  0  0  0  0  0  0  0  0  0  0
    3.1416   -3.2226   -2.8445 H   0  0  0  0  0  0  0  0  0  0  0  0
    4.6926   -0.6573   -5.5364 H   0  0  0  0  0  0  0  0  0  0  0  0
    7.1343   -1.6403   -6.1203 H   0  0  0  0  0  0  0  0  0  0  0  0
    7.4175   -3.8319   -4.4589 H   0  0  0  0  0  0  0  0  0  0  0  0
   -2.2695   -2.0364    0.7397 H   0  0  0  0  0  0  0  0  0  0  0  0
   -3.2313   -0.8495    2.6425 H   0  0  0  0  0  0  0  0  0  0  0  0
  1  2  1  0
  2  3  1  0
  3  4  1  0
  4  5  1  0
  5  6  2  0
  6  7  1  0
  7  8  2  0
  8  9  1  0
  9 10  2  0
 10 11  1  0
 11 12  1  0
 12 13  1  0
 13 14  1  0
 14 15  3  0
 13 16  2  3
 16 17  1  0
 17 18  2  0
 18 19  1  0
 19 20  2  0
 20 21  1  0
 12 22  2  0
  8 23  1  0
 23 24  2  0
 24  5  1  0
 22  9  1  0
 21 17  1  0
  1 25  1  0
  1 26  1  0
  1 27  1  0
  2 28  1  0
  2 29  1  0
  3 30  1  0
  3 31  1  0
  4 32  1  0
  4 33  1  0
  6 34  1  0
  7 35  1  0
 10 36  1  0
 16 37  1  0
 18 38  1  0
 19 39  1  0
 20 40  1  0
 23 41  1  0
 24 42  1  0
M  END
$$$$
