
     RDKit          3D

 43 45  0  0  0  0  0  0  0  0999 V2000
   -6.0784   -1.4334    0.1726 C   0  0  0  0  0  0  0  0  0  0  0  0
   -4.7693   -1.2744    0.8014 N   0  0  0  0  0  0  0  0  0  0  0  0
   -4.3073    0.1300    0.7652 C   0  0  0  0  0  0  0  0  0  0  0  0
   -3.3002    0.4713   -0.3568 C   0  0  0  0  0  0  0  0  0  0  0  0
   -2.1186   -0.4262   -0.3539 N   0  0  0  0  0  0  0  0  0  0  0  0
   -0.8822    0.1630   -0.0620 C   0  0  0  0  0  0  0  0  0  0  0  0
   -0.6824    0.9259    1.0980 C   0  0  0  0  0  0  0  0  0  0  0  0
    0.5648    1.4967    1.3869 C   0  0  0  0  0  0  0  0  0  0  0  0
    1.6535    1.3068    0.5268 C   0  0  0  0  0  0  0  0  0  0  0  0
    2.9472    1.9481    0.8717 C   0  0  0  0  0  0  0  0  0  0  0  0
    2.9386    3.0264    1.4587 O   0  0  0  0  0  0  0  0  0  0  0  0
    4.2474    1.3228    0.5227 C   0  0  0  0  0  0  0  0  0  0  0  0
    4.4357   -0.0643    0.5754 C   0  0  0  0  0  0  0  0  0  0  0  0
    5.6803   -0.6110    0.2498 C   0  0  0  0  0  0  0  0  0  0  0  0
    6.7339    0.2283   -0.1131 C   0  0  0  0  0  0  0  0  0  0  0  0
    8.4156   -0.5153   -0.5505 Br  0  0  0  0  0  0  0  0  0  0  0  0
    6.5595    1.6110   -0.1468 C   0  0  0  0  0  0  0  0  0  0  0  0
    5.3166    2.1593    0.1779 C   0  0  0  0  0  0  0  0  0  0  0  0
    1.4861    0.5688   -0.6441 C   0  0  0  0  0  0  0  0  0  0  0  0
    0.2292    0.0062   -0.9083 C   0  0  0  0  0  0  0  0  0  0  0  0
    0.0945   -0.7565   -2.1288 N   0  0  0  0  0  4  0  0  0  0  0  0
   -0.1590   -0.1248   -3.1639 O   0  0  0  0  0  0  0  0  0  0  0  0
    0.3263   -1.9723   -2.0566 O   0  0  0  0  0  1  0  0  0  0  0  0
   -2.3255   -1.7159    0.3517 C   0  0  0  0  0  0  0  0  0  0  0  0
   -3.7844   -2.1899    0.1806 C   0  0  0  0  0  0  0  0  0  0  0  0
   -6.8314   -0.8364    0.6988 H   0  0  0  0  0  0  0  0  0  0  0  0
   -6.0716   -1.1295   -0.8803 H   0  0  0  0  0  0  0  0  0  0  0  0
   -6.4091   -2.4764    0.2305 H   0  0  0  0  0  0  0  0  0  0  0  0
   -5.1552    0.8248    0.7190 H   0  0  0  0  0  0  0  0  0  0  0  0
   -3.8233    0.3267    1.7301 H   0  0  0  0  0  0  0  0  0  0  0  0
   -3.0125    1.5278   -0.2876 H   0  0  0  0  0  0  0  0  0  0  0  0
   -3.7982    0.3546   -1.3275 H   0  0  0  0  0  0  0  0  0  0  0  0
   -1.4970    1.0811    1.8015 H   0  0  0  0  0  0  0  0  0  0  0  0
    0.6833    2.0918    2.2921 H   0  0  0  0  0  0  0  0  0  0  0  0
    3.6356   -0.7313    0.8858 H   0  0  0  0  0  0  0  0  0  0  0  0
    5.8213   -1.6885    0.2909 H   0  0  0  0  0  0  0  0  0  0  0  0
    7.3814    2.2692   -0.4173 H   0  0  0  0  0  0  0  0  0  0  0  0
    5.1836    3.2398    0.1627 H   0  0  0  0  0  0  0  0  0  0  0  0
    2.2984    0.4409   -1.3550 H   0  0  0  0  0  0  0  0  0  0  0  0
   -1.6536   -2.4735   -0.0680 H   0  0  0  0  0  0  0  0  0  0  0  0
   -2.0960   -1.6230    1.4218 H   0  0  0  0  0  0  0  0  0  0  0  0
   -3.8969   -3.1821    0.6323 H   0  0  0  0  0  0  0  0  0  0  0  0
   -3.9804   -2.2965   -0.8954 H   0  0  0  0  0  0  0  0  0  0  0  0
  1  2  1  0
  2  3  1  0
  3  4  1  0
  4  5  1  0
  5  6  1  0
  6  7  2  0
  7  8  1  0
  8  9  2  0
  9 10  1  0
 10 11  2  0
 10 12  1  0
 12 13  2  0
 13 14  1  0
 14 15  2  0
 15 16  1  0
 15 17  1  0
 17 18  2  0
  9 19  1  0
 19 20  2  0
 20 21  1  0
 21 22  2  0
 21 23  1  0
  5 24  1  0
 24 25  1  0
 25  2  1  0
 20  6  1  0
 18 12  1  0
  1 26  1  0
  1 27  1  0
  1 28  1  0
  3 29  1  0
  3 30  1  0
  4 31  1  0
  4 32  1  0
  7 33  1  0
  8 34  1  0
 13 35  1  0
 14 36  1  0
 17 37  1  0
 18 38  1  0
 19 39  1  0
 24 40  1  0
 24 41  1  0
 25 42  1  0
 25 43  1  0
M  CHG  2  21   1  23  -1
M  END
$$$$
