
     RDKit          3D

 49 51  0  0  0  0  0  0  0  0999 V2000
   -9.1778    2.0877    3.6004 C   0  0  0  0  0  0  0  0  0  0  0  0
   -7.8729    2.5823    3.8749 O   0  0  0  0  0  0  0  0  0  0  0  0
   -6.8754    2.1959    3.0248 C   0  0  0  0  0  0  0  0  0  0  0  0
   -7.0093    1.3404    1.9333 C   0  0  0  0  0  0  0  0  0  0  0  0
   -5.8971    1.0217    1.1402 C   0  0  0  0  0  0  0  0  0  0  0  0
   -4.6400    1.5541    1.4289 C   0  0  0  0  0  0  0  0  0  0  0  0
   -3.4734    1.2764    0.6861 N   0  0  0  0  0  0  0  0  0  0  0  0
   -3.3718    0.5006   -0.4548 C   0  0  0  0  0  0  0  0  0  0  0  0
   -4.2790   -0.0568   -1.0584 O   0  0  0  0  0  0  0  0  0  0  0  0
   -1.9750    0.3904   -0.9599 C   0  0  0  0  0  0  0  0  0  0  0  0
   -1.7238    0.8444   -2.2823 C   0  0  0  0  0  0  0  0  0  0  0  0
   -1.4906    1.2299   -3.3522 N   0  0  0  0  0  0  0  0  0  0  0  0
   -1.0581   -0.1674   -0.1454 C   0  0  0  0  0  0  0  0  0  0  0  0
    0.3622   -0.3875   -0.4493 C   0  0  0  0  0  0  0  0  0  0  0  0
    0.7820   -1.0802   -1.5904 C   0  0  0  0  0  0  0  0  0  0  0  0
    2.1442   -1.2999   -1.8333 C   0  0  0  0  0  0  0  0  0  0  0  0
    3.1010   -0.8441   -0.9282 C   0  0  0  0  0  0  0  0  0  0  0  0
    4.4547   -0.9974   -1.0375 O   0  0  0  0  0  0  0  0  0  0  0  0
    4.9420   -1.6793   -2.1957 C   0  0  0  0  0  0  0  0  0  0  0  0
    6.4450   -1.7960   -2.1384 C   0  0  0  0  0  0  0  0  0  0  0  0
    7.1438   -1.8899   -0.9254 C   0  0  0  0  0  0  0  0  0  0  0  0
    8.5339   -2.0379   -0.9156 C   0  0  0  0  0  0  0  0  0  0  0  0
    9.2408   -2.1070   -2.1163 C   0  0  0  0  0  0  0  0  0  0  0  0
    8.5566   -2.0323   -3.3278 C   0  0  0  0  0  0  0  0  0  0  0  0
    7.1721   -1.8843   -3.3290 C   0  0  0  0  0  0  0  0  0  0  0  0
    6.5315   -1.8311   -4.5057 F   0  0  0  0  0  0  0  0  0  0  0  0
    2.6830   -0.1673    0.2191 C   0  0  0  0  0  0  0  0  0  0  0  0
    1.3249    0.0568    0.4620 C   0  0  0  0  0  0  0  0  0  0  0  0
   -4.5099    2.4117    2.5265 C   0  0  0  0  0  0  0  0  0  0  0  0
   -5.6196    2.7287    3.3158 C   0  0  0  0  0  0  0  0  0  0  0  0
   -9.8553    2.4929    4.3583 H   0  0  0  0  0  0  0  0  0  0  0  0
   -9.5308    2.4288    2.6217 H   0  0  0  0  0  0  0  0  0  0  0  0
   -9.2100    0.9958    3.6753 H   0  0  0  0  0  0  0  0  0  0  0  0
   -7.9632    0.8973    1.6655 H   0  0  0  0  0  0  0  0  0  0  0  0
   -6.0545    0.3478    0.3034 H   0  0  0  0  0  0  0  0  0  0  0  0
   -2.6299    1.7292    1.0170 H   0  0  0  0  0  0  0  0  0  0  0  0
   -1.3512   -0.5065    0.8479 H   0  0  0  0  0  0  0  0  0  0  0  0
    0.0609   -1.4675   -2.3080 H   0  0  0  0  0  0  0  0  0  0  0  0
    2.4165   -1.8338   -2.7383 H   0  0  0  0  0  0  0  0  0  0  0  0
    4.6553   -1.1115   -3.0891 H   0  0  0  0  0  0  0  0  0  0  0  0
    4.5284   -2.6942   -2.2404 H   0  0  0  0  0  0  0  0  0  0  0  0
    6.6089   -1.8452    0.0217 H   0  0  0  0  0  0  0  0  0  0  0  0
    9.0644   -2.1014    0.0322 H   0  0  0  0  0  0  0  0  0  0  0  0
   10.3215   -2.2225   -2.1066 H   0  0  0  0  0  0  0  0  0  0  0  0
    9.0905   -2.0909   -4.2708 H   0  0  0  0  0  0  0  0  0  0  0  0
    3.4230    0.1881    0.9323 H   0  0  0  0  0  0  0  0  0  0  0  0
    1.0363    0.5833    1.3683 H   0  0  0  0  0  0  0  0  0  0  0  0
   -3.5505    2.8496    2.7878 H   0  0  0  0  0  0  0  0  0  0  0  0
   -5.5044    3.3984    4.1649 H   0  0  0  0  0  0  0  0  0  0  0  0
  1  2  1  0
  2  3  1  0
  3  4  2  0
  4  5  1  0
  5  6  2  0
  6  7  1  0
  7  8  1  0
  8  9  2  0
  8 10  1  0
 10 11  1  0
 11 12  3  0
 10 13  2  3
 13 14  1  0
 14 15  2  0
 15 16  1  0
 16 17  2  0
 17 18  1  0
 18 19  1  0
 19 20  1  0
 20 21  2  0
 21 22  1  0
 22 23  2  0
 23 24  1  0
 24 25  2  0
 25 26  1  0
 17 27  1  0
 27 28  2  0
  6 29  1  0
 29 30  2  0
 30  3  1  0
 28 14  1  0
 25 20  1  0
  1 31  1  0
  1 32  1  0
  1 33  1  0
  4 34  1  0
  5 35  1  0
  7 36  1  0
 13 37  1  0
 15 38  1  0
 16 39  1  0
 19 40  1  0
 19 41  1  0
 21 42  1  0
 22 43  1  0
 23 44  1  0
 24 45  1  0
 27 46  1  0
 28 47  1  0
 29 48  1  0
 30 49  1  0
M  END
$$$$
