
     RDKit          3D

 41 44  0  0  0  0  0  0  0  0999 V2000
   -5.0632   -2.6949    0.2061 C   0  0  0  0  0  0  0  0  0  0  0  0
   -5.4623   -1.2282    0.3866 C   0  0  0  0  0  0  0  0  0  0  0  0
   -6.5389   -0.8273   -0.6249 C   0  0  0  0  0  0  0  0  0  0  0  0
   -4.2559   -0.3090    0.3123 C   0  0  0  0  0  0  0  0  0  0  0  0
   -3.8947    0.4596    1.4277 C   0  0  0  0  0  0  0  0  0  0  0  0
   -2.7831    1.3064    1.3830 C   0  0  0  0  0  0  0  0  0  0  0  0
   -2.0070    1.3948    0.2239 C   0  0  0  0  0  0  0  0  0  0  0  0
   -0.8672    2.3145    0.1937 C   0  0  0  0  0  0  0  0  0  0  0  0
    0.4243    1.9791    0.0558 C   0  0  0  0  0  0  0  0  0  0  0  0
    1.6906    3.2116    0.0492 S   0  0  0  0  0  0  0  0  0  0  0  0
    2.8745    1.9881   -0.1287 C   0  0  0  0  0  0  0  0  0  0  0  0
    4.1714    1.9627   -0.2315 N   0  0  0  0  0  0  0  0  0  0  0  0
    4.4221    0.5988   -0.3496 C   0  0  0  0  0  0  0  0  0  0  0  0
    5.7759    0.0747   -0.4924 C   0  0  0  0  0  0  0  0  0  0  0  0
    6.8699    0.9429   -0.5162 C   0  0  0  0  0  0  0  0  0  0  0  0
    8.1376    0.4043   -0.6535 C   0  0  0  0  0  0  0  0  0  0  0  0
    8.3824   -0.9180   -0.7664 N   0  0  0  0  0  0  0  0  0  0  0  0
    7.3119   -1.7396   -0.7409 C   0  0  0  0  0  0  0  0  0  0  0  0
    6.0067   -1.2984   -0.6077 C   0  0  0  0  0  0  0  0  0  0  0  0
    3.3172   -0.1786   -0.3212 N   0  0  0  0  0  0  0  0  0  0  0  0
    2.3534    0.7485   -0.1776 N   0  0  0  0  0  0  0  0  0  0  0  0
    0.9860    0.5932   -0.0851 C   0  0  0  0  0  0  0  0  0  0  0  0
    0.4365   -0.4906   -0.1230 O   0  0  0  0  0  0  0  0  0  0  0  0
   -2.3675    0.6418   -0.8963 C   0  0  0  0  0  0  0  0  0  0  0  0
   -3.4784   -0.2059   -0.8502 C   0  0  0  0  0  0  0  0  0  0  0  0
   -4.6576   -2.8895   -0.7927 H   0  0  0  0  0  0  0  0  0  0  0  0
   -5.9303   -3.3496    0.3459 H   0  0  0  0  0  0  0  0  0  0  0  0
   -4.3017   -2.9863    0.9382 H   0  0  0  0  0  0  0  0  0  0  0  0
   -5.9096   -1.1368    1.3854 H   0  0  0  0  0  0  0  0  0  0  0  0
   -6.8334    0.2193   -0.4889 H   0  0  0  0  0  0  0  0  0  0  0  0
   -7.4340   -1.4463   -0.4996 H   0  0  0  0  0  0  0  0  0  0  0  0
   -6.1953   -0.9458   -1.6583 H   0  0  0  0  0  0  0  0  0  0  0  0
   -4.4760    0.4037    2.3456 H   0  0  0  0  0  0  0  0  0  0  0  0
   -2.5304    1.8893    2.2656 H   0  0  0  0  0  0  0  0  0  0  0  0
   -1.1483    3.3595    0.3167 H   0  0  0  0  0  0  0  0  0  0  0  0
    6.7436    2.0174   -0.4301 H   0  0  0  0  0  0  0  0  0  0  0  0
    9.0168    1.0419   -0.6769 H   0  0  0  0  0  0  0  0  0  0  0  0
    7.5374   -2.7983   -0.8335 H   0  0  0  0  0  0  0  0  0  0  0  0
    5.1911   -2.0147   -0.5946 H   0  0  0  0  0  0  0  0  0  0  0  0
   -1.7879    0.6958   -1.8144 H   0  0  0  0  0  0  0  0  0  0  0  0
   -3.7265   -0.7902   -1.7334 H   0  0  0  0  0  0  0  0  0  0  0  0
  1  2  1  0
  2  3  1  0
  2  4  1  0
  4  5  2  0
  5  6  1  0
  6  7  2  0
  7  8  1  0
  8  9  2  3
  9 10  1  0
 10 11  1  0
 11 12  2  0
 12 13  1  0
 13 14  1  0
 14 15  2  0
 15 16  1  0
 16 17  2  0
 17 18  1  0
 18 19  2  0
 13 20  2  0
 20 21  1  0
 21 22  1  0
 22 23  2  0
  7 24  1  0
 24 25  2  0
 25  4  1  0
 22  9  1  0
 21 11  1  0
 19 14  1  0
  1 26  1  0
  1 27  1  0
  1 28  1  0
  2 29  1  0
  3 30  1  0
  3 31  1  0
  3 32  1  0
  5 33  1  0
  6 34  1  0
  8 35  1  0
 15 36  1  0
 16 37  1  0
 18 38  1  0
 19 39  1  0
 24 40  1  0
 25 41  1  0
M  END
$$$$
