
     RDKit          3D

 48 51  0  0  0  0  0  0  0  0999 V2000
    2.6281   -0.9689    1.7624 O   0  0  0  0  0  0  0  0  0  0  0  0
    2.3925    0.2560    1.0248 S   0  0  0  0  0  6  0  0  0  0  0  0
    2.3557    1.5415    1.6927 O   0  0  0  0  0  0  0  0  0  0  0  0
    3.5537    0.3438   -0.3525 C   0  0  0  0  0  0  0  0  0  0  0  0
    4.9527    0.5096    0.1827 C   0  0  0  0  0  0  0  0  0  0  0  0
    5.4825    1.7884    0.4085 C   0  0  0  0  0  0  0  0  0  0  0  0
    6.7782    1.9404    0.9043 C   0  0  0  0  0  0  0  0  0  0  0  0
    7.5561    0.8184    1.1818 C   0  0  0  0  0  0  0  0  0  0  0  0
    7.0380   -0.4571    0.9684 C   0  0  0  0  0  0  0  0  0  0  0  0
    5.7426   -0.6123    0.4728 C   0  0  0  0  0  0  0  0  0  0  0  0
    0.8999    0.0721    0.2401 N   0  0  0  0  0  0  0  0  0  0  0  0
    0.3860    1.2392   -0.5296 C   0  0  0  0  0  0  0  0  0  0  0  0
   -1.1015    1.0362   -0.8858 C   0  0  0  0  0  0  0  0  0  0  0  0
   -1.3167   -0.2220   -1.6240 N   0  0  0  0  0  0  0  0  0  0  0  0
   -2.6882   -0.3845   -2.1253 C   0  0  0  0  0  0  0  0  0  0  0  0
   -3.7974   -0.4709   -1.0974 C   0  0  0  0  0  0  0  0  0  0  0  0
   -4.1973   -1.7256   -0.5783 C   0  0  0  0  0  0  0  0  0  0  0  0
   -5.2188   -1.8234    0.3722 C   0  0  0  0  0  0  0  0  0  0  0  0
   -5.8249   -0.6572    0.7830 C   0  0  0  0  0  0  0  0  0  0  0  0
   -5.4512    0.5666    0.2823 C   0  0  0  0  0  0  0  0  0  0  0  0
   -4.4488    0.6941   -0.6561 C   0  0  0  0  0  0  0  0  0  0  0  0
   -6.1740    1.5883    0.8146 O   0  0  0  0  0  0  0  0  0  0  0  0
   -7.0379    0.8664    1.7172 C   0  0  0  0  0  0  0  0  0  0  0  0
   -6.8297   -0.5610    1.6938 O   0  0  0  0  0  0  0  0  0  0  0  0
   -0.8428   -1.3598   -0.8152 C   0  0  0  0  0  0  0  0  0  0  0  0
    0.6518   -1.2196   -0.4585 C   0  0  0  0  0  0  0  0  0  0  0  0
    3.2809    1.1938   -0.9840 H   0  0  0  0  0  0  0  0  0  0  0  0
    3.4723   -0.5778   -0.9354 H   0  0  0  0  0  0  0  0  0  0  0  0
    4.8858    2.6776    0.2138 H   0  0  0  0  0  0  0  0  0  0  0  0
    7.1776    2.9355    1.0831 H   0  0  0  0  0  0  0  0  0  0  0  0
    8.5625    0.9380    1.5743 H   0  0  0  0  0  0  0  0  0  0  0  0
    7.6400   -1.3327    1.1973 H   0  0  0  0  0  0  0  0  0  0  0  0
    5.3512   -1.6177    0.3288 H   0  0  0  0  0  0  0  0  0  0  0  0
    0.9713    1.3627   -1.4478 H   0  0  0  0  0  0  0  0  0  0  0  0
    0.4749    2.1540    0.0648 H   0  0  0  0  0  0  0  0  0  0  0  0
   -1.6865    1.0506    0.0422 H   0  0  0  0  0  0  0  0  0  0  0  0
   -1.4236    1.8870   -1.4978 H   0  0  0  0  0  0  0  0  0  0  0  0
   -2.9124    0.4402   -2.8154 H   0  0  0  0  0  0  0  0  0  0  0  0
   -2.7287   -1.2789   -2.7617 H   0  0  0  0  0  0  0  0  0  0  0  0
   -3.7061   -2.6356   -0.9176 H   0  0  0  0  0  0  0  0  0  0  0  0
   -5.5245   -2.7827    0.7740 H   0  0  0  0  0  0  0  0  0  0  0  0
   -4.1778    1.6738   -1.0344 H   0  0  0  0  0  0  0  0  0  0  0  0
   -6.8626    1.2299    2.7364 H   0  0  0  0  0  0  0  0  0  0  0  0
   -8.0794    1.0728    1.4449 H   0  0  0  0  0  0  0  0  0  0  0  0
   -1.4169   -1.4445    0.1158 H   0  0  0  0  0  0  0  0  0  0  0  0
   -0.9725   -2.2940   -1.3744 H   0  0  0  0  0  0  0  0  0  0  0  0
    0.9308   -2.0590    0.1863 H   0  0  0  0  0  0  0  0  0  0  0  0
    1.2551   -1.2675   -1.3721 H   0  0  0  0  0  0  0  0  0  0  0  0
  1  2  2  0
  2  3  2  0
  2  4  1  0
  4  5  1  0
  5  6  2  0
  6  7  1  0
  7  8  2  0
  8  9  1  0
  9 10  2  0
  2 11  1  0
 11 12  1  0
 12 13  1  0
 13 14  1  0
 14 15  1  0
 15 16  1  0
 16 17  2  0
 17 18  1  0
 18 19  2  0
 19 20  1  0
 20 21  2  0
 20 22  1  0
 22 23  1  0
 23 24  1  0
 14 25  1  0
 25 26  1  0
 10  5  1  0
 26 11  1  0
 21 16  1  0
 24 19  1  0
  4 27  1  0
  4 28  1  0
  6 29  1  0
  7 30  1  0
  8 31  1  0
  9 32  1  0
 10 33  1  0
 12 34  1  0
 12 35  1  0
 13 36  1  0
 13 37  1  0
 15 38  1  0
 15 39  1  0
 17 40  1  0
 18 41  1  0
 21 42  1  0
 23 43  1  0
 23 44  1  0
 25 45  1  0
 25 46  1  0
 26 47  1  0
 26 48  1  0
M  END
$$$$
