
     RDKit          3D

 52 55  0  0  0  0  0  0  0  0999 V2000
    6.9671    2.8927   -1.1251 C   0  0  0  0  0  0  0  0  0  0  0  0
    6.0737    2.3412   -2.2256 C   0  0  0  0  0  0  0  0  0  0  0  0
    4.8346    1.6883   -1.6672 C   0  0  0  0  0  0  0  0  0  0  0  0
    3.6739    2.4400   -1.4489 C   0  0  0  0  0  0  0  0  0  0  0  0
    2.5311    1.8388   -0.9159 C   0  0  0  0  0  0  0  0  0  0  0  0
    2.5348    0.4779   -0.5903 C   0  0  0  0  0  0  0  0  0  0  0  0
    1.3056   -0.1288   -0.0277 C   0  0  0  0  0  0  0  0  0  0  0  0
    0.2390    0.5573    0.2529 N   0  0  0  0  0  0  0  0  0  0  0  0
   -0.6950   -0.3194    0.7269 N   0  0  0  0  0  0  0  0  0  0  0  0
   -1.8753    0.1416    1.3072 C   0  0  0  0  0  0  0  0  0  0  0  0
   -2.1468    1.5214    1.3814 C   0  0  0  0  0  0  0  0  0  0  0  0
   -3.3239    2.0176    1.9509 C   0  0  0  0  0  0  0  0  0  0  0  0
   -4.2666    1.1244    2.4528 C   0  0  0  0  0  0  0  0  0  0  0  0
   -5.7642    1.7478    3.1629 S   0  0  0  0  0  6  0  0  0  0  0  0
   -6.7025    2.0100    1.7881 N   0  0  0  0  0  0  0  0  0  0  0  0
   -6.4181    0.6748    3.8769 O   0  0  0  0  0  0  0  0  0  0  0  0
   -5.4886    3.0288    3.7673 O   0  0  0  0  0  0  0  0  0  0  0  0
   -4.0301   -0.2477    2.4105 C   0  0  0  0  0  0  0  0  0  0  0  0
   -2.8442   -0.7266    1.8392 C   0  0  0  0  0  0  0  0  0  0  0  0
   -0.2629   -1.7162    0.6453 C   0  0  0  0  0  0  0  0  0  0  0  0
   -1.0145   -2.5151   -0.4123 C   0  0  0  0  0  0  0  0  0  0  0  0
   -1.2755   -3.8799   -0.1918 C   0  0  0  0  0  0  0  0  0  0  0  0
   -1.9435   -4.6393   -1.1543 C   0  0  0  0  0  0  0  0  0  0  0  0
   -2.3474   -4.0418   -2.3417 C   0  0  0  0  0  0  0  0  0  0  0  0
   -2.9878   -4.7731   -3.2631 F   0  0  0  0  0  0  0  0  0  0  0  0
   -2.0947   -2.6989   -2.5874 C   0  0  0  0  0  0  0  0  0  0  0  0
   -1.4270   -1.9373   -1.6272 C   0  0  0  0  0  0  0  0  0  0  0  0
    1.2206   -1.5959    0.2917 C   0  0  0  0  0  0  0  0  0  0  0  0
    3.6941   -0.2758   -0.7980 C   0  0  0  0  0  0  0  0  0  0  0  0
    4.8368    0.3283   -1.3319 C   0  0  0  0  0  0  0  0  0  0  0  0
    7.8570    3.3597   -1.5587 H   0  0  0  0  0  0  0  0  0  0  0  0
    6.4435    3.6480   -0.5294 H   0  0  0  0  0  0  0  0  0  0  0  0
    7.2971    2.0991   -0.4461 H   0  0  0  0  0  0  0  0  0  0  0  0
    5.7883    3.1485   -2.9110 H   0  0  0  0  0  0  0  0  0  0  0  0
    6.6330    1.6154   -2.8285 H   0  0  0  0  0  0  0  0  0  0  0  0
    3.6510    3.5006   -1.6907 H   0  0  0  0  0  0  0  0  0  0  0  0
    1.6396    2.4419   -0.7556 H   0  0  0  0  0  0  0  0  0  0  0  0
   -1.4199    2.2317    0.9905 H   0  0  0  0  0  0  0  0  0  0  0  0
   -3.4877    3.0920    1.9985 H   0  0  0  0  0  0  0  0  0  0  0  0
   -6.1739    1.9205    0.9207 H   0  0  0  0  0  0  0  0  0  0  0  0
   -7.5046    1.3782    1.8125 H   0  0  0  0  0  0  0  0  0  0  0  0
   -4.7527   -0.9532    2.8146 H   0  0  0  0  0  0  0  0  0  0  0  0
   -2.6984   -1.8025    1.8176 H   0  0  0  0  0  0  0  0  0  0  0  0
   -0.3623   -2.2047    1.6230 H   0  0  0  0  0  0  0  0  0  0  0  0
   -0.9621   -4.3611    0.7326 H   0  0  0  0  0  0  0  0  0  0  0  0
   -2.1508   -5.6916   -0.9870 H   0  0  0  0  0  0  0  0  0  0  0  0
   -2.4182   -2.2512   -3.5216 H   0  0  0  0  0  0  0  0  0  0  0  0
   -1.2363   -0.8833   -1.8270 H   0  0  0  0  0  0  0  0  0  0  0  0
    1.8498   -1.8023    1.1642 H   0  0  0  0  0  0  0  0  0  0  0  0
    1.5328   -2.2197   -0.5502 H   0  0  0  0  0  0  0  0  0  0  0  0
    3.7387   -1.3315   -0.5494 H   0  0  0  0  0  0  0  0  0  0  0  0
    5.7333   -0.2698   -1.4834 H   0  0  0  0  0  0  0  0  0  0  0  0
  1  2  1  0
  2  3  1  0
  3  4  2  0
  4  5  1  0
  5  6  2  0
  6  7  1  0
  7  8  2  0
  8  9  1  0
  9 10  1  0
 10 11  2  0
 11 12  1  0
 12 13  2  0
 13 14  1  0
 14 15  1  0
 14 16  2  0
 14 17  2  0
 13 18  1  0
 18 19  2  0
  9 20  1  0
 20 21  1  0
 21 22  2  0
 22 23  1  0
 23 24  2  0
 24 25  1  0
 24 26  1  0
 26 27  2  0
 20 28  1  0
  6 29  1  0
 29 30  2  0
 30  3  1  0
 28  7  1  0
 19 10  1  0
 27 21  1  0
  1 31  1  0
  1 32  1  0
  1 33  1  0
  2 34  1  0
  2 35  1  0
  4 36  1  0
  5 37  1  0
 11 38  1  0
 12 39  1  0
 15 40  1  0
 15 41  1  0
 18 42  1  0
 19 43  1  0
 20 44  1  0
 22 45  1  0
 23 46  1  0
 26 47  1  0
 27 48  1  0
 28 49  1  0
 28 50  1  0
 29 51  1  0
 30 52  1  0
M  END
$$$$
