
     RDKit          3D

 57 59  0  0  0  0  0  0  0  0999 V2000
    7.2529    0.3723    1.6928 C   0  0  0  0  0  0  0  0  0  0  0  0
    6.4898   -0.7957    1.2366 N   0  0  0  0  0  0  0  0  0  0  0  0
    6.9162   -1.9800    1.9899 C   0  0  0  0  0  0  0  0  0  0  0  0
    6.6751   -1.0319   -0.2174 C   0  0  0  0  0  0  0  0  0  0  0  0
    5.9515    0.0248   -1.0772 C   0  0  0  0  0  0  0  0  0  0  0  0
    4.5701    0.1994   -0.5390 N   0  0  0  0  0  0  0  0  0  0  0  0
    3.8899    1.7082   -0.8698 S   0  0  0  0  0  6  0  0  0  0  0  0
    4.3037    2.5867    0.2013 O   0  0  0  0  0  0  0  0  0  0  0  0
    4.1175    2.0254   -2.2613 O   0  0  0  0  0  0  0  0  0  0  0  0
    2.1651    1.3512   -0.6809 C   0  0  0  0  0  0  0  0  0  0  0  0
    1.4391    1.9162    0.3664 C   0  0  0  0  0  0  0  0  0  0  0  0
    0.0760    1.6249    0.4958 C   0  0  0  0  0  0  0  0  0  0  0  0
   -0.5980    0.7753   -0.4042 C   0  0  0  0  0  0  0  0  0  0  0  0
   -1.9569    0.5824   -0.1450 N   0  0  0  0  0  0  0  0  0  0  0  0
   -2.3392   -0.7671    0.3349 C   0  0  0  0  0  0  0  0  0  0  0  0
   -3.7730   -0.7412    0.9215 C   0  0  0  0  0  0  0  0  0  0  0  0
   -4.7438   -0.1805   -0.0604 N   0  0  0  0  0  0  0  0  0  0  0  0
   -6.0858   -0.3573    0.3131 C   0  0  0  0  0  0  0  0  0  0  0  0
   -6.9768    0.7062    0.5331 C   0  0  0  0  0  0  0  0  0  0  0  0
   -8.3095    0.4768    0.8946 C   0  0  0  0  0  0  0  0  0  0  0  0
   -8.7703   -0.8238    1.0303 C   0  0  0  0  0  0  0  0  0  0  0  0
  -10.0460   -1.0424    1.3742 F   0  0  0  0  0  0  0  0  0  0  0  0
   -7.9257   -1.8991    0.8075 C   0  0  0  0  0  0  0  0  0  0  0  0
   -6.5954   -1.6630    0.4484 C   0  0  0  0  0  0  0  0  0  0  0  0
   -4.3318    1.1527   -0.5674 C   0  0  0  0  0  0  0  0  0  0  0  0
   -2.9033    1.0980   -1.1622 C   0  0  0  0  0  0  0  0  0  0  0  0
    0.1757    0.2323   -1.4458 C   0  0  0  0  0  0  0  0  0  0  0  0
   -0.3990   -0.6645   -2.4200 N   0  0  0  0  0  4  0  0  0  0  0  0
   -0.3724   -1.8745   -2.1549 O   0  0  0  0  0  0  0  0  0  0  0  0
   -0.8251   -0.1595   -3.4678 O   0  0  0  0  0  1  0  0  0  0  0  0
    1.5431    0.5085   -1.6007 C   0  0  0  0  0  0  0  0  0  0  0  0
    8.3264    0.2635    1.5029 H   0  0  0  0  0  0  0  0  0  0  0  0
    6.9057    1.2889    1.2060 H   0  0  0  0  0  0  0  0  0  0  0  0
    7.1086    0.5252    2.7687 H   0  0  0  0  0  0  0  0  0  0  0  0
    7.9776   -2.2060    1.8415 H   0  0  0  0  0  0  0  0  0  0  0  0
    6.3311   -2.8571    1.6935 H   0  0  0  0  0  0  0  0  0  0  0  0
    6.7384   -1.8364    3.0608 H   0  0  0  0  0  0  0  0  0  0  0  0
    7.7365   -1.0802   -0.4897 H   0  0  0  0  0  0  0  0  0  0  0  0
    6.2330   -2.0041   -0.4719 H   0  0  0  0  0  0  0  0  0  0  0  0
    5.8956   -0.3030   -2.1200 H   0  0  0  0  0  0  0  0  0  0  0  0
    6.5034    0.9700   -1.0350 H   0  0  0  0  0  0  0  0  0  0  0  0
    4.6454    0.0907    0.4840 H   0  0  0  0  0  0  0  0  0  0  0  0
    1.9149    2.5816    1.0841 H   0  0  0  0  0  0  0  0  0  0  0  0
   -0.4805    2.0739    1.3184 H   0  0  0  0  0  0  0  0  0  0  0  0
   -1.6454   -1.1063    1.1135 H   0  0  0  0  0  0  0  0  0  0  0  0
   -2.3114   -1.4896   -0.4875 H   0  0  0  0  0  0  0  0  0  0  0  0
   -4.0323   -1.7660    1.2094 H   0  0  0  0  0  0  0  0  0  0  0  0
   -3.7842   -0.1253    1.8304 H   0  0  0  0  0  0  0  0  0  0  0  0
   -6.6529    1.7384    0.4449 H   0  0  0  0  0  0  0  0  0  0  0  0
   -8.9857    1.3075    1.0684 H   0  0  0  0  0  0  0  0  0  0  0  0
   -8.3024   -2.9117    0.9021 H   0  0  0  0  0  0  0  0  0  0  0  0
   -5.9554   -2.5177    0.2416 H   0  0  0  0  0  0  0  0  0  0  0  0
   -5.0163    1.4877   -1.3564 H   0  0  0  0  0  0  0  0  0  0  0  0
   -4.3490    1.8860    0.2494 H   0  0  0  0  0  0  0  0  0  0  0  0
   -2.9157    0.4500   -2.0444 H   0  0  0  0  0  0  0  0  0  0  0  0
   -2.6121    2.1068   -1.4774 H   0  0  0  0  0  0  0  0  0  0  0  0
    2.1130    0.0726   -2.4196 H   0  0  0  0  0  0  0  0  0  0  0  0
  1  2  1  0
  2  3  1  0
  2  4  1  0
  4  5  1  0
  5  6  1  0
  6  7  1  0
  7  8  2  0
  7  9  2  0
  7 10  1  0
 10 11  2  0
 11 12  1  0
 12 13  2  0
 13 14  1  0
 14 15  1  0
 15 16  1  0
 16 17  1  0
 17 18  1  0
 18 19  2  0
 19 20  1  0
 20 21  2  0
 21 22  1  0
 21 23  1  0
 23 24  2  0
 17 25  1  0
 25 26  1  0
 13 27  1  0
 27 28  1  0
 28 29  2  0
 28 30  1  0
 27 31  2  0
 31 10  1  0
 26 14  1  0
 24 18  1  0
  1 32  1  0
  1 33  1  0
  1 34  1  0
  3 35  1  0
  3 36  1  0
  3 37  1  0
  4 38  1  0
  4 39  1  0
  5 40  1  0
  5 41  1  0
  6 42  1  0
 11 43  1  0
 12 44  1  0
 15 45  1  0
 15 46  1  0
 16 47  1  0
 16 48  1  0
 19 49  1  0
 20 50  1  0
 23 51  1  0
 24 52  1  0
 25 53  1  0
 25 54  1  0
 26 55  1  0
 26 56  1  0
 31 57  1  0
M  CHG  2  28   1  30  -1
M  END
$$$$
