
     RDKit          3D

 55 58  0  0  0  0  0  0  0  0999 V2000
   -3.2481    1.2529    2.4302 C   0  0  0  0  0  0  0  0  0  0  0  0
   -3.9460   -0.0844    2.2264 C   0  0  0  0  0  0  0  0  0  0  0  0
   -4.6336   -0.1276    0.9309 N   0  0  0  0  0  0  0  0  0  0  0  0
   -5.9534    0.2544    0.7540 C   0  0  0  0  0  0  0  0  0  0  0  0
   -6.6265    0.2697   -0.4095 C   0  0  0  0  0  0  0  0  0  0  0  0
   -8.0347    0.7048   -0.4808 C   0  0  0  0  0  0  0  0  0  0  0  0
   -8.7110    0.8559   -1.4804 O   0  0  0  0  0  0  0  0  0  0  0  0
   -8.5794    0.9503    0.7290 O   0  0  0  0  0  0  0  0  0  0  0  0
   -5.8653   -0.1635   -1.6118 C   0  0  0  0  0  0  0  0  0  0  0  0
   -6.3591   -0.2275   -2.7315 O   0  0  0  0  0  0  0  0  0  0  0  0
   -4.4531   -0.5321   -1.4318 C   0  0  0  0  0  0  0  0  0  0  0  0
   -3.6638   -0.9127   -2.4861 C   0  0  0  0  0  0  0  0  0  0  0  0
   -2.3660   -1.2480   -2.3474 N   0  0  0  0  0  0  0  0  0  0  0  0
   -1.8362   -1.1986   -1.1147 C   0  0  0  0  0  0  0  0  0  0  0  0
   -0.5155   -1.5531   -0.9456 N   0  0  0  0  0  0  0  0  0  0  0  0
    0.2899   -1.7824   -2.1462 C   0  0  0  0  0  0  0  0  0  0  0  0
    1.6698   -2.3447   -1.7623 C   0  0  0  0  0  0  0  0  0  0  0  0
    2.4241   -1.4785   -0.8300 N   0  0  0  0  0  0  0  0  0  0  0  0
    3.7419   -1.7284   -0.5237 C   0  0  0  0  0  0  0  0  0  0  0  0
    4.5315   -3.1907   -0.8049 S   0  0  0  0  0  0  0  0  0  0  0  0
    4.5301   -0.7661    0.0661 N   0  0  0  0  0  0  0  0  0  0  0  0
    4.5059    0.6304    0.0439 C   0  0  0  0  0  0  0  0  0  0  0  0
    3.5586    1.3504   -0.2405 O   0  0  0  0  0  0  0  0  0  0  0  0
    5.7703    1.2775    0.4924 C   0  0  0  0  0  0  0  0  0  0  0  0
    7.0257    0.7847    0.1112 C   0  0  0  0  0  0  0  0  0  0  0  0
    8.1862    1.4212    0.5568 C   0  0  0  0  0  0  0  0  0  0  0  0
    8.0968    2.5518    1.3694 C   0  0  0  0  0  0  0  0  0  0  0  0
    6.8485    3.0573    1.7319 C   0  0  0  0  0  0  0  0  0  0  0  0
    5.6855    2.4256    1.2897 C   0  0  0  0  0  0  0  0  0  0  0  0
    1.5795   -0.5602   -0.0417 C   0  0  0  0  0  0  0  0  0  0  0  0
    0.1816   -1.1336    0.2736 C   0  0  0  0  0  0  0  0  0  0  0  0
   -2.5553   -0.8418   -0.0357 N   0  0  0  0  0  0  0  0  0  0  0  0
   -3.8550   -0.5090   -0.1876 C   0  0  0  0  0  0  0  0  0  0  0  0
   -2.7714    1.2842    3.4148 H   0  0  0  0  0  0  0  0  0  0  0  0
   -3.9610    2.0822    2.3704 H   0  0  0  0  0  0  0  0  0  0  0  0
   -2.4748    1.4219    1.6742 H   0  0  0  0  0  0  0  0  0  0  0  0
   -3.2322   -0.9099    2.3380 H   0  0  0  0  0  0  0  0  0  0  0  0
   -4.6772   -0.2246    3.0330 H   0  0  0  0  0  0  0  0  0  0  0  0
   -6.4299    0.5603    1.6830 H   0  0  0  0  0  0  0  0  0  0  0  0
   -9.4968    1.2184    0.5063 H   0  0  0  0  0  0  0  0  0  0  0  0
   -4.0505   -0.9627   -3.5002 H   0  0  0  0  0  0  0  0  0  0  0  0
    0.4172   -0.8416   -2.6970 H   0  0  0  0  0  0  0  0  0  0  0  0
   -0.1968   -2.5065   -2.8109 H   0  0  0  0  0  0  0  0  0  0  0  0
    2.2712   -2.4982   -2.6654 H   0  0  0  0  0  0  0  0  0  0  0  0
    1.5362   -3.3170   -1.2712 H   0  0  0  0  0  0  0  0  0  0  0  0
    5.4218   -1.1690    0.3213 H   0  0  0  0  0  0  0  0  0  0  0  0
    7.1207   -0.0701   -0.5531 H   0  0  0  0  0  0  0  0  0  0  0  0
    9.1622    1.0438    0.2609 H   0  0  0  0  0  0  0  0  0  0  0  0
    9.0022    3.0479    1.7114 H   0  0  0  0  0  0  0  0  0  0  0  0
    6.7807    3.9470    2.3531 H   0  0  0  0  0  0  0  0  0  0  0  0
    4.7138    2.8292    1.5674 H   0  0  0  0  0  0  0  0  0  0  0  0
    2.0719   -0.3086    0.9022 H   0  0  0  0  0  0  0  0  0  0  0  0
    1.4493    0.3467   -0.6420 H   0  0  0  0  0  0  0  0  0  0  0  0
   -0.3664   -0.3687    0.8364 H   0  0  0  0  0  0  0  0  0  0  0  0
    0.2862   -2.0086    0.9264 H   0  0  0  0  0  0  0  0  0  0  0  0
  1  2  1  0
  2  3  1  0
  3  4  1  0
  4  5  2  0
  5  6  1  0
  6  7  2  0
  6  8  1  0
  5  9  1  0
  9 10  2  0
  9 11  1  0
 11 12  2  0
 12 13  1  0
 13 14  2  0
 14 15  1  0
 15 16  1  0
 16 17  1  0
 17 18  1  0
 18 19  1  0
 19 20  2  0
 19 21  1  0
 21 22  1  0
 22 23  2  0
 22 24  1  0
 24 25  2  0
 25 26  1  0
 26 27  2  0
 27 28  1  0
 28 29  2  0
 18 30  1  0
 30 31  1  0
 14 32  1  0
 32 33  2  0
 33  3  1  0
 33 11  1  0
 31 15  1  0
 29 24  1  0
  1 34  1  0
  1 35  1  0
  1 36  1  0
  2 37  1  0
  2 38  1  0
  4 39  1  0
  8 40  1  0
 12 41  1  0
 16 42  1  0
 16 43  1  0
 17 44  1  0
 17 45  1  0
 21 46  1  0
 25 47  1  0
 26 48  1  0
 27 49  1  0
 28 50  1  0
 29 51  1  0
 30 52  1  0
 30 53  1  0
 31 54  1  0
 31 55  1  0
M  END
$$$$
