
     RDKit          3D

 48 50  0  0  0  0  0  0  0  0999 V2000
    5.8474   -2.3036   -0.4878 C   0  0  0  0  0  0  0  0  0  0  0  0
    5.3565   -1.0251   -1.1510 C   0  0  0  0  0  0  0  0  0  0  0  0
    3.8602   -0.7818   -0.9899 C   0  0  0  0  0  0  0  0  0  0  0  0
    3.3756   -0.4438    0.6929 S   0  0  0  0  0  6  0  0  0  0  0  0
    3.3020   -1.6904    1.4304 O   0  0  0  0  0  0  0  0  0  0  0  0
    4.1179    0.7016    1.1826 O   0  0  0  0  0  0  0  0  0  0  0  0
    1.6976    0.1019    0.5212 C   0  0  0  0  0  0  0  0  0  0  0  0
    1.0187    0.1500   -0.6038 N   0  0  0  0  0  0  0  0  0  0  0  0
   -0.2532    0.6658   -0.3348 C   0  0  0  0  0  0  0  0  0  0  0  0
   -1.4180    0.8460   -1.6281 S   0  0  0  0  0  6  0  0  0  0  0  0
   -0.6361    1.0396   -2.8324 O   0  0  0  0  0  0  0  0  0  0  0  0
   -2.3660    1.8451   -1.1609 O   0  0  0  0  0  0  0  0  0  0  0  0
   -2.2234   -0.7271   -1.7087 C   0  0  0  0  0  0  0  0  0  0  0  0
   -3.4819   -0.8940   -1.1289 C   0  0  0  0  0  0  0  0  0  0  0  0
   -4.1089   -2.1382   -1.1970 C   0  0  0  0  0  0  0  0  0  0  0  0
   -3.4820   -3.2166   -1.8357 C   0  0  0  0  0  0  0  0  0  0  0  0
   -4.1594   -4.5555   -1.9173 C   0  0  0  0  0  0  0  0  0  0  0  0
   -2.2306   -3.0254   -2.4374 C   0  0  0  0  0  0  0  0  0  0  0  0
   -1.6002   -1.7813   -2.3799 C   0  0  0  0  0  0  0  0  0  0  0  0
   -0.5270    0.9690    0.9986 C   0  0  0  0  0  0  0  0  0  0  0  0
   -1.6918    1.4516    1.5319 N   0  0  0  0  0  0  0  0  0  0  0  0
   -1.7407    2.1501    2.8185 C   0  0  0  0  0  0  0  0  0  0  0  0
   -1.1844    3.5338    2.8237 C   0  0  0  0  0  0  0  0  0  0  0  0
   -0.9798    4.4887    1.8483 C   0  0  0  0  0  0  0  0  0  0  0  0
   -0.4214    5.6138    2.5005 C   0  0  0  0  0  0  0  0  0  0  0  0
   -0.3216    5.2761    3.8290 C   0  0  0  0  0  0  0  0  0  0  0  0
   -0.7866    4.0188    4.0369 O   0  0  0  0  0  0  0  0  0  0  0  0
    0.8837    0.5988    1.9285 S   0  0  0  0  0  0  0  0  0  0  0  0
    5.2698   -3.1687   -0.8223 H   0  0  0  0  0  0  0  0  0  0  0  0
    5.7816   -2.2396    0.6023 H   0  0  0  0  0  0  0  0  0  0  0  0
    6.8981   -2.4784   -0.7452 H   0  0  0  0  0  0  0  0  0  0  0  0
    5.9249   -0.1723   -0.7669 H   0  0  0  0  0  0  0  0  0  0  0  0
    5.5753   -1.0953   -2.2243 H   0  0  0  0  0  0  0  0  0  0  0  0
    3.2804   -1.6431   -1.3348 H   0  0  0  0  0  0  0  0  0  0  0  0
    3.5827    0.0944   -1.5844 H   0  0  0  0  0  0  0  0  0  0  0  0
   -3.9828   -0.0715   -0.6232 H   0  0  0  0  0  0  0  0  0  0  0  0
   -5.0896   -2.2642   -0.7434 H   0  0  0  0  0  0  0  0  0  0  0  0
   -4.9558   -4.6412   -1.1719 H   0  0  0  0  0  0  0  0  0  0  0  0
   -4.5968   -4.6963   -2.9114 H   0  0  0  0  0  0  0  0  0  0  0  0
   -3.4421   -5.3608   -1.7230 H   0  0  0  0  0  0  0  0  0  0  0  0
   -1.7423   -3.8487   -2.9491 H   0  0  0  0  0  0  0  0  0  0  0  0
   -0.6286   -1.6432   -2.8496 H   0  0  0  0  0  0  0  0  0  0  0  0
   -2.3576    1.8626    0.8670 H   0  0  0  0  0  0  0  0  0  0  0  0
   -1.2703    1.5469    3.6040 H   0  0  0  0  0  0  0  0  0  0  0  0
   -2.7982    2.2243    3.1029 H   0  0  0  0  0  0  0  0  0  0  0  0
   -1.2064    4.3818    0.7951 H   0  0  0  0  0  0  0  0  0  0  0  0
   -0.1271    6.5535    2.0561 H   0  0  0  0  0  0  0  0  0  0  0  0
    0.0384    5.7920    4.7102 H   0  0  0  0  0  0  0  0  0  0  0  0
  1  2  1  0
  2  3  1  0
  3  4  1  0
  4  5  2  0
  4  6  2  0
  4  7  1  0
  7  8  2  0
  8  9  1  0
  9 10  1  0
 10 11  2  0
 10 12  2  0
 10 13  1  0
 13 14  2  0
 14 15  1  0
 15 16  2  0
 16 17  1  0
 16 18  1  0
 18 19  2  0
  9 20  2  0
 20 21  1  0
 21 22  1  0
 22 23  1  0
 23 24  2  0
 24 25  1  0
 25 26  2  0
 26 27  1  0
 20 28  1  0
 28  7  1  0
 19 13  1  0
 27 23  1  0
  1 29  1  0
  1 30  1  0
  1 31  1  0
  2 32  1  0
  2 33  1  0
  3 34  1  0
  3 35  1  0
 14 36  1  0
 15 37  1  0
 17 38  1  0
 17 39  1  0
 17 40  1  0
 18 41  1  0
 19 42  1  0
 21 43  1  0
 22 44  1  0
 22 45  1  0
 24 46  1  0
 25 47  1  0
 26 48  1  0
M  END
$$$$
