
     RDKit          3D

 51 54  0  0  0  0  0  0  0  0999 V2000
   -3.4845   -1.7618   -2.1550 C   0  0  0  0  0  0  0  0  0  0  0  0
   -2.9561   -1.1166   -1.0044 O   0  0  0  0  0  0  0  0  0  0  0  0
   -3.8102   -0.4071   -0.2113 C   0  0  0  0  0  0  0  0  0  0  0  0
   -5.1925   -0.3280   -0.4353 C   0  0  0  0  0  0  0  0  0  0  0  0
   -6.0158    0.4123    0.4139 C   0  0  0  0  0  0  0  0  0  0  0  0
   -5.4665    1.0815    1.4978 C   0  0  0  0  0  0  0  0  0  0  0  0
   -4.0940    1.0085    1.7306 C   0  0  0  0  0  0  0  0  0  0  0  0
   -3.2400    0.2660    0.8857 C   0  0  0  0  0  0  0  0  0  0  0  0
   -1.7483    0.2517    1.2297 C   0  0  0  0  0  0  0  0  0  0  0  0
   -1.2185   -1.1188    1.6896 C   0  0  0  0  0  0  0  0  0  0  0  0
   -0.4006   -1.8833    0.6488 C   0  0  0  0  0  0  0  0  0  0  0  0
    0.6050   -1.0740   -0.0456 N   0  0  0  0  0  0  0  0  0  0  0  0
    1.7078   -0.6795    0.8441 C   0  0  0  0  0  0  0  0  0  0  0  0
    2.8707   -0.1484    0.0530 C   0  0  0  0  0  0  0  0  0  0  0  0
    3.6239   -0.8387   -0.8882 C   0  0  0  0  0  0  0  0  0  0  0  0
    3.4978   -2.2305   -1.3914 C   0  0  0  0  0  0  0  0  0  0  0  0
    4.5826    0.0156   -1.3687 N   0  0  0  0  0  0  0  0  0  0  0  0
    4.4922    1.2412   -0.7545 C   0  0  0  0  0  0  0  0  0  0  0  0
    5.2660    2.3951   -0.9299 C   0  0  0  0  0  0  0  0  0  0  0  0
    4.9429    3.5162   -0.1607 C   0  0  0  0  0  0  0  0  0  0  0  0
    3.8873    3.4816    0.7461 C   0  0  0  0  0  0  0  0  0  0  0  0
    3.1243    2.3190    0.9077 C   0  0  0  0  0  0  0  0  0  0  0  0
    3.4285    1.1718    0.1441 C   0  0  0  0  0  0  0  0  0  0  0  0
   -0.0509    0.0526   -0.7201 C   0  0  0  0  0  0  0  0  0  0  0  0
   -0.8530    0.9701    0.2034 C   0  0  0  0  0  0  0  0  0  0  0  0
   -3.9300   -1.0381   -2.8454 H   0  0  0  0  0  0  0  0  0  0  0  0
   -4.2021   -2.5400   -1.8757 H   0  0  0  0  0  0  0  0  0  0  0  0
   -2.6536   -2.2482   -2.6749 H   0  0  0  0  0  0  0  0  0  0  0  0
   -5.6650   -0.8371   -1.2688 H   0  0  0  0  0  0  0  0  0  0  0  0
   -7.0849    0.4638    0.2263 H   0  0  0  0  0  0  0  0  0  0  0  0
   -6.1018    1.6601    2.1630 H   0  0  0  0  0  0  0  0  0  0  0  0
   -3.6903    1.5435    2.5883 H   0  0  0  0  0  0  0  0  0  0  0  0
   -1.6722    0.8799    2.1310 H   0  0  0  0  0  0  0  0  0  0  0  0
   -2.0355   -1.7552    2.0519 H   0  0  0  0  0  0  0  0  0  0  0  0
   -0.5708   -0.9522    2.5616 H   0  0  0  0  0  0  0  0  0  0  0  0
    0.0851   -2.7399    1.1342 H   0  0  0  0  0  0  0  0  0  0  0  0
   -1.0652   -2.3375   -0.0930 H   0  0  0  0  0  0  0  0  0  0  0  0
    2.0726   -1.5593    1.3911 H   0  0  0  0  0  0  0  0  0  0  0  0
    1.3899    0.0429    1.6033 H   0  0  0  0  0  0  0  0  0  0  0  0
    3.2460   -2.9174   -0.5773 H   0  0  0  0  0  0  0  0  0  0  0  0
    4.4332   -2.5778   -1.8423 H   0  0  0  0  0  0  0  0  0  0  0  0
    2.7104   -2.2893   -2.1494 H   0  0  0  0  0  0  0  0  0  0  0  0
    5.2645   -0.2170   -2.0763 H   0  0  0  0  0  0  0  0  0  0  0  0
    6.0882    2.4242   -1.6370 H   0  0  0  0  0  0  0  0  0  0  0  0
    5.5245    4.4280   -0.2740 H   0  0  0  0  0  0  0  0  0  0  0  0
    3.6507    4.3644    1.3344 H   0  0  0  0  0  0  0  0  0  0  0  0
    2.3028    2.3080    1.6169 H   0  0  0  0  0  0  0  0  0  0  0  0
   -0.7032   -0.3448   -1.5047 H   0  0  0  0  0  0  0  0  0  0  0  0
    0.6818    0.6543   -1.2713 H   0  0  0  0  0  0  0  0  0  0  0  0
   -0.1366    1.5894    0.7598 H   0  0  0  0  0  0  0  0  0  0  0  0
   -1.4367    1.6756   -0.4010 H   0  0  0  0  0  0  0  0  0  0  0  0
  1  2  1  0
  2  3  1  0
  3  4  2  0
  4  5  1  0
  5  6  2  0
  6  7  1  0
  7  8  2  0
  8  9  1  0
  9 10  1  0
 10 11  1  0
 11 12  1  0
 12 13  1  0
 13 14  1  0
 14 15  2  0
 15 16  1  0
 15 17  1  0
 17 18  1  0
 18 19  2  0
 19 20  1  0
 20 21  2  0
 21 22  1  0
 22 23  2  0
 12 24  1  0
 24 25  1  0
  8  3  1  0
 25  9  1  0
 23 14  1  0
 23 18  1  0
  1 26  1  0
  1 27  1  0
  1 28  1  0
  4 29  1  0
  5 30  1  0
  6 31  1  0
  7 32  1  0
  9 33  1  0
 10 34  1  0
 10 35  1  0
 11 36  1  0
 11 37  1  0
 13 38  1  0
 13 39  1  0
 16 40  1  0
 16 41  1  0
 16 42  1  0
 17 43  1  0
 19 44  1  0
 20 45  1  0
 21 46  1  0
 22 47  1  0
 24 48  1  0
 24 49  1  0
 25 50  1  0
 25 51  1  0
M  END
$$$$
