
     RDKit          3D

 32 35  0  0  0  0  0  0  0  0999 V2000
   -5.0803    3.2130    0.0029 C   0  0  0  0  0  0  0  0  0  0  0  0
   -3.8949    2.4309    0.0131 O   0  0  0  0  0  0  0  0  0  0  0  0
   -4.0333    1.0660    0.0264 C   0  0  0  0  0  0  0  0  0  0  0  0
   -5.2642    0.3893    0.0306 C   0  0  0  0  0  0  0  0  0  0  0  0
   -5.3211   -1.0036    0.0443 C   0  0  0  0  0  0  0  0  0  0  0  0
   -4.1551   -1.7685    0.0544 C   0  0  0  0  0  0  0  0  0  0  0  0
   -2.9247   -1.0949    0.0503 C   0  0  0  0  0  0  0  0  0  0  0  0
   -1.3395   -1.7571    0.0602 S   0  0  0  0  0  0  0  0  0  0  0  0
   -0.6538   -0.1787    0.0460 C   0  0  0  0  0  0  0  0  0  0  0  0
    0.6674    0.1044    0.0459 N   0  0  0  0  0  0  0  0  0  0  0  0
    1.7257   -0.7182    0.0564 C   0  0  0  0  0  0  0  0  0  0  0  0
    1.8377   -2.0275    0.0697 N   0  0  0  0  0  0  0  0  0  0  0  0
    3.1870   -2.3119    0.0753 N   0  0  0  0  0  0  0  0  0  0  0  0
    3.8234   -1.1557    0.0652 C   0  0  0  0  0  0  0  0  0  0  0  0
    5.2493   -0.9914    0.0665 C   0  0  0  0  0  0  0  0  0  0  0  0
    5.9450    0.2039    0.0561 C   0  0  0  0  0  0  0  0  0  0  0  0
    7.3588    0.0149    0.0610 C   0  0  0  0  0  0  0  0  0  0  0  0
    7.6978   -1.3190    0.0750 C   0  0  0  0  0  0  0  0  0  0  0  0
    6.3191   -2.3303    0.0821 S   0  0  0  0  0  0  0  0  0  0  0  0
    2.9437   -0.0964    0.0528 O   0  0  0  0  0  0  0  0  0  0  0  0
   -1.5373    0.7925    0.0344 N   0  0  0  0  0  0  0  0  0  0  0  0
   -2.8384    0.2964    0.0366 C   0  0  0  0  0  0  0  0  0  0  0  0
   -5.6701    3.0248   -0.9003 H   0  0  0  0  0  0  0  0  0  0  0  0
   -4.7856    4.2669   -0.0070 H   0  0  0  0  0  0  0  0  0  0  0  0
   -5.6739    3.0428    0.9070 H   0  0  0  0  0  0  0  0  0  0  0  0
   -6.2058    0.9296    0.0232 H   0  0  0  0  0  0  0  0  0  0  0  0
   -6.2881   -1.5031    0.0473 H   0  0  0  0  0  0  0  0  0  0  0  0
   -4.1993   -2.8536    0.0651 H   0  0  0  0  0  0  0  0  0  0  0  0
    0.8695    1.0955    0.0365 H   0  0  0  0  0  0  0  0  0  0  0  0
    5.4638    1.1752    0.0454 H   0  0  0  0  0  0  0  0  0  0  0  0
    8.0883    0.8159    0.0546 H   0  0  0  0  0  0  0  0  0  0  0  0
    8.6889   -1.7523    0.0814 H   0  0  0  0  0  0  0  0  0  0  0  0
  1  2  1  0
  2  3  1  0
  3  4  2  0
  4  5  1  0
  5  6  2  0
  6  7  1  0
  7  8  1  0
  8  9  1  0
  9 10  1  0
 10 11  1  0
 11 12  2  0
 12 13  1  0
 13 14  2  0
 14 15  1  0
 15 16  2  0
 16 17  1  0
 17 18  2  0
 18 19  1  0
 14 20  1  0
  9 21  2  0
 21 22  1  0
 22  3  1  0
 22  7  2  0
 20 11  1  0
 19 15  1  0
  1 23  1  0
  1 24  1  0
  1 25  1  0
  4 26  1  0
  5 27  1  0
  6 28  1  0
 10 29  1  0
 16 30  1  0
 17 31  1  0
 18 32  1  0
M  END
$$$$
