
     RDKit          3D

 66 68  0  0  0  0  0  0  0  0999 V2000
   -2.2926   -5.3951   -0.4173 C   0  0  0  0  0  0  0  0  0  0  0  0
   -1.7658   -3.9652   -0.3474 C   0  0  0  0  0  0  0  0  0  0  0  0
   -2.3595   -3.1924    0.7590 N   0  0  0  0  0  0  0  0  0  0  0  0
   -3.7674   -2.8542    0.4962 C   0  0  0  0  0  0  0  0  0  0  0  0
   -4.4587   -2.1354    1.6518 C   0  0  0  0  0  0  0  0  0  0  0  0
   -1.5133   -2.0342    1.1103 C   0  0  0  0  0  0  0  0  0  0  0  0
   -1.3999   -0.9257    0.0452 C   0  0  0  0  0  0  0  0  0  0  0  0
   -0.5138    0.2543    0.5286 C   0  0  0  0  0  0  0  0  0  0  0  0
    0.9598   -0.1192    0.6594 C   0  0  0  0  0  0  0  0  0  0  0  0
    1.7038   -0.6235   -0.4086 C   0  0  0  0  0  0  0  0  0  0  0  0
    3.0600   -0.9524   -0.2520 C   0  0  0  0  0  0  0  0  0  0  0  0
    3.7364   -0.8086    0.9716 C   0  0  0  0  0  0  0  0  0  0  0  0
    5.0940   -1.1247    1.1203 N   0  0  0  0  0  0  0  0  0  0  0  0
    5.6179   -1.3305    2.4698 C   0  0  0  0  0  0  0  0  0  0  0  0
    5.7589   -1.8902    0.0668 C   0  0  0  0  0  0  0  0  0  0  0  0
    2.9728   -0.2830    2.0273 C   0  0  0  0  0  0  0  0  0  0  0  0
    1.6175    0.0498    1.8815 C   0  0  0  0  0  0  0  0  0  0  0  0
   -0.7081    1.5706   -0.2357 C   0  0  0  0  0  0  0  0  0  0  0  0
   -0.7104    2.7907    0.4667 C   0  0  0  0  0  0  0  0  0  0  0  0
   -0.5679    2.7641    1.8342 O   0  0  0  0  0  0  0  0  0  0  0  0
    0.5406    3.5499    2.2776 C   0  0  0  0  0  0  0  0  0  0  0  0
   -0.9260    4.0157   -0.1835 C   0  0  0  0  0  0  0  0  0  0  0  0
   -1.0873    4.0684   -1.5690 C   0  0  0  0  0  0  0  0  0  0  0  0
   -1.2936    5.2223   -2.2825 O   0  0  0  0  0  0  0  0  0  0  0  0
   -1.4020    6.4393   -1.5549 C   0  0  0  0  0  0  0  0  0  0  0  0
   -1.0365    2.8747   -2.3063 C   0  0  0  0  0  0  0  0  0  0  0  0
   -1.1770    2.8543   -3.7623 C   0  0  0  0  0  0  0  0  0  0  0  0
   -1.1201    1.7048   -4.4399 C   0  0  0  0  0  0  0  0  0  0  0  0
   -0.9174    0.4170   -3.7676 C   0  0  0  0  0  0  0  0  0  0  0  0
   -0.8612   -0.6294   -4.4025 O   0  0  0  0  0  0  0  0  0  0  0  0
   -0.7952    0.4583   -2.3876 O   0  0  0  0  0  0  0  0  0  0  0  0
   -0.8513    1.6557   -1.6328 C   0  0  0  0  0  0  0  0  0  0  0  0
   -2.1837   -5.9033    0.5464 H   0  0  0  0  0  0  0  0  0  0  0  0
   -3.3446   -5.4323   -0.7135 H   0  0  0  0  0  0  0  0  0  0  0  0
   -1.7247   -5.9641   -1.1609 H   0  0  0  0  0  0  0  0  0  0  0  0
   -0.6807   -4.0407   -0.2008 H   0  0  0  0  0  0  0  0  0  0  0  0
   -1.9226   -3.4683   -1.3127 H   0  0  0  0  0  0  0  0  0  0  0  0
   -4.3352   -3.7764    0.3307 H   0  0  0  0  0  0  0  0  0  0  0  0
   -3.8715   -2.2570   -0.4176 H   0  0  0  0  0  0  0  0  0  0  0  0
   -4.0747   -1.1204    1.7904 H   0  0  0  0  0  0  0  0  0  0  0  0
   -5.5317   -2.0525    1.4490 H   0  0  0  0  0  0  0  0  0  0  0  0
   -4.3379   -2.6878    2.5894 H   0  0  0  0  0  0  0  0  0  0  0  0
   -0.5116   -2.4091    1.3567 H   0  0  0  0  0  0  0  0  0  0  0  0
   -1.8754   -1.6024    2.0510 H   0  0  0  0  0  0  0  0  0  0  0  0
   -1.0071   -1.3634   -0.8769 H   0  0  0  0  0  0  0  0  0  0  0  0
   -2.4007   -0.5384   -0.1807 H   0  0  0  0  0  0  0  0  0  0  0  0
   -0.8873    0.4437    1.5451 H   0  0  0  0  0  0  0  0  0  0  0  0
    1.2496   -0.7727   -1.3848 H   0  0  0  0  0  0  0  0  0  0  0  0
    3.5697   -1.3314   -1.1328 H   0  0  0  0  0  0  0  0  0  0  0  0
    5.5699   -0.4091    3.0601 H   0  0  0  0  0  0  0  0  0  0  0  0
    6.6761   -1.6146    2.4458 H   0  0  0  0  0  0  0  0  0  0  0  0
    5.0742   -2.1287    2.9872 H   0  0  0  0  0  0  0  0  0  0  0  0
    6.8167   -2.0515    0.3036 H   0  0  0  0  0  0  0  0  0  0  0  0
    5.7459   -1.3496   -0.8858 H   0  0  0  0  0  0  0  0  0  0  0  0
    5.2940   -2.8742   -0.0599 H   0  0  0  0  0  0  0  0  0  0  0  0
    3.4140   -0.1105    3.0039 H   0  0  0  0  0  0  0  0  0  0  0  0
    1.0837    0.4461    2.7428 H   0  0  0  0  0  0  0  0  0  0  0  0
    1.4153    3.4320    1.6268 H   0  0  0  0  0  0  0  0  0  0  0  0
    0.8153    3.2025    3.2782 H   0  0  0  0  0  0  0  0  0  0  0  0
    0.2572    4.6046    2.3553 H   0  0  0  0  0  0  0  0  0  0  0  0
   -0.9780    4.9145    0.4199 H   0  0  0  0  0  0  0  0  0  0  0  0
   -0.4691    6.6693   -1.0300 H   0  0  0  0  0  0  0  0  0  0  0  0
   -1.5851    7.2432   -2.2746 H   0  0  0  0  0  0  0  0  0  0  0  0
   -2.2510    6.4122   -0.8644 H   0  0  0  0  0  0  0  0  0  0  0  0
   -1.3266    3.7932   -4.2853 H   0  0  0  0  0  0  0  0  0  0  0  0
   -1.2191    1.6706   -5.5179 H   0  0  0  0  0  0  0  0  0  0  0  0
  1  2  1  0
  2  3  1  0
  3  4  1  0
  4  5  1  0
  3  6  1  0
  6  7  1  0
  7  8  1  0
  8  9  1  0
  9 10  2  0
 10 11  1  0
 11 12  2  0
 12 13  1  0
 13 14  1  0
 13 15  1  0
 12 16  1  0
 16 17  2  0
  8 18  1  0
 18 19  2  0
 19 20  1  0
 20 21  1  0
 19 22  1  0
 22 23  2  0
 23 24  1  0
 24 25  1  0
 23 26  1  0
 26 27  1  0
 27 28  2  0
 28 29  1  0
 29 30  2  0
 29 31  1  0
 31 32  1  0
 17  9  1  0
 32 18  1  0
 32 26  2  0
  1 33  1  0
  1 34  1  0
  1 35  1  0
  2 36  1  0
  2 37  1  0
  4 38  1  0
  4 39  1  0
  5 40  1  0
  5 41  1  0
  5 42  1  0
  6 43  1  0
  6 44  1  0
  7 45  1  0
  7 46  1  0
  8 47  1  0
 10 48  1  0
 11 49  1  0
 14 50  1  0
 14 51  1  0
 14 52  1  0
 15 53  1  0
 15 54  1  0
 15 55  1  0
 16 56  1  0
 17 57  1  0
 21 58  1  0
 21 59  1  0
 21 60  1  0
 22 61  1  0
 25 62  1  0
 25 63  1  0
 25 64  1  0
 27 65  1  0
 28 66  1  0
M  END
$$$$
