
     RDKit          3D

 57 59  0  0  0  0  0  0  0  0999 V2000
    5.2931    3.5059    0.6275 C   0  0  0  0  0  0  0  0  0  0  0  0
    4.9800    2.1213    0.0556 C   0  0  0  0  0  0  0  0  0  0  0  0
    6.0071    1.1077    0.5663 C   0  0  0  0  0  0  0  0  0  0  0  0
    3.5397    1.7172    0.4210 C   0  0  0  0  0  0  0  0  0  0  0  0
    3.0646    0.4896   -0.2807 C   0  0  0  0  0  0  0  0  0  0  0  0
    2.8853   -0.8075    0.2497 C   0  0  0  0  0  0  0  0  0  0  0  0
    2.4219   -1.5466   -0.8112 C   0  0  0  0  0  0  0  0  0  0  0  0
    2.0039   -2.9539   -0.9789 C   0  0  0  0  0  0  0  0  0  0  0  0
    0.5860   -3.0427   -0.6991 N   0  0  0  0  0  0  0  0  0  0  0  0
    0.1252   -3.2523    0.5795 C   0  0  0  0  0  0  0  0  0  0  0  0
    0.8717   -3.4860    1.5267 O   0  0  0  0  0  0  0  0  0  0  0  0
   -1.3773   -3.1125    0.7735 C   0  0  0  0  0  0  0  0  0  0  0  0
   -2.1982   -3.9660   -0.2041 C   0  0  0  0  0  0  0  0  0  0  0  0
   -2.9668   -3.1257   -1.2153 C   0  0  0  0  0  0  0  0  0  0  0  0
   -3.8145   -2.0792   -0.5208 C   0  0  0  0  0  0  0  0  0  0  0  0
   -4.9511   -1.8179   -0.9033 O   0  0  0  0  0  0  0  0  0  0  0  0
   -3.1767   -1.4275    0.5272 N   0  0  0  0  0  0  0  0  0  0  0  0
   -3.8090   -0.2543    1.1229 C   0  0  0  0  0  0  0  0  0  0  0  0
   -3.3443    1.0345    0.4826 C   0  0  0  0  0  0  0  0  0  0  0  0
   -2.3594    1.8231    1.0925 C   0  0  0  0  0  0  0  0  0  0  0  0
   -1.9087    2.9924    0.4797 C   0  0  0  0  0  0  0  0  0  0  0  0
   -2.4362    3.3871   -0.7499 C   0  0  0  0  0  0  0  0  0  0  0  0
   -3.4262    2.6188   -1.3787 C   0  0  0  0  0  0  0  0  0  0  0  0
   -3.9940    3.0229   -2.7171 C   0  0  0  0  0  0  0  0  0  0  0  0
   -5.3545    2.9677   -2.7524 F   0  0  0  0  0  0  0  0  0  0  0  0
   -3.6669    4.2948   -3.0831 F   0  0  0  0  0  0  0  0  0  0  0  0
   -3.5594    2.2218   -3.7291 F   0  0  0  0  0  0  0  0  0  0  0  0
   -3.8691    1.4410   -0.7544 C   0  0  0  0  0  0  0  0  0  0  0  0
   -1.7486   -1.6296    0.7366 C   0  0  0  0  0  0  0  0  0  0  0  0
    2.3270   -0.7469   -1.9067 O   0  0  0  0  0  0  0  0  0  0  0  0
    2.7250    0.5355   -1.5757 N   0  0  0  0  0  0  0  0  0  0  0  0
    5.2188    3.5110    1.7203 H   0  0  0  0  0  0  0  0  0  0  0  0
    6.3062    3.8200    0.3548 H   0  0  0  0  0  0  0  0  0  0  0  0
    4.5964    4.2549    0.2363 H   0  0  0  0  0  0  0  0  0  0  0  0
    5.0748    2.1806   -1.0364 H   0  0  0  0  0  0  0  0  0  0  0  0
    7.0252    1.4355    0.3306 H   0  0  0  0  0  0  0  0  0  0  0  0
    5.8641    0.1276    0.1001 H   0  0  0  0  0  0  0  0  0  0  0  0
    5.9359    0.9824    1.6521 H   0  0  0  0  0  0  0  0  0  0  0  0
    2.8552    2.5393    0.1718 H   0  0  0  0  0  0  0  0  0  0  0  0
    3.4580    1.5731    1.5062 H   0  0  0  0  0  0  0  0  0  0  0  0
    3.0563   -1.1558    1.2580 H   0  0  0  0  0  0  0  0  0  0  0  0
    2.5656   -3.6123   -0.3089 H   0  0  0  0  0  0  0  0  0  0  0  0
    2.1596   -3.2912   -2.0083 H   0  0  0  0  0  0  0  0  0  0  0  0
   -0.0346   -2.6678   -1.4033 H   0  0  0  0  0  0  0  0  0  0  0  0
   -1.5903   -3.4982    1.7808 H   0  0  0  0  0  0  0  0  0  0  0  0
   -1.5773   -4.7043   -0.7240 H   0  0  0  0  0  0  0  0  0  0  0  0
   -2.9283   -4.5427    0.3800 H   0  0  0  0  0  0  0  0  0  0  0  0
   -2.2918   -2.6191   -1.9134 H   0  0  0  0  0  0  0  0  0  0  0  0
   -3.6267   -3.7759   -1.8001 H   0  0  0  0  0  0  0  0  0  0  0  0
   -3.5853   -0.2572    2.1964 H   0  0  0  0  0  0  0  0  0  0  0  0
   -4.8998   -0.3277    1.0369 H   0  0  0  0  0  0  0  0  0  0  0  0
   -1.9323    1.5295    2.0491 H   0  0  0  0  0  0  0  0  0  0  0  0
   -1.1417    3.5963    0.9590 H   0  0  0  0  0  0  0  0  0  0  0  0
   -2.0694    4.2997   -1.2177 H   0  0  0  0  0  0  0  0  0  0  0  0
   -4.6321    0.8307   -1.2411 H   0  0  0  0  0  0  0  0  0  0  0  0
   -1.2222   -1.0945   -0.0632 H   0  0  0  0  0  0  0  0  0  0  0  0
   -1.4543   -1.1665    1.6860 H   0  0  0  0  0  0  0  0  0  0  0  0
  1  2  1  0
  2  3  1  0
  2  4  1  0
  4  5  1  0
  5  6  1  0
  6  7  2  0
  7  8  1  0
  8  9  1  0
  9 10  1  0
 10 11  2  0
 10 12  1  0
 12 13  1  0
 13 14  1  0
 14 15  1  0
 15 16  2  0
 15 17  1  0
 17 18  1  0
 18 19  1  0
 19 20  2  0
 20 21  1  0
 21 22  2  0
 22 23  1  0
 23 24  1  0
 24 25  1  0
 24 26  1  0
 24 27  1  0
 23 28  2  0
 17 29  1  0
  7 30  1  0
 30 31  1  0
 31  5  2  0
 29 12  1  0
 28 19  1  0
  1 32  1  0
  1 33  1  0
  1 34  1  0
  2 35  1  0
  3 36  1  0
  3 37  1  0
  3 38  1  0
  4 39  1  0
  4 40  1  0
  6 41  1  0
  8 42  1  0
  8 43  1  0
  9 44  1  0
 12 45  1  0
 13 46  1  0
 13 47  1  0
 14 48  1  0
 14 49  1  0
 18 50  1  0
 18 51  1  0
 20 52  1  0
 21 53  1  0
 22 54  1  0
 28 55  1  0
 29 56  1  0
 29 57  1  0
M  END
$$$$
