
     RDKit          3D

 46 48  0  0  0  0  0  0  0  0999 V2000
    5.6900   -0.9315    1.4179 C   0  0  0  0  0  0  0  0  0  0  0  0
    5.3109   -1.2355   -0.0297 C   0  0  0  0  0  0  0  0  0  0  0  0
    3.9070   -1.8627   -0.1345 C   0  0  0  0  0  0  0  0  0  0  0  0
    2.8461   -0.8869    0.1095 N   0  0  0  0  0  0  0  0  0  0  0  0
    1.6581   -1.3189    0.7073 C   0  0  0  0  0  0  0  0  0  0  0  0
    1.4710   -2.5194    0.9202 O   0  0  0  0  0  0  0  0  0  0  0  0
    0.6159   -0.3502    1.0932 C   0  0  0  0  0  0  0  0  0  0  0  0
   -0.7078   -0.6828    1.4973 C   0  0  0  0  0  0  0  0  0  0  0  0
   -1.3066    0.5177    1.7859 C   0  0  0  0  0  0  0  0  0  0  0  0
   -2.6475    0.9313    2.2545 C   0  0  0  0  0  0  0  0  0  0  0  0
   -3.6282    0.0357    1.7259 O   0  0  0  0  0  0  0  0  0  0  0  0
   -4.2147    0.3516    0.5325 C   0  0  0  0  0  0  0  0  0  0  0  0
   -3.7329    1.2668   -0.4020 C   0  0  0  0  0  0  0  0  0  0  0  0
   -4.4266    1.4814   -1.5956 C   0  0  0  0  0  0  0  0  0  0  0  0
   -5.6019    0.7800   -1.8621 C   0  0  0  0  0  0  0  0  0  0  0  0
   -6.0979   -0.1469   -0.9366 C   0  0  0  0  0  0  0  0  0  0  0  0
   -7.3544   -0.9315   -1.2160 C   0  0  0  0  0  0  0  0  0  0  0  0
   -8.1205   -0.3900   -2.2044 F   0  0  0  0  0  0  0  0  0  0  0  0
   -7.0929   -2.2094   -1.6048 F   0  0  0  0  0  0  0  0  0  0  0  0
   -8.1694   -1.0296   -0.1293 F   0  0  0  0  0  0  0  0  0  0  0  0
   -5.3860   -0.3590    0.2547 C   0  0  0  0  0  0  0  0  0  0  0  0
   -0.4064    1.5145    1.5895 O   0  0  0  0  0  0  0  0  0  0  0  0
    0.7927    0.9806    1.1669 N   0  0  0  0  0  0  0  0  0  0  0  0
    3.1058    0.4636   -0.4020 C   0  0  0  0  0  0  0  0  0  0  0  0
    4.2881    0.4842   -1.3860 C   0  0  0  0  0  0  0  0  0  0  0  0
    4.5789    1.9019   -1.8594 C   0  0  0  0  0  0  0  0  0  0  0  0
    5.4873   -0.0271   -0.7894 O   0  0  0  0  0  0  0  0  0  0  0  0
    6.7137   -0.5443    1.4712 H   0  0  0  0  0  0  0  0  0  0  0  0
    5.6272   -1.8285    2.0410 H   0  0  0  0  0  0  0  0  0  0  0  0
    5.0441   -0.1590    1.8473 H   0  0  0  0  0  0  0  0  0  0  0  0
    6.0385   -1.9572   -0.4189 H   0  0  0  0  0  0  0  0  0  0  0  0
    3.7481   -2.2375   -1.1533 H   0  0  0  0  0  0  0  0  0  0  0  0
    3.8190   -2.7179    0.5447 H   0  0  0  0  0  0  0  0  0  0  0  0
   -1.1490   -1.6672    1.5579 H   0  0  0  0  0  0  0  0  0  0  0  0
   -2.8798    1.9778    2.0318 H   0  0  0  0  0  0  0  0  0  0  0  0
   -2.6823    0.8312    3.3436 H   0  0  0  0  0  0  0  0  0  0  0  0
   -2.8118    1.8192   -0.2452 H   0  0  0  0  0  0  0  0  0  0  0  0
   -4.0437    2.1937   -2.3233 H   0  0  0  0  0  0  0  0  0  0  0  0
   -6.1281    0.9578   -2.7986 H   0  0  0  0  0  0  0  0  0  0  0  0
   -5.7512   -1.0841    0.9810 H   0  0  0  0  0  0  0  0  0  0  0  0
    2.2081    0.8409   -0.9019 H   0  0  0  0  0  0  0  0  0  0  0  0
    3.3331    1.0920    0.4675 H   0  0  0  0  0  0  0  0  0  0  0  0
    4.0603   -0.1360   -2.2623 H   0  0  0  0  0  0  0  0  0  0  0  0
    3.7117    2.3381   -2.3633 H   0  0  0  0  0  0  0  0  0  0  0  0
    4.8571    2.5451   -1.0170 H   0  0  0  0  0  0  0  0  0  0  0  0
    5.4268    1.9079   -2.5541 H   0  0  0  0  0  0  0  0  0  0  0  0
  1  2  1  0
  2  3  1  0
  3  4  1  0
  4  5  1  0
  5  6  2  0
  5  7  1  0
  7  8  1  0
  8  9  2  0
  9 10  1  0
 10 11  1  0
 11 12  1  0
 12 13  2  0
 13 14  1  0
 14 15  2  0
 15 16  1  0
 16 17  1  0
 17 18  1  0
 17 19  1  0
 17 20  1  0
 16 21  2  0
  9 22  1  0
 22 23  1  0
  4 24  1  0
 24 25  1  0
 25 26  1  0
 25 27  1  0
 27  2  1  0
 23  7  2  0
 21 12  1  0
  1 28  1  0
  1 29  1  0
  1 30  1  0
  2 31  1  0
  3 32  1  0
  3 33  1  0
  8 34  1  0
 10 35  1  0
 10 36  1  0
 13 37  1  0
 14 38  1  0
 15 39  1  0
 21 40  1  0
 24 41  1  0
 24 42  1  0
 25 43  1  0
 26 44  1  0
 26 45  1  0
 26 46  1  0
M  END
$$$$
