
     RDKit          3D

 40 42  0  0  0  0  0  0  0  0999 V2000
    2.7274    2.1768    3.0693 C   0  0  0  0  0  0  0  0  0  0  0  0
    2.0727    3.2695    2.2414 C   0  0  0  0  0  0  0  0  0  0  0  0
    0.2552    3.1098    2.2249 S   0  0  0  0  0  0  0  0  0  0  0  0
    0.0151    1.7764    1.0569 C   0  0  0  0  0  0  0  0  0  0  0  0
   -1.2521    1.2530    0.9137 C   0  0  0  0  0  0  0  0  0  0  0  0
   -1.4212    0.2265    0.0068 C   0  0  0  0  0  0  0  0  0  0  0  0
   -2.6702   -0.3444   -0.2081 N   0  0  0  0  0  0  0  0  0  0  0  0
   -3.5714   -0.5840    0.9337 C   0  0  0  0  0  0  0  0  0  0  0  0
   -4.0895   -2.0329    0.9274 C   0  0  0  0  0  0  0  0  0  0  0  0
   -4.7752   -2.3961   -0.2781 O   0  0  0  0  0  0  0  0  0  0  0  0
   -4.2301   -1.7744   -1.4530 C   0  0  0  0  0  0  0  0  0  0  0  0
   -2.7681   -1.3269   -1.3007 C   0  0  0  0  0  0  0  0  0  0  0  0
   -0.3803   -0.2078   -0.7231 N   0  0  0  0  0  0  0  0  0  0  0  0
    0.8246    0.3582   -0.5267 C   0  0  0  0  0  0  0  0  0  0  0  0
    1.9606   -0.1445   -1.3285 C   0  0  0  0  0  0  0  0  0  0  0  0
    1.7958   -1.1819   -2.2688 C   0  0  0  0  0  0  0  0  0  0  0  0
    2.8695   -1.6613   -3.0288 C   0  0  0  0  0  0  0  0  0  0  0  0
    4.1348   -1.1090   -2.8618 C   0  0  0  0  0  0  0  0  0  0  0  0
    5.4562   -1.6953   -3.7934 Cl  0  0  0  0  0  0  0  0  0  0  0  0
    4.3345   -0.0839   -1.9435 C   0  0  0  0  0  0  0  0  0  0  0  0
    3.2570    0.3912   -1.1863 C   0  0  0  0  0  0  0  0  0  0  0  0
    1.0660    1.3428    0.3501 N   0  0  0  0  0  0  0  0  0  0  0  0
    3.8115    2.3305    3.0936 H   0  0  0  0  0  0  0  0  0  0  0  0
    2.5470    1.1800    2.6557 H   0  0  0  0  0  0  0  0  0  0  0  0
    2.3696    2.1917    4.1045 H   0  0  0  0  0  0  0  0  0  0  0  0
    2.3052    4.2402    2.6923 H   0  0  0  0  0  0  0  0  0  0  0  0
    2.4734    3.2917    1.2232 H   0  0  0  0  0  0  0  0  0  0  0  0
   -2.0840    1.6543    1.4767 H   0  0  0  0  0  0  0  0  0  0  0  0
   -4.4177    0.1067    0.8438 H   0  0  0  0  0  0  0  0  0  0  0  0
   -3.0844   -0.4032    1.8986 H   0  0  0  0  0  0  0  0  0  0  0  0
   -4.7854   -2.1848    1.7588 H   0  0  0  0  0  0  0  0  0  0  0  0
   -3.2597   -2.7361    1.0669 H   0  0  0  0  0  0  0  0  0  0  0  0
   -4.3230   -2.4901   -2.2760 H   0  0  0  0  0  0  0  0  0  0  0  0
   -4.8668   -0.9146   -1.6924 H   0  0  0  0  0  0  0  0  0  0  0  0
   -2.1410   -2.1999   -1.0793 H   0  0  0  0  0  0  0  0  0  0  0  0
   -2.4353   -0.8833   -2.2466 H   0  0  0  0  0  0  0  0  0  0  0  0
    0.8139   -1.6299   -2.4169 H   0  0  0  0  0  0  0  0  0  0  0  0
    2.7064   -2.4623   -3.7447 H   0  0  0  0  0  0  0  0  0  0  0  0
    5.3206    0.3523   -1.8085 H   0  0  0  0  0  0  0  0  0  0  0  0
    3.4384    1.1951   -0.4740 H   0  0  0  0  0  0  0  0  0  0  0  0
  1  2  1  0
  2  3  1  0
  3  4  1  0
  4  5  2  0
  5  6  1  0
  6  7  1  0
  7  8  1  0
  8  9  1  0
  9 10  1  0
 10 11  1  0
 11 12  1  0
  6 13  2  0
 13 14  1  0
 14 15  1  0
 15 16  2  0
 16 17  1  0
 17 18  2  0
 18 19  1  0
 18 20  1  0
 20 21  2  0
 14 22  2  0
 22  4  1  0
 12  7  1  0
 21 15  1  0
  1 23  1  0
  1 24  1  0
  1 25  1  0
  2 26  1  0
  2 27  1  0
  5 28  1  0
  8 29  1  0
  8 30  1  0
  9 31  1  0
  9 32  1  0
 11 33  1  0
 11 34  1  0
 12 35  1  0
 12 36  1  0
 16 37  1  0
 17 38  1  0
 20 39  1  0
 21 40  1  0
M  END
$$$$
