
     RDKit          3D

 57 60  0  0  0  0  0  0  0  0999 V2000
    7.6797   -0.7486    1.6904 C   0  0  0  0  0  0  0  0  0  0  0  0
    7.2304   -1.6813    0.7164 O   0  0  0  0  0  0  0  0  0  0  0  0
    5.9135   -1.6226    0.3515 C   0  0  0  0  0  0  0  0  0  0  0  0
    5.5318   -2.5800   -0.5849 C   0  0  0  0  0  0  0  0  0  0  0  0
    4.2142   -2.6375   -1.0382 C   0  0  0  0  0  0  0  0  0  0  0  0
    3.2503   -1.7334   -0.5620 C   0  0  0  0  0  0  0  0  0  0  0  0
    1.8649   -1.8921   -1.1173 C   0  0  0  0  0  0  0  0  0  0  0  0
    1.6690   -2.5955   -2.1044 O   0  0  0  0  0  0  0  0  0  0  0  0
    0.8464   -1.2326   -0.4729 N   0  0  0  0  0  0  0  0  0  0  0  0
   -0.4941   -1.1741   -1.0137 C   0  0  0  0  0  0  0  0  0  0  0  0
   -0.5760   -0.1280   -2.1515 C   0  0  0  0  0  0  0  0  0  0  0  0
   -2.0222    0.3590   -2.4612 C   0  0  0  0  0  0  0  0  0  0  0  0
   -2.8860   -0.8062   -2.9857 C   0  0  0  0  0  0  0  0  0  0  0  0
   -1.9570    1.4340   -3.5633 C   0  0  0  0  0  0  0  0  0  0  0  0
   -2.6685    0.9891   -1.1866 C   0  0  0  0  0  0  0  0  0  0  0  0
   -2.3966    0.1625    0.0264 C   0  0  0  0  0  0  0  0  0  0  0  0
   -1.4253   -0.8211    0.0950 C   0  0  0  0  0  0  0  0  0  0  0  0
   -1.6086   -1.4137    1.3484 C   0  0  0  0  0  0  0  0  0  0  0  0
   -2.5911   -0.8419    2.0401 N   0  0  0  0  0  0  0  0  0  0  0  0
   -3.0485    0.1779    1.2538 N   0  0  0  0  0  0  0  0  0  0  0  0
   -4.0555    1.0508    1.7737 C   0  0  0  0  0  0  0  0  0  0  0  0
   -4.3995    2.2620    1.1627 C   0  0  0  0  0  0  0  0  0  0  0  0
   -5.3936    3.0780    1.7163 C   0  0  0  0  0  0  0  0  0  0  0  0
   -6.0479    2.6990    2.8864 C   0  0  0  0  0  0  0  0  0  0  0  0
   -5.7042    1.5061    3.5137 C   0  0  0  0  0  0  0  0  0  0  0  0
   -4.7120    0.6895    2.9653 C   0  0  0  0  0  0  0  0  0  0  0  0
    3.6344   -0.7480    0.3725 C   0  0  0  0  0  0  0  0  0  0  0  0
    2.6709    0.1357    0.7969 O   0  0  0  0  0  0  0  0  0  0  0  0
    3.0807    1.2549    1.5782 C   0  0  0  0  0  0  0  0  0  0  0  0
    4.9656   -0.7109    0.8273 C   0  0  0  0  0  0  0  0  0  0  0  0
    7.5861    0.2794    1.3242 H   0  0  0  0  0  0  0  0  0  0  0  0
    8.7416   -0.9415    1.8733 H   0  0  0  0  0  0  0  0  0  0  0  0
    7.1484   -0.8808    2.6389 H   0  0  0  0  0  0  0  0  0  0  0  0
    6.2631   -3.2906   -0.9639 H   0  0  0  0  0  0  0  0  0  0  0  0
    3.9401   -3.3994   -1.7662 H   0  0  0  0  0  0  0  0  0  0  0  0
    1.1056   -0.5560    0.2381 H   0  0  0  0  0  0  0  0  0  0  0  0
   -0.7591   -2.1627   -1.4078 H   0  0  0  0  0  0  0  0  0  0  0  0
   -0.1098   -0.5404   -3.0561 H   0  0  0  0  0  0  0  0  0  0  0  0
    0.0314    0.7477   -1.8780 H   0  0  0  0  0  0  0  0  0  0  0  0
   -3.0154   -1.5997   -2.2426 H   0  0  0  0  0  0  0  0  0  0  0  0
   -3.8867   -0.4572   -3.2655 H   0  0  0  0  0  0  0  0  0  0  0  0
   -2.4330   -1.2585   -3.8759 H   0  0  0  0  0  0  0  0  0  0  0  0
   -1.3377    2.2835   -3.2530 H   0  0  0  0  0  0  0  0  0  0  0  0
   -1.5274    1.0288   -4.4861 H   0  0  0  0  0  0  0  0  0  0  0  0
   -2.9557    1.8186   -3.7991 H   0  0  0  0  0  0  0  0  0  0  0  0
   -2.2327    1.9823   -1.0221 H   0  0  0  0  0  0  0  0  0  0  0  0
   -3.7458    1.1048   -1.3501 H   0  0  0  0  0  0  0  0  0  0  0  0
   -1.0759   -2.2502    1.7828 H   0  0  0  0  0  0  0  0  0  0  0  0
   -3.9009    2.6332    0.2777 H   0  0  0  0  0  0  0  0  0  0  0  0
   -5.6517    4.0185    1.2349 H   0  0  0  0  0  0  0  0  0  0  0  0
   -6.8188    3.3360    3.3122 H   0  0  0  0  0  0  0  0  0  0  0  0
   -6.2060    1.2057    4.4302 H   0  0  0  0  0  0  0  0  0  0  0  0
   -4.4675   -0.2398    3.4779 H   0  0  0  0  0  0  0  0  0  0  0  0
    3.8383    1.8498    1.0546 H   0  0  0  0  0  0  0  0  0  0  0  0
    3.4336    0.9355    2.5650 H   0  0  0  0  0  0  0  0  0  0  0  0
    2.2050    1.8932    1.7301 H   0  0  0  0  0  0  0  0  0  0  0  0
    5.2655    0.0287    1.5581 H   0  0  0  0  0  0  0  0  0  0  0  0
  1  2  1  0
  2  3  1  0
  3  4  2  0
  4  5  1  0
  5  6  2  0
  6  7  1  0
  7  8  2  0
  7  9  1  0
  9 10  1  0
 10 11  1  0
 11 12  1  0
 12 13  1  0
 12 14  1  0
 12 15  1  0
 15 16  1  0
 16 17  2  0
 17 18  1  0
 18 19  2  0
 19 20  1  0
 20 21  1  0
 21 22  2  0
 22 23  1  0
 23 24  2  0
 24 25  1  0
 25 26  2  0
  6 27  1  0
 27 28  1  0
 28 29  1  0
 27 30  2  0
 30  3  1  0
 17 10  1  0
 26 21  1  0
 20 16  1  0
  1 31  1  0
  1 32  1  0
  1 33  1  0
  4 34  1  0
  5 35  1  0
  9 36  1  0
 10 37  1  0
 11 38  1  0
 11 39  1  0
 13 40  1  0
 13 41  1  0
 13 42  1  0
 14 43  1  0
 14 44  1  0
 14 45  1  0
 15 46  1  0
 15 47  1  0
 18 48  1  0
 22 49  1  0
 23 50  1  0
 24 51  1  0
 25 52  1  0
 26 53  1  0
 29 54  1  0
 29 55  1  0
 29 56  1  0
 30 57  1  0
M  END
$$$$
