
     RDKit          3D

 48 48  0  0  0  0  0  0  0  0999 V2000
   -4.8513   -0.9160    3.1193 C   0  0  0  0  0  0  0  0  0  0  0  0
   -5.9286   -0.2720    2.2603 C   0  0  0  0  0  0  0  0  0  0  0  0
   -5.6170   -0.3042    0.7625 C   0  0  0  0  0  0  0  0  0  0  0  0
   -4.3991    0.5403    0.3774 C   0  0  0  0  0  0  0  0  0  0  0  0
   -4.1933    0.5515   -1.1397 C   0  0  0  0  0  0  0  0  0  0  0  0
   -3.0567    1.4721   -1.5939 C   0  0  0  0  0  0  0  0  0  0  0  0
   -1.6751    1.0139   -1.1202 C   0  0  0  0  0  0  0  0  0  0  0  0
   -0.5693    1.9007   -1.7033 C   0  0  0  0  0  0  0  0  0  0  0  0
    0.8223    1.4849   -1.2272 C   0  0  0  0  0  0  0  0  0  0  0  0
    1.3355    0.2091   -1.8763 C   0  0  0  0  0  0  0  0  0  0  0  0
    0.7620   -0.3487   -2.8059 O   0  0  0  0  0  0  0  0  0  0  0  0
    2.5332   -0.2048   -1.3040 N   0  0  0  0  0  0  0  0  0  0  0  0
    3.1085   -1.3730   -1.7064 N   0  0  0  0  0  0  0  0  0  0  0  0
    4.2473   -1.7321   -1.1940 C   0  0  0  0  0  0  0  0  0  0  0  0
    4.8023   -3.0786   -1.5958 C   0  0  0  0  0  0  0  0  0  0  0  0
    5.0628   -0.9386   -0.2578 C   0  0  0  0  0  0  0  0  0  0  0  0
    5.5985    0.2885   -0.6464 C   0  0  0  0  0  0  0  0  0  0  0  0
    6.3656    1.0055    0.2671 C   0  0  0  0  0  0  0  0  0  0  0  0
    6.5627    0.4641    1.5295 C   0  0  0  0  0  0  0  0  0  0  0  0
    6.0513   -0.7236    1.9279 N   0  0  0  0  0  0  0  0  0  0  0  0
    5.3138   -1.4070    1.0221 C   0  0  0  0  0  0  0  0  0  0  0  0
   -5.1760   -0.9518    4.1641 H   0  0  0  0  0  0  0  0  0  0  0  0
   -4.6482   -1.9407    2.7925 H   0  0  0  0  0  0  0  0  0  0  0  0
   -3.9167   -0.3486    3.0832 H   0  0  0  0  0  0  0  0  0  0  0  0
   -6.0857    0.7626    2.5869 H   0  0  0  0  0  0  0  0  0  0  0  0
   -6.8723   -0.8041    2.4297 H   0  0  0  0  0  0  0  0  0  0  0  0
   -6.4968    0.0679    0.2227 H   0  0  0  0  0  0  0  0  0  0  0  0
   -5.4647   -1.3417    0.4408 H   0  0  0  0  0  0  0  0  0  0  0  0
   -4.5354    1.5670    0.7375 H   0  0  0  0  0  0  0  0  0  0  0  0
   -3.5061    0.1372    0.8653 H   0  0  0  0  0  0  0  0  0  0  0  0
   -5.1181    0.8885   -1.6244 H   0  0  0  0  0  0  0  0  0  0  0  0
   -4.0046   -0.4688   -1.4951 H   0  0  0  0  0  0  0  0  0  0  0  0
   -3.0651    1.5076   -2.6904 H   0  0  0  0  0  0  0  0  0  0  0  0
   -3.2488    2.4935   -1.2435 H   0  0  0  0  0  0  0  0  0  0  0  0
   -1.5169   -0.0294   -1.4153 H   0  0  0  0  0  0  0  0  0  0  0  0
   -1.6225    1.0529   -0.0265 H   0  0  0  0  0  0  0  0  0  0  0  0
   -0.6162    1.8855   -2.7988 H   0  0  0  0  0  0  0  0  0  0  0  0
   -0.7469    2.9372   -1.3909 H   0  0  0  0  0  0  0  0  0  0  0  0
    1.5329    2.2814   -1.4802 H   0  0  0  0  0  0  0  0  0  0  0  0
    0.8282    1.3636   -0.1377 H   0  0  0  0  0  0  0  0  0  0  0  0
    2.9030    0.2849   -0.4977 H   0  0  0  0  0  0  0  0  0  0  0  0
    5.8279   -3.2156   -1.2431 H   0  0  0  0  0  0  0  0  0  0  0  0
    4.7954   -3.1622   -2.6867 H   0  0  0  0  0  0  0  0  0  0  0  0
    4.1710   -3.8666   -1.1748 H   0  0  0  0  0  0  0  0  0  0  0  0
    5.4299    0.6753   -1.6484 H   0  0  0  0  0  0  0  0  0  0  0  0
    6.8055    1.9610    0.0013 H   0  0  0  0  0  0  0  0  0  0  0  0
    7.1555    0.9862    2.2761 H   0  0  0  0  0  0  0  0  0  0  0  0
    4.9165   -2.3551    1.3732 H   0  0  0  0  0  0  0  0  0  0  0  0
  1  2  1  0
  2  3  1  0
  3  4  1  0
  4  5  1  0
  5  6  1  0
  6  7  1  0
  7  8  1  0
  8  9  1  0
  9 10  1  0
 10 11  2  0
 10 12  1  0
 12 13  1  0
 13 14  2  3
 14 15  1  0
 14 16  1  0
 16 17  2  0
 17 18  1  0
 18 19  2  0
 19 20  1  0
 20 21  2  0
 21 16  1  0
  1 22  1  0
  1 23  1  0
  1 24  1  0
  2 25  1  0
  2 26  1  0
  3 27  1  0
  3 28  1  0
  4 29  1  0
  4 30  1  0
  5 31  1  0
  5 32  1  0
  6 33  1  0
  6 34  1  0
  7 35  1  0
  7 36  1  0
  8 37  1  0
  8 38  1  0
  9 39  1  0
  9 40  1  0
 12 41  1  0
 15 42  1  0
 15 43  1  0
 15 44  1  0
 17 45  1  0
 18 46  1  0
 19 47  1  0
 21 48  1  0
M  END
$$$$
