
     RDKit          3D

 39 41  0  0  0  0  0  0  0  0999 V2000
   -6.1715    0.3143   -1.0884 C   0  0  0  0  0  0  0  0  0  0  0  0
   -4.7967   -0.0172   -1.2393 O   0  0  0  0  0  0  0  0  0  0  0  0
   -3.9966    0.0953   -0.1318 C   0  0  0  0  0  0  0  0  0  0  0  0
   -4.4039    0.6555    1.0844 C   0  0  0  0  0  0  0  0  0  0  0  0
   -3.5175    0.7348    2.1615 C   0  0  0  0  0  0  0  0  0  0  0  0
   -2.2178    0.2560    2.0345 C   0  0  0  0  0  0  0  0  0  0  0  0
   -1.8012   -0.3016    0.8278 C   0  0  0  0  0  0  0  0  0  0  0  0
   -2.6795   -0.3874   -0.2679 C   0  0  0  0  0  0  0  0  0  0  0  0
   -2.1810   -0.9771   -1.5702 C   0  0  0  0  0  0  0  0  0  0  0  0
   -1.5911    0.2882   -2.7362 S   0  0  0  0  0  0  0  0  0  0  0  0
   -0.0287    0.6242   -2.1005 C   0  0  0  0  0  0  0  0  0  0  0  0
    0.7772   -0.1884   -1.4640 N   0  0  0  0  0  0  0  0  0  0  0  0
    1.8897    0.5690   -1.1620 C   0  0  0  0  0  0  0  0  0  0  0  0
    3.0390    0.0344   -0.4480 C   0  0  0  0  0  0  0  0  0  0  0  0
    3.1646   -1.3569   -0.2930 C   0  0  0  0  0  0  0  0  0  0  0  0
    4.2620   -1.9126    0.3738 C   0  0  0  0  0  0  0  0  0  0  0  0
    5.2458   -1.0674    0.8982 C   0  0  0  0  0  0  0  0  0  0  0  0
    6.4031   -1.6401    1.5962 N   0  0  0  0  0  4  0  0  0  0  0  0
    6.4744   -2.8746    1.6805 O   0  0  0  0  0  0  0  0  0  0  0  0
    7.2427   -0.8559    2.0608 O   0  0  0  0  0  1  0  0  0  0  0  0
    5.1351    0.3225    0.7611 C   0  0  0  0  0  0  0  0  0  0  0  0
    4.0322    0.8663    0.0912 C   0  0  0  0  0  0  0  0  0  0  0  0
    1.7416    1.8522   -1.6491 C   0  0  0  0  0  0  0  0  0  0  0  0
    0.5124    1.8641   -2.2536 N   0  0  0  0  0  0  0  0  0  0  0  0
   -6.6432   -0.3046   -0.3175 H   0  0  0  0  0  0  0  0  0  0  0  0
   -6.6725    0.1023   -2.0375 H   0  0  0  0  0  0  0  0  0  0  0  0
   -6.2976    1.3810   -0.8779 H   0  0  0  0  0  0  0  0  0  0  0  0
   -5.4054    1.0497    1.2247 H   0  0  0  0  0  0  0  0  0  0  0  0
   -3.8447    1.1765    3.1001 H   0  0  0  0  0  0  0  0  0  0  0  0
   -1.5269    0.3221    2.8712 H   0  0  0  0  0  0  0  0  0  0  0  0
   -0.7792   -0.6635    0.7363 H   0  0  0  0  0  0  0  0  0  0  0  0
   -2.9890   -1.5363   -2.0561 H   0  0  0  0  0  0  0  0  0  0  0  0
   -1.3972   -1.7193   -1.3829 H   0  0  0  0  0  0  0  0  0  0  0  0
    2.4027   -2.0206   -0.7023 H   0  0  0  0  0  0  0  0  0  0  0  0
    4.3305   -2.9943    0.4690 H   0  0  0  0  0  0  0  0  0  0  0  0
    5.8905    0.9932    1.1662 H   0  0  0  0  0  0  0  0  0  0  0  0
    3.9620    1.9483    0.0024 H   0  0  0  0  0  0  0  0  0  0  0  0
    2.3737    2.7284   -1.6357 H   0  0  0  0  0  0  0  0  0  0  0  0
    0.0620    2.6394   -2.7190 H   0  0  0  0  0  0  0  0  0  0  0  0
  1  2  1  0
  2  3  1  0
  3  4  2  0
  4  5  1  0
  5  6  2  0
  6  7  1  0
  7  8  2  0
  8  9  1  0
  9 10  1  0
 10 11  1  0
 11 12  2  0
 12 13  1  0
 13 14  1  0
 14 15  2  0
 15 16  1  0
 16 17  2  0
 17 18  1  0
 18 19  2  0
 18 20  1  0
 17 21  1  0
 21 22  2  0
 13 23  2  0
 23 24  1  0
  8  3  1  0
 24 11  1  0
 22 14  1  0
  1 25  1  0
  1 26  1  0
  1 27  1  0
  4 28  1  0
  5 29  1  0
  6 30  1  0
  7 31  1  0
  9 32  1  0
  9 33  1  0
 15 34  1  0
 16 35  1  0
 21 36  1  0
 22 37  1  0
 23 38  1  0
 24 39  1  0
M  CHG  2  18   1  20  -1
M  END
$$$$
