
     RDKit          3D

 36 37  0  0  0  0  0  0  0  0999 V2000
    2.0924   -1.2989   -2.4478 C   0  0  0  0  0  0  0  0  0  0  0  0
    1.1654   -0.3720   -1.6540 C   0  0  0  0  0  0  0  0  0  0  0  0
   -0.0757   -1.1123   -1.4092 N   0  0  0  0  0  0  0  0  0  0  0  0
   -1.1624   -0.5120   -1.0541 C   0  0  0  0  0  0  0  0  0  0  0  0
   -1.3252    0.9824   -0.8100 C   0  0  0  0  0  0  0  0  0  0  0  0
   -1.4810    1.3364    0.6744 C   0  0  0  0  0  0  0  0  0  0  0  0
   -1.8133    0.1844    1.6256 C   0  0  0  0  0  0  0  0  0  0  0  0
   -3.1212   -0.5643    1.3497 C   0  0  0  0  0  0  0  0  0  0  0  0
   -3.4341   -0.8764   -0.1111 C   0  0  0  0  0  0  0  0  0  0  0  0
   -2.2640   -1.3047   -0.8420 N   0  0  0  0  0  0  0  0  0  0  0  0
    1.8646    0.0793   -0.3832 C   0  0  0  0  0  0  0  0  0  0  0  0
    1.9480   -0.7614    0.7372 C   0  0  0  0  0  0  0  0  0  0  0  0
    2.5979   -0.3398    1.8979 C   0  0  0  0  0  0  0  0  0  0  0  0
    3.1790    0.9252    1.9508 C   0  0  0  0  0  0  0  0  0  0  0  0
    3.1131    1.7678    0.8428 C   0  0  0  0  0  0  0  0  0  0  0  0
    2.4626    1.3470   -0.3188 C   0  0  0  0  0  0  0  0  0  0  0  0
    3.0381   -0.8016   -2.6901 H   0  0  0  0  0  0  0  0  0  0  0  0
    2.3263   -2.2131   -1.8898 H   0  0  0  0  0  0  0  0  0  0  0  0
    1.6189   -1.6026   -3.3882 H   0  0  0  0  0  0  0  0  0  0  0  0
    0.9617    0.4904   -2.3004 H   0  0  0  0  0  0  0  0  0  0  0  0
   -0.5125    1.5680   -1.2433 H   0  0  0  0  0  0  0  0  0  0  0  0
   -2.2212    1.3079   -1.3537 H   0  0  0  0  0  0  0  0  0  0  0  0
   -0.5419    1.7886    1.0180 H   0  0  0  0  0  0  0  0  0  0  0  0
   -2.2395    2.1228    0.7734 H   0  0  0  0  0  0  0  0  0  0  0  0
   -0.9847   -0.5344    1.6252 H   0  0  0  0  0  0  0  0  0  0  0  0
   -1.8527    0.5766    2.6498 H   0  0  0  0  0  0  0  0  0  0  0  0
   -3.9588    0.0107    1.7638 H   0  0  0  0  0  0  0  0  0  0  0  0
   -3.0927   -1.5041    1.9161 H   0  0  0  0  0  0  0  0  0  0  0  0
   -3.8830   -0.0022   -0.5960 H   0  0  0  0  0  0  0  0  0  0  0  0
   -4.1941   -1.6646   -0.1579 H   0  0  0  0  0  0  0  0  0  0  0  0
   -2.0364   -2.2930   -0.8044 H   0  0  0  0  0  0  0  0  0  0  0  0
    1.4962   -1.7510    0.7048 H   0  0  0  0  0  0  0  0  0  0  0  0
    2.6504   -1.0005    2.7589 H   0  0  0  0  0  0  0  0  0  0  0  0
    3.6861    1.2529    2.8541 H   0  0  0  0  0  0  0  0  0  0  0  0
    3.5704    2.7528    0.8819 H   0  0  0  0  0  0  0  0  0  0  0  0
    2.4234    2.0159   -1.1753 H   0  0  0  0  0  0  0  0  0  0  0  0
  1  2  1  0
  2  3  1  0
  3  4  2  3
  4  5  1  0
  5  6  1  0
  6  7  1  0
  7  8  1  0
  8  9  1  0
  9 10  1  0
  2 11  1  0
 11 12  2  0
 12 13  1  0
 13 14  2  0
 14 15  1  0
 15 16  2  0
 10  4  1  0
 16 11  1  0
  1 17  1  0
  1 18  1  0
  1 19  1  0
  2 20  1  0
  5 21  1  0
  5 22  1  0
  6 23  1  0
  6 24  1  0
  7 25  1  0
  7 26  1  0
  8 27  1  0
  8 28  1  0
  9 29  1  0
  9 30  1  0
 10 31  1  0
 12 32  1  0
 13 33  1  0
 14 34  1  0
 15 35  1  0
 16 36  1  0
M  END
$$$$
