
     RDKit          3D

 49 51  0  0  0  0  0  0  0  0999 V2000
   -0.0679    1.1183    1.6005 C   0  0  0  0  0  0  0  0  0  0  0  0
   -1.0673    0.0012    1.8635 C   0  0  0  0  0  0  0  0  0  0  0  0
   -1.1824   -0.9964    0.6911 C   0  0  0  0  0  0  0  0  0  0  0  0
   -2.0568   -2.1947    1.0737 C   0  0  0  0  0  0  0  0  0  0  0  0
   -1.6669   -0.3823   -0.5759 N   0  0  0  0  0  0  0  0  0  0  0  0
   -1.0071   -0.5166   -1.8056 C   0  0  0  0  0  0  0  0  0  0  0  0
   -1.4929   -0.0516   -2.8420 O   0  0  0  0  0  0  0  0  0  0  0  0
    0.2919   -1.2818   -1.8991 C   0  0  0  0  0  0  0  0  0  0  0  0
    1.4141   -0.5161   -1.4192 N   0  0  0  0  0  0  0  0  0  0  0  0
    1.6715    0.7326   -1.8341 N   0  0  0  0  0  0  0  0  0  0  0  0
    2.8030    1.0631   -1.2299 N   0  0  0  0  0  0  0  0  0  0  0  0
    3.1951   -0.0260   -0.4858 C   0  0  0  0  0  0  0  0  0  0  0  0
    4.4092   -0.0400    0.3205 C   0  0  0  0  0  0  0  0  0  0  0  0
    4.7876   -1.1927    1.0302 C   0  0  0  0  0  0  0  0  0  0  0  0
    5.9525   -1.2021    1.8020 C   0  0  0  0  0  0  0  0  0  0  0  0
    6.7406   -0.0597    1.8663 C   0  0  0  0  0  0  0  0  0  0  0  0
    7.8569   -0.0686    2.6063 F   0  0  0  0  0  0  0  0  0  0  0  0
    6.3867    1.0923    1.1743 C   0  0  0  0  0  0  0  0  0  0  0  0
    5.2220    1.1030    0.4015 C   0  0  0  0  0  0  0  0  0  0  0  0
    2.3297   -1.0523   -0.5856 N   0  0  0  0  0  0  0  0  0  0  0  0
   -2.9868    0.2920   -0.5520 C   0  0  0  0  0  0  0  0  0  0  0  0
   -4.0748   -0.3994   -1.3944 C   0  0  0  0  0  0  0  0  0  0  0  0
   -5.3123    0.4821   -1.2773 C   0  0  0  0  0  0  0  0  0  0  0  0
   -4.7042    2.1591   -1.1663 S   0  0  0  0  0  6  0  0  0  0  0  0
   -5.1694    2.7209    0.0859 O   0  0  0  0  0  0  0  0  0  0  0  0
   -4.9174    2.8234   -2.4338 O   0  0  0  0  0  0  0  0  0  0  0  0
   -2.9744    1.7591   -0.9888 C   0  0  0  0  0  0  0  0  0  0  0  0
   -0.0482    1.8109    2.4485 H   0  0  0  0  0  0  0  0  0  0  0  0
    0.9409    0.7158    1.4778 H   0  0  0  0  0  0  0  0  0  0  0  0
   -0.3238    1.6914    0.7051 H   0  0  0  0  0  0  0  0  0  0  0  0
   -0.7427   -0.5400    2.7611 H   0  0  0  0  0  0  0  0  0  0  0  0
   -2.0372    0.4441    2.1113 H   0  0  0  0  0  0  0  0  0  0  0  0
   -0.1808   -1.3972    0.5347 H   0  0  0  0  0  0  0  0  0  0  0  0
   -1.6377   -2.7214    1.9383 H   0  0  0  0  0  0  0  0  0  0  0  0
   -3.0756   -1.8896    1.3317 H   0  0  0  0  0  0  0  0  0  0  0  0
   -2.1220   -2.9064    0.2435 H   0  0  0  0  0  0  0  0  0  0  0  0
    0.4954   -1.5161   -2.9501 H   0  0  0  0  0  0  0  0  0  0  0  0
    0.2291   -2.2337   -1.3659 H   0  0  0  0  0  0  0  0  0  0  0  0
    4.1781   -2.0927    0.9838 H   0  0  0  0  0  0  0  0  0  0  0  0
    6.2483   -2.0914    2.3497 H   0  0  0  0  0  0  0  0  0  0  0  0
    7.0173    1.9737    1.2395 H   0  0  0  0  0  0  0  0  0  0  0  0
    4.9560    2.0124   -0.1358 H   0  0  0  0  0  0  0  0  0  0  0  0
   -3.3497    0.2704    0.4818 H   0  0  0  0  0  0  0  0  0  0  0  0
   -3.7914   -0.4729   -2.4488 H   0  0  0  0  0  0  0  0  0  0  0  0
   -4.2782   -1.4165   -1.0450 H   0  0  0  0  0  0  0  0  0  0  0  0
   -5.9764    0.3843   -2.1381 H   0  0  0  0  0  0  0  0  0  0  0  0
   -5.8617    0.2644   -0.3564 H   0  0  0  0  0  0  0  0  0  0  0  0
   -2.4951    1.9308   -1.9540 H   0  0  0  0  0  0  0  0  0  0  0  0
   -2.5250    2.4134   -0.2385 H   0  0  0  0  0  0  0  0  0  0  0  0
  1  2  1  0
  2  3  1  0
  3  4  1  0
  3  5  1  0
  5  6  1  0
  6  7  2  0
  6  8  1  0
  8  9  1  0
  9 10  1  0
 10 11  2  0
 11 12  1  0
 12 13  1  0
 13 14  2  0
 14 15  1  0
 15 16  2  0
 16 17  1  0
 16 18  1  0
 18 19  2  0
 12 20  2  0
  5 21  1  0
 21 22  1  0
 22 23  1  0
 23 24  1  0
 24 25  2  0
 24 26  2  0
 24 27  1  0
 20  9  1  0
 27 21  1  0
 19 13  1  0
  1 28  1  0
  1 29  1  0
  1 30  1  0
  2 31  1  0
  2 32  1  0
  3 33  1  0
  4 34  1  0
  4 35  1  0
  4 36  1  0
  8 37  1  0
  8 38  1  0
 14 39  1  0
 15 40  1  0
 18 41  1  0
 19 42  1  0
 21 43  1  0
 22 44  1  0
 22 45  1  0
 23 46  1  0
 23 47  1  0
 27 48  1  0
 27 49  1  0
M  END
$$$$
