
     RDKit          3D

 41 42  0  0  0  0  0  0  0  0999 V2000
   -6.1649    0.8273    2.3155 C   0  0  0  0  0  0  0  0  0  0  0  0
   -5.8778    0.8602    0.8270 C   0  0  0  0  0  0  0  0  0  0  0  0
   -4.4948    0.5432    0.6328 O   0  0  0  0  0  0  0  0  0  0  0  0
   -4.0967    0.5404   -0.6686 C   0  0  0  0  0  0  0  0  0  0  0  0
   -4.8429    0.7798   -1.6104 O   0  0  0  0  0  0  0  0  0  0  0  0
   -2.7609    0.2286   -0.8030 N   0  0  0  0  0  0  0  0  0  0  0  0
   -1.8852   -0.0368    0.3392 C   0  0  0  0  0  0  0  0  0  0  0  0
   -0.3957    0.0756   -0.0224 C   0  0  0  0  0  0  0  0  0  0  0  0
   -0.0173   -0.7787   -1.1660 N   0  0  0  0  0  0  0  0  0  0  0  0
    1.1148   -1.5627   -1.1661 C   0  0  0  0  0  0  0  0  0  0  0  0
    1.2648   -3.0345   -1.9722 S   0  0  0  0  0  0  0  0  0  0  0  0
    2.2382   -1.1862   -0.4658 N   0  0  0  0  0  0  0  0  0  0  0  0
    2.7605    0.0650   -0.1376 C   0  0  0  0  0  0  0  0  0  0  0  0
    2.1607    1.1294   -0.0853 O   0  0  0  0  0  0  0  0  0  0  0  0
    4.1967    0.0591    0.2551 C   0  0  0  0  0  0  0  0  0  0  0  0
    5.1461   -0.7215   -0.4252 C   0  0  0  0  0  0  0  0  0  0  0  0
    6.4868   -0.6889   -0.0295 C   0  0  0  0  0  0  0  0  0  0  0  0
    6.8723    0.1262    1.0309 C   0  0  0  0  0  0  0  0  0  0  0  0
    8.1585    0.1511    1.4045 F   0  0  0  0  0  0  0  0  0  0  0  0
    5.9354    0.9128    1.6913 C   0  0  0  0  0  0  0  0  0  0  0  0
    6.3139    1.7004    2.7068 F   0  0  0  0  0  0  0  0  0  0  0  0
    4.5989    0.8909    1.3079 C   0  0  0  0  0  0  0  0  0  0  0  0
   -1.0855   -0.9709   -2.1728 C   0  0  0  0  0  0  0  0  0  0  0  0
   -2.1673    0.1150   -2.1322 C   0  0  0  0  0  0  0  0  0  0  0  0
   -7.2135    1.0640    2.5160 H   0  0  0  0  0  0  0  0  0  0  0  0
   -5.9397   -0.1611    2.7298 H   0  0  0  0  0  0  0  0  0  0  0  0
   -5.5321    1.5465    2.8461 H   0  0  0  0  0  0  0  0  0  0  0  0
   -6.0878    1.8607    0.4325 H   0  0  0  0  0  0  0  0  0  0  0  0
   -6.5029    0.1207    0.3140 H   0  0  0  0  0  0  0  0  0  0  0  0
   -2.1235    0.6550    1.1542 H   0  0  0  0  0  0  0  0  0  0  0  0
   -2.1125   -1.0530    0.6830 H   0  0  0  0  0  0  0  0  0  0  0  0
   -0.1934    1.1105   -0.3184 H   0  0  0  0  0  0  0  0  0  0  0  0
    0.2017   -0.1781    0.8582 H   0  0  0  0  0  0  0  0  0  0  0  0
    2.9102   -1.9415   -0.4778 H   0  0  0  0  0  0  0  0  0  0  0  0
    4.8691   -1.3320   -1.2818 H   0  0  0  0  0  0  0  0  0  0  0  0
    7.2352   -1.2828   -0.5467 H   0  0  0  0  0  0  0  0  0  0  0  0
    3.8831    1.5205    1.8299 H   0  0  0  0  0  0  0  0  0  0  0  0
   -0.6289   -1.0058   -3.1681 H   0  0  0  0  0  0  0  0  0  0  0  0
   -1.5511   -1.9444   -1.9745 H   0  0  0  0  0  0  0  0  0  0  0  0
   -2.9400   -0.0964   -2.8787 H   0  0  0  0  0  0  0  0  0  0  0  0
   -1.7321    1.0925   -2.3716 H   0  0  0  0  0  0  0  0  0  0  0  0
  1  2  1  0
  2  3  1  0
  3  4  1  0
  4  5  2  0
  4  6  1  0
  6  7  1  0
  7  8  1  0
  8  9  1  0
  9 10  1  0
 10 11  2  0
 10 12  1  0
 12 13  1  0
 13 14  2  0
 13 15  1  0
 15 16  2  0
 16 17  1  0
 17 18  2  0
 18 19  1  0
 18 20  1  0
 20 21  1  0
 20 22  2  0
  9 23  1  0
 23 24  1  0
 24  6  1  0
 22 15  1  0
  1 25  1  0
  1 26  1  0
  1 27  1  0
  2 28  1  0
  2 29  1  0
  7 30  1  0
  7 31  1  0
  8 32  1  0
  8 33  1  0
 12 34  1  0
 16 35  1  0
 17 36  1  0
 22 37  1  0
 23 38  1  0
 23 39  1  0
 24 40  1  0
 24 41  1  0
M  END
$$$$
