
     RDKit          3D

 51 53  0  0  0  0  0  0  0  0999 V2000
    4.9637   -0.8275   -2.3666 O   0  0  0  0  0  0  0  0  0  0  0  0
    4.6143   -0.5049   -1.2391 C   0  0  0  0  0  0  0  0  0  0  0  0
    3.3529   -0.6370   -0.7137 N   0  0  0  0  0  0  0  0  0  0  0  0
    2.3221   -1.3639   -1.4052 C   0  0  0  0  0  0  0  0  0  0  0  0
    1.0078   -0.9385   -0.8717 C   0  0  0  0  0  0  0  0  0  0  0  0
    0.0612   -0.0350   -1.3018 C   0  0  0  0  0  0  0  0  0  0  0  0
   -0.9800   -0.0608   -0.3418 C   0  0  0  0  0  0  0  0  0  0  0  0
   -0.6233   -0.9931    0.6153 C   0  0  0  0  0  0  0  0  0  0  0  0
   -1.2282   -1.4665    1.8342 C   0  0  0  0  0  0  0  0  0  0  0  0
   -2.4778   -1.4422    2.1997 N   0  0  0  0  0  0  0  0  0  0  0  0
   -3.4303   -1.0491    1.3129 N   0  0  0  0  0  0  0  0  0  0  0  0
   -4.7467   -0.9100    1.7074 C   0  0  0  0  0  0  0  0  0  0  0  0
   -5.2229   -1.0014    2.8307 O   0  0  0  0  0  0  0  0  0  0  0  0
   -5.6713   -0.5902    0.5196 C   0  0  0  0  0  0  0  0  0  0  0  0
   -5.1782   -0.5148   -0.5980 O   0  0  0  0  0  0  0  0  0  0  0  0
   -6.9801   -0.4164    0.9105 N   0  0  0  0  0  0  0  0  0  0  0  0
   -8.1020   -0.1065    0.1144 C   0  0  0  0  0  0  0  0  0  0  0  0
   -8.0276    0.0318   -1.2747 C   0  0  0  0  0  0  0  0  0  0  0  0
   -9.1686    0.3428   -2.0224 C   0  0  0  0  0  0  0  0  0  0  0  0
  -10.3968    0.5218   -1.3912 C   0  0  0  0  0  0  0  0  0  0  0  0
  -10.4893    0.3849   -0.0089 C   0  0  0  0  0  0  0  0  0  0  0  0
   -9.3502    0.0719    0.7386 C   0  0  0  0  0  0  0  0  0  0  0  0
   -9.5504   -0.0952    2.6232 Br  0  0  0  0  0  0  0  0  0  0  0  0
    0.6049   -1.5112    0.2984 O   0  0  0  0  0  0  0  0  0  0  0  0
    5.6400    0.1095   -0.2613 C   0  0  0  0  0  0  0  0  0  0  0  0
    5.2968    0.3164    0.8944 O   0  0  0  0  0  0  0  0  0  0  0  0
    6.8529    0.3397   -0.8724 N   0  0  0  0  0  0  0  0  0  0  0  0
    8.0116    0.8998   -0.3100 C   0  0  0  0  0  0  0  0  0  0  0  0
    8.0995    1.3332    1.0140 C   0  0  0  0  0  0  0  0  0  0  0  0
    9.2889    1.8870    1.4982 C   0  0  0  0  0  0  0  0  0  0  0  0
   10.3969    2.0116    0.6634 C   0  0  0  0  0  0  0  0  0  0  0  0
   10.3183    1.5809   -0.6581 C   0  0  0  0  0  0  0  0  0  0  0  0
    9.1303    1.0280   -1.1421 C   0  0  0  0  0  0  0  0  0  0  0  0
    3.2602   -0.4645    0.2849 H   0  0  0  0  0  0  0  0  0  0  0  0
    2.3925   -1.1764   -2.4818 H   0  0  0  0  0  0  0  0  0  0  0  0
    2.4888   -2.4331   -1.2351 H   0  0  0  0  0  0  0  0  0  0  0  0
    0.1245    0.5810   -2.1889 H   0  0  0  0  0  0  0  0  0  0  0  0
   -1.8688    0.5555   -0.3455 H   0  0  0  0  0  0  0  0  0  0  0  0
   -0.5241   -1.8996    2.5663 H   0  0  0  0  0  0  0  0  0  0  0  0
   -3.2407   -1.0364    0.3133 H   0  0  0  0  0  0  0  0  0  0  0  0
   -7.1433   -0.5145    1.9137 H   0  0  0  0  0  0  0  0  0  0  0  0
   -7.0941   -0.1004   -1.8126 H   0  0  0  0  0  0  0  0  0  0  0  0
   -9.0931    0.4468   -3.1025 H   0  0  0  0  0  0  0  0  0  0  0  0
  -11.2796    0.7667   -1.9763 H   0  0  0  0  0  0  0  0  0  0  0  0
  -11.4511    0.5248    0.4772 H   0  0  0  0  0  0  0  0  0  0  0  0
    6.8915    0.0567   -1.8489 H   0  0  0  0  0  0  0  0  0  0  0  0
    7.2598    1.2561    1.6975 H   0  0  0  0  0  0  0  0  0  0  0  0
    9.3462    2.2224    2.5310 H   0  0  0  0  0  0  0  0  0  0  0  0
   11.3189    2.4433    1.0429 H   0  0  0  0  0  0  0  0  0  0  0  0
   11.1802    1.6762   -1.3132 H   0  0  0  0  0  0  0  0  0  0  0  0
    9.0937    0.7003   -2.1779 H   0  0  0  0  0  0  0  0  0  0  0  0
  1  2  2  0
  2  3  1  0
  3  4  1  0
  4  5  1  0
  5  6  2  0
  6  7  1  0
  7  8  2  0
  8  9  1  0
  9 10  2  3
 10 11  1  0
 11 12  1  0
 12 13  2  0
 12 14  1  0
 14 15  2  0
 14 16  1  0
 16 17  1  0
 17 18  2  0
 18 19  1  0
 19 20  2  0
 20 21  1  0
 21 22  2  0
 22 23  1  0
  8 24  1  0
  2 25  1  0
 25 26  2  0
 25 27  1  0
 27 28  1  0
 28 29  2  0
 29 30  1  0
 30 31  2  0
 31 32  1  0
 32 33  2  0
 24  5  1  0
 33 28  1  0
 22 17  1  0
  3 34  1  0
  4 35  1  0
  4 36  1  0
  6 37  1  0
  7 38  1  0
  9 39  1  0
 11 40  1  0
 16 41  1  0
 18 42  1  0
 19 43  1  0
 20 44  1  0
 21 45  1  0
 27 46  1  0
 29 47  1  0
 30 48  1  0
 31 49  1  0
 32 50  1  0
 33 51  1  0
M  END
$$$$
