
     RDKit          3D

 41 41  0  0  0  0  0  0  0  0999 V2000
    4.6292   -2.1549    1.8314 C   0  0  0  0  0  0  0  0  0  0  0  0
    3.4366   -1.6369    1.0420 C   0  0  0  0  0  0  0  0  0  0  0  0
    2.2067   -1.4705    1.9354 C   0  0  0  0  0  0  0  0  0  0  0  0
    0.9486   -1.0524    1.1656 C   0  0  0  0  0  0  0  0  0  0  0  0
    1.0670    0.3318    0.5229 C   0  0  0  0  0  0  0  0  0  0  0  0
   -0.2689    0.9311    0.0144 C   0  0  0  0  0  0  0  0  0  0  0  0
   -0.0163    2.3958   -0.3739 C   0  0  0  0  0  0  0  0  0  0  0  0
   -1.2732    3.0482   -0.9114 C   0  0  0  0  0  0  0  0  0  0  0  0
   -1.6434    4.2740   -0.6733 N   0  0  0  0  0  0  0  0  0  0  0  0
   -0.7524    4.9372    0.1746 O   0  0  0  0  0  0  0  0  0  0  0  0
   -2.0952    2.2487   -1.8511 C   0  0  0  0  0  0  0  0  0  0  0  0
   -1.8831    0.9323   -2.0119 C   0  0  0  0  0  0  0  0  0  0  0  0
   -2.6232    0.1813   -3.0903 C   0  0  0  0  0  0  0  0  0  0  0  0
   -0.8893    0.1357   -1.1690 C   0  0  0  0  0  0  0  0  0  0  0  0
   -1.5892   -1.1388   -0.6816 C   0  0  0  0  0  0  0  0  0  0  0  0
   -1.4101   -2.2418   -1.1866 O   0  0  0  0  0  0  0  0  0  0  0  0
   -2.4697   -0.8836    0.3257 O   0  0  0  0  0  0  0  0  0  0  0  0
   -3.1747   -2.0344    0.7913 C   0  0  0  0  0  0  0  0  0  0  0  0
    4.8955   -1.4640    2.6376 H   0  0  0  0  0  0  0  0  0  0  0  0
    5.4989   -2.2638    1.1759 H   0  0  0  0  0  0  0  0  0  0  0  0
    4.4128   -3.1327    2.2734 H   0  0  0  0  0  0  0  0  0  0  0  0
    3.7080   -0.6789    0.5857 H   0  0  0  0  0  0  0  0  0  0  0  0
    3.2140   -2.3357    0.2274 H   0  0  0  0  0  0  0  0  0  0  0  0
    2.4171   -0.7366    2.7230 H   0  0  0  0  0  0  0  0  0  0  0  0
    1.9979   -2.4222    2.4400 H   0  0  0  0  0  0  0  0  0  0  0  0
    0.7439   -1.8072    0.4000 H   0  0  0  0  0  0  0  0  0  0  0  0
    0.1048   -1.0574    1.8658 H   0  0  0  0  0  0  0  0  0  0  0  0
    1.4928    1.0182    1.2666 H   0  0  0  0  0  0  0  0  0  0  0  0
    1.7817    0.2916   -0.3082 H   0  0  0  0  0  0  0  0  0  0  0  0
   -0.9707    0.9432    0.8594 H   0  0  0  0  0  0  0  0  0  0  0  0
    0.3511    2.9349    0.5050 H   0  0  0  0  0  0  0  0  0  0  0  0
    0.7556    2.4696   -1.1501 H   0  0  0  0  0  0  0  0  0  0  0  0
   -1.1618    5.8184    0.2587 H   0  0  0  0  0  0  0  0  0  0  0  0
   -2.8258    2.8021   -2.4318 H   0  0  0  0  0  0  0  0  0  0  0  0
   -1.9176   -0.3712   -3.7195 H   0  0  0  0  0  0  0  0  0  0  0  0
   -3.3371   -0.5254   -2.6562 H   0  0  0  0  0  0  0  0  0  0  0  0
   -3.1860    0.8546   -3.7461 H   0  0  0  0  0  0  0  0  0  0  0  0
   -0.0757   -0.1809   -1.8361 H   0  0  0  0  0  0  0  0  0  0  0  0
   -3.8383   -1.7203    1.6015 H   0  0  0  0  0  0  0  0  0  0  0  0
   -2.4757   -2.7789    1.1852 H   0  0  0  0  0  0  0  0  0  0  0  0
   -3.7850   -2.4600   -0.0114 H   0  0  0  0  0  0  0  0  0  0  0  0
  1  2  1  0
  2  3  1  0
  3  4  1  0
  4  5  1  0
  5  6  1  0
  6  7  1  0
  7  8  1  0
  8  9  2  3
  9 10  1  0
  8 11  1  0
 11 12  2  0
 12 13  1  0
 12 14  1  0
 14 15  1  0
 15 16  2  0
 15 17  1  0
 17 18  1  0
 14  6  1  0
  1 19  1  0
  1 20  1  0
  1 21  1  0
  2 22  1  0
  2 23  1  0
  3 24  1  0
  3 25  1  0
  4 26  1  0
  4 27  1  0
  5 28  1  0
  5 29  1  0
  6 30  1  0
  7 31  1  0
  7 32  1  0
 10 33  1  0
 11 34  1  0
 13 35  1  0
 13 36  1  0
 13 37  1  0
 14 38  1  0
 18 39  1  0
 18 40  1  0
 18 41  1  0
M  END
$$$$
