
     RDKit          3D

 48 50  0  0  0  0  0  0  0  0999 V2000
   -2.7430    0.9634    1.6623 O   0  0  0  0  0  0  0  0  0  0  0  0
   -2.4225    0.4696    0.5769 C   0  0  0  0  0  0  0  0  0  0  0  0
   -1.0161    0.6903    0.0098 C   0  0  0  0  0  0  0  0  0  0  0  0
   -0.0148    0.4967    1.0846 N   0  0  0  0  0  0  0  0  0  0  0  0
    1.0127    1.4775    1.2498 C   0  0  0  0  0  0  0  0  0  0  0  0
    1.2903    1.9540    2.5284 C   0  0  0  0  0  0  0  0  0  0  0  0
    2.3306    2.8623    2.7262 C   0  0  0  0  0  0  0  0  0  0  0  0
    3.1079    3.2907    1.6457 C   0  0  0  0  0  0  0  0  0  0  0  0
    4.3839    4.4049    1.9729 Cl  0  0  0  0  0  0  0  0  0  0  0  0
    2.8514    2.8142    0.3543 C   0  0  0  0  0  0  0  0  0  0  0  0
    3.6827    3.2439   -0.8238 C   0  0  0  0  0  0  0  0  0  0  0  0
    3.2575    2.6906   -1.9985 F   0  0  0  0  0  0  0  0  0  0  0  0
    4.9909    2.8865   -0.7120 F   0  0  0  0  0  0  0  0  0  0  0  0
    3.6610    4.5878   -1.0347 F   0  0  0  0  0  0  0  0  0  0  0  0
    1.7957    1.8984    0.1703 C   0  0  0  0  0  0  0  0  0  0  0  0
    0.3535   -1.1151    1.5040 S   0  0  0  0  0  6  0  0  0  0  0  0
    0.9951   -1.1445    2.8017 O   0  0  0  0  0  0  0  0  0  0  0  0
   -0.8047   -1.9405    1.2251 O   0  0  0  0  0  0  0  0  0  0  0  0
    1.5974   -1.5598    0.3005 C   0  0  0  0  0  0  0  0  0  0  0  0
    1.2194   -2.1696   -0.8997 C   0  0  0  0  0  0  0  0  0  0  0  0
    2.1985   -2.5161   -1.8308 C   0  0  0  0  0  0  0  0  0  0  0  0
    3.5445   -2.2672   -1.5556 C   0  0  0  0  0  0  0  0  0  0  0  0
    3.9198   -1.6849   -0.3439 C   0  0  0  0  0  0  0  0  0  0  0  0
    2.9479   -1.3387    0.5938 C   0  0  0  0  0  0  0  0  0  0  0  0
   -3.3239   -0.2704   -0.1724 N   0  0  0  0  0  0  0  0  0  0  0  0
   -4.6036   -0.6528    0.4319 C   0  0  0  0  0  0  0  0  0  0  0  0
   -5.0168   -2.0565   -0.0214 C   0  0  0  0  0  0  0  0  0  0  0  0
   -5.1427   -2.1921   -1.4464 O   0  0  0  0  0  0  0  0  0  0  0  0
   -4.3751   -1.2413   -2.1932 C   0  0  0  0  0  0  0  0  0  0  0  0
   -3.0708   -0.8333   -1.4998 C   0  0  0  0  0  0  0  0  0  0  0  0
   -0.7825    0.0303   -0.8269 H   0  0  0  0  0  0  0  0  0  0  0  0
   -0.9965    1.7176   -0.3731 H   0  0  0  0  0  0  0  0  0  0  0  0
    0.6975    1.6188    3.3779 H   0  0  0  0  0  0  0  0  0  0  0  0
    2.5325    3.2259    3.7316 H   0  0  0  0  0  0  0  0  0  0  0  0
    1.6015    1.5018   -0.8248 H   0  0  0  0  0  0  0  0  0  0  0  0
    0.1763   -2.3889   -1.1116 H   0  0  0  0  0  0  0  0  0  0  0  0
    1.9172   -2.9921   -2.7675 H   0  0  0  0  0  0  0  0  0  0  0  0
    4.3064   -2.5428   -2.2814 H   0  0  0  0  0  0  0  0  0  0  0  0
    4.9716   -1.5101   -0.1274 H   0  0  0  0  0  0  0  0  0  0  0  0
    3.2474   -0.8982    1.5429 H   0  0  0  0  0  0  0  0  0  0  0  0
   -5.3409    0.0864    0.0987 H   0  0  0  0  0  0  0  0  0  0  0  0
   -4.5462   -0.6124    1.5241 H   0  0  0  0  0  0  0  0  0  0  0  0
   -5.9794   -2.3314    0.4212 H   0  0  0  0  0  0  0  0  0  0  0  0
   -4.2779   -2.7944    0.3122 H   0  0  0  0  0  0  0  0  0  0  0  0
   -5.0081   -0.3628   -2.3638 H   0  0  0  0  0  0  0  0  0  0  0  0
   -4.1607   -1.6837   -3.1713 H   0  0  0  0  0  0  0  0  0  0  0  0
   -2.5346   -0.1009   -2.1107 H   0  0  0  0  0  0  0  0  0  0  0  0
   -2.4308   -1.7113   -1.3562 H   0  0  0  0  0  0  0  0  0  0  0  0
  1  2  2  0
  2  3  1  0
  3  4  1  0
  4  5  1  0
  5  6  2  0
  6  7  1  0
  7  8  2  0
  8  9  1  0
  8 10  1  0
 10 11  1  0
 11 12  1  0
 11 13  1  0
 11 14  1  0
 10 15  2  0
  4 16  1  0
 16 17  2  0
 16 18  2  0
 16 19  1  0
 19 20  2  0
 20 21  1  0
 21 22  2  0
 22 23  1  0
 23 24  2  0
  2 25  1  0
 25 26  1  0
 26 27  1  0
 27 28  1  0
 28 29  1  0
 29 30  1  0
 15  5  1  0
 24 19  1  0
 30 25  1  0
  3 31  1  0
  3 32  1  0
  6 33  1  0
  7 34  1  0
 15 35  1  0
 20 36  1  0
 21 37  1  0
 22 38  1  0
 23 39  1  0
 24 40  1  0
 26 41  1  0
 26 42  1  0
 27 43  1  0
 27 44  1  0
 29 45  1  0
 29 46  1  0
 30 47  1  0
 30 48  1  0
M  END
$$$$
