
     RDKit          3D

 37 40  0  0  0  0  0  0  0  0999 V2000
   -0.4024    0.9598   -0.1008 C   0  0  0  0  0  0  0  0  0  0  0  0
   -0.3777   -0.5362    0.1237 C   0  0  0  0  0  0  0  0  0  0  0  0
   -1.5897   -1.2730    0.1955 C   0  0  0  0  0  0  0  0  0  0  0  0
   -2.8151   -0.5972    0.0085 N   0  0  0  0  0  0  0  0  0  0  0  0
   -4.1104   -1.0927    0.0623 C   0  0  0  0  0  0  0  0  0  0  0  0
   -4.4379   -2.2469    0.3156 O   0  0  0  0  0  0  0  0  0  0  0  0
   -5.1065   -0.0304   -0.2262 C   0  0  0  0  0  0  0  0  0  0  0  0
   -6.4734   -0.2305   -0.2445 N   0  0  0  0  0  0  0  0  0  0  0  0
   -6.9583    0.9503   -0.5383 C   0  0  0  0  0  0  0  0  0  0  0  0
   -5.9400    1.8325   -0.6922 N   0  0  0  0  0  0  0  0  0  0  0  0
   -4.7456    1.2460   -0.4996 N   0  0  0  0  0  0  0  0  0  0  0  0
   -1.5417   -2.6517    0.4322 C   0  0  0  0  0  0  0  0  0  0  0  0
   -0.3248   -3.3157    0.5685 C   0  0  0  0  0  0  0  0  0  0  0  0
    0.8666   -2.6091    0.4610 C   0  0  0  0  0  0  0  0  0  0  0  0
    0.8610   -1.2219    0.2380 C   0  0  0  0  0  0  0  0  0  0  0  0
    2.1501   -0.5297    0.0880 C   0  0  0  0  0  0  0  0  0  0  0  0
    2.5079    0.1587   -0.9755 N   0  0  0  0  0  0  0  0  0  0  0  0
    3.7721    0.6926   -0.7929 C   0  0  0  0  0  0  0  0  0  0  0  0
    4.4791    1.4785   -1.7256 C   0  0  0  0  0  0  0  0  0  0  0  0
    5.7544    1.9572   -1.4080 C   0  0  0  0  0  0  0  0  0  0  0  0
    6.3303    1.6633   -0.1761 C   0  0  0  0  0  0  0  0  0  0  0  0
    5.6496    0.8862    0.7665 C   0  0  0  0  0  0  0  0  0  0  0  0
    4.3697    0.4102    0.4363 C   0  0  0  0  0  0  0  0  0  0  0  0
    3.2957   -0.5561    1.3711 S   0  0  0  0  0  0  0  0  0  0  0  0
   -0.6028    1.1764   -1.1546 H   0  0  0  0  0  0  0  0  0  0  0  0
    0.5319    1.4503    0.1846 H   0  0  0  0  0  0  0  0  0  0  0  0
   -1.1677    1.4344    0.5226 H   0  0  0  0  0  0  0  0  0  0  0  0
   -2.7893    0.3920   -0.2198 H   0  0  0  0  0  0  0  0  0  0  0  0
   -8.0007    1.2137   -0.6485 H   0  0  0  0  0  0  0  0  0  0  0  0
   -5.9813    2.8196   -0.9213 H   0  0  0  0  0  0  0  0  0  0  0  0
   -2.4432   -3.2528    0.5024 H   0  0  0  0  0  0  0  0  0  0  0  0
   -0.3112   -4.3892    0.7396 H   0  0  0  0  0  0  0  0  0  0  0  0
    1.8057   -3.1541    0.5358 H   0  0  0  0  0  0  0  0  0  0  0  0
    4.0257    1.7043   -2.6856 H   0  0  0  0  0  0  0  0  0  0  0  0
    6.2965    2.5621   -2.1311 H   0  0  0  0  0  0  0  0  0  0  0  0
    7.3232    2.0416    0.0586 H   0  0  0  0  0  0  0  0  0  0  0  0
    6.1002    0.6574    1.7276 H   0  0  0  0  0  0  0  0  0  0  0  0
  1  2  1  0
  2  3  2  0
  3  4  1  0
  4  5  1  0
  5  6  2  0
  5  7  1  0
  7  8  1  0
  8  9  2  0
  9 10  1  0
 10 11  1  0
  3 12  1  0
 12 13  2  0
 13 14  1  0
 14 15  2  0
 15 16  1  0
 16 17  2  0
 17 18  1  0
 18 19  2  0
 19 20  1  0
 20 21  2  0
 21 22  1  0
 22 23  2  0
 23 24  1  0
 15  2  1  0
 24 16  1  0
 11  7  2  0
 23 18  1  0
  1 25  1  0
  1 26  1  0
  1 27  1  0
  4 28  1  0
  9 29  1  0
 10 30  1  0
 12 31  1  0
 13 32  1  0
 14 33  1  0
 19 34  1  0
 20 35  1  0
 21 36  1  0
 22 37  1  0
M  END
$$$$
