
     RDKit          3D

 48 49  0  0  0  0  0  0  0  0999 V2000
    0.0492    3.0889   -1.1546 C   0  0  0  0  0  0  0  0  0  0  0  0
    0.9569    2.0192   -0.9212 O   0  0  0  0  0  0  0  0  0  0  0  0
    0.4248    0.7583   -0.8361 C   0  0  0  0  0  0  0  0  0  0  0  0
   -0.8527    0.4084   -1.2884 C   0  0  0  0  0  0  0  0  0  0  0  0
   -1.3390   -0.9026   -1.1424 C   0  0  0  0  0  0  0  0  0  0  0  0
   -2.7230   -1.2644   -1.6261 C   0  0  0  0  0  0  0  0  0  0  0  0
   -3.6551   -1.6563   -0.5744 N   0  0  0  0  0  0  0  0  0  0  0  0
   -4.2903   -0.6129    0.2609 C   0  0  0  0  0  0  0  0  0  0  0  0
   -4.7402    0.6250   -0.5373 C   0  0  0  0  0  0  0  0  0  0  0  0
   -3.3583   -0.1682    1.4043 C   0  0  0  0  0  0  0  0  0  0  0  0
   -5.5536   -1.2846    0.8848 C   0  0  0  0  0  0  0  0  0  0  0  0
   -6.2614   -0.4012    1.7512 O   0  0  0  0  0  0  0  0  0  0  0  0
   -0.5165   -1.8714   -0.5491 C   0  0  0  0  0  0  0  0  0  0  0  0
    0.7639   -1.5355   -0.1070 C   0  0  0  0  0  0  0  0  0  0  0  0
    1.8194   -2.8932    0.6963 Br  0  0  0  0  0  0  0  0  0  0  0  0
    1.2440   -0.2313   -0.2681 C   0  0  0  0  0  0  0  0  0  0  0  0
    2.4933    0.0891    0.2081 O   0  0  0  0  0  0  0  0  0  0  0  0
    3.4348    0.1736   -0.8652 C   0  0  0  0  0  0  0  0  0  0  0  0
    4.8163    0.2545   -0.2624 C   0  0  0  0  0  0  0  0  0  0  0  0
    5.3381    1.4907    0.1469 C   0  0  0  0  0  0  0  0  0  0  0  0
    6.6081    1.5674    0.7226 C   0  0  0  0  0  0  0  0  0  0  0  0
    7.3580    0.4069    0.9004 C   0  0  0  0  0  0  0  0  0  0  0  0
    8.9231    0.5009    1.6100 Cl  0  0  0  0  0  0  0  0  0  0  0  0
    6.8474   -0.8300    0.5125 C   0  0  0  0  0  0  0  0  0  0  0  0
    5.5772   -0.9068   -0.0635 C   0  0  0  0  0  0  0  0  0  0  0  0
    0.5979    4.0266   -1.0238 H   0  0  0  0  0  0  0  0  0  0  0  0
   -0.7747    3.0813   -0.4329 H   0  0  0  0  0  0  0  0  0  0  0  0
   -0.3251    3.0640   -2.1830 H   0  0  0  0  0  0  0  0  0  0  0  0
   -1.4976    1.1463   -1.7561 H   0  0  0  0  0  0  0  0  0  0  0  0
   -2.6089   -2.1253   -2.2982 H   0  0  0  0  0  0  0  0  0  0  0  0
   -3.1384   -0.4811   -2.2692 H   0  0  0  0  0  0  0  0  0  0  0  0
   -3.2260   -2.3617    0.0223 H   0  0  0  0  0  0  0  0  0  0  0  0
   -5.3856    0.3420   -1.3768 H   0  0  0  0  0  0  0  0  0  0  0  0
   -5.3071    1.3215    0.0911 H   0  0  0  0  0  0  0  0  0  0  0  0
   -3.8902    1.1882   -0.9354 H   0  0  0  0  0  0  0  0  0  0  0  0
   -2.4841    0.3750    1.0372 H   0  0  0  0  0  0  0  0  0  0  0  0
   -3.0028   -1.0267    1.9859 H   0  0  0  0  0  0  0  0  0  0  0  0
   -3.8731    0.5053    2.0990 H   0  0  0  0  0  0  0  0  0  0  0  0
   -5.2719   -2.1678    1.4708 H   0  0  0  0  0  0  0  0  0  0  0  0
   -6.2454   -1.6061    0.0968 H   0  0  0  0  0  0  0  0  0  0  0  0
   -7.0369   -0.8898    2.0766 H   0  0  0  0  0  0  0  0  0  0  0  0
   -0.8790   -2.8906   -0.4346 H   0  0  0  0  0  0  0  0  0  0  0  0
    3.2557    1.0654   -1.4779 H   0  0  0  0  0  0  0  0  0  0  0  0
    3.3704   -0.7046   -1.5219 H   0  0  0  0  0  0  0  0  0  0  0  0
    4.7496    2.3982    0.0261 H   0  0  0  0  0  0  0  0  0  0  0  0
    7.0010    2.5309    1.0350 H   0  0  0  0  0  0  0  0  0  0  0  0
    7.4274   -1.7366    0.6611 H   0  0  0  0  0  0  0  0  0  0  0  0
    5.1802   -1.8788   -0.3489 H   0  0  0  0  0  0  0  0  0  0  0  0
  1  2  1  0
  2  3  1  0
  3  4  2  0
  4  5  1  0
  5  6  1  0
  6  7  1  0
  7  8  1  0
  8  9  1  0
  8 10  1  0
  8 11  1  0
 11 12  1  0
  5 13  2  0
 13 14  1  0
 14 15  1  0
 14 16  2  0
 16 17  1  0
 17 18  1  0
 18 19  1  0
 19 20  2  0
 20 21  1  0
 21 22  2  0
 22 23  1  0
 22 24  1  0
 24 25  2  0
 16  3  1  0
 25 19  1  0
  1 26  1  0
  1 27  1  0
  1 28  1  0
  4 29  1  0
  6 30  1  0
  6 31  1  0
  7 32  1  0
  9 33  1  0
  9 34  1  0
  9 35  1  0
 10 36  1  0
 10 37  1  0
 10 38  1  0
 11 39  1  0
 11 40  1  0
 12 41  1  0
 13 42  1  0
 18 43  1  0
 18 44  1  0
 20 45  1  0
 21 46  1  0
 24 47  1  0
 25 48  1  0
M  END
$$$$
