
     RDKit          3D

 53 56  0  0  0  0  0  0  0  0999 V2000
   -0.4743   -0.7881    1.5356 O   0  0  0  0  0  0  0  0  0  0  0  0
    0.2917   -1.2521    0.6895 C   0  0  0  0  0  0  0  0  0  0  0  0
    0.4218   -2.7541    0.4755 C   0  0  0  0  0  0  0  0  0  0  0  0
   -0.6300   -3.5743    1.2256 C   0  0  0  0  0  0  0  0  0  0  0  0
   -2.0596   -4.0504    0.1885 S   0  0  0  0  0  0  0  0  0  0  0  0
   -2.8288   -2.4652    0.0459 C   0  0  0  0  0  0  0  0  0  0  0  0
   -3.8192   -2.1770    0.8950 N   0  0  0  0  0  0  0  0  0  0  0  0
   -4.3394   -0.9377    0.8075 C   0  0  0  0  0  0  0  0  0  0  0  0
   -5.4106   -0.6622    1.7552 C   0  0  0  0  0  0  0  0  0  0  0  0
   -6.0090   -1.3986    2.7598 C   0  0  0  0  0  0  0  0  0  0  0  0
   -7.0052   -0.5730    3.3340 C   0  0  0  0  0  0  0  0  0  0  0  0
   -6.9567    0.6162    2.6466 C   0  0  0  0  0  0  0  0  0  0  0  0
   -5.9958    0.5736    1.6876 O   0  0  0  0  0  0  0  0  0  0  0  0
   -3.8949    0.0001   -0.1009 C   0  0  0  0  0  0  0  0  0  0  0  0
   -2.8758   -0.3933   -0.9481 C   0  0  0  0  0  0  0  0  0  0  0  0
   -2.3199    0.6076   -1.9426 C   0  0  0  0  0  0  0  0  0  0  0  0
   -1.8562    1.7425   -1.3396 F   0  0  0  0  0  0  0  0  0  0  0  0
   -1.2780    0.1391   -2.6875 F   0  0  0  0  0  0  0  0  0  0  0  0
   -3.2583    1.0292   -2.8389 F   0  0  0  0  0  0  0  0  0  0  0  0
   -2.3491   -1.6415   -0.8970 N   0  0  0  0  0  0  0  0  0  0  0  0
    1.0850   -0.4272   -0.1040 N   0  0  0  0  0  0  0  0  0  0  0  0
    1.0959    1.0080    0.2228 C   0  0  0  0  0  0  0  0  0  0  0  0
    1.5370    1.9030   -0.9510 C   0  0  0  0  0  0  0  0  0  0  0  0
    2.7846    1.4143   -1.5747 N   0  0  0  0  0  0  0  0  0  0  0  0
    4.0330    1.8107   -1.0894 C   0  0  0  0  0  0  0  0  0  0  0  0
    5.2019    1.5203   -1.8165 C   0  0  0  0  0  0  0  0  0  0  0  0
    6.4730    1.9050   -1.3730 C   0  0  0  0  0  0  0  0  0  0  0  0
    6.6098    2.6104   -0.1852 C   0  0  0  0  0  0  0  0  0  0  0  0
    5.4743    2.9390    0.5442 C   0  0  0  0  0  0  0  0  0  0  0  0
    4.2060    2.5512    0.0903 C   0  0  0  0  0  0  0  0  0  0  0  0
    2.6458    0.0102   -2.0235 C   0  0  0  0  0  0  0  0  0  0  0  0
    2.2675   -0.9056   -0.8426 C   0  0  0  0  0  0  0  0  0  0  0  0
    1.4094   -3.0303    0.8658 H   0  0  0  0  0  0  0  0  0  0  0  0
    0.4003   -2.9875   -0.5937 H   0  0  0  0  0  0  0  0  0  0  0  0
   -0.1699   -4.5217    1.5284 H   0  0  0  0  0  0  0  0  0  0  0  0
   -0.9827   -3.0919    2.1426 H   0  0  0  0  0  0  0  0  0  0  0  0
   -5.7467   -2.4111    3.0355 H   0  0  0  0  0  0  0  0  0  0  0  0
   -7.6743   -0.8149    4.1475 H   0  0  0  0  0  0  0  0  0  0  0  0
   -7.5093    1.5430    2.7142 H   0  0  0  0  0  0  0  0  0  0  0  0
   -4.3156    0.9981   -0.1435 H   0  0  0  0  0  0  0  0  0  0  0  0
    0.1001    1.3215    0.5552 H   0  0  0  0  0  0  0  0  0  0  0  0
    1.7733    1.1270    1.0762 H   0  0  0  0  0  0  0  0  0  0  0  0
    1.6099    2.9528   -0.6457 H   0  0  0  0  0  0  0  0  0  0  0  0
    0.7539    1.8766   -1.7197 H   0  0  0  0  0  0  0  0  0  0  0  0
    5.1371    1.0154   -2.7767 H   0  0  0  0  0  0  0  0  0  0  0  0
    7.3494    1.6634   -1.9682 H   0  0  0  0  0  0  0  0  0  0  0  0
    7.5928    2.9156    0.1620 H   0  0  0  0  0  0  0  0  0  0  0  0
    5.5670    3.5035    1.4684 H   0  0  0  0  0  0  0  0  0  0  0  0
    3.3595    2.8419    0.7029 H   0  0  0  0  0  0  0  0  0  0  0  0
    1.8442   -0.0283   -2.7728 H   0  0  0  0  0  0  0  0  0  0  0  0
    3.5397   -0.3797   -2.5193 H   0  0  0  0  0  0  0  0  0  0  0  0
    3.0912   -0.9574   -0.1202 H   0  0  0  0  0  0  0  0  0  0  0  0
    2.1041   -1.9161   -1.2228 H   0  0  0  0  0  0  0  0  0  0  0  0
  1  2  2  0
  2  3  1  0
  3  4  1  0
  4  5  1  0
  5  6  1  0
  6  7  2  0
  7  8  1  0
  8  9  1  0
  9 10  2  0
 10 11  1  0
 11 12  2  0
 12 13  1  0
  8 14  2  0
 14 15  1  0
 15 16  1  0
 16 17  1  0
 16 18  1  0
 16 19  1  0
 15 20  2  0
  2 21  1  0
 21 22  1  0
 22 23  1  0
 23 24  1  0
 24 25  1  0
 25 26  2  0
 26 27  1  0
 27 28  2  0
 28 29  1  0
 29 30  2  0
 24 31  1  0
 31 32  1  0
 20  6  1  0
 32 21  1  0
 13  9  1  0
 30 25  1  0
  3 33  1  0
  3 34  1  0
  4 35  1  0
  4 36  1  0
 10 37  1  0
 11 38  1  0
 12 39  1  0
 14 40  1  0
 22 41  1  0
 22 42  1  0
 23 43  1  0
 23 44  1  0
 26 45  1  0
 27 46  1  0
 28 47  1  0
 29 48  1  0
 30 49  1  0
 31 50  1  0
 31 51  1  0
 32 52  1  0
 32 53  1  0
M  END
$$$$
