
     RDKit          3D

 46 49  0  0  0  0  0  0  0  0999 V2000
   -0.7226   -5.0697   -0.0072 C   0  0  0  0  0  0  0  0  0  0  0  0
   -1.3795   -3.8120   -0.1498 O   0  0  0  0  0  0  0  0  0  0  0  0
   -0.5508   -2.7293   -0.0548 C   0  0  0  0  0  0  0  0  0  0  0  0
    0.6613   -2.8121    0.1185 O   0  0  0  0  0  0  0  0  0  0  0  0
   -1.2542   -1.4560   -0.1841 C   0  0  0  0  0  0  0  0  0  0  0  0
   -2.5841   -1.3547   -0.3824 N   0  0  0  0  0  0  0  0  0  0  0  0
   -2.7780   -0.0124   -0.4551 N   0  0  0  0  0  0  0  0  0  0  0  0
   -4.0635    0.5492   -0.6736 C   0  0  0  0  0  0  0  0  0  0  0  0
   -4.2170    1.9402   -0.7692 C   0  0  0  0  0  0  0  0  0  0  0  0
   -5.4823    2.4883   -0.9916 C   0  0  0  0  0  0  0  0  0  0  0  0
   -6.5937    1.6552   -1.1165 C   0  0  0  0  0  0  0  0  0  0  0  0
   -6.4457    0.2718   -1.0201 C   0  0  0  0  0  0  0  0  0  0  0  0
   -5.1839   -0.2849   -0.7996 C   0  0  0  0  0  0  0  0  0  0  0  0
   -1.6719    0.7593   -0.3175 N   0  0  0  0  0  0  0  0  0  0  0  0
   -0.7094   -0.1537   -0.1428 C   0  0  0  0  0  0  0  0  0  0  0  0
    0.6988    0.2004    0.0227 C   0  0  0  0  0  0  0  0  0  0  0  0
    1.4105    0.8128   -0.9315 N   0  0  0  0  0  0  0  0  0  0  0  0
    2.6193    0.9624   -0.3370 N   0  0  0  0  0  0  0  0  0  0  0  0
    3.7151    1.5710   -1.0043 C   0  0  0  0  0  0  0  0  0  0  0  0
    3.5663    2.0425   -2.3160 C   0  0  0  0  0  0  0  0  0  0  0  0
    4.6476    2.6381   -2.9695 C   0  0  0  0  0  0  0  0  0  0  0  0
    5.8747    2.7652   -2.3203 C   0  0  0  0  0  0  0  0  0  0  0  0
    6.0264    2.2990   -1.0152 C   0  0  0  0  0  0  0  0  0  0  0  0
    4.9507    1.7016   -0.3541 C   0  0  0  0  0  0  0  0  0  0  0  0
    2.7216    0.4970    0.9346 N   0  0  0  0  0  0  0  0  0  0  0  0
    1.4897    0.0039    1.1752 C   0  0  0  0  0  0  0  0  0  0  0  0
    1.0953   -0.6067    2.4422 C   0  0  0  0  0  0  0  0  0  0  0  0
   -0.0331   -1.0387    2.6569 O   0  0  0  0  0  0  0  0  0  0  0  0
    2.1088   -0.6442    3.3588 O   0  0  0  0  0  0  0  0  0  0  0  0
    1.7549   -1.2419    4.6051 C   0  0  0  0  0  0  0  0  0  0  0  0
   -0.2690   -5.1530    0.9855 H   0  0  0  0  0  0  0  0  0  0  0  0
   -1.4733   -5.8583   -0.1133 H   0  0  0  0  0  0  0  0  0  0  0  0
    0.0301   -5.2024   -0.7911 H   0  0  0  0  0  0  0  0  0  0  0  0
   -3.3623    2.6081   -0.6777 H   0  0  0  0  0  0  0  0  0  0  0  0
   -5.6002    3.5670   -1.0698 H   0  0  0  0  0  0  0  0  0  0  0  0
   -7.5773    2.0855   -1.2906 H   0  0  0  0  0  0  0  0  0  0  0  0
   -7.3139   -0.3749   -1.1182 H   0  0  0  0  0  0  0  0  0  0  0  0
   -5.0903   -1.3665   -0.7284 H   0  0  0  0  0  0  0  0  0  0  0  0
    2.6170    1.9541   -2.8405 H   0  0  0  0  0  0  0  0  0  0  0  0
    4.5315    3.0038   -3.9861 H   0  0  0  0  0  0  0  0  0  0  0  0
    6.7146    3.2292   -2.8320 H   0  0  0  0  0  0  0  0  0  0  0  0
    6.9841    2.3998   -0.5109 H   0  0  0  0  0  0  0  0  0  0  0  0
    5.0904    1.3446    0.6651 H   0  0  0  0  0  0  0  0  0  0  0  0
    0.9246   -0.7016    5.0716 H   0  0  0  0  0  0  0  0  0  0  0  0
    1.5017   -2.2968    4.4645 H   0  0  0  0  0  0  0  0  0  0  0  0
    2.6212   -1.1800    5.2686 H   0  0  0  0  0  0  0  0  0  0  0  0
  1  2  1  0
  2  3  1  0
  3  4  2  0
  3  5  1  0
  5  6  2  0
  6  7  1  0
  7  8  1  0
  8  9  2  0
  9 10  1  0
 10 11  2  0
 11 12  1  0
 12 13  2  0
  7 14  1  0
 14 15  2  0
 15 16  1  0
 16 17  2  0
 17 18  1  0
 18 19  1  0
 19 20  2  0
 20 21  1  0
 21 22  2  0
 22 23  1  0
 23 24  2  0
 18 25  1  0
 25 26  2  0
 26 27  1  0
 27 28  2  0
 27 29  1  0
 29 30  1  0
 15  5  1  0
 26 16  1  0
 13  8  1  0
 24 19  1  0
  1 31  1  0
  1 32  1  0
  1 33  1  0
  9 34  1  0
 10 35  1  0
 11 36  1  0
 12 37  1  0
 13 38  1  0
 20 39  1  0
 21 40  1  0
 22 41  1  0
 23 42  1  0
 24 43  1  0
 30 44  1  0
 30 45  1  0
 30 46  1  0
M  END
$$$$
