
     RDKit          3D

 44 47  0  0  0  0  0  0  0  0999 V2000
    5.7654   -0.4186    1.8720 C   0  0  0  0  0  0  0  0  0  0  0  0
    5.6797   -0.4628    0.3538 C   0  0  0  0  0  0  0  0  0  0  0  0
    4.2585   -0.4310   -0.1223 C   0  0  0  0  0  0  0  0  0  0  0  0
    3.4011   -1.4948   -0.3248 C   0  0  0  0  0  0  0  0  0  0  0  0
    2.1208   -1.0677   -0.7849 C   0  0  0  0  0  0  0  0  0  0  0  0
    0.9512   -1.8580   -1.1022 C   0  0  0  0  0  0  0  0  0  0  0  0
    0.9719   -3.0822   -1.0065 O   0  0  0  0  0  0  0  0  0  0  0  0
   -0.1651   -1.1144   -1.5047 N   0  0  0  0  0  0  0  0  0  0  0  0
   -1.3960   -1.8783   -1.7360 C   0  0  0  0  0  0  0  0  0  0  0  0
   -2.3033   -1.8869   -0.5203 C   0  0  0  0  0  0  0  0  0  0  0  0
   -1.9319   -2.5684    0.6492 C   0  0  0  0  0  0  0  0  0  0  0  0
   -2.7576   -2.5546    1.7753 C   0  0  0  0  0  0  0  0  0  0  0  0
   -3.9661   -1.8633    1.7469 C   0  0  0  0  0  0  0  0  0  0  0  0
   -4.3543   -1.1945    0.5893 C   0  0  0  0  0  0  0  0  0  0  0  0
   -3.5330   -1.2130   -0.5395 C   0  0  0  0  0  0  0  0  0  0  0  0
   -0.0794    0.2724   -1.6243 C   0  0  0  0  0  0  0  0  0  0  0  0
   -1.4677    1.1596   -2.2197 S   0  0  0  0  0  0  0  0  0  0  0  0
   -1.7534    2.2193   -0.7761 C   0  0  0  0  0  0  0  0  0  0  0  0
   -0.9652    3.5101   -0.8283 C   0  0  0  0  0  0  0  0  0  0  0  0
   -1.8281    4.4326   -0.0061 C   0  0  0  0  0  0  0  0  0  0  0  0
   -3.1709    4.0319   -0.2759 O   0  0  0  0  0  0  0  0  0  0  0  0
   -3.1709    2.7402   -0.7343 C   0  0  0  0  0  0  0  0  0  0  0  0
   -4.1908    2.1264   -1.0074 O   0  0  0  0  0  0  0  0  0  0  0  0
    0.9654    0.9904   -1.3496 N   0  0  0  0  0  0  0  0  0  0  0  0
    2.0415    0.2937   -0.9243 C   0  0  0  0  0  0  0  0  0  0  0  0
    3.5009    1.0620   -0.4966 S   0  0  0  0  0  0  0  0  0  0  0  0
    5.3235    0.5015    2.2692 H   0  0  0  0  0  0  0  0  0  0  0  0
    6.8110   -0.4585    2.1934 H   0  0  0  0  0  0  0  0  0  0  0  0
    5.2389   -1.2661    2.3241 H   0  0  0  0  0  0  0  0  0  0  0  0
    6.1608   -1.3800   -0.0072 H   0  0  0  0  0  0  0  0  0  0  0  0
    6.2485    0.3734   -0.0702 H   0  0  0  0  0  0  0  0  0  0  0  0
    3.6721   -2.5301   -0.1503 H   0  0  0  0  0  0  0  0  0  0  0  0
   -1.9240   -1.4803   -2.6090 H   0  0  0  0  0  0  0  0  0  0  0  0
   -1.1611   -2.9181   -1.9950 H   0  0  0  0  0  0  0  0  0  0  0  0
   -0.9989   -3.1268    0.6939 H   0  0  0  0  0  0  0  0  0  0  0  0
   -2.4579   -3.0877    2.6741 H   0  0  0  0  0  0  0  0  0  0  0  0
   -4.6088   -1.8512    2.6231 H   0  0  0  0  0  0  0  0  0  0  0  0
   -5.2981   -0.6542    0.5595 H   0  0  0  0  0  0  0  0  0  0  0  0
   -3.8690   -0.6852   -1.4309 H   0  0  0  0  0  0  0  0  0  0  0  0
   -1.5768    1.6747    0.1587 H   0  0  0  0  0  0  0  0  0  0  0  0
   -0.8983    3.9000   -1.8521 H   0  0  0  0  0  0  0  0  0  0  0  0
    0.0486    3.4288   -0.4268 H   0  0  0  0  0  0  0  0  0  0  0  0
   -1.6919    5.4801   -0.2900 H   0  0  0  0  0  0  0  0  0  0  0  0
   -1.6415    4.3293    1.0682 H   0  0  0  0  0  0  0  0  0  0  0  0
  1  2  1  0
  2  3  1  0
  3  4  2  0
  4  5  1  0
  5  6  1  0
  6  7  2  0
  6  8  1  0
  8  9  1  0
  9 10  1  0
 10 11  2  0
 11 12  1  0
 12 13  2  0
 13 14  1  0
 14 15  2  0
  8 16  1  0
 16 17  1  0
 17 18  1  0
 18 19  1  0
 19 20  1  0
 20 21  1  0
 21 22  1  0
 22 23  2  0
 16 24  2  0
 24 25  1  0
 25 26  1  0
 26  3  1  0
 25  5  2  0
 15 10  1  0
 22 18  1  0
  1 27  1  0
  1 28  1  0
  1 29  1  0
  2 30  1  0
  2 31  1  0
  4 32  1  0
  9 33  1  0
  9 34  1  0
 11 35  1  0
 12 36  1  0
 13 37  1  0
 14 38  1  0
 15 39  1  0
 18 40  1  0
 19 41  1  0
 19 42  1  0
 20 43  1  0
 20 44  1  0
M  END
$$$$
