
     RDKit          3D

 34 36  0  0  0  0  0  0  0  0999 V2000
    3.2445    2.5957    0.3375 S   0  0  0  0  0  0  0  0  0  0  0  0
    2.0833    1.3851    0.4426 C   0  0  0  0  0  0  0  0  0  0  0  0
    0.8067    1.5100   -0.0275 N   0  0  0  0  0  0  0  0  0  0  0  0
    0.5198    1.0849   -1.2162 C   0  0  0  0  0  0  0  0  0  0  0  0
    1.6634    0.2891   -2.3525 S   0  0  0  0  0  0  0  0  0  0  0  0
    0.4087    0.1001   -3.5490 C   0  0  0  0  0  0  0  0  0  0  0  0
   -0.7535    0.5958   -3.1087 C   0  0  0  0  0  0  0  0  0  0  0  0
   -0.7243    1.1454   -1.8358 N   0  0  0  0  0  0  0  0  0  0  0  0
   -1.8900    1.6839   -1.1509 C   0  0  0  0  0  0  0  0  0  0  0  0
   -2.5766    0.6214   -0.3210 C   0  0  0  0  0  0  0  0  0  0  0  0
   -3.5135   -0.2474   -0.9004 C   0  0  0  0  0  0  0  0  0  0  0  0
   -4.1321   -1.2363   -0.1333 C   0  0  0  0  0  0  0  0  0  0  0  0
   -3.8187   -1.3702    1.2180 C   0  0  0  0  0  0  0  0  0  0  0  0
   -2.8854   -0.5178    1.8040 C   0  0  0  0  0  0  0  0  0  0  0  0
   -2.2658    0.4715    1.0390 C   0  0  0  0  0  0  0  0  0  0  0  0
    2.2627    0.1856    1.0941 N   0  0  0  0  0  0  0  0  0  0  0  0
    3.4570   -0.2802    1.7207 C   0  0  0  0  0  0  0  0  0  0  0  0
    4.5337   -0.9591    0.9200 C   0  0  0  0  0  0  0  0  0  0  0  0
    3.7012   -1.7573    1.8781 C   0  0  0  0  0  0  0  0  0  0  0  0
    0.5779   -0.3645   -4.5100 H   0  0  0  0  0  0  0  0  0  0  0  0
   -1.6867    0.5971   -3.6570 H   0  0  0  0  0  0  0  0  0  0  0  0
   -1.6123    2.5358   -0.5170 H   0  0  0  0  0  0  0  0  0  0  0  0
   -2.6052    2.0921   -1.8775 H   0  0  0  0  0  0  0  0  0  0  0  0
   -3.7669   -0.1606   -1.9542 H   0  0  0  0  0  0  0  0  0  0  0  0
   -4.8578   -1.9043   -0.5901 H   0  0  0  0  0  0  0  0  0  0  0  0
   -4.3006   -2.1407    1.8143 H   0  0  0  0  0  0  0  0  0  0  0  0
   -2.6384   -0.6231    2.8573 H   0  0  0  0  0  0  0  0  0  0  0  0
   -1.5343    1.1261    1.5101 H   0  0  0  0  0  0  0  0  0  0  0  0
    1.4403   -0.4039    1.1240 H   0  0  0  0  0  0  0  0  0  0  0  0
    3.7753    0.3461    2.5517 H   0  0  0  0  0  0  0  0  0  0  0  0
    5.5632   -0.7480    1.1847 H   0  0  0  0  0  0  0  0  0  0  0  0
    4.3705   -1.1015   -0.1421 H   0  0  0  0  0  0  0  0  0  0  0  0
    4.1695   -2.0971    2.7946 H   0  0  0  0  0  0  0  0  0  0  0  0
    2.9842   -2.4539    1.4606 H   0  0  0  0  0  0  0  0  0  0  0  0
  1  2  2  0
  2  3  1  0
  3  4  2  3
  4  5  1  0
  5  6  1  0
  6  7  2  0
  7  8  1  0
  8  9  1  0
  9 10  1  0
 10 11  2  0
 11 12  1  0
 12 13  2  0
 13 14  1  0
 14 15  2  0
  2 16  1  0
 16 17  1  0
 17 18  1  0
 18 19  1  0
  8  4  1  0
 15 10  1  0
 19 17  1  0
  6 20  1  0
  7 21  1  0
  9 22  1  0
  9 23  1  0
 11 24  1  0
 12 25  1  0
 13 26  1  0
 14 27  1  0
 15 28  1  0
 16 29  1  0
 17 30  1  0
 18 31  1  0
 18 32  1  0
 19 33  1  0
 19 34  1  0
M  END
$$$$
