
     RDKit          3D

 46 48  0  0  0  0  0  0  0  0999 V2000
   -1.7497   -0.1916   -2.7994 N   0  0  0  0  0  0  0  0  0  0  0  0
   -0.6181   -0.4743   -2.1303 C   0  0  0  0  0  0  0  0  0  0  0  0
    0.2810   -1.2977   -2.5794 N   0  0  0  0  0  0  0  0  0  0  0  0
    1.3193   -1.3202   -1.5075 C   0  0  0  0  0  0  0  0  0  0  0  0
    0.9485   -0.2186   -0.4878 C   0  0  0  0  0  0  0  0  0  0  0  0
    1.8948    0.9913   -0.5490 C   0  0  0  0  0  0  0  0  0  0  0  0
    3.2393    0.7245    0.0875 C   0  0  0  0  0  0  0  0  0  0  0  0
    4.3779    0.5314   -0.7069 C   0  0  0  0  0  0  0  0  0  0  0  0
    5.6160    0.2753   -0.1162 C   0  0  0  0  0  0  0  0  0  0  0  0
    5.7204    0.2139    1.2675 C   0  0  0  0  0  0  0  0  0  0  0  0
    6.9492   -0.0386    1.8014 O   0  0  0  0  0  0  0  0  0  0  0  0
    4.6045    0.4058    2.0748 C   0  0  0  0  0  0  0  0  0  0  0  0
    3.3649    0.6616    1.4838 C   0  0  0  0  0  0  0  0  0  0  0  0
   -0.3827    0.1594   -0.9558 N   0  0  0  0  0  0  0  0  0  0  0  0
   -1.3675    0.6999   -0.0326 C   0  0  0  0  0  0  0  0  0  0  0  0
   -1.9312   -0.3512    0.9515 C   0  0  0  0  0  0  0  0  0  0  0  0
   -2.8479   -1.3977    0.2946 C   0  0  0  0  0  0  0  0  0  0  0  0
   -4.1952   -0.8257   -0.1431 C   0  0  0  0  0  0  0  0  0  0  0  0
   -4.9114   -0.1292    1.0098 C   0  0  0  0  0  0  0  0  0  0  0  0
   -4.0296    0.9217    1.6768 C   0  0  0  0  0  0  0  0  0  0  0  0
   -2.6851    0.3371    2.1065 C   0  0  0  0  0  0  0  0  0  0  0  0
   -1.9430    0.7994   -2.8384 H   0  0  0  0  0  0  0  0  0  0  0  0
   -1.7103   -0.5924   -3.7307 H   0  0  0  0  0  0  0  0  0  0  0  0
    2.3079   -1.1806   -1.9536 H   0  0  0  0  0  0  0  0  0  0  0  0
    1.2991   -2.3058   -1.0283 H   0  0  0  0  0  0  0  0  0  0  0  0
    0.9233   -0.6443    0.5210 H   0  0  0  0  0  0  0  0  0  0  0  0
    2.0268    1.3223   -1.5879 H   0  0  0  0  0  0  0  0  0  0  0  0
    1.4442    1.8483   -0.0310 H   0  0  0  0  0  0  0  0  0  0  0  0
    4.3104    0.5771   -1.7920 H   0  0  0  0  0  0  0  0  0  0  0  0
    6.4963    0.1245   -0.7348 H   0  0  0  0  0  0  0  0  0  0  0  0
    6.8703   -0.0504    2.7690 H   0  0  0  0  0  0  0  0  0  0  0  0
    4.6786    0.3622    3.1566 H   0  0  0  0  0  0  0  0  0  0  0  0
    2.4968    0.8158    2.1211 H   0  0  0  0  0  0  0  0  0  0  0  0
   -0.8819    1.4967    0.5445 H   0  0  0  0  0  0  0  0  0  0  0  0
   -2.1725    1.1960   -0.5847 H   0  0  0  0  0  0  0  0  0  0  0  0
   -1.0881   -0.8912    1.3992 H   0  0  0  0  0  0  0  0  0  0  0  0
   -3.0346   -2.1991    1.0223 H   0  0  0  0  0  0  0  0  0  0  0  0
   -2.3528   -1.8790   -0.5538 H   0  0  0  0  0  0  0  0  0  0  0  0
   -4.8267   -1.6346   -0.5281 H   0  0  0  0  0  0  0  0  0  0  0  0
   -4.0557   -0.1184   -0.9679 H   0  0  0  0  0  0  0  0  0  0  0  0
   -5.8322    0.3390    0.6441 H   0  0  0  0  0  0  0  0  0  0  0  0
   -5.2097   -0.8770    1.7551 H   0  0  0  0  0  0  0  0  0  0  0  0
   -4.5471    1.3291    2.5529 H   0  0  0  0  0  0  0  0  0  0  0  0
   -3.8707    1.7599    0.9886 H   0  0  0  0  0  0  0  0  0  0  0  0
   -2.8607   -0.3999    2.9012 H   0  0  0  0  0  0  0  0  0  0  0  0
   -2.0654    1.1253    2.5501 H   0  0  0  0  0  0  0  0  0  0  0  0
  1  2  1  0
  2  3  2  0
  3  4  1  0
  4  5  1  0
  5  6  1  0
  6  7  1  0
  7  8  2  0
  8  9  1  0
  9 10  2  0
 10 11  1  0
 10 12  1  0
 12 13  2  0
  5 14  1  0
 14 15  1  0
 15 16  1  0
 16 17  1  0
 17 18  1  0
 18 19  1  0
 19 20  1  0
 20 21  1  0
 14  2  1  0
 21 16  1  0
 13  7  1  0
  1 22  1  0
  1 23  1  0
  4 24  1  0
  4 25  1  0
  5 26  1  0
  6 27  1  0
  6 28  1  0
  8 29  1  0
  9 30  1  0
 11 31  1  0
 12 32  1  0
 13 33  1  0
 15 34  1  0
 15 35  1  0
 16 36  1  0
 17 37  1  0
 17 38  1  0
 18 39  1  0
 18 40  1  0
 19 41  1  0
 19 42  1  0
 20 43  1  0
 20 44  1  0
 21 45  1  0
 21 46  1  0
M  END
$$$$
