
     RDKit          3D

 56 59  0  0  0  0  0  0  0  0999 V2000
   -5.9395    0.6836    0.4347 C   0  0  0  0  0  0  0  0  0  0  0  0
   -5.2016   -0.4661    1.0957 C   0  0  0  0  0  0  0  0  0  0  0  0
   -3.8220   -0.6060    0.5950 N   0  0  0  0  0  0  0  0  0  0  0  0
   -2.8410    0.3210    0.9824 C   0  0  0  0  0  0  0  0  0  0  0  0
   -2.1553    0.3309    2.1398 C   0  0  0  0  0  0  0  0  0  0  0  0
   -2.4147   -0.7122    3.0992 N   0  0  0  0  0  0  0  0  0  0  0  0
   -1.7142   -2.2186    2.7328 S   0  0  0  0  0  6  0  0  0  0  0  0
   -2.5868   -2.8777    1.7819 O   0  0  0  0  0  0  0  0  0  0  0  0
   -1.3890   -2.8306    4.0026 O   0  0  0  0  0  0  0  0  0  0  0  0
   -0.1842   -1.8357    1.9139 C   0  0  0  0  0  0  0  0  0  0  0  0
   -0.1030   -1.9052    0.5216 C   0  0  0  0  0  0  0  0  0  0  0  0
    1.0887   -1.5567   -0.1150 C   0  0  0  0  0  0  0  0  0  0  0  0
    2.2100   -1.1563    0.6295 C   0  0  0  0  0  0  0  0  0  0  0  0
    3.5075   -0.7465   -0.0468 C   0  0  0  0  0  0  0  0  0  0  0  0
    4.0430   -1.8116   -1.0146 C   0  0  0  0  0  0  0  0  0  0  0  0
    5.4311   -1.4420   -1.5466 C   0  0  0  0  0  0  0  0  0  0  0  0
    5.6648    0.0662   -1.6539 C   0  0  0  0  0  0  0  0  0  0  0  0
    4.3675    0.8279   -1.8869 C   0  0  0  0  0  0  0  0  0  0  0  0
    3.3667    0.6217   -0.7459 C   0  0  0  0  0  0  0  0  0  0  0  0
    2.1143   -1.1186    2.0303 C   0  0  0  0  0  0  0  0  0  0  0  0
    0.9256   -1.4643    2.6748 C   0  0  0  0  0  0  0  0  0  0  0  0
   -1.1994    1.3907    2.5381 C   0  0  0  0  0  0  0  0  0  0  0  0
   -0.6697    1.3596    3.6471 O   0  0  0  0  0  0  0  0  0  0  0  0
   -0.9528    2.3922    1.6224 O   0  0  0  0  0  0  0  0  0  0  0  0
   -1.5526    2.3537    0.3514 C   0  0  0  0  0  0  0  0  0  0  0  0
   -1.1617    3.3554   -0.5397 C   0  0  0  0  0  0  0  0  0  0  0  0
   -1.6884    3.3678   -1.8277 C   0  0  0  0  0  0  0  0  0  0  0  0
   -2.5917    2.3796   -2.2140 C   0  0  0  0  0  0  0  0  0  0  0  0
   -2.9747    1.3832   -1.3092 C   0  0  0  0  0  0  0  0  0  0  0  0
   -2.4704    1.3614   -0.0007 C   0  0  0  0  0  0  0  0  0  0  0  0
   -6.9735    0.7224    0.7921 H   0  0  0  0  0  0  0  0  0  0  0  0
   -5.4714    1.6461    0.6630 H   0  0  0  0  0  0  0  0  0  0  0  0
   -5.9628    0.5643   -0.6531 H   0  0  0  0  0  0  0  0  0  0  0  0
   -5.7359   -1.3981    0.8790 H   0  0  0  0  0  0  0  0  0  0  0  0
   -5.2018   -0.3413    2.1846 H   0  0  0  0  0  0  0  0  0  0  0  0
   -3.5276   -1.5399    0.9217 H   0  0  0  0  0  0  0  0  0  0  0  0
   -2.0839   -0.4523    4.0367 H   0  0  0  0  0  0  0  0  0  0  0  0
   -0.9605   -2.2066   -0.0769 H   0  0  0  0  0  0  0  0  0  0  0  0
    1.1305   -1.5905   -1.2019 H   0  0  0  0  0  0  0  0  0  0  0  0
    4.2692   -0.6334    0.7387 H   0  0  0  0  0  0  0  0  0  0  0  0
    4.0912   -2.7939   -0.5285 H   0  0  0  0  0  0  0  0  0  0  0  0
    3.3608   -1.9253   -1.8669 H   0  0  0  0  0  0  0  0  0  0  0  0
    6.2037   -1.8716   -0.8973 H   0  0  0  0  0  0  0  0  0  0  0  0
    5.5654   -1.9093   -2.5298 H   0  0  0  0  0  0  0  0  0  0  0  0
    6.1321    0.4281   -0.7293 H   0  0  0  0  0  0  0  0  0  0  0  0
    6.3762    0.2708   -2.4619 H   0  0  0  0  0  0  0  0  0  0  0  0
    3.9172    0.4894   -2.8288 H   0  0  0  0  0  0  0  0  0  0  0  0
    4.5717    1.8979   -2.0063 H   0  0  0  0  0  0  0  0  0  0  0  0
    3.5043    1.4102    0.0060 H   0  0  0  0  0  0  0  0  0  0  0  0
    2.3568    0.7726   -1.1475 H   0  0  0  0  0  0  0  0  0  0  0  0
    2.9680   -0.8124    2.6325 H   0  0  0  0  0  0  0  0  0  0  0  0
    0.8717   -1.4221    3.7608 H   0  0  0  0  0  0  0  0  0  0  0  0
   -0.4476    4.1148   -0.2334 H   0  0  0  0  0  0  0  0  0  0  0  0
   -1.3912    4.1404   -2.5321 H   0  0  0  0  0  0  0  0  0  0  0  0
   -2.9992    2.3781   -3.2223 H   0  0  0  0  0  0  0  0  0  0  0  0
   -3.6699    0.6149   -1.6414 H   0  0  0  0  0  0  0  0  0  0  0  0
  1  2  1  0
  2  3  1  0
  3  4  1  0
  4  5  2  0
  5  6  1  0
  6  7  1  0
  7  8  2  0
  7  9  2  0
  7 10  1  0
 10 11  2  0
 11 12  1  0
 12 13  2  0
 13 14  1  0
 14 15  1  0
 15 16  1  0
 16 17  1  0
 17 18  1  0
 18 19  1  0
 13 20  1  0
 20 21  2  0
  5 22  1  0
 22 23  2  0
 22 24  1  0
 24 25  1  0
 25 26  2  0
 26 27  1  0
 27 28  2  0
 28 29  1  0
 29 30  2  0
 30  4  1  0
 21 10  1  0
 30 25  1  0
 19 14  1  0
  1 31  1  0
  1 32  1  0
  1 33  1  0
  2 34  1  0
  2 35  1  0
  3 36  1  0
  6 37  1  0
 11 38  1  0
 12 39  1  0
 14 40  1  0
 15 41  1  0
 15 42  1  0
 16 43  1  0
 16 44  1  0
 17 45  1  0
 17 46  1  0
 18 47  1  0
 18 48  1  0
 19 49  1  0
 19 50  1  0
 20 51  1  0
 21 52  1  0
 26 53  1  0
 27 54  1  0
 28 55  1  0
 29 56  1  0
M  END
$$$$
