
     RDKit          3D

 54 57  0  0  0  0  0  0  0  0999 V2000
   -3.2465   -5.0448   -1.2086 C   0  0  0  0  0  0  0  0  0  0  0  0
   -3.5597   -4.4069    0.0230 O   0  0  0  0  0  0  0  0  0  0  0  0
   -3.4680   -3.0428    0.0524 C   0  0  0  0  0  0  0  0  0  0  0  0
   -3.7984   -2.4617    1.2786 C   0  0  0  0  0  0  0  0  0  0  0  0
   -3.7453   -1.0754    1.4492 C   0  0  0  0  0  0  0  0  0  0  0  0
   -3.3602   -0.2463    0.3891 C   0  0  0  0  0  0  0  0  0  0  0  0
   -3.2813    1.2101    0.5611 C   0  0  0  0  0  0  0  0  0  0  0  0
   -4.7211    2.0665    0.9115 S   0  0  0  0  0  0  0  0  0  0  0  0
   -3.9214    3.5853    0.9418 C   0  0  0  0  0  0  0  0  0  0  0  0
   -4.5084    4.8425    1.1900 C   0  0  0  0  0  0  0  0  0  0  0  0
   -3.7018    5.9820    1.1829 C   0  0  0  0  0  0  0  0  0  0  0  0
   -2.3411    5.8782    0.9372 C   0  0  0  0  0  0  0  0  0  0  0  0
   -1.7642    4.6289    0.6907 C   0  0  0  0  0  0  0  0  0  0  0  0
   -2.5560    3.4500    0.6843 C   0  0  0  0  0  0  0  0  0  0  0  0
   -2.1946    2.0663    0.4578 C   0  0  0  0  0  0  0  0  0  0  0  0
   -0.8525    1.5761    0.1564 C   0  0  0  0  0  0  0  0  0  0  0  0
   -0.1650    0.7728    1.0724 C   0  0  0  0  0  0  0  0  0  0  0  0
    1.1201    0.3028    0.7781 C   0  0  0  0  0  0  0  0  0  0  0  0
    1.7287    0.6362   -0.4324 C   0  0  0  0  0  0  0  0  0  0  0  0
    2.9729    0.2443   -0.8428 O   0  0  0  0  0  0  0  0  0  0  0  0
    3.7098   -0.6091    0.0400 C   0  0  0  0  0  0  0  0  0  0  0  0
    5.0640   -0.9185   -0.6193 C   0  0  0  0  0  0  0  0  0  0  0  0
    5.9799   -1.7131    0.2222 N   0  0  0  0  0  0  0  0  0  0  0  0
    5.5018   -3.0856    0.4020 C   0  0  0  0  0  0  0  0  0  0  0  0
    7.3165   -1.7324   -0.3797 C   0  0  0  0  0  0  0  0  0  0  0  0
    1.0432    1.4451   -1.3427 C   0  0  0  0  0  0  0  0  0  0  0  0
   -0.2401    1.9151   -1.0536 C   0  0  0  0  0  0  0  0  0  0  0  0
   -3.0296   -0.8335   -0.8389 C   0  0  0  0  0  0  0  0  0  0  0  0
   -3.0826   -2.2226   -1.0074 C   0  0  0  0  0  0  0  0  0  0  0  0
   -3.3741   -6.1226   -1.0686 H   0  0  0  0  0  0  0  0  0  0  0  0
   -3.9312   -4.7289   -2.0026 H   0  0  0  0  0  0  0  0  0  0  0  0
   -2.2035   -4.8672   -1.4909 H   0  0  0  0  0  0  0  0  0  0  0  0
   -4.0990   -3.0942    2.1103 H   0  0  0  0  0  0  0  0  0  0  0  0
   -4.0009   -0.6514    2.4174 H   0  0  0  0  0  0  0  0  0  0  0  0
   -5.5737    4.9254    1.3864 H   0  0  0  0  0  0  0  0  0  0  0  0
   -4.1457    6.9559    1.3747 H   0  0  0  0  0  0  0  0  0  0  0  0
   -1.7177    6.7689    0.9378 H   0  0  0  0  0  0  0  0  0  0  0  0
   -0.6942    4.5638    0.5061 H   0  0  0  0  0  0  0  0  0  0  0  0
   -0.6243    0.5046    2.0214 H   0  0  0  0  0  0  0  0  0  0  0  0
    1.6141   -0.3191    1.5171 H   0  0  0  0  0  0  0  0  0  0  0  0
    3.8812   -0.0993    0.9959 H   0  0  0  0  0  0  0  0  0  0  0  0
    3.1480   -1.5359    0.2002 H   0  0  0  0  0  0  0  0  0  0  0  0
    5.5323    0.0481   -0.8511 H   0  0  0  0  0  0  0  0  0  0  0  0
    4.8970   -1.4033   -1.5910 H   0  0  0  0  0  0  0  0  0  0  0  0
    6.2121   -3.6638    1.0043 H   0  0  0  0  0  0  0  0  0  0  0  0
    5.3624   -3.6038   -0.5536 H   0  0  0  0  0  0  0  0  0  0  0  0
    4.5553   -3.1062    0.9510 H   0  0  0  0  0  0  0  0  0  0  0  0
    7.3154   -2.1921   -1.3747 H   0  0  0  0  0  0  0  0  0  0  0  0
    7.7142   -0.7152   -0.4687 H   0  0  0  0  0  0  0  0  0  0  0  0
    8.0175   -2.2851    0.2559 H   0  0  0  0  0  0  0  0  0  0  0  0
    1.5128    1.7105   -2.2867 H   0  0  0  0  0  0  0  0  0  0  0  0
   -0.7561    2.5395   -1.7789 H   0  0  0  0  0  0  0  0  0  0  0  0
   -2.7264   -0.2112   -1.6782 H   0  0  0  0  0  0  0  0  0  0  0  0
   -2.8148   -2.6267   -1.9777 H   0  0  0  0  0  0  0  0  0  0  0  0
  1  2  1  0
  2  3  1  0
  3  4  2  0
  4  5  1  0
  5  6  2  0
  6  7  1  0
  7  8  1  0
  8  9  1  0
  9 10  2  0
 10 11  1  0
 11 12  2  0
 12 13  1  0
 13 14  2  0
 14 15  1  0
 15 16  1  0
 16 17  2  0
 17 18  1  0
 18 19  2  0
 19 20  1  0
 20 21  1  0
 21 22  1  0
 22 23  1  0
 23 24  1  0
 23 25  1  0
 19 26  1  0
 26 27  2  0
  6 28  1  0
 28 29  2  0
 29  3  1  0
 15  7  2  0
 27 16  1  0
 14  9  1  0
  1 30  1  0
  1 31  1  0
  1 32  1  0
  4 33  1  0
  5 34  1  0
 10 35  1  0
 11 36  1  0
 12 37  1  0
 13 38  1  0
 17 39  1  0
 18 40  1  0
 21 41  1  0
 21 42  1  0
 22 43  1  0
 22 44  1  0
 24 45  1  0
 24 46  1  0
 24 47  1  0
 25 48  1  0
 25 49  1  0
 25 50  1  0
 26 51  1  0
 27 52  1  0
 28 53  1  0
 29 54  1  0
M  END
$$$$
