
     RDKit          3D

 55 56  0  0  0  0  0  0  0  0999 V2000
   -6.4672    1.4898    0.1139 C   0  0  0  0  0  0  0  0  0  0  0  0
   -5.1982    0.7668   -0.1456 C   0  0  0  0  0  0  0  0  0  0  0  0
   -4.8806   -0.0328   -1.2256 C   0  0  0  0  0  0  0  0  0  0  0  0
   -3.5760   -0.5063   -0.9890 C   0  0  0  0  0  0  0  0  0  0  0  0
   -2.7765   -1.4001   -1.8339 C   0  0  0  0  0  0  0  0  0  0  0  0
   -3.1582   -1.8546   -2.9105 O   0  0  0  0  0  0  0  0  0  0  0  0
   -1.5331   -1.6794   -1.2810 N   0  0  0  0  0  0  0  0  0  0  0  0
   -0.4365   -2.1750   -2.2133 N   0  0  0  0  0  0  0  0  0  0  0  0
    0.4047   -0.9681   -3.0896 S   0  0  0  0  0  6  0  0  0  0  0  0
    0.6901   -1.5265   -4.3939 O   0  0  0  0  0  0  0  0  0  0  0  0
   -0.2833    0.2954   -2.9262 O   0  0  0  0  0  0  0  0  0  0  0  0
    1.9227   -0.8946   -2.1748 C   0  0  0  0  0  0  0  0  0  0  0  0
    3.0175   -1.6627   -2.5630 C   0  0  0  0  0  0  0  0  0  0  0  0
    4.2088   -1.5857   -1.8323 C   0  0  0  0  0  0  0  0  0  0  0  0
    4.3319   -0.7417   -0.7116 C   0  0  0  0  0  0  0  0  0  0  0  0
    5.6296   -0.6431    0.1164 C   0  0  0  0  0  0  0  0  0  0  0  0
    5.3258   -0.9188    1.6095 C   0  0  0  0  0  0  0  0  0  0  0  0
    6.2263    0.7740   -0.0218 C   0  0  0  0  0  0  0  0  0  0  0  0
    6.7202   -1.6492   -0.3181 C   0  0  0  0  0  0  0  0  0  0  0  0
    3.2131    0.0419   -0.3653 C   0  0  0  0  0  0  0  0  0  0  0  0
    2.0200   -0.0291   -1.0873 C   0  0  0  0  0  0  0  0  0  0  0  0
   -3.0985   -0.0305    0.1747 N   0  0  0  0  0  0  0  0  0  0  0  0
   -4.0820    0.7626    0.6692 N   0  0  0  0  0  0  0  0  0  0  0  0
   -3.8570    1.4186    1.9761 C   0  0  0  0  0  0  0  0  0  0  0  0
   -4.5555    0.6049    3.0766 C   0  0  0  0  0  0  0  0  0  0  0  0
   -2.3455    1.4797    2.3161 C   0  0  0  0  0  0  0  0  0  0  0  0
   -4.3577    2.8766    1.9986 C   0  0  0  0  0  0  0  0  0  0  0  0
   -7.2456    1.1574   -0.5793 H   0  0  0  0  0  0  0  0  0  0  0  0
   -6.3431    2.5644   -0.0388 H   0  0  0  0  0  0  0  0  0  0  0  0
   -6.8411    1.3083    1.1242 H   0  0  0  0  0  0  0  0  0  0  0  0
   -5.5082   -0.2623   -2.0743 H   0  0  0  0  0  0  0  0  0  0  0  0
   -1.2611   -1.0610   -0.5165 H   0  0  0  0  0  0  0  0  0  0  0  0
   -0.7534   -2.8904   -2.8803 H   0  0  0  0  0  0  0  0  0  0  0  0
    2.9586   -2.3206   -3.4268 H   0  0  0  0  0  0  0  0  0  0  0  0
    5.0392   -2.2012   -2.1689 H   0  0  0  0  0  0  0  0  0  0  0  0
    4.6571   -0.1691    2.0467 H   0  0  0  0  0  0  0  0  0  0  0  0
    6.2460   -0.9079    2.2103 H   0  0  0  0  0  0  0  0  0  0  0  0
    4.8504   -1.9006    1.7413 H   0  0  0  0  0  0  0  0  0  0  0  0
    5.5344    1.5541    0.3109 H   0  0  0  0  0  0  0  0  0  0  0  0
    6.4867    0.9931   -1.0643 H   0  0  0  0  0  0  0  0  0  0  0  0
    7.1413    0.8772    0.5749 H   0  0  0  0  0  0  0  0  0  0  0  0
    6.3568   -2.6838   -0.2478 H   0  0  0  0  0  0  0  0  0  0  0  0
    7.0538   -1.4705   -1.3477 H   0  0  0  0  0  0  0  0  0  0  0  0
    7.6084   -1.5699    0.3234 H   0  0  0  0  0  0  0  0  0  0  0  0
    3.2588    0.7266    0.4799 H   0  0  0  0  0  0  0  0  0  0  0  0
    1.1799    0.5950   -0.7975 H   0  0  0  0  0  0  0  0  0  0  0  0
   -5.6347    0.5386    2.9126 H   0  0  0  0  0  0  0  0  0  0  0  0
   -4.1752   -0.4213    3.1149 H   0  0  0  0  0  0  0  0  0  0  0  0
   -4.3968    1.0569    4.0587 H   0  0  0  0  0  0  0  0  0  0  0  0
   -1.7947    2.0405    1.5530 H   0  0  0  0  0  0  0  0  0  0  0  0
   -1.8955    0.4815    2.3889 H   0  0  0  0  0  0  0  0  0  0  0  0
   -2.1743    1.9762    3.2772 H   0  0  0  0  0  0  0  0  0  0  0  0
   -5.4467    2.9450    2.0314 H   0  0  0  0  0  0  0  0  0  0  0  0
   -4.0037    3.4313    1.1231 H   0  0  0  0  0  0  0  0  0  0  0  0
   -4.0022    3.4000    2.8970 H   0  0  0  0  0  0  0  0  0  0  0  0
  1  2  1  0
  2  3  2  0
  3  4  1  0
  4  5  1  0
  5  6  2  0
  5  7  1  0
  7  8  1  0
  8  9  1  0
  9 10  2  0
  9 11  2  0
  9 12  1  0
 12 13  2  0
 13 14  1  0
 14 15  2  0
 15 16  1  0
 16 17  1  0
 16 18  1  0
 16 19  1  0
 15 20  1  0
 20 21  2  0
  4 22  2  0
 22 23  1  0
 23 24  1  0
 24 25  1  0
 24 26  1  0
 24 27  1  0
 23  2  1  0
 21 12  1  0
  1 28  1  0
  1 29  1  0
  1 30  1  0
  3 31  1  0
  7 32  1  0
  8 33  1  0
 13 34  1  0
 14 35  1  0
 17 36  1  0
 17 37  1  0
 17 38  1  0
 18 39  1  0
 18 40  1  0
 18 41  1  0
 19 42  1  0
 19 43  1  0
 19 44  1  0
 20 45  1  0
 21 46  1  0
 25 47  1  0
 25 48  1  0
 25 49  1  0
 26 50  1  0
 26 51  1  0
 26 52  1  0
 27 53  1  0
 27 54  1  0
 27 55  1  0
M  END
$$$$
