
     RDKit          3D

 47 50  0  0  0  0  0  0  0  0999 V2000
   -4.7973    1.4473    2.3726 C   0  0  0  0  0  0  0  0  0  0  0  0
   -3.7579    0.8113    1.5685 N   0  0  0  0  0  0  0  0  0  0  0  0
   -4.2310    0.5657    0.1937 C   0  0  0  0  0  0  0  0  0  0  0  0
   -3.1281   -0.0582   -0.6937 C   0  0  0  0  0  0  0  0  0  0  0  0
   -1.9288    0.7890   -0.7438 N   0  0  0  0  0  0  0  0  0  0  0  0
   -0.8944    0.3460   -1.6835 C   0  0  0  0  0  0  0  0  0  0  0  0
   -0.1142   -0.9056   -1.3432 C   0  0  0  0  0  0  0  0  0  0  0  0
   -0.6797   -2.1664   -1.5454 C   0  0  0  0  0  0  0  0  0  0  0  0
    0.0402   -3.3289   -1.2518 C   0  0  0  0  0  0  0  0  0  0  0  0
   -0.7692   -4.8371   -1.5291 Cl  0  0  0  0  0  0  0  0  0  0  0  0
    1.3727   -3.2715   -0.7756 C   0  0  0  0  0  0  0  0  0  0  0  0
    2.1617   -4.4069   -0.4810 C   0  0  0  0  0  0  0  0  0  0  0  0
    3.4727   -4.2684   -0.0430 C   0  0  0  0  0  0  0  0  0  0  0  0
    3.9741   -2.9927    0.0838 C   0  0  0  0  0  0  0  0  0  0  0  0
    3.2608   -1.8809   -0.1888 N   0  0  0  0  0  0  0  0  0  0  0  0
    1.9749   -2.0103   -0.5912 C   0  0  0  0  0  0  0  0  0  0  0  0
    1.2039   -0.8660   -0.8552 C   0  0  0  0  0  0  0  0  0  0  0  0
    1.8279    0.3923   -0.7137 O   0  0  0  0  0  0  0  0  0  0  0  0
    2.0902    0.7500    0.6097 C   0  0  0  0  0  0  0  0  0  0  0  0
    1.6085    0.1956    1.5932 O   0  0  0  0  0  0  0  0  0  0  0  0
    2.9530    1.9194    0.6212 C   0  0  0  0  0  0  0  0  0  0  0  0
    3.5621    2.5794   -0.4327 C   0  0  0  0  0  0  0  0  0  0  0  0
    4.3353    3.6987   -0.0061 C   0  0  0  0  0  0  0  0  0  0  0  0
    4.2951    3.8598    1.3598 C   0  0  0  0  0  0  0  0  0  0  0  0
    3.3328    2.6681    2.1179 S   0  0  0  0  0  0  0  0  0  0  0  0
   -1.4397    1.0509    0.6191 C   0  0  0  0  0  0  0  0  0  0  0  0
   -2.5416    1.6476    1.5279 C   0  0  0  0  0  0  0  0  0  0  0  0
   -4.4499    1.5957    3.4010 H   0  0  0  0  0  0  0  0  0  0  0  0
   -5.1009    2.4195    1.9679 H   0  0  0  0  0  0  0  0  0  0  0  0
   -5.6841    0.8063    2.4292 H   0  0  0  0  0  0  0  0  0  0  0  0
   -5.0822   -0.1255    0.2185 H   0  0  0  0  0  0  0  0  0  0  0  0
   -4.5801    1.4988   -0.2691 H   0  0  0  0  0  0  0  0  0  0  0  0
   -2.8936   -1.0537   -0.2988 H   0  0  0  0  0  0  0  0  0  0  0  0
   -3.5355   -0.1872   -1.7034 H   0  0  0  0  0  0  0  0  0  0  0  0
   -1.3474    0.2060   -2.6748 H   0  0  0  0  0  0  0  0  0  0  0  0
   -0.1997    1.1811   -1.8385 H   0  0  0  0  0  0  0  0  0  0  0  0
   -1.6898   -2.2503   -1.9407 H   0  0  0  0  0  0  0  0  0  0  0  0
    1.7596   -5.4113   -0.5918 H   0  0  0  0  0  0  0  0  0  0  0  0
    4.0827   -5.1339    0.1888 H   0  0  0  0  0  0  0  0  0  0  0  0
    4.9927   -2.8195    0.4192 H   0  0  0  0  0  0  0  0  0  0  0  0
    3.4637    2.2724   -1.4677 H   0  0  0  0  0  0  0  0  0  0  0  0
    4.8940    4.3497   -0.6675 H   0  0  0  0  0  0  0  0  0  0  0  0
    4.7863    4.6191    1.9531 H   0  0  0  0  0  0  0  0  0  0  0  0
   -1.0681    0.1288    1.0825 H   0  0  0  0  0  0  0  0  0  0  0  0
   -0.6139    1.7700    0.5811 H   0  0  0  0  0  0  0  0  0  0  0  0
   -2.1333    1.7478    2.5409 H   0  0  0  0  0  0  0  0  0  0  0  0
   -2.7842    2.6582    1.1718 H   0  0  0  0  0  0  0  0  0  0  0  0
  1  2  1  0
  2  3  1  0
  3  4  1  0
  4  5  1  0
  5  6  1  0
  6  7  1  0
  7  8  2  0
  8  9  1  0
  9 10  1  0
  9 11  2  0
 11 12  1  0
 12 13  2  0
 13 14  1  0
 14 15  2  0
 15 16  1  0
 16 17  2  0
 17 18  1  0
 18 19  1  0
 19 20  2  0
 19 21  1  0
 21 22  2  0
 22 23  1  0
 23 24  2  0
 24 25  1  0
  5 26  1  0
 26 27  1  0
 27  2  1  0
 17  7  1  0
 25 21  1  0
 16 11  1  0
  1 28  1  0
  1 29  1  0
  1 30  1  0
  3 31  1  0
  3 32  1  0
  4 33  1  0
  4 34  1  0
  6 35  1  0
  6 36  1  0
  8 37  1  0
 12 38  1  0
 13 39  1  0
 14 40  1  0
 22 41  1  0
 23 42  1  0
 24 43  1  0
 26 44  1  0
 26 45  1  0
 27 46  1  0
 27 47  1  0
M  END
$$$$
