
     RDKit          3D

 45 47  0  0  0  0  0  0  0  0999 V2000
    6.4555    3.8653   -1.6711 C   0  0  0  0  0  0  0  0  0  0  0  0
    5.0119    3.4915   -1.8981 C   0  0  0  0  0  0  0  0  0  0  0  0
    4.2721    4.2111   -2.5587 O   0  0  0  0  0  0  0  0  0  0  0  0
    4.6872    2.2862   -1.3012 N   0  0  0  0  0  0  0  0  0  0  0  0
    3.4419    1.6256   -1.3232 C   0  0  0  0  0  0  0  0  0  0  0  0
    3.3461    0.4197   -0.6139 C   0  0  0  0  0  0  0  0  0  0  0  0
    2.1467   -0.2976   -0.5796 C   0  0  0  0  0  0  0  0  0  0  0  0
    1.0277    0.1996   -1.2485 C   0  0  0  0  0  0  0  0  0  0  0  0
   -0.4997   -0.7194   -1.2290 S   0  0  0  0  0  6  0  0  0  0  0  0
   -1.2225   -0.3581   -2.4328 O   0  0  0  0  0  0  0  0  0  0  0  0
   -0.1668   -2.1033   -0.9708 O   0  0  0  0  0  0  0  0  0  0  0  0
   -1.2999   -0.0519    0.0682 N   0  0  0  0  0  0  0  0  0  0  0  0
   -2.0068    1.2133   -0.1267 C   0  0  0  0  0  0  0  0  0  0  0  0
   -2.5524    1.4448    1.2851 C   0  0  0  0  0  0  0  0  0  0  0  0
   -1.8245    0.5263    2.2030 N   0  0  0  0  0  0  0  0  0  0  0  0
   -1.1784   -0.2946    1.4365 C   0  0  0  0  0  0  0  0  0  0  0  0
   -0.2140   -1.5614    2.0820 S   0  0  0  0  0  0  0  0  0  0  0  0
   -1.5102   -2.4756    2.9585 C   0  0  0  0  0  0  0  0  0  0  0  0
   -2.6537   -2.9089    2.0709 C   0  0  0  0  0  0  0  0  0  0  0  0
   -2.4545   -3.8511    1.0481 C   0  0  0  0  0  0  0  0  0  0  0  0
   -3.5119   -4.2307    0.2201 C   0  0  0  0  0  0  0  0  0  0  0  0
   -4.7697   -3.6752    0.4159 C   0  0  0  0  0  0  0  0  0  0  0  0
   -5.7846   -4.0401   -0.3783 F   0  0  0  0  0  0  0  0  0  0  0  0
   -4.9907   -2.7440    1.4229 C   0  0  0  0  0  0  0  0  0  0  0  0
   -3.9343   -2.3596    2.2499 C   0  0  0  0  0  0  0  0  0  0  0  0
    1.1168    1.3828   -1.9842 C   0  0  0  0  0  0  0  0  0  0  0  0
    2.3203    2.0962   -2.0112 C   0  0  0  0  0  0  0  0  0  0  0  0
    6.7372    3.6967   -0.6277 H   0  0  0  0  0  0  0  0  0  0  0  0
    7.0939    3.2693   -2.3285 H   0  0  0  0  0  0  0  0  0  0  0  0
    6.5976    4.9264   -1.8957 H   0  0  0  0  0  0  0  0  0  0  0  0
    5.4249    1.8250   -0.7834 H   0  0  0  0  0  0  0  0  0  0  0  0
    4.2040    0.0171   -0.0805 H   0  0  0  0  0  0  0  0  0  0  0  0
    2.1009   -1.2395   -0.0373 H   0  0  0  0  0  0  0  0  0  0  0  0
   -1.3177    2.0161   -0.4022 H   0  0  0  0  0  0  0  0  0  0  0  0
   -2.8182    1.1399   -0.8548 H   0  0  0  0  0  0  0  0  0  0  0  0
   -3.6230    1.2161    1.3330 H   0  0  0  0  0  0  0  0  0  0  0  0
   -2.4100    2.4842    1.5972 H   0  0  0  0  0  0  0  0  0  0  0  0
   -1.0588   -3.3668    3.4093 H   0  0  0  0  0  0  0  0  0  0  0  0
   -1.8750   -1.8634    3.7911 H   0  0  0  0  0  0  0  0  0  0  0  0
   -1.4684   -4.2803    0.8763 H   0  0  0  0  0  0  0  0  0  0  0  0
   -3.3580   -4.9487   -0.5792 H   0  0  0  0  0  0  0  0  0  0  0  0
   -5.9818   -2.3223    1.5554 H   0  0  0  0  0  0  0  0  0  0  0  0
   -4.1141   -1.6218    3.0299 H   0  0  0  0  0  0  0  0  0  0  0  0
    0.2640    1.7590   -2.5453 H   0  0  0  0  0  0  0  0  0  0  0  0
    2.3508    3.0139   -2.5914 H   0  0  0  0  0  0  0  0  0  0  0  0
  1  2  1  0
  2  3  2  0
  2  4  1  0
  4  5  1  0
  5  6  2  0
  6  7  1  0
  7  8  2  0
  8  9  1  0
  9 10  2  0
  9 11  2  0
  9 12  1  0
 12 13  1  0
 13 14  1  0
 14 15  1  0
 15 16  2  0
 16 17  1  0
 17 18  1  0
 18 19  1  0
 19 20  2  0
 20 21  1  0
 21 22  2  0
 22 23  1  0
 22 24  1  0
 24 25  2  0
  8 26  1  0
 26 27  2  0
 27  5  1  0
 16 12  1  0
 25 19  1  0
  1 28  1  0
  1 29  1  0
  1 30  1  0
  4 31  1  0
  6 32  1  0
  7 33  1  0
 13 34  1  0
 13 35  1  0
 14 36  1  0
 14 37  1  0
 18 38  1  0
 18 39  1  0
 20 40  1  0
 21 41  1  0
 24 42  1  0
 25 43  1  0
 26 44  1  0
 27 45  1  0
M  END
$$$$
