
     RDKit          3D

 39 42  0  0  0  0  0  0  0  0999 V2000
    4.4769    2.9795   -1.8396 C   0  0  0  0  0  0  0  0  0  0  0  0
    3.8523    1.9417   -1.0831 O   0  0  0  0  0  0  0  0  0  0  0  0
    3.9907    0.7056   -1.6250 C   0  0  0  0  0  0  0  0  0  0  0  0
    4.5827    0.4433   -2.6604 O   0  0  0  0  0  0  0  0  0  0  0  0
    3.3161   -0.3183   -0.7811 C   0  0  0  0  0  0  0  0  0  0  0  0
    2.6379    0.0076    0.3998 C   0  0  0  0  0  0  0  0  0  0  0  0
    2.0185   -0.9930    1.1550 C   0  0  0  0  0  0  0  0  0  0  0  0
    2.0652   -2.3328    0.7427 C   0  0  0  0  0  0  0  0  0  0  0  0
    1.3779   -3.4083    1.5505 C   0  0  0  0  0  0  0  0  0  0  0  0
   -0.1595   -4.0056    0.7872 S   0  0  0  0  0  0  0  0  0  0  0  0
   -1.1436   -2.5336    0.9471 C   0  0  0  0  0  0  0  0  0  0  0  0
   -1.1735   -1.9245    2.1663 N   0  0  0  0  0  0  0  0  0  0  0  0
   -1.8727   -0.8041    2.3588 N   0  0  0  0  0  0  0  0  0  0  0  0
   -2.5485   -0.3294    1.2836 C   0  0  0  0  0  0  0  0  0  0  0  0
   -2.4867   -1.0046    0.0785 C   0  0  0  0  0  0  0  0  0  0  0  0
   -1.7982   -2.1316   -0.1638 N   0  0  0  0  0  0  0  0  0  0  0  0
   -3.2484   -0.3198   -0.8238 N   0  0  0  0  0  0  0  0  0  0  0  0
   -3.8049    0.7934   -0.2280 C   0  0  0  0  0  0  0  0  0  0  0  0
   -4.6450    1.7779   -0.7608 C   0  0  0  0  0  0  0  0  0  0  0  0
   -5.0597    2.8051    0.0930 C   0  0  0  0  0  0  0  0  0  0  0  0
   -4.6510    2.8457    1.4247 C   0  0  0  0  0  0  0  0  0  0  0  0
   -3.8107    1.8549    1.9444 C   0  0  0  0  0  0  0  0  0  0  0  0
   -3.3777    0.8086    1.1058 C   0  0  0  0  0  0  0  0  0  0  0  0
    2.7458   -2.6538   -0.4407 C   0  0  0  0  0  0  0  0  0  0  0  0
    3.3664   -1.6550   -1.1959 C   0  0  0  0  0  0  0  0  0  0  0  0
    4.3070    3.9265   -1.3199 H   0  0  0  0  0  0  0  0  0  0  0  0
    5.5561    2.8095   -1.9059 H   0  0  0  0  0  0  0  0  0  0  0  0
    4.0322    3.0475   -2.8375 H   0  0  0  0  0  0  0  0  0  0  0  0
    2.5787    1.0367    0.7458 H   0  0  0  0  0  0  0  0  0  0  0  0
    1.4913   -0.7139    2.0666 H   0  0  0  0  0  0  0  0  0  0  0  0
    1.1872   -3.0694    2.5751 H   0  0  0  0  0  0  0  0  0  0  0  0
    2.0589   -4.2625    1.6441 H   0  0  0  0  0  0  0  0  0  0  0  0
   -3.3741   -0.5986   -1.7855 H   0  0  0  0  0  0  0  0  0  0  0  0
   -4.9683    1.7533   -1.7969 H   0  0  0  0  0  0  0  0  0  0  0  0
   -5.7137    3.5860   -0.2900 H   0  0  0  0  0  0  0  0  0  0  0  0
   -4.9879    3.6548    2.0688 H   0  0  0  0  0  0  0  0  0  0  0  0
   -3.4956    1.8912    2.9839 H   0  0  0  0  0  0  0  0  0  0  0  0
    2.7912   -3.6848   -0.7874 H   0  0  0  0  0  0  0  0  0  0  0  0
    3.8868   -1.9253   -2.1132 H   0  0  0  0  0  0  0  0  0  0  0  0
  1  2  1  0
  2  3  1  0
  3  4  2  0
  3  5  1  0
  5  6  2  0
  6  7  1  0
  7  8  2  0
  8  9  1  0
  9 10  1  0
 10 11  1  0
 11 12  2  0
 12 13  1  0
 13 14  2  0
 14 15  1  0
 15 16  2  0
 15 17  1  0
 17 18  1  0
 18 19  2  0
 19 20  1  0
 20 21  2  0
 21 22  1  0
 22 23  2  0
  8 24  1  0
 24 25  2  0
 25  5  1  0
 16 11  1  0
 23 18  1  0
 23 14  1  0
  1 26  1  0
  1 27  1  0
  1 28  1  0
  6 29  1  0
  7 30  1  0
  9 31  1  0
  9 32  1  0
 17 33  1  0
 19 34  1  0
 20 35  1  0
 21 36  1  0
 22 37  1  0
 24 38  1  0
 25 39  1  0
M  END
$$$$
