
     RDKit          3D

 47 50  0  0  0  0  0  0  0  0999 V2000
   -3.3656    1.8033   -0.8114 O   0  0  0  0  0  0  0  0  0  0  0  0
   -3.4011    0.7705   -0.1172 C   0  0  0  0  0  0  0  0  0  0  0  0
   -4.7469    0.0344   -0.0152 C   0  0  0  0  0  0  0  0  0  0  0  0
   -4.9333   -1.4900   -0.1664 C   0  0  0  0  0  0  0  0  0  0  0  0
   -6.1119   -1.3808    0.8218 C   0  0  0  0  0  0  0  0  0  0  0  0
   -5.4850   -0.0715    1.3393 C   0  0  0  0  0  0  0  0  0  0  0  0
   -2.2713    0.3105    0.5605 N   0  0  0  0  0  0  0  0  0  0  0  0
   -2.1159   -0.9566    1.2979 C   0  0  0  0  0  0  0  0  0  0  0  0
   -0.7778   -0.9037    2.0416 C   0  0  0  0  0  0  0  0  0  0  0  0
   -0.1059    0.2419    1.3590 C   0  0  0  0  0  0  0  0  0  0  0  0
    1.2093    0.6556    1.5208 C   0  0  0  0  0  0  0  0  0  0  0  0
    1.6225    1.8018    0.8352 C   0  0  0  0  0  0  0  0  0  0  0  0
    3.2969    2.3700    1.0357 S   0  0  0  0  0  6  0  0  0  0  0  0
    3.4154    3.6671    0.4046 O   0  0  0  0  0  0  0  0  0  0  0  0
    3.6552    2.1578    2.4205 O   0  0  0  0  0  0  0  0  0  0  0  0
    4.1700    1.2779    0.1195 N   0  0  0  0  0  0  0  0  0  0  0  0
    3.9898    1.3022   -1.3390 C   0  0  0  0  0  0  0  0  0  0  0  0
    4.2101   -0.0733   -1.9453 C   0  0  0  0  0  0  0  0  0  0  0  0
    4.5011   -0.2041   -3.3021 C   0  0  0  0  0  0  0  0  0  0  0  0
    4.6794   -1.4802   -3.8267 C   0  0  0  0  0  0  0  0  0  0  0  0
    4.5521   -2.5858   -2.9965 C   0  0  0  0  0  0  0  0  0  0  0  0
    4.2465   -2.3717   -1.6622 C   0  0  0  0  0  0  0  0  0  0  0  0
    4.0666   -1.1476   -1.1172 N   0  0  0  0  0  0  0  0  0  0  0  0
    0.7263    2.5298    0.0369 C   0  0  0  0  0  0  0  0  0  0  0  0
   -0.5972    2.0963   -0.1089 C   0  0  0  0  0  0  0  0  0  0  0  0
   -1.0046    0.9456    0.5503 C   0  0  0  0  0  0  0  0  0  0  0  0
   -5.4277    0.5218   -0.7396 H   0  0  0  0  0  0  0  0  0  0  0  0
   -4.1366   -2.1372    0.1988 H   0  0  0  0  0  0  0  0  0  0  0  0
   -5.2051   -1.8248   -1.1712 H   0  0  0  0  0  0  0  0  0  0  0  0
   -6.1932   -2.1877    1.5531 H   0  0  0  0  0  0  0  0  0  0  0  0
   -7.0830   -1.2408    0.3335 H   0  0  0  0  0  0  0  0  0  0  0  0
   -4.8490   -0.1978    2.2186 H   0  0  0  0  0  0  0  0  0  0  0  0
   -6.1980    0.7317    1.5451 H   0  0  0  0  0  0  0  0  0  0  0  0
   -2.0889   -1.7625    0.5548 H   0  0  0  0  0  0  0  0  0  0  0  0
   -2.9459   -1.1341    1.9828 H   0  0  0  0  0  0  0  0  0  0  0  0
   -0.2241   -1.8416    1.9420 H   0  0  0  0  0  0  0  0  0  0  0  0
   -0.9287   -0.6717    3.1014 H   0  0  0  0  0  0  0  0  0  0  0  0
    1.8894    0.1146    2.1720 H   0  0  0  0  0  0  0  0  0  0  0  0
    4.1662    0.3231    0.4894 H   0  0  0  0  0  0  0  0  0  0  0  0
    2.9817    1.6236   -1.6157 H   0  0  0  0  0  0  0  0  0  0  0  0
    4.7128    2.0127   -1.7563 H   0  0  0  0  0  0  0  0  0  0  0  0
    4.5938    0.6685   -3.9414 H   0  0  0  0  0  0  0  0  0  0  0  0
    4.9163   -1.6107   -4.8774 H   0  0  0  0  0  0  0  0  0  0  0  0
    4.6855   -3.5921   -3.3782 H   0  0  0  0  0  0  0  0  0  0  0  0
    4.1351   -3.2069   -0.9749 H   0  0  0  0  0  0  0  0  0  0  0  0
    1.0464    3.4383   -0.4709 H   0  0  0  0  0  0  0  0  0  0  0  0
   -1.2714    2.6743   -0.7317 H   0  0  0  0  0  0  0  0  0  0  0  0
  1  2  2  0
  2  3  1  0
  3  4  1  0
  4  5  1  0
  5  6  1  0
  2  7  1  0
  7  8  1  0
  8  9  1  0
  9 10  1  0
 10 11  2  0
 11 12  1  0
 12 13  1  0
 13 14  2  0
 13 15  2  0
 13 16  1  0
 16 17  1  0
 17 18  1  0
 18 19  2  0
 19 20  1  0
 20 21  2  0
 21 22  1  0
 22 23  2  0
 12 24  2  0
 24 25  1  0
 25 26  2  0
  6  3  1  0
 26  7  1  0
 26 10  1  0
 23 18  1  0
  3 27  1  0
  4 28  1  0
  4 29  1  0
  5 30  1  0
  5 31  1  0
  6 32  1  0
  6 33  1  0
  8 34  1  0
  8 35  1  0
  9 36  1  0
  9 37  1  0
 11 38  1  0
 16 39  1  0
 17 40  1  0
 17 41  1  0
 19 42  1  0
 20 43  1  0
 21 44  1  0
 22 45  1  0
 24 46  1  0
 25 47  1  0
M  END
$$$$
