
     RDKit          3D

 56 60  0  0  0  0  0  0  0  0999 V2000
    3.4766   -3.2393    3.5258 C   0  0  0  0  0  0  0  0  0  0  0  0
    4.4709   -2.5784    2.5762 C   0  0  0  0  0  0  0  0  0  0  0  0
    3.8543   -2.2324    1.3143 N   0  0  0  0  0  0  0  0  0  0  0  0
    3.7674   -3.0710    0.2092 C   0  0  0  0  0  0  0  0  0  0  0  0
    4.2071   -4.1924    0.0543 O   0  0  0  0  0  0  0  0  0  0  0  0
    3.0067   -2.3019   -0.7964 C   0  0  0  0  0  0  0  0  0  0  0  0
    2.6284   -2.6288   -2.0787 C   0  0  0  0  0  0  0  0  0  0  0  0
    1.9024   -1.6674   -2.7869 C   0  0  0  0  0  0  0  0  0  0  0  0
    1.5762   -0.4131   -2.2038 C   0  0  0  0  0  0  0  0  0  0  0  0
    1.9746   -0.0721   -0.8824 C   0  0  0  0  0  0  0  0  0  0  0  0
    1.7850    1.0965   -0.0840 C   0  0  0  0  0  0  0  0  0  0  0  0
    0.9274    2.5406   -0.6979 S   0  0  0  0  0  6  0  0  0  0  0  0
    1.4666    3.6972   -0.0067 O   0  0  0  0  0  0  0  0  0  0  0  0
    0.9770    2.5278   -2.1482 O   0  0  0  0  0  0  0  0  0  0  0  0
   -0.7033    2.3352   -0.1992 N   0  0  0  0  0  0  0  0  0  0  0  0
   -1.0487    2.6219    1.1542 C   0  0  0  0  0  0  0  0  0  0  0  0
   -0.2579    2.5303    2.0815 O   0  0  0  0  0  0  0  0  0  0  0  0
   -2.4427    3.0641    1.4163 C   0  0  0  0  0  0  0  0  0  0  0  0
   -3.3406    3.4681    0.4246 C   0  0  0  0  0  0  0  0  0  0  0  0
   -4.6274    3.8735    0.7879 C   0  0  0  0  0  0  0  0  0  0  0  0
   -4.9701    3.8728    2.1319 C   0  0  0  0  0  0  0  0  0  0  0  0
   -4.1244    3.4980    3.1150 N   0  0  0  0  0  0  0  0  0  0  0  0
   -2.8800    3.1078    2.7373 C   0  0  0  0  0  0  0  0  0  0  0  0
   -1.3592    1.1631   -0.7424 C   0  0  0  0  0  0  0  0  0  0  0  0
   -1.4608   -0.0201   -0.0033 C   0  0  0  0  0  0  0  0  0  0  0  0
   -2.0470   -1.1531   -0.5764 C   0  0  0  0  0  0  0  0  0  0  0  0
   -2.5302   -1.1246   -1.8875 C   0  0  0  0  0  0  0  0  0  0  0  0
   -3.0896   -2.3001   -2.3128 O   0  0  0  0  0  0  0  0  0  0  0  0
   -3.6055   -2.3330   -3.6378 C   0  0  0  0  0  0  0  0  0  0  0  0
   -2.4100    0.0475   -2.6329 C   0  0  0  0  0  0  0  0  0  0  0  0
   -1.8197    1.1849   -2.0631 C   0  0  0  0  0  0  0  0  0  0  0  0
    2.3334    1.1793    1.2251 C   0  0  0  0  0  0  0  0  0  0  0  0
    3.0295    0.1073    1.7998 C   0  0  0  0  0  0  0  0  0  0  0  0
    3.1958   -1.0269    1.0335 C   0  0  0  0  0  0  0  0  0  0  0  0
    2.6902   -1.0859   -0.2412 C   0  0  0  0  0  0  0  0  0  0  0  0
    3.0601   -4.1572    3.0850 H   0  0  0  0  0  0  0  0  0  0  0  0
    3.9595   -3.5065    4.4712 H   0  0  0  0  0  0  0  0  0  0  0  0
    2.6423   -2.5670    3.7491 H   0  0  0  0  0  0  0  0  0  0  0  0
    4.9110   -1.6802    3.0377 H   0  0  0  0  0  0  0  0  0  0  0  0
    5.2914   -3.2795    2.3700 H   0  0  0  0  0  0  0  0  0  0  0  0
    2.8884   -3.5906   -2.5117 H   0  0  0  0  0  0  0  0  0  0  0  0
    1.5850   -1.8820   -3.8079 H   0  0  0  0  0  0  0  0  0  0  0  0
    1.0121    0.2884   -2.8124 H   0  0  0  0  0  0  0  0  0  0  0  0
   -3.0579    3.4910   -0.6245 H   0  0  0  0  0  0  0  0  0  0  0  0
   -5.3441    4.1913    0.0377 H   0  0  0  0  0  0  0  0  0  0  0  0
   -5.9589    4.1823    2.4652 H   0  0  0  0  0  0  0  0  0  0  0  0
   -2.2303    2.8254    3.5631 H   0  0  0  0  0  0  0  0  0  0  0  0
   -1.0835   -0.0890    1.0151 H   0  0  0  0  0  0  0  0  0  0  0  0
   -2.1332   -2.0671    0.0079 H   0  0  0  0  0  0  0  0  0  0  0  0
   -3.9640   -3.3449   -3.8295 H   0  0  0  0  0  0  0  0  0  0  0  0
   -4.4566   -1.6577   -3.7421 H   0  0  0  0  0  0  0  0  0  0  0  0
   -2.8299   -2.1136   -4.3791 H   0  0  0  0  0  0  0  0  0  0  0  0
   -2.7633    0.1105   -3.6584 H   0  0  0  0  0  0  0  0  0  0  0  0
   -1.7204    2.0889   -2.6620 H   0  0  0  0  0  0  0  0  0  0  0  0
    2.2140    2.0933    1.8138 H   0  0  0  0  0  0  0  0  0  0  0  0
    3.4261    0.1884    2.8066 H   0  0  0  0  0  0  0  0  0  0  0  0
  1  2  1  0
  2  3  1  0
  3  4  1  0
  4  5  2  0
  4  6  1  0
  6  7  2  0
  7  8  1  0
  8  9  2  0
  9 10  1  0
 10 11  2  0
 11 12  1  0
 12 13  2  0
 12 14  2  0
 12 15  1  0
 15 16  1  0
 16 17  2  0
 16 18  1  0
 18 19  2  0
 19 20  1  0
 20 21  2  0
 21 22  1  0
 22 23  2  0
 15 24  1  0
 24 25  2  0
 25 26  1  0
 26 27  2  0
 27 28  1  0
 28 29  1  0
 27 30  1  0
 30 31  2  0
 11 32  1  0
 32 33  2  0
 33 34  1  0
 34 35  2  0
 34  3  1  0
 35  6  1  0
 35 10  1  0
 23 18  1  0
 31 24  1  0
  1 36  1  0
  1 37  1  0
  1 38  1  0
  2 39  1  0
  2 40  1  0
  7 41  1  0
  8 42  1  0
  9 43  1  0
 19 44  1  0
 20 45  1  0
 21 46  1  0
 23 47  1  0
 25 48  1  0
 26 49  1  0
 29 50  1  0
 29 51  1  0
 29 52  1  0
 30 53  1  0
 31 54  1  0
 32 55  1  0
 33 56  1  0
M  END
$$$$
