
     RDKit          3D

 65 69  0  0  0  0  0  0  0  0999 V2000
   -5.9661    5.6273    1.3330 C   0  0  0  0  0  0  0  0  0  0  0  0
   -6.3632    4.2631    1.3718 O   0  0  0  0  0  0  0  0  0  0  0  0
   -5.3787    3.3247    1.2126 C   0  0  0  0  0  0  0  0  0  0  0  0
   -4.0245    3.5834    1.0548 C   0  0  0  0  0  0  0  0  0  0  0  0
   -3.1143    2.5275    0.9095 C   0  0  0  0  0  0  0  0  0  0  0  0
   -3.5502    1.1776    0.9204 C   0  0  0  0  0  0  0  0  0  0  0  0
   -2.8096   -0.0604    0.7982 C   0  0  0  0  0  0  0  0  0  0  0  0
   -1.3596   -0.1787    0.6736 C   0  0  0  0  0  0  0  0  0  0  0  0
   -0.7778   -0.6626   -0.5007 C   0  0  0  0  0  0  0  0  0  0  0  0
    0.6121   -0.7597   -0.6038 C   0  0  0  0  0  0  0  0  0  0  0  0
    1.4349   -0.3613    0.4528 C   0  0  0  0  0  0  0  0  0  0  0  0
    2.7741   -0.5054    0.2207 O   0  0  0  0  0  0  0  0  0  0  0  0
    3.6660    0.1074    1.1562 C   0  0  0  0  0  0  0  0  0  0  0  0
    5.1182   -0.0219    0.6533 C   0  0  0  0  0  0  0  0  0  0  0  0
    5.5232    0.9885   -0.3495 N   0  0  0  0  0  0  0  0  0  0  0  0
    4.6809    0.9330   -1.5584 C   0  0  0  0  0  0  0  0  0  0  0  0
    5.3615    1.5551   -2.7772 C   0  0  0  0  0  0  0  0  0  0  0  0
    6.6364    0.7951   -3.1424 C   0  0  0  0  0  0  0  0  0  0  0  0
    7.2955    0.1532   -1.9213 C   0  0  0  0  0  0  0  0  0  0  0  0
    6.9651    0.9160   -0.6403 C   0  0  0  0  0  0  0  0  0  0  0  0
    0.8559    0.1230    1.6253 C   0  0  0  0  0  0  0  0  0  0  0  0
   -0.5361    0.2142    1.7349 C   0  0  0  0  0  0  0  0  0  0  0  0
   -3.6369   -1.1712    0.8284 C   0  0  0  0  0  0  0  0  0  0  0  0
   -3.3103   -2.6011    0.7395 C   0  0  0  0  0  0  0  0  0  0  0  0
   -2.9072   -3.2741    1.9047 C   0  0  0  0  0  0  0  0  0  0  0  0
   -2.5888   -4.6305    1.8639 C   0  0  0  0  0  0  0  0  0  0  0  0
   -2.6680   -5.3232    0.6586 C   0  0  0  0  0  0  0  0  0  0  0  0
   -3.0591   -4.6638   -0.5104 C   0  0  0  0  0  0  0  0  0  0  0  0
   -3.3817   -3.3022   -0.4836 C   0  0  0  0  0  0  0  0  0  0  0  0
   -3.7626   -2.5734   -1.5826 O   0  0  0  0  0  0  0  0  0  0  0  0
   -3.8269   -3.2467   -2.8321 C   0  0  0  0  0  0  0  0  0  0  0  0
   -5.2768   -0.7342    1.0401 S   0  0  0  0  0  0  0  0  0  0  0  0
   -4.9175    0.9445    1.0687 C   0  0  0  0  0  0  0  0  0  0  0  0
   -5.8353    2.0036    1.2198 C   0  0  0  0  0  0  0  0  0  0  0  0
   -6.8644    6.2399    1.4539 H   0  0  0  0  0  0  0  0  0  0  0  0
   -5.2867    5.8645    2.1581 H   0  0  0  0  0  0  0  0  0  0  0  0
   -5.5171    5.8804    0.3670 H   0  0  0  0  0  0  0  0  0  0  0  0
   -3.6313    4.5940    1.0394 H   0  0  0  0  0  0  0  0  0  0  0  0
   -2.0582    2.7527    0.7803 H   0  0  0  0  0  0  0  0  0  0  0  0
   -1.3977   -0.9664   -1.3408 H   0  0  0  0  0  0  0  0  0  0  0  0
    1.0559   -1.1440   -1.5186 H   0  0  0  0  0  0  0  0  0  0  0  0
    3.4169    1.1656    1.3062 H   0  0  0  0  0  0  0  0  0  0  0  0
    3.5906   -0.4229    2.1135 H   0  0  0  0  0  0  0  0  0  0  0  0
    5.2871   -1.0327    0.2595 H   0  0  0  0  0  0  0  0  0  0  0  0
    5.7620    0.1066    1.5332 H   0  0  0  0  0  0  0  0  0  0  0  0
    4.4241   -0.1049   -1.8113 H   0  0  0  0  0  0  0  0  0  0  0  0
    3.7440    1.4702   -1.3653 H   0  0  0  0  0  0  0  0  0  0  0  0
    4.6781    1.5595   -3.6336 H   0  0  0  0  0  0  0  0  0  0  0  0
    5.6023    2.6062   -2.5687 H   0  0  0  0  0  0  0  0  0  0  0  0
    7.3346    1.4847   -3.6309 H   0  0  0  0  0  0  0  0  0  0  0  0
    6.4113    0.0112   -3.8762 H   0  0  0  0  0  0  0  0  0  0  0  0
    8.3804    0.1077   -2.0702 H   0  0  0  0  0  0  0  0  0  0  0  0
    6.9550   -0.8859   -1.8222 H   0  0  0  0  0  0  0  0  0  0  0  0
    7.3353    1.9451   -0.7401 H   0  0  0  0  0  0  0  0  0  0  0  0
    7.5242    0.4873    0.2014 H   0  0  0  0  0  0  0  0  0  0  0  0
    1.4550    0.4306    2.4751 H   0  0  0  0  0  0  0  0  0  0  0  0
   -0.9733    0.5904    2.6570 H   0  0  0  0  0  0  0  0  0  0  0  0
   -2.8431   -2.7380    2.8497 H   0  0  0  0  0  0  0  0  0  0  0  0
   -2.2816   -5.1443    2.7712 H   0  0  0  0  0  0  0  0  0  0  0  0
   -2.4213   -6.3819    0.6256 H   0  0  0  0  0  0  0  0  0  0  0  0
   -3.1010   -5.2443   -1.4259 H   0  0  0  0  0  0  0  0  0  0  0  0
   -4.1602   -2.5234   -3.5853 H   0  0  0  0  0  0  0  0  0  0  0  0
   -2.8393   -3.6122   -3.1339 H   0  0  0  0  0  0  0  0  0  0  0  0
   -4.5595   -4.0593   -2.8081 H   0  0  0  0  0  0  0  0  0  0  0  0
   -6.8949    1.7966    1.3400 H   0  0  0  0  0  0  0  0  0  0  0  0
  1  2  1  0
  2  3  1  0
  3  4  2  0
  4  5  1  0
  5  6  2  0
  6  7  1  0
  7  8  1  0
  8  9  2  0
  9 10  1  0
 10 11  2  0
 11 12  1  0
 12 13  1  0
 13 14  1  0
 14 15  1  0
 15 16  1  0
 16 17  1  0
 17 18  1  0
 18 19  1  0
 19 20  1  0
 11 21  1  0
 21 22  2  0
  7 23  2  0
 23 24  1  0
 24 25  2  0
 25 26  1  0
 26 27  2  0
 27 28  1  0
 28 29  2  0
 29 30  1  0
 30 31  1  0
 23 32  1  0
 32 33  1  0
 33 34  2  0
 34  3  1  0
 33  6  1  0
 22  8  1  0
 29 24  1  0
 20 15  1  0
  1 35  1  0
  1 36  1  0
  1 37  1  0
  4 38  1  0
  5 39  1  0
  9 40  1  0
 10 41  1  0
 13 42  1  0
 13 43  1  0
 14 44  1  0
 14 45  1  0
 16 46  1  0
 16 47  1  0
 17 48  1  0
 17 49  1  0
 18 50  1  0
 18 51  1  0
 19 52  1  0
 19 53  1  0
 20 54  1  0
 20 55  1  0
 21 56  1  0
 22 57  1  0
 25 58  1  0
 26 59  1  0
 27 60  1  0
 28 61  1  0
 31 62  1  0
 31 63  1  0
 31 64  1  0
 34 65  1  0
M  END
$$$$
