
     RDKit          3D

 61 66  0  0  0  0  0  0  0  0999 V2000
   -2.3333    2.1116   -0.4152 O   0  0  0  0  0  0  0  0  0  0  0  0
   -2.7583    1.0410    0.0350 C   0  0  0  0  0  0  0  0  0  0  0  0
   -1.8435    0.2322    0.9347 C   0  0  0  0  0  0  0  0  0  0  0  0
   -0.5997   -0.0640    0.2642 N   0  0  0  0  0  0  0  0  0  0  0  0
   -0.5573   -0.8427   -0.8311 N   0  0  0  0  0  0  0  0  0  0  0  0
    0.7333   -1.0204   -1.0685 N   0  0  0  0  0  0  0  0  0  0  0  0
    1.4200   -0.3719   -0.0659 C   0  0  0  0  0  0  0  0  0  0  0  0
    2.8743   -0.3527    0.0120 C   0  0  0  0  0  0  0  0  0  0  0  0
    3.6488   -1.0161   -0.9450 C   0  0  0  0  0  0  0  0  0  0  0  0
    5.0502   -0.9990   -0.8739 C   0  0  0  0  0  0  0  0  0  0  0  0
    5.7252   -0.3113    0.1435 C   0  0  0  0  0  0  0  0  0  0  0  0
    7.1232   -0.2708    0.2604 N   0  0  0  0  0  0  0  0  0  0  0  0
    7.6880    1.1009    0.1965 C   0  0  0  0  0  0  0  0  0  0  0  0
    9.1785    1.0738    0.5758 C   0  0  0  0  0  0  0  0  0  0  0  0
    9.9232    0.1629   -0.2489 O   0  0  0  0  0  0  0  0  0  0  0  0
    9.3931   -1.1656   -0.1122 C   0  0  0  0  0  0  0  0  0  0  0  0
    7.9187   -1.2255   -0.5418 C   0  0  0  0  0  0  0  0  0  0  0  0
    4.9328    0.3375    1.1047 C   0  0  0  0  0  0  0  0  0  0  0  0
    3.5330    0.3232    1.0426 C   0  0  0  0  0  0  0  0  0  0  0  0
    0.5960    0.2106    0.8243 N   0  0  0  0  0  0  0  0  0  0  0  0
   -4.0893    0.5988   -0.1105 N   0  0  0  0  0  0  0  0  0  0  0  0
   -4.4772   -0.7397    0.1824 C   0  0  0  0  0  0  0  0  0  0  0  0
   -3.8530   -1.8122   -0.4706 C   0  0  0  0  0  0  0  0  0  0  0  0
   -4.1900   -3.1267   -0.1476 C   0  0  0  0  0  0  0  0  0  0  0  0
   -5.1563   -3.3783    0.8231 C   0  0  0  0  0  0  0  0  0  0  0  0
   -5.7973   -2.3170    1.4622 C   0  0  0  0  0  0  0  0  0  0  0  0
   -5.4646   -0.9937    1.1418 C   0  0  0  0  0  0  0  0  0  0  0  0
   -6.1776    0.1614    1.7795 C   0  0  0  0  0  0  0  0  0  0  0  0
   -7.0807    0.8268    0.7495 C   0  0  0  0  0  0  0  0  0  0  0  0
   -6.4380    1.4327   -0.4846 C   0  0  0  0  0  0  0  0  0  0  0  0
   -7.3265    2.1686   -1.3054 C   0  0  0  0  0  0  0  0  0  0  0  0
   -6.8889    2.8390   -2.4436 C   0  0  0  0  0  0  0  0  0  0  0  0
   -5.5497    2.7865   -2.7895 C   0  0  0  0  0  0  0  0  0  0  0  0
   -4.6572    2.0574   -2.0006 C   0  0  0  0  0  0  0  0  0  0  0  0
   -5.0704    1.3628   -0.8436 C   0  0  0  0  0  0  0  0  0  0  0  0
   -1.6204    0.8489    1.8134 H   0  0  0  0  0  0  0  0  0  0  0  0
   -2.2487   -0.7085    1.3048 H   0  0  0  0  0  0  0  0  0  0  0  0
    3.1738   -1.5559   -1.7622 H   0  0  0  0  0  0  0  0  0  0  0  0
    5.5942   -1.5260   -1.6518 H   0  0  0  0  0  0  0  0  0  0  0  0
    7.5800    1.4834   -0.8268 H   0  0  0  0  0  0  0  0  0  0  0  0
    7.1762    1.7909    0.8758 H   0  0  0  0  0  0  0  0  0  0  0  0
    9.3100    0.7896    1.6268 H   0  0  0  0  0  0  0  0  0  0  0  0
    9.6124    2.0698    0.4430 H   0  0  0  0  0  0  0  0  0  0  0  0
    9.9917   -1.8274   -0.7460 H   0  0  0  0  0  0  0  0  0  0  0  0
    9.5161   -1.4945    0.9267 H   0  0  0  0  0  0  0  0  0  0  0  0
    7.5547   -2.2494   -0.3981 H   0  0  0  0  0  0  0  0  0  0  0  0
    7.8492   -0.9641   -1.6053 H   0  0  0  0  0  0  0  0  0  0  0  0
    5.4049    0.8474    1.9412 H   0  0  0  0  0  0  0  0  0  0  0  0
    2.9662    0.8415    1.8134 H   0  0  0  0  0  0  0  0  0  0  0  0
   -3.1176   -1.6363   -1.2527 H   0  0  0  0  0  0  0  0  0  0  0  0
   -3.7027   -3.9530   -0.6600 H   0  0  0  0  0  0  0  0  0  0  0  0
   -5.4221   -4.4031    1.0716 H   0  0  0  0  0  0  0  0  0  0  0  0
   -6.5651   -2.5301    2.2029 H   0  0  0  0  0  0  0  0  0  0  0  0
   -6.7847   -0.1863    2.6243 H   0  0  0  0  0  0  0  0  0  0  0  0
   -5.4531    0.8715    2.1973 H   0  0  0  0  0  0  0  0  0  0  0  0
   -7.6256    1.6267    1.2689 H   0  0  0  0  0  0  0  0  0  0  0  0
   -7.8302    0.0987    0.4088 H   0  0  0  0  0  0  0  0  0  0  0  0
   -8.3822    2.2297   -1.0433 H   0  0  0  0  0  0  0  0  0  0  0  0
   -7.5913    3.4008   -3.0531 H   0  0  0  0  0  0  0  0  0  0  0  0
   -5.1908    3.3018   -3.6766 H   0  0  0  0  0  0  0  0  0  0  0  0
   -3.6242    2.0136   -2.3398 H   0  0  0  0  0  0  0  0  0  0  0  0
  1  2  2  0
  2  3  1  0
  3  4  1  0
  4  5  1  0
  5  6  2  0
  6  7  1  0
  7  8  1  0
  8  9  2  0
  9 10  1  0
 10 11  2  0
 11 12  1  0
 12 13  1  0
 13 14  1  0
 14 15  1  0
 15 16  1  0
 16 17  1  0
 11 18  1  0
 18 19  2  0
  7 20  2  0
  2 21  1  0
 21 22  1  0
 22 23  2  0
 23 24  1  0
 24 25  2  0
 25 26  1  0
 26 27  2  0
 27 28  1  0
 28 29  1  0
 29 30  1  0
 30 31  2  0
 31 32  1  0
 32 33  2  0
 33 34  1  0
 34 35  2  0
 20  4  1  0
 35 21  1  0
 19  8  1  0
 27 22  1  0
 35 30  1  0
 17 12  1  0
  3 36  1  0
  3 37  1  0
  9 38  1  0
 10 39  1  0
 13 40  1  0
 13 41  1  0
 14 42  1  0
 14 43  1  0
 16 44  1  0
 16 45  1  0
 17 46  1  0
 17 47  1  0
 18 48  1  0
 19 49  1  0
 23 50  1  0
 24 51  1  0
 25 52  1  0
 26 53  1  0
 28 54  1  0
 28 55  1  0
 29 56  1  0
 29 57  1  0
 31 58  1  0
 32 59  1  0
 33 60  1  0
 34 61  1  0
M  END
$$$$
