
     RDKit          3D

 39 41  0  0  0  0  0  0  0  0999 V2000
    2.2373   -1.2869    2.4069 O   0  0  0  0  0  0  0  0  0  0  0  0
    1.7844   -0.6172    1.4839 C   0  0  0  0  0  0  0  0  0  0  0  0
    2.3856   -0.4336    0.2594 N   0  0  0  0  0  0  0  0  0  0  0  0
    3.6563   -0.8795   -0.1751 C   0  0  0  0  0  0  0  0  0  0  0  0
    3.8964   -0.8166   -1.5568 C   0  0  0  0  0  0  0  0  0  0  0  0
    2.9363   -0.3533   -2.3730 F   0  0  0  0  0  0  0  0  0  0  0  0
    5.0977   -1.2333   -2.1208 C   0  0  0  0  0  0  0  0  0  0  0  0
    6.0933   -1.7150   -1.2870 C   0  0  0  0  0  0  0  0  0  0  0  0
    7.2570   -2.1174   -1.8124 F   0  0  0  0  0  0  0  0  0  0  0  0
    5.9061   -1.7712    0.0865 C   0  0  0  0  0  0  0  0  0  0  0  0
    4.6951   -1.3481    0.6369 C   0  0  0  0  0  0  0  0  0  0  0  0
    4.6135   -1.3481    1.9721 F   0  0  0  0  0  0  0  0  0  0  0  0
    0.4422    0.0419    1.6300 C   0  0  0  0  0  0  0  0  0  0  0  0
   -0.1737   -0.0507    2.8236 C   0  0  0  0  0  0  0  0  0  0  0  0
   -1.4616    0.5480    3.0583 C   0  0  0  0  0  0  0  0  0  0  0  0
   -2.0718    1.2230    2.0800 C   0  0  0  0  0  0  0  0  0  0  0  0
   -1.4861    1.3608    0.8335 N   0  0  0  0  0  0  0  0  0  0  0  0
   -2.2066    2.0850   -0.2150 C   0  0  0  0  0  0  0  0  0  0  0  0
   -3.2695    1.2385   -0.8785 C   0  0  0  0  0  0  0  0  0  0  0  0
   -4.6238    1.4021   -0.5522 C   0  0  0  0  0  0  0  0  0  0  0  0
   -5.5993    0.6090   -1.1592 C   0  0  0  0  0  0  0  0  0  0  0  0
   -5.2322   -0.3558   -2.0954 C   0  0  0  0  0  0  0  0  0  0  0  0
   -3.8900   -0.5293   -2.4261 C   0  0  0  0  0  0  0  0  0  0  0  0
   -2.9131    0.2625   -1.8209 C   0  0  0  0  0  0  0  0  0  0  0  0
   -0.2464    0.7927    0.5297 C   0  0  0  0  0  0  0  0  0  0  0  0
    0.2882    0.8826   -0.5769 O   0  0  0  0  0  0  0  0  0  0  0  0
    1.8162    0.0110   -0.4673 H   0  0  0  0  0  0  0  0  0  0  0  0
    5.2505   -1.1817   -3.1925 H   0  0  0  0  0  0  0  0  0  0  0  0
    6.7000   -2.1271    0.7343 H   0  0  0  0  0  0  0  0  0  0  0  0
    0.2800   -0.5844    3.6556 H   0  0  0  0  0  0  0  0  0  0  0  0
   -1.9188    0.4333    4.0360 H   0  0  0  0  0  0  0  0  0  0  0  0
   -3.0464    1.6780    2.2307 H   0  0  0  0  0  0  0  0  0  0  0  0
   -2.6510    2.9870    0.2258 H   0  0  0  0  0  0  0  0  0  0  0  0
   -1.5068    2.4429   -0.9801 H   0  0  0  0  0  0  0  0  0  0  0  0
   -4.9298    2.1488    0.1766 H   0  0  0  0  0  0  0  0  0  0  0  0
   -6.6468    0.7429   -0.9015 H   0  0  0  0  0  0  0  0  0  0  0  0
   -5.9920   -0.9734   -2.5671 H   0  0  0  0  0  0  0  0  0  0  0  0
   -3.6019   -1.2823   -3.1553 H   0  0  0  0  0  0  0  0  0  0  0  0
   -1.8683    0.1147   -2.0893 H   0  0  0  0  0  0  0  0  0  0  0  0
  1  2  2  0
  2  3  1  0
  3  4  1  0
  4  5  2  0
  5  6  1  0
  5  7  1  0
  7  8  2  0
  8  9  1  0
  8 10  1  0
 10 11  2  0
 11 12  1  0
  2 13  1  0
 13 14  2  0
 14 15  1  0
 15 16  2  0
 16 17  1  0
 17 18  1  0
 18 19  1  0
 19 20  2  0
 20 21  1  0
 21 22  2  0
 22 23  1  0
 23 24  2  0
 17 25  1  0
 25 26  2  0
 11  4  1  0
 25 13  1  0
 24 19  1  0
  3 27  1  0
  7 28  1  0
 10 29  1  0
 14 30  1  0
 15 31  1  0
 16 32  1  0
 18 33  1  0
 18 34  1  0
 20 35  1  0
 21 36  1  0
 22 37  1  0
 23 38  1  0
 24 39  1  0
M  END
$$$$
