
     RDKit          3D

 39 41  0  0  0  0  0  0  0  0999 V2000
    2.0422    3.3891   -0.8456 C   0  0  0  0  0  0  0  0  0  0  0  0
    2.0289    1.9318   -1.2325 C   0  0  0  0  0  0  0  0  0  0  0  0
    3.0592    1.3626   -1.5919 O   0  0  0  0  0  0  0  0  0  0  0  0
    0.7356    1.2061   -1.1301 C   0  0  0  0  0  0  0  0  0  0  0  0
    0.6071    0.1773   -0.2598 C   0  0  0  0  0  0  0  0  0  0  0  0
    1.5790   -0.3010    0.6157 N   0  0  0  0  0  0  0  0  0  0  0  0
    2.4332   -1.4395    0.1958 C   0  0  0  0  0  0  0  0  0  0  0  0
    3.2325   -1.9750    1.3929 C   0  0  0  0  0  0  0  0  0  0  0  0
    4.0964   -1.0061    2.0054 O   0  0  0  0  0  0  0  0  0  0  0  0
    3.7097    0.3487    1.7357 C   0  0  0  0  0  0  0  0  0  0  0  0
    2.1867    0.5359    1.6759 C   0  0  0  0  0  0  0  0  0  0  0  0
   -0.6045   -0.4673   -0.2079 N   0  0  0  0  0  0  0  0  0  0  0  0
   -1.7230    0.0026   -0.8399 C   0  0  0  0  0  0  0  0  0  0  0  0
   -3.0555   -0.6171   -0.5543 C   0  0  0  0  0  0  0  0  0  0  0  0
   -3.1546   -1.9207   -0.0507 C   0  0  0  0  0  0  0  0  0  0  0  0
   -4.4097   -2.4750    0.2145 C   0  0  0  0  0  0  0  0  0  0  0  0
   -5.5670   -1.7351   -0.0253 C   0  0  0  0  0  0  0  0  0  0  0  0
   -5.4749   -0.4421   -0.5376 C   0  0  0  0  0  0  0  0  0  0  0  0
   -4.2231    0.1155   -0.8049 C   0  0  0  0  0  0  0  0  0  0  0  0
   -1.6694    0.9937   -1.6787 N   0  0  0  0  0  0  0  0  0  0  0  0
   -0.4465    1.5574   -1.9984 C   0  0  0  0  0  0  0  0  0  0  0  0
   -0.3494    2.6102   -3.3244 S   0  0  0  0  0  0  0  0  0  0  0  0
    1.0791    3.6992   -0.4310 H   0  0  0  0  0  0  0  0  0  0  0  0
    2.8053    3.5447   -0.0776 H   0  0  0  0  0  0  0  0  0  0  0  0
    2.2708    3.9992   -1.7228 H   0  0  0  0  0  0  0  0  0  0  0  0
    1.8085   -2.2435   -0.2101 H   0  0  0  0  0  0  0  0  0  0  0  0
    3.1193   -1.1097   -0.5925 H   0  0  0  0  0  0  0  0  0  0  0  0
    2.5488   -2.3380    2.1692 H   0  0  0  0  0  0  0  0  0  0  0  0
    3.8542   -2.8213    1.0838 H   0  0  0  0  0  0  0  0  0  0  0  0
    4.1820    0.6556    0.7962 H   0  0  0  0  0  0  0  0  0  0  0  0
    4.1319    0.9723    2.5301 H   0  0  0  0  0  0  0  0  0  0  0  0
    1.7468    0.2225    2.6301 H   0  0  0  0  0  0  0  0  0  0  0  0
    1.9454    1.5949    1.5397 H   0  0  0  0  0  0  0  0  0  0  0  0
   -0.6808   -1.0942    0.5818 H   0  0  0  0  0  0  0  0  0  0  0  0
   -2.2731   -2.5318    0.1150 H   0  0  0  0  0  0  0  0  0  0  0  0
   -4.4866   -3.4892    0.5993 H   0  0  0  0  0  0  0  0  0  0  0  0
   -6.5429   -2.1696    0.1780 H   0  0  0  0  0  0  0  0  0  0  0  0
   -6.3767    0.1325   -0.7341 H   0  0  0  0  0  0  0  0  0  0  0  0
   -4.1647    1.1241   -1.2088 H   0  0  0  0  0  0  0  0  0  0  0  0
  1  2  1  0
  2  3  2  0
  2  4  1  0
  4  5  2  0
  5  6  1  0
  6  7  1  0
  7  8  1  0
  8  9  1  0
  9 10  1  0
 10 11  1  0
  5 12  1  0
 12 13  1  0
 13 14  1  0
 14 15  2  0
 15 16  1  0
 16 17  2  0
 17 18  1  0
 18 19  2  0
 13 20  2  0
 20 21  1  0
 21 22  2  0
 21  4  1  0
 11  6  1  0
 19 14  1  0
  1 23  1  0
  1 24  1  0
  1 25  1  0
  7 26  1  0
  7 27  1  0
  8 28  1  0
  8 29  1  0
 10 30  1  0
 10 31  1  0
 11 32  1  0
 11 33  1  0
 12 34  1  0
 15 35  1  0
 16 36  1  0
 17 37  1  0
 18 38  1  0
 19 39  1  0
M  END
$$$$
