
     RDKit          3D

 53 56  0  0  0  0  0  0  0  0999 V2000
    6.0709    2.0807    0.4770 C   0  0  0  0  0  0  0  0  0  0  0  0
    5.3927    0.7525    0.3225 C   0  0  0  0  0  0  0  0  0  0  0  0
    4.2346    0.6416   -0.4225 C   0  0  0  0  0  0  0  0  0  0  0  0
    3.6526   -0.6213   -0.5420 C   0  0  0  0  0  0  0  0  0  0  0  0
    2.4025   -0.7243   -1.3304 C   0  0  0  0  0  0  0  0  0  0  0  0
    2.3961   -1.4214   -2.3347 O   0  0  0  0  0  0  0  0  0  0  0  0
    1.3557    0.0054   -0.7978 N   0  0  0  0  0  0  0  0  0  0  0  0
    0.0574    0.1468   -1.3288 C   0  0  0  0  0  0  0  0  0  0  0  0
   -0.3481   -0.3890   -2.5488 C   0  0  0  0  0  0  0  0  0  0  0  0
   -1.6526   -0.1895   -3.0174 C   0  0  0  0  0  0  0  0  0  0  0  0
   -2.5909    0.5423   -2.2746 C   0  0  0  0  0  0  0  0  0  0  0  0
   -3.9639    0.7465   -2.8504 C   0  0  0  0  0  0  0  0  0  0  0  0
   -2.1788    1.0735   -1.0403 C   0  0  0  0  0  0  0  0  0  0  0  0
   -3.2840    2.0222   -0.0074 S   0  0  0  0  0  6  0  0  0  0  0  0
   -3.8982    3.0367   -0.8351 O   0  0  0  0  0  0  0  0  0  0  0  0
   -2.5690    2.3917    1.1968 O   0  0  0  0  0  0  0  0  0  0  0  0
   -4.4699    0.8879    0.4360 N   0  0  0  0  0  0  0  0  0  0  0  0
   -4.0334   -0.2713    1.2753 C   0  0  0  0  0  0  0  0  0  0  0  0
   -4.0185    0.0727    2.7705 C   0  0  0  0  0  0  0  0  0  0  0  0
   -5.2839    0.5904    3.2036 O   0  0  0  0  0  0  0  0  0  0  0  0
   -5.6191    1.7775    2.4694 C   0  0  0  0  0  0  0  0  0  0  0  0
   -5.7380    1.4722    0.9742 C   0  0  0  0  0  0  0  0  0  0  0  0
   -0.8637    0.8831   -0.5791 C   0  0  0  0  0  0  0  0  0  0  0  0
    4.2326   -1.7563    0.0633 C   0  0  0  0  0  0  0  0  0  0  0  0
    3.7123   -3.0729   -0.0149 C   0  0  0  0  0  0  0  0  0  0  0  0
    4.3458   -4.1351    0.6272 C   0  0  0  0  0  0  0  0  0  0  0  0
    5.5024   -3.8994    1.3561 C   0  0  0  0  0  0  0  0  0  0  0  0
    6.0177   -2.6035    1.4358 C   0  0  0  0  0  0  0  0  0  0  0  0
    5.4069   -1.5278    0.8044 C   0  0  0  0  0  0  0  0  0  0  0  0
    5.9630   -0.3095    0.9343 N   0  0  0  0  0  0  0  0  0  0  0  0
    5.3933    2.7985    0.9497 H   0  0  0  0  0  0  0  0  0  0  0  0
    6.3774    2.4647   -0.5009 H   0  0  0  0  0  0  0  0  0  0  0  0
    6.9639    1.9919    1.1039 H   0  0  0  0  0  0  0  0  0  0  0  0
    3.8047    1.5083   -0.9144 H   0  0  0  0  0  0  0  0  0  0  0  0
    1.5268    0.4636    0.0900 H   0  0  0  0  0  0  0  0  0  0  0  0
    0.3310   -0.9602   -3.1752 H   0  0  0  0  0  0  0  0  0  0  0  0
   -1.9241   -0.6133   -3.9835 H   0  0  0  0  0  0  0  0  0  0  0  0
   -4.7403    0.4327   -2.1488 H   0  0  0  0  0  0  0  0  0  0  0  0
   -4.1106    1.7945   -3.1269 H   0  0  0  0  0  0  0  0  0  0  0  0
   -4.1058    0.1494   -3.7584 H   0  0  0  0  0  0  0  0  0  0  0  0
   -4.7527   -1.0804    1.0960 H   0  0  0  0  0  0  0  0  0  0  0  0
   -3.0567   -0.6455    0.9565 H   0  0  0  0  0  0  0  0  0  0  0  0
   -3.2334    0.7923    3.0225 H   0  0  0  0  0  0  0  0  0  0  0  0
   -3.8211   -0.8349    3.3502 H   0  0  0  0  0  0  0  0  0  0  0  0
   -6.5804    2.1370    2.8496 H   0  0  0  0  0  0  0  0  0  0  0  0
   -4.8720    2.5527    2.6724 H   0  0  0  0  0  0  0  0  0  0  0  0
   -6.0273    2.3671    0.4147 H   0  0  0  0  0  0  0  0  0  0  0  0
   -6.5287    0.7290    0.8109 H   0  0  0  0  0  0  0  0  0  0  0  0
   -0.5615    1.3156    0.3722 H   0  0  0  0  0  0  0  0  0  0  0  0
    2.8116   -3.2808   -0.5904 H   0  0  0  0  0  0  0  0  0  0  0  0
    3.9389   -5.1402    0.5520 H   0  0  0  0  0  0  0  0  0  0  0  0
    6.0098   -4.7176    1.8607 H   0  0  0  0  0  0  0  0  0  0  0  0
    6.9262   -2.4271    2.0077 H   0  0  0  0  0  0  0  0  0  0  0  0
  1  2  1  0
  2  3  2  0
  3  4  1  0
  4  5  1  0
  5  6  2  0
  5  7  1  0
  7  8  1  0
  8  9  2  0
  9 10  1  0
 10 11  2  0
 11 12  1  0
 11 13  1  0
 13 14  1  0
 14 15  2  0
 14 16  2  0
 14 17  1  0
 17 18  1  0
 18 19  1  0
 19 20  1  0
 20 21  1  0
 21 22  1  0
 13 23  2  0
  4 24  2  0
 24 25  1  0
 25 26  2  0
 26 27  1  0
 27 28  2  0
 28 29  1  0
 29 30  2  0
 30  2  1  0
 23  8  1  0
 29 24  1  0
 22 17  1  0
  1 31  1  0
  1 32  1  0
  1 33  1  0
  3 34  1  0
  7 35  1  0
  9 36  1  0
 10 37  1  0
 12 38  1  0
 12 39  1  0
 12 40  1  0
 18 41  1  0
 18 42  1  0
 19 43  1  0
 19 44  1  0
 21 45  1  0
 21 46  1  0
 22 47  1  0
 22 48  1  0
 23 49  1  0
 25 50  1  0
 26 51  1  0
 27 52  1  0
 28 53  1  0
M  END
$$$$
