
     RDKit          3D

 47 50  0  0  0  0  0  0  0  0999 V2000
   -0.8722   -2.1939   -2.3660 C   0  0  0  0  0  0  0  0  0  0  0  0
   -0.5537   -0.6892   -2.2492 C   0  0  0  0  0  0  0  0  0  0  0  0
   -0.6767   -0.0679   -3.6536 C   0  0  0  0  0  0  0  0  0  0  0  0
   -1.5771    0.0123   -1.3005 C   0  0  0  0  0  0  0  0  0  0  0  0
   -1.2409   -0.2240    0.1354 C   0  0  0  0  0  0  0  0  0  0  0  0
   -0.0190   -0.6988    0.5800 C   0  0  0  0  0  0  0  0  0  0  0  0
   -0.1904   -0.8859    1.9552 C   0  0  0  0  0  0  0  0  0  0  0  0
   -1.4046   -0.5314    2.3668 N   0  0  0  0  0  0  0  0  0  0  0  0
   -2.0481   -0.0663    1.2555 N   0  0  0  0  0  0  0  0  0  0  0  0
   -3.3640    0.4773    1.4015 C   0  0  0  0  0  0  0  0  0  0  0  0
   -4.0046    1.1985    0.3852 C   0  0  0  0  0  0  0  0  0  0  0  0
   -5.2931    1.7092    0.5851 C   0  0  0  0  0  0  0  0  0  0  0  0
   -5.9390    1.5090    1.7981 C   0  0  0  0  0  0  0  0  0  0  0  0
   -7.1704    2.0027    1.9803 F   0  0  0  0  0  0  0  0  0  0  0  0
   -5.3198    0.8122    2.8244 C   0  0  0  0  0  0  0  0  0  0  0  0
   -4.0338    0.3015    2.6297 C   0  0  0  0  0  0  0  0  0  0  0  0
    1.1395   -1.0138   -0.3020 C   0  0  0  0  0  0  0  0  0  0  0  0
    2.3258   -0.4237    0.2745 N   0  0  0  0  0  0  0  0  0  0  0  0
    3.5942   -0.8501   -0.0520 C   0  0  0  0  0  0  0  0  0  0  0  0
    3.8310   -1.8213   -0.7598 O   0  0  0  0  0  0  0  0  0  0  0  0
    4.6890   -0.0190    0.5209 C   0  0  0  0  0  0  0  0  0  0  0  0
    6.0139   -0.3617    0.2992 C   0  0  0  0  0  0  0  0  0  0  0  0
    7.0420    0.3702    0.8010 N   0  0  0  0  0  0  0  0  0  0  0  0
    6.6813    1.4522    1.5299 C   0  0  0  0  0  0  0  0  0  0  0  0
    5.3551    1.7951    1.7498 C   0  0  0  0  0  0  0  0  0  0  0  0
    4.3224    1.0748    1.2528 N   0  0  0  0  0  0  0  0  0  0  0  0
    0.8997   -0.4757   -1.7325 C   0  0  0  0  0  0  0  0  0  0  0  0
   -1.8657   -2.3512   -2.8015 H   0  0  0  0  0  0  0  0  0  0  0  0
   -0.8607   -2.6999   -1.3958 H   0  0  0  0  0  0  0  0  0  0  0  0
   -0.1445   -2.6987   -3.0114 H   0  0  0  0  0  0  0  0  0  0  0  0
   -0.4437    1.0026   -3.6363 H   0  0  0  0  0  0  0  0  0  0  0  0
   -1.6928   -0.1809   -4.0480 H   0  0  0  0  0  0  0  0  0  0  0  0
    0.0119   -0.5460   -4.3594 H   0  0  0  0  0  0  0  0  0  0  0  0
   -2.5850   -0.3502   -1.5313 H   0  0  0  0  0  0  0  0  0  0  0  0
   -1.5479    1.0940   -1.4823 H   0  0  0  0  0  0  0  0  0  0  0  0
    0.5156   -1.2787    2.6763 H   0  0  0  0  0  0  0  0  0  0  0  0
   -3.5335    1.4206   -0.5625 H   0  0  0  0  0  0  0  0  0  0  0  0
   -5.7925    2.2719   -0.1978 H   0  0  0  0  0  0  0  0  0  0  0  0
   -5.8346    0.6692    3.7690 H   0  0  0  0  0  0  0  0  0  0  0  0
   -3.5663   -0.2444    3.4485 H   0  0  0  0  0  0  0  0  0  0  0  0
    1.2769   -2.1014   -0.3431 H   0  0  0  0  0  0  0  0  0  0  0  0
    2.2608    0.4593    0.7753 H   0  0  0  0  0  0  0  0  0  0  0  0
    6.2906   -1.2322   -0.2862 H   0  0  0  0  0  0  0  0  0  0  0  0
    7.4948    2.0429    1.9372 H   0  0  0  0  0  0  0  0  0  0  0  0
    5.0894    2.6671    2.3376 H   0  0  0  0  0  0  0  0  0  0  0  0
    1.1196    0.6022   -1.7529 H   0  0  0  0  0  0  0  0  0  0  0  0
    1.6210   -0.9386   -2.4190 H   0  0  0  0  0  0  0  0  0  0  0  0
  1  2  1  0
  2  3  1  0
  2  4  1  0
  4  5  1  0
  5  6  2  0
  6  7  1  0
  7  8  2  0
  8  9  1  0
  9 10  1  0
 10 11  2  0
 11 12  1  0
 12 13  2  0
 13 14  1  0
 13 15  1  0
 15 16  2  0
  6 17  1  0
 17 18  1  0
 18 19  1  0
 19 20  2  0
 19 21  1  0
 21 22  2  0
 22 23  1  0
 23 24  2  0
 24 25  1  0
 25 26  2  0
 17 27  1  0
 27  2  1  0
  9  5  1  0
 16 10  1  0
 26 21  1  0
  1 28  1  0
  1 29  1  0
  1 30  1  0
  3 31  1  0
  3 32  1  0
  3 33  1  0
  4 34  1  0
  4 35  1  0
  7 36  1  0
 11 37  1  0
 12 38  1  0
 15 39  1  0
 16 40  1  0
 17 41  1  0
 18 42  1  0
 22 43  1  0
 24 44  1  0
 25 45  1  0
 27 46  1  0
 27 47  1  0
M  END
$$$$
