
     RDKit          3D

 53 56  0  0  0  0  0  0  0  0999 V2000
    8.2694    0.9047    0.1239 C   0  0  0  0  0  0  0  0  0  0  0  0
    7.4380    1.3533    1.3174 C   0  0  0  0  0  0  0  0  0  0  0  0
    5.9991    0.8469    1.2444 C   0  0  0  0  0  0  0  0  0  0  0  0
    5.3617    1.4181    0.0941 O   0  0  0  0  0  0  0  0  0  0  0  0
    4.1194    0.8716   -0.0775 C   0  0  0  0  0  0  0  0  0  0  0  0
    3.0022    1.6104    0.2915 C   0  0  0  0  0  0  0  0  0  0  0  0
    1.7249    1.0731    0.0992 C   0  0  0  0  0  0  0  0  0  0  0  0
    1.5372   -0.2019   -0.4759 C   0  0  0  0  0  0  0  0  0  0  0  0
    0.1866   -0.7745   -0.6656 C   0  0  0  0  0  0  0  0  0  0  0  0
   -0.8679   -0.0083   -0.3406 N   0  0  0  0  0  0  0  0  0  0  0  0
   -2.0945   -0.5380   -0.4920 C   0  0  0  0  0  0  0  0  0  0  0  0
   -3.2118    0.2398   -0.1007 N   0  0  0  0  0  0  0  0  0  0  0  0
   -3.6110   -0.0987    1.2888 C   0  0  0  0  0  0  0  0  0  0  0  0
   -4.2179    1.1183    2.0355 C   0  0  0  0  0  0  0  0  0  0  0  0
   -5.0523    2.0238    1.2193 N   0  0  0  0  0  0  0  0  0  0  0  0
   -6.3113    1.3740    0.8473 C   0  0  0  0  0  0  0  0  0  0  0  0
   -4.3083    2.4518    0.0055 C   0  0  0  0  0  0  0  0  0  0  0  0
   -2.9968    1.6852   -0.2987 C   0  0  0  0  0  0  0  0  0  0  0  0
   -2.2881   -1.8387   -0.9903 C   0  0  0  0  0  0  0  0  0  0  0  0
   -3.5492   -2.4456   -1.2152 C   0  0  0  0  0  0  0  0  0  0  0  0
   -3.6411   -3.7431   -1.7116 C   0  0  0  0  0  0  0  0  0  0  0  0
   -2.4780   -4.4468   -1.9935 C   0  0  0  0  0  0  0  0  0  0  0  0
   -1.2362   -3.8439   -1.7836 C   0  0  0  0  0  0  0  0  0  0  0  0
   -1.1206   -2.5482   -1.2922 C   0  0  0  0  0  0  0  0  0  0  0  0
    0.1000   -2.0332   -1.1297 N   0  0  0  0  0  0  0  0  0  0  0  0
    2.6943   -0.9079   -0.8631 C   0  0  0  0  0  0  0  0  0  0  0  0
    3.9741   -0.3757   -0.6756 C   0  0  0  0  0  0  0  0  0  0  0  0
    9.3111    1.2106    0.2611 H   0  0  0  0  0  0  0  0  0  0  0  0
    7.9069    1.3532   -0.8038 H   0  0  0  0  0  0  0  0  0  0  0  0
    8.2459   -0.1843    0.0125 H   0  0  0  0  0  0  0  0  0  0  0  0
    7.9032    0.9855    2.2421 H   0  0  0  0  0  0  0  0  0  0  0  0
    7.4439    2.4489    1.3528 H   0  0  0  0  0  0  0  0  0  0  0  0
    5.4679    1.1607    2.1480 H   0  0  0  0  0  0  0  0  0  0  0  0
    5.9998   -0.2496    1.1985 H   0  0  0  0  0  0  0  0  0  0  0  0
    3.1202    2.5973    0.7292 H   0  0  0  0  0  0  0  0  0  0  0  0
    0.8619    1.6631    0.4050 H   0  0  0  0  0  0  0  0  0  0  0  0
   -2.7637   -0.4691    1.8815 H   0  0  0  0  0  0  0  0  0  0  0  0
   -4.3580   -0.9000    1.2485 H   0  0  0  0  0  0  0  0  0  0  0  0
   -3.3932    1.7157    2.4491 H   0  0  0  0  0  0  0  0  0  0  0  0
   -4.7782    0.7666    2.9112 H   0  0  0  0  0  0  0  0  0  0  0  0
   -6.8567    1.0507    1.7415 H   0  0  0  0  0  0  0  0  0  0  0  0
   -6.1665    0.5030    0.1998 H   0  0  0  0  0  0  0  0  0  0  0  0
   -6.9630    2.0832    0.3257 H   0  0  0  0  0  0  0  0  0  0  0  0
   -4.0573    3.5127    0.1227 H   0  0  0  0  0  0  0  0  0  0  0  0
   -4.9542    2.4006   -0.8806 H   0  0  0  0  0  0  0  0  0  0  0  0
   -2.1986    2.0626    0.3553 H   0  0  0  0  0  0  0  0  0  0  0  0
   -2.7080    1.8922   -1.3374 H   0  0  0  0  0  0  0  0  0  0  0  0
   -4.4621   -1.8883   -1.0116 H   0  0  0  0  0  0  0  0  0  0  0  0
   -4.6127   -4.1966   -1.8813 H   0  0  0  0  0  0  0  0  0  0  0  0
   -2.5294   -5.4604   -2.3828 H   0  0  0  0  0  0  0  0  0  0  0  0
   -0.3302   -4.4007   -2.0166 H   0  0  0  0  0  0  0  0  0  0  0  0
    2.6019   -1.8900   -1.3254 H   0  0  0  0  0  0  0  0  0  0  0  0
    4.8471   -0.9340   -1.0003 H   0  0  0  0  0  0  0  0  0  0  0  0
  1  2  1  0
  2  3  1  0
  3  4  1  0
  4  5  1  0
  5  6  2  0
  6  7  1  0
  7  8  2  0
  8  9  1  0
  9 10  2  0
 10 11  1  0
 11 12  1  0
 12 13  1  0
 13 14  1  0
 14 15  1  0
 15 16  1  0
 15 17  1  0
 17 18  1  0
 11 19  2  0
 19 20  1  0
 20 21  2  0
 21 22  1  0
 22 23  2  0
 23 24  1  0
 24 25  2  0
  8 26  1  0
 26 27  2  0
 27  5  1  0
 25  9  1  0
 18 12  1  0
 24 19  1  0
  1 28  1  0
  1 29  1  0
  1 30  1  0
  2 31  1  0
  2 32  1  0
  3 33  1  0
  3 34  1  0
  6 35  1  0
  7 36  1  0
 13 37  1  0
 13 38  1  0
 14 39  1  0
 14 40  1  0
 16 41  1  0
 16 42  1  0
 16 43  1  0
 17 44  1  0
 17 45  1  0
 18 46  1  0
 18 47  1  0
 20 48  1  0
 21 49  1  0
 22 50  1  0
 23 51  1  0
 26 52  1  0
 27 53  1  0
M  END
$$$$
