
     RDKit          3D

 46 49  0  0  0  0  0  0  0  0999 V2000
   -3.5591   -1.1729   -1.9364 O   0  0  0  0  0  0  0  0  0  0  0  0
   -3.5747   -0.4284   -0.9620 C   0  0  0  0  0  0  0  0  0  0  0  0
   -2.4624    0.0727   -0.3111 N   0  0  0  0  0  0  0  0  0  0  0  0
   -1.1051   -0.1610   -0.6191 C   0  0  0  0  0  0  0  0  0  0  0  0
   -0.6641   -0.9685   -1.6692 C   0  0  0  0  0  0  0  0  0  0  0  0
    0.7062   -1.1475   -1.9036 C   0  0  0  0  0  0  0  0  0  0  0  0
    1.6565   -0.5240   -1.0969 C   0  0  0  0  0  0  0  0  0  0  0  0
    3.0129   -0.7346   -1.3552 N   0  0  0  0  0  0  0  0  0  0  0  0
    3.8886   -0.1347   -0.6135 C   0  0  0  0  0  0  0  0  0  0  0  0
    3.5642    0.7110    0.4279 N   0  0  0  0  0  0  0  0  0  0  0  0
    2.2340    0.9320    0.7826 C   0  0  0  0  0  0  0  0  0  0  0  0
    1.8716    1.6217    1.7332 O   0  0  0  0  0  0  0  0  0  0  0  0
    1.2146    0.2791   -0.0545 C   0  0  0  0  0  0  0  0  0  0  0  0
   -0.1529    0.4653    0.1917 C   0  0  0  0  0  0  0  0  0  0  0  0
    4.5924    1.3794    1.2236 C   0  0  0  0  0  0  0  0  0  0  0  0
    5.3534    0.4068    2.1224 C   0  0  0  0  0  0  0  0  0  0  0  0
    6.4688   -0.3432    1.3965 C   0  0  0  0  0  0  0  0  0  0  0  0
    5.9974   -1.2095    0.2312 C   0  0  0  0  0  0  0  0  0  0  0  0
    5.3528   -0.4112   -0.8975 C   0  0  0  0  0  0  0  0  0  0  0  0
   -4.9108   -0.0220   -0.4248 C   0  0  0  0  0  0  0  0  0  0  0  0
   -6.0636   -0.5140   -1.0640 C   0  0  0  0  0  0  0  0  0  0  0  0
   -7.3355   -0.1569   -0.5916 C   0  0  0  0  0  0  0  0  0  0  0  0
   -8.5369   -0.6732   -1.2628 N   0  0  0  0  0  4  0  0  0  0  0  0
   -9.6377   -0.3288   -0.8107 O   0  0  0  0  0  0  0  0  0  0  0  0
   -8.3776   -1.4195   -2.2374 O   0  0  0  0  0  1  0  0  0  0  0  0
   -7.4726    0.6898    0.5169 C   0  0  0  0  0  0  0  0  0  0  0  0
   -6.3296    1.1777    1.1508 C   0  0  0  0  0  0  0  0  0  0  0  0
   -5.0649    0.8219    0.6801 C   0  0  0  0  0  0  0  0  0  0  0  0
   -3.9979    1.3181    1.3245 F   0  0  0  0  0  0  0  0  0  0  0  0
   -2.6258    0.6820    0.4844 H   0  0  0  0  0  0  0  0  0  0  0  0
   -1.3575   -1.4796   -2.3300 H   0  0  0  0  0  0  0  0  0  0  0  0
    1.0324   -1.7823   -2.7241 H   0  0  0  0  0  0  0  0  0  0  0  0
   -0.4577    1.1021    1.0189 H   0  0  0  0  0  0  0  0  0  0  0  0
    5.2767    1.9068    0.5495 H   0  0  0  0  0  0  0  0  0  0  0  0
    4.1337    2.1486    1.8545 H   0  0  0  0  0  0  0  0  0  0  0  0
    5.8167    0.9785    2.9361 H   0  0  0  0  0  0  0  0  0  0  0  0
    4.6626   -0.3063    2.5884 H   0  0  0  0  0  0  0  0  0  0  0  0
    6.9836   -0.9852    2.1218 H   0  0  0  0  0  0  0  0  0  0  0  0
    7.2160    0.3752    1.0366 H   0  0  0  0  0  0  0  0  0  0  0  0
    5.3096   -1.9808    0.5990 H   0  0  0  0  0  0  0  0  0  0  0  0
    6.8736   -1.7324   -0.1718 H   0  0  0  0  0  0  0  0  0  0  0  0
    5.8859    0.5244   -1.0938 H   0  0  0  0  0  0  0  0  0  0  0  0
    5.4098   -1.0023   -1.8204 H   0  0  0  0  0  0  0  0  0  0  0  0
   -5.9594   -1.1726   -1.9269 H   0  0  0  0  0  0  0  0  0  0  0  0
   -8.4531    0.9755    0.8947 H   0  0  0  0  0  0  0  0  0  0  0  0
   -6.4152    1.8357    2.0120 H   0  0  0  0  0  0  0  0  0  0  0  0
  1  2  2  0
  2  3  1  0
  3  4  1  0
  4  5  2  0
  5  6  1  0
  6  7  2  0
  7  8  1  0
  8  9  2  0
  9 10  1  0
 10 11  1  0
 11 12  2  0
 11 13  1  0
 13 14  2  0
 10 15  1  0
 15 16  1  0
 16 17  1  0
 17 18  1  0
 18 19  1  0
  2 20  1  0
 20 21  2  0
 21 22  1  0
 22 23  1  0
 23 24  2  0
 23 25  1  0
 22 26  2  0
 26 27  1  0
 27 28  2  0
 28 29  1  0
 14  4  1  0
 28 20  1  0
 13  7  1  0
 19  9  1  0
  3 30  1  0
  5 31  1  0
  6 32  1  0
 14 33  1  0
 15 34  1  0
 15 35  1  0
 16 36  1  0
 16 37  1  0
 17 38  1  0
 17 39  1  0
 18 40  1  0
 18 41  1  0
 19 42  1  0
 19 43  1  0
 21 44  1  0
 26 45  1  0
 27 46  1  0
M  CHG  2  23   1  25  -1
M  END
$$$$
