
     RDKit          3D

 39 40  0  0  0  0  0  0  0  0999 V2000
   -7.0627   -0.1292   -0.8072 N   0  0  0  0  0  0  0  0  0  0  0  0
   -6.6525   -1.2489    0.3828 S   0  0  0  0  0  6  0  0  0  0  0  0
   -6.8210   -2.5712   -0.1694 O   0  0  0  0  0  0  0  0  0  0  0  0
   -7.3381   -0.8090    1.5766 O   0  0  0  0  0  0  0  0  0  0  0  0
   -4.9186   -0.9379    0.5787 C   0  0  0  0  0  0  0  0  0  0  0  0
   -4.4646   -0.1582    1.6447 C   0  0  0  0  0  0  0  0  0  0  0  0
   -3.0961    0.0750    1.7908 C   0  0  0  0  0  0  0  0  0  0  0  0
   -2.1807   -0.4755    0.8818 C   0  0  0  0  0  0  0  0  0  0  0  0
   -0.7012   -0.2158    1.0292 C   0  0  0  0  0  0  0  0  0  0  0  0
   -0.2644    1.0290    0.2518 C   0  0  0  0  0  0  0  0  0  0  0  0
    1.1591    1.2922    0.3770 N   0  0  0  0  0  0  0  0  0  0  0  0
    2.0721    0.5416   -0.3389 C   0  0  0  0  0  0  0  0  0  0  0  0
    1.7310   -0.3336   -1.1222 O   0  0  0  0  0  0  0  0  0  0  0  0
    3.3602    0.9359   -0.0498 N   0  0  0  0  0  0  0  0  0  0  0  0
    4.5581    0.3577   -0.5156 C   0  0  0  0  0  0  0  0  0  0  0  0
    4.6153   -0.8409   -1.2294 C   0  0  0  0  0  0  0  0  0  0  0  0
    5.8450   -1.3590   -1.6523 C   0  0  0  0  0  0  0  0  0  0  0  0
    7.0318   -0.6855   -1.3614 C   0  0  0  0  0  0  0  0  0  0  0  0
    8.5127   -1.3816   -1.9122 Cl  0  0  0  0  0  0  0  0  0  0  0  0
    6.9845    0.5111   -0.6418 C   0  0  0  0  0  0  0  0  0  0  0  0
    8.4075    1.4049   -0.2357 Cl  0  0  0  0  0  0  0  0  0  0  0  0
    5.7522    1.0269   -0.2203 C   0  0  0  0  0  0  0  0  0  0  0  0
   -2.6531   -1.2600   -0.1812 C   0  0  0  0  0  0  0  0  0  0  0  0
   -4.0194   -1.4986   -0.3314 C   0  0  0  0  0  0  0  0  0  0  0  0
   -6.2532    0.3218   -1.2315 H   0  0  0  0  0  0  0  0  0  0  0  0
   -7.7148    0.5490   -0.4097 H   0  0  0  0  0  0  0  0  0  0  0  0
   -5.1622    0.2633    2.3655 H   0  0  0  0  0  0  0  0  0  0  0  0
   -2.7474    0.6810    2.6249 H   0  0  0  0  0  0  0  0  0  0  0  0
   -0.4513   -0.0995    2.0918 H   0  0  0  0  0  0  0  0  0  0  0  0
   -0.1429   -1.0991    0.6951 H   0  0  0  0  0  0  0  0  0  0  0  0
   -0.5068    0.9245   -0.8125 H   0  0  0  0  0  0  0  0  0  0  0  0
   -0.7845    1.9183    0.6250 H   0  0  0  0  0  0  0  0  0  0  0  0
    1.4765    1.6610    1.2609 H   0  0  0  0  0  0  0  0  0  0  0  0
    3.4383    1.8201    0.4301 H   0  0  0  0  0  0  0  0  0  0  0  0
    3.7182   -1.4042   -1.4718 H   0  0  0  0  0  0  0  0  0  0  0  0
    5.8632   -2.2933   -2.2091 H   0  0  0  0  0  0  0  0  0  0  0  0
    5.7354    1.9591    0.3387 H   0  0  0  0  0  0  0  0  0  0  0  0
   -1.9534   -1.6974   -0.8929 H   0  0  0  0  0  0  0  0  0  0  0  0
   -4.3723   -2.1243   -1.1493 H   0  0  0  0  0  0  0  0  0  0  0  0
  1  2  1  0
  2  3  2  0
  2  4  2  0
  2  5  1  0
  5  6  2  0
  6  7  1  0
  7  8  2  0
  8  9  1  0
  9 10  1  0
 10 11  1  0
 11 12  1  0
 12 13  2  0
 12 14  1  0
 14 15  1  0
 15 16  2  0
 16 17  1  0
 17 18  2  0
 18 19  1  0
 18 20  1  0
 20 21  1  0
 20 22  2  0
  8 23  1  0
 23 24  2  0
 24  5  1  0
 22 15  1  0
  1 25  1  0
  1 26  1  0
  6 27  1  0
  7 28  1  0
  9 29  1  0
  9 30  1  0
 10 31  1  0
 10 32  1  0
 11 33  1  0
 14 34  1  0
 16 35  1  0
 17 36  1  0
 22 37  1  0
 23 38  1  0
 24 39  1  0
M  END
$$$$
