
     RDKit          3D

 48 51  0  0  0  0  0  0  0  0999 V2000
    3.0962    2.3841   -0.0689 O   0  0  0  0  0  0  0  0  0  0  0  0
    2.5432    1.0444   -0.0548 S   0  0  0  0  0  6  0  0  0  0  0  0
    2.0414    0.4488    1.1668 O   0  0  0  0  0  0  0  0  0  0  0  0
    3.6974   -0.0728   -0.8702 C   0  0  0  0  0  0  0  0  0  0  0  0
    4.9480   -0.1884   -0.0380 C   0  0  0  0  0  0  0  0  0  0  0  0
    6.0258    0.6840   -0.2472 C   0  0  0  0  0  0  0  0  0  0  0  0
    7.1827    0.5779    0.5260 C   0  0  0  0  0  0  0  0  0  0  0  0
    7.2740   -0.3979    1.5163 C   0  0  0  0  0  0  0  0  0  0  0  0
    6.2071   -1.2662    1.7376 C   0  0  0  0  0  0  0  0  0  0  0  0
    5.0488   -1.1624    0.9660 C   0  0  0  0  0  0  0  0  0  0  0  0
    1.2402    1.0463   -1.1625 N   0  0  0  0  0  0  0  0  0  0  0  0
    0.4204   -0.2094   -1.2171 C   0  0  0  0  0  0  0  0  0  0  0  0
   -0.9314   -0.0330   -0.5031 C   0  0  0  0  0  0  0  0  0  0  0  0
   -1.7922    0.9960   -1.1323 N   0  0  0  0  0  0  0  0  0  0  0  0
   -2.7743    1.5298   -0.1745 C   0  0  0  0  0  0  0  0  0  0  0  0
   -3.7654    0.4882    0.3041 C   0  0  0  0  0  0  0  0  0  0  0  0
   -3.8110    0.1171    1.6683 C   0  0  0  0  0  0  0  0  0  0  0  0
   -4.7211   -0.8429    2.1227 C   0  0  0  0  0  0  0  0  0  0  0  0
   -5.5687   -1.4117    1.1975 C   0  0  0  0  0  0  0  0  0  0  0  0
   -5.5332   -1.0591   -0.1306 C   0  0  0  0  0  0  0  0  0  0  0  0
   -4.6477   -0.1168   -0.6082 C   0  0  0  0  0  0  0  0  0  0  0  0
   -6.4486   -1.7381   -0.8726 O   0  0  0  0  0  0  0  0  0  0  0  0
   -7.0651   -2.5571    0.1421 C   0  0  0  0  0  0  0  0  0  0  0  0
   -6.5111   -2.3567    1.4590 O   0  0  0  0  0  0  0  0  0  0  0  0
   -0.9798    2.0760   -1.7329 C   0  0  0  0  0  0  0  0  0  0  0  0
    0.3970    2.2854   -1.0774 C   0  0  0  0  0  0  0  0  0  0  0  0
    3.9202    0.3361   -1.8607 H   0  0  0  0  0  0  0  0  0  0  0  0
    3.2233   -1.0506   -0.9873 H   0  0  0  0  0  0  0  0  0  0  0  0
    5.9683    1.4624   -1.0061 H   0  0  0  0  0  0  0  0  0  0  0  0
    8.0105    1.2627    0.3604 H   0  0  0  0  0  0  0  0  0  0  0  0
    8.1734   -0.4760    2.1213 H   0  0  0  0  0  0  0  0  0  0  0  0
    6.2742   -2.0206    2.5173 H   0  0  0  0  0  0  0  0  0  0  0  0
    4.2218   -1.8418    1.1642 H   0  0  0  0  0  0  0  0  0  0  0  0
    0.9579   -1.0514   -0.7698 H   0  0  0  0  0  0  0  0  0  0  0  0
    0.2692   -0.4681   -2.2722 H   0  0  0  0  0  0  0  0  0  0  0  0
   -0.7307    0.2172    0.5471 H   0  0  0  0  0  0  0  0  0  0  0  0
   -1.4600   -0.9931   -0.5161 H   0  0  0  0  0  0  0  0  0  0  0  0
   -2.2697    2.0004    0.6796 H   0  0  0  0  0  0  0  0  0  0  0  0
   -3.3666    2.3220   -0.6522 H   0  0  0  0  0  0  0  0  0  0  0  0
   -3.1296    0.5763    2.3821 H   0  0  0  0  0  0  0  0  0  0  0  0
   -4.7594   -1.1320    3.1668 H   0  0  0  0  0  0  0  0  0  0  0  0
   -4.6295    0.1418   -1.6619 H   0  0  0  0  0  0  0  0  0  0  0  0
   -8.1366   -2.3279    0.1742 H   0  0  0  0  0  0  0  0  0  0  0  0
   -6.9397   -3.6105   -0.1339 H   0  0  0  0  0  0  0  0  0  0  0  0
   -0.8221    1.8111   -2.7867 H   0  0  0  0  0  0  0  0  0  0  0  0
   -1.5278    3.0261   -1.7506 H   0  0  0  0  0  0  0  0  0  0  0  0
    0.9210    3.0928   -1.6007 H   0  0  0  0  0  0  0  0  0  0  0  0
    0.2595    2.5819   -0.0306 H   0  0  0  0  0  0  0  0  0  0  0  0
  1  2  2  0
  2  3  2  0
  2  4  1  0
  4  5  1  0
  5  6  2  0
  6  7  1  0
  7  8  2  0
  8  9  1  0
  9 10  2  0
  2 11  1  0
 11 12  1  0
 12 13  1  0
 13 14  1  0
 14 15  1  0
 15 16  1  0
 16 17  2  0
 17 18  1  0
 18 19  2  0
 19 20  1  0
 20 21  2  0
 20 22  1  0
 22 23  1  0
 23 24  1  0
 14 25  1  0
 25 26  1  0
 10  5  1  0
 26 11  1  0
 21 16  1  0
 24 19  1  0
  4 27  1  0
  4 28  1  0
  6 29  1  0
  7 30  1  0
  8 31  1  0
  9 32  1  0
 10 33  1  0
 12 34  1  0
 12 35  1  0
 13 36  1  0
 13 37  1  0
 15 38  1  0
 15 39  1  0
 17 40  1  0
 18 41  1  0
 21 42  1  0
 23 43  1  0
 23 44  1  0
 25 45  1  0
 25 46  1  0
 26 47  1  0
 26 48  1  0
M  END
$$$$
