
     RDKit          3D

 43 46  0  0  0  0  0  0  0  0999 V2000
    0.0011    1.2493    3.0292 O   0  0  0  0  0  0  0  0  0  0  0  0
   -0.3288    0.6833    1.6667 P   0  0  0  0  0  5  0  0  0  0  0  0
   -0.9718   -0.8656    1.6585 N   0  0  0  0  0  0  0  0  0  0  0  0
   -2.3443   -1.0483    1.3147 C   0  0  0  0  0  0  0  0  0  0  0  0
   -3.3929   -0.5719    2.1250 C   0  0  0  0  0  0  0  0  0  0  0  0
   -3.0837    0.1746    3.6514 Cl  0  0  0  0  0  0  0  0  0  0  0  0
   -4.7289   -0.7151    1.7353 C   0  0  0  0  0  0  0  0  0  0  0  0
   -5.0447   -1.3418    0.5320 C   0  0  0  0  0  0  0  0  0  0  0  0
   -4.0248   -1.8358   -0.2777 C   0  0  0  0  0  0  0  0  0  0  0  0
   -2.6883   -1.6932    0.1098 C   0  0  0  0  0  0  0  0  0  0  0  0
   -1.4783   -2.3614   -0.9317 Cl  0  0  0  0  0  0  0  0  0  0  0  0
   -1.0416    1.8522    0.5271 C   0  0  0  0  0  0  0  0  0  0  0  0
   -1.4339    3.1118    1.0120 C   0  0  0  0  0  0  0  0  0  0  0  0
   -2.0319    4.0533    0.1725 C   0  0  0  0  0  0  0  0  0  0  0  0
   -2.2508    3.7487   -1.1681 C   0  0  0  0  0  0  0  0  0  0  0  0
   -1.8720    2.5053   -1.6672 C   0  0  0  0  0  0  0  0  0  0  0  0
   -1.2747    1.5650   -0.8248 C   0  0  0  0  0  0  0  0  0  0  0  0
    1.1503    0.0533    0.8881 C   0  0  0  0  0  0  0  0  0  0  0  0
    1.3370   -0.0162   -0.4211 N   0  0  0  0  0  0  0  0  0  0  0  0
    2.5683   -0.5728   -0.6829 C   0  0  0  0  0  0  0  0  0  0  0  0
    3.3171   -0.9035    0.4264 C   0  0  0  0  0  0  0  0  0  0  0  0
    2.4664   -0.5317    1.8495 S   0  0  0  0  0  0  0  0  0  0  0  0
    4.6675   -1.5337    0.3969 C   0  0  0  0  0  0  0  0  0  0  0  0
    5.2801   -1.4065   -1.0104 C   0  0  0  0  0  0  0  0  0  0  0  0
    4.2596   -1.7227   -2.1186 C   0  0  0  0  0  0  0  0  0  0  0  0
    3.0529   -0.7682   -2.0792 C   0  0  0  0  0  0  0  0  0  0  0  0
   -0.8505   -1.2143    2.6074 H   0  0  0  0  0  0  0  0  0  0  0  0
   -5.5294   -0.3412    2.3700 H   0  0  0  0  0  0  0  0  0  0  0  0
   -6.0835   -1.4521    0.2298 H   0  0  0  0  0  0  0  0  0  0  0  0
   -4.2747   -2.3344   -1.2115 H   0  0  0  0  0  0  0  0  0  0  0  0
   -1.2721    3.3611    2.0605 H   0  0  0  0  0  0  0  0  0  0  0  0
   -2.3250    5.0232    0.5661 H   0  0  0  0  0  0  0  0  0  0  0  0
   -2.7129    4.4811   -1.8247 H   0  0  0  0  0  0  0  0  0  0  0  0
   -2.0355    2.2656   -2.7148 H   0  0  0  0  0  0  0  0  0  0  0  0
   -0.9795    0.6038   -1.2394 H   0  0  0  0  0  0  0  0  0  0  0  0
    4.5720   -2.5953    0.6554 H   0  0  0  0  0  0  0  0  0  0  0  0
    5.3372   -1.0715    1.1306 H   0  0  0  0  0  0  0  0  0  0  0  0
    5.6547   -0.3846   -1.1543 H   0  0  0  0  0  0  0  0  0  0  0  0
    6.1427   -2.0771   -1.0940 H   0  0  0  0  0  0  0  0  0  0  0  0
    3.9119   -2.7567   -1.9968 H   0  0  0  0  0  0  0  0  0  0  0  0
    4.7419   -1.6608   -3.1006 H   0  0  0  0  0  0  0  0  0  0  0  0
    2.2485   -1.1621   -2.7099 H   0  0  0  0  0  0  0  0  0  0  0  0
    3.3452    0.2067   -2.4871 H   0  0  0  0  0  0  0  0  0  0  0  0
  1  2  2  0
  2  3  1  0
  3  4  1  0
  4  5  2  0
  5  6  1  0
  5  7  1  0
  7  8  2  0
  8  9  1  0
  9 10  2  0
 10 11  1  0
  2 12  1  0
 12 13  2  0
 13 14  1  0
 14 15  2  0
 15 16  1  0
 16 17  2  0
  2 18  1  0
 18 19  2  0
 19 20  1  0
 20 21  2  0
 21 22  1  0
 21 23  1  0
 23 24  1  0
 24 25  1  0
 25 26  1  0
 10  4  1  0
 17 12  1  0
 22 18  1  0
 26 20  1  0
  3 27  1  0
  7 28  1  0
  8 29  1  0
  9 30  1  0
 13 31  1  0
 14 32  1  0
 15 33  1  0
 16 34  1  0
 17 35  1  0
 23 36  1  0
 23 37  1  0
 24 38  1  0
 24 39  1  0
 25 40  1  0
 25 41  1  0
 26 42  1  0
 26 43  1  0
M  END
$$$$
