
     RDKit          3D

 72 76  0  0  0  0  0  0  0  0999 V2000
    8.4595   -1.2577    1.5372 C   0  0  0  0  0  0  0  0  0  0  0  0
    7.1059   -0.9361    2.1885 C   0  0  0  0  0  0  0  0  0  0  0  0
    6.6576   -2.1559    3.0033 C   0  0  0  0  0  0  0  0  0  0  0  0
    7.2715    0.3097    3.0643 C   0  0  0  0  0  0  0  0  0  0  0  0
    6.2097   -0.6858    1.0759 O   0  0  0  0  0  0  0  0  0  0  0  0
    4.9053   -0.3987    1.2936 C   0  0  0  0  0  0  0  0  0  0  0  0
    4.3676   -0.2748    2.3821 O   0  0  0  0  0  0  0  0  0  0  0  0
    4.2802   -0.2775    0.0888 N   0  0  0  0  0  0  0  0  0  0  0  0
    2.8778    0.0504   -0.0435 C   0  0  0  0  0  0  0  0  0  0  0  0
    2.6631    1.5608   -0.0926 C   0  0  0  0  0  0  0  0  0  0  0  0
    1.1843    1.9584   -0.1080 C   0  0  0  0  0  0  0  0  0  0  0  0
    0.4605    1.5694   -1.4028 C   0  0  0  0  0  0  0  0  0  0  0  0
   -0.9709    2.1307   -1.4793 C   0  0  1  0  0  0  0  0  0  0  0  0
   -1.5254    1.9646   -2.8762 N   0  0  0  0  0  0  0  0  0  0  0  0
   -2.6187    0.9413   -2.8576 C   0  0  0  0  0  0  0  0  0  0  0  0
   -2.2107   -0.3558   -3.6158 C   0  0  0  0  0  0  0  0  0  0  0  0
   -1.1983   -1.0262   -3.4778 O   0  0  0  0  0  0  0  0  0  0  0  0
   -3.2119   -0.6065   -4.5573 N   0  0  0  0  0  0  0  0  0  0  0  0
   -4.1786    0.3909   -4.5413 C   0  0  0  0  0  0  0  0  0  0  0  0
   -5.2875    0.4836   -5.3561 C   0  0  0  0  0  0  0  0  0  0  0  0
   -6.1286    1.5840   -5.1734 C   0  0  0  0  0  0  0  0  0  0  0  0
   -5.8417    2.5552   -4.1963 C   0  0  0  0  0  0  0  0  0  0  0  0
   -4.7091    2.4420   -3.3849 C   0  0  0  0  0  0  0  0  0  0  0  0
   -3.8808    1.3444   -3.5623 C   0  0  0  0  0  0  0  0  0  0  0  0
   -2.9038    0.7359   -1.4316 C   0  0  0  0  0  0  0  0  0  0  0  0
   -1.9597    1.4067   -0.6497 C   0  0  0  0  0  0  0  0  0  0  0  0
   -2.2561    1.2035    0.6719 C   0  0  0  0  0  0  0  0  0  0  0  0
   -1.6415    1.6696    1.7512 O   0  0  0  0  0  0  0  0  0  0  0  0
   -3.3865    0.3942    0.7007 N   0  0  0  0  0  0  0  0  0  0  0  0
   -4.1220   -0.0182    1.8928 C   0  0  0  0  0  0  0  0  0  0  0  0
   -3.5517   -1.2774    2.5000 C   0  0  0  0  0  0  0  0  0  0  0  0
   -3.7322   -2.5149    1.8568 C   0  0  0  0  0  0  0  0  0  0  0  0
   -3.2094   -3.6858    2.4071 C   0  0  0  0  0  0  0  0  0  0  0  0
   -2.4985   -3.6350    3.6063 C   0  0  0  0  0  0  0  0  0  0  0  0
   -2.3151   -2.4150    4.2588 C   0  0  0  0  0  0  0  0  0  0  0  0
   -2.8435   -1.2422    3.7138 C   0  0  0  0  0  0  0  0  0  0  0  0
   -3.8031    0.1247   -0.5968 C   0  0  0  0  0  0  0  0  0  0  0  0
   -4.8982   -0.5877   -0.8371 O   0  0  0  0  0  0  0  0  0  0  0  0
    9.2161   -1.5193    2.2831 H   0  0  0  0  0  0  0  0  0  0  0  0
    8.3640   -2.0923    0.8342 H   0  0  0  0  0  0  0  0  0  0  0  0
    8.8290   -0.4048    0.9584 H   0  0  0  0  0  0  0  0  0  0  0  0
    6.4738   -3.0159    2.3498 H   0  0  0  0  0  0  0  0  0  0  0  0
    7.4110   -2.4397    3.7453 H   0  0  0  0  0  0  0  0  0  0  0  0
    5.7244   -1.9690    3.5434 H   0  0  0  0  0  0  0  0  0  0  0  0
    7.5228    1.1859    2.4557 H   0  0  0  0  0  0  0  0  0  0  0  0
    6.3524    0.5564    3.6039 H   0  0  0  0  0  0  0  0  0  0  0  0
    8.0578    0.1674    3.8125 H   0  0  0  0  0  0  0  0  0  0  0  0
    4.8687   -0.3552   -0.7276 H   0  0  0  0  0  0  0  0  0  0  0  0
    2.5277   -0.4258   -0.9642 H   0  0  0  0  0  0  0  0  0  0  0  0
    2.3299   -0.3870    0.7982 H   0  0  0  0  0  0  0  0  0  0  0  0
    3.1305    2.0211    0.7873 H   0  0  0  0  0  0  0  0  0  0  0  0
    3.1738    1.9812   -0.9672 H   0  0  0  0  0  0  0  0  0  0  0  0
    1.1222    3.0451    0.0258 H   0  0  0  0  0  0  0  0  0  0  0  0
    0.6927    1.5025    0.7553 H   0  0  0  0  0  0  0  0  0  0  0  0
    0.4429    0.4781   -1.5060 H   0  0  0  0  0  0  0  0  0  0  0  0
    1.0432    1.9598   -2.2466 H   0  0  0  0  0  0  0  0  0  0  0  0
   -0.9768    3.2017   -1.2467 H   0  0  0  0  0  0  0  0  0  0  0  0
   -0.7866    1.6063   -3.4792 H   0  0  0  0  0  0  0  0  0  0  0  0
   -3.1754   -1.3851   -5.1996 H   0  0  0  0  0  0  0  0  0  0  0  0
   -5.5021   -0.2585   -6.1164 H   0  0  0  0  0  0  0  0  0  0  0  0
   -7.0122    1.6986   -5.7971 H   0  0  0  0  0  0  0  0  0  0  0  0
   -6.5068    3.4083   -4.0735 H   0  0  0  0  0  0  0  0  0  0  0  0
   -4.4824    3.1933   -2.6334 H   0  0  0  0  0  0  0  0  0  0  0  0
   -1.8830    1.1310    2.5246 H   0  0  0  0  0  0  0  0  0  0  0  0
   -4.0980    0.8170    2.6020 H   0  0  0  0  0  0  0  0  0  0  0  0
   -5.1748   -0.1668    1.6280 H   0  0  0  0  0  0  0  0  0  0  0  0
   -4.2808   -2.5734    0.9157 H   0  0  0  0  0  0  0  0  0  0  0  0
   -3.3552   -4.6356    1.8950 H   0  0  0  0  0  0  0  0  0  0  0  0
   -2.0861   -4.5461    4.0326 H   0  0  0  0  0  0  0  0  0  0  0  0
   -1.7607   -2.3796    5.1956 H   0  0  0  0  0  0  0  0  0  0  0  0
   -2.6972   -0.3078    4.2547 H   0  0  0  0  0  0  0  0  0  0  0  0
   -5.0647   -0.5610   -1.7966 H   0  0  0  0  0  0  0  0  0  0  0  0
  1  2  1  0
  2  3  1  0
  2  4  1  0
  2  5  1  0
  5  6  1  0
  6  7  2  0
  6  8  1  0
  8  9  1  0
  9 10  1  0
 10 11  1  0
 11 12  1  0
 12 13  1  0
 13 14  1  0
 14 15  1  0
 15 16  1  0
 16 17  2  0
 16 18  1  0
 18 19  1  0
 19 20  2  0
 20 21  1  0
 21 22  2  0
 22 23  1  0
 23 24  2  0
 15 25  1  0
 25 26  1  0
 26 27  2  0
 27 28  1  0
 27 29  1  0
 29 30  1  0
 30 31  1  0
 31 32  2  0
 32 33  1  0
 33 34  2  0
 34 35  1  0
 35 36  2  0
 29 37  1  0
 37 38  1  0
 26 13  1  0
 36 31  1  0
 24 15  1  0
 37 25  2  0
 24 19  1  0
  1 39  1  0
  1 40  1  0
  1 41  1  0
  3 42  1  0
  3 43  1  0
  3 44  1  0
  4 45  1  0
  4 46  1  0
  4 47  1  0
  8 48  1  0
  9 49  1  0
  9 50  1  0
 10 51  1  0
 10 52  1  0
 11 53  1  0
 11 54  1  0
 12 55  1  0
 12 56  1  0
 13 57  1  1
 14 58  1  0
 18 59  1  0
 20 60  1  0
 21 61  1  0
 22 62  1  0
 23 63  1  0
 28 64  1  0
 30 65  1  0
 30 66  1  0
 32 67  1  0
 33 68  1  0
 34 69  1  0
 35 70  1  0
 36 71  1  0
 38 72  1  0
M  END
$$$$
