
     RDKit          3D

 40 43  0  0  0  0  0  0  0  0999 V2000
    2.8674    2.9404    0.1039 O   0  0  0  0  0  0  0  0  0  0  0  0
    2.4952    1.7439    0.8340 S   0  0  0  0  0  6  0  0  0  0  0  0
    2.8461    1.6035    2.2287 O   0  0  0  0  0  0  0  0  0  0  0  0
    3.1932    0.3917   -0.0422 C   0  0  0  0  0  0  0  0  0  0  0  0
    3.8322    0.5911   -1.2905 C   0  0  0  0  0  0  0  0  0  0  0  0
    4.4427   -0.4577   -2.0244 C   0  0  0  0  0  0  0  0  0  0  0  0
    4.4751   -1.7871   -1.5700 C   0  0  0  0  0  0  0  0  0  0  0  0
    3.8574   -2.0005   -0.3232 C   0  0  0  0  0  0  0  0  0  0  0  0
    3.7294   -3.1420    0.3613 N   0  0  0  0  0  0  0  0  0  0  0  0
    3.0543   -2.8130    1.5207 O   0  0  0  0  0  0  0  0  0  0  0  0
    2.7339   -1.4704    1.5625 N   0  0  0  0  0  0  0  0  0  0  0  0
    3.2244   -0.9267    0.4407 C   0  0  0  0  0  0  0  0  0  0  0  0
    0.8279    1.5708    0.6555 N   0  0  0  0  0  0  0  0  0  0  0  0
    0.1020    0.5688    1.4924 C   0  0  0  0  0  0  0  0  0  0  0  0
   -0.5562   -0.5233    0.6313 C   0  0  0  0  0  0  0  0  0  0  0  0
   -1.4983    0.0324   -0.3721 N   0  0  0  0  0  0  0  0  0  0  0  0
   -2.8750   -0.2002   -0.1681 C   0  0  0  0  0  0  0  0  0  0  0  0
   -3.6992   -0.3185   -1.3004 C   0  0  0  0  0  0  0  0  0  0  0  0
   -5.0760   -0.5384   -1.1824 C   0  0  0  0  0  0  0  0  0  0  0  0
   -5.6624   -0.6385    0.0766 C   0  0  0  0  0  0  0  0  0  0  0  0
   -4.8711   -0.5159    1.2151 C   0  0  0  0  0  0  0  0  0  0  0  0
   -3.4987   -0.2981    1.0890 C   0  0  0  0  0  0  0  0  0  0  0  0
   -2.7884   -0.1483    2.2183 F   0  0  0  0  0  0  0  0  0  0  0  0
   -1.2468    1.4487   -0.7423 C   0  0  0  0  0  0  0  0  0  0  0  0
    0.2572    1.7745   -0.7066 C   0  0  0  0  0  0  0  0  0  0  0  0
    3.8695    1.5962   -1.7165 H   0  0  0  0  0  0  0  0  0  0  0  0
    4.9139   -0.2202   -2.9796 H   0  0  0  0  0  0  0  0  0  0  0  0
    4.9436   -2.5873   -2.1292 H   0  0  0  0  0  0  0  0  0  0  0  0
    0.7620    0.1116    2.2326 H   0  0  0  0  0  0  0  0  0  0  0  0
   -0.6593    1.1155    2.0613 H   0  0  0  0  0  0  0  0  0  0  0  0
    0.2249   -1.0438    0.0644 H   0  0  0  0  0  0  0  0  0  0  0  0
   -1.0152   -1.2932    1.2615 H   0  0  0  0  0  0  0  0  0  0  0  0
   -3.2583   -0.2579   -2.2929 H   0  0  0  0  0  0  0  0  0  0  0  0
   -5.6864   -0.6349   -2.0770 H   0  0  0  0  0  0  0  0  0  0  0  0
   -6.7317   -0.8092    0.1700 H   0  0  0  0  0  0  0  0  0  0  0  0
   -5.3114   -0.5816    2.2050 H   0  0  0  0  0  0  0  0  0  0  0  0
   -1.6225    1.6385   -1.7549 H   0  0  0  0  0  0  0  0  0  0  0  0
   -1.7742    2.1237   -0.0541 H   0  0  0  0  0  0  0  0  0  0  0  0
    0.7792    1.1354   -1.4270 H   0  0  0  0  0  0  0  0  0  0  0  0
    0.3991    2.8202   -0.9992 H   0  0  0  0  0  0  0  0  0  0  0  0
  1  2  2  0
  2  3  2  0
  2  4  1  0
  4  5  2  0
  5  6  1  0
  6  7  2  0
  7  8  1  0
  8  9  2  0
  9 10  1  0
 10 11  1  0
 11 12  2  0
  2 13  1  0
 13 14  1  0
 14 15  1  0
 15 16  1  0
 16 17  1  0
 17 18  2  0
 18 19  1  0
 19 20  2  0
 20 21  1  0
 21 22  2  0
 22 23  1  0
 16 24  1  0
 24 25  1  0
 12  4  1  0
 25 13  1  0
 12  8  1  0
 22 17  1  0
  5 26  1  0
  6 27  1  0
  7 28  1  0
 14 29  1  0
 14 30  1  0
 15 31  1  0
 15 32  1  0
 18 33  1  0
 19 34  1  0
 20 35  1  0
 21 36  1  0
 24 37  1  0
 24 38  1  0
 25 39  1  0
 25 40  1  0
M  END
$$$$
