
     RDKit          3D

 48 51  0  0  0  0  0  0  0  0999 V2000
    9.0642   -0.0705    0.2024 C   0  0  0  0  0  0  0  0  0  0  0  0
    8.1803    1.0219    0.4209 O   0  0  0  0  0  0  0  0  0  0  0  0
    6.8418    0.7588    0.3324 C   0  0  0  0  0  0  0  0  0  0  0  0
    6.2632   -0.4757    0.0530 C   0  0  0  0  0  0  0  0  0  0  0  0
    4.8681   -0.6012   -0.0064 C   0  0  0  0  0  0  0  0  0  0  0  0
    4.0133    0.4944    0.2151 C   0  0  0  0  0  0  0  0  0  0  0  0
    2.5458    0.3308    0.1518 C   0  0  0  0  0  0  0  0  0  0  0  0
    1.6630    1.0869    0.9159 C   0  0  0  0  0  0  0  0  0  0  0  0
    0.2914    0.8621    0.7945 C   0  0  0  0  0  0  0  0  0  0  0  0
   -0.1944   -0.1164   -0.0820 C   0  0  0  0  0  0  0  0  0  0  0  0
   -1.6320   -0.3322   -0.1800 C   0  0  0  0  0  0  0  0  0  0  0  0
   -2.2205   -1.4497   -0.6313 N   0  0  0  0  0  0  0  0  0  0  0  0
   -3.5816   -1.1876   -0.5061 O   0  0  0  0  0  0  0  0  0  0  0  0
   -3.6986    0.0597    0.0331 C   0  0  0  0  0  0  0  0  0  0  0  0
   -5.0405    0.6034    0.2508 C   0  0  0  0  0  0  0  0  0  0  0  0
   -5.1474    1.9918    0.4729 C   0  0  0  0  0  0  0  0  0  0  0  0
   -6.3838    2.6007    0.6844 C   0  0  0  0  0  0  0  0  0  0  0  0
   -7.5380    1.8290    0.6822 C   0  0  0  0  0  0  0  0  0  0  0  0
   -7.4574    0.4505    0.4726 C   0  0  0  0  0  0  0  0  0  0  0  0
   -6.2189   -0.1742    0.2577 C   0  0  0  0  0  0  0  0  0  0  0  0
   -6.0797   -1.5255    0.0735 O   0  0  0  0  0  0  0  0  0  0  0  0
   -7.2558   -2.3195   -0.0088 C   0  0  0  0  0  0  0  0  0  0  0  0
   -2.5301    0.6281    0.2488 N   0  0  0  0  0  0  0  0  0  0  0  0
    0.7567   -0.8274   -0.8115 C   0  0  0  0  0  0  0  0  0  0  0  0
    0.3283   -1.7702   -1.7232 O   0  0  0  0  0  0  0  0  0  0  0  0
    1.3816   -2.4579   -2.3874 C   0  0  0  0  0  0  0  0  0  0  0  0
    2.0967   -0.6222   -0.7017 N   0  0  0  0  0  0  0  0  0  0  0  0
    4.6201    1.7321    0.4863 C   0  0  0  0  0  0  0  0  0  0  0  0
    6.0134    1.8599    0.5459 C   0  0  0  0  0  0  0  0  0  0  0  0
    8.9172   -0.8537    0.9536 H   0  0  0  0  0  0  0  0  0  0  0  0
   10.0879    0.3019    0.3064 H   0  0  0  0  0  0  0  0  0  0  0  0
    8.9563   -0.4691   -0.8118 H   0  0  0  0  0  0  0  0  0  0  0  0
    6.8602   -1.3633   -0.1258 H   0  0  0  0  0  0  0  0  0  0  0  0
    4.4421   -1.5793   -0.2275 H   0  0  0  0  0  0  0  0  0  0  0  0
    2.0193    1.8342    1.6172 H   0  0  0  0  0  0  0  0  0  0  0  0
   -0.3966    1.4516    1.3978 H   0  0  0  0  0  0  0  0  0  0  0  0
   -4.2513    2.6118    0.4768 H   0  0  0  0  0  0  0  0  0  0  0  0
   -6.4417    3.6735    0.8505 H   0  0  0  0  0  0  0  0  0  0  0  0
   -8.5053    2.2972    0.8483 H   0  0  0  0  0  0  0  0  0  0  0  0
   -8.3856   -0.1118    0.4905 H   0  0  0  0  0  0  0  0  0  0  0  0
   -7.8025   -2.3115    0.9397 H   0  0  0  0  0  0  0  0  0  0  0  0
   -6.9487   -3.3511   -0.2061 H   0  0  0  0  0  0  0  0  0  0  0  0
   -7.8938   -1.9983   -0.8387 H   0  0  0  0  0  0  0  0  0  0  0  0
    1.9825   -1.7723   -2.9950 H   0  0  0  0  0  0  0  0  0  0  0  0
    2.0083   -3.0081   -1.6768 H   0  0  0  0  0  0  0  0  0  0  0  0
    0.9277   -3.1887   -3.0637 H   0  0  0  0  0  0  0  0  0  0  0  0
    4.0195    2.6257    0.6378 H   0  0  0  0  0  0  0  0  0  0  0  0
    6.4552    2.8313    0.7553 H   0  0  0  0  0  0  0  0  0  0  0  0
  1  2  1  0
  2  3  1  0
  3  4  2  0
  4  5  1  0
  5  6  2  0
  6  7  1  0
  7  8  2  0
  8  9  1  0
  9 10  2  0
 10 11  1  0
 11 12  2  0
 12 13  1  0
 13 14  1  0
 14 15  1  0
 15 16  2  0
 16 17  1  0
 17 18  2  0
 18 19  1  0
 19 20  2  0
 20 21  1  0
 21 22  1  0
 14 23  2  0
 10 24  1  0
 24 25  1  0
 25 26  1  0
 24 27  2  0
  6 28  1  0
 28 29  2  0
 29  3  1  0
 27  7  1  0
 23 11  1  0
 20 15  1  0
  1 30  1  0
  1 31  1  0
  1 32  1  0
  4 33  1  0
  5 34  1  0
  8 35  1  0
  9 36  1  0
 16 37  1  0
 17 38  1  0
 18 39  1  0
 19 40  1  0
 22 41  1  0
 22 42  1  0
 22 43  1  0
 26 44  1  0
 26 45  1  0
 26 46  1  0
 28 47  1  0
 29 48  1  0
M  END
$$$$
