
     RDKit          3D

 69 72  0  0  0  0  0  0  0  0999 V2000
    6.4073    3.4336    0.4376 C   0  0  0  0  0  0  0  0  0  0  0  0
    5.8609    2.2211   -0.2560 C   0  0  0  0  0  0  0  0  0  0  0  0
    6.7169    1.1900   -0.6673 C   0  0  0  0  0  0  0  0  0  0  0  0
    6.2103    0.0533   -1.3029 C   0  0  0  0  0  0  0  0  0  0  0  0
    4.8390   -0.0743   -1.5165 C   0  0  0  0  0  0  0  0  0  0  0  0
    3.9763    0.9306   -1.0731 C   0  0  0  0  0  0  0  0  0  0  0  0
    2.5249    0.7870   -1.3174 C   0  0  0  0  0  0  0  0  0  0  0  0
    2.1548    0.5808   -2.4711 O   0  0  0  0  0  0  0  0  0  0  0  0
    1.6406    0.8905   -0.2355 N   0  0  0  0  0  0  0  0  0  0  0  0
    2.0197    0.5091    1.1284 C   0  0  0  0  0  0  0  0  0  0  0  0
    1.9260   -0.9953    1.3362 C   0  0  0  0  0  0  0  0  0  0  0  0
    0.5243   -1.4154    1.7216 C   0  0  0  0  0  0  0  0  0  0  0  0
    0.3318   -1.9034    2.8378 O   0  0  0  0  0  0  0  0  0  0  0  0
   -0.4923   -1.2322    0.7890 N   0  0  0  0  0  0  0  0  0  0  0  0
   -1.8614   -1.6865    1.1455 C   0  0  0  0  0  0  0  0  0  0  0  0
   -2.9029   -0.5434    1.0862 C   0  0  0  0  0  0  0  0  0  0  0  0
   -2.5177    0.5242    1.9582 O   0  0  0  0  0  0  0  0  0  0  0  0
   -3.5329    1.5157    2.1113 C   0  0  0  0  0  0  0  0  0  0  0  0
   -3.6041    2.4300    0.9131 C   0  0  0  0  0  0  0  0  0  0  0  0
   -2.5233    3.2635    0.5989 C   0  0  0  0  0  0  0  0  0  0  0  0
   -2.5697    4.0963   -0.5184 C   0  0  0  0  0  0  0  0  0  0  0  0
   -3.7025    4.1119   -1.3313 C   0  0  0  0  0  0  0  0  0  0  0  0
   -4.8043    3.2981   -1.0302 C   0  0  0  0  0  0  0  0  0  0  0  0
   -6.0275    3.2948   -1.9137 C   0  0  0  0  0  0  0  0  0  0  0  0
   -6.0323    2.2468   -2.7831 F   0  0  0  0  0  0  0  0  0  0  0  0
   -6.1509    4.4161   -2.6766 F   0  0  0  0  0  0  0  0  0  0  0  0
   -7.1882    3.1970   -1.2065 F   0  0  0  0  0  0  0  0  0  0  0  0
   -4.7410    2.4541    0.0924 C   0  0  0  0  0  0  0  0  0  0  0  0
   -2.3409   -2.8785    0.2798 C   0  0  0  0  0  0  0  0  0  0  0  0
   -1.4018   -4.0622    0.2168 C   0  0  0  0  0  0  0  0  0  0  0  0
   -0.9720   -4.5547   -1.0241 C   0  0  0  0  0  0  0  0  0  0  0  0
   -0.1149   -5.6546   -1.0949 C   0  0  0  0  0  0  0  0  0  0  0  0
    0.3188   -6.2776    0.0726 C   0  0  0  0  0  0  0  0  0  0  0  0
   -0.1065   -5.8026    1.3109 C   0  0  0  0  0  0  0  0  0  0  0  0
   -0.9662   -4.7048    1.3832 C   0  0  0  0  0  0  0  0  0  0  0  0
   -0.2537   -0.6943   -0.5606 C   0  0  0  0  0  0  0  0  0  0  0  0
    0.2168    0.7659   -0.5437 C   0  0  0  0  0  0  0  0  0  0  0  0
    4.4821    2.0826   -0.4584 C   0  0  0  0  0  0  0  0  0  0  0  0
    6.3912    3.2834    1.5213 H   0  0  0  0  0  0  0  0  0  0  0  0
    7.4371    3.6344    0.1241 H   0  0  0  0  0  0  0  0  0  0  0  0
    5.8147    4.3213    0.1929 H   0  0  0  0  0  0  0  0  0  0  0  0
    7.7900    1.2716   -0.5056 H   0  0  0  0  0  0  0  0  0  0  0  0
    6.8871   -0.7298   -1.6359 H   0  0  0  0  0  0  0  0  0  0  0  0
    4.4438   -0.9508   -2.0241 H   0  0  0  0  0  0  0  0  0  0  0  0
    1.3759    1.0578    1.8259 H   0  0  0  0  0  0  0  0  0  0  0  0
    3.0453    0.8234    1.3315 H   0  0  0  0  0  0  0  0  0  0  0  0
    2.5817   -1.2746    2.1706 H   0  0  0  0  0  0  0  0  0  0  0  0
    2.2605   -1.5711    0.4670 H   0  0  0  0  0  0  0  0  0  0  0  0
   -1.8445   -2.0182    2.1902 H   0  0  0  0  0  0  0  0  0  0  0  0
   -3.8780   -0.9338    1.4020 H   0  0  0  0  0  0  0  0  0  0  0  0
   -3.0012   -0.1586    0.0659 H   0  0  0  0  0  0  0  0  0  0  0  0
   -3.2771    2.1160    2.9920 H   0  0  0  0  0  0  0  0  0  0  0  0
   -4.4991    1.0444    2.3266 H   0  0  0  0  0  0  0  0  0  0  0  0
   -1.6326    3.2562    1.2250 H   0  0  0  0  0  0  0  0  0  0  0  0
   -1.7198    4.7319   -0.7563 H   0  0  0  0  0  0  0  0  0  0  0  0
   -3.7231    4.7651   -2.2029 H   0  0  0  0  0  0  0  0  0  0  0  0
   -5.5905    1.8115    0.3238 H   0  0  0  0  0  0  0  0  0  0  0  0
   -2.5446   -2.5271   -0.7398 H   0  0  0  0  0  0  0  0  0  0  0  0
   -3.3047   -3.2394    0.6631 H   0  0  0  0  0  0  0  0  0  0  0  0
   -1.2976   -4.0836   -1.9487 H   0  0  0  0  0  0  0  0  0  0  0  0
    0.2151   -6.0241   -2.0622 H   0  0  0  0  0  0  0  0  0  0  0  0
    0.9883   -7.1316    0.0183 H   0  0  0  0  0  0  0  0  0  0  0  0
    0.2342   -6.2816    2.2247 H   0  0  0  0  0  0  0  0  0  0  0  0
   -1.2771   -4.3472    2.3625 H   0  0  0  0  0  0  0  0  0  0  0  0
   -1.1819   -0.7524   -1.1360 H   0  0  0  0  0  0  0  0  0  0  0  0
    0.4755   -1.3427   -1.0589 H   0  0  0  0  0  0  0  0  0  0  0  0
    0.0275    1.2166   -1.5245 H   0  0  0  0  0  0  0  0  0  0  0  0
   -0.3396    1.3504    0.1945 H   0  0  0  0  0  0  0  0  0  0  0  0
    3.7999    2.8700   -0.1459 H   0  0  0  0  0  0  0  0  0  0  0  0
  1  2  1  0
  2  3  2  0
  3  4  1  0
  4  5  2  0
  5  6  1  0
  6  7  1  0
  7  8  2  0
  7  9  1  0
  9 10  1  0
 10 11  1  0
 11 12  1  0
 12 13  2  0
 12 14  1  0
 14 15  1  0
 15 16  1  0
 16 17  1  0
 17 18  1  0
 18 19  1  0
 19 20  2  0
 20 21  1  0
 21 22  2  0
 22 23  1  0
 23 24  1  0
 24 25  1  0
 24 26  1  0
 24 27  1  0
 23 28  2  0
 15 29  1  0
 29 30  1  0
 30 31  2  0
 31 32  1  0
 32 33  2  0
 33 34  1  0
 34 35  2  0
 14 36  1  0
 36 37  1  0
  6 38  2  0
 38  2  1  0
 37  9  1  0
 28 19  1  0
 35 30  1  0
  1 39  1  0
  1 40  1  0
  1 41  1  0
  3 42  1  0
  4 43  1  0
  5 44  1  0
 10 45  1  0
 10 46  1  0
 11 47  1  0
 11 48  1  0
 15 49  1  0
 16 50  1  0
 16 51  1  0
 18 52  1  0
 18 53  1  0
 20 54  1  0
 21 55  1  0
 22 56  1  0
 28 57  1  0
 29 58  1  0
 29 59  1  0
 31 60  1  0
 32 61  1  0
 33 62  1  0
 34 63  1  0
 35 64  1  0
 36 65  1  0
 36 66  1  0
 37 67  1  0
 37 68  1  0
 38 69  1  0
M  END
$$$$
