
     RDKit          3D

 42 45  0  0  0  0  0  0  0  0999 V2000
   -2.9469    3.9834    0.0496 C   0  0  0  0  0  0  0  0  0  0  0  0
   -1.8545    2.9545    0.0238 C   0  0  0  0  0  0  0  0  0  0  0  0
   -0.6156    3.2236    0.6355 C   0  0  0  0  0  0  0  0  0  0  0  0
    0.4089    2.2682    0.6551 C   0  0  0  0  0  0  0  0  0  0  0  0
    0.1755    1.0301    0.0823 C   0  0  0  0  0  0  0  0  0  0  0  0
   -1.0521    0.7656   -0.5353 C   0  0  0  0  0  0  0  0  0  0  0  0
   -2.0763    1.7030   -0.5611 C   0  0  0  0  0  0  0  0  0  0  0  0
   -1.0771   -0.6326   -1.0908 C   0  0  0  0  0  0  0  0  0  0  0  0
   -1.8690   -1.5512   -0.1447 C   0  0  0  0  0  0  0  0  0  0  0  0
   -1.5529   -2.9771   -0.2613 N   0  0  0  0  0  0  0  0  0  0  0  0
   -2.0502   -3.5673   -1.4994 C   0  0  0  0  0  0  0  0  0  0  0  0
   -0.1185   -3.1890   -0.0500 C   0  0  0  0  0  0  0  0  0  0  0  0
    0.7647   -2.4331   -1.0366 C   0  0  0  0  0  0  0  0  0  0  0  0
    0.4395   -0.9384   -1.1307 C   0  0  0  0  0  0  0  0  0  0  0  0
    1.0429   -0.0827   -0.0784 N   0  0  0  0  0  0  0  0  0  0  0  0
    2.4148   -0.0729    0.1615 C   0  0  0  0  0  0  0  0  0  0  0  0
    3.2043   -0.5225   -0.6726 O   0  0  0  0  0  0  0  0  0  0  0  0
    2.8812    0.3902    1.4575 C   0  0  0  0  0  0  0  0  0  0  0  0
    4.1523    0.7373    1.8807 C   0  0  0  0  0  0  0  0  0  0  0  0
    4.0534    1.0649    3.2547 C   0  0  0  0  0  0  0  0  0  0  0  0
    2.7346    0.8794    3.5971 C   0  0  0  0  0  0  0  0  0  0  0  0
    1.9965    1.1614    5.3266 Br  0  0  0  0  0  0  0  0  0  0  0  0
    2.0197    0.4604    2.5208 O   0  0  0  0  0  0  0  0  0  0  0  0
   -3.5430    3.8727    0.9606 H   0  0  0  0  0  0  0  0  0  0  0  0
   -3.6049    3.8771   -0.8192 H   0  0  0  0  0  0  0  0  0  0  0  0
   -2.5300    4.9956    0.0190 H   0  0  0  0  0  0  0  0  0  0  0  0
   -0.4390    4.1921    1.1001 H   0  0  0  0  0  0  0  0  0  0  0  0
    1.3545    2.5331    1.1107 H   0  0  0  0  0  0  0  0  0  0  0  0
   -3.0289    1.4667   -1.0264 H   0  0  0  0  0  0  0  0  0  0  0  0
   -1.4906   -0.6599   -2.1053 H   0  0  0  0  0  0  0  0  0  0  0  0
   -1.6949   -1.2625    0.9020 H   0  0  0  0  0  0  0  0  0  0  0  0
   -2.9455   -1.3917   -0.2939 H   0  0  0  0  0  0  0  0  0  0  0  0
   -3.1407   -3.4739   -1.5513 H   0  0  0  0  0  0  0  0  0  0  0  0
   -1.6306   -3.1068   -2.3993 H   0  0  0  0  0  0  0  0  0  0  0  0
   -1.8282   -4.6398   -1.5287 H   0  0  0  0  0  0  0  0  0  0  0  0
    0.1397   -2.8845    0.9727 H   0  0  0  0  0  0  0  0  0  0  0  0
    0.1092   -4.2610   -0.1004 H   0  0  0  0  0  0  0  0  0  0  0  0
    0.6351   -2.8745   -2.0331 H   0  0  0  0  0  0  0  0  0  0  0  0
    1.8137   -2.6016   -0.7733 H   0  0  0  0  0  0  0  0  0  0  0  0
    0.8629   -0.5664   -2.0766 H   0  0  0  0  0  0  0  0  0  0  0  0
    5.0379    0.7444    1.2590 H   0  0  0  0  0  0  0  0  0  0  0  0
    4.8481    1.3855    3.9136 H   0  0  0  0  0  0  0  0  0  0  0  0
  1  2  1  0
  2  3  2  0
  3  4  1  0
  4  5  2  0
  5  6  1  0
  6  7  2  0
  6  8  1  0
  8  9  1  0
  9 10  1  0
 10 11  1  0
 10 12  1  0
 12 13  1  0
 13 14  1  0
 14 15  1  0
 15 16  1  0
 16 17  2  0
 16 18  1  0
 18 19  2  0
 19 20  1  0
 20 21  2  0
 21 22  1  0
 21 23  1  0
  7  2  1  0
 14  8  1  0
 23 18  1  0
 15  5  1  0
  1 24  1  0
  1 25  1  0
  1 26  1  0
  3 27  1  0
  4 28  1  0
  7 29  1  0
  8 30  1  0
  9 31  1  0
  9 32  1  0
 11 33  1  0
 11 34  1  0
 11 35  1  0
 12 36  1  0
 12 37  1  0
 13 38  1  0
 13 39  1  0
 14 40  1  0
 19 41  1  0
 20 42  1  0
M  END
$$$$
