
     RDKit          3D

 52 55  0  0  0  0  0  0  0  0999 V2000
   -3.5808   -1.9147    0.9205 C   0  0  0  0  0  0  0  0  0  0  0  0
   -3.3365   -0.5145    1.0347 O   0  0  0  0  0  0  0  0  0  0  0  0
   -4.4434    0.2150    1.4267 C   0  0  0  0  0  0  0  0  0  0  0  0
   -5.5945   -0.4653    1.6683 N   0  0  0  0  0  0  0  0  0  0  0  0
   -6.6682    0.2507    2.0646 C   0  0  0  0  0  0  0  0  0  0  0  0
   -6.6530    1.6213    2.2373 C   0  0  0  0  0  0  0  0  0  0  0  0
   -5.4642    2.3004    1.9851 C   0  0  0  0  0  0  0  0  0  0  0  0
   -4.3241    1.5988    1.5663 C   0  0  0  0  0  0  0  0  0  0  0  0
   -3.0827    2.3874    1.3171 C   0  0  0  0  0  0  0  0  0  0  0  0
   -3.0586    3.5872    1.5801 O   0  0  0  0  0  0  0  0  0  0  0  0
   -1.9949    1.7329    0.7926 N   0  0  0  0  0  0  0  0  0  0  0  0
   -0.7109    2.3821    0.6191 C   0  0  0  0  0  0  0  0  0  0  0  0
    0.0664    2.4489    1.9541 C   0  0  0  0  0  0  0  0  0  0  0  0
    0.6404    1.0767    2.3555 C   0  0  0  0  0  0  0  0  0  0  0  0
    1.6240    0.5202    1.3066 C   0  0  0  0  0  0  0  0  0  0  0  0
    1.1064    0.7372   -0.0745 C   0  0  0  0  0  0  0  0  0  0  0  0
    0.0518    1.5813   -0.3796 C   0  0  0  0  0  0  0  0  0  0  0  0
   -0.1197    1.4579   -1.7597 C   0  0  0  0  0  0  0  0  0  0  0  0
    0.7403    0.5990   -2.2997 N   0  0  0  0  0  0  0  0  0  0  0  0
    1.5455    0.1856   -1.2735 N   0  0  0  0  0  0  0  0  0  0  0  0
    2.6413   -0.6877   -1.5687 C   0  0  0  0  0  0  0  0  0  0  0  0
    2.7332   -1.2393   -2.8606 C   0  0  0  0  0  0  0  0  0  0  0  0
    3.7732   -2.1128   -3.2086 C   0  0  0  0  0  0  0  0  0  0  0  0
    3.8648   -2.6723   -4.5976 C   0  0  0  0  0  0  0  0  0  0  0  0
    4.7539   -2.4142   -2.2599 C   0  0  0  0  0  0  0  0  0  0  0  0
    4.7002   -1.8561   -0.9782 C   0  0  0  0  0  0  0  0  0  0  0  0
    5.7491   -2.2083    0.0375 C   0  0  0  0  0  0  0  0  0  0  0  0
    3.6361   -1.0037   -0.6365 C   0  0  0  0  0  0  0  0  0  0  0  0
   -4.3380   -2.1251    0.1569 H   0  0  0  0  0  0  0  0  0  0  0  0
   -3.8603   -2.3482    1.8874 H   0  0  0  0  0  0  0  0  0  0  0  0
   -2.6474   -2.3891    0.6016 H   0  0  0  0  0  0  0  0  0  0  0  0
   -7.5705   -0.3270    2.2461 H   0  0  0  0  0  0  0  0  0  0  0  0
   -7.5415    2.1526    2.5605 H   0  0  0  0  0  0  0  0  0  0  0  0
   -5.4282    3.3806    2.1144 H   0  0  0  0  0  0  0  0  0  0  0  0
   -2.0416    0.7257    0.6729 H   0  0  0  0  0  0  0  0  0  0  0  0
   -0.8795    3.4000    0.2487 H   0  0  0  0  0  0  0  0  0  0  0  0
   -0.5759    2.8262    2.7582 H   0  0  0  0  0  0  0  0  0  0  0  0
    0.8993    3.1572    1.8502 H   0  0  0  0  0  0  0  0  0  0  0  0
    1.1501    1.1554    3.3225 H   0  0  0  0  0  0  0  0  0  0  0  0
   -0.1856    0.3673    2.4919 H   0  0  0  0  0  0  0  0  0  0  0  0
    1.7760   -0.5444    1.5123 H   0  0  0  0  0  0  0  0  0  0  0  0
    2.5805    1.0446    1.4173 H   0  0  0  0  0  0  0  0  0  0  0  0
   -0.8506    1.9409   -2.3963 H   0  0  0  0  0  0  0  0  0  0  0  0
    1.9809   -1.0024   -3.6120 H   0  0  0  0  0  0  0  0  0  0  0  0
    4.5429   -2.0618   -5.2021 H   0  0  0  0  0  0  0  0  0  0  0  0
    4.2346   -3.7030   -4.5777 H   0  0  0  0  0  0  0  0  0  0  0  0
    2.8832   -2.6887   -5.0835 H   0  0  0  0  0  0  0  0  0  0  0  0
    5.5716   -3.0819   -2.5250 H   0  0  0  0  0  0  0  0  0  0  0  0
    6.7299   -2.3158   -0.4377 H   0  0  0  0  0  0  0  0  0  0  0  0
    5.4874   -3.1496    0.5309 H   0  0  0  0  0  0  0  0  0  0  0  0
    5.8418   -1.4262    0.7980 H   0  0  0  0  0  0  0  0  0  0  0  0
    3.6455   -0.5811    0.3583 H   0  0  0  0  0  0  0  0  0  0  0  0
  1  2  1  0
  2  3  1  0
  3  4  2  0
  4  5  1  0
  5  6  2  0
  6  7  1  0
  7  8  2  0
  8  9  1  0
  9 10  2  0
  9 11  1  0
 11 12  1  0
 12 13  1  0
 13 14  1  0
 14 15  1  0
 15 16  1  0
 16 17  2  0
 17 18  1  0
 18 19  2  0
 19 20  1  0
 20 21  1  0
 21 22  2  0
 22 23  1  0
 23 24  1  0
 23 25  2  0
 25 26  1  0
 26 27  1  0
 26 28  2  0
  8  3  1  0
 17 12  1  0
 28 21  1  0
 20 16  1  0
  1 29  1  0
  1 30  1  0
  1 31  1  0
  5 32  1  0
  6 33  1  0
  7 34  1  0
 11 35  1  0
 12 36  1  0
 13 37  1  0
 13 38  1  0
 14 39  1  0
 14 40  1  0
 15 41  1  0
 15 42  1  0
 18 43  1  0
 22 44  1  0
 24 45  1  0
 24 46  1  0
 24 47  1  0
 25 48  1  0
 27 49  1  0
 27 50  1  0
 27 51  1  0
 28 52  1  0
M  END
$$$$
