
     RDKit          3D

 42 45  0  0  0  0  0  0  0  0999 V2000
   -3.6900   -1.6946    1.4384 O   0  0  0  0  0  0  0  0  0  0  0  0
   -3.2785   -0.8183    0.6872 C   0  0  0  0  0  0  0  0  0  0  0  0
   -1.9505   -0.4832    0.5498 N   0  0  0  0  0  0  0  0  0  0  0  0
   -0.8874   -1.2253    1.1901 C   0  0  0  0  0  0  0  0  0  0  0  0
   -0.5587   -2.5155    0.4044 C   0  0  0  0  0  0  0  0  0  0  0  0
    0.2680   -2.2252   -0.8632 C   0  0  0  0  0  0  0  0  0  0  0  0
    1.6227   -1.5694   -0.5286 C   0  0  0  0  0  0  0  0  0  0  0  0
    1.4435   -0.4802    0.4741 C   0  0  0  0  0  0  0  0  0  0  0  0
    0.3026   -0.3291    1.2451 C   0  0  0  0  0  0  0  0  0  0  0  0
    0.5203    0.8366    1.9822 C   0  0  0  0  0  0  0  0  0  0  0  0
    1.6889    1.4035    1.6954 N   0  0  0  0  0  0  0  0  0  0  0  0
    2.2984    0.5669    0.7973 N   0  0  0  0  0  0  0  0  0  0  0  0
    3.6088    0.9083    0.3488 C   0  0  0  0  0  0  0  0  0  0  0  0
    4.0672    2.2247    0.5652 C   0  0  0  0  0  0  0  0  0  0  0  0
    5.3347    2.6294    0.1343 C   0  0  0  0  0  0  0  0  0  0  0  0
    6.1722    1.7244   -0.5080 C   0  0  0  0  0  0  0  0  0  0  0  0
    5.7429    0.4148   -0.7043 C   0  0  0  0  0  0  0  0  0  0  0  0
    4.4754    0.0113   -0.2731 C   0  0  0  0  0  0  0  0  0  0  0  0
    4.1860   -1.2846   -0.4233 F   0  0  0  0  0  0  0  0  0  0  0  0
   -4.2051   -0.0206   -0.1795 C   0  0  0  0  0  0  0  0  0  0  0  0
   -5.5761   -0.2304   -0.1052 C   0  0  0  0  0  0  0  0  0  0  0  0
   -6.3999    0.5301   -0.9292 C   0  0  0  0  0  0  0  0  0  0  0  0
   -5.8296    1.4636   -1.7902 C   0  0  0  0  0  0  0  0  0  0  0  0
   -4.4495    1.6030   -1.7973 C   0  0  0  0  0  0  0  0  0  0  0  0
   -3.6168    0.8836   -1.0149 N   0  0  0  0  0  0  0  0  0  0  0  0
   -1.7334    0.1976   -0.1744 H   0  0  0  0  0  0  0  0  0  0  0  0
   -1.2126   -1.4948    2.2019 H   0  0  0  0  0  0  0  0  0  0  0  0
   -1.4768   -3.0481    0.1303 H   0  0  0  0  0  0  0  0  0  0  0  0
    0.0214   -3.1898    1.0483 H   0  0  0  0  0  0  0  0  0  0  0  0
    0.4441   -3.1576   -1.4120 H   0  0  0  0  0  0  0  0  0  0  0  0
   -0.3054   -1.5681   -1.5295 H   0  0  0  0  0  0  0  0  0  0  0  0
    2.2717   -2.3442   -0.1058 H   0  0  0  0  0  0  0  0  0  0  0  0
    2.0671   -1.1922   -1.4550 H   0  0  0  0  0  0  0  0  0  0  0  0
   -0.1370    1.3164    2.6965 H   0  0  0  0  0  0  0  0  0  0  0  0
    3.4348    2.9611    1.0606 H   0  0  0  0  0  0  0  0  0  0  0  0
    5.6622    3.6524    0.3046 H   0  0  0  0  0  0  0  0  0  0  0  0
    7.1598    2.0330   -0.8407 H   0  0  0  0  0  0  0  0  0  0  0  0
    6.3973   -0.3112   -1.1785 H   0  0  0  0  0  0  0  0  0  0  0  0
   -5.9905   -0.9657    0.5768 H   0  0  0  0  0  0  0  0  0  0  0  0
   -7.4779    0.3960   -0.8994 H   0  0  0  0  0  0  0  0  0  0  0  0
   -6.4485    2.0706   -2.4426 H   0  0  0  0  0  0  0  0  0  0  0  0
   -3.9658    2.3208   -2.4544 H   0  0  0  0  0  0  0  0  0  0  0  0
  1  2  2  0
  2  3  1  0
  3  4  1  0
  4  5  1  0
  5  6  1  0
  6  7  1  0
  7  8  1  0
  8  9  2  0
  9 10  1  0
 10 11  2  0
 11 12  1  0
 12 13  1  0
 13 14  2  0
 14 15  1  0
 15 16  2  0
 16 17  1  0
 17 18  2  0
 18 19  1  0
  2 20  1  0
 20 21  2  0
 21 22  1  0
 22 23  2  0
 23 24  1  0
 24 25  2  0
  9  4  1  0
 18 13  1  0
 25 20  1  0
 12  8  1  0
  3 26  1  0
  4 27  1  0
  5 28  1  0
  5 29  1  0
  6 30  1  0
  6 31  1  0
  7 32  1  0
  7 33  1  0
 10 34  1  0
 14 35  1  0
 15 36  1  0
 16 37  1  0
 17 38  1  0
 21 39  1  0
 22 40  1  0
 23 41  1  0
 24 42  1  0
M  END
$$$$
