
     RDKit          3D

 40 43  0  0  0  0  0  0  0  0999 V2000
    1.5585    1.3225   -2.1798 O   0  0  0  0  0  0  0  0  0  0  0  0
    1.8790   -0.0755   -2.0057 S   0  0  0  0  0  6  0  0  0  0  0  0
    2.0489   -0.9299   -3.1649 O   0  0  0  0  0  0  0  0  0  0  0  0
    3.3436   -0.2260   -1.0559 C   0  0  0  0  0  0  0  0  0  0  0  0
    4.2473   -1.2905   -1.2874 C   0  0  0  0  0  0  0  0  0  0  0  0
    5.4677   -1.4363   -0.5797 C   0  0  0  0  0  0  0  0  0  0  0  0
    5.8887   -0.5299    0.4089 C   0  0  0  0  0  0  0  0  0  0  0  0
    5.0044    0.5398    0.6454 C   0  0  0  0  0  0  0  0  0  0  0  0
    5.1239    1.5472    1.5167 N   0  0  0  0  0  0  0  0  0  0  0  0
    3.9932    2.3245    1.3521 O   0  0  0  0  0  0  0  0  0  0  0  0
    3.1457    1.7995    0.3961 N   0  0  0  0  0  0  0  0  0  0  0  0
    3.7444    0.6987   -0.0781 C   0  0  0  0  0  0  0  0  0  0  0  0
    0.6742   -0.7924   -1.0304 N   0  0  0  0  0  0  0  0  0  0  0  0
    0.4032   -0.0954    0.2742 C   0  0  0  0  0  0  0  0  0  0  0  0
   -0.9379   -0.5172    0.9074 C   0  0  0  0  0  0  0  0  0  0  0  0
   -2.0711   -0.2438    0.0079 N   0  0  0  0  0  0  0  0  0  0  0  0
   -3.2900    0.2012    0.5094 C   0  0  0  0  0  0  0  0  0  0  0  0
   -3.7178   -0.1796    1.7955 C   0  0  0  0  0  0  0  0  0  0  0  0
   -4.9442    0.2393    2.3305 C   0  0  0  0  0  0  0  0  0  0  0  0
   -5.7897    1.0547    1.5878 C   0  0  0  0  0  0  0  0  0  0  0  0
   -5.4073    1.4442    0.3105 C   0  0  0  0  0  0  0  0  0  0  0  0
   -4.1832    1.0199   -0.2136 C   0  0  0  0  0  0  0  0  0  0  0  0
   -3.8727    1.4525   -1.4469 F   0  0  0  0  0  0  0  0  0  0  0  0
   -1.7525   -0.1445   -1.4264 C   0  0  0  0  0  0  0  0  0  0  0  0
   -0.5960   -1.0939   -1.7874 C   0  0  0  0  0  0  0  0  0  0  0  0
    4.0051   -2.0380   -2.0464 H   0  0  0  0  0  0  0  0  0  0  0  0
    6.1094   -2.2861   -0.8178 H   0  0  0  0  0  0  0  0  0  0  0  0
    6.8215   -0.6408    0.9474 H   0  0  0  0  0  0  0  0  0  0  0  0
    1.2052   -0.3480    0.9750 H   0  0  0  0  0  0  0  0  0  0  0  0
    0.3919    0.9901    0.1252 H   0  0  0  0  0  0  0  0  0  0  0  0
   -0.9201   -1.5894    1.1369 H   0  0  0  0  0  0  0  0  0  0  0  0
   -1.0356    0.0300    1.8526 H   0  0  0  0  0  0  0  0  0  0  0  0
   -3.1071   -0.8426    2.4031 H   0  0  0  0  0  0  0  0  0  0  0  0
   -5.2361   -0.0825    3.3272 H   0  0  0  0  0  0  0  0  0  0  0  0
   -6.7408    1.3810    1.9994 H   0  0  0  0  0  0  0  0  0  0  0  0
   -6.0489    2.0811   -0.2902 H   0  0  0  0  0  0  0  0  0  0  0  0
   -1.4822    0.8877   -1.6790 H   0  0  0  0  0  0  0  0  0  0  0  0
   -2.6176   -0.4410   -2.0311 H   0  0  0  0  0  0  0  0  0  0  0  0
   -0.4337   -1.0621   -2.8696 H   0  0  0  0  0  0  0  0  0  0  0  0
   -0.8711   -2.1287   -1.5471 H   0  0  0  0  0  0  0  0  0  0  0  0
  1  2  2  0
  2  3  2  0
  2  4  1  0
  4  5  2  0
  5  6  1  0
  6  7  2  0
  7  8  1  0
  8  9  2  0
  9 10  1  0
 10 11  1  0
 11 12  2  0
  2 13  1  0
 13 14  1  0
 14 15  1  0
 15 16  1  0
 16 17  1  0
 17 18  2  0
 18 19  1  0
 19 20  2  0
 20 21  1  0
 21 22  2  0
 22 23  1  0
 16 24  1  0
 24 25  1  0
 12  4  1  0
 25 13  1  0
 12  8  1  0
 22 17  1  0
  5 26  1  0
  6 27  1  0
  7 28  1  0
 14 29  1  0
 14 30  1  0
 15 31  1  0
 15 32  1  0
 18 33  1  0
 19 34  1  0
 20 35  1  0
 21 36  1  0
 24 37  1  0
 24 38  1  0
 25 39  1  0
 25 40  1  0
M  END
$$$$
