
     RDKit          3D

 53 56  0  0  0  0  0  0  0  0999 V2000
   -7.2688    2.7141    0.2834 C   0  0  0  0  0  0  0  0  0  0  0  0
   -6.0194    1.8856    0.2165 C   0  0  0  0  0  0  0  0  0  0  0  0
   -5.9899    0.6094    0.7870 C   0  0  0  0  0  0  0  0  0  0  0  0
   -4.8341   -0.1752    0.7134 C   0  0  0  0  0  0  0  0  0  0  0  0
   -3.6967    0.2904    0.0434 C   0  0  0  0  0  0  0  0  0  0  0  0
   -2.5563   -0.5402    0.0510 N   0  0  0  0  0  0  0  0  0  0  0  0
   -1.4584   -0.5939   -0.7969 C   0  0  0  0  0  0  0  0  0  0  0  0
   -1.4812   -0.0720   -2.3987 S   0  0  0  0  0  0  0  0  0  0  0  0
   -0.3324   -1.1938   -0.1803 N   0  0  0  0  0  0  0  0  0  0  0  0
   -0.2090   -1.3193    1.2851 C   0  0  0  0  0  0  0  0  0  0  0  0
   -0.4316   -2.7407    1.7230 C   0  0  0  0  0  0  0  0  0  0  0  0
    0.5246   -3.6645    2.1035 C   0  0  0  0  0  0  0  0  0  0  0  0
   -0.0465   -4.9144    2.4768 C   0  0  0  0  0  0  0  0  0  0  0  0
   -1.4211   -4.9101    2.3667 C   0  0  0  0  0  0  0  0  0  0  0  0
   -2.0123   -3.3981    1.8383 S   0  0  0  0  0  0  0  0  0  0  0  0
    0.8432   -1.6547   -0.9538 C   0  0  0  0  0  0  0  0  0  0  0  0
    1.9933   -0.6794   -0.9269 C   0  0  0  0  0  0  0  0  0  0  0  0
    1.9233    0.6399   -0.6813 C   0  0  0  0  0  0  0  0  0  0  0  0
    3.1216    1.4795   -0.6723 C   0  0  0  0  0  0  0  0  0  0  0  0
    3.0281    2.8577   -0.4688 C   0  0  0  0  0  0  0  0  0  0  0  0
    4.1808    3.6419   -0.4635 C   0  0  0  0  0  0  0  0  0  0  0  0
    5.4297    3.0510   -0.6592 C   0  0  0  0  0  0  0  0  0  0  0  0
    5.5446    1.6698   -0.8802 C   0  0  0  0  0  0  0  0  0  0  0  0
    6.9063    1.0691   -1.0907 C   0  0  0  0  0  0  0  0  0  0  0  0
    4.3757    0.8911   -0.8908 C   0  0  0  0  0  0  0  0  0  0  0  0
    4.4260   -0.4887   -1.1416 N   0  0  0  0  0  0  0  0  0  0  0  0
    3.3263   -1.2977   -1.2066 C   0  0  0  0  0  0  0  0  0  0  0  0
    3.4374   -2.4903   -1.4783 O   0  0  0  0  0  0  0  0  0  0  0  0
   -3.7229    1.5682   -0.5163 C   0  0  0  0  0  0  0  0  0  0  0  0
   -4.8790    2.3563   -0.4413 C   0  0  0  0  0  0  0  0  0  0  0  0
   -8.0100    2.3309   -0.4277 H   0  0  0  0  0  0  0  0  0  0  0  0
   -7.6945    2.6863    1.2946 H   0  0  0  0  0  0  0  0  0  0  0  0
   -7.0642    3.7650    0.0430 H   0  0  0  0  0  0  0  0  0  0  0  0
   -6.8686    0.2163    1.2959 H   0  0  0  0  0  0  0  0  0  0  0  0
   -4.8442   -1.1612    1.1704 H   0  0  0  0  0  0  0  0  0  0  0  0
   -2.6467   -1.3731    0.6228 H   0  0  0  0  0  0  0  0  0  0  0  0
   -0.9036   -0.6466    1.8012 H   0  0  0  0  0  0  0  0  0  0  0  0
    0.7945   -0.9907    1.5768 H   0  0  0  0  0  0  0  0  0  0  0  0
    1.5892   -3.4524    2.1118 H   0  0  0  0  0  0  0  0  0  0  0  0
    0.5221   -5.7791    2.8009 H   0  0  0  0  0  0  0  0  0  0  0  0
   -2.1058   -5.7226    2.5792 H   0  0  0  0  0  0  0  0  0  0  0  0
    1.1441   -2.6166   -0.5262 H   0  0  0  0  0  0  0  0  0  0  0  0
    0.5687   -1.8653   -1.9920 H   0  0  0  0  0  0  0  0  0  0  0  0
    0.9749    1.1271   -0.4870 H   0  0  0  0  0  0  0  0  0  0  0  0
    2.0629    3.3345   -0.3292 H   0  0  0  0  0  0  0  0  0  0  0  0
    4.1041    4.7151   -0.3228 H   0  0  0  0  0  0  0  0  0  0  0  0
    6.3149    3.6836   -0.6521 H   0  0  0  0  0  0  0  0  0  0  0  0
    7.1227    0.3415   -0.3038 H   0  0  0  0  0  0  0  0  0  0  0  0
    7.6911    1.8320   -1.0581 H   0  0  0  0  0  0  0  0  0  0  0  0
    6.9613    0.5806   -2.0685 H   0  0  0  0  0  0  0  0  0  0  0  0
    5.3057   -0.9398   -1.3497 H   0  0  0  0  0  0  0  0  0  0  0  0
   -2.8464    1.9976   -0.9938 H   0  0  0  0  0  0  0  0  0  0  0  0
   -4.8734    3.3458   -0.8954 H   0  0  0  0  0  0  0  0  0  0  0  0
  1  2  1  0
  2  3  2  0
  3  4  1  0
  4  5  2  0
  5  6  1  0
  6  7  1  0
  7  8  2  0
  7  9  1  0
  9 10  1  0
 10 11  1  0
 11 12  2  0
 12 13  1  0
 13 14  2  0
 14 15  1  0
  9 16  1  0
 16 17  1  0
 17 18  2  0
 18 19  1  0
 19 20  2  0
 20 21  1  0
 21 22  2  0
 22 23  1  0
 23 24  1  0
 23 25  2  0
 25 26  1  0
 26 27  1  0
 27 28  2  0
  5 29  1  0
 29 30  2  0
 30  2  1  0
 15 11  1  0
 27 17  1  0
 25 19  1  0
  1 31  1  0
  1 32  1  0
  1 33  1  0
  3 34  1  0
  4 35  1  0
  6 36  1  0
 10 37  1  0
 10 38  1  0
 12 39  1  0
 13 40  1  0
 14 41  1  0
 16 42  1  0
 16 43  1  0
 18 44  1  0
 20 45  1  0
 21 46  1  0
 22 47  1  0
 24 48  1  0
 24 49  1  0
 24 50  1  0
 26 51  1  0
 29 52  1  0
 30 53  1  0
M  END
$$$$
