
     RDKit          3D

 42 44  0  0  0  0  0  0  0  0999 V2000
    4.3317   -0.9071    1.2811 C   0  0  0  0  0  0  0  0  0  0  0  0
    3.5022    0.3124    1.6533 C   0  0  0  0  0  0  0  0  0  0  0  0
    2.4669    0.6995    0.5922 C   0  0  0  0  0  0  0  0  0  0  0  0
    1.3290   -0.3176    0.4573 C   0  0  0  0  0  0  0  0  0  0  0  0
    0.3039   -0.0116   -0.6688 C   0  0  0  0  0  0  0  0  0  0  0  0
   -0.6423   -1.1939   -0.7711 C   0  0  0  0  0  0  0  0  0  0  0  0
   -1.8944   -1.1460   -0.2803 C   0  0  0  0  0  0  0  0  0  0  0  0
   -2.8519   -2.3015   -0.2876 C   0  0  0  0  0  0  0  0  0  0  0  0
   -2.1323   -3.6337   -0.4633 C   0  0  0  0  0  0  0  0  0  0  0  0
   -1.1536   -3.5766   -1.6247 C   0  0  0  0  0  0  0  0  0  0  0  0
   -0.1803   -2.4273   -1.4697 C   0  0  0  0  0  0  0  0  0  0  0  0
    0.9460   -2.4818   -1.9592 O   0  0  0  0  0  0  0  0  0  0  0  0
   -2.4042    0.0055    0.3077 O   0  0  0  0  0  0  0  0  0  0  0  0
   -1.7452    1.2088    0.0853 C   0  0  0  0  0  0  0  0  0  0  0  0
   -0.4895    1.2520   -0.3995 C   0  0  0  0  0  0  0  0  0  0  0  0
    0.0747    2.5730   -0.8029 C   0  0  0  0  0  0  0  0  0  0  0  0
    1.1431    2.6363   -1.4084 O   0  0  0  0  0  0  0  0  0  0  0  0
   -0.7333    3.8263   -0.5376 C   0  0  0  0  0  0  0  0  0  0  0  0
   -1.6876    3.6476    0.6306 C   0  0  0  0  0  0  0  0  0  0  0  0
   -2.5640    2.4183    0.4294 C   0  0  0  0  0  0  0  0  0  0  0  0
    4.8081   -0.7756    0.3045 H   0  0  0  0  0  0  0  0  0  0  0  0
    3.7232   -1.8152    1.2506 H   0  0  0  0  0  0  0  0  0  0  0  0
    5.1207   -1.0642    2.0238 H   0  0  0  0  0  0  0  0  0  0  0  0
    4.1826    1.1606    1.7962 H   0  0  0  0  0  0  0  0  0  0  0  0
    3.0062    0.1389    2.6152 H   0  0  0  0  0  0  0  0  0  0  0  0
    2.9666    0.8314   -0.3745 H   0  0  0  0  0  0  0  0  0  0  0  0
    2.0544    1.6708    0.8848 H   0  0  0  0  0  0  0  0  0  0  0  0
    1.7678   -1.3050    0.2737 H   0  0  0  0  0  0  0  0  0  0  0  0
    0.8088   -0.3921    1.4226 H   0  0  0  0  0  0  0  0  0  0  0  0
    0.8252    0.0961   -1.6286 H   0  0  0  0  0  0  0  0  0  0  0  0
   -3.4148   -2.3268    0.6530 H   0  0  0  0  0  0  0  0  0  0  0  0
   -3.5779   -2.1554   -1.0963 H   0  0  0  0  0  0  0  0  0  0  0  0
   -1.5893   -3.8771    0.4596 H   0  0  0  0  0  0  0  0  0  0  0  0
   -2.8626   -4.4344   -0.6250 H   0  0  0  0  0  0  0  0  0  0  0  0
   -0.5846   -4.5119   -1.6629 H   0  0  0  0  0  0  0  0  0  0  0  0
   -1.6810   -3.4527   -2.5768 H   0  0  0  0  0  0  0  0  0  0  0  0
   -1.2828    4.0753   -1.4522 H   0  0  0  0  0  0  0  0  0  0  0  0
   -0.0405    4.6451   -0.3149 H   0  0  0  0  0  0  0  0  0  0  0  0
   -2.3135    4.5395    0.7458 H   0  0  0  0  0  0  0  0  0  0  0  0
   -1.1124    3.5374    1.5594 H   0  0  0  0  0  0  0  0  0  0  0  0
   -3.1312    2.2355    1.3496 H   0  0  0  0  0  0  0  0  0  0  0  0
   -3.2916    2.5971   -0.3713 H   0  0  0  0  0  0  0  0  0  0  0  0
  1  2  1  0
  2  3  1  0
  3  4  1  0
  4  5  1  0
  5  6  1  0
  6  7  2  0
  7  8  1  0
  8  9  1  0
  9 10  1  0
 10 11  1  0
 11 12  2  0
  7 13  1  0
 13 14  1  0
 14 15  2  0
 15 16  1  0
 16 17  2  0
 16 18  1  0
 18 19  1  0
 19 20  1  0
 15  5  1  0
 11  6  1  0
 20 14  1  0
  1 21  1  0
  1 22  1  0
  1 23  1  0
  2 24  1  0
  2 25  1  0
  3 26  1  0
  3 27  1  0
  4 28  1  0
  4 29  1  0
  5 30  1  0
  8 31  1  0
  8 32  1  0
  9 33  1  0
  9 34  1  0
 10 35  1  0
 10 36  1  0
 18 37  1  0
 18 38  1  0
 19 39  1  0
 19 40  1  0
 20 41  1  0
 20 42  1  0
M  END
$$$$
