
     RDKit          3D

 48 50  0  0  0  0  0  0  0  0999 V2000
    3.3235    2.9840   -1.6836 C   0  0  0  0  0  0  0  0  0  0  0  0
    2.7558    1.6702   -1.2641 C   0  0  0  0  0  0  0  0  0  0  0  0
    1.4377    1.4033   -0.9554 C   0  0  0  0  0  0  0  0  0  0  0  0
    1.3410    0.0678   -0.4989 C   0  0  0  0  0  0  0  0  0  0  0  0
    0.1424   -0.6194   -0.0562 C   0  0  0  0  0  0  0  0  0  0  0  0
   -0.9870    0.0097   -0.0840 N   0  0  0  0  0  0  0  0  0  0  0  0
   -2.0746   -0.6925    0.3487 N   0  0  0  0  0  0  0  0  0  0  0  0
   -3.3295   -0.0844    0.3651 C   0  0  0  0  0  0  0  0  0  0  0  0
   -3.5499    1.0630   -0.0031 O   0  0  0  0  0  0  0  0  0  0  0  0
   -4.3947   -1.0478    0.8455 C   0  0  0  0  0  0  0  0  0  0  0  0
   -5.7659   -0.4383    1.1283 C   0  0  0  0  0  0  0  0  0  0  0  0
   -6.4135    0.2615   -0.0649 C   0  0  0  0  0  0  0  0  0  0  0  0
   -6.6463   -1.5389    1.4813 O   0  0  0  0  0  0  0  0  0  0  0  0
   -6.9549   -1.3484    2.8628 C   0  0  0  0  0  0  0  0  0  0  0  0
   -6.8130    0.1338    3.0614 C   0  0  0  0  0  0  0  0  0  0  0  0
   -5.6846    0.4531    2.2523 O   0  0  0  0  0  0  0  0  0  0  0  0
    2.6194   -0.4762   -0.5727 C   0  0  0  0  0  0  0  0  0  0  0  0
    3.0328   -1.8911   -0.3194 C   0  0  0  0  0  0  0  0  0  0  0  0
    3.4954    0.5183   -1.0188 N   0  0  0  0  0  0  0  0  0  0  0  0
    4.9055    0.3814   -1.1836 C   0  0  0  0  0  0  0  0  0  0  0  0
    5.5300    0.8639   -2.3392 C   0  0  0  0  0  0  0  0  0  0  0  0
    6.9120    0.7255   -2.4963 C   0  0  0  0  0  0  0  0  0  0  0  0
    7.6770    0.1092   -1.5020 C   0  0  0  0  0  0  0  0  0  0  0  0
    9.3783   -0.0292   -1.7664 Cl  0  0  0  0  0  0  0  0  0  0  0  0
    7.0547   -0.3705   -0.3443 C   0  0  0  0  0  0  0  0  0  0  0  0
    7.9357   -1.1359    0.9305 Cl  0  0  0  0  0  0  0  0  0  0  0  0
    5.6709   -0.2348   -0.1852 C   0  0  0  0  0  0  0  0  0  0  0  0
    2.6389    3.7975   -1.4184 H   0  0  0  0  0  0  0  0  0  0  0  0
    4.2752    3.1934   -1.1861 H   0  0  0  0  0  0  0  0  0  0  0  0
    3.4645    3.0172   -2.7679 H   0  0  0  0  0  0  0  0  0  0  0  0
    0.6183    2.1112   -1.0236 H   0  0  0  0  0  0  0  0  0  0  0  0
    0.2338   -1.6605    0.2958 H   0  0  0  0  0  0  0  0  0  0  0  0
   -1.9598   -1.6465    0.6706 H   0  0  0  0  0  0  0  0  0  0  0  0
   -4.0248   -1.5228    1.7644 H   0  0  0  0  0  0  0  0  0  0  0  0
   -4.4906   -1.8434    0.0954 H   0  0  0  0  0  0  0  0  0  0  0  0
   -5.9448    1.2219   -0.2928 H   0  0  0  0  0  0  0  0  0  0  0  0
   -6.3919   -0.3751   -0.9557 H   0  0  0  0  0  0  0  0  0  0  0  0
   -7.4686    0.4758    0.1435 H   0  0  0  0  0  0  0  0  0  0  0  0
   -6.2167   -1.9041    3.4509 H   0  0  0  0  0  0  0  0  0  0  0  0
   -7.9551   -1.7243    3.0910 H   0  0  0  0  0  0  0  0  0  0  0  0
   -7.6813    0.6814    2.6796 H   0  0  0  0  0  0  0  0  0  0  0  0
   -6.6367    0.4165    4.1020 H   0  0  0  0  0  0  0  0  0  0  0  0
    3.3450   -2.0189    0.7214 H   0  0  0  0  0  0  0  0  0  0  0  0
    3.8439   -2.2077   -0.9818 H   0  0  0  0  0  0  0  0  0  0  0  0
    2.2016   -2.5793   -0.5047 H   0  0  0  0  0  0  0  0  0  0  0  0
    4.9560    1.3108   -3.1474 H   0  0  0  0  0  0  0  0  0  0  0  0
    7.3856    1.0942   -3.4036 H   0  0  0  0  0  0  0  0  0  0  0  0
    5.2094   -0.5747    0.7384 H   0  0  0  0  0  0  0  0  0  0  0  0
  1  2  1  0
  2  3  2  0
  3  4  1  0
  4  5  1  0
  5  6  2  3
  6  7  1  0
  7  8  1  0
  8  9  2  0
  8 10  1  0
 10 11  1  0
 11 12  1  0
 11 13  1  0
 13 14  1  0
 14 15  1  0
 15 16  1  0
  4 17  2  0
 17 18  1  0
 17 19  1  0
 19 20  1  0
 20 21  2  0
 21 22  1  0
 22 23  2  0
 23 24  1  0
 23 25  1  0
 25 26  1  0
 25 27  2  0
 19  2  1  0
 27 20  1  0
 16 11  1  0
  1 28  1  0
  1 29  1  0
  1 30  1  0
  3 31  1  0
  5 32  1  0
  7 33  1  0
 10 34  1  0
 10 35  1  0
 12 36  1  0
 12 37  1  0
 12 38  1  0
 14 39  1  0
 14 40  1  0
 15 41  1  0
 15 42  1  0
 18 43  1  0
 18 44  1  0
 18 45  1  0
 21 46  1  0
 22 47  1  0
 27 48  1  0
M  END
$$$$
