
     RDKit          3D

 37 39  0  0  0  0  0  0  0  0999 V2000
    3.4142   -2.1166    0.5000 N   0  0  0  0  0  0  0  0  0  0  0  0
    4.4285   -1.2186    0.6339 C   0  0  0  0  0  0  0  0  0  0  0  0
    5.5967   -1.5929    0.6959 O   0  0  0  0  0  0  0  0  0  0  0  0
    4.0451    0.2561    0.6552 C   0  0  0  0  0  0  0  0  0  0  0  0
    2.9309    0.5474    1.6701 C   0  0  0  0  0  0  0  0  0  0  0  0
    1.5784    0.8439    1.0180 C   0  0  0  0  0  0  0  0  0  0  0  0
    1.3875   -0.0077   -0.1619 N   0  0  0  0  0  0  0  0  0  0  0  0
    0.0867   -0.2893   -0.5036 C   0  0  0  0  0  0  0  0  0  0  0  0
   -0.9539    0.0854    0.2096 N   0  0  0  0  0  0  0  0  0  0  0  0
   -2.1518   -0.3197   -0.3663 C   0  0  0  0  0  0  0  0  0  0  0  0
   -3.4286    0.0212    0.2566 C   0  0  0  0  0  0  0  0  0  0  0  0
   -3.4415    0.4363    1.5994 C   0  0  0  0  0  0  0  0  0  0  0  0
   -4.6390    0.7706    2.2407 C   0  0  0  0  0  0  0  0  0  0  0  0
   -5.8466    0.6987    1.5455 C   0  0  0  0  0  0  0  0  0  0  0  0
   -5.8524    0.2996    0.2116 C   0  0  0  0  0  0  0  0  0  0  0  0
   -4.6541   -0.0352   -0.4206 C   0  0  0  0  0  0  0  0  0  0  0  0
   -4.7214   -0.4023   -1.7092 F   0  0  0  0  0  0  0  0  0  0  0  0
   -2.0002   -1.0616   -1.5177 C   0  0  0  0  0  0  0  0  0  0  0  0
   -0.3414   -1.2428   -1.8870 S   0  0  0  0  0  0  0  0  0  0  0  0
    2.3500    0.2073   -1.2570 C   0  0  0  0  0  0  0  0  0  0  0  0
    3.6863    0.7497   -0.7480 C   0  0  0  0  0  0  0  0  0  0  0  0
    2.4432   -1.8151    0.4393 H   0  0  0  0  0  0  0  0  0  0  0  0
    3.6361   -3.1039    0.4885 H   0  0  0  0  0  0  0  0  0  0  0  0
    4.9454    0.7887    0.9879 H   0  0  0  0  0  0  0  0  0  0  0  0
    3.2112    1.4148    2.2810 H   0  0  0  0  0  0  0  0  0  0  0  0
    2.8229   -0.2861    2.3757 H   0  0  0  0  0  0  0  0  0  0  0  0
    1.5216    1.9011    0.7241 H   0  0  0  0  0  0  0  0  0  0  0  0
    0.8046    0.6830    1.7800 H   0  0  0  0  0  0  0  0  0  0  0  0
   -2.5110    0.4959    2.1597 H   0  0  0  0  0  0  0  0  0  0  0  0
   -4.6248    1.0853    3.2815 H   0  0  0  0  0  0  0  0  0  0  0  0
   -6.7785    0.9570    2.0427 H   0  0  0  0  0  0  0  0  0  0  0  0
   -6.7838    0.2400   -0.3445 H   0  0  0  0  0  0  0  0  0  0  0  0
   -2.7529   -1.5078   -2.1525 H   0  0  0  0  0  0  0  0  0  0  0  0
    1.9473    0.9134   -1.9963 H   0  0  0  0  0  0  0  0  0  0  0  0
    2.5352   -0.7400   -1.7779 H   0  0  0  0  0  0  0  0  0  0  0  0
    3.6340    1.8469   -0.7219 H   0  0  0  0  0  0  0  0  0  0  0  0
    4.4759    0.4971   -1.4665 H   0  0  0  0  0  0  0  0  0  0  0  0
  1  2  1  0
  2  3  2  0
  2  4  1  0
  4  5  1  0
  5  6  1  0
  6  7  1  0
  7  8  1  0
  8  9  2  0
  9 10  1  0
 10 11  1  0
 11 12  2  0
 12 13  1  0
 13 14  2  0
 14 15  1  0
 15 16  2  0
 16 17  1  0
 10 18  2  0
 18 19  1  0
  7 20  1  0
 20 21  1  0
 21  4  1  0
 19  8  1  0
 16 11  1  0
  1 22  1  0
  1 23  1  0
  4 24  1  0
  5 25  1  0
  5 26  1  0
  6 27  1  0
  6 28  1  0
 12 29  1  0
 13 30  1  0
 14 31  1  0
 15 32  1  0
 18 33  1  0
 20 34  1  0
 20 35  1  0
 21 36  1  0
 21 37  1  0
M  END
$$$$
