
     RDKit          3D

 51 53  0  0  0  0  0  0  0  0999 V2000
   -5.5957    2.7724    0.5310 C   0  0  0  0  0  0  0  0  0  0  0  0
   -4.5759    2.4283   -0.3940 O   0  0  0  0  0  0  0  0  0  0  0  0
   -3.6276    1.5245    0.0156 C   0  0  0  0  0  0  0  0  0  0  0  0
   -3.4914    1.0608    1.3276 C   0  0  0  0  0  0  0  0  0  0  0  0
   -2.4941    0.1300    1.6622 C   0  0  0  0  0  0  0  0  0  0  0  0
   -1.5914   -0.3223    0.6827 C   0  0  0  0  0  0  0  0  0  0  0  0
   -1.7480    0.1365   -0.6396 C   0  0  0  0  0  0  0  0  0  0  0  0
   -2.7421    1.0641   -0.9758 C   0  0  0  0  0  0  0  0  0  0  0  0
   -2.9397    1.5607   -2.2415 O   0  0  0  0  0  0  0  0  0  0  0  0
   -1.9488    1.2747   -3.2194 C   0  0  0  0  0  0  0  0  0  0  0  0
   -0.5155   -1.3566    1.0288 C   0  0  0  0  0  0  0  0  0  0  0  0
    0.8328   -1.0736    0.3724 C   0  0  0  0  0  0  0  0  0  0  0  0
    1.3832   -1.9876   -0.5399 C   0  0  0  0  0  0  0  0  0  0  0  0
    2.6110   -1.7222   -1.1461 C   0  0  0  0  0  0  0  0  0  0  0  0
    3.0822   -2.6543   -2.0376 O   0  0  0  0  0  0  0  0  0  0  0  0
    4.2117   -3.3411   -1.4915 C   0  0  0  0  0  0  0  0  0  0  0  0
    3.2781   -0.5174   -0.8905 C   0  0  0  0  0  0  0  0  0  0  0  0
    4.4705   -0.2327   -1.5143 O   0  0  0  0  0  0  0  0  0  0  0  0
    4.2173    0.3068   -2.8119 C   0  0  0  0  0  0  0  0  0  0  0  0
    2.7663    0.3895    0.0502 C   0  0  0  0  0  0  0  0  0  0  0  0
    3.4970    1.5306    0.2632 O   0  0  0  0  0  0  0  0  0  0  0  0
    3.2576    2.2102    1.4887 C   0  0  0  0  0  0  0  0  0  0  0  0
    1.5437    0.1079    0.6687 C   0  0  0  0  0  0  0  0  0  0  0  0
   -0.2951   -1.5153    2.4801 N   0  0  0  0  0  0  0  0  0  0  0  0
   -1.5638   -1.6441    3.1908 C   0  0  0  0  0  0  0  0  0  0  0  0
   -2.3678   -0.3463    3.0885 C   0  0  0  0  0  0  0  0  0  0  0  0
   -6.1318    1.8846    0.8891 H   0  0  0  0  0  0  0  0  0  0  0  0
   -6.3169    3.4073    0.0096 H   0  0  0  0  0  0  0  0  0  0  0  0
   -5.1867    3.3508    1.3673 H   0  0  0  0  0  0  0  0  0  0  0  0
   -4.1489    1.4116    2.1166 H   0  0  0  0  0  0  0  0  0  0  0  0
   -1.0766   -0.2465   -1.4024 H   0  0  0  0  0  0  0  0  0  0  0  0
   -0.9562    1.6044   -2.8917 H   0  0  0  0  0  0  0  0  0  0  0  0
   -2.2024    1.8345   -4.1248 H   0  0  0  0  0  0  0  0  0  0  0  0
   -1.9501    0.2086   -3.4777 H   0  0  0  0  0  0  0  0  0  0  0  0
   -0.8940   -2.3174    0.6489 H   0  0  0  0  0  0  0  0  0  0  0  0
    0.8623   -2.9100   -0.7847 H   0  0  0  0  0  0  0  0  0  0  0  0
    5.0736   -2.6753   -1.3584 H   0  0  0  0  0  0  0  0  0  0  0  0
    4.5063   -4.1223   -2.2018 H   0  0  0  0  0  0  0  0  0  0  0  0
    3.9594   -3.8242   -0.5390 H   0  0  0  0  0  0  0  0  0  0  0  0
    3.8798   -0.4781   -3.4988 H   0  0  0  0  0  0  0  0  0  0  0  0
    3.4922    1.1309   -2.7781 H   0  0  0  0  0  0  0  0  0  0  0  0
    5.1621    0.7059   -3.1980 H   0  0  0  0  0  0  0  0  0  0  0  0
    4.0675    2.9317    1.6336 H   0  0  0  0  0  0  0  0  0  0  0  0
    2.3179    2.7697    1.4474 H   0  0  0  0  0  0  0  0  0  0  0  0
    3.2694    1.5256    2.3450 H   0  0  0  0  0  0  0  0  0  0  0  0
    1.1021    0.8032    1.3789 H   0  0  0  0  0  0  0  0  0  0  0  0
    0.2683   -2.3526    2.6231 H   0  0  0  0  0  0  0  0  0  0  0  0
   -1.3664   -1.8602    4.2475 H   0  0  0  0  0  0  0  0  0  0  0  0
   -2.1402   -2.4916    2.7943 H   0  0  0  0  0  0  0  0  0  0  0  0
   -1.8820    0.4433    3.6753 H   0  0  0  0  0  0  0  0  0  0  0  0
   -3.3634   -0.5172    3.5128 H   0  0  0  0  0  0  0  0  0  0  0  0
  1  2  1  0
  2  3  1  0
  3  4  2  0
  4  5  1  0
  5  6  2  0
  6  7  1  0
  7  8  2  0
  8  9  1  0
  9 10  1  0
  6 11  1  0
 11 12  1  0
 12 13  2  0
 13 14  1  0
 14 15  1  0
 15 16  1  0
 14 17  2  0
 17 18  1  0
 18 19  1  0
 17 20  1  0
 20 21  1  0
 21 22  1  0
 20 23  2  0
 11 24  1  0
 24 25  1  0
 25 26  1  0
  8  3  1  0
 23 12  1  0
 26  5  1  0
  1 27  1  0
  1 28  1  0
  1 29  1  0
  4 30  1  0
  7 31  1  0
 10 32  1  0
 10 33  1  0
 10 34  1  0
 11 35  1  0
 13 36  1  0
 16 37  1  0
 16 38  1  0
 16 39  1  0
 19 40  1  0
 19 41  1  0
 19 42  1  0
 22 43  1  0
 22 44  1  0
 22 45  1  0
 23 46  1  0
 24 47  1  0
 25 48  1  0
 25 49  1  0
 26 50  1  0
 26 51  1  0
M  END
$$$$
