
     RDKit          3D

 47 50  0  0  0  0  0  0  0  0999 V2000
   -7.2221   -0.4369   -0.2787 C   0  0  0  0  0  0  0  0  0  0  0  0
   -5.7344   -0.3552   -0.6149 C   0  0  0  0  0  0  0  0  0  0  0  0
   -5.3659    1.0472   -1.1411 C   0  0  0  0  0  0  0  0  0  0  0  0
   -3.8983    1.1089   -1.5929 C   0  0  0  0  0  0  0  0  0  0  0  0
   -2.9640    0.4961   -0.5861 C   0  0  0  0  0  0  0  0  0  0  0  0
   -3.4456   -0.3417    0.4038 C   0  0  0  0  0  0  0  0  0  0  0  0
   -2.2304   -0.8783    1.4551 S   0  0  0  0  0  0  0  0  0  0  0  0
   -1.0318   -0.0178    0.6229 C   0  0  0  0  0  0  0  0  0  0  0  0
    0.2910   -0.0460    1.0315 N   0  0  0  0  0  0  0  0  0  0  0  0
    0.8482   -0.6921    2.1182 C   0  0  0  0  0  0  0  0  0  0  0  0
    0.2542   -1.3586    2.9583 O   0  0  0  0  0  0  0  0  0  0  0  0
    2.2890   -0.5001    2.1810 C   0  0  0  0  0  0  0  0  0  0  0  0
    3.2260   -0.9068    3.1110 C   0  0  0  0  0  0  0  0  0  0  0  0
    4.4854   -0.4529    2.6496 C   0  0  0  0  0  0  0  0  0  0  0  0
    4.2533    0.1931    1.4510 C   0  0  0  0  0  0  0  0  0  0  0  0
    5.1274    0.8770    0.4640 C   0  0  0  0  0  0  0  0  0  0  0  0
    5.9255   -0.0875   -0.2840 N   0  0  0  0  0  0  0  0  0  0  0  0
    7.1355   -0.6109    0.0920 C   0  0  0  0  0  0  0  0  0  0  0  0
    7.5091   -1.4344   -0.9348 C   0  0  0  0  0  0  0  0  0  0  0  0
    9.0464   -2.4802   -1.0749 Br  0  0  0  0  0  0  0  0  0  0  0  0
    6.4948   -1.3387   -1.8946 C   0  0  0  0  0  0  0  0  0  0  0  0
    5.5271   -0.4989   -1.5113 N   0  0  0  0  0  0  0  0  0  0  0  0
    2.9176    0.1877    1.1760 O   0  0  0  0  0  0  0  0  0  0  0  0
   -1.5272    0.6645   -0.4854 C   0  0  0  0  0  0  0  0  0  0  0  0
   -0.6376    1.4422   -1.3508 C   0  0  0  0  0  0  0  0  0  0  0  0
   -1.0383    1.6246   -2.6423 N   0  0  0  0  0  0  0  0  0  0  0  0
    0.4541    1.8687   -0.9836 O   0  0  0  0  0  0  0  0  0  0  0  0
   -4.8801   -0.7217    0.6169 C   0  0  0  0  0  0  0  0  0  0  0  0
   -7.8325   -0.2123   -1.1600 H   0  0  0  0  0  0  0  0  0  0  0  0
   -7.4874   -1.4421    0.0660 H   0  0  0  0  0  0  0  0  0  0  0  0
   -7.4924    0.2747    0.5092 H   0  0  0  0  0  0  0  0  0  0  0  0
   -5.5270   -1.0831   -1.4124 H   0  0  0  0  0  0  0  0  0  0  0  0
   -5.5395    1.7935   -0.3535 H   0  0  0  0  0  0  0  0  0  0  0  0
   -6.0097    1.3193   -1.9863 H   0  0  0  0  0  0  0  0  0  0  0  0
   -3.8013    0.5555   -2.5347 H   0  0  0  0  0  0  0  0  0  0  0  0
   -3.6284    2.1526   -1.7857 H   0  0  0  0  0  0  0  0  0  0  0  0
    0.9376    0.5093    0.4688 H   0  0  0  0  0  0  0  0  0  0  0  0
    3.0105   -1.4683    4.0104 H   0  0  0  0  0  0  0  0  0  0  0  0
    5.4457   -0.5955    3.1265 H   0  0  0  0  0  0  0  0  0  0  0  0
    5.8238    1.5584    0.9662 H   0  0  0  0  0  0  0  0  0  0  0  0
    4.5455    1.4602   -0.2592 H   0  0  0  0  0  0  0  0  0  0  0  0
    7.6018   -0.3619    1.0356 H   0  0  0  0  0  0  0  0  0  0  0  0
    6.4133   -1.8322   -2.8539 H   0  0  0  0  0  0  0  0  0  0  0  0
   -1.7105    0.9962   -3.0567 H   0  0  0  0  0  0  0  0  0  0  0  0
   -0.3358    2.0144   -3.2568 H   0  0  0  0  0  0  0  0  0  0  0  0
   -5.2527   -0.1922    1.5035 H   0  0  0  0  0  0  0  0  0  0  0  0
   -4.9701   -1.7977    0.8151 H   0  0  0  0  0  0  0  0  0  0  0  0
  1  2  1  0
  2  3  1  0
  3  4  1  0
  4  5  1  0
  5  6  2  0
  6  7  1  0
  7  8  1  0
  8  9  1  0
  9 10  1  0
 10 11  2  0
 10 12  1  0
 12 13  2  0
 13 14  1  0
 14 15  2  0
 15 16  1  0
 16 17  1  0
 17 18  1  0
 18 19  2  0
 19 20  1  0
 19 21  1  0
 21 22  2  0
 15 23  1  0
  8 24  2  0
 24 25  1  0
 25 26  1  0
 25 27  2  0
  6 28  1  0
 28  2  1  0
 24  5  1  0
 23 12  1  0
 22 17  1  0
  1 29  1  0
  1 30  1  0
  1 31  1  0
  2 32  1  0
  3 33  1  0
  3 34  1  0
  4 35  1  0
  4 36  1  0
  9 37  1  0
 13 38  1  0
 14 39  1  0
 16 40  1  0
 16 41  1  0
 18 42  1  0
 21 43  1  0
 26 44  1  0
 26 45  1  0
 28 46  1  0
 28 47  1  0
M  END
$$$$
