
     RDKit          3D

 51 53  0  0  0  0  0  0  0  0999 V2000
   -0.2086    5.9676   -0.9618 C   0  0  0  0  0  0  0  0  0  0  0  0
   -1.2301    4.8488   -1.1090 C   0  0  0  0  0  0  0  0  0  0  0  0
   -0.9282    3.9921   -2.3358 C   0  0  0  0  0  0  0  0  0  0  0  0
   -2.1138    2.6097   -2.4939 S   0  0  0  0  0  0  0  0  0  0  0  0
   -1.2920    1.3367   -1.5436 C   0  0  0  0  0  0  0  0  0  0  0  0
   -1.6622    0.0245   -1.7471 C   0  0  0  0  0  0  0  0  0  0  0  0
   -1.0128   -0.9466   -1.0114 C   0  0  0  0  0  0  0  0  0  0  0  0
   -1.2957   -2.2939   -1.1812 N   0  0  0  0  0  0  0  0  0  0  0  0
   -0.4627   -3.2623   -0.4528 C   0  0  0  0  0  0  0  0  0  0  0  0
   -0.6771   -4.6734   -1.0455 C   0  0  0  0  0  0  0  0  0  0  0  0
   -2.0696   -5.1702   -0.9573 N   0  0  0  0  0  0  0  0  0  0  0  0
   -2.3775   -6.0412   -2.0892 C   0  0  0  0  0  0  0  0  0  0  0  0
   -3.0361   -4.0610   -0.8372 C   0  0  0  0  0  0  0  0  0  0  0  0
   -2.6498   -2.7389   -1.5451 C   0  0  0  0  0  0  0  0  0  0  0  0
   -0.0491   -0.5992   -0.1429 N   0  0  0  0  0  0  0  0  0  0  0  0
    0.2454    0.7062    0.0082 C   0  0  0  0  0  0  0  0  0  0  0  0
    1.3081    1.0655    0.9699 C   0  0  0  0  0  0  0  0  0  0  0  0
    2.0330    0.0820    1.6697 C   0  0  0  0  0  0  0  0  0  0  0  0
    3.0506    0.4164    2.5769 C   0  0  0  0  0  0  0  0  0  0  0  0
    3.3698    1.7513    2.8107 C   0  0  0  0  0  0  0  0  0  0  0  0
    4.3335    2.2143    3.6630 O   0  0  0  0  0  0  0  0  0  0  0  0
    5.1242    1.2371    4.3276 C   0  0  0  0  0  0  0  0  0  0  0  0
    2.6601    2.7424    2.1346 C   0  0  0  0  0  0  0  0  0  0  0  0
    1.6470    2.4058    1.2280 C   0  0  0  0  0  0  0  0  0  0  0  0
   -0.3507    1.7006   -0.6652 N   0  0  0  0  0  0  0  0  0  0  0  0
    0.8007    5.5598   -0.8299 H   0  0  0  0  0  0  0  0  0  0  0  0
   -0.2046    6.6141   -1.8448 H   0  0  0  0  0  0  0  0  0  0  0  0
   -0.4404    6.5855   -0.0890 H   0  0  0  0  0  0  0  0  0  0  0  0
   -1.2259    4.2464   -0.1943 H   0  0  0  0  0  0  0  0  0  0  0  0
   -2.2290    5.2922   -1.1991 H   0  0  0  0  0  0  0  0  0  0  0  0
   -1.0308    4.6067   -3.2387 H   0  0  0  0  0  0  0  0  0  0  0  0
    0.1013    3.6219   -2.3296 H   0  0  0  0  0  0  0  0  0  0  0  0
   -2.4131   -0.2278   -2.4831 H   0  0  0  0  0  0  0  0  0  0  0  0
   -0.7100   -3.2558    0.6165 H   0  0  0  0  0  0  0  0  0  0  0  0
    0.6016   -3.0162   -0.5579 H   0  0  0  0  0  0  0  0  0  0  0  0
   -0.0229   -5.3854   -0.5297 H   0  0  0  0  0  0  0  0  0  0  0  0
   -0.3500   -4.6385   -2.0942 H   0  0  0  0  0  0  0  0  0  0  0  0
   -1.6657   -6.8729   -2.1399 H   0  0  0  0  0  0  0  0  0  0  0  0
   -3.3723   -6.4867   -1.9708 H   0  0  0  0  0  0  0  0  0  0  0  0
   -2.3529   -5.5046   -3.0445 H   0  0  0  0  0  0  0  0  0  0  0  0
   -4.0362   -4.3741   -1.1642 H   0  0  0  0  0  0  0  0  0  0  0  0
   -3.1402   -3.8473    0.2359 H   0  0  0  0  0  0  0  0  0  0  0  0
   -3.4042   -1.9918   -1.2692 H   0  0  0  0  0  0  0  0  0  0  0  0
   -2.6946   -2.8764   -2.6324 H   0  0  0  0  0  0  0  0  0  0  0  0
    1.8076   -0.9722    1.5095 H   0  0  0  0  0  0  0  0  0  0  0  0
    3.5676   -0.3932    3.0804 H   0  0  0  0  0  0  0  0  0  0  0  0
    4.5118    0.6133    4.9861 H   0  0  0  0  0  0  0  0  0  0  0  0
    5.8509    1.7645    4.9515 H   0  0  0  0  0  0  0  0  0  0  0  0
    5.6819    0.6260    3.6108 H   0  0  0  0  0  0  0  0  0  0  0  0
    2.8953    3.7883    2.3114 H   0  0  0  0  0  0  0  0  0  0  0  0
    1.1183    3.2099    0.7199 H   0  0  0  0  0  0  0  0  0  0  0  0
  1  2  1  0
  2  3  1  0
  3  4  1  0
  4  5  1  0
  5  6  2  0
  6  7  1  0
  7  8  1  0
  8  9  1  0
  9 10  1  0
 10 11  1  0
 11 12  1  0
 11 13  1  0
 13 14  1  0
  7 15  2  0
 15 16  1  0
 16 17  1  0
 17 18  2  0
 18 19  1  0
 19 20  2  0
 20 21  1  0
 21 22  1  0
 20 23  1  0
 23 24  2  0
 16 25  2  0
 25  5  1  0
 14  8  1  0
 24 17  1  0
  1 26  1  0
  1 27  1  0
  1 28  1  0
  2 29  1  0
  2 30  1  0
  3 31  1  0
  3 32  1  0
  6 33  1  0
  9 34  1  0
  9 35  1  0
 10 36  1  0
 10 37  1  0
 12 38  1  0
 12 39  1  0
 12 40  1  0
 13 41  1  0
 13 42  1  0
 14 43  1  0
 14 44  1  0
 18 45  1  0
 19 46  1  0
 22 47  1  0
 22 48  1  0
 22 49  1  0
 23 50  1  0
 24 51  1  0
M  END
$$$$
