
     RDKit          3D

 62 64  0  0  0  0  0  0  0  0999 V2000
    4.8777    0.9952    4.0543 C   0  0  0  0  0  0  0  0  0  0  0  0
    3.5674    1.3309    3.6219 O   0  0  0  0  0  0  0  0  0  0  0  0
    3.4124    1.6318    2.2967 C   0  0  0  0  0  0  0  0  0  0  0  0
    2.1608    2.1444    1.9556 C   0  0  0  0  0  0  0  0  0  0  0  0
    1.8644    2.4811    0.6341 C   0  0  0  0  0  0  0  0  0  0  0  0
    2.8226    2.3123   -0.3703 C   0  0  0  0  0  0  0  0  0  0  0  0
    2.4972    2.6646   -1.8033 C   0  0  0  0  0  0  0  0  0  0  0  0
    2.2422    1.4404   -2.6727 C   0  0  0  0  0  0  0  0  0  0  0  0
    0.9104    0.8007   -2.3420 C   0  0  0  0  0  0  0  0  0  0  0  0
   -0.1423    1.3109   -2.7166 O   0  0  0  0  0  0  0  0  0  0  0  0
    1.0357   -0.3545   -1.6024 N   0  0  0  0  0  0  0  0  0  0  0  0
    0.0244   -1.2316   -1.1702 C   0  0  0  0  0  0  0  0  0  0  0  0
   -1.2916   -1.1733   -1.6201 C   0  0  0  0  0  0  0  0  0  0  0  0
   -2.2364   -2.0592   -1.0982 C   0  0  0  0  0  0  0  0  0  0  0  0
   -3.9241   -1.9746   -1.6574 S   0  0  0  0  0  6  0  0  0  0  0  0
   -4.6146   -3.1245   -1.1085 O   0  0  0  0  0  0  0  0  0  0  0  0
   -3.8994   -1.7419   -3.0859 O   0  0  0  0  0  0  0  0  0  0  0  0
   -4.5289   -0.5928   -0.8780 N   0  0  0  0  0  0  0  0  0  0  0  0
   -4.6776   -0.6617    0.5925 C   0  0  0  0  0  0  0  0  0  0  0  0
   -5.3361    0.6106    1.1119 C   0  0  0  0  0  0  0  0  0  0  0  0
   -4.5147    1.8575    0.7878 C   0  0  0  0  0  0  0  0  0  0  0  0
   -3.5839    1.6566   -0.4045 C   0  0  0  0  0  0  0  0  0  0  0  0
   -4.2005    0.7353   -1.4482 C   0  0  0  0  0  0  0  0  0  0  0  0
   -1.8656   -3.0364   -0.1701 C   0  0  0  0  0  0  0  0  0  0  0  0
   -0.5395   -3.1190    0.2550 C   0  0  0  0  0  0  0  0  0  0  0  0
    0.4203   -2.2225   -0.2382 C   0  0  0  0  0  0  0  0  0  0  0  0
    1.7871   -2.2520    0.1811 N   0  0  0  0  0  0  0  0  0  0  0  0
    2.4178   -3.5504   -0.0798 C   0  0  0  0  0  0  0  0  0  0  0  0
    1.9099   -1.7999    1.5744 C   0  0  0  0  0  0  0  0  0  0  0  0
    4.0772    1.7940   -0.0262 C   0  0  0  0  0  0  0  0  0  0  0  0
    4.3704    1.4526    1.2981 C   0  0  0  0  0  0  0  0  0  0  0  0
    4.8554    0.8916    5.1424 H   0  0  0  0  0  0  0  0  0  0  0  0
    5.5938    1.7864    3.8115 H   0  0  0  0  0  0  0  0  0  0  0  0
    5.1895    0.0325    3.6344 H   0  0  0  0  0  0  0  0  0  0  0  0
    1.4092    2.2845    2.7278 H   0  0  0  0  0  0  0  0  0  0  0  0
    0.8787    2.8761    0.3970 H   0  0  0  0  0  0  0  0  0  0  0  0
    1.6344    3.3415   -1.8325 H   0  0  0  0  0  0  0  0  0  0  0  0
    3.3399    3.2327   -2.2201 H   0  0  0  0  0  0  0  0  0  0  0  0
    3.0561    0.7075   -2.5881 H   0  0  0  0  0  0  0  0  0  0  0  0
    2.2009    1.7349   -3.7309 H   0  0  0  0  0  0  0  0  0  0  0  0
    1.9487   -0.5996   -1.2187 H   0  0  0  0  0  0  0  0  0  0  0  0
   -1.5858   -0.4603   -2.3847 H   0  0  0  0  0  0  0  0  0  0  0  0
   -5.3119   -1.5176    0.8574 H   0  0  0  0  0  0  0  0  0  0  0  0
   -3.7001   -0.7999    1.0708 H   0  0  0  0  0  0  0  0  0  0  0  0
   -6.3336    0.7099    0.6641 H   0  0  0  0  0  0  0  0  0  0  0  0
   -5.4861    0.5452    2.1977 H   0  0  0  0  0  0  0  0  0  0  0  0
   -3.9187    2.1529    1.6599 H   0  0  0  0  0  0  0  0  0  0  0  0
   -5.2000    2.6909    0.5915 H   0  0  0  0  0  0  0  0  0  0  0  0
   -3.3385    2.6272   -0.8490 H   0  0  0  0  0  0  0  0  0  0  0  0
   -2.6375    1.2277   -0.0523 H   0  0  0  0  0  0  0  0  0  0  0  0
   -3.5183    0.6556   -2.2992 H   0  0  0  0  0  0  0  0  0  0  0  0
   -5.1281    1.1723   -1.8411 H   0  0  0  0  0  0  0  0  0  0  0  0
   -2.5986   -3.7401    0.2201 H   0  0  0  0  0  0  0  0  0  0  0  0
   -0.2670   -3.8825    0.9785 H   0  0  0  0  0  0  0  0  0  0  0  0
    2.0293   -4.3439    0.5709 H   0  0  0  0  0  0  0  0  0  0  0  0
    2.2864   -3.8482   -1.1261 H   0  0  0  0  0  0  0  0  0  0  0  0
    3.4964   -3.4764    0.0981 H   0  0  0  0  0  0  0  0  0  0  0  0
    2.9699   -1.7025    1.8389 H   0  0  0  0  0  0  0  0  0  0  0  0
    1.4503   -2.5067    2.2791 H   0  0  0  0  0  0  0  0  0  0  0  0
    1.4468   -0.8144    1.7103 H   0  0  0  0  0  0  0  0  0  0  0  0
    4.8417    1.6506   -0.7891 H   0  0  0  0  0  0  0  0  0  0  0  0
    5.3540    1.0473    1.5143 H   0  0  0  0  0  0  0  0  0  0  0  0
  1  2  1  0
  2  3  1  0
  3  4  2  0
  4  5  1  0
  5  6  2  0
  6  7  1  0
  7  8  1  0
  8  9  1  0
  9 10  2  0
  9 11  1  0
 11 12  1  0
 12 13  2  0
 13 14  1  0
 14 15  1  0
 15 16  2  0
 15 17  2  0
 15 18  1  0
 18 19  1  0
 19 20  1  0
 20 21  1  0
 21 22  1  0
 22 23  1  0
 14 24  2  0
 24 25  1  0
 25 26  2  0
 26 27  1  0
 27 28  1  0
 27 29  1  0
  6 30  1  0
 30 31  2  0
 31  3  1  0
 26 12  1  0
 23 18  1  0
  1 32  1  0
  1 33  1  0
  1 34  1  0
  4 35  1  0
  5 36  1  0
  7 37  1  0
  7 38  1  0
  8 39  1  0
  8 40  1  0
 11 41  1  0
 13 42  1  0
 19 43  1  0
 19 44  1  0
 20 45  1  0
 20 46  1  0
 21 47  1  0
 21 48  1  0
 22 49  1  0
 22 50  1  0
 23 51  1  0
 23 52  1  0
 24 53  1  0
 25 54  1  0
 28 55  1  0
 28 56  1  0
 28 57  1  0
 29 58  1  0
 29 59  1  0
 29 60  1  0
 30 61  1  0
 31 62  1  0
M  END
$$$$
