
     RDKit          3D

 53 55  0  0  0  0  0  0  0  0999 V2000
    7.4833   -3.2456    2.3926 C   0  0  0  0  0  0  0  0  0  0  0  0
    6.7958   -2.0123    2.2264 O   0  0  0  0  0  0  0  0  0  0  0  0
    5.7508   -1.9981    1.3438 C   0  0  0  0  0  0  0  0  0  0  0  0
    5.2909   -3.0824    0.6005 C   0  0  0  0  0  0  0  0  0  0  0  0
    4.2057   -2.9274   -0.2695 C   0  0  0  0  0  0  0  0  0  0  0  0
    3.5630   -1.6874   -0.4089 C   0  0  0  0  0  0  0  0  0  0  0  0
    2.4702   -1.5185   -1.2770 C   0  0  0  0  0  0  0  0  0  0  0  0
    1.8299   -0.2754   -1.4085 C   0  0  0  0  0  0  0  0  0  0  0  0
    0.6417   -0.1271   -2.3477 C   0  0  0  0  0  0  0  0  0  0  0  0
    1.0480    0.6497   -3.6020 C   0  0  0  0  0  0  0  0  0  0  0  0
   -0.5900    0.5000   -1.6682 C   0  0  0  0  0  0  0  0  0  0  0  0
   -1.2055    1.4320   -2.1788 O   0  0  0  0  0  0  0  0  0  0  0  0
   -0.9473   -0.1488   -0.4933 N   0  0  0  0  0  0  0  0  0  0  0  0
   -2.0009    0.1795    0.3827 C   0  0  0  0  0  0  0  0  0  0  0  0
   -2.2467   -0.7018    1.4454 C   0  0  0  0  0  0  0  0  0  0  0  0
   -3.2815   -0.4606    2.3538 C   0  0  0  0  0  0  0  0  0  0  0  0
   -4.0848    0.6667    2.2090 C   0  0  0  0  0  0  0  0  0  0  0  0
   -3.8413    1.5481    1.1526 C   0  0  0  0  0  0  0  0  0  0  0  0
   -4.8331    3.0188    0.9822 S   0  0  0  0  0  6  0  0  0  0  0  0
   -3.9572    4.0863    0.5501 O   0  0  0  0  0  0  0  0  0  0  0  0
   -5.6194    3.1491    2.1924 O   0  0  0  0  0  0  0  0  0  0  0  0
   -5.8979    2.6318   -0.2884 N   0  0  0  0  0  0  0  0  0  0  0  0
   -6.8915    1.5794   -0.0185 C   0  0  0  0  0  0  0  0  0  0  0  0
   -5.3300    2.5625   -1.6464 C   0  0  0  0  0  0  0  0  0  0  0  0
   -2.7905    1.3219    0.2552 C   0  0  0  0  0  0  0  0  0  0  0  0
    2.3097    0.8123   -0.6678 C   0  0  0  0  0  0  0  0  0  0  0  0
    3.3931    0.6564    0.1993 C   0  0  0  0  0  0  0  0  0  0  0  0
    4.0277   -0.5865    0.3406 C   0  0  0  0  0  0  0  0  0  0  0  0
    5.1179   -0.7588    1.2095 C   0  0  0  0  0  0  0  0  0  0  0  0
    7.9449   -3.5697    1.4542 H   0  0  0  0  0  0  0  0  0  0  0  0
    6.8182   -4.0172    2.7939 H   0  0  0  0  0  0  0  0  0  0  0  0
    8.2848   -3.0860    3.1202 H   0  0  0  0  0  0  0  0  0  0  0  0
    5.7519   -4.0618    0.6709 H   0  0  0  0  0  0  0  0  0  0  0  0
    3.8674   -3.7892   -0.8406 H   0  0  0  0  0  0  0  0  0  0  0  0
    2.1198   -2.3679   -1.8611 H   0  0  0  0  0  0  0  0  0  0  0  0
    0.3163   -1.1257   -2.6726 H   0  0  0  0  0  0  0  0  0  0  0  0
    0.2203    0.6925   -4.3185 H   0  0  0  0  0  0  0  0  0  0  0  0
    1.3299    1.6821   -3.3652 H   0  0  0  0  0  0  0  0  0  0  0  0
    1.9000    0.1753   -4.1017 H   0  0  0  0  0  0  0  0  0  0  0  0
   -0.3814   -0.9474   -0.2291 H   0  0  0  0  0  0  0  0  0  0  0  0
   -1.6352   -1.5911    1.5821 H   0  0  0  0  0  0  0  0  0  0  0  0
   -3.4550   -1.1503    3.1771 H   0  0  0  0  0  0  0  0  0  0  0  0
   -4.8829    0.8574    2.9232 H   0  0  0  0  0  0  0  0  0  0  0  0
   -7.3994    1.7523    0.9341 H   0  0  0  0  0  0  0  0  0  0  0  0
   -6.4239    0.5905   -0.0093 H   0  0  0  0  0  0  0  0  0  0  0  0
   -7.6632    1.5890   -0.7959 H   0  0  0  0  0  0  0  0  0  0  0  0
   -6.1352    2.6646   -2.3822 H   0  0  0  0  0  0  0  0  0  0  0  0
   -4.8288    1.6058   -1.8175 H   0  0  0  0  0  0  0  0  0  0  0  0
   -4.6299    3.3821   -1.8300 H   0  0  0  0  0  0  0  0  0  0  0  0
   -2.6019    2.0573   -0.5206 H   0  0  0  0  0  0  0  0  0  0  0  0
    1.8441    1.7931   -0.7547 H   0  0  0  0  0  0  0  0  0  0  0  0
    3.7413    1.5185    0.7650 H   0  0  0  0  0  0  0  0  0  0  0  0
    5.4878    0.0816    1.7937 H   0  0  0  0  0  0  0  0  0  0  0  0
  1  2  1  0
  2  3  1  0
  3  4  2  0
  4  5  1  0
  5  6  2  0
  6  7  1  0
  7  8  2  0
  8  9  1  0
  9 10  1  0
  9 11  1  0
 11 12  2  0
 11 13  1  0
 13 14  1  0
 14 15  2  0
 15 16  1  0
 16 17  2  0
 17 18  1  0
 18 19  1  0
 19 20  2  0
 19 21  2  0
 19 22  1  0
 22 23  1  0
 22 24  1  0
 18 25  2  0
  8 26  1  0
 26 27  2  0
 27 28  1  0
 28 29  2  0
 29  3  1  0
 28  6  1  0
 25 14  1  0
  1 30  1  0
  1 31  1  0
  1 32  1  0
  4 33  1  0
  5 34  1  0
  7 35  1  0
  9 36  1  0
 10 37  1  0
 10 38  1  0
 10 39  1  0
 13 40  1  0
 15 41  1  0
 16 42  1  0
 17 43  1  0
 23 44  1  0
 23 45  1  0
 23 46  1  0
 24 47  1  0
 24 48  1  0
 24 49  1  0
 25 50  1  0
 26 51  1  0
 27 52  1  0
 29 53  1  0
M  END
$$$$
