
     RDKit          3D

 55 58  0  0  0  0  0  0  0  0999 V2000
   -4.4499   -1.2899   -2.3158 C   0  0  0  0  0  0  0  0  0  0  0  0
   -5.9681   -1.3414   -2.2567 C   0  0  0  0  0  0  0  0  0  0  0  0
   -6.6239   -0.0716   -1.7051 C   0  0  0  0  0  0  0  0  0  0  0  0
   -6.4699    0.1308   -0.1962 C   0  0  0  0  0  0  0  0  0  0  0  0
   -5.1491    0.5661    0.2036 N   0  0  0  0  0  0  0  0  0  0  0  0
   -4.7317    1.8689    0.0218 C   0  0  0  0  0  0  0  0  0  0  0  0
   -5.4432    2.7506   -0.4455 O   0  0  0  0  0  0  0  0  0  0  0  0
   -3.3203    2.1640    0.3908 C   0  0  0  0  0  0  0  0  0  0  0  0
   -2.6607    1.4756    1.4141 C   0  0  0  0  0  0  0  0  0  0  0  0
   -1.3326    1.7859    1.7246 C   0  0  0  0  0  0  0  0  0  0  0  0
   -0.6437    2.7868    1.0218 C   0  0  0  0  0  0  0  0  0  0  0  0
    0.7977    3.1246    1.3590 C   0  0  0  0  0  0  0  0  0  0  0  0
    1.7408    2.0632    0.9835 N   0  0  0  0  0  0  0  0  0  0  0  0
    2.2919    1.9907   -0.3134 C   0  0  0  0  0  0  0  0  0  0  0  0
    2.0301    3.0571   -1.5855 S   0  0  0  0  0  0  0  0  0  0  0  0
    3.1485    0.9437   -0.5822 N   0  0  0  0  0  0  0  0  0  0  0  0
    3.4827    0.0129    0.3631 C   0  0  0  0  0  0  0  0  0  0  0  0
    2.9567    0.1193    1.6146 C   0  0  0  0  0  0  0  0  0  0  0  0
    3.4464   -0.9127    2.3653 N   0  0  0  0  0  0  0  0  0  0  0  0
    4.2877   -1.6891    1.5929 C   0  0  0  0  0  0  0  0  0  0  0  0
    5.0115   -2.8391    1.9223 C   0  0  0  0  0  0  0  0  0  0  0  0
    5.7973   -3.4251    0.9199 C   0  0  0  0  0  0  0  0  0  0  0  0
    5.8579   -2.8820   -0.3638 C   0  0  0  0  0  0  0  0  0  0  0  0
    6.5919   -3.3757   -1.4096 O   0  0  0  0  0  0  0  0  0  0  0  0
    7.3629   -4.5445   -1.1622 C   0  0  0  0  0  0  0  0  0  0  0  0
    5.1240   -1.7282   -0.6722 C   0  0  0  0  0  0  0  0  0  0  0  0
    4.3265   -1.1195    0.3154 C   0  0  0  0  0  0  0  0  0  0  0  0
    2.0572    1.1534    2.0145 C   0  0  0  0  0  0  0  0  0  0  0  0
    1.6211    1.2158    3.1609 O   0  0  0  0  0  0  0  0  0  0  0  0
   -1.3243    3.4888    0.0159 C   0  0  0  0  0  0  0  0  0  0  0  0
   -2.6516    3.1818   -0.2961 C   0  0  0  0  0  0  0  0  0  0  0  0
   -4.0048   -1.3477   -1.3199 H   0  0  0  0  0  0  0  0  0  0  0  0
   -4.0702   -2.1427   -2.8884 H   0  0  0  0  0  0  0  0  0  0  0  0
   -4.1021   -0.3742   -2.8039 H   0  0  0  0  0  0  0  0  0  0  0  0
   -6.2847   -2.2142   -1.6741 H   0  0  0  0  0  0  0  0  0  0  0  0
   -6.3394   -1.4954   -3.2774 H   0  0  0  0  0  0  0  0  0  0  0  0
   -6.2584    0.8037   -2.2547 H   0  0  0  0  0  0  0  0  0  0  0  0
   -7.6985   -0.1454   -1.9162 H   0  0  0  0  0  0  0  0  0  0  0  0
   -7.1861    0.8911    0.1363 H   0  0  0  0  0  0  0  0  0  0  0  0
   -6.6907   -0.7945    0.3460 H   0  0  0  0  0  0  0  0  0  0  0  0
   -4.4680   -0.1419    0.4374 H   0  0  0  0  0  0  0  0  0  0  0  0
   -3.1718    0.7184    2.0015 H   0  0  0  0  0  0  0  0  0  0  0  0
   -0.8471    1.2480    2.5367 H   0  0  0  0  0  0  0  0  0  0  0  0
    1.0892    4.0653    0.8790 H   0  0  0  0  0  0  0  0  0  0  0  0
    0.8581    3.3276    2.4356 H   0  0  0  0  0  0  0  0  0  0  0  0
    3.5495    0.8717   -1.5103 H   0  0  0  0  0  0  0  0  0  0  0  0
    3.2228   -1.0753    3.3388 H   0  0  0  0  0  0  0  0  0  0  0  0
    4.9725   -3.2698    2.9180 H   0  0  0  0  0  0  0  0  0  0  0  0
    6.3565   -4.3177    1.1832 H   0  0  0  0  0  0  0  0  0  0  0  0
    7.8845   -4.8031   -2.0888 H   0  0  0  0  0  0  0  0  0  0  0  0
    6.7219   -5.3908   -0.8939 H   0  0  0  0  0  0  0  0  0  0  0  0
    8.1211   -4.3620   -0.3935 H   0  0  0  0  0  0  0  0  0  0  0  0
    5.1752   -1.3100   -1.6730 H   0  0  0  0  0  0  0  0  0  0  0  0
   -0.8303    4.2853   -0.5378 H   0  0  0  0  0  0  0  0  0  0  0  0
   -3.1626    3.7375   -1.0804 H   0  0  0  0  0  0  0  0  0  0  0  0
  1  2  1  0
  2  3  1  0
  3  4  1  0
  4  5  1  0
  5  6  1  0
  6  7  2  0
  6  8  1  0
  8  9  2  0
  9 10  1  0
 10 11  2  0
 11 12  1  0
 12 13  1  0
 13 14  1  0
 14 15  2  0
 14 16  1  0
 16 17  1  0
 17 18  2  0
 18 19  1  0
 19 20  1  0
 20 21  2  0
 21 22  1  0
 22 23  2  0
 23 24  1  0
 24 25  1  0
 23 26  1  0
 26 27  2  0
 18 28  1  0
 28 29  2  0
 11 30  1  0
 30 31  2  0
 31  8  1  0
 28 13  1  0
 27 17  1  0
 27 20  1  0
  1 32  1  0
  1 33  1  0
  1 34  1  0
  2 35  1  0
  2 36  1  0
  3 37  1  0
  3 38  1  0
  4 39  1  0
  4 40  1  0
  5 41  1  0
  9 42  1  0
 10 43  1  0
 12 44  1  0
 12 45  1  0
 16 46  1  0
 19 47  1  0
 21 48  1  0
 22 49  1  0
 25 50  1  0
 25 51  1  0
 25 52  1  0
 26 53  1  0
 30 54  1  0
 31 55  1  0
M  END
$$$$
