
     RDKit          3D

 67 69  0  0  0  0  0  0  0  0999 V2000
   -0.2870    2.7162   -2.1678 C   0  0  0  0  0  0  0  0  0  0  0  0
   -1.4232    2.5492   -1.1415 C   0  0  0  0  0  0  0  0  0  0  0  0
   -2.7556    2.5104   -1.9065 C   0  0  0  0  0  0  0  0  0  0  0  0
   -1.3968    3.7493   -0.1824 C   0  0  0  0  0  0  0  0  0  0  0  0
   -1.1890    1.2981   -0.4095 N   0  0  0  0  0  0  0  0  0  0  0  0
   -2.0228    0.7690    0.5679 C   0  0  0  0  0  0  0  0  0  0  0  0
   -3.0880    1.2941    0.8819 O   0  0  0  0  0  0  0  0  0  0  0  0
   -1.4107   -0.4554    1.3120 C   0  0  0  0  0  0  0  0  0  0  0  0
   -2.3426   -1.3886    2.0887 C   0  0  0  0  0  0  0  0  0  0  0  0
   -1.7758   -2.2132    3.0845 C   0  0  0  0  0  0  0  0  0  0  0  0
   -2.5627   -3.0948    3.8281 C   0  0  0  0  0  0  0  0  0  0  0  0
   -3.9276   -3.1564    3.5888 C   0  0  0  0  0  0  0  0  0  0  0  0
   -4.6865   -4.0002    4.3005 F   0  0  0  0  0  0  0  0  0  0  0  0
   -4.5175   -2.3498    2.6255 C   0  0  0  0  0  0  0  0  0  0  0  0
   -3.7292   -1.4673    1.8808 C   0  0  0  0  0  0  0  0  0  0  0  0
   -0.4185   -1.1959    0.4683 N   0  0  0  0  0  0  0  0  0  0  0  0
    0.9196   -1.0973    0.8569 C   0  0  0  0  0  0  0  0  0  0  0  0
    1.2601   -0.4575    1.8548 O   0  0  0  0  0  0  0  0  0  0  0  0
    1.9789   -1.8189    0.0337 C   0  0  0  0  0  0  0  0  0  0  0  0
    3.3625   -1.2231    0.2954 C   0  0  0  0  0  0  0  0  0  0  0  0
    3.4533    0.1978   -0.2482 C   0  0  0  0  0  0  0  0  0  0  0  0
    2.5807    0.6700   -0.9726 O   0  0  0  0  0  0  0  0  0  0  0  0
    4.6157    0.8201    0.1402 N   0  0  0  0  0  0  0  0  0  0  0  0
    5.0622    2.1029   -0.1742 C   0  0  0  0  0  0  0  0  0  0  0  0
    4.3727    2.9961   -0.9823 C   0  0  0  0  0  0  0  0  0  0  0  0
    4.9319    4.2501   -1.2269 C   0  0  0  0  0  0  0  0  0  0  0  0
    6.1578    4.5728   -0.6626 C   0  0  0  0  0  0  0  0  0  0  0  0
    6.7747    3.6232    0.1318 C   0  0  0  0  0  0  0  0  0  0  0  0
    6.2565    2.4002    0.3829 N   0  0  0  0  0  0  0  0  0  0  0  0
   -0.8680   -2.0593   -0.6437 C   0  0  0  0  0  0  0  0  0  0  0  0
   -2.1868   -1.7372   -1.3585 C   0  0  0  0  0  0  0  0  0  0  0  0
   -2.5915   -3.0704   -1.9704 C   0  0  0  0  0  0  0  0  0  0  0  0
   -2.2595   -4.0639   -0.8697 C   0  0  0  0  0  0  0  0  0  0  0  0
   -0.9582   -3.5491   -0.2610 C   0  0  0  0  0  0  0  0  0  0  0  0
    0.6889    2.7725   -1.6715 H   0  0  0  0  0  0  0  0  0  0  0  0
   -0.4130    3.6289   -2.7604 H   0  0  0  0  0  0  0  0  0  0  0  0
   -0.2520    1.8658   -2.8588 H   0  0  0  0  0  0  0  0  0  0  0  0
   -2.8832    3.4090   -2.5225 H   0  0  0  0  0  0  0  0  0  0  0  0
   -3.6172    2.4575   -1.2333 H   0  0  0  0  0  0  0  0  0  0  0  0
   -2.8039    1.6381   -2.5698 H   0  0  0  0  0  0  0  0  0  0  0  0
   -0.4584    3.7781    0.3835 H   0  0  0  0  0  0  0  0  0  0  0  0
   -2.2142    3.7073    0.5447 H   0  0  0  0  0  0  0  0  0  0  0  0
   -1.4904    4.6953   -0.7273 H   0  0  0  0  0  0  0  0  0  0  0  0
   -0.2397    0.9350   -0.4138 H   0  0  0  0  0  0  0  0  0  0  0  0
   -0.8630    0.0659    2.1105 H   0  0  0  0  0  0  0  0  0  0  0  0
   -0.7061   -2.1661    3.2853 H   0  0  0  0  0  0  0  0  0  0  0  0
   -2.1195   -3.7257    4.5918 H   0  0  0  0  0  0  0  0  0  0  0  0
   -5.5893   -2.4025    2.4629 H   0  0  0  0  0  0  0  0  0  0  0  0
   -4.2267   -0.8375    1.1466 H   0  0  0  0  0  0  0  0  0  0  0  0
    1.7775   -1.7461   -1.0363 H   0  0  0  0  0  0  0  0  0  0  0  0
    1.9704   -2.8743    0.3248 H   0  0  0  0  0  0  0  0  0  0  0  0
    4.1194   -1.8263   -0.2192 H   0  0  0  0  0  0  0  0  0  0  0  0
    3.5979   -1.2226    1.3656 H   0  0  0  0  0  0  0  0  0  0  0  0
    5.2579    0.3392    0.7563 H   0  0  0  0  0  0  0  0  0  0  0  0
    3.4175    2.7516   -1.4306 H   0  0  0  0  0  0  0  0  0  0  0  0
    4.4109    4.9654   -1.8576 H   0  0  0  0  0  0  0  0  0  0  0  0
    6.6187    5.5386   -0.8340 H   0  0  0  0  0  0  0  0  0  0  0  0
    7.7325    3.8259    0.6037 H   0  0  0  0  0  0  0  0  0  0  0  0
   -0.1113   -1.9856   -1.4303 H   0  0  0  0  0  0  0  0  0  0  0  0
   -2.0591   -0.9633   -2.1221 H   0  0  0  0  0  0  0  0  0  0  0  0
   -2.9770   -1.4063   -0.6878 H   0  0  0  0  0  0  0  0  0  0  0  0
   -1.9931   -3.2776   -2.8653 H   0  0  0  0  0  0  0  0  0  0  0  0
   -3.6486   -3.0970   -2.2496 H   0  0  0  0  0  0  0  0  0  0  0  0
   -3.0508   -4.0584   -0.1108 H   0  0  0  0  0  0  0  0  0  0  0  0
   -2.1639   -5.0863   -1.2470 H   0  0  0  0  0  0  0  0  0  0  0  0
   -0.9347   -3.7295    0.8169 H   0  0  0  0  0  0  0  0  0  0  0  0
   -0.1056   -4.0902   -0.6894 H   0  0  0  0  0  0  0  0  0  0  0  0
  1  2  1  0
  2  3  1  0
  2  4  1  0
  2  5  1  0
  5  6  1  0
  6  7  2  0
  6  8  1  0
  8  9  1  0
  9 10  2  0
 10 11  1  0
 11 12  2  0
 12 13  1  0
 12 14  1  0
 14 15  2  0
  8 16  1  0
 16 17  1  0
 17 18  2  0
 17 19  1  0
 19 20  1  0
 20 21  1  0
 21 22  2  0
 21 23  1  0
 23 24  1  0
 24 25  2  0
 25 26  1  0
 26 27  2  0
 27 28  1  0
 28 29  2  0
 16 30  1  0
 30 31  1  0
 31 32  1  0
 32 33  1  0
 33 34  1  0
 15  9  1  0
 29 24  1  0
 34 30  1  0
  1 35  1  0
  1 36  1  0
  1 37  1  0
  3 38  1  0
  3 39  1  0
  3 40  1  0
  4 41  1  0
  4 42  1  0
  4 43  1  0
  5 44  1  0
  8 45  1  0
 10 46  1  0
 11 47  1  0
 14 48  1  0
 15 49  1  0
 19 50  1  0
 19 51  1  0
 20 52  1  0
 20 53  1  0
 23 54  1  0
 25 55  1  0
 26 56  1  0
 27 57  1  0
 28 58  1  0
 30 59  1  0
 31 60  1  0
 31 61  1  0
 32 62  1  0
 32 63  1  0
 33 64  1  0
 33 65  1  0
 34 66  1  0
 34 67  1  0
M  END
$$$$
