
     RDKit          3D

 54 56  0  0  0  0  0  0  0  0999 V2000
   -3.1660   -0.6725    3.4194 C   0  0  0  0  0  0  0  0  0  0  0  0
   -3.5746   -1.1802    2.0495 C   0  0  0  0  0  0  0  0  0  0  0  0
   -2.5396   -0.8999    1.0976 O   0  0  0  0  0  0  0  0  0  0  0  0
   -2.5875    0.3190    0.4838 C   0  0  0  0  0  0  0  0  0  0  0  0
   -3.4936    1.1235    0.6666 O   0  0  0  0  0  0  0  0  0  0  0  0
   -1.4590    0.5345   -0.4290 C   0  0  0  0  0  0  0  0  0  0  0  0
   -1.5253    1.4308   -1.4914 C   0  0  0  0  0  0  0  0  0  0  0  0
   -2.5218    2.2577   -1.9086 N   0  0  0  0  0  0  0  0  0  0  0  0
   -3.5277    1.6725   -2.4707 C   0  0  0  0  0  0  0  0  0  0  0  0
   -4.6576    2.2924   -2.9622 N   0  0  0  0  0  0  0  0  0  0  0  0
   -5.8363    1.5006   -3.2772 C   0  0  0  0  0  0  0  0  0  0  0  0
   -4.9068    3.6822   -2.5982 C   0  0  0  0  0  0  0  0  0  0  0  0
   -0.0483    1.4915   -2.3596 S   0  0  0  0  0  0  0  0  0  0  0  0
    0.7060    0.3375   -1.3558 C   0  0  0  0  0  0  0  0  0  0  0  0
    2.0858    0.0180   -1.6559 C   0  0  0  0  0  0  0  0  0  0  0  0
    2.7651   -0.8427   -0.9611 N   0  0  0  0  0  0  0  0  0  0  0  0
    4.0566   -0.9830   -1.3867 N   0  0  0  0  0  0  0  0  0  0  0  0
    5.0713   -0.5077   -0.5051 C   0  0  0  0  0  0  0  0  0  0  0  0
    4.8177    0.4395    0.4968 C   0  0  0  0  0  0  0  0  0  0  0  0
    5.8537    0.9370    1.2925 C   0  0  0  0  0  0  0  0  0  0  0  0
    7.1621    0.5086    1.0825 C   0  0  0  0  0  0  0  0  0  0  0  0
    7.4363   -0.4095    0.0716 C   0  0  0  0  0  0  0  0  0  0  0  0
    6.3990   -0.9026   -0.7253 C   0  0  0  0  0  0  0  0  0  0  0  0
   -0.1541   -0.1083   -0.3637 C   0  0  0  0  0  0  0  0  0  0  0  0
    0.2880   -1.0554    0.6536 C   0  0  0  0  0  0  0  0  0  0  0  0
    0.2273   -2.4326    0.4072 C   0  0  0  0  0  0  0  0  0  0  0  0
    0.6396   -3.3357    1.3890 C   0  0  0  0  0  0  0  0  0  0  0  0
    1.1086   -2.8610    2.6131 C   0  0  0  0  0  0  0  0  0  0  0  0
    1.6126   -3.9758    3.8225 Cl  0  0  0  0  0  0  0  0  0  0  0  0
    1.1690   -1.4916    2.8670 C   0  0  0  0  0  0  0  0  0  0  0  0
    0.7561   -0.5861    1.8874 C   0  0  0  0  0  0  0  0  0  0  0  0
   -2.2064   -1.1057    3.7187 H   0  0  0  0  0  0  0  0  0  0  0  0
   -3.9186   -0.9299    4.1699 H   0  0  0  0  0  0  0  0  0  0  0  0
   -3.0371    0.4139    3.4116 H   0  0  0  0  0  0  0  0  0  0  0  0
   -4.5368   -0.7590    1.7356 H   0  0  0  0  0  0  0  0  0  0  0  0
   -3.6957   -2.2682    2.0804 H   0  0  0  0  0  0  0  0  0  0  0  0
   -3.5598    0.5745   -2.6126 H   0  0  0  0  0  0  0  0  0  0  0  0
   -5.5630    0.5987   -3.8348 H   0  0  0  0  0  0  0  0  0  0  0  0
   -6.3510    1.1992   -2.3588 H   0  0  0  0  0  0  0  0  0  0  0  0
   -6.5363    2.0670   -3.8997 H   0  0  0  0  0  0  0  0  0  0  0  0
   -5.2197    3.7525   -1.5514 H   0  0  0  0  0  0  0  0  0  0  0  0
   -4.0095    4.2941   -2.7400 H   0  0  0  0  0  0  0  0  0  0  0  0
   -5.6932    4.1172   -3.2244 H   0  0  0  0  0  0  0  0  0  0  0  0
    2.5648    0.5431   -2.5046 H   0  0  0  0  0  0  0  0  0  0  0  0
    4.2898   -1.9521   -1.6181 H   0  0  0  0  0  0  0  0  0  0  0  0
    3.8061    0.7906    0.6743 H   0  0  0  0  0  0  0  0  0  0  0  0
    5.6359    1.6592    2.0741 H   0  0  0  0  0  0  0  0  0  0  0  0
    7.9675    0.8955    1.7008 H   0  0  0  0  0  0  0  0  0  0  0  0
    8.4567   -0.7366   -0.1019 H   0  0  0  0  0  0  0  0  0  0  0  0
    6.6381   -1.6033   -1.5204 H   0  0  0  0  0  0  0  0  0  0  0  0
   -0.1337   -2.8065   -0.5473 H   0  0  0  0  0  0  0  0  0  0  0  0
    0.5961   -4.4026    1.1917 H   0  0  0  0  0  0  0  0  0  0  0  0
    1.5387   -1.1235    3.8196 H   0  0  0  0  0  0  0  0  0  0  0  0
    0.8106    0.4810    2.0879 H   0  0  0  0  0  0  0  0  0  0  0  0
  1  2  1  0
  2  3  1  0
  3  4  1  0
  4  5  2  0
  4  6  1  0
  6  7  2  0
  7  8  1  0
  8  9  2  3
  9 10  1  0
 10 11  1  0
 10 12  1  0
  7 13  1  0
 13 14  1  0
 14 15  1  0
 15 16  2  3
 16 17  1  0
 17 18  1  0
 18 19  2  0
 19 20  1  0
 20 21  2  0
 21 22  1  0
 22 23  2  0
 14 24  2  0
 24 25  1  0
 25 26  2  0
 26 27  1  0
 27 28  2  0
 28 29  1  0
 28 30  1  0
 30 31  2  0
 24  6  1  0
 31 25  1  0
 23 18  1  0
  1 32  1  0
  1 33  1  0
  1 34  1  0
  2 35  1  0
  2 36  1  0
  9 37  1  0
 11 38  1  0
 11 39  1  0
 11 40  1  0
 12 41  1  0
 12 42  1  0
 12 43  1  0
 15 44  1  0
 17 45  1  0
 19 46  1  0
 20 47  1  0
 21 48  1  0
 22 49  1  0
 23 50  1  0
 26 51  1  0
 27 52  1  0
 30 53  1  0
 31 54  1  0
M  END
$$$$
