
     RDKit          3D

 52 55  0  0  0  0  0  0  0  0999 V2000
   -5.8569    0.8625   -0.9231 C   0  0  0  0  0  0  0  0  0  0  0  0
   -4.8189    1.0448    0.1424 C   0  0  0  0  0  0  0  0  0  0  0  0
   -4.0644   -0.0406    0.6069 C   0  0  0  0  0  0  0  0  0  0  0  0
   -3.1200    0.1536    1.6227 C   0  0  0  0  0  0  0  0  0  0  0  0
   -2.1569   -1.2172    2.2123 S   0  0  0  0  0  6  0  0  0  0  0  0
   -2.0462   -1.0851    3.6472 O   0  0  0  0  0  0  0  0  0  0  0  0
   -2.6326   -2.4302    1.5864 O   0  0  0  0  0  0  0  0  0  0  0  0
   -0.6464   -0.8594    1.5808 N   0  0  0  0  0  0  0  0  0  0  0  0
   -0.3440   -1.2781    0.1955 C   0  0  0  0  0  0  0  0  0  0  0  0
    0.8074   -0.4162   -0.4232 C   0  0  0  0  0  0  0  0  0  0  0  0
    2.0437   -0.5288    0.4803 C   0  0  0  0  0  0  0  0  0  0  0  0
    2.7825   -1.7362    0.5554 C   0  0  0  0  0  0  0  0  0  0  0  0
    3.8993   -1.8492    1.3890 C   0  0  0  0  0  0  0  0  0  0  0  0
    4.2563   -0.7472    2.1337 C   0  0  0  0  0  0  0  0  0  0  0  0
    3.5502    0.4301    2.0687 C   0  0  0  0  0  0  0  0  0  0  0  0
    2.4452    0.5738    1.2564 C   0  0  0  0  0  0  0  0  0  0  0  0
    4.0661    1.3906    2.8815 O   0  0  0  0  0  0  0  0  0  0  0  0
    5.1808    0.6827    3.4639 C   0  0  0  0  0  0  0  0  0  0  0  0
    5.3066   -0.6755    2.9942 O   0  0  0  0  0  0  0  0  0  0  0  0
    1.1524   -0.7625   -1.8336 N   0  0  0  0  0  0  0  0  0  0  0  0
   -0.0313   -0.8080   -2.7227 C   0  0  0  0  0  0  0  0  0  0  0  0
    0.3518   -1.0628   -4.1910 C   0  0  0  0  0  0  0  0  0  0  0  0
    1.2583   -0.0664   -4.6716 O   0  0  0  0  0  0  0  0  0  0  0  0
    2.4442   -0.0667   -3.8697 C   0  0  0  0  0  0  0  0  0  0  0  0
    2.1125    0.2250   -2.3983 C   0  0  0  0  0  0  0  0  0  0  0  0
   -2.9355    1.4134    2.2026 C   0  0  0  0  0  0  0  0  0  0  0  0
   -3.6955    2.4906    1.7503 C   0  0  0  0  0  0  0  0  0  0  0  0
   -4.6272    2.2992    0.7319 C   0  0  0  0  0  0  0  0  0  0  0  0
   -5.3529    3.3472    0.3173 F   0  0  0  0  0  0  0  0  0  0  0  0
   -6.8485    0.7731   -0.4689 H   0  0  0  0  0  0  0  0  0  0  0  0
   -5.6615   -0.0382   -1.5145 H   0  0  0  0  0  0  0  0  0  0  0  0
   -5.8550    1.7112   -1.6149 H   0  0  0  0  0  0  0  0  0  0  0  0
   -4.2144   -1.0311    0.1809 H   0  0  0  0  0  0  0  0  0  0  0  0
    0.0998   -0.9507    2.2728 H   0  0  0  0  0  0  0  0  0  0  0  0
   -0.0732   -2.3401    0.1992 H   0  0  0  0  0  0  0  0  0  0  0  0
   -1.2509   -1.1530   -0.4039 H   0  0  0  0  0  0  0  0  0  0  0  0
    0.4597    0.6273   -0.4023 H   0  0  0  0  0  0  0  0  0  0  0  0
    2.4874   -2.5906   -0.0522 H   0  0  0  0  0  0  0  0  0  0  0  0
    4.4676   -2.7708    1.4460 H   0  0  0  0  0  0  0  0  0  0  0  0
    1.9086    1.5165    1.2292 H   0  0  0  0  0  0  0  0  0  0  0  0
    5.0554    0.6670    4.5527 H   0  0  0  0  0  0  0  0  0  0  0  0
    6.1034    1.2236    3.2239 H   0  0  0  0  0  0  0  0  0  0  0  0
   -0.7029   -1.6189   -2.4239 H   0  0  0  0  0  0  0  0  0  0  0  0
   -0.5803    0.1402   -2.6571 H   0  0  0  0  0  0  0  0  0  0  0  0
   -0.5449   -1.0246   -4.8178 H   0  0  0  0  0  0  0  0  0  0  0  0
    0.8018   -2.0552   -4.3166 H   0  0  0  0  0  0  0  0  0  0  0  0
    3.1075    0.7115   -4.2607 H   0  0  0  0  0  0  0  0  0  0  0  0
    2.9594   -1.0287   -3.9792 H   0  0  0  0  0  0  0  0  0  0  0  0
    1.6856    1.2343   -2.3285 H   0  0  0  0  0  0  0  0  0  0  0  0
    3.0546    0.2163   -1.8403 H   0  0  0  0  0  0  0  0  0  0  0  0
   -2.2123    1.5551    3.0028 H   0  0  0  0  0  0  0  0  0  0  0  0
   -3.5755    3.4773    2.1874 H   0  0  0  0  0  0  0  0  0  0  0  0
  1  2  1  0
  2  3  2  0
  3  4  1  0
  4  5  1  0
  5  6  2  0
  5  7  2  0
  5  8  1  0
  8  9  1  0
  9 10  1  0
 10 11  1  0
 11 12  2  0
 12 13  1  0
 13 14  2  0
 14 15  1  0
 15 16  2  0
 15 17  1  0
 17 18  1  0
 18 19  1  0
 10 20  1  0
 20 21  1  0
 21 22  1  0
 22 23  1  0
 23 24  1  0
 24 25  1  0
  4 26  2  0
 26 27  1  0
 27 28  2  0
 28 29  1  0
 28  2  1  0
 16 11  1  0
 25 20  1  0
 19 14  1  0
  1 30  1  0
  1 31  1  0
  1 32  1  0
  3 33  1  0
  8 34  1  0
  9 35  1  0
  9 36  1  0
 10 37  1  0
 12 38  1  0
 13 39  1  0
 16 40  1  0
 18 41  1  0
 18 42  1  0
 21 43  1  0
 21 44  1  0
 22 45  1  0
 22 46  1  0
 24 47  1  0
 24 48  1  0
 25 49  1  0
 25 50  1  0
 26 51  1  0
 27 52  1  0
M  END
$$$$
