
     RDKit          3D

 45 47  0  0  0  0  0  0  0  0999 V2000
   -3.0217   -1.2304   -2.2810 O   0  0  0  0  0  0  0  0  0  0  0  0
   -2.5135   -1.2909   -1.1653 C   0  0  0  0  0  0  0  0  0  0  0  0
   -1.0566   -1.7075   -0.9514 C   0  0  0  0  0  0  0  0  0  0  0  0
   -0.4741   -1.2358    0.2682 O   0  0  0  0  0  0  0  0  0  0  0  0
   -0.0781    0.0743    0.2401 C   0  0  0  0  0  0  0  0  0  0  0  0
   -0.2912    0.8343   -0.6923 O   0  0  0  0  0  0  0  0  0  0  0  0
    0.5895    0.4154    1.5573 C   0  0  0  0  0  0  0  0  0  0  0  0
    1.5946    1.9306    1.4702 S   0  0  0  0  0  0  0  0  0  0  0  0
    2.9301    1.3279    0.4541 C   0  0  0  0  0  0  0  0  0  0  0  0
    2.9320    1.5810   -0.9172 C   0  0  0  0  0  0  0  0  0  0  0  0
    3.9702    1.1021   -1.7194 C   0  0  0  0  0  0  0  0  0  0  0  0
    5.0264    0.3667   -1.1603 C   0  0  0  0  0  0  0  0  0  0  0  0
    6.0761   -0.1235   -1.9535 C   0  0  0  0  0  0  0  0  0  0  0  0
    7.1214   -0.8513   -1.3829 C   0  0  0  0  0  0  0  0  0  0  0  0
    7.1317   -1.0958   -0.0128 C   0  0  0  0  0  0  0  0  0  0  0  0
    6.0955   -0.6151    0.7899 C   0  0  0  0  0  0  0  0  0  0  0  0
    5.0348    0.1168    0.2313 C   0  0  0  0  0  0  0  0  0  0  0  0
    3.9832    0.6059    1.0250 C   0  0  0  0  0  0  0  0  0  0  0  0
   -3.2140   -1.0670    0.0047 N   0  0  0  0  0  0  0  0  0  0  0  0
   -4.5536   -0.5248   -0.0216 C   0  0  0  0  0  0  0  0  0  0  0  0
   -5.2731   -0.6732    1.3131 C   0  0  0  0  0  0  0  0  0  0  0  0
   -6.4213    0.3231    1.2163 C   0  0  0  0  0  0  0  0  0  0  0  0
   -5.9387    1.4294    0.2769 C   0  0  0  0  0  0  0  0  0  0  0  0
   -4.5741    0.9853   -0.2426 C   0  0  0  0  0  0  0  0  0  0  0  0
   -1.0316   -2.8021   -0.9197 H   0  0  0  0  0  0  0  0  0  0  0  0
   -0.4555   -1.3884   -1.8113 H   0  0  0  0  0  0  0  0  0  0  0  0
    1.2241   -0.4171    1.8771 H   0  0  0  0  0  0  0  0  0  0  0  0
   -0.1964    0.5658    2.3036 H   0  0  0  0  0  0  0  0  0  0  0  0
    2.1229    2.1455   -1.3765 H   0  0  0  0  0  0  0  0  0  0  0  0
    3.9462    1.3105   -2.7871 H   0  0  0  0  0  0  0  0  0  0  0  0
    6.0875    0.0607   -3.0259 H   0  0  0  0  0  0  0  0  0  0  0  0
    7.9283   -1.2237   -2.0089 H   0  0  0  0  0  0  0  0  0  0  0  0
    7.9472   -1.6593    0.4329 H   0  0  0  0  0  0  0  0  0  0  0  0
    6.1239   -0.8159    1.8588 H   0  0  0  0  0  0  0  0  0  0  0  0
    3.9913    0.4258    2.0979 H   0  0  0  0  0  0  0  0  0  0  0  0
   -2.6737   -0.9848    0.8562 H   0  0  0  0  0  0  0  0  0  0  0  0
   -5.1253   -1.0227   -0.8152 H   0  0  0  0  0  0  0  0  0  0  0  0
   -5.6235   -1.6954    1.4879 H   0  0  0  0  0  0  0  0  0  0  0  0
   -4.6134   -0.4024    2.1472 H   0  0  0  0  0  0  0  0  0  0  0  0
   -6.7025    0.7132    2.1998 H   0  0  0  0  0  0  0  0  0  0  0  0
   -7.3068   -0.1624    0.7892 H   0  0  0  0  0  0  0  0  0  0  0  0
   -5.8675    2.3938    0.7906 H   0  0  0  0  0  0  0  0  0  0  0  0
   -6.6461    1.5510   -0.5513 H   0  0  0  0  0  0  0  0  0  0  0  0
   -3.7802    1.4733    0.3375 H   0  0  0  0  0  0  0  0  0  0  0  0
   -4.4241    1.2571   -1.2921 H   0  0  0  0  0  0  0  0  0  0  0  0
  1  2  2  0
  2  3  1  0
  3  4  1  0
  4  5  1  0
  5  6  2  0
  5  7  1  0
  7  8  1  0
  8  9  1  0
  9 10  2  0
 10 11  1  0
 11 12  2  0
 12 13  1  0
 13 14  2  0
 14 15  1  0
 15 16  2  0
 16 17  1  0
 17 18  2  0
  2 19  1  0
 19 20  1  0
 20 21  1  0
 21 22  1  0
 22 23  1  0
 23 24  1  0
 18  9  1  0
 24 20  1  0
 17 12  1  0
  3 25  1  0
  3 26  1  0
  7 27  1  0
  7 28  1  0
 10 29  1  0
 11 30  1  0
 13 31  1  0
 14 32  1  0
 15 33  1  0
 16 34  1  0
 18 35  1  0
 19 36  1  0
 20 37  1  0
 21 38  1  0
 21 39  1  0
 22 40  1  0
 22 41  1  0
 23 42  1  0
 23 43  1  0
 24 44  1  0
 24 45  1  0
M  END
$$$$
