
     RDKit          3D

 52 55  0  0  0  0  0  0  0  0999 V2000
   -3.9252    1.7713   -1.2603 C   0  0  0  0  0  0  0  0  0  0  0  0
   -5.1760    1.2941   -0.5744 C   0  0  0  0  0  0  0  0  0  0  0  0
   -6.3710    1.2805   -1.3187 C   0  0  0  0  0  0  0  0  0  0  0  0
   -7.5797    0.8986   -0.7373 C   0  0  0  0  0  0  0  0  0  0  0  0
   -7.6162    0.5308    0.6013 C   0  0  0  0  0  0  0  0  0  0  0  0
   -6.4384    0.5247    1.3472 C   0  0  0  0  0  0  0  0  0  0  0  0
   -5.2022    0.8589    0.7656 C   0  0  0  0  0  0  0  0  0  0  0  0
   -4.0791    0.8611    1.6350 N   0  0  0  0  0  0  0  0  0  0  0  0
   -2.7641    0.4569    1.3133 C   0  0  0  0  0  0  0  0  0  0  0  0
   -1.8051    1.3758    1.5628 N   0  0  0  0  0  0  0  0  0  0  0  0
   -0.5018    1.1231    1.2588 N   0  0  0  0  0  0  0  0  0  0  0  0
   -0.1488   -0.0643    0.7164 C   0  0  0  0  0  0  0  0  0  0  0  0
    1.2866   -0.1673    0.4138 C   0  0  0  0  0  0  0  0  0  0  0  0
    2.2357   -0.1591    1.4502 C   0  0  0  0  0  0  0  0  0  0  0  0
    3.6052   -0.2490    1.1768 C   0  0  0  0  0  0  0  0  0  0  0  0
    4.0495   -0.3339   -0.1470 C   0  0  0  0  0  0  0  0  0  0  0  0
    5.4943   -0.4340   -0.4911 C   0  0  0  0  0  0  0  0  0  0  0  0
    5.8437   -0.9930   -1.5242 O   0  0  0  0  0  0  0  0  0  0  0  0
    6.3757    0.1643    0.3837 N   0  0  0  0  0  0  0  0  0  0  0  0
    7.8045    0.1696    0.1313 C   0  0  0  0  0  0  0  0  0  0  0  0
    8.2132    1.1063   -1.0051 C   0  0  0  0  0  0  0  0  0  0  0  0
    9.6295    1.2553   -1.0210 O   0  0  0  0  0  0  0  0  0  0  0  0
    3.1153   -0.3483   -1.1886 C   0  0  0  0  0  0  0  0  0  0  0  0
    1.7481   -0.2558   -0.9104 C   0  0  0  0  0  0  0  0  0  0  0  0
   -1.0899   -1.0862    0.4838 C   0  0  0  0  0  0  0  0  0  0  0  0
   -0.7473   -2.3658   -0.0251 C   0  0  0  0  0  0  0  0  0  0  0  0
   -1.7071   -3.3566   -0.2281 C   0  0  0  0  0  0  0  0  0  0  0  0
   -3.0321   -3.0997    0.0827 C   0  0  0  0  0  0  0  0  0  0  0  0
   -3.3930   -1.8525    0.5932 C   0  0  0  0  0  0  0  0  0  0  0  0
   -2.4437   -0.8187    0.7969 C   0  0  0  0  0  0  0  0  0  0  0  0
   -3.3799    2.4790   -0.6287 H   0  0  0  0  0  0  0  0  0  0  0  0
   -3.2829    0.9251   -1.5195 H   0  0  0  0  0  0  0  0  0  0  0  0
   -4.1605    2.3043   -2.1884 H   0  0  0  0  0  0  0  0  0  0  0  0
   -6.3681    1.5861   -2.3635 H   0  0  0  0  0  0  0  0  0  0  0  0
   -8.4925    0.9030   -1.3274 H   0  0  0  0  0  0  0  0  0  0  0  0
   -8.5568    0.2491    1.0664 H   0  0  0  0  0  0  0  0  0  0  0  0
   -6.4773    0.2343    2.3952 H   0  0  0  0  0  0  0  0  0  0  0  0
   -3.9646    1.8138    1.9859 H   0  0  0  0  0  0  0  0  0  0  0  0
    1.9040   -0.0869    2.4857 H   0  0  0  0  0  0  0  0  0  0  0  0
    4.3032   -0.2755    2.0086 H   0  0  0  0  0  0  0  0  0  0  0  0
    6.0242    0.7772    1.1066 H   0  0  0  0  0  0  0  0  0  0  0  0
    8.2998    0.4629    1.0634 H   0  0  0  0  0  0  0  0  0  0  0  0
    8.1297   -0.8522   -0.0963 H   0  0  0  0  0  0  0  0  0  0  0  0
    7.8892    0.7132   -1.9739 H   0  0  0  0  0  0  0  0  0  0  0  0
    7.7679    2.0974   -0.8683 H   0  0  0  0  0  0  0  0  0  0  0  0
    9.8481    1.7576   -1.8251 H   0  0  0  0  0  0  0  0  0  0  0  0
    3.4504   -0.4236   -2.2216 H   0  0  0  0  0  0  0  0  0  0  0  0
    1.0411   -0.2491   -1.7387 H   0  0  0  0  0  0  0  0  0  0  0  0
    0.2870   -2.6121   -0.2595 H   0  0  0  0  0  0  0  0  0  0  0  0
   -1.4148   -4.3281   -0.6185 H   0  0  0  0  0  0  0  0  0  0  0  0
   -3.7886   -3.8668   -0.0618 H   0  0  0  0  0  0  0  0  0  0  0  0
   -4.4392   -1.6957    0.8459 H   0  0  0  0  0  0  0  0  0  0  0  0
  1  2  1  0
  2  3  2  0
  3  4  1  0
  4  5  2  0
  5  6  1  0
  6  7  2  0
  7  8  1  0
  8  9  1  0
  9 10  2  0
 10 11  1  0
 11 12  2  0
 12 13  1  0
 13 14  2  0
 14 15  1  0
 15 16  2  0
 16 17  1  0
 17 18  2  0
 17 19  1  0
 19 20  1  0
 20 21  1  0
 21 22  1  0
 16 23  1  0
 23 24  2  0
 12 25  1  0
 25 26  2  0
 26 27  1  0
 27 28  2  0
 28 29  1  0
 29 30  2  0
  7  2  1  0
 30  9  1  0
 24 13  1  0
 30 25  1  0
  1 31  1  0
  1 32  1  0
  1 33  1  0
  3 34  1  0
  4 35  1  0
  5 36  1  0
  6 37  1  0
  8 38  1  0
 14 39  1  0
 15 40  1  0
 19 41  1  0
 20 42  1  0
 20 43  1  0
 21 44  1  0
 21 45  1  0
 22 46  1  0
 23 47  1  0
 24 48  1  0
 26 49  1  0
 27 50  1  0
 28 51  1  0
 29 52  1  0
M  END
$$$$
