
     RDKit          3D

 40 40  0  0  0  0  0  0  0  0999 V2000
   -2.6326    2.7503    3.3336 C   0  0  0  0  0  0  0  0  0  0  0  0
   -2.4171    2.8342    1.8305 C   0  0  0  0  0  0  0  0  0  0  0  0
   -0.9951    2.4682    1.3924 C   0  0  0  0  0  0  0  0  0  0  0  0
   -0.5761    1.0309    1.7027 C   0  0  0  0  0  0  0  0  0  0  0  0
   -1.4658    0.0937    1.0317 N   0  0  0  0  0  0  0  0  0  0  0  0
   -1.0460   -0.6825    0.0925 C   0  0  0  0  0  0  0  0  0  0  0  0
    0.2027   -0.7374   -0.5303 N   0  0  0  0  0  0  0  0  0  0  0  0
    0.7831    0.3932   -1.0671 N   0  0  0  0  0  0  0  0  0  0  0  0
    2.1812    0.5889   -1.0939 C   0  0  0  0  0  0  0  0  0  0  0  0
    2.6889    1.8182   -1.5385 C   0  0  0  0  0  0  0  0  0  0  0  0
    4.0670    2.0323   -1.6403 C   0  0  0  0  0  0  0  0  0  0  0  0
    4.9495    1.0062   -1.3156 C   0  0  0  0  0  0  0  0  0  0  0  0
    6.8128    1.2899   -1.4526 Br  0  0  0  0  0  0  0  0  0  0  0  0
    4.4661   -0.2307   -0.8986 C   0  0  0  0  0  0  0  0  0  0  0  0
    3.0865   -0.4391   -0.7999 C   0  0  0  0  0  0  0  0  0  0  0  0
   -2.0885   -1.7282   -0.4077 C   0  0  0  0  0  0  0  0  0  0  0  0
   -3.2873   -1.5373   -0.4708 O   0  0  0  0  0  0  0  0  0  0  0  0
   -1.4165   -2.8430   -0.7919 O   0  0  0  0  0  0  0  0  0  0  0  0
   -2.2694   -3.8893   -1.2705 C   0  0  0  0  0  0  0  0  0  0  0  0
   -1.3988   -5.0713   -1.6504 C   0  0  0  0  0  0  0  0  0  0  0  0
   -2.5676    1.7186    3.6913 H   0  0  0  0  0  0  0  0  0  0  0  0
   -1.8932    3.3520    3.8713 H   0  0  0  0  0  0  0  0  0  0  0  0
   -3.6277    3.1268    3.5914 H   0  0  0  0  0  0  0  0  0  0  0  0
   -2.6220    3.8621    1.5076 H   0  0  0  0  0  0  0  0  0  0  0  0
   -3.1482    2.1963    1.3211 H   0  0  0  0  0  0  0  0  0  0  0  0
   -0.2856    3.1526    1.8732 H   0  0  0  0  0  0  0  0  0  0  0  0
   -0.9180    2.6447    0.3132 H   0  0  0  0  0  0  0  0  0  0  0  0
    0.4785    0.8897    1.4492 H   0  0  0  0  0  0  0  0  0  0  0  0
   -0.6339    0.8480    2.7812 H   0  0  0  0  0  0  0  0  0  0  0  0
    0.2751   -1.5413   -1.1607 H   0  0  0  0  0  0  0  0  0  0  0  0
    0.2721    1.2646   -0.9099 H   0  0  0  0  0  0  0  0  0  0  0  0
    2.0123    2.6238   -1.8134 H   0  0  0  0  0  0  0  0  0  0  0  0
    4.4365    2.9966   -1.9787 H   0  0  0  0  0  0  0  0  0  0  0  0
    5.1485   -1.0393   -0.6508 H   0  0  0  0  0  0  0  0  0  0  0  0
    2.7291   -1.4124   -0.4755 H   0  0  0  0  0  0  0  0  0  0  0  0
   -2.8242   -3.5417   -2.1493 H   0  0  0  0  0  0  0  0  0  0  0  0
   -2.9717   -4.1850   -0.4829 H   0  0  0  0  0  0  0  0  0  0  0  0
   -0.8214   -5.4179   -0.7870 H   0  0  0  0  0  0  0  0  0  0  0  0
   -0.6766   -4.7856   -2.4224 H   0  0  0  0  0  0  0  0  0  0  0  0
   -2.0069   -5.8996   -2.0244 H   0  0  0  0  0  0  0  0  0  0  0  0
  1  2  1  0
  2  3  1  0
  3  4  1  0
  4  5  1  0
  5  6  2  3
  6  7  1  0
  7  8  1  0
  8  9  1  0
  9 10  2  0
 10 11  1  0
 11 12  2  0
 12 13  1  0
 12 14  1  0
 14 15  2  0
  6 16  1  0
 16 17  2  0
 16 18  1  0
 18 19  1  0
 19 20  1  0
 15  9  1  0
  1 21  1  0
  1 22  1  0
  1 23  1  0
  2 24  1  0
  2 25  1  0
  3 26  1  0
  3 27  1  0
  4 28  1  0
  4 29  1  0
  7 30  1  0
  8 31  1  0
 10 32  1  0
 11 33  1  0
 14 34  1  0
 15 35  1  0
 19 36  1  0
 19 37  1  0
 20 38  1  0
 20 39  1  0
 20 40  1  0
M  END
$$$$
