
     RDKit          3D

 63 67  0  0  0  0  0  0  0  0999 V2000
   -6.0529    6.1831    1.4163 C   0  0  0  0  0  0  0  0  0  0  0  0
   -6.4113    4.8076    1.3825 O   0  0  0  0  0  0  0  0  0  0  0  0
   -5.4059    3.9092    1.1445 C   0  0  0  0  0  0  0  0  0  0  0  0
   -4.0694    4.2202    0.9336 C   0  0  0  0  0  0  0  0  0  0  0  0
   -3.1333    3.2034    0.7021 C   0  0  0  0  0  0  0  0  0  0  0  0
   -3.5264    1.8409    0.6792 C   0  0  0  0  0  0  0  0  0  0  0  0
   -2.7565    0.6361    0.4669 C   0  0  0  0  0  0  0  0  0  0  0  0
   -1.3181    0.5692    0.2398 C   0  0  0  0  0  0  0  0  0  0  0  0
   -0.8142    0.2961   -1.0339 C   0  0  0  0  0  0  0  0  0  0  0  0
    0.5659    0.2409   -1.2402 C   0  0  0  0  0  0  0  0  0  0  0  0
    1.4549    0.4609   -0.1848 C   0  0  0  0  0  0  0  0  0  0  0  0
    2.7754    0.3796   -0.5282 O   0  0  0  0  0  0  0  0  0  0  0  0
    3.7351    0.5368    0.5178 C   0  0  0  0  0  0  0  0  0  0  0  0
    5.1573    0.3894   -0.0615 C   0  0  0  0  0  0  0  0  0  0  0  0
    5.4741   -0.9462   -0.6067 N   0  0  0  0  0  0  0  0  0  0  0  0
    6.7360   -0.9310   -1.3800 C   0  0  0  0  0  0  0  0  0  0  0  0
    8.0008   -0.8639   -0.5072 C   0  0  0  0  0  0  0  0  0  0  0  0
    8.0372   -1.9331    0.4461 O   0  0  0  0  0  0  0  0  0  0  0  0
    6.8642   -1.9234    1.2685 C   0  0  0  0  0  0  0  0  0  0  0  0
    5.5812   -2.0015    0.4227 C   0  0  0  0  0  0  0  0  0  0  0  0
    0.9509    0.7416    1.0860 C   0  0  0  0  0  0  0  0  0  0  0  0
   -0.4317    0.7961    1.2977 C   0  0  0  0  0  0  0  0  0  0  0  0
   -3.5384   -0.5057    0.5168 C   0  0  0  0  0  0  0  0  0  0  0  0
   -3.1571   -1.9170    0.3761 C   0  0  0  0  0  0  0  0  0  0  0  0
   -2.7393   -2.6173    1.5198 C   0  0  0  0  0  0  0  0  0  0  0  0
   -2.3587   -3.9549    1.4317 C   0  0  0  0  0  0  0  0  0  0  0  0
   -2.3899   -4.6021    0.2003 C   0  0  0  0  0  0  0  0  0  0  0  0
   -2.7999   -3.9158   -0.9467 C   0  0  0  0  0  0  0  0  0  0  0  0
   -3.1852   -2.5719   -0.8725 C   0  0  0  0  0  0  0  0  0  0  0  0
   -3.5911   -1.8211   -1.9473 O   0  0  0  0  0  0  0  0  0  0  0  0
   -3.6429   -2.4605   -3.2146 C   0  0  0  0  0  0  0  0  0  0  0  0
   -5.1792   -0.1362    0.8210 S   0  0  0  0  0  0  0  0  0  0  0  0
   -4.8760    1.5539    0.8884 C   0  0  0  0  0  0  0  0  0  0  0  0
   -5.8198    2.5739    1.1220 C   0  0  0  0  0  0  0  0  0  0  0  0
   -5.3437    6.3866    2.2254 H   0  0  0  0  0  0  0  0  0  0  0  0
   -6.9608    6.7602    1.6170 H   0  0  0  0  0  0  0  0  0  0  0  0
   -5.6565    6.5115    0.4499 H   0  0  0  0  0  0  0  0  0  0  0  0
   -3.7107    5.2440    0.9387 H   0  0  0  0  0  0  0  0  0  0  0  0
   -2.0913    3.4660    0.5332 H   0  0  0  0  0  0  0  0  0  0  0  0
   -1.4891    0.1211   -1.8684 H   0  0  0  0  0  0  0  0  0  0  0  0
    0.9528    0.0205   -2.2322 H   0  0  0  0  0  0  0  0  0  0  0  0
    3.5641   -0.1929    1.3162 H   0  0  0  0  0  0  0  0  0  0  0  0
    3.6479    1.5474    0.9362 H   0  0  0  0  0  0  0  0  0  0  0  0
    5.2371    1.1170   -0.8797 H   0  0  0  0  0  0  0  0  0  0  0  0
    5.8811    0.6873    0.7051 H   0  0  0  0  0  0  0  0  0  0  0  0
    6.7348   -0.1115   -2.1083 H   0  0  0  0  0  0  0  0  0  0  0  0
    6.7701   -1.8579   -1.9675 H   0  0  0  0  0  0  0  0  0  0  0  0
    8.0768    0.0926    0.0223 H   0  0  0  0  0  0  0  0  0  0  0  0
    8.8888   -0.9594   -1.1404 H   0  0  0  0  0  0  0  0  0  0  0  0
    6.8773   -1.0305    1.9036 H   0  0  0  0  0  0  0  0  0  0  0  0
    6.9213   -2.7948    1.9289 H   0  0  0  0  0  0  0  0  0  0  0  0
    4.7020   -2.0193    1.0736 H   0  0  0  0  0  0  0  0  0  0  0  0
    5.5780   -2.9656   -0.1030 H   0  0  0  0  0  0  0  0  0  0  0  0
    1.6021    0.9225    1.9338 H   0  0  0  0  0  0  0  0  0  0  0  0
   -0.8120    1.0121    2.2935 H   0  0  0  0  0  0  0  0  0  0  0  0
   -2.7103   -2.1165    2.4848 H   0  0  0  0  0  0  0  0  0  0  0  0
   -2.0376   -4.4889    2.3220 H   0  0  0  0  0  0  0  0  0  0  0  0
   -2.0916   -5.6452    0.1289 H   0  0  0  0  0  0  0  0  0  0  0  0
   -2.8036   -4.4608   -1.8845 H   0  0  0  0  0  0  0  0  0  0  0  0
   -2.6490   -2.7967   -3.5279 H   0  0  0  0  0  0  0  0  0  0  0  0
   -3.9890   -1.7240   -3.9460 H   0  0  0  0  0  0  0  0  0  0  0  0
   -4.3597   -3.2880   -3.2113 H   0  0  0  0  0  0  0  0  0  0  0  0
   -6.8654    2.3262    1.2832 H   0  0  0  0  0  0  0  0  0  0  0  0
  1  2  1  0
  2  3  1  0
  3  4  2  0
  4  5  1  0
  5  6  2  0
  6  7  1  0
  7  8  1  0
  8  9  2  0
  9 10  1  0
 10 11  2  0
 11 12  1  0
 12 13  1  0
 13 14  1  0
 14 15  1  0
 15 16  1  0
 16 17  1  0
 17 18  1  0
 18 19  1  0
 19 20  1  0
 11 21  1  0
 21 22  2  0
  7 23  2  0
 23 24  1  0
 24 25  2  0
 25 26  1  0
 26 27  2  0
 27 28  1  0
 28 29  2  0
 29 30  1  0
 30 31  1  0
 23 32  1  0
 32 33  1  0
 33 34  2  0
 34  3  1  0
 33  6  1  0
 22  8  1  0
 29 24  1  0
 20 15  1  0
  1 35  1  0
  1 36  1  0
  1 37  1  0
  4 38  1  0
  5 39  1  0
  9 40  1  0
 10 41  1  0
 13 42  1  0
 13 43  1  0
 14 44  1  0
 14 45  1  0
 16 46  1  0
 16 47  1  0
 17 48  1  0
 17 49  1  0
 19 50  1  0
 19 51  1  0
 20 52  1  0
 20 53  1  0
 21 54  1  0
 22 55  1  0
 25 56  1  0
 26 57  1  0
 27 58  1  0
 28 59  1  0
 31 60  1  0
 31 61  1  0
 31 62  1  0
 34 63  1  0
M  END
$$$$
