
     RDKit          3D

 48 50  0  0  0  0  0  0  0  0999 V2000
    2.9240    0.4481    1.6123 C   0  0  0  0  0  0  0  0  0  0  0  0
    1.6695    0.9210    1.5643 C   0  0  0  0  0  0  0  0  0  0  0  0
    1.1938    2.0918    2.2976 C   0  0  0  0  0  0  0  0  0  0  0  0
    1.9778    2.9051    3.2381 C   0  0  0  0  0  0  0  0  0  0  0  0
    3.1337    3.2560    3.0465 O   0  0  0  0  0  0  0  0  0  0  0  0
    1.2558    3.1528    4.3629 O   0  0  0  0  0  0  0  0  0  0  0  0
    1.9475    3.9351    5.3349 C   0  0  0  0  0  0  0  0  0  0  0  0
   -0.0894    2.3057    1.9627 C   0  0  0  0  0  0  0  0  0  0  0  0
   -0.9046    3.2972    2.4339 O   0  0  0  0  0  0  0  0  0  0  0  0
   -0.5374    1.2893    1.0003 C   0  0  0  0  0  0  0  0  0  0  0  0
   -1.7800    1.2744    0.4774 C   0  0  0  0  0  0  0  0  0  0  0  0
   -2.3609    0.2569   -0.4053 C   0  0  0  0  0  0  0  0  0  0  0  0
   -2.5519   -1.0575    0.0373 C   0  0  0  0  0  0  0  0  0  0  0  0
   -3.1251   -2.0082   -0.8089 C   0  0  0  0  0  0  0  0  0  0  0  0
   -3.5173   -1.6416   -2.0905 C   0  0  0  0  0  0  0  0  0  0  0  0
   -4.0712   -2.6019   -2.8844 O   0  0  0  0  0  0  0  0  0  0  0  0
   -3.3516   -0.3358   -2.5413 C   0  0  0  0  0  0  0  0  0  0  0  0
   -2.7783    0.6156   -1.6936 C   0  0  0  0  0  0  0  0  0  0  0  0
    0.5722    0.4399    0.8220 N   0  0  0  0  0  0  0  0  0  0  0  0
    0.7419   -0.4637   -0.2612 C   0  0  0  0  0  0  0  0  0  0  0  0
    0.9391   -1.8302   -0.0103 C   0  0  0  0  0  0  0  0  0  0  0  0
    1.1024   -2.7412   -1.0612 C   0  0  0  0  0  0  0  0  0  0  0  0
    1.3344   -4.1947   -0.7751 C   0  0  0  0  0  0  0  0  0  0  0  0
    1.0972   -2.2688   -2.3795 C   0  0  0  0  0  0  0  0  0  0  0  0
    0.9000   -0.9100   -2.6547 C   0  0  0  0  0  0  0  0  0  0  0  0
    0.9176   -0.4091   -4.0677 C   0  0  0  0  0  0  0  0  0  0  0  0
    0.7391   -0.0146   -1.5899 C   0  0  0  0  0  0  0  0  0  0  0  0
    3.2264   -0.4168    1.0325 H   0  0  0  0  0  0  0  0  0  0  0  0
    3.6971    0.9136    2.2147 H   0  0  0  0  0  0  0  0  0  0  0  0
    2.2219    4.9103    4.9202 H   0  0  0  0  0  0  0  0  0  0  0  0
    1.2742    4.0970    6.1813 H   0  0  0  0  0  0  0  0  0  0  0  0
    2.8337    3.4030    5.6946 H   0  0  0  0  0  0  0  0  0  0  0  0
   -1.8177    2.9680    2.4376 H   0  0  0  0  0  0  0  0  0  0  0  0
   -2.4844    2.0699    0.7009 H   0  0  0  0  0  0  0  0  0  0  0  0
   -2.2425   -1.3540    1.0364 H   0  0  0  0  0  0  0  0  0  0  0  0
   -3.2585   -3.0312   -0.4703 H   0  0  0  0  0  0  0  0  0  0  0  0
   -4.2576   -2.2128   -3.7541 H   0  0  0  0  0  0  0  0  0  0  0  0
   -3.6575   -0.0414   -3.5397 H   0  0  0  0  0  0  0  0  0  0  0  0
   -2.6450    1.6340   -2.0504 H   0  0  0  0  0  0  0  0  0  0  0  0
    0.9504   -2.1815    1.0189 H   0  0  0  0  0  0  0  0  0  0  0  0
    0.8204   -4.4989    0.1428 H   0  0  0  0  0  0  0  0  0  0  0  0
    2.4056   -4.3873   -0.6617 H   0  0  0  0  0  0  0  0  0  0  0  0
    0.9459   -4.8197   -1.5861 H   0  0  0  0  0  0  0  0  0  0  0  0
    1.2436   -2.9677   -3.2009 H   0  0  0  0  0  0  0  0  0  0  0  0
    0.5544   -1.1765   -4.7593 H   0  0  0  0  0  0  0  0  0  0  0  0
    1.9361   -0.1289   -4.3530 H   0  0  0  0  0  0  0  0  0  0  0  0
    0.2647    0.4630   -4.1803 H   0  0  0  0  0  0  0  0  0  0  0  0
    0.6105    1.0463   -1.7905 H   0  0  0  0  0  0  0  0  0  0  0  0
  1  2  2  0
  2  3  1  0
  3  4  1  0
  4  5  2  0
  4  6  1  0
  6  7  1  0
  3  8  2  0
  8  9  1  0
  8 10  1  0
 10 11  2  3
 11 12  1  0
 12 13  2  0
 13 14  1  0
 14 15  2  0
 15 16  1  0
 15 17  1  0
 17 18  2  0
 10 19  1  0
 19 20  1  0
 20 21  2  0
 21 22  1  0
 22 23  1  0
 22 24  2  0
 24 25  1  0
 25 26  1  0
 25 27  2  0
 19  2  1  0
 27 20  1  0
 18 12  1  0
  1 28  1  0
  1 29  1  0
  7 30  1  0
  7 31  1  0
  7 32  1  0
  9 33  1  0
 11 34  1  0
 13 35  1  0
 14 36  1  0
 16 37  1  0
 17 38  1  0
 18 39  1  0
 21 40  1  0
 23 41  1  0
 23 42  1  0
 23 43  1  0
 24 44  1  0
 26 45  1  0
 26 46  1  0
 26 47  1  0
 27 48  1  0
M  END
$$$$
