
     RDKit          3D

 40 41  0  0  0  0  0  0  0  0999 V2000
   -4.8547    1.5576    1.4834 C   0  0  0  0  0  0  0  0  0  0  0  0
   -3.9301    0.4499    0.9848 C   0  0  0  0  0  0  0  0  0  0  0  0
   -4.1107    0.2229   -0.5211 C   0  0  0  0  0  0  0  0  0  0  0  0
   -3.1439   -0.8351   -1.0460 C   0  0  0  0  0  0  0  0  0  0  0  0
   -1.7599   -0.5331   -0.6883 N   0  0  0  0  0  0  0  0  0  0  0  0
   -0.7728   -1.1053   -1.5005 C   0  0  0  0  0  0  0  0  0  0  0  0
   -1.0179   -1.8724   -2.4291 O   0  0  0  0  0  0  0  0  0  0  0  0
    0.6475   -0.7496   -1.2636 C   0  0  0  0  0  0  0  0  0  0  0  0
    1.0359    0.5831   -1.0883 C   0  0  0  0  0  0  0  0  0  0  0  0
    2.3849    0.8953   -0.9023 C   0  0  0  0  0  0  0  0  0  0  0  0
    3.3455   -0.1171   -0.9099 C   0  0  0  0  0  0  0  0  0  0  0  0
    4.7233    0.1751   -0.7126 N   0  0  0  0  0  0  0  0  0  0  0  0
    5.2379    0.8544    0.7393 S   0  0  0  0  0  6  0  0  0  0  0  0
    4.8029   -0.4049    1.9231 C   0  0  0  0  0  0  0  0  0  0  0  0
    6.6830    0.8937    0.6631 O   0  0  0  0  0  0  0  0  0  0  0  0
    4.4683    2.0435    1.0296 O   0  0  0  0  0  0  0  0  0  0  0  0
    2.9625   -1.4438   -1.1212 C   0  0  0  0  0  0  0  0  0  0  0  0
    1.6137   -1.7606   -1.3027 C   0  0  0  0  0  0  0  0  0  0  0  0
   -1.5296   -0.2901    0.7383 C   0  0  0  0  0  0  0  0  0  0  0  0
   -2.4638    0.7844    1.2862 C   0  0  0  0  0  0  0  0  0  0  0  0
   -4.6376    2.5113    0.9903 H   0  0  0  0  0  0  0  0  0  0  0  0
   -5.9022    1.3059    1.2872 H   0  0  0  0  0  0  0  0  0  0  0  0
   -4.7407    1.7012    2.5630 H   0  0  0  0  0  0  0  0  0  0  0  0
   -4.1936   -0.4764    1.5122 H   0  0  0  0  0  0  0  0  0  0  0  0
   -5.1406   -0.0838   -0.7374 H   0  0  0  0  0  0  0  0  0  0  0  0
   -3.9364    1.1647   -1.0578 H   0  0  0  0  0  0  0  0  0  0  0  0
   -3.3878   -1.8222   -0.6343 H   0  0  0  0  0  0  0  0  0  0  0  0
   -3.2405   -0.9017   -2.1358 H   0  0  0  0  0  0  0  0  0  0  0  0
    0.2969    1.3806   -1.1093 H   0  0  0  0  0  0  0  0  0  0  0  0
    2.6771    1.9356   -0.7760 H   0  0  0  0  0  0  0  0  0  0  0  0
    5.4054   -0.4734   -1.1052 H   0  0  0  0  0  0  0  0  0  0  0  0
    3.7168   -0.4968    1.9728 H   0  0  0  0  0  0  0  0  0  0  0  0
    5.1891   -0.0945    2.8967 H   0  0  0  0  0  0  0  0  0  0  0  0
    5.2674   -1.3470    1.6261 H   0  0  0  0  0  0  0  0  0  0  0  0
    3.7002   -2.2406   -1.1536 H   0  0  0  0  0  0  0  0  0  0  0  0
    1.3146   -2.7910   -1.4843 H   0  0  0  0  0  0  0  0  0  0  0  0
   -0.4940   -0.0106    0.9406 H   0  0  0  0  0  0  0  0  0  0  0  0
   -1.6982   -1.2422    1.2574 H   0  0  0  0  0  0  0  0  0  0  0  0
   -2.3137    0.8821    2.3677 H   0  0  0  0  0  0  0  0  0  0  0  0
   -2.2041    1.7510    0.8355 H   0  0  0  0  0  0  0  0  0  0  0  0
  1  2  1  0
  2  3  1  0
  3  4  1  0
  4  5  1  0
  5  6  1  0
  6  7  2  0
  6  8  1  0
  8  9  2  0
  9 10  1  0
 10 11  2  0
 11 12  1  0
 12 13  1  0
 13 14  1  0
 13 15  2  0
 13 16  2  0
 11 17  1  0
 17 18  2  0
  5 19  1  0
 19 20  1  0
 20  2  1  0
 18  8  1  0
  1 21  1  0
  1 22  1  0
  1 23  1  0
  2 24  1  0
  3 25  1  0
  3 26  1  0
  4 27  1  0
  4 28  1  0
  9 29  1  0
 10 30  1  0
 12 31  1  0
 14 32  1  0
 14 33  1  0
 14 34  1  0
 17 35  1  0
 18 36  1  0
 19 37  1  0
 19 38  1  0
 20 39  1  0
 20 40  1  0
M  END
$$$$
