
     RDKit          3D

 40 43  0  0  0  0  0  0  0  0999 V2000
   -1.4290    4.5880    0.6581 C   0  0  0  0  0  0  0  0  0  0  0  0
   -1.4975    3.3798    1.2329 C   0  0  0  0  0  0  0  0  0  0  0  0
   -0.4438    2.3123    1.1174 C   0  0  0  0  0  0  0  0  0  0  0  0
   -1.0159    1.1449    0.4456 N   0  0  0  0  0  0  0  0  0  0  0  0
   -0.9554    0.9355   -0.9223 C   0  0  0  0  0  0  0  0  0  0  0  0
   -0.1430    2.1125   -1.9328 S   0  0  0  0  0  0  0  0  0  0  0  0
    1.1180    1.0279   -2.6695 C   0  0  0  0  0  0  0  0  0  0  0  0
    1.8907    0.2486   -1.6217 C   0  0  0  0  0  0  0  0  0  0  0  0
    1.8539   -1.0953   -1.6123 C   0  0  0  0  0  0  0  0  0  0  0  0
    2.5841   -1.8413   -0.5659 C   0  0  0  0  0  0  0  0  0  0  0  0
    2.5596   -3.0682   -0.5566 O   0  0  0  0  0  0  0  0  0  0  0  0
    3.2467   -1.0464    0.3343 N   0  0  0  0  0  0  0  0  0  0  0  0
    3.9821   -1.5090    1.4040 C   0  0  0  0  0  0  0  0  0  0  0  0
    4.5399   -0.5389    2.1375 C   0  0  0  0  0  0  0  0  0  0  0  0
    4.1617    1.0405    1.5033 S   0  0  0  0  0  0  0  0  0  0  0  0
    3.2177    0.3226    0.2089 C   0  0  0  0  0  0  0  0  0  0  0  0
    2.5993    0.9944   -0.7007 N   0  0  0  0  0  0  0  0  0  0  0  0
   -1.4482   -0.0944   -1.5312 N   0  0  0  0  0  0  0  0  0  0  0  0
   -2.0957   -1.0704   -0.7711 C   0  0  0  0  0  0  0  0  0  0  0  0
   -2.6351   -2.1837   -1.4198 C   0  0  0  0  0  0  0  0  0  0  0  0
   -3.2825   -3.1865   -0.6929 C   0  0  0  0  0  0  0  0  0  0  0  0
   -3.3954   -3.0820    0.6929 C   0  0  0  0  0  0  0  0  0  0  0  0
   -2.8613   -1.9746    1.3501 C   0  0  0  0  0  0  0  0  0  0  0  0
   -2.2149   -0.9763    0.6110 C   0  0  0  0  0  0  0  0  0  0  0  0
   -1.6346    0.2061    1.2691 C   0  0  0  0  0  0  0  0  0  0  0  0
   -1.7164    0.3026    2.4921 O   0  0  0  0  0  0  0  0  0  0  0  0
   -0.5868    4.8799    0.0376 H   0  0  0  0  0  0  0  0  0  0  0  0
   -2.2252    5.3134    0.7945 H   0  0  0  0  0  0  0  0  0  0  0  0
   -2.3593    3.1404    1.8536 H   0  0  0  0  0  0  0  0  0  0  0  0
    0.4461    2.6761    0.5970 H   0  0  0  0  0  0  0  0  0  0  0  0
   -0.1112    2.0384    2.1256 H   0  0  0  0  0  0  0  0  0  0  0  0
    1.8141    1.6535   -3.2390 H   0  0  0  0  0  0  0  0  0  0  0  0
    0.6292    0.3620   -3.3894 H   0  0  0  0  0  0  0  0  0  0  0  0
    1.2903   -1.6835   -2.3257 H   0  0  0  0  0  0  0  0  0  0  0  0
    4.0617   -2.5743    1.5818 H   0  0  0  0  0  0  0  0  0  0  0  0
    5.1522   -0.6864    3.0168 H   0  0  0  0  0  0  0  0  0  0  0  0
   -2.5508   -2.2683   -2.5004 H   0  0  0  0  0  0  0  0  0  0  0  0
   -3.6981   -4.0481   -1.2100 H   0  0  0  0  0  0  0  0  0  0  0  0
   -3.8988   -3.8616    1.2598 H   0  0  0  0  0  0  0  0  0  0  0  0
   -2.9483   -1.8902    2.4310 H   0  0  0  0  0  0  0  0  0  0  0  0
  1  2  2  0
  2  3  1  0
  3  4  1  0
  4  5  1  0
  5  6  1  0
  6  7  1  0
  7  8  1  0
  8  9  2  0
  9 10  1  0
 10 11  2  0
 10 12  1  0
 12 13  1  0
 13 14  2  0
 14 15  1  0
 15 16  1  0
 16 17  2  0
  5 18  2  0
 18 19  1  0
 19 20  2  0
 20 21  1  0
 21 22  2  0
 22 23  1  0
 23 24  2  0
 24 25  1  0
 25 26  2  0
 25  4  1  0
 17  8  1  0
 24 19  1  0
 16 12  1  0
  1 27  1  0
  1 28  1  0
  2 29  1  0
  3 30  1  0
  3 31  1  0
  7 32  1  0
  7 33  1  0
  9 34  1  0
 13 35  1  0
 14 36  1  0
 20 37  1  0
 21 38  1  0
 22 39  1  0
 23 40  1  0
M  END
$$$$
