
     RDKit          3D

 53 56  0  0  0  0  0  0  0  0999 V2000
   -0.5102   -3.9678   -1.1024 C   0  0  0  0  0  0  0  0  0  0  0  0
   -1.1893   -2.9215   -1.9461 C   0  0  0  0  0  0  0  0  0  0  0  0
   -0.9694   -2.8200   -3.1529 O   0  0  0  0  0  0  0  0  0  0  0  0
   -2.1289   -2.0027   -1.2588 C   0  0  0  0  0  0  0  0  0  0  0  0
   -1.6224   -0.8961   -0.6686 C   0  0  0  0  0  0  0  0  0  0  0  0
   -0.2644   -0.5686   -0.7154 N   0  0  0  0  0  0  0  0  0  0  0  0
    0.4467   -0.0598    0.4791 C   0  0  0  0  0  0  0  0  0  0  0  0
    1.9686   -0.2933    0.3483 C   0  0  0  0  0  0  0  0  0  0  0  0
    2.5323    0.3212   -0.8760 N   0  0  0  0  0  0  0  0  0  0  0  0
    3.9715    0.0360   -1.0092 C   0  0  0  0  0  0  0  0  0  0  0  0
    4.8163    0.7288    0.0393 C   0  0  0  0  0  0  0  0  0  0  0  0
    4.8114    2.1279    0.1464 C   0  0  0  0  0  0  0  0  0  0  0  0
    5.5957    2.7693    1.1060 C   0  0  0  0  0  0  0  0  0  0  0  0
    6.3953    2.0199    1.9667 C   0  0  0  0  0  0  0  0  0  0  0  0
    6.4116    0.6297    1.8686 C   0  0  0  0  0  0  0  0  0  0  0  0
    5.6274   -0.0139    0.9092 C   0  0  0  0  0  0  0  0  0  0  0  0
    1.8032   -0.1991   -2.0568 C   0  0  0  0  0  0  0  0  0  0  0  0
    0.2821    0.0393   -1.9595 C   0  0  0  0  0  0  0  0  0  0  0  0
   -2.4971   -0.0882    0.0130 N   0  0  0  0  0  0  0  0  0  0  0  0
   -3.8436   -0.3272    0.0749 C   0  0  0  0  0  0  0  0  0  0  0  0
   -4.7415    0.6461    0.7736 C   0  0  0  0  0  0  0  0  0  0  0  0
   -5.9621    0.1980    1.2953 C   0  0  0  0  0  0  0  0  0  0  0  0
   -6.8120    1.0847    1.9590 C   0  0  0  0  0  0  0  0  0  0  0  0
   -6.4506    2.4236    2.0988 C   0  0  0  0  0  0  0  0  0  0  0  0
   -5.2434    2.8797    1.5703 C   0  0  0  0  0  0  0  0  0  0  0  0
   -4.3889    1.9954    0.9061 C   0  0  0  0  0  0  0  0  0  0  0  0
   -4.3805   -1.3875   -0.4509 N   0  0  0  0  0  0  0  0  0  0  0  0
   -3.5896   -2.3147   -1.1085 C   0  0  0  0  0  0  0  0  0  0  0  0
   -4.2928   -3.7471   -1.6807 S   0  0  0  0  0  0  0  0  0  0  0  0
   -0.8863   -3.9531   -0.0755 H   0  0  0  0  0  0  0  0  0  0  0  0
    0.5651   -3.7716   -1.0844 H   0  0  0  0  0  0  0  0  0  0  0  0
   -0.7053   -4.9557   -1.5279 H   0  0  0  0  0  0  0  0  0  0  0  0
    0.0893   -0.5816    1.3750 H   0  0  0  0  0  0  0  0  0  0  0  0
    0.2401    1.0101    0.6090 H   0  0  0  0  0  0  0  0  0  0  0  0
    2.4436    0.1316    1.2397 H   0  0  0  0  0  0  0  0  0  0  0  0
    2.1630   -1.3745    0.3536 H   0  0  0  0  0  0  0  0  0  0  0  0
    4.1553   -1.0466   -0.9940 H   0  0  0  0  0  0  0  0  0  0  0  0
    4.3314    0.3939   -1.9834 H   0  0  0  0  0  0  0  0  0  0  0  0
    4.1873    2.7198   -0.5199 H   0  0  0  0  0  0  0  0  0  0  0  0
    5.5826    3.8534    1.1806 H   0  0  0  0  0  0  0  0  0  0  0  0
    7.0072    2.5197    2.7130 H   0  0  0  0  0  0  0  0  0  0  0  0
    7.0375    0.0461    2.5387 H   0  0  0  0  0  0  0  0  0  0  0  0
    5.6542   -1.0992    0.8457 H   0  0  0  0  0  0  0  0  0  0  0  0
    1.9891   -1.2751   -2.1751 H   0  0  0  0  0  0  0  0  0  0  0  0
    2.1688    0.3015   -2.9613 H   0  0  0  0  0  0  0  0  0  0  0  0
   -0.2004   -0.3777   -2.8495 H   0  0  0  0  0  0  0  0  0  0  0  0
    0.0699    1.1164   -1.9557 H   0  0  0  0  0  0  0  0  0  0  0  0
   -2.0907    0.7349    0.4296 H   0  0  0  0  0  0  0  0  0  0  0  0
   -6.2568   -0.8442    1.1891 H   0  0  0  0  0  0  0  0  0  0  0  0
   -7.7573    0.7295    2.3619 H   0  0  0  0  0  0  0  0  0  0  0  0
   -7.1160    3.1140    2.6116 H   0  0  0  0  0  0  0  0  0  0  0  0
   -4.9735    3.9286    1.6670 H   0  0  0  0  0  0  0  0  0  0  0  0
   -3.4735    2.3877    0.4756 H   0  0  0  0  0  0  0  0  0  0  0  0
  1  2  1  0
  2  3  2  0
  2  4  1  0
  4  5  2  0
  5  6  1  0
  6  7  1  0
  7  8  1  0
  8  9  1  0
  9 10  1  0
 10 11  1  0
 11 12  2  0
 12 13  1  0
 13 14  2  0
 14 15  1  0
 15 16  2  0
  9 17  1  0
 17 18  1  0
  5 19  1  0
 19 20  1  0
 20 21  1  0
 21 22  2  0
 22 23  1  0
 23 24  2  0
 24 25  1  0
 25 26  2  0
 20 27  2  0
 27 28  1  0
 28 29  2  0
 28  4  1  0
 18  6  1  0
 26 21  1  0
 16 11  1  0
  1 30  1  0
  1 31  1  0
  1 32  1  0
  7 33  1  0
  7 34  1  0
  8 35  1  0
  8 36  1  0
 10 37  1  0
 10 38  1  0
 12 39  1  0
 13 40  1  0
 14 41  1  0
 15 42  1  0
 16 43  1  0
 17 44  1  0
 17 45  1  0
 18 46  1  0
 18 47  1  0
 19 48  1  0
 22 49  1  0
 23 50  1  0
 24 51  1  0
 25 52  1  0
 26 53  1  0
M  END
$$$$
