
     RDKit          3D

 46 48  0  0  0  0  0  0  0  0999 V2000
    5.1540    3.9674   -3.2474 C   0  0  0  0  0  0  0  0  0  0  0  0
    3.8619    3.6340   -3.7403 O   0  0  0  0  0  0  0  0  0  0  0  0
    3.3325    2.4502   -3.1456 C   0  0  0  0  0  0  0  0  0  0  0  0
    2.6893    2.7310   -1.7878 C   0  0  0  0  0  0  0  0  0  0  0  0
    2.0845    1.5479   -1.2442 O   0  0  0  0  0  0  0  0  0  0  0  0
    2.9377    0.6889   -0.6159 C   0  0  0  0  0  0  0  0  0  0  0  0
    4.1476    0.8686   -0.5378 O   0  0  0  0  0  0  0  0  0  0  0  0
    2.2626   -0.4715   -0.0614 C   0  0  0  0  0  0  0  0  0  0  0  0
    2.9061   -1.5108    0.5961 C   0  0  0  0  0  0  0  0  0  0  0  0
    4.3230   -1.7817    0.9285 C   0  0  0  0  0  0  0  0  0  0  0  0
    2.0115   -2.4519    1.0028 O   0  0  0  0  0  0  0  0  0  0  0  0
    0.7808   -2.0309    0.6170 C   0  0  0  0  0  0  0  0  0  0  0  0
   -0.4085   -2.7166    0.8561 C   0  0  0  0  0  0  0  0  0  0  0  0
   -1.5813   -2.1198    0.3852 C   0  0  0  0  0  0  0  0  0  0  0  0
   -1.5401   -0.9023   -0.2951 C   0  0  0  0  0  0  0  0  0  0  0  0
   -2.7591   -0.3089   -0.7240 N   0  0  0  0  0  0  0  0  0  0  0  0
   -3.5132    0.7881    0.3212 S   0  0  0  0  0  6  0  0  0  0  0  0
   -2.5075    1.5402    1.0393 O   0  0  0  0  0  0  0  0  0  0  0  0
   -4.5256    1.4588   -0.4670 O   0  0  0  0  0  0  0  0  0  0  0  0
   -4.3550   -0.2826    1.4615 C   0  0  0  0  0  0  0  0  0  0  0  0
   -3.8291   -0.4842    2.7434 C   0  0  0  0  0  0  0  0  0  0  0  0
   -4.5038   -1.3175    3.6362 C   0  0  0  0  0  0  0  0  0  0  0  0
   -5.6926   -1.9271    3.2440 C   0  0  0  0  0  0  0  0  0  0  0  0
   -6.3363   -2.7269    4.1038 F   0  0  0  0  0  0  0  0  0  0  0  0
   -6.2254   -1.7182    1.9747 C   0  0  0  0  0  0  0  0  0  0  0  0
   -5.5574   -0.8872    1.0749 C   0  0  0  0  0  0  0  0  0  0  0  0
   -0.3285   -0.2328   -0.5181 C   0  0  0  0  0  0  0  0  0  0  0  0
    0.8692   -0.8140   -0.0500 C   0  0  0  0  0  0  0  0  0  0  0  0
    5.8613    3.1563   -3.4453 H   0  0  0  0  0  0  0  0  0  0  0  0
    5.4985    4.8629   -3.7719 H   0  0  0  0  0  0  0  0  0  0  0  0
    5.1211    4.1867   -2.1770 H   0  0  0  0  0  0  0  0  0  0  0  0
    4.0995    1.6694   -3.0854 H   0  0  0  0  0  0  0  0  0  0  0  0
    2.5635    2.0614   -3.8230 H   0  0  0  0  0  0  0  0  0  0  0  0
    3.3978    3.1668   -1.0740 H   0  0  0  0  0  0  0  0  0  0  0  0
    1.8959    3.4774   -1.9082 H   0  0  0  0  0  0  0  0  0  0  0  0
    4.9306   -1.8151    0.0191 H   0  0  0  0  0  0  0  0  0  0  0  0
    4.7183   -1.0000    1.5843 H   0  0  0  0  0  0  0  0  0  0  0  0
    4.4342   -2.7417    1.4427 H   0  0  0  0  0  0  0  0  0  0  0  0
   -0.4159   -3.6633    1.3832 H   0  0  0  0  0  0  0  0  0  0  0  0
   -2.5304   -2.6253    0.5478 H   0  0  0  0  0  0  0  0  0  0  0  0
   -2.8053    0.0274   -1.6859 H   0  0  0  0  0  0  0  0  0  0  0  0
   -2.9023   -0.0027    3.0489 H   0  0  0  0  0  0  0  0  0  0  0  0
   -4.1145   -1.4927    4.6346 H   0  0  0  0  0  0  0  0  0  0  0  0
   -7.1586   -2.2000    1.6988 H   0  0  0  0  0  0  0  0  0  0  0  0
   -5.9739   -0.7138    0.0849 H   0  0  0  0  0  0  0  0  0  0  0  0
   -0.3174    0.7278   -1.0237 H   0  0  0  0  0  0  0  0  0  0  0  0
  1  2  1  0
  2  3  1  0
  3  4  1  0
  4  5  1  0
  5  6  1  0
  6  7  2  0
  6  8  1  0
  8  9  2  0
  9 10  1  0
  9 11  1  0
 11 12  1  0
 12 13  2  0
 13 14  1  0
 14 15  2  0
 15 16  1  0
 16 17  1  0
 17 18  2  0
 17 19  2  0
 17 20  1  0
 20 21  2  0
 21 22  1  0
 22 23  2  0
 23 24  1  0
 23 25  1  0
 25 26  2  0
 15 27  1  0
 27 28  2  0
 28  8  1  0
 28 12  1  0
 26 20  1  0
  1 29  1  0
  1 30  1  0
  1 31  1  0
  3 32  1  0
  3 33  1  0
  4 34  1  0
  4 35  1  0
 10 36  1  0
 10 37  1  0
 10 38  1  0
 13 39  1  0
 14 40  1  0
 16 41  1  0
 21 42  1  0
 22 43  1  0
 25 44  1  0
 26 45  1  0
 27 46  1  0
M  END
$$$$
