
     RDKit          3D

 27 28  0  0  0  0  0  0  0  0999 V2000
    4.3752    0.2259    1.1229 C   0  0  0  0  0  0  0  0  0  0  0  0
    3.1087    0.1287    0.3250 C   0  0  0  0  0  0  0  0  0  0  0  0
    3.1523   -0.1521   -1.0428 C   0  0  0  0  0  0  0  0  0  0  0  0
    1.9731   -0.2168   -1.7818 C   0  0  0  0  0  0  0  0  0  0  0  0
    0.7411    0.0079   -1.1619 C   0  0  0  0  0  0  0  0  0  0  0  0
    0.6681    0.3136    0.2014 C   0  0  0  0  0  0  0  0  0  0  0  0
   -0.5442    0.5178    0.8934 N   0  0  0  0  0  0  0  0  0  0  0  0
   -1.8285    0.1880    0.5082 C   0  0  0  0  0  0  0  0  0  0  0  0
   -2.8805    0.9318    0.8865 C   0  0  0  0  0  0  0  0  0  0  0  0
   -4.2468    0.5489    0.4877 C   0  0  0  0  0  0  0  0  0  0  0  0
   -5.2138    1.2131    0.8424 O   0  0  0  0  0  0  0  0  0  0  0  0
   -4.3566   -0.5704   -0.2791 N   0  0  0  0  0  0  0  0  0  0  0  0
   -3.3110   -1.3719   -0.6212 C   0  0  0  0  0  0  0  0  0  0  0  0
   -3.4671   -2.4130   -1.2506 O   0  0  0  0  0  0  0  0  0  0  0  0
   -2.0810   -0.9480   -0.2152 N   0  0  0  0  0  0  0  0  0  0  0  0
    1.8666    0.3691    0.9319 C   0  0  0  0  0  0  0  0  0  0  0  0
    4.7402    1.2575    1.1208 H   0  0  0  0  0  0  0  0  0  0  0  0
    5.1514   -0.4247    0.7063 H   0  0  0  0  0  0  0  0  0  0  0  0
    4.2091   -0.0897    2.1582 H   0  0  0  0  0  0  0  0  0  0  0  0
    4.1040   -0.3233   -1.5409 H   0  0  0  0  0  0  0  0  0  0  0  0
    2.0113   -0.4354   -2.8461 H   0  0  0  0  0  0  0  0  0  0  0  0
   -0.1535   -0.0207   -1.7775 H   0  0  0  0  0  0  0  0  0  0  0  0
   -0.4759    1.2725    1.5704 H   0  0  0  0  0  0  0  0  0  0  0  0
   -2.7919    1.8317    1.4800 H   0  0  0  0  0  0  0  0  0  0  0  0
   -5.2798   -0.8698   -0.5496 H   0  0  0  0  0  0  0  0  0  0  0  0
   -1.3038   -1.5584   -0.4330 H   0  0  0  0  0  0  0  0  0  0  0  0
    1.8332    0.5879    1.9974 H   0  0  0  0  0  0  0  0  0  0  0  0
  1  2  1  0
  2  3  2  0
  3  4  1  0
  4  5  2  0
  5  6  1  0
  6  7  1  0
  7  8  1  0
  8  9  2  0
  9 10  1  0
 10 11  2  0
 10 12  1  0
 12 13  1  0
 13 14  2  0
 13 15  1  0
  6 16  2  0
 16  2  1  0
 15  8  1  0
  1 17  1  0
  1 18  1  0
  1 19  1  0
  3 20  1  0
  4 21  1  0
  5 22  1  0
  7 23  1  0
  9 24  1  0
 12 25  1  0
 15 26  1  0
 16 27  1  0
M  END
$$$$
