
     RDKit          3D

 41 43  0  0  0  0  0  0  0  0999 V2000
   -4.3275   -1.6211    1.7311 C   0  0  0  0  0  0  0  0  0  0  0  0
   -3.0990   -1.1339    2.4847 C   0  0  0  0  0  0  0  0  0  0  0  0
   -1.8700   -1.9855    2.1551 C   0  0  0  0  0  0  0  0  0  0  0  0
   -0.6229   -1.6060    2.9584 C   0  0  0  0  0  0  0  0  0  0  0  0
    0.0101    0.0616    2.6038 S   0  0  0  0  0  0  0  0  0  0  0  0
    0.6211   -0.1370    0.9885 C   0  0  0  0  0  0  0  0  0  0  0  0
    1.0521   -1.2943    0.5896 N   0  0  0  0  0  0  0  0  0  0  0  0
    1.5652   -1.0634   -0.6662 C   0  0  0  0  0  0  0  0  0  0  0  0
    2.1132   -2.0437   -1.3993 C   0  0  0  0  0  0  0  0  0  0  0  0
    2.6805   -2.0050   -2.7109 C   0  0  0  0  0  0  0  0  0  0  0  0
    2.1654   -1.3242   -3.8538 C   0  0  0  0  0  0  0  0  0  0  0  0
    2.9435   -1.5176   -4.9753 C   0  0  0  0  0  0  0  0  0  0  0  0
    4.2761   -2.5410   -4.6637 S   0  0  0  0  0  0  0  0  0  0  0  0
    3.8150   -2.7265   -3.0252 C   0  0  0  0  0  0  0  0  0  0  0  0
    1.4271    0.3920   -0.9895 C   0  0  0  0  0  0  0  0  0  0  0  0
    1.7948    0.9461   -2.0092 O   0  0  0  0  0  0  0  0  0  0  0  0
    0.7734    0.9031    0.1123 N   0  0  0  0  0  0  0  0  0  0  0  0
    0.3579    2.2604    0.2110 C   0  0  0  0  0  0  0  0  0  0  0  0
    1.1074    3.2791   -0.4014 C   0  0  0  0  0  0  0  0  0  0  0  0
    0.7146    4.6198   -0.3257 C   0  0  0  0  0  0  0  0  0  0  0  0
   -0.4459    4.9688    0.3547 C   0  0  0  0  0  0  0  0  0  0  0  0
   -1.2163    3.9761    0.9495 C   0  0  0  0  0  0  0  0  0  0  0  0
   -0.8203    2.6354    0.8726 C   0  0  0  0  0  0  0  0  0  0  0  0
   -4.1701   -1.5677    0.6491 H   0  0  0  0  0  0  0  0  0  0  0  0
   -5.1947   -1.0012    1.9794 H   0  0  0  0  0  0  0  0  0  0  0  0
   -4.5645   -2.6570    1.9939 H   0  0  0  0  0  0  0  0  0  0  0  0
   -3.3003   -1.1728    3.5615 H   0  0  0  0  0  0  0  0  0  0  0  0
   -2.9237   -0.0852    2.2236 H   0  0  0  0  0  0  0  0  0  0  0  0
   -1.6643   -1.9404    1.0791 H   0  0  0  0  0  0  0  0  0  0  0  0
   -2.1030   -3.0348    2.3776 H   0  0  0  0  0  0  0  0  0  0  0  0
    0.1703   -2.3423    2.7919 H   0  0  0  0  0  0  0  0  0  0  0  0
   -0.8576   -1.6431    4.0280 H   0  0  0  0  0  0  0  0  0  0  0  0
    2.1493   -3.0199   -0.9152 H   0  0  0  0  0  0  0  0  0  0  0  0
    1.2715   -0.7123   -3.8684 H   0  0  0  0  0  0  0  0  0  0  0  0
    2.7894   -1.1083   -5.9641 H   0  0  0  0  0  0  0  0  0  0  0  0
    4.4126   -3.3511   -2.3750 H   0  0  0  0  0  0  0  0  0  0  0  0
    2.0317    3.0571   -0.9310 H   0  0  0  0  0  0  0  0  0  0  0  0
    1.3205    5.3876   -0.8007 H   0  0  0  0  0  0  0  0  0  0  0  0
   -0.7538    6.0095    0.4124 H   0  0  0  0  0  0  0  0  0  0  0  0
   -2.1365    4.2397    1.4655 H   0  0  0  0  0  0  0  0  0  0  0  0
   -1.4923    1.8990    1.3013 H   0  0  0  0  0  0  0  0  0  0  0  0
  1  2  1  0
  2  3  1  0
  3  4  1  0
  4  5  1  0
  5  6  1  0
  6  7  2  0
  7  8  1  0
  8  9  2  3
  9 10  1  0
 10 11  1  0
 11 12  2  0
 12 13  1  0
 13 14  1  0
  8 15  1  0
 15 16  2  0
 15 17  1  0
 17 18  1  0
 18 19  2  0
 19 20  1  0
 20 21  2  0
 21 22  1  0
 22 23  2  0
 17  6  1  0
 23 18  1  0
 14 10  2  0
  1 24  1  0
  1 25  1  0
  1 26  1  0
  2 27  1  0
  2 28  1  0
  3 29  1  0
  3 30  1  0
  4 31  1  0
  4 32  1  0
  9 33  1  0
 11 34  1  0
 12 35  1  0
 14 36  1  0
 19 37  1  0
 20 38  1  0
 21 39  1  0
 22 40  1  0
 23 41  1  0
M  END
$$$$
