
     RDKit          3D

 45 47  0  0  0  0  0  0  0  0999 V2000
    7.1928    0.2490    2.3807 N   0  0  0  0  0  0  0  0  0  0  0  0
    6.1580   -0.2309    2.1663 C   0  0  0  0  0  0  0  0  0  0  0  0
    4.8827   -0.8065    1.8879 C   0  0  0  0  0  0  0  0  0  0  0  0
    4.5731   -2.0170    2.5759 C   0  0  0  0  0  0  0  0  0  0  0  0
    4.3113   -3.0027    3.1301 N   0  0  0  0  0  0  0  0  0  0  0  0
    4.0292   -0.2344    0.9996 C   0  0  0  0  0  0  0  0  0  0  0  0
    2.7166   -0.8050    0.6755 C   0  0  0  0  0  0  0  0  0  0  0  0
    1.8616   -0.2582   -0.2092 C   0  0  0  0  0  0  0  0  0  0  0  0
    0.5322   -0.8115   -0.3881 C   0  0  0  0  0  0  0  0  0  0  0  0
   -0.5431   -0.0535   -0.6910 C   0  0  0  0  0  0  0  0  0  0  0  0
   -1.8545   -0.5585   -0.8216 N   0  0  0  0  0  0  0  0  0  0  0  0
   -2.2233   -1.8787   -0.2738 C   0  0  0  0  0  0  0  0  0  0  0  0
   -3.7087   -2.0682    0.0375 C   0  0  0  0  0  0  0  0  0  0  0  0
   -4.3404   -0.9148    0.8160 C   0  0  0  0  0  0  0  0  0  0  0  0
   -4.8616    0.2000   -0.0904 C   0  0  0  0  0  0  0  0  0  0  0  0
   -3.7835    0.9714   -0.8490 C   0  0  0  0  0  0  0  0  0  0  0  0
   -2.8591    0.0859   -1.6816 C   0  0  0  0  0  0  0  0  0  0  0  0
   -0.3055    1.4471   -0.8165 C   0  0  0  0  0  0  0  0  0  0  0  0
    1.0015    1.7608   -1.5396 C   0  0  0  0  0  0  0  0  0  0  0  0
    2.2117    0.9839   -0.9978 C   0  0  0  0  0  0  0  0  0  0  0  0
    3.1399    1.8699   -0.1609 C   0  0  0  0  0  0  0  0  0  0  0  0
    4.3695    1.0677    0.2796 C   0  0  0  0  0  0  0  0  0  0  0  0
    2.3941   -1.6945    1.2163 H   0  0  0  0  0  0  0  0  0  0  0  0
    0.4254   -1.8786   -0.2204 H   0  0  0  0  0  0  0  0  0  0  0  0
   -1.9007   -2.6606   -0.9720 H   0  0  0  0  0  0  0  0  0  0  0  0
   -1.6820   -2.0416    0.6672 H   0  0  0  0  0  0  0  0  0  0  0  0
   -3.8018   -2.9836    0.6363 H   0  0  0  0  0  0  0  0  0  0  0  0
   -4.2734   -2.2617   -0.8824 H   0  0  0  0  0  0  0  0  0  0  0  0
   -3.6413   -0.5142    1.5592 H   0  0  0  0  0  0  0  0  0  0  0  0
   -5.1978   -1.3113    1.3744 H   0  0  0  0  0  0  0  0  0  0  0  0
   -5.5761   -0.2215   -0.8088 H   0  0  0  0  0  0  0  0  0  0  0  0
   -5.4285    0.9124    0.5216 H   0  0  0  0  0  0  0  0  0  0  0  0
   -3.2045    1.5723   -0.1375 H   0  0  0  0  0  0  0  0  0  0  0  0
   -4.2865    1.6791   -1.5194 H   0  0  0  0  0  0  0  0  0  0  0  0
   -2.3674    0.6876   -2.4549 H   0  0  0  0  0  0  0  0  0  0  0  0
   -3.4319   -0.6603   -2.2454 H   0  0  0  0  0  0  0  0  0  0  0  0
   -1.1075    1.9613   -1.3511 H   0  0  0  0  0  0  0  0  0  0  0  0
   -0.2896    1.8808    0.1921 H   0  0  0  0  0  0  0  0  0  0  0  0
    1.1845    2.8419   -1.5240 H   0  0  0  0  0  0  0  0  0  0  0  0
    0.8721    1.4971   -2.5990 H   0  0  0  0  0  0  0  0  0  0  0  0
    2.7842    0.6561   -1.8789 H   0  0  0  0  0  0  0  0  0  0  0  0
    2.6106    2.2594    0.7189 H   0  0  0  0  0  0  0  0  0  0  0  0
    3.4689    2.7361   -0.7477 H   0  0  0  0  0  0  0  0  0  0  0  0
    4.9784    1.7241    0.9120 H   0  0  0  0  0  0  0  0  0  0  0  0
    4.9704    0.8237   -0.6065 H   0  0  0  0  0  0  0  0  0  0  0  0
  1  2  3  0
  2  3  1  0
  3  4  1  0
  4  5  3  0
  3  6  2  3
  6  7  1  0
  7  8  2  0
  8  9  1  0
  9 10  2  0
 10 11  1  0
 11 12  1  0
 12 13  1  0
 13 14  1  0
 14 15  1  0
 15 16  1  0
 16 17  1  0
 10 18  1  0
 18 19  1  0
 19 20  1  0
 20 21  1  0
 21 22  1  0
 22  6  1  0
 20  8  1  0
 17 11  1  0
  7 23  1  0
  9 24  1  0
 12 25  1  0
 12 26  1  0
 13 27  1  0
 13 28  1  0
 14 29  1  0
 14 30  1  0
 15 31  1  0
 15 32  1  0
 16 33  1  0
 16 34  1  0
 17 35  1  0
 17 36  1  0
 18 37  1  0
 18 38  1  0
 19 39  1  0
 19 40  1  0
 20 41  1  0
 21 42  1  0
 21 43  1  0
 22 44  1  0
 22 45  1  0
M  END
$$$$
