
     RDKit          3D

 47 51  0  0  0  0  0  0  0  0999 V2000
   -4.9067   -2.9075    0.9539 C   0  0  0  0  0  0  0  0  0  0  0  0
   -5.0252   -1.5014    0.4901 C   0  0  0  0  0  0  0  0  0  0  0  0
   -3.9771   -0.6255    0.2330 C   0  0  0  0  0  0  0  0  0  0  0  0
   -2.5339   -0.7923    0.3262 C   0  0  0  0  0  0  0  0  0  0  0  0
   -2.0167   -1.8479    0.6760 O   0  0  0  0  0  0  0  0  0  0  0  0
   -1.8467    0.3587   -0.0195 N   0  0  0  0  0  0  0  0  0  0  0  0
   -0.4561    0.5751   -0.0536 C   0  0  0  0  0  0  0  0  0  0  0  0
   -0.0282    1.8508   -0.4333 C   0  0  0  0  0  0  0  0  0  0  0  0
    1.3344    2.1690   -0.4987 C   0  0  0  0  0  0  0  0  0  0  0  0
    2.2942    1.1912   -0.1801 C   0  0  0  0  0  0  0  0  0  0  0  0
    3.6652    1.3624   -0.2012 N   0  0  0  0  0  0  0  0  0  0  0  0
    4.2913    0.2550    0.1350 C   0  0  0  0  0  0  0  0  0  0  0  0
    5.6484    0.1635    0.1902 N   0  0  0  0  0  0  0  0  0  0  0  0
    6.3757   -1.0940    0.3633 C   0  0  0  0  0  0  0  0  0  0  0  0
    7.7611   -0.9990   -0.2997 C   0  0  0  0  0  0  0  0  0  0  0  0
    8.5788    0.0647    0.2074 O   0  0  0  0  0  0  0  0  0  0  0  0
    7.8252    1.2063    0.6439 C   0  0  0  0  0  0  0  0  0  0  0  0
    6.4602    1.3610   -0.0453 C   0  0  0  0  0  0  0  0  0  0  0  0
    3.2272   -1.0554    0.5202 S   0  0  0  0  0  0  0  0  0  0  0  0
    1.8566   -0.0742    0.1945 C   0  0  0  0  0  0  0  0  0  0  0  0
    0.4892   -0.4056    0.2667 C   0  0  0  0  0  0  0  0  0  0  0  0
   -4.4704    0.5868   -0.1775 O   0  0  0  0  0  0  0  0  0  0  0  0
   -5.8256    0.4912   -0.1882 C   0  0  0  0  0  0  0  0  0  0  0  0
   -6.7009    1.5123   -0.5522 C   0  0  0  0  0  0  0  0  0  0  0  0
   -8.0660    1.2142   -0.4986 C   0  0  0  0  0  0  0  0  0  0  0  0
   -8.5125   -0.0469   -0.0981 C   0  0  0  0  0  0  0  0  0  0  0  0
   -7.6049   -1.0533    0.2631 C   0  0  0  0  0  0  0  0  0  0  0  0
   -6.2253   -0.7757    0.2154 C   0  0  0  0  0  0  0  0  0  0  0  0
   -5.8886   -3.3644    1.1092 H   0  0  0  0  0  0  0  0  0  0  0  0
   -4.3701   -3.5102    0.2143 H   0  0  0  0  0  0  0  0  0  0  0  0
   -4.3633   -2.9546    1.9027 H   0  0  0  0  0  0  0  0  0  0  0  0
   -2.4436    1.1376   -0.2786 H   0  0  0  0  0  0  0  0  0  0  0  0
   -0.7476    2.6267   -0.6857 H   0  0  0  0  0  0  0  0  0  0  0  0
    1.6596    3.1620   -0.7923 H   0  0  0  0  0  0  0  0  0  0  0  0
    5.8464   -1.9388   -0.0903 H   0  0  0  0  0  0  0  0  0  0  0  0
    6.4918   -1.2890    1.4356 H   0  0  0  0  0  0  0  0  0  0  0  0
    8.3115   -1.9340   -0.1552 H   0  0  0  0  0  0  0  0  0  0  0  0
    7.6549   -0.8481   -1.3804 H   0  0  0  0  0  0  0  0  0  0  0  0
    7.6917    1.1141    1.7285 H   0  0  0  0  0  0  0  0  0  0  0  0
    8.4409    2.0935    0.4661 H   0  0  0  0  0  0  0  0  0  0  0  0
    6.5991    1.4894   -1.1254 H   0  0  0  0  0  0  0  0  0  0  0  0
    5.9750    2.2612    0.3506 H   0  0  0  0  0  0  0  0  0  0  0  0
    0.2078   -1.4086    0.5657 H   0  0  0  0  0  0  0  0  0  0  0  0
   -6.3381    2.4851   -0.8606 H   0  0  0  0  0  0  0  0  0  0  0  0
   -8.7910    1.9775   -0.7740 H   0  0  0  0  0  0  0  0  0  0  0  0
   -9.5803   -0.2536   -0.0651 H   0  0  0  0  0  0  0  0  0  0  0  0
   -7.9675   -2.0290    0.5721 H   0  0  0  0  0  0  0  0  0  0  0  0
  1  2  1  0
  2  3  2  0
  3  4  1  0
  4  5  2  0
  4  6  1  0
  6  7  1  0
  7  8  2  0
  8  9  1  0
  9 10  2  0
 10 11  1  0
 11 12  2  0
 12 13  1  0
 13 14  1  0
 14 15  1  0
 15 16  1  0
 16 17  1  0
 17 18  1  0
 12 19  1  0
 19 20  1  0
 20 21  2  0
  3 22  1  0
 22 23  1  0
 23 24  2  0
 24 25  1  0
 25 26  2  0
 26 27  1  0
 27 28  2  0
 28  2  1  0
 21  7  1  0
 28 23  1  0
 20 10  1  0
 18 13  1  0
  1 29  1  0
  1 30  1  0
  1 31  1  0
  6 32  1  0
  8 33  1  0
  9 34  1  0
 14 35  1  0
 14 36  1  0
 15 37  1  0
 15 38  1  0
 17 39  1  0
 17 40  1  0
 18 41  1  0
 18 42  1  0
 21 43  1  0
 24 44  1  0
 25 45  1  0
 26 46  1  0
 27 47  1  0
M  END
$$$$
