
     RDKit          3D

 31 33  0  0  0  0  0  0  0  0999 V2000
   -1.2947    2.9424   -0.8650 O   0  0  0  0  0  0  0  0  0  0  0  0
   -1.1550    2.1205    0.0220 C   0  0  0  0  0  0  0  0  0  0  0  0
   -0.3919    2.4070    1.0962 O   0  0  0  0  0  0  0  0  0  0  0  0
   -1.7789    0.7729    0.0612 C   0  0  0  0  0  0  0  0  0  0  0  0
   -2.7124    0.4902   -0.9507 C   0  0  0  0  0  0  0  0  0  0  0  0
   -3.3602   -0.7450   -0.9952 C   0  0  0  0  0  0  0  0  0  0  0  0
   -3.0825   -1.7081   -0.0298 C   0  0  0  0  0  0  0  0  0  0  0  0
   -2.1534   -1.4411    0.9769 C   0  0  0  0  0  0  0  0  0  0  0  0
   -1.4920   -0.2088    1.0279 C   0  0  0  0  0  0  0  0  0  0  0  0
   -0.5275   -0.0001    2.0668 N   0  0  0  0  0  0  0  0  0  0  0  0
    0.9315   -0.8595    2.0252 S   0  0  0  0  0  6  0  0  0  0  0  0
    0.6805   -2.2822    1.9954 O   0  0  0  0  0  0  0  0  0  0  0  0
    1.7365   -0.2875    3.0880 O   0  0  0  0  0  0  0  0  0  0  0  0
    1.6834   -0.3703    0.5096 C   0  0  0  0  0  0  0  0  0  0  0  0
    2.6714    0.6439    0.5094 C   0  0  0  0  0  0  0  0  0  0  0  0
    3.3289    1.0854   -0.6616 C   0  0  0  0  0  0  0  0  0  0  0  0
    3.0639    0.5496   -1.9313 C   0  0  0  0  0  0  0  0  0  0  0  0
    2.0937   -0.4795   -1.9885 C   0  0  0  0  0  0  0  0  0  0  0  0
    1.7031   -1.1146   -3.1032 N   0  0  0  0  0  0  0  0  0  0  0  0
    0.5600   -2.2222   -2.6385 S   0  0  0  0  0  0  0  0  0  0  0  0
    0.5040   -1.9357   -1.0094 N   0  0  0  0  0  0  0  0  0  0  0  0
    1.3857   -0.9611   -0.7398 C   0  0  0  0  0  0  0  0  0  0  0  0
   -0.1084    3.3330    0.9203 H   0  0  0  0  0  0  0  0  0  0  0  0
   -2.9420    1.2348   -1.7116 H   0  0  0  0  0  0  0  0  0  0  0  0
   -4.0806   -0.9549   -1.7824 H   0  0  0  0  0  0  0  0  0  0  0  0
   -3.5815   -2.6740   -0.0608 H   0  0  0  0  0  0  0  0  0  0  0  0
   -1.9439   -2.2087    1.7197 H   0  0  0  0  0  0  0  0  0  0  0  0
   -0.3418    0.9899    2.2682 H   0  0  0  0  0  0  0  0  0  0  0  0
    2.9517    1.1153    1.4539 H   0  0  0  0  0  0  0  0  0  0  0  0
    4.0789    1.8730   -0.5746 H   0  0  0  0  0  0  0  0  0  0  0  0
    3.5739    0.8953   -2.8231 H   0  0  0  0  0  0  0  0  0  0  0  0
  1  2  2  0
  2  3  1  0
  2  4  1  0
  4  5  2  0
  5  6  1  0
  6  7  2  0
  7  8  1  0
  8  9  2  0
  9 10  1  0
 10 11  1  0
 11 12  2  0
 11 13  2  0
 11 14  1  0
 14 15  2  0
 15 16  1  0
 16 17  2  0
 17 18  1  0
 18 19  2  0
 19 20  1  0
 20 21  1  0
 21 22  2  0
  9  4  1  0
 22 14  1  0
 22 18  1  0
  3 23  1  0
  5 24  1  0
  6 25  1  0
  7 26  1  0
  8 27  1  0
 10 28  1  0
 15 29  1  0
 16 30  1  0
 17 31  1  0
M  END
$$$$
