
     RDKit          3D

 52 57  0  0  0  0  0  0  0  0999 V2000
   -6.0526   -2.4823    0.3118 C   0  0  0  0  0  0  0  0  0  0  0  0
   -4.6608   -1.9170    0.2612 C   0  0  0  0  0  0  0  0  0  0  0  0
   -4.2528   -1.1458   -0.8385 C   0  0  0  0  0  0  0  0  0  0  0  0
   -2.9749   -0.5893   -0.8747 C   0  0  0  0  0  0  0  0  0  0  0  0
   -2.1251   -0.8073    0.2034 C   0  0  0  0  0  0  0  0  0  0  0  0
   -0.7881   -0.2454    0.1581 N   0  0  0  0  0  0  0  0  0  0  0  0
   -0.4294    1.0989   -0.0624 C   0  0  0  0  0  0  0  0  0  0  0  0
   -1.3076    2.4169   -0.0830 C   0  0  0  0  0  0  0  0  0  0  0  0
   -2.6062    2.4300    0.4338 C   0  0  0  0  0  0  0  0  0  0  0  0
   -3.3638    3.6063    0.4131 C   0  0  0  0  0  0  0  0  0  0  0  0
   -2.8204    4.7740   -0.1147 C   0  0  0  0  0  0  0  0  0  0  0  0
   -3.8451    6.3601   -0.1417 Br  0  0  0  0  0  0  0  0  0  0  0  0
   -1.5214    4.7789   -0.6143 C   0  0  0  0  0  0  0  0  0  0  0  0
   -0.7624    3.6040   -0.5929 C   0  0  0  0  0  0  0  0  0  0  0  0
    0.9406    1.0703   -0.2341 C   0  0  0  0  0  0  0  0  0  0  0  0
    1.3872   -0.2191   -0.0257 N   0  0  0  0  0  4  0  0  0  0  0  0
    0.3243   -1.0113    0.1927 C   0  0  0  0  0  0  0  0  0  0  0  0
    0.4588   -2.4856    0.4005 C   0  0  0  0  0  0  0  0  0  0  0  0
    1.6843   -3.0363   -0.3001 C   0  0  0  0  0  0  0  0  0  0  0  0
    2.8840   -2.1492   -0.0960 C   0  0  0  0  0  0  0  0  0  0  0  0
    4.1589   -2.7132   -0.0957 C   0  0  0  0  0  0  0  0  0  0  0  0
    5.2808   -1.8955    0.0155 C   0  0  0  0  0  0  0  0  0  0  0  0
    5.1529   -0.4999    0.1194 C   0  0  0  0  0  0  0  0  0  0  0  0
    6.2952    0.3026    0.2406 C   0  0  0  0  0  0  0  0  0  0  0  0
    6.1721    1.6791    0.3575 C   0  0  0  0  0  0  0  0  0  0  0  0
    4.9025    2.2120    0.3490 C   0  0  0  0  0  0  0  0  0  0  0  0
    3.7776    1.4691    0.2283 N   0  0  0  0  0  0  0  0  0  0  0  0
    3.8829    0.1186    0.1088 C   0  0  0  0  0  0  0  0  0  0  0  0
    2.7720   -0.7464   -0.0077 C   0  0  0  0  0  0  0  0  0  0  0  0
   -2.5011   -1.5561    1.3120 C   0  0  0  0  0  0  0  0  0  0  0  0
   -3.7822   -2.1062    1.3398 C   0  0  0  0  0  0  0  0  0  0  0  0
   -6.0753   -3.4113    0.8911 H   0  0  0  0  0  0  0  0  0  0  0  0
   -6.4145   -2.7179   -0.6945 H   0  0  0  0  0  0  0  0  0  0  0  0
   -6.7324   -1.7596    0.7734 H   0  0  0  0  0  0  0  0  0  0  0  0
   -4.9343   -0.9789   -1.6719 H   0  0  0  0  0  0  0  0  0  0  0  0
   -2.6628   -0.0081   -1.7360 H   0  0  0  0  0  0  0  0  0  0  0  0
   -3.0524    1.5586    0.8996 H   0  0  0  0  0  0  0  0  0  0  0  0
   -4.3722    3.6035    0.8219 H   0  0  0  0  0  0  0  0  0  0  0  0
   -1.0915    5.6915   -1.0222 H   0  0  0  0  0  0  0  0  0  0  0  0
    0.2442    3.6489   -1.0004 H   0  0  0  0  0  0  0  0  0  0  0  0
    1.6469    1.8502   -0.4528 H   0  0  0  0  0  0  0  0  0  0  0  0
   -0.4440   -2.9731    0.0276 H   0  0  0  0  0  0  0  0  0  0  0  0
    0.5262   -2.6109    1.4861 H   0  0  0  0  0  0  0  0  0  0  0  0
    1.8792   -4.0524    0.0615 H   0  0  0  0  0  0  0  0  0  0  0  0
    1.4965   -3.0986   -1.3793 H   0  0  0  0  0  0  0  0  0  0  0  0
    4.2966   -3.7900   -0.1898 H   0  0  0  0  0  0  0  0  0  0  0  0
    6.2680   -2.3589    0.0181 H   0  0  0  0  0  0  0  0  0  0  0  0
    7.2903   -0.1390    0.2500 H   0  0  0  0  0  0  0  0  0  0  0  0
    7.0452    2.3157    0.4560 H   0  0  0  0  0  0  0  0  0  0  0  0
    4.7481    3.2840    0.4427 H   0  0  0  0  0  0  0  0  0  0  0  0
   -1.8393   -1.6892    2.1606 H   0  0  0  0  0  0  0  0  0  0  0  0
   -4.1024   -2.6797    2.2090 H   0  0  0  0  0  0  0  0  0  0  0  0
  1  2  1  0
  2  3  2  0
  3  4  1  0
  4  5  2  0
  5  6  1  0
  6  7  1  0
  7  8  1  0
  8  9  2  0
  9 10  1  0
 10 11  2  0
 11 12  1  0
 11 13  1  0
 13 14  2  0
  7 15  2  0
 15 16  1  0
 16 17  2  0
 17 18  1  0
 18 19  1  0
 19 20  1  0
 20 21  2  0
 21 22  1  0
 22 23  2  0
 23 24  1  0
 24 25  2  0
 25 26  1  0
 26 27  2  0
 27 28  1  0
 28 29  2  0
  5 30  1  0
 30 31  2  0
 31  2  1  0
 17  6  1  0
 29 20  1  0
 14  8  1  0
 29 16  1  0
 28 23  1  0
  1 32  1  0
  1 33  1  0
  1 34  1  0
  3 35  1  0
  4 36  1  0
  9 37  1  0
 10 38  1  0
 13 39  1  0
 14 40  1  0
 15 41  1  0
 18 42  1  0
 18 43  1  0
 19 44  1  0
 19 45  1  0
 21 46  1  0
 22 47  1  0
 24 48  1  0
 25 49  1  0
 26 50  1  0
 30 51  1  0
 31 52  1  0
M  CHG  1  16   1
M  END
$$$$
