
     RDKit          3D

 56 59  0  0  0  0  0  0  0  0999 V2000
   -3.8875    4.3524   -1.4061 C   0  0  0  0  0  0  0  0  0  0  0  0
   -3.8138    4.2342    0.1054 C   0  0  0  0  0  0  0  0  0  0  0  0
   -3.6565    2.8612    0.4894 O   0  0  0  0  0  0  0  0  0  0  0  0
   -2.3822    2.3794    0.4943 C   0  0  0  0  0  0  0  0  0  0  0  0
   -1.3968    3.0446    0.1845 O   0  0  0  0  0  0  0  0  0  0  0  0
   -2.2889    0.9674    0.8833 C   0  0  0  0  0  0  0  0  0  0  0  0
   -1.0755    0.2846    0.8424 C   0  0  0  0  0  0  0  0  0  0  0  0
    0.1475    0.8217    0.4611 N   0  0  0  0  0  0  0  0  0  0  0  0
    1.3786    0.1773    0.3938 C   0  0  0  0  0  0  0  0  0  0  0  0
    1.6177   -0.9821    0.7178 O   0  0  0  0  0  0  0  0  0  0  0  0
    2.4692    1.1322   -0.1146 C   0  0  0  0  0  0  0  0  0  0  0  0
    3.6636    0.4016   -0.5128 N   0  0  0  0  0  0  0  0  0  0  0  0
    3.7133   -0.0223   -1.8227 N   0  0  0  0  0  0  0  0  0  0  0  0
    4.6986   -0.7883   -2.1854 C   0  0  0  0  0  0  0  0  0  0  0  0
    4.7267   -1.2225   -3.6385 C   0  0  0  0  0  0  0  0  0  0  0  0
    4.3253   -2.2920   -4.0470 O   0  0  0  0  0  0  0  0  0  0  0  0
    5.2991   -0.2987   -4.4185 O   0  0  0  0  0  0  0  0  0  0  0  0
    5.7676   -1.2404   -1.2873 C   0  0  0  0  0  0  0  0  0  0  0  0
    6.8004   -2.0920   -1.6996 C   0  0  0  0  0  0  0  0  0  0  0  0
    7.7914   -2.4705   -0.7903 C   0  0  0  0  0  0  0  0  0  0  0  0
    7.7536   -2.0037    0.5234 C   0  0  0  0  0  0  0  0  0  0  0  0
    6.7219   -1.1587    0.9329 C   0  0  0  0  0  0  0  0  0  0  0  0
    5.7272   -0.7784    0.0232 C   0  0  0  0  0  0  0  0  0  0  0  0
    4.6245    0.1040    0.4497 C   0  0  0  0  0  0  0  0  0  0  0  0
    4.6033    0.5368    1.5996 O   0  0  0  0  0  0  0  0  0  0  0  0
   -1.2241   -1.3404    1.2984 S   0  0  0  0  0  0  0  0  0  0  0  0
   -2.8906   -1.1918    1.5597 C   0  0  0  0  0  0  0  0  0  0  0  0
   -3.3543    0.0909    1.3340 C   0  0  0  0  0  0  0  0  0  0  0  0
   -4.8087    0.4325    1.5138 C   0  0  0  0  0  0  0  0  0  0  0  0
   -5.5830   -0.6645    2.2631 C   0  0  0  0  0  0  0  0  0  0  0  0
   -5.2204   -2.0919    1.8072 C   0  0  0  0  0  0  0  0  0  0  0  0
   -5.6465   -2.3523    0.3585 C   0  0  0  0  0  0  0  0  0  0  0  0
   -3.7146   -2.3594    2.0129 C   0  0  0  0  0  0  0  0  0  0  0  0
   -4.0836    5.3864   -1.7052 H   0  0  0  0  0  0  0  0  0  0  0  0
   -2.9520    4.0268   -1.8723 H   0  0  0  0  0  0  0  0  0  0  0  0
   -4.6817    3.7115   -1.8039 H   0  0  0  0  0  0  0  0  0  0  0  0
   -3.0130    4.8573    0.5203 H   0  0  0  0  0  0  0  0  0  0  0  0
   -4.7543    4.5823    0.5462 H   0  0  0  0  0  0  0  0  0  0  0  0
    0.1125    1.8065    0.2002 H   0  0  0  0  0  0  0  0  0  0  0  0
    2.7090    1.8384    0.6877 H   0  0  0  0  0  0  0  0  0  0  0  0
    2.0992    1.6938   -0.9801 H   0  0  0  0  0  0  0  0  0  0  0  0
    5.2180   -0.6594   -5.3246 H   0  0  0  0  0  0  0  0  0  0  0  0
    6.8522   -2.4794   -2.7142 H   0  0  0  0  0  0  0  0  0  0  0  0
    8.5931   -3.1351   -1.1052 H   0  0  0  0  0  0  0  0  0  0  0  0
    8.5234   -2.3023    1.2313 H   0  0  0  0  0  0  0  0  0  0  0  0
    6.6889   -0.8032    1.9608 H   0  0  0  0  0  0  0  0  0  0  0  0
   -5.2584    0.5870    0.5261 H   0  0  0  0  0  0  0  0  0  0  0  0
   -4.9127    1.3672    2.0753 H   0  0  0  0  0  0  0  0  0  0  0  0
   -5.3642   -0.5794    3.3361 H   0  0  0  0  0  0  0  0  0  0  0  0
   -6.6599   -0.4905    2.1525 H   0  0  0  0  0  0  0  0  0  0  0  0
   -5.7757   -2.8018    2.4341 H   0  0  0  0  0  0  0  0  0  0  0  0
   -6.7168   -2.1600    0.2317 H   0  0  0  0  0  0  0  0  0  0  0  0
   -5.4619   -3.3977    0.0872 H   0  0  0  0  0  0  0  0  0  0  0  0
   -5.1041   -1.7249   -0.3558 H   0  0  0  0  0  0  0  0  0  0  0  0
   -3.4183   -3.2776    1.4924 H   0  0  0  0  0  0  0  0  0  0  0  0
   -3.5258   -2.5172    3.0820 H   0  0  0  0  0  0  0  0  0  0  0  0
  1  2  1  0
  2  3  1  0
  3  4  1  0
  4  5  2  0
  4  6  1  0
  6  7  2  0
  7  8  1  0
  8  9  1  0
  9 10  2  0
  9 11  1  0
 11 12  1  0
 12 13  1  0
 13 14  2  0
 14 15  1  0
 15 16  2  0
 15 17  1  0
 14 18  1  0
 18 19  2  0
 19 20  1  0
 20 21  2  0
 21 22  1  0
 22 23  2  0
 23 24  1  0
 24 25  2  0
  7 26  1  0
 26 27  1  0
 27 28  2  0
 28 29  1  0
 29 30  1  0
 30 31  1  0
 31 32  1  0
 31 33  1  0
 28  6  1  0
 24 12  1  0
 33 27  1  0
 23 18  1  0
  1 34  1  0
  1 35  1  0
  1 36  1  0
  2 37  1  0
  2 38  1  0
  8 39  1  0
 11 40  1  0
 11 41  1  0
 17 42  1  0
 19 43  1  0
 20 44  1  0
 21 45  1  0
 22 46  1  0
 29 47  1  0
 29 48  1  0
 30 49  1  0
 30 50  1  0
 31 51  1  0
 32 52  1  0
 32 53  1  0
 32 54  1  0
 33 55  1  0
 33 56  1  0
M  END
$$$$
