
     RDKit          3D

 36 38  0  0  0  0  0  0  0  0999 V2000
   -5.9914    0.7210   -2.0385 C   0  0  0  0  0  0  0  0  0  0  0  0
   -4.8708    0.2333   -1.1669 C   0  0  0  0  0  0  0  0  0  0  0  0
   -5.1037   -0.0667    0.1824 C   0  0  0  0  0  0  0  0  0  0  0  0
   -4.0725   -0.5530    0.9875 C   0  0  0  0  0  0  0  0  0  0  0  0
   -2.8030   -0.7432    0.4371 C   0  0  0  0  0  0  0  0  0  0  0  0
   -1.4884   -1.3636    1.4551 S   0  0  0  0  0  6  0  0  0  0  0  0
   -0.5629   -2.0884    0.6085 O   0  0  0  0  0  0  0  0  0  0  0  0
   -2.0765   -1.9713    2.6274 O   0  0  0  0  0  0  0  0  0  0  0  0
   -0.7323    0.0972    1.9415 N   0  0  0  0  0  0  0  0  0  0  0  0
    0.7646    0.0928    1.7013 N   0  0  0  0  0  0  0  0  0  0  0  0
    1.2220    0.4839    0.4565 C   0  0  0  0  0  0  0  0  0  0  0  0
    0.5273    0.9454   -0.4403 O   0  0  0  0  0  0  0  0  0  0  0  0
    2.6955    0.2832    0.3892 C   0  0  0  0  0  0  0  0  0  0  0  0
    3.3635    0.5643   -0.7379 C   0  0  0  0  0  0  0  0  0  0  0  0
    4.7665    0.4044   -0.9339 C   0  0  0  0  0  0  0  0  0  0  0  0
    5.8456    0.6432   -0.0987 C   0  0  0  0  0  0  0  0  0  0  0  0
    7.1025    0.3530   -0.7066 C   0  0  0  0  0  0  0  0  0  0  0  0
    6.9576   -0.0842   -2.0014 C   0  0  0  0  0  0  0  0  0  0  0  0
    5.3204   -0.1327   -2.4798 S   0  0  0  0  0  0  0  0  0  0  0  0
    3.2716   -0.3616    1.8828 S   0  0  0  0  0  0  0  0  0  0  0  0
    1.6689   -0.4036    2.6137 C   0  0  0  0  0  0  0  0  0  0  0  0
    1.3804   -0.9297    4.1659 S   0  0  0  0  0  0  0  0  0  0  0  0
   -2.5621   -0.4755   -0.9121 C   0  0  0  0  0  0  0  0  0  0  0  0
   -3.5978    0.0120   -1.7104 C   0  0  0  0  0  0  0  0  0  0  0  0
   -6.7097    1.3094   -1.4579 H   0  0  0  0  0  0  0  0  0  0  0  0
   -6.5120   -0.1295   -2.4891 H   0  0  0  0  0  0  0  0  0  0  0  0
   -5.6119    1.3679   -2.8365 H   0  0  0  0  0  0  0  0  0  0  0  0
   -6.0942    0.0723    0.6119 H   0  0  0  0  0  0  0  0  0  0  0  0
   -4.2709   -0.7854    2.0321 H   0  0  0  0  0  0  0  0  0  0  0  0
   -1.1851    0.9043    1.4994 H   0  0  0  0  0  0  0  0  0  0  0  0
    2.7944    0.9145   -1.5998 H   0  0  0  0  0  0  0  0  0  0  0  0
    5.7526    1.0189    0.9130 H   0  0  0  0  0  0  0  0  0  0  0  0
    8.0627    0.4654   -0.2179 H   0  0  0  0  0  0  0  0  0  0  0  0
    7.7362   -0.3711   -2.6949 H   0  0  0  0  0  0  0  0  0  0  0  0
   -1.5800   -0.6420   -1.3507 H   0  0  0  0  0  0  0  0  0  0  0  0
   -3.4072    0.2153   -2.7627 H   0  0  0  0  0  0  0  0  0  0  0  0
  1  2  1  0
  2  3  2  0
  3  4  1  0
  4  5  2  0
  5  6  1  0
  6  7  2  0
  6  8  2  0
  6  9  1  0
  9 10  1  0
 10 11  1  0
 11 12  2  0
 11 13  1  0
 13 14  2  3
 14 15  1  0
 15 16  2  0
 16 17  1  0
 17 18  2  0
 18 19  1  0
 13 20  1  0
 20 21  1  0
 21 22  2  0
  5 23  1  0
 23 24  2  0
 24  2  1  0
 21 10  1  0
 19 15  1  0
  1 25  1  0
  1 26  1  0
  1 27  1  0
  3 28  1  0
  4 29  1  0
  9 30  1  0
 14 31  1  0
 16 32  1  0
 17 33  1  0
 18 34  1  0
 23 35  1  0
 24 36  1  0
M  END
$$$$
