
     RDKit          3D

 48 51  0  0  0  0  0  0  0  0999 V2000
    3.4153   -0.0558    1.2865 O   0  0  0  0  0  0  0  0  0  0  0  0
    3.5746    0.2751    0.1200 C   0  0  0  0  0  0  0  0  0  0  0  0
    2.6168    0.2964   -0.8950 N   0  0  0  0  0  0  0  0  0  0  0  0
    1.4036   -0.3355   -1.0499 C   0  0  0  0  0  0  0  0  0  0  0  0
    0.9620   -0.5932   -2.6562 S   0  0  0  0  0  0  0  0  0  0  0  0
    0.6469   -0.6970    0.0408 N   0  0  0  0  0  0  0  0  0  0  0  0
    0.6479    0.0700    1.3018 C   0  0  0  0  0  0  0  0  0  0  0  0
   -0.7832    0.2951    1.8355 C   0  0  0  0  0  0  0  0  0  0  0  0
   -1.4763   -0.9653    2.1418 N   0  0  0  0  0  0  0  0  0  0  0  0
   -2.9190   -0.8372    2.3547 C   0  0  0  0  0  0  0  0  0  0  0  0
   -3.7567   -0.4667    1.1464 C   0  0  0  0  0  0  0  0  0  0  0  0
   -4.0466    0.8910    0.8673 C   0  0  0  0  0  0  0  0  0  0  0  0
   -4.8101    1.2563   -0.2464 C   0  0  0  0  0  0  0  0  0  0  0  0
   -5.2765    0.2489   -1.0604 C   0  0  0  0  0  0  0  0  0  0  0  0
   -5.0135   -1.0733   -0.7956 C   0  0  0  0  0  0  0  0  0  0  0  0
   -4.2659   -1.4631    0.2960 C   0  0  0  0  0  0  0  0  0  0  0  0
   -5.5686   -1.9076   -1.7150 O   0  0  0  0  0  0  0  0  0  0  0  0
   -6.2015   -0.9559   -2.5958 C   0  0  0  0  0  0  0  0  0  0  0  0
   -6.0291    0.4149   -2.1804 O   0  0  0  0  0  0  0  0  0  0  0  0
   -1.0544   -2.0779    1.2795 C   0  0  0  0  0  0  0  0  0  0  0  0
   -0.4848   -1.6405   -0.0830 C   0  0  0  0  0  0  0  0  0  0  0  0
    4.9162    0.7844   -0.2818 C   0  0  0  0  0  0  0  0  0  0  0  0
    5.6326    1.5685    0.6326 C   0  0  0  0  0  0  0  0  0  0  0  0
    6.8957    2.0617    0.2960 C   0  0  0  0  0  0  0  0  0  0  0  0
    7.4465    1.7608   -0.9486 C   0  0  0  0  0  0  0  0  0  0  0  0
    9.0019    2.3663   -1.3637 Cl  0  0  0  0  0  0  0  0  0  0  0  0
    6.7491    0.9641   -1.8570 C   0  0  0  0  0  0  0  0  0  0  0  0
    5.4842    0.4691   -1.5242 C   0  0  0  0  0  0  0  0  0  0  0  0
    2.9605    0.5891   -1.7994 H   0  0  0  0  0  0  0  0  0  0  0  0
    1.2147   -0.5051    2.0416 H   0  0  0  0  0  0  0  0  0  0  0  0
    1.1246    1.0436    1.1515 H   0  0  0  0  0  0  0  0  0  0  0  0
   -0.7358    0.9067    2.7435 H   0  0  0  0  0  0  0  0  0  0  0  0
   -1.3219    0.8718    1.0761 H   0  0  0  0  0  0  0  0  0  0  0  0
   -3.0983   -0.0992    3.1482 H   0  0  0  0  0  0  0  0  0  0  0  0
   -3.3047   -1.7761    2.7746 H   0  0  0  0  0  0  0  0  0  0  0  0
   -3.6697    1.6721    1.5251 H   0  0  0  0  0  0  0  0  0  0  0  0
   -5.0280    2.2957   -0.4633 H   0  0  0  0  0  0  0  0  0  0  0  0
   -4.0871   -2.5163    0.4821 H   0  0  0  0  0  0  0  0  0  0  0  0
   -5.7796   -1.0736   -3.6006 H   0  0  0  0  0  0  0  0  0  0  0  0
   -7.2743   -1.1770   -2.6371 H   0  0  0  0  0  0  0  0  0  0  0  0
   -1.8508   -2.8155    1.1353 H   0  0  0  0  0  0  0  0  0  0  0  0
   -0.2622   -2.6149    1.8181 H   0  0  0  0  0  0  0  0  0  0  0  0
   -0.1442   -2.5223   -0.6375 H   0  0  0  0  0  0  0  0  0  0  0  0
   -1.2696   -1.1516   -0.6726 H   0  0  0  0  0  0  0  0  0  0  0  0
    5.2083    1.7955    1.6093 H   0  0  0  0  0  0  0  0  0  0  0  0
    7.4438    2.6723    1.0093 H   0  0  0  0  0  0  0  0  0  0  0  0
    7.1905    0.7158   -2.8195 H   0  0  0  0  0  0  0  0  0  0  0  0
    4.9764   -0.1834   -2.2302 H   0  0  0  0  0  0  0  0  0  0  0  0
  1  2  2  0
  2  3  1  0
  3  4  1  0
  4  5  2  0
  4  6  1  0
  6  7  1  0
  7  8  1  0
  8  9  1  0
  9 10  1  0
 10 11  1  0
 11 12  2  0
 12 13  1  0
 13 14  2  0
 14 15  1  0
 15 16  2  0
 15 17  1  0
 17 18  1  0
 18 19  1  0
  9 20  1  0
 20 21  1  0
  2 22  1  0
 22 23  2  0
 23 24  1  0
 24 25  2  0
 25 26  1  0
 25 27  1  0
 27 28  2  0
 21  6  1  0
 28 22  1  0
 16 11  1  0
 19 14  1  0
  3 29  1  0
  7 30  1  0
  7 31  1  0
  8 32  1  0
  8 33  1  0
 10 34  1  0
 10 35  1  0
 12 36  1  0
 13 37  1  0
 16 38  1  0
 18 39  1  0
 18 40  1  0
 20 41  1  0
 20 42  1  0
 21 43  1  0
 21 44  1  0
 23 45  1  0
 24 46  1  0
 27 47  1  0
 28 48  1  0
M  END
$$$$
