
     RDKit          3D

 62 65  0  0  0  0  0  0  0  0999 V2000
    9.2585    1.4620    1.3171 C   0  0  0  0  0  0  0  0  0  0  0  0
    7.8826    1.4278    0.7192 C   0  0  0  0  0  0  0  0  0  0  0  0
    7.7061    1.6095   -0.6571 C   0  0  0  0  0  0  0  0  0  0  0  0
    6.4250    1.6084   -1.2154 C   0  0  0  0  0  0  0  0  0  0  0  0
    5.2966    1.4408   -0.4041 C   0  0  0  0  0  0  0  0  0  0  0  0
    3.9117    1.4164   -0.9968 C   0  0  0  0  0  0  0  0  0  0  0  0
    3.5300    0.0707   -1.3564 N   0  0  0  0  0  0  0  0  0  0  0  0
    2.8114   -0.7323   -0.4957 C   0  0  0  0  0  0  0  0  0  0  0  0
    2.3895   -0.3519    0.5896 O   0  0  0  0  0  0  0  0  0  0  0  0
    2.6490   -2.1451   -1.0214 C   0  0  0  0  0  0  0  0  0  0  0  0
    1.6120   -2.9686   -0.2589 C   0  0  0  0  0  0  0  0  0  0  0  0
    0.1972   -2.6132   -0.6051 C   0  0  0  0  0  0  0  0  0  0  0  0
   -0.5067   -2.9507   -1.7879 C   0  0  0  0  0  0  0  0  0  0  0  0
   -0.0283   -3.7362   -2.9542 C   0  0  0  0  0  0  0  0  0  0  0  0
   -1.7457   -2.4594   -1.7930 N   0  0  0  0  0  0  0  0  0  0  0  0
   -1.8875   -1.8193   -0.5969 N   0  0  0  0  0  0  0  0  0  0  0  0
   -3.1225   -1.1758   -0.2722 C   0  0  0  0  0  0  0  0  0  0  0  0
   -4.1706   -1.1939   -1.1790 C   0  0  0  0  0  0  0  0  0  0  0  0
   -5.3657   -0.5548   -0.8433 C   0  0  0  0  0  0  0  0  0  0  0  0
   -5.4989    0.0812    0.3861 C   0  0  0  0  0  0  0  0  0  0  0  0
   -6.7131    0.7229    0.7140 N   0  0  0  0  0  0  0  0  0  0  0  0
   -6.9814    1.8633   -0.1977 C   0  0  0  0  0  0  0  0  0  0  0  0
   -7.8983    2.8934    0.4812 C   0  0  0  0  0  0  0  0  0  0  0  0
   -7.3259    3.4604    1.6679 O   0  0  0  0  0  0  0  0  0  0  0  0
   -6.4696    2.5490    2.3780 C   0  0  0  0  0  0  0  0  0  0  0  0
   -6.8375    1.0792    2.1453 C   0  0  0  0  0  0  0  0  0  0  0  0
   -4.4603    0.0518    1.2485 N   0  0  0  0  0  0  0  0  0  0  0  0
   -3.2672   -0.5643    0.9204 N   0  0  0  0  0  0  0  0  0  0  0  0
   -0.7223   -1.9052    0.1567 C   0  0  0  0  0  0  0  0  0  0  0  0
   -0.5754   -1.3121    1.5163 C   0  0  0  0  0  0  0  0  0  0  0  0
    5.4760    1.2598    0.9735 C   0  0  0  0  0  0  0  0  0  0  0  0
    6.7565    1.2631    1.5314 C   0  0  0  0  0  0  0  0  0  0  0  0
    9.9782    0.9571    0.6626 H   0  0  0  0  0  0  0  0  0  0  0  0
    9.5749    2.4993    1.4641 H   0  0  0  0  0  0  0  0  0  0  0  0
    9.2828    0.9470    2.2853 H   0  0  0  0  0  0  0  0  0  0  0  0
    8.5692    1.7540   -1.3029 H   0  0  0  0  0  0  0  0  0  0  0  0
    6.3142    1.7460   -2.2883 H   0  0  0  0  0  0  0  0  0  0  0  0
    3.8796    2.0196   -1.9112 H   0  0  0  0  0  0  0  0  0  0  0  0
    3.1859    1.8495   -0.2991 H   0  0  0  0  0  0  0  0  0  0  0  0
    4.0289   -0.3632   -2.1208 H   0  0  0  0  0  0  0  0  0  0  0  0
    2.4058   -2.1068   -2.0885 H   0  0  0  0  0  0  0  0  0  0  0  0
    3.6277   -2.6301   -0.9213 H   0  0  0  0  0  0  0  0  0  0  0  0
    1.7766   -2.8874    0.8215 H   0  0  0  0  0  0  0  0  0  0  0  0
    1.7654   -4.0285   -0.5027 H   0  0  0  0  0  0  0  0  0  0  0  0
    0.4752   -3.0820   -3.6709 H   0  0  0  0  0  0  0  0  0  0  0  0
    0.6745   -4.5142   -2.6458 H   0  0  0  0  0  0  0  0  0  0  0  0
   -0.8613   -4.2295   -3.4662 H   0  0  0  0  0  0  0  0  0  0  0  0
   -4.0784   -1.6871   -2.1431 H   0  0  0  0  0  0  0  0  0  0  0  0
   -6.1962   -0.5754   -1.5409 H   0  0  0  0  0  0  0  0  0  0  0  0
   -7.4586    1.4991   -1.1150 H   0  0  0  0  0  0  0  0  0  0  0  0
   -6.0448    2.3689   -0.4703 H   0  0  0  0  0  0  0  0  0  0  0  0
   -8.8600    2.4389    0.7500 H   0  0  0  0  0  0  0  0  0  0  0  0
   -8.1094    3.7203   -0.2031 H   0  0  0  0  0  0  0  0  0  0  0  0
   -5.4381    2.7507    2.0698 H   0  0  0  0  0  0  0  0  0  0  0  0
   -6.5503    2.7956    3.4401 H   0  0  0  0  0  0  0  0  0  0  0  0
   -7.8889    0.9367    2.4240 H   0  0  0  0  0  0  0  0  0  0  0  0
   -6.2652    0.4182    2.8025 H   0  0  0  0  0  0  0  0  0  0  0  0
   -1.3353   -1.7049    2.1985 H   0  0  0  0  0  0  0  0  0  0  0  0
    0.3934   -1.5552    1.9613 H   0  0  0  0  0  0  0  0  0  0  0  0
   -0.6493   -0.2210    1.4753 H   0  0  0  0  0  0  0  0  0  0  0  0
    4.6117    1.1130    1.6198 H   0  0  0  0  0  0  0  0  0  0  0  0
    6.8660    1.1322    2.6054 H   0  0  0  0  0  0  0  0  0  0  0  0
  1  2  1  0
  2  3  2  0
  3  4  1  0
  4  5  2  0
  5  6  1  0
  6  7  1  0
  7  8  1  0
  8  9  2  0
  8 10  1  0
 10 11  1  0
 11 12  1  0
 12 13  1  0
 13 14  1  0
 13 15  2  0
 15 16  1  0
 16 17  1  0
 17 18  2  0
 18 19  1  0
 19 20  2  0
 20 21  1  0
 21 22  1  0
 22 23  1  0
 23 24  1  0
 24 25  1  0
 25 26  1  0
 20 27  1  0
 27 28  2  0
 16 29  1  0
 29 30  1  0
  5 31  1  0
 31 32  2  0
 32  2  1  0
 29 12  2  0
 28 17  1  0
 26 21  1  0
  1 33  1  0
  1 34  1  0
  1 35  1  0
  3 36  1  0
  4 37  1  0
  6 38  1  0
  6 39  1  0
  7 40  1  0
 10 41  1  0
 10 42  1  0
 11 43  1  0
 11 44  1  0
 14 45  1  0
 14 46  1  0
 14 47  1  0
 18 48  1  0
 19 49  1  0
 22 50  1  0
 22 51  1  0
 23 52  1  0
 23 53  1  0
 25 54  1  0
 25 55  1  0
 26 56  1  0
 26 57  1  0
 30 58  1  0
 30 59  1  0
 30 60  1  0
 31 61  1  0
 32 62  1  0
M  END
$$$$
