
     RDKit          3D

 38 39  0  0  0  0  0  0  0  0999 V2000
   -1.9408    1.2112    1.0313 O   0  0  0  0  0  0  0  0  0  0  0  0
   -2.3885    1.2312   -0.1128 C   0  0  0  0  0  0  0  0  0  0  0  0
   -2.1096    2.4041   -1.0650 C   0  0  0  0  0  0  0  0  0  0  0  0
   -0.9491    3.1509   -0.7072 O   0  0  0  0  0  0  0  0  0  0  0  0
    0.2050    2.4667   -0.9153 C   0  0  0  0  0  0  0  0  0  0  0  0
    0.3077    1.3945   -1.4852 O   0  0  0  0  0  0  0  0  0  0  0  0
    1.3074    3.2559   -0.3297 C   0  0  0  0  0  0  0  0  0  0  0  0
    2.4198    2.7381    0.2143 C   0  0  0  0  0  0  0  0  0  0  0  0
    2.7292    1.3158    0.3924 C   0  0  0  0  0  0  0  0  0  0  0  0
    1.8897    0.4744    1.1316 C   0  0  0  0  0  0  0  0  0  0  0  0
    2.2158   -0.8707    1.3088 C   0  0  0  0  0  0  0  0  0  0  0  0
    3.3904   -1.3834    0.7592 C   0  0  0  0  0  0  0  0  0  0  0  0
    4.2564   -0.5526    0.0328 C   0  0  0  0  0  0  0  0  0  0  0  0
    5.5160   -1.1054   -0.5835 C   0  0  0  0  0  0  0  0  0  0  0  0
    6.5339   -0.1992   -0.6182 F   0  0  0  0  0  0  0  0  0  0  0  0
    6.0102   -2.1876    0.0817 F   0  0  0  0  0  0  0  0  0  0  0  0
    5.3334   -1.5099   -1.8704 F   0  0  0  0  0  0  0  0  0  0  0  0
    3.9133    0.7988   -0.1461 C   0  0  0  0  0  0  0  0  0  0  0  0
   -3.1915    0.2683   -0.6826 N   0  0  0  0  0  0  0  0  0  0  0  0
   -3.6437   -0.9239   -0.1202 C   0  0  0  0  0  0  0  0  0  0  0  0
   -3.3521   -1.3454    1.1713 C   0  0  0  0  0  0  0  0  0  0  0  0
   -3.8676   -2.5646    1.6189 C   0  0  0  0  0  0  0  0  0  0  0  0
   -4.6550   -3.3229    0.7654 C   0  0  0  0  0  0  0  0  0  0  0  0
   -5.3076   -4.8250    1.2730 Cl  0  0  0  0  0  0  0  0  0  0  0  0
   -4.8982   -2.8297   -0.5047 C   0  0  0  0  0  0  0  0  0  0  0  0
   -4.4121   -1.6487   -0.9635 N   0  0  0  0  0  0  0  0  0  0  0  0
   -2.9666    3.0836   -1.0026 H   0  0  0  0  0  0  0  0  0  0  0  0
   -2.0373    2.0622   -2.1045 H   0  0  0  0  0  0  0  0  0  0  0  0
    1.1718    4.3316   -0.3568 H   0  0  0  0  0  0  0  0  0  0  0  0
    3.1820    3.4173    0.5906 H   0  0  0  0  0  0  0  0  0  0  0  0
    0.9672    0.8545    1.5676 H   0  0  0  0  0  0  0  0  0  0  0  0
    1.5476   -1.5174    1.8717 H   0  0  0  0  0  0  0  0  0  0  0  0
    3.6283   -2.4369    0.8989 H   0  0  0  0  0  0  0  0  0  0  0  0
    4.5743    1.4469   -0.7206 H   0  0  0  0  0  0  0  0  0  0  0  0
   -3.4892    0.3672   -1.6441 H   0  0  0  0  0  0  0  0  0  0  0  0
   -2.7353   -0.7619    1.8444 H   0  0  0  0  0  0  0  0  0  0  0  0
   -3.6471   -2.9075    2.6257 H   0  0  0  0  0  0  0  0  0  0  0  0
   -5.5083   -3.3805   -1.2150 H   0  0  0  0  0  0  0  0  0  0  0  0
  1  2  2  0
  2  3  1  0
  3  4  1  0
  4  5  1  0
  5  6  2  0
  5  7  1  0
  7  8  2  3
  8  9  1  0
  9 10  2  0
 10 11  1  0
 11 12  2  0
 12 13  1  0
 13 14  1  0
 14 15  1  0
 14 16  1  0
 14 17  1  0
 13 18  2  0
  2 19  1  0
 19 20  1  0
 20 21  2  0
 21 22  1  0
 22 23  2  0
 23 24  1  0
 23 25  1  0
 25 26  2  0
 18  9  1  0
 26 20  1  0
  3 27  1  0
  3 28  1  0
  7 29  1  0
  8 30  1  0
 10 31  1  0
 11 32  1  0
 12 33  1  0
 18 34  1  0
 19 35  1  0
 21 36  1  0
 22 37  1  0
 25 38  1  0
M  END
$$$$
