
     RDKit          3D

 51 53  0  0  0  0  0  0  0  0999 V2000
   -0.4592    6.0426   -0.5065 C   0  0  0  0  0  0  0  0  0  0  0  0
   -1.3868    4.8592   -0.7697 C   0  0  0  0  0  0  0  0  0  0  0  0
   -1.0742    4.2158   -2.1222 C   0  0  0  0  0  0  0  0  0  0  0  0
   -2.2036    2.8289   -2.4922 S   0  0  0  0  0  0  0  0  0  0  0  0
   -1.4860    1.5042   -1.5283 C   0  0  0  0  0  0  0  0  0  0  0  0
   -2.0994    0.2709   -1.5570 C   0  0  0  0  0  0  0  0  0  0  0  0
   -1.5286   -0.7434   -0.8144 C   0  0  0  0  0  0  0  0  0  0  0  0
   -2.1011   -2.0126   -0.7826 N   0  0  0  0  0  0  0  0  0  0  0  0
   -1.5332   -2.9533    0.1988 C   0  0  0  0  0  0  0  0  0  0  0  0
   -2.2666   -4.3124    0.1230 C   0  0  0  0  0  0  0  0  0  0  0  0
   -2.1960   -4.9822   -1.1975 N   0  0  0  0  0  0  0  0  0  0  0  0
   -1.1977   -6.0500   -1.2060 C   0  0  0  0  0  0  0  0  0  0  0  0
   -1.9193   -4.0080   -2.2785 C   0  0  0  0  0  0  0  0  0  0  0  0
   -2.5587   -2.6156   -2.0518 C   0  0  0  0  0  0  0  0  0  0  0  0
   -0.4330   -0.5072   -0.0739 N   0  0  0  0  0  0  0  0  0  0  0  0
    0.1096    0.7220   -0.1052 C   0  0  0  0  0  0  0  0  0  0  0  0
    1.3376    0.9519    0.6841 C   0  0  0  0  0  0  0  0  0  0  0  0
    1.9286   -0.0761    1.4442 C   0  0  0  0  0  0  0  0  0  0  0  0
    3.1018    0.1305    2.1849 C   0  0  0  0  0  0  0  0  0  0  0  0
    3.7180    1.3791    2.1856 C   0  0  0  0  0  0  0  0  0  0  0  0
    4.8612    1.7120    2.8551 O   0  0  0  0  0  0  0  0  0  0  0  0
    5.4527    0.7050    3.6632 C   0  0  0  0  0  0  0  0  0  0  0  0
    3.1506    2.4138    1.4415 C   0  0  0  0  0  0  0  0  0  0  0  0
    1.9789    2.2051    0.7043 C   0  0  0  0  0  0  0  0  0  0  0  0
   -0.3757    1.7475   -0.8213 N   0  0  0  0  0  0  0  0  0  0  0  0
   -0.6030    6.8262   -1.2596 H   0  0  0  0  0  0  0  0  0  0  0  0
   -0.6602    6.4762    0.4803 H   0  0  0  0  0  0  0  0  0  0  0  0
    0.5911    5.7271   -0.5346 H   0  0  0  0  0  0  0  0  0  0  0  0
   -1.2672    4.1354    0.0449 H   0  0  0  0  0  0  0  0  0  0  0  0
   -2.4254    5.2105   -0.7437 H   0  0  0  0  0  0  0  0  0  0  0  0
   -0.0309    3.8901   -2.1830 H   0  0  0  0  0  0  0  0  0  0  0  0
   -1.2148    4.9579   -2.9142 H   0  0  0  0  0  0  0  0  0  0  0  0
   -3.0078    0.1135   -2.1223 H   0  0  0  0  0  0  0  0  0  0  0  0
   -1.6498   -2.5495    1.2121 H   0  0  0  0  0  0  0  0  0  0  0  0
   -0.4607   -3.1116    0.0146 H   0  0  0  0  0  0  0  0  0  0  0  0
   -1.9114   -4.9716    0.9261 H   0  0  0  0  0  0  0  0  0  0  0  0
   -3.3304   -4.1367    0.3333 H   0  0  0  0  0  0  0  0  0  0  0  0
   -1.4610   -6.8273   -0.4784 H   0  0  0  0  0  0  0  0  0  0  0  0
   -1.1614   -6.5372   -2.1861 H   0  0  0  0  0  0  0  0  0  0  0  0
   -0.1942   -5.6794   -0.9657 H   0  0  0  0  0  0  0  0  0  0  0  0
   -2.2873   -4.4198   -3.2249 H   0  0  0  0  0  0  0  0  0  0  0  0
   -0.8355   -3.8608   -2.3917 H   0  0  0  0  0  0  0  0  0  0  0  0
   -2.3136   -1.9927   -2.9206 H   0  0  0  0  0  0  0  0  0  0  0  0
   -3.6512   -2.7107   -2.0154 H   0  0  0  0  0  0  0  0  0  0  0  0
    1.4717   -1.0661    1.4646 H   0  0  0  0  0  0  0  0  0  0  0  0
    3.5026   -0.7094    2.7447 H   0  0  0  0  0  0  0  0  0  0  0  0
    5.7838   -0.1422    3.0551 H   0  0  0  0  0  0  0  0  0  0  0  0
    4.7689    0.3807    4.4536 H   0  0  0  0  0  0  0  0  0  0  0  0
    6.3367    1.1368    4.1451 H   0  0  0  0  0  0  0  0  0  0  0  0
    3.6234    3.3941    1.4304 H   0  0  0  0  0  0  0  0  0  0  0  0
    1.5676    3.0386    0.1382 H   0  0  0  0  0  0  0  0  0  0  0  0
  1  2  1  0
  2  3  1  0
  3  4  1  0
  4  5  1  0
  5  6  2  0
  6  7  1  0
  7  8  1  0
  8  9  1  0
  9 10  1  0
 10 11  1  0
 11 12  1  0
 11 13  1  0
 13 14  1  0
  7 15  2  0
 15 16  1  0
 16 17  1  0
 17 18  2  0
 18 19  1  0
 19 20  2  0
 20 21  1  0
 21 22  1  0
 20 23  1  0
 23 24  2  0
 16 25  2  0
 25  5  1  0
 14  8  1  0
 24 17  1  0
  1 26  1  0
  1 27  1  0
  1 28  1  0
  2 29  1  0
  2 30  1  0
  3 31  1  0
  3 32  1  0
  6 33  1  0
  9 34  1  0
  9 35  1  0
 10 36  1  0
 10 37  1  0
 12 38  1  0
 12 39  1  0
 12 40  1  0
 13 41  1  0
 13 42  1  0
 14 43  1  0
 14 44  1  0
 18 45  1  0
 19 46  1  0
 22 47  1  0
 22 48  1  0
 22 49  1  0
 23 50  1  0
 24 51  1  0
M  END
$$$$
