
     RDKit          3D

 54 57  0  0  0  0  0  0  0  0999 V2000
    8.5105   -0.4991    0.8494 C   0  0  0  0  0  0  0  0  0  0  0  0
    7.1583   -0.1324    0.6027 O   0  0  0  0  0  0  0  0  0  0  0  0
    6.1966   -1.0552    0.9183 C   0  0  0  0  0  0  0  0  0  0  0  0
    6.4208   -2.2898    1.5268 C   0  0  0  0  0  0  0  0  0  0  0  0
    5.3458   -3.1347    1.8021 C   0  0  0  0  0  0  0  0  0  0  0  0
    4.0468   -2.7511    1.4649 C   0  0  0  0  0  0  0  0  0  0  0  0
    3.8060   -1.5176    0.8484 C   0  0  0  0  0  0  0  0  0  0  0  0
    2.4626   -1.2050    0.5449 N   0  0  0  0  0  0  0  0  0  0  0  0
    1.9914   -0.0950   -0.1306 C   0  0  0  0  0  0  0  0  0  0  0  0
    2.6721    0.7710   -0.6693 O   0  0  0  0  0  0  0  0  0  0  0  0
    0.5026   -0.0324   -0.2597 C   0  0  0  0  0  0  0  0  0  0  0  0
   -0.3113   -0.4556    0.7233 C   0  0  0  0  0  0  0  0  0  0  0  0
   -1.7623   -0.4252    0.6162 C   0  0  0  0  0  0  0  0  0  0  0  0
   -2.5862   -0.9823    1.7264 C   0  0  0  0  0  0  0  0  0  0  0  0
   -2.0279   -1.4724    2.7117 O   0  0  0  0  0  0  0  0  0  0  0  0
   -3.9570   -0.9174    1.5601 N   0  0  0  0  0  0  0  0  0  0  0  0
   -4.7938   -1.4127    2.5540 C   0  0  0  0  0  0  0  0  0  0  0  0
   -6.1266   -1.3813    2.4329 C   0  0  0  0  0  0  0  0  0  0  0  0
   -6.7253   -0.8213    1.2513 C   0  0  0  0  0  0  0  0  0  0  0  0
   -5.9576   -0.3338    0.2696 C   0  0  0  0  0  0  0  0  0  0  0  0
   -4.4731   -0.3726    0.3989 C   0  0  0  0  0  0  0  0  0  0  0  0
   -3.7558    0.0976   -0.5695 N   0  0  0  0  0  0  0  0  0  0  0  0
   -2.3822    0.0811   -0.4736 C   0  0  0  0  0  0  0  0  0  0  0  0
   -1.5838    0.5978   -1.5234 N   0  0  0  0  0  0  0  0  0  0  0  0
   -2.2391    1.1985   -2.7034 C   0  0  0  0  0  0  0  0  0  0  0  0
   -2.7451    2.6297   -2.4286 C   0  0  0  0  0  0  0  0  0  0  0  0
   -3.5874    3.1145   -3.6114 C   0  0  0  0  0  0  0  0  0  0  0  0
   -1.6062    3.6168   -2.1706 C   0  0  0  0  0  0  0  0  0  0  0  0
   -0.1813    0.5844   -1.4580 C   0  0  0  0  0  0  0  0  0  0  0  0
    0.5272    1.0995   -2.4240 N   0  0  0  0  0  0  0  0  0  0  0  0
    4.8891   -0.6750    0.5853 C   0  0  0  0  0  0  0  0  0  0  0  0
    9.1479    0.3243    0.5137 H   0  0  0  0  0  0  0  0  0  0  0  0
    8.7880   -1.3926    0.2791 H   0  0  0  0  0  0  0  0  0  0  0  0
    8.6895   -0.6456    1.9213 H   0  0  0  0  0  0  0  0  0  0  0  0
    7.4161   -2.6194    1.8046 H   0  0  0  0  0  0  0  0  0  0  0  0
    5.5206   -4.0948    2.2821 H   0  0  0  0  0  0  0  0  0  0  0  0
    3.2305   -3.4311    1.6932 H   0  0  0  0  0  0  0  0  0  0  0  0
    1.7887   -1.9143    0.8020 H   0  0  0  0  0  0  0  0  0  0  0  0
    0.0890   -0.8382    1.6590 H   0  0  0  0  0  0  0  0  0  0  0  0
   -4.3190   -1.8298    3.4381 H   0  0  0  0  0  0  0  0  0  0  0  0
   -6.7717   -1.7711    3.2123 H   0  0  0  0  0  0  0  0  0  0  0  0
   -7.8078   -0.8026    1.1760 H   0  0  0  0  0  0  0  0  0  0  0  0
   -6.3677    0.0968   -0.6355 H   0  0  0  0  0  0  0  0  0  0  0  0
   -1.5761    1.1961   -3.5777 H   0  0  0  0  0  0  0  0  0  0  0  0
   -3.0832    0.5615   -3.0032 H   0  0  0  0  0  0  0  0  0  0  0  0
   -3.3906    2.6269   -1.5420 H   0  0  0  0  0  0  0  0  0  0  0  0
   -4.4385    2.4469   -3.7835 H   0  0  0  0  0  0  0  0  0  0  0  0
   -3.9851    4.1173   -3.4221 H   0  0  0  0  0  0  0  0  0  0  0  0
   -2.9950    3.1530   -4.5318 H   0  0  0  0  0  0  0  0  0  0  0  0
   -0.9025    3.6428   -3.0098 H   0  0  0  0  0  0  0  0  0  0  0  0
   -1.0525    3.3564   -1.2639 H   0  0  0  0  0  0  0  0  0  0  0  0
   -1.9975    4.6303   -2.0301 H   0  0  0  0  0  0  0  0  0  0  0  0
    1.5359    1.0621   -2.1968 H   0  0  0  0  0  0  0  0  0  0  0  0
    4.7531    0.2962    0.1194 H   0  0  0  0  0  0  0  0  0  0  0  0
  1  2  1  0
  2  3  1  0
  3  4  2  0
  4  5  1  0
  5  6  2  0
  6  7  1  0
  7  8  1  0
  8  9  1  0
  9 10  2  0
  9 11  1  0
 11 12  2  0
 12 13  1  0
 13 14  1  0
 14 15  2  0
 14 16  1  0
 16 17  1  0
 17 18  2  0
 18 19  1  0
 19 20  2  0
 20 21  1  0
 21 22  2  0
 22 23  1  0
 23 24  1  0
 24 25  1  0
 25 26  1  0
 26 27  1  0
 26 28  1  0
 24 29  1  0
 29 30  2  3
  7 31  2  0
 31  3  1  0
 29 11  1  0
 23 13  2  0
 21 16  1  0
  1 32  1  0
  1 33  1  0
  1 34  1  0
  4 35  1  0
  5 36  1  0
  6 37  1  0
  8 38  1  0
 12 39  1  0
 17 40  1  0
 18 41  1  0
 19 42  1  0
 20 43  1  0
 25 44  1  0
 25 45  1  0
 26 46  1  0
 27 47  1  0
 27 48  1  0
 27 49  1  0
 28 50  1  0
 28 51  1  0
 28 52  1  0
 30 53  1  0
 31 54  1  0
M  END
$$$$
