
     RDKit          3D

 42 44  0  0  0  0  0  0  0  0999 V2000
   -1.1765    0.6013   -4.2082 C   0  0  0  0  0  0  0  0  0  0  0  0
   -1.8312    0.8017   -2.8996 C   0  0  0  0  0  0  0  0  0  0  0  0
   -2.8902    1.6475   -2.8824 O   0  0  0  0  0  0  0  0  0  0  0  0
   -3.3852    1.7446   -1.6004 N   0  0  0  0  0  0  0  0  0  0  0  0
   -2.6123    0.9594   -0.8394 C   0  0  0  0  0  0  0  0  0  0  0  0
   -2.8231    0.9036    0.5995 C   0  0  0  0  0  0  0  0  0  0  0  0
   -1.8626    1.4648    1.4483 C   0  0  0  0  0  0  0  0  0  0  0  0
   -0.7514    2.0171    0.9395 F   0  0  0  0  0  0  0  0  0  0  0  0
   -2.0143    1.4446    2.8326 C   0  0  0  0  0  0  0  0  0  0  0  0
   -3.1403    0.8514    3.3941 C   0  0  0  0  0  0  0  0  0  0  0  0
   -4.1019    0.2705    2.5659 C   0  0  0  0  0  0  0  0  0  0  0  0
   -3.9467    0.2937    1.1741 C   0  0  0  0  0  0  0  0  0  0  0  0
   -5.1445   -0.5153    0.2245 Cl  0  0  0  0  0  0  0  0  0  0  0  0
   -1.6121    0.3107   -1.6284 C   0  0  0  0  0  0  0  0  0  0  0  0
   -0.5465   -0.6017   -1.2584 C   0  0  0  0  0  0  0  0  0  0  0  0
    0.4374   -0.7609   -1.9713 O   0  0  0  0  0  0  0  0  0  0  0  0
   -0.7991   -1.3459   -0.1129 N   0  0  0  0  0  0  0  0  0  0  0  0
    0.0021   -1.9748    0.7840 C   0  0  0  0  0  0  0  0  0  0  0  0
   -0.7183   -3.0323    1.8596 S   0  0  0  0  0  0  0  0  0  0  0  0
    1.3232   -1.7666    0.9044 N   0  0  0  0  0  0  0  0  0  0  0  0
    2.2225   -0.7733    0.3134 C   0  0  0  0  0  0  0  0  0  0  0  0
    3.1160   -0.1397    1.3900 C   0  0  0  0  0  0  0  0  0  0  0  0
    4.1234    0.7142    0.6338 C   0  0  0  0  0  0  0  0  0  0  0  0
    4.5307   -0.2363   -0.8195 S   0  0  0  0  0  6  0  0  0  0  0  0
    4.3424    0.6035   -1.9831 O   0  0  0  0  0  0  0  0  0  0  0  0
    5.7660   -0.9473   -0.5687 O   0  0  0  0  0  0  0  0  0  0  0  0
    3.1818   -1.3949   -0.6999 C   0  0  0  0  0  0  0  0  0  0  0  0
   -1.6840    1.1616   -4.9979 H   0  0  0  0  0  0  0  0  0  0  0  0
   -0.1367    0.9370   -4.1747 H   0  0  0  0  0  0  0  0  0  0  0  0
   -1.1912   -0.4564   -4.4830 H   0  0  0  0  0  0  0  0  0  0  0  0
   -1.2544    1.8951    3.4641 H   0  0  0  0  0  0  0  0  0  0  0  0
   -3.2663    0.8329    4.4749 H   0  0  0  0  0  0  0  0  0  0  0  0
   -4.9708   -0.2050    3.0127 H   0  0  0  0  0  0  0  0  0  0  0  0
   -1.7776   -1.5207    0.0758 H   0  0  0  0  0  0  0  0  0  0  0  0
    1.7417   -2.3738    1.6044 H   0  0  0  0  0  0  0  0  0  0  0  0
    1.6444    0.0390   -0.1325 H   0  0  0  0  0  0  0  0  0  0  0  0
    3.6371   -0.9191    1.9617 H   0  0  0  0  0  0  0  0  0  0  0  0
    2.5371    0.4576    2.1020 H   0  0  0  0  0  0  0  0  0  0  0  0
    5.0262    0.9135    1.2143 H   0  0  0  0  0  0  0  0  0  0  0  0
    3.6725    1.6561    0.3043 H   0  0  0  0  0  0  0  0  0  0  0  0
    2.7439   -1.5503   -1.6837 H   0  0  0  0  0  0  0  0  0  0  0  0
    3.5888   -2.3445   -0.3337 H   0  0  0  0  0  0  0  0  0  0  0  0
  1  2  1  0
  2  3  1  0
  3  4  1  0
  4  5  2  0
  5  6  1  0
  6  7  2  0
  7  8  1  0
  7  9  1  0
  9 10  2  0
 10 11  1  0
 11 12  2  0
 12 13  1  0
  5 14  1  0
 14 15  1  0
 15 16  2  0
 15 17  1  0
 17 18  1  0
 18 19  2  0
 18 20  1  0
 20 21  1  0
 21 22  1  0
 22 23  1  0
 23 24  1  0
 24 25  2  0
 24 26  2  0
 24 27  1  0
 14  2  2  0
 27 21  1  0
 12  6  1  0
  1 28  1  0
  1 29  1  0
  1 30  1  0
  9 31  1  0
 10 32  1  0
 11 33  1  0
 17 34  1  0
 20 35  1  0
 21 36  1  0
 22 37  1  0
 22 38  1  0
 23 39  1  0
 23 40  1  0
 27 41  1  0
 27 42  1  0
M  END
$$$$
