
     RDKit          3D

 47 49  0  0  0  0  0  0  0  0999 V2000
    4.5069    0.3752    3.0739 C   0  0  0  0  0  0  0  0  0  0  0  0
    3.8906    0.3212    1.7933 O   0  0  0  0  0  0  0  0  0  0  0  0
    4.7234    0.3640    0.6968 C   0  0  0  0  0  0  0  0  0  0  0  0
    6.1130    0.5119    0.7522 C   0  0  0  0  0  0  0  0  0  0  0  0
    6.8607    0.5549   -0.4254 C   0  0  0  0  0  0  0  0  0  0  0  0
    6.2262    0.4547   -1.6602 C   0  0  0  0  0  0  0  0  0  0  0  0
    4.8402    0.2983   -1.7263 C   0  0  0  0  0  0  0  0  0  0  0  0
    4.0814    0.2463   -0.5553 C   0  0  0  0  0  0  0  0  0  0  0  0
    2.6769    0.0951   -0.5432 N   0  0  0  0  0  0  0  0  0  0  0  0
    1.8454   -0.2447   -1.5824 C   0  0  0  0  0  0  0  0  0  0  0  0
    2.2225   -0.5622   -2.7087 O   0  0  0  0  0  0  0  0  0  0  0  0
    0.4880   -0.2163   -1.2561 N   0  0  0  0  0  0  0  0  0  0  0  0
   -0.0689    0.4361   -0.0694 C   0  0  0  0  0  0  0  0  0  0  0  0
   -1.4902    0.9411   -0.3082 C   0  0  0  0  0  0  0  0  0  0  0  0
   -2.4365   -0.1815   -0.7546 C   0  0  0  0  0  0  0  0  0  0  0  0
   -3.1162   -0.7822    0.4730 C   0  0  0  0  0  0  0  0  0  0  0  0
   -2.4933   -1.4460    1.2999 O   0  0  0  0  0  0  0  0  0  0  0  0
   -4.5755   -0.5668    0.6823 C   0  0  0  0  0  0  0  0  0  0  0  0
   -5.2997   -1.5584    1.3630 C   0  0  0  0  0  0  0  0  0  0  0  0
   -6.6708   -1.4038    1.5775 C   0  0  0  0  0  0  0  0  0  0  0  0
   -7.3093   -0.2563    1.1226 C   0  0  0  0  0  0  0  0  0  0  0  0
   -8.6245   -0.1061    1.3278 F   0  0  0  0  0  0  0  0  0  0  0  0
   -6.6012    0.7438    0.4625 C   0  0  0  0  0  0  0  0  0  0  0  0
   -5.2289    0.5934    0.2436 C   0  0  0  0  0  0  0  0  0  0  0  0
   -1.7158   -1.2844   -1.5486 C   0  0  0  0  0  0  0  0  0  0  0  0
   -0.4567   -0.7614   -2.2268 C   0  0  0  0  0  0  0  0  0  0  0  0
    3.7132    0.3341    3.8275 H   0  0  0  0  0  0  0  0  0  0  0  0
    5.1607   -0.4889    3.2303 H   0  0  0  0  0  0  0  0  0  0  0  0
    5.0477    1.3172    3.2151 H   0  0  0  0  0  0  0  0  0  0  0  0
    6.6450    0.5998    1.6931 H   0  0  0  0  0  0  0  0  0  0  0  0
    7.9409    0.6728   -0.3802 H   0  0  0  0  0  0  0  0  0  0  0  0
    6.8072    0.4965   -2.5786 H   0  0  0  0  0  0  0  0  0  0  0  0
    4.3767    0.2277   -2.7061 H   0  0  0  0  0  0  0  0  0  0  0  0
    2.2925    0.0314    0.3891 H   0  0  0  0  0  0  0  0  0  0  0  0
    0.5646    1.2819    0.2154 H   0  0  0  0  0  0  0  0  0  0  0  0
   -0.0432   -0.2940    0.7481 H   0  0  0  0  0  0  0  0  0  0  0  0
   -1.8615    1.4435    0.5925 H   0  0  0  0  0  0  0  0  0  0  0  0
   -1.4590    1.7027   -1.0985 H   0  0  0  0  0  0  0  0  0  0  0  0
   -3.1934    0.2532   -1.4174 H   0  0  0  0  0  0  0  0  0  0  0  0
   -4.7975   -2.4546    1.7239 H   0  0  0  0  0  0  0  0  0  0  0  0
   -7.2413   -2.1680    2.0964 H   0  0  0  0  0  0  0  0  0  0  0  0
   -7.1226    1.6366    0.1291 H   0  0  0  0  0  0  0  0  0  0  0  0
   -4.6906    1.3981   -0.2496 H   0  0  0  0  0  0  0  0  0  0  0  0
   -1.4419   -2.1256   -0.8982 H   0  0  0  0  0  0  0  0  0  0  0  0
   -2.3996   -1.6958   -2.3019 H   0  0  0  0  0  0  0  0  0  0  0  0
   -0.7018    0.0387   -2.9368 H   0  0  0  0  0  0  0  0  0  0  0  0
    0.0164   -1.5701   -2.7963 H   0  0  0  0  0  0  0  0  0  0  0  0
  1  2  1  0
  2  3  1  0
  3  4  2  0
  4  5  1  0
  5  6  2  0
  6  7  1  0
  7  8  2  0
  8  9  1  0
  9 10  1  0
 10 11  2  0
 10 12  1  0
 12 13  1  0
 13 14  1  0
 14 15  1  0
 15 16  1  0
 16 17  2  0
 16 18  1  0
 18 19  2  0
 19 20  1  0
 20 21  2  0
 21 22  1  0
 21 23  1  0
 23 24  2  0
 15 25  1  0
 25 26  1  0
  8  3  1  0
 26 12  1  0
 24 18  1  0
  1 27  1  0
  1 28  1  0
  1 29  1  0
  4 30  1  0
  5 31  1  0
  6 32  1  0
  7 33  1  0
  9 34  1  0
 13 35  1  0
 13 36  1  0
 14 37  1  0
 14 38  1  0
 15 39  1  0
 19 40  1  0
 20 41  1  0
 23 42  1  0
 24 43  1  0
 25 44  1  0
 25 45  1  0
 26 46  1  0
 26 47  1  0
M  END
$$$$
