
     RDKit          3D

 51 54  0  0  0  0  0  0  0  0999 V2000
    2.2739    2.2023   -0.8560 C   0  0  0  0  0  0  0  0  0  0  0  0
    2.6789    1.4071    0.3953 C   0  0  0  0  0  0  0  0  0  0  0  0
    1.6645    1.6643    1.5294 C   0  0  0  0  0  0  0  0  0  0  0  0
    0.7817    0.4618    1.4095 C   0  0  0  0  0  0  0  0  0  0  0  0
   -0.4360    0.2475    2.0380 C   0  0  0  0  0  0  0  0  0  0  0  0
   -1.0514   -0.9941    1.8552 C   0  0  0  0  0  0  0  0  0  0  0  0
   -2.6188   -1.3268    2.6242 S   0  0  0  0  0  6  0  0  0  0  0  0
   -2.9449   -0.2083    3.4811 O   0  0  0  0  0  0  0  0  0  0  0  0
   -2.5841   -2.6847    3.1181 O   0  0  0  0  0  0  0  0  0  0  0  0
   -3.6717   -1.3069    1.3295 N   0  0  0  0  0  0  0  0  0  0  0  0
   -3.7993   -0.0960    0.5299 C   0  0  0  0  0  0  0  0  0  0  0  0
   -4.9899   -0.1865   -0.3923 C   0  0  0  0  0  0  0  0  0  0  0  0
   -6.2900   -0.1026    0.1278 C   0  0  0  0  0  0  0  0  0  0  0  0
   -7.3977   -0.2008   -0.7150 C   0  0  0  0  0  0  0  0  0  0  0  0
   -7.2176   -0.3886   -2.0839 C   0  0  0  0  0  0  0  0  0  0  0  0
   -5.9307   -0.4817   -2.6111 C   0  0  0  0  0  0  0  0  0  0  0  0
   -4.8206   -0.3842   -1.7700 C   0  0  0  0  0  0  0  0  0  0  0  0
   -0.4392   -2.0044    1.0937 C   0  0  0  0  0  0  0  0  0  0  0  0
    0.7936   -1.7689    0.4748 C   0  0  0  0  0  0  0  0  0  0  0  0
    1.3882   -0.5251    0.6239 C   0  0  0  0  0  0  0  0  0  0  0  0
    2.6237   -0.0509    0.1190 N   0  0  0  0  0  0  0  0  0  0  0  0
    3.5102   -0.8082   -0.6449 C   0  0  0  0  0  0  0  0  0  0  0  0
    3.1400   -1.8446   -1.2227 O   0  0  0  0  0  0  0  0  0  0  0  0
    5.0007   -0.4287   -0.7150 C   0  0  0  0  0  0  0  0  0  0  0  0
    5.8018   -0.1689    0.5855 C   0  0  0  0  0  0  0  0  0  0  0  0
    6.7194    0.7512   -0.2442 C   0  0  0  0  0  0  0  0  0  0  0  0
    5.5530    0.9137   -1.2415 C   0  0  0  0  0  0  0  0  0  0  0  0
    2.8829    1.9359   -1.7242 H   0  0  0  0  0  0  0  0  0  0  0  0
    1.2310    2.0104   -1.1341 H   0  0  0  0  0  0  0  0  0  0  0  0
    2.3816    3.2772   -0.6773 H   0  0  0  0  0  0  0  0  0  0  0  0
    3.6790    1.7082    0.7103 H   0  0  0  0  0  0  0  0  0  0  0  0
    2.1651    1.6455    2.5039 H   0  0  0  0  0  0  0  0  0  0  0  0
    1.1188    2.6054    1.4151 H   0  0  0  0  0  0  0  0  0  0  0  0
   -0.8846    1.0159    2.6614 H   0  0  0  0  0  0  0  0  0  0  0  0
   -3.8176   -2.2046    0.8729 H   0  0  0  0  0  0  0  0  0  0  0  0
   -2.8922    0.0470   -0.0675 H   0  0  0  0  0  0  0  0  0  0  0  0
   -3.9148    0.7865    1.1689 H   0  0  0  0  0  0  0  0  0  0  0  0
   -6.4420    0.0336    1.1973 H   0  0  0  0  0  0  0  0  0  0  0  0
   -8.4011   -0.1346   -0.3020 H   0  0  0  0  0  0  0  0  0  0  0  0
   -8.0810   -0.4663   -2.7396 H   0  0  0  0  0  0  0  0  0  0  0  0
   -5.7921   -0.6327   -3.6787 H   0  0  0  0  0  0  0  0  0  0  0  0
   -3.8245   -0.4644   -2.1996 H   0  0  0  0  0  0  0  0  0  0  0  0
   -0.9119   -2.9789    0.9870 H   0  0  0  0  0  0  0  0  0  0  0  0
    1.2555   -2.5616   -0.1043 H   0  0  0  0  0  0  0  0  0  0  0  0
    5.5061   -1.2409   -1.2722 H   0  0  0  0  0  0  0  0  0  0  0  0
    6.2934   -1.0466    1.0155 H   0  0  0  0  0  0  0  0  0  0  0  0
    5.2586    0.3453    1.3836 H   0  0  0  0  0  0  0  0  0  0  0  0
    7.5912    0.2385   -0.6666 H   0  0  0  0  0  0  0  0  0  0  0  0
    7.0499    1.6659    0.2541 H   0  0  0  0  0  0  0  0  0  0  0  0
    5.8443    0.9169   -2.2960 H   0  0  0  0  0  0  0  0  0  0  0  0
    4.9667    1.8116   -1.0484 H   0  0  0  0  0  0  0  0  0  0  0  0
  1  2  1  0
  2  3  1  0
  3  4  1  0
  4  5  2  0
  5  6  1  0
  6  7  1  0
  7  8  2  0
  7  9  2  0
  7 10  1  0
 10 11  1  0
 11 12  1  0
 12 13  2  0
 13 14  1  0
 14 15  2  0
 15 16  1  0
 16 17  2  0
  6 18  2  0
 18 19  1  0
 19 20  2  0
 20 21  1  0
 21 22  1  0
 22 23  2  0
 22 24  1  0
 24 25  1  0
 25 26  1  0
 26 27  1  0
 21  2  1  0
 27 24  1  0
 20  4  1  0
 17 12  1  0
  1 28  1  0
  1 29  1  0
  1 30  1  0
  2 31  1  0
  3 32  1  0
  3 33  1  0
  5 34  1  0
 10 35  1  0
 11 36  1  0
 11 37  1  0
 13 38  1  0
 14 39  1  0
 15 40  1  0
 16 41  1  0
 17 42  1  0
 18 43  1  0
 19 44  1  0
 24 45  1  0
 25 46  1  0
 25 47  1  0
 26 48  1  0
 26 49  1  0
 27 50  1  0
 27 51  1  0
M  END
$$$$
