
     RDKit          3D

 52 54  0  0  0  0  0  0  0  0999 V2000
   -5.7449   -2.9230   -0.7429 C   0  0  0  0  0  0  0  0  0  0  0  0
   -4.5984   -3.0317   -1.7346 C   0  0  0  0  0  0  0  0  0  0  0  0
   -4.1842   -1.6914   -2.3384 C   0  0  0  0  0  0  0  0  0  0  0  0
   -3.6349   -0.6257   -1.3777 C   0  0  0  0  0  0  0  0  0  0  0  0
   -2.2901   -0.8966   -0.6539 C   0  0  0  0  0  0  0  0  0  0  0  0
   -2.4273   -1.6702    0.6745 C   0  0  0  0  0  0  0  0  0  0  0  0
   -3.2149   -0.9215    1.7435 C   0  0  0  0  0  0  0  0  0  0  0  0
   -1.2552   -1.5472   -1.6060 C   0  0  0  0  0  0  0  0  0  0  0  0
    0.1185   -1.5259   -1.0889 N   0  0  0  0  0  0  0  0  0  0  0  0
    0.8087   -0.3202   -1.1054 C   0  0  0  0  0  0  0  0  0  0  0  0
    0.3505    0.7345   -1.5207 O   0  0  0  0  0  0  0  0  0  0  0  0
    2.1804   -0.4944   -0.5451 C   0  0  0  0  0  0  0  0  0  0  0  0
    3.1463    0.4191   -0.3611 C   0  0  0  0  0  0  0  0  0  0  0  0
    3.1547    1.8082   -0.6830 C   0  0  0  0  0  0  0  0  0  0  0  0
    2.7460    2.3720   -1.8674 C   0  0  0  0  0  0  0  0  0  0  0  0
    2.9895    3.7056   -1.7508 N   0  0  0  0  0  0  0  0  0  0  0  0
    3.5921    4.0456   -0.6032 N   0  0  0  0  0  0  0  0  0  0  0  0
    3.6826    2.8943    0.0858 C   0  0  0  0  0  0  0  0  0  0  0  0
    4.2729    2.8733    1.4256 C   0  0  0  0  0  0  0  0  0  0  0  0
    3.6907    2.1292    2.4612 C   0  0  0  0  0  0  0  0  0  0  0  0
    4.2705    2.1103    3.7326 C   0  0  0  0  0  0  0  0  0  0  0  0
    5.4320    2.8397    3.9816 C   0  0  0  0  0  0  0  0  0  0  0  0
    6.0117    3.5945    2.9636 C   0  0  0  0  0  0  0  0  0  0  0  0
    5.4328    3.6141    1.6926 C   0  0  0  0  0  0  0  0  0  0  0  0
    2.4017   -2.1455   -0.0779 S   0  0  0  0  0  0  0  0  0  0  0  0
    0.8003   -2.6262   -0.6145 C   0  0  0  0  0  0  0  0  0  0  0  0
    0.2855   -4.2109   -0.5205 S   0  0  0  0  0  0  0  0  0  0  0  0
   -6.0498   -3.9206   -0.4107 H   0  0  0  0  0  0  0  0  0  0  0  0
   -6.6142   -2.4396   -1.1999 H   0  0  0  0  0  0  0  0  0  0  0  0
   -5.4605   -2.3516    0.1432 H   0  0  0  0  0  0  0  0  0  0  0  0
   -3.7437   -3.5303   -1.2698 H   0  0  0  0  0  0  0  0  0  0  0  0
   -4.9197   -3.6875   -2.5535 H   0  0  0  0  0  0  0  0  0  0  0  0
   -5.0590   -1.2613   -2.8445 H   0  0  0  0  0  0  0  0  0  0  0  0
   -3.4549   -1.8775   -3.1355 H   0  0  0  0  0  0  0  0  0  0  0  0
   -3.4792    0.2749   -1.9895 H   0  0  0  0  0  0  0  0  0  0  0  0
   -4.4115   -0.3409   -0.6616 H   0  0  0  0  0  0  0  0  0  0  0  0
   -1.9040    0.0943   -0.3764 H   0  0  0  0  0  0  0  0  0  0  0  0
   -2.8763   -2.6535    0.5161 H   0  0  0  0  0  0  0  0  0  0  0  0
   -1.4306   -1.8497    1.0927 H   0  0  0  0  0  0  0  0  0  0  0  0
   -3.1824   -1.4766    2.6868 H   0  0  0  0  0  0  0  0  0  0  0  0
   -2.7868    0.0698    1.9229 H   0  0  0  0  0  0  0  0  0  0  0  0
   -4.2660   -0.7992    1.4727 H   0  0  0  0  0  0  0  0  0  0  0  0
   -1.5511   -2.5712   -1.8462 H   0  0  0  0  0  0  0  0  0  0  0  0
   -1.2443   -0.9902   -2.5519 H   0  0  0  0  0  0  0  0  0  0  0  0
    4.0631    0.0782    0.1221 H   0  0  0  0  0  0  0  0  0  0  0  0
    2.3027    1.9616   -2.7635 H   0  0  0  0  0  0  0  0  0  0  0  0
    2.7906    4.4383   -2.4236 H   0  0  0  0  0  0  0  0  0  0  0  0
    2.7706    1.5750    2.2957 H   0  0  0  0  0  0  0  0  0  0  0  0
    3.8100    1.5338    4.5308 H   0  0  0  0  0  0  0  0  0  0  0  0
    5.8802    2.8282    4.9718 H   0  0  0  0  0  0  0  0  0  0  0  0
    6.9111    4.1730    3.1574 H   0  0  0  0  0  0  0  0  0  0  0  0
    5.8883    4.2125    0.9060 H   0  0  0  0  0  0  0  0  0  0  0  0
  1  2  1  0
  2  3  1  0
  3  4  1  0
  4  5  1  0
  5  6  1  0
  6  7  1  0
  5  8  1  0
  8  9  1  0
  9 10  1  0
 10 11  2  0
 10 12  1  0
 12 13  2  3
 13 14  1  0
 14 15  2  0
 15 16  1  0
 16 17  1  0
 17 18  2  0
 18 19  1  0
 19 20  2  0
 20 21  1  0
 21 22  2  0
 22 23  1  0
 23 24  2  0
 12 25  1  0
 25 26  1  0
 26 27  2  0
 26  9  1  0
 18 14  1  0
 24 19  1  0
  1 28  1  0
  1 29  1  0
  1 30  1  0
  2 31  1  0
  2 32  1  0
  3 33  1  0
  3 34  1  0
  4 35  1  0
  4 36  1  0
  5 37  1  0
  6 38  1  0
  6 39  1  0
  7 40  1  0
  7 41  1  0
  7 42  1  0
  8 43  1  0
  8 44  1  0
 13 45  1  0
 15 46  1  0
 16 47  1  0
 20 48  1  0
 21 49  1  0
 22 50  1  0
 23 51  1  0
 24 52  1  0
M  END
$$$$
