
     RDKit          3D

 43 46  0  0  0  0  0  0  0  0999 V2000
   -3.2762    5.8360   -5.0212 N   0  0  0  0  0  0  0  0  0  0  0  0
   -2.9039    4.8294   -4.5735 C   0  0  0  0  0  0  0  0  0  0  0  0
   -2.4154    3.5740   -3.9851 C   0  0  0  0  0  0  0  0  0  0  0  0
   -1.4137    3.8750   -2.8862 C   0  0  0  0  0  0  0  0  0  0  0  0
   -0.9469    2.6773   -2.2098 N   0  0  0  0  0  0  0  0  0  0  0  0
   -0.9114    2.4660   -0.8602 C   0  0  0  0  0  0  0  0  0  0  0  0
   -0.3618    1.2127   -0.6821 C   0  0  0  0  0  0  0  0  0  0  0  0
   -0.1296    0.5101    0.5476 C   0  0  0  0  0  0  0  0  0  0  0  0
   -0.3343    0.8776    1.8349 C   0  0  0  0  0  0  0  0  0  0  0  0
   -0.9292    2.1233    2.2097 C   0  0  0  0  0  0  0  0  0  0  0  0
   -1.4303    3.1274    2.5195 N   0  0  0  0  0  0  0  0  0  0  0  0
    0.0245   -0.0803    2.8476 C   0  0  0  0  0  0  0  0  0  0  0  0
    0.0701   -1.3931    2.6850 N   0  0  0  0  0  0  0  0  0  0  0  0
    0.4831   -2.0346    3.8379 C   0  0  0  0  0  0  0  0  0  0  0  0
    0.6084   -3.4302    4.0137 C   0  0  0  0  0  0  0  0  0  0  0  0
    1.0467   -3.9336    5.2448 C   0  0  0  0  0  0  0  0  0  0  0  0
    1.3775   -3.0666    6.2872 C   0  0  0  0  0  0  0  0  0  0  0  0
    1.2536   -1.6819    6.1360 C   0  0  0  0  0  0  0  0  0  0  0  0
    0.7912   -1.1878    4.9040 C   0  0  0  0  0  0  0  0  0  0  0  0
    0.5114    0.4392    4.4286 S   0  0  0  0  0  0  0  0  0  0  0  0
   -0.0758    0.7498   -2.0143 C   0  0  0  0  0  0  0  0  0  0  0  0
    0.5304   -0.5063   -2.4564 C   0  0  0  0  0  0  0  0  0  0  0  0
    1.7581   -0.9402   -1.9400 C   0  0  0  0  0  0  0  0  0  0  0  0
    2.3179   -2.1432   -2.3775 C   0  0  0  0  0  0  0  0  0  0  0  0
    1.6562   -2.9033   -3.3358 C   0  0  0  0  0  0  0  0  0  0  0  0
    2.1990   -4.0501   -3.7586 F   0  0  0  0  0  0  0  0  0  0  0  0
    0.4486   -2.4815   -3.8725 C   0  0  0  0  0  0  0  0  0  0  0  0
   -0.1129   -1.2802   -3.4351 C   0  0  0  0  0  0  0  0  0  0  0  0
   -0.4658    1.6530   -2.9285 N   0  0  0  0  0  0  0  0  0  0  0  0
   -3.2632    3.0005   -3.5882 H   0  0  0  0  0  0  0  0  0  0  0  0
   -1.9537    2.9563   -4.7626 H   0  0  0  0  0  0  0  0  0  0  0  0
   -0.5230    4.3720   -3.2845 H   0  0  0  0  0  0  0  0  0  0  0  0
   -1.8525    4.5377   -2.1356 H   0  0  0  0  0  0  0  0  0  0  0  0
   -1.2763    3.2278   -0.1798 H   0  0  0  0  0  0  0  0  0  0  0  0
    0.2796   -0.5009    0.3961 H   0  0  0  0  0  0  0  0  0  0  0  0
    0.3646   -4.1018    3.1951 H   0  0  0  0  0  0  0  0  0  0  0  0
    1.1387   -5.0057    5.3839 H   0  0  0  0  0  0  0  0  0  0  0  0
    1.7324   -3.4681    7.2365 H   0  0  0  0  0  0  0  0  0  0  0  0
    1.5175   -1.0026    6.9525 H   0  0  0  0  0  0  0  0  0  0  0  0
    2.2960   -0.3412   -1.2100 H   0  0  0  0  0  0  0  0  0  0  0  0
    3.2681   -2.4890   -1.9868 H   0  0  0  0  0  0  0  0  0  0  0  0
   -0.0441   -3.0830   -4.6291 H   0  0  0  0  0  0  0  0  0  0  0  0
   -1.0537   -0.9400   -3.8600 H   0  0  0  0  0  0  0  0  0  0  0  0
  1  2  3  0
  2  3  1  0
  3  4  1  0
  4  5  1  0
  5  6  1  0
  6  7  2  0
  7  8  1  0
  8  9  2  3
  9 10  1  0
 10 11  3  0
  9 12  1  0
 12 13  2  0
 13 14  1  0
 14 15  2  0
 15 16  1  0
 16 17  2  0
 17 18  1  0
 18 19  2  0
 19 20  1  0
  7 21  1  0
 21 22  1  0
 22 23  2  0
 23 24  1  0
 24 25  2  0
 25 26  1  0
 25 27  1  0
 27 28  2  0
 21 29  2  0
 29  5  1  0
 20 12  1  0
 28 22  1  0
 19 14  1  0
  3 30  1  0
  3 31  1  0
  4 32  1  0
  4 33  1  0
  6 34  1  0
  8 35  1  0
 15 36  1  0
 16 37  1  0
 17 38  1  0
 18 39  1  0
 23 40  1  0
 24 41  1  0
 27 42  1  0
 28 43  1  0
M  END
$$$$
