
     RDKit          3D

 43 45  0  0  0  0  0  0  0  0999 V2000
   -3.3305   -2.8292    0.3657 C   0  0  0  0  0  0  0  0  0  0  0  0
   -2.9247   -2.6397   -1.0934 C   0  0  0  0  0  0  0  0  0  0  0  0
   -3.7040   -3.6031   -1.9878 C   0  0  0  0  0  0  0  0  0  0  0  0
   -1.1343   -2.9809   -1.3161 S   0  0  0  0  0  0  0  0  0  0  0  0
   -0.3903   -1.4512   -0.7613 C   0  0  0  0  0  0  0  0  0  0  0  0
    0.9822   -1.3406   -0.8049 C   0  0  0  0  0  0  0  0  0  0  0  0
    1.5394   -0.1549   -0.3688 C   0  0  0  0  0  0  0  0  0  0  0  0
    2.9385    0.0175   -0.4064 N   0  0  0  0  0  0  0  0  0  0  0  0
    3.6795   -0.9760    0.4044 C   0  0  0  0  0  0  0  0  0  0  0  0
    5.1937   -0.7618    0.2333 C   0  0  0  0  0  0  0  0  0  0  0  0
    5.5839    0.5767    0.5764 O   0  0  0  0  0  0  0  0  0  0  0  0
    4.8892    1.5220   -0.2548 C   0  0  0  0  0  0  0  0  0  0  0  0
    3.3662    1.4005   -0.0897 C   0  0  0  0  0  0  0  0  0  0  0  0
    0.7555    0.8529    0.0485 N   0  0  0  0  0  0  0  0  0  0  0  0
   -0.5765    0.6636    0.0620 C   0  0  0  0  0  0  0  0  0  0  0  0
   -1.4252    1.7744    0.5438 C   0  0  0  0  0  0  0  0  0  0  0  0
   -0.8728    3.0214    0.9013 C   0  0  0  0  0  0  0  0  0  0  0  0
   -1.6736    4.0755    1.3579 C   0  0  0  0  0  0  0  0  0  0  0  0
   -3.0491    3.9001    1.4703 C   0  0  0  0  0  0  0  0  0  0  0  0
   -4.0358    5.1914    2.0343 Cl  0  0  0  0  0  0  0  0  0  0  0  0
   -3.6289    2.6830    1.1272 C   0  0  0  0  0  0  0  0  0  0  0  0
   -2.8226    1.6337    0.6676 C   0  0  0  0  0  0  0  0  0  0  0  0
   -1.1861   -0.4653   -0.3269 N   0  0  0  0  0  0  0  0  0  0  0  0
   -3.1344   -3.8508    0.7102 H   0  0  0  0  0  0  0  0  0  0  0  0
   -4.4037   -2.6403    0.4877 H   0  0  0  0  0  0  0  0  0  0  0  0
   -2.8032   -2.1394    1.0334 H   0  0  0  0  0  0  0  0  0  0  0  0
   -3.1533   -1.6188   -1.4198 H   0  0  0  0  0  0  0  0  0  0  0  0
   -4.7815   -3.4090   -1.9074 H   0  0  0  0  0  0  0  0  0  0  0  0
   -3.4288   -3.4820   -3.0427 H   0  0  0  0  0  0  0  0  0  0  0  0
   -3.5369   -4.6491   -1.7062 H   0  0  0  0  0  0  0  0  0  0  0  0
    1.5959   -2.1440   -1.1902 H   0  0  0  0  0  0  0  0  0  0  0  0
    3.4119   -0.8537    1.4629 H   0  0  0  0  0  0  0  0  0  0  0  0
    3.4443   -2.0028    0.1046 H   0  0  0  0  0  0  0  0  0  0  0  0
    5.5045   -0.9695   -0.7971 H   0  0  0  0  0  0  0  0  0  0  0  0
    5.7410   -1.4440    0.8914 H   0  0  0  0  0  0  0  0  0  0  0  0
    5.1866    1.3664   -1.2998 H   0  0  0  0  0  0  0  0  0  0  0  0
    5.2160    2.5242    0.0404 H   0  0  0  0  0  0  0  0  0  0  0  0
    2.8832    2.1215   -0.7608 H   0  0  0  0  0  0  0  0  0  0  0  0
    3.1021    1.6451    0.9492 H   0  0  0  0  0  0  0  0  0  0  0  0
    0.2009    3.1826    0.8215 H   0  0  0  0  0  0  0  0  0  0  0  0
   -1.2147    5.0243    1.6228 H   0  0  0  0  0  0  0  0  0  0  0  0
   -4.7042    2.5391    1.2127 H   0  0  0  0  0  0  0  0  0  0  0  0
   -3.2995    0.6903    0.4050 H   0  0  0  0  0  0  0  0  0  0  0  0
  1  2  1  0
  2  3  1  0
  2  4  1  0
  4  5  1  0
  5  6  2  0
  6  7  1  0
  7  8  1  0
  8  9  1  0
  9 10  1  0
 10 11  1  0
 11 12  1  0
 12 13  1  0
  7 14  2  0
 14 15  1  0
 15 16  1  0
 16 17  2  0
 17 18  1  0
 18 19  2  0
 19 20  1  0
 19 21  1  0
 21 22  2  0
 15 23  2  0
 23  5  1  0
 13  8  1  0
 22 16  1  0
  1 24  1  0
  1 25  1  0
  1 26  1  0
  2 27  1  0
  3 28  1  0
  3 29  1  0
  3 30  1  0
  6 31  1  0
  9 32  1  0
  9 33  1  0
 10 34  1  0
 10 35  1  0
 12 36  1  0
 12 37  1  0
 13 38  1  0
 13 39  1  0
 17 40  1  0
 18 41  1  0
 21 42  1  0
 22 43  1  0
M  END
$$$$
