
     RDKit          3D

 45 48  0  0  0  0  0  0  0  0999 V2000
   -3.1064   -2.7028   -1.1305 C   0  0  0  0  0  0  0  0  0  0  0  0
   -3.0340   -1.3606   -0.4950 C   0  0  0  0  0  0  0  0  0  0  0  0
   -4.0140   -0.7568    0.2848 C   0  0  0  0  0  0  0  0  0  0  0  0
   -5.2155   -1.1659    0.6728 O   0  0  0  0  0  0  0  0  0  0  0  0
   -3.5448    0.4657    0.6619 N   0  0  0  0  0  0  0  0  0  0  0  0
   -2.2847    0.6688    0.1636 C   0  0  0  0  0  0  0  0  0  0  0  0
   -1.5042    1.8119    0.3479 C   0  0  0  0  0  0  0  0  0  0  0  0
   -0.2368    1.7930   -0.2352 C   0  0  0  0  0  0  0  0  0  0  0  0
    0.1753    0.6756   -0.9752 C   0  0  0  0  0  0  0  0  0  0  0  0
    1.7904    0.6565   -1.7151 S   0  0  0  0  0  6  0  0  0  0  0  0
    1.6304    0.2122   -3.0837 O   0  0  0  0  0  0  0  0  0  0  0  0
    2.4573    1.9049   -1.4069 O   0  0  0  0  0  0  0  0  0  0  0  0
    2.5942   -0.5766   -0.8411 N   0  0  0  0  0  0  0  0  0  0  0  0
    2.6843   -0.3593    0.6308 C   0  0  0  0  0  0  0  0  0  0  0  0
    3.6166   -1.3852    1.2634 C   0  0  0  0  0  0  0  0  0  0  0  0
    5.0433   -1.2386    0.7392 C   0  0  0  0  0  0  0  0  0  0  0  0
    5.0842   -0.6526   -0.6701 C   0  0  0  0  0  0  0  0  0  0  0  0
    3.8578   -1.0511   -1.4795 C   0  0  0  0  0  0  0  0  0  0  0  0
   -0.6519   -0.4505   -1.1635 C   0  0  0  0  0  0  0  0  0  0  0  0
   -1.9245   -0.4500   -0.5643 C   0  0  0  0  0  0  0  0  0  0  0  0
   -2.0561    2.9278    1.1872 C   0  0  0  0  0  0  0  0  0  0  0  0
   -3.6022    2.8858    1.1931 C   0  0  0  0  0  0  0  0  0  0  0  0
   -4.1764    1.4830    1.4865 C   0  0  0  0  0  0  0  0  0  0  0  0
   -2.3619   -2.8120   -1.9251 H   0  0  0  0  0  0  0  0  0  0  0  0
   -4.0926   -2.8684   -1.5761 H   0  0  0  0  0  0  0  0  0  0  0  0
   -2.9282   -3.4835   -0.3843 H   0  0  0  0  0  0  0  0  0  0  0  0
   -5.3550   -2.0516    0.2953 H   0  0  0  0  0  0  0  0  0  0  0  0
    0.4246    2.6488   -0.1156 H   0  0  0  0  0  0  0  0  0  0  0  0
    1.6891   -0.4807    1.0703 H   0  0  0  0  0  0  0  0  0  0  0  0
    3.0386    0.6532    0.8540 H   0  0  0  0  0  0  0  0  0  0  0  0
    3.6121   -1.2845    2.3545 H   0  0  0  0  0  0  0  0  0  0  0  0
    3.2513   -2.3956    1.0388 H   0  0  0  0  0  0  0  0  0  0  0  0
    5.5307   -2.2207    0.7538 H   0  0  0  0  0  0  0  0  0  0  0  0
    5.6262   -0.5948    1.4087 H   0  0  0  0  0  0  0  0  0  0  0  0
    5.9983   -0.9803   -1.1778 H   0  0  0  0  0  0  0  0  0  0  0  0
    5.1365    0.4417   -0.6058 H   0  0  0  0  0  0  0  0  0  0  0  0
    3.9607   -0.6631   -2.4982 H   0  0  0  0  0  0  0  0  0  0  0  0
    3.7971   -2.1423   -1.5703 H   0  0  0  0  0  0  0  0  0  0  0  0
   -0.3087   -1.2979   -1.7501 H   0  0  0  0  0  0  0  0  0  0  0  0
   -1.6772    2.8221    2.2103 H   0  0  0  0  0  0  0  0  0  0  0  0
   -1.7231    3.8966    0.7985 H   0  0  0  0  0  0  0  0  0  0  0  0
   -3.9623    3.2076    0.2061 H   0  0  0  0  0  0  0  0  0  0  0  0
   -3.9901    3.6057    1.9223 H   0  0  0  0  0  0  0  0  0  0  0  0
   -5.2532    1.4650    1.2905 H   0  0  0  0  0  0  0  0  0  0  0  0
   -3.9951    1.1997    2.5291 H   0  0  0  0  0  0  0  0  0  0  0  0
  1  2  1  0
  2  3  2  0
  3  4  1  0
  3  5  1  0
  5  6  1  0
  6  7  2  0
  7  8  1  0
  8  9  2  0
  9 10  1  0
 10 11  2  0
 10 12  2  0
 10 13  1  0
 13 14  1  0
 14 15  1  0
 15 16  1  0
 16 17  1  0
 17 18  1  0
  9 19  1  0
 19 20  2  0
  7 21  1  0
 21 22  1  0
 22 23  1  0
 20  2  1  0
 23  5  1  0
 20  6  1  0
 18 13  1  0
  1 24  1  0
  1 25  1  0
  1 26  1  0
  4 27  1  0
  8 28  1  0
 14 29  1  0
 14 30  1  0
 15 31  1  0
 15 32  1  0
 16 33  1  0
 16 34  1  0
 17 35  1  0
 17 36  1  0
 18 37  1  0
 18 38  1  0
 19 39  1  0
 21 40  1  0
 21 41  1  0
 22 42  1  0
 22 43  1  0
 23 44  1  0
 23 45  1  0
M  END
$$$$
