
     RDKit          3D

 73 78  0  0  0  0  0  0  0  0999 V2000
    9.6359    1.1087    2.4454 C   0  0  0  0  0  0  0  0  0  0  0  0
    8.4295    0.8199    1.6040 C   0  0  0  0  0  0  0  0  0  0  0  0
    7.5260   -0.1828    1.9628 C   0  0  0  0  0  0  0  0  0  0  0  0
    6.4150   -0.4530    1.1607 C   0  0  0  0  0  0  0  0  0  0  0  0
    6.1771    0.2682   -0.0182 C   0  0  0  0  0  0  0  0  0  0  0  0
    5.0448    0.0409   -0.8258 N   0  0  0  0  0  0  0  0  0  0  0  0
    3.8348    0.6779   -0.2502 C   0  0  0  0  0  0  0  0  0  0  0  0
    2.6644    0.5670   -1.2507 C   0  0  0  0  0  0  0  0  0  0  0  0
    2.4441   -0.8349   -1.6413 N   0  0  0  0  0  0  0  0  0  0  0  0
    1.3403   -1.6175   -1.3409 C   0  0  0  0  0  0  0  0  0  0  0  0
    1.3223   -2.8241   -1.5963 O   0  0  0  0  0  0  0  0  0  0  0  0
    0.1531   -0.9540   -0.6492 C   0  0  0  0  0  0  0  0  0  0  0  0
    0.4288   -0.7586    0.8529 C   0  0  0  0  0  0  0  0  0  0  0  0
   -0.8025   -1.0029    1.7253 C   0  0  0  0  0  0  0  0  0  0  0  0
   -2.0834   -0.4887    1.0680 C   0  0  0  0  0  0  0  0  0  0  0  0
   -2.2485   -1.0888   -0.2513 N   0  0  0  0  0  0  0  0  0  0  0  0
   -3.5125   -1.1946   -0.8077 C   0  0  0  0  0  0  0  0  0  0  0  0
   -3.7192   -2.1055   -1.8040 N   0  0  0  0  0  0  0  0  0  0  0  0
   -4.9446   -2.2320   -2.3538 C   0  0  0  0  0  0  0  0  0  0  0  0
   -6.0584   -1.5370   -2.0715 N   0  0  0  0  0  0  0  0  0  0  0  0
   -5.8236   -0.6368   -1.1022 C   0  0  0  0  0  0  0  0  0  0  0  0
   -4.6338   -0.4107   -0.4310 C   0  0  0  0  0  0  0  0  0  0  0  0
   -4.8044    0.5993    0.5002 N   0  0  0  0  0  0  0  0  0  0  0  0
   -6.0650    0.9844    0.4012 C   0  0  0  0  0  0  0  0  0  0  0  0
   -6.7165    0.2507   -0.5649 N   0  0  0  0  0  0  0  0  0  0  0  0
   -8.1049    0.3754   -0.9480 C   0  0  0  0  0  0  0  0  0  0  0  0
   -9.0675   -0.0069    0.1734 C   0  0  0  0  0  0  0  0  0  0  0  0
   -8.8354    0.7002    1.5163 C   0  0  0  0  0  0  0  0  0  0  0  0
   -8.1972    2.0801    1.3884 C   0  0  0  0  0  0  0  0  0  0  0  0
   -6.6738    2.0665    1.2380 C   0  0  0  0  0  0  0  0  0  0  0  0
   -1.1221   -1.7811   -0.8763 C   0  0  0  0  0  0  0  0  0  0  0  0
    3.6468   -1.4673   -2.2042 C   0  0  0  0  0  0  0  0  0  0  0  0
    4.8238   -1.3768   -1.2094 C   0  0  0  0  0  0  0  0  0  0  0  0
    7.0870    1.2815   -0.3822 C   0  0  0  0  0  0  0  0  0  0  0  0
    6.8834    2.0848   -1.6402 C   0  0  0  0  0  0  0  0  0  0  0  0
    8.2052    1.5421    0.4277 C   0  0  0  0  0  0  0  0  0  0  0  0
    9.6215    0.5393    3.3801 H   0  0  0  0  0  0  0  0  0  0  0  0
   10.5479    0.8462    1.9015 H   0  0  0  0  0  0  0  0  0  0  0  0
    9.6675    2.1705    2.7082 H   0  0  0  0  0  0  0  0  0  0  0  0
    7.6782   -0.7637    2.8699 H   0  0  0  0  0  0  0  0  0  0  0  0
    5.7234   -1.2286    1.4785 H   0  0  0  0  0  0  0  0  0  0  0  0
    3.5609    0.1843    0.6916 H   0  0  0  0  0  0  0  0  0  0  0  0
    4.0181    1.7394   -0.0386 H   0  0  0  0  0  0  0  0  0  0  0  0
    2.9088    1.1190   -2.1697 H   0  0  0  0  0  0  0  0  0  0  0  0
    1.7735    1.0281   -0.8282 H   0  0  0  0  0  0  0  0  0  0  0  0
   -0.0233    0.0222   -1.1193 H   0  0  0  0  0  0  0  0  0  0  0  0
    1.2411   -1.4115    1.1982 H   0  0  0  0  0  0  0  0  0  0  0  0
    0.7746    0.2682    1.0213 H   0  0  0  0  0  0  0  0  0  0  0  0
   -0.6681   -0.5404    2.7076 H   0  0  0  0  0  0  0  0  0  0  0  0
   -0.8964   -2.0810    1.9025 H   0  0  0  0  0  0  0  0  0  0  0  0
   -2.9185   -0.7459    1.7322 H   0  0  0  0  0  0  0  0  0  0  0  0
   -2.0407    0.6041    0.9728 H   0  0  0  0  0  0  0  0  0  0  0  0
   -5.0373   -3.0075   -3.1125 H   0  0  0  0  0  0  0  0  0  0  0  0
   -8.2585    1.4088   -1.2797 H   0  0  0  0  0  0  0  0  0  0  0  0
   -8.2925   -0.2603   -1.8211 H   0  0  0  0  0  0  0  0  0  0  0  0
  -10.0885    0.2132   -0.1696 H   0  0  0  0  0  0  0  0  0  0  0  0
   -9.0314   -1.0913    0.3452 H   0  0  0  0  0  0  0  0  0  0  0  0
   -9.8076    0.7958    2.0187 H   0  0  0  0  0  0  0  0  0  0  0  0
   -8.2225    0.0659    2.1680 H   0  0  0  0  0  0  0  0  0  0  0  0
   -8.4352    2.6622    2.2895 H   0  0  0  0  0  0  0  0  0  0  0  0
   -8.6542    2.6357    0.5587 H   0  0  0  0  0  0  0  0  0  0  0  0
   -6.2314    1.9980    2.2428 H   0  0  0  0  0  0  0  0  0  0  0  0
   -6.3528    3.0359    0.8348 H   0  0  0  0  0  0  0  0  0  0  0  0
   -1.0278   -2.7897   -0.4553 H   0  0  0  0  0  0  0  0  0  0  0  0
   -1.2673   -1.8937   -1.9574 H   0  0  0  0  0  0  0  0  0  0  0  0
    3.8928   -0.9276   -3.1285 H   0  0  0  0  0  0  0  0  0  0  0  0
    3.4639   -2.5112   -2.4725 H   0  0  0  0  0  0  0  0  0  0  0  0
    4.5909   -1.9929   -0.3311 H   0  0  0  0  0  0  0  0  0  0  0  0
    5.7247   -1.7801   -1.6866 H   0  0  0  0  0  0  0  0  0  0  0  0
    6.9033    1.4264   -2.5122 H   0  0  0  0  0  0  0  0  0  0  0  0
    5.9292    2.6212   -1.5995 H   0  0  0  0  0  0  0  0  0  0  0  0
    7.6760    2.8286   -1.7729 H   0  0  0  0  0  0  0  0  0  0  0  0
    8.9082    2.3190    0.1394 H   0  0  0  0  0  0  0  0  0  0  0  0
  1  2  1  0
  2  3  2  0
  3  4  1  0
  4  5  2  0
  5  6  1  0
  6  7  1  0
  7  8  1  0
  8  9  1  0
  9 10  1  0
 10 11  2  0
 10 12  1  0
 12 13  1  0
 13 14  1  0
 14 15  1  0
 15 16  1  0
 16 17  1  0
 17 18  2  0
 18 19  1  0
 19 20  2  0
 20 21  1  0
 21 22  2  0
 22 23  1  0
 23 24  2  0
 24 25  1  0
 25 26  1  0
 26 27  1  0
 27 28  1  0
 28 29  1  0
 29 30  1  0
 16 31  1  0
  9 32  1  0
 32 33  1  0
  5 34  1  0
 34 35  1  0
 34 36  2  0
 36  2  1  0
 33  6  1  0
 31 12  1  0
 22 17  1  0
 30 24  1  0
 25 21  1  0
  1 37  1  0
  1 38  1  0
  1 39  1  0
  3 40  1  0
  4 41  1  0
  7 42  1  0
  7 43  1  0
  8 44  1  0
  8 45  1  0
 12 46  1  0
 13 47  1  0
 13 48  1  0
 14 49  1  0
 14 50  1  0
 15 51  1  0
 15 52  1  0
 19 53  1  0
 26 54  1  0
 26 55  1  0
 27 56  1  0
 27 57  1  0
 28 58  1  0
 28 59  1  0
 29 60  1  0
 29 61  1  0
 30 62  1  0
 30 63  1  0
 31 64  1  0
 31 65  1  0
 32 66  1  0
 32 67  1  0
 33 68  1  0
 33 69  1  0
 35 70  1  0
 35 71  1  0
 35 72  1  0
 36 73  1  0
M  END
$$$$
