
     RDKit          3D

 60 64  0  0  0  0  0  0  0  0999 V2000
   -2.9988    3.7724    2.9415 C   0  0  0  0  0  0  0  0  0  0  0  0
   -1.7871    2.8991    3.2150 C   0  0  0  0  0  0  0  0  0  0  0  0
   -1.6843    1.7946    2.2760 N   0  0  0  0  0  0  0  0  0  0  0  0
   -1.0079    1.8460    1.0677 C   0  0  0  0  0  0  0  0  0  0  0  0
   -0.3787    2.9465    0.6755 O   0  0  0  0  0  0  0  0  0  0  0  0
   -1.1482    0.6103    0.4906 C   0  0  0  0  0  0  0  0  0  0  0  0
   -1.8926   -0.2029    1.3718 C   0  0  0  0  0  0  0  0  0  0  0  0
   -2.2448    0.5420    2.4647 C   0  0  0  0  0  0  0  0  0  0  0  0
   -2.9777    0.2643    3.5348 O   0  0  0  0  0  0  0  0  0  0  0  0
   -2.0859   -1.5618    0.7910 C   0  0  0  0  0  0  0  0  0  0  0  0
   -3.5249   -1.6214    0.1953 C   0  0  0  0  0  0  0  0  0  0  0  0
   -3.8170   -1.5456   -0.9938 O   0  0  0  0  0  0  0  0  0  0  0  0
   -4.4511   -1.7380    1.2010 O   0  0  0  0  0  0  0  0  0  0  0  0
   -5.8045   -1.7384    0.7451 C   0  0  0  0  0  0  0  0  0  0  0  0
   -1.7647   -2.7441    1.7147 C   0  0  0  0  0  0  0  0  0  0  0  0
   -1.1671   -3.9510    0.9593 C   0  0  0  0  0  0  0  0  0  0  0  0
   -1.4641   -3.9254   -0.5435 C   0  0  0  0  0  0  0  0  0  0  0  0
   -1.0042   -2.6153   -1.2066 C   0  0  0  0  0  0  0  0  0  0  0  0
   -1.0114   -1.5284   -0.2535 N   0  0  0  0  0  0  0  0  0  0  0  0
   -0.7897   -0.1536   -0.7386 C   0  0  0  0  0  0  0  0  0  0  0  0
    0.6467    0.1743   -1.0728 C   0  0  0  0  0  0  0  0  0  0  0  0
    0.9364    0.9069   -2.2338 C   0  0  0  0  0  0  0  0  0  0  0  0
    2.2555    1.2385   -2.5626 C   0  0  0  0  0  0  0  0  0  0  0  0
    3.3273    0.8478   -1.7455 C   0  0  0  0  0  0  0  0  0  0  0  0
    4.7144    1.1955   -2.0944 C   0  0  0  0  0  0  0  0  0  0  0  0
    5.0849    2.5277   -2.3495 C   0  0  0  0  0  0  0  0  0  0  0  0
    6.4012    2.8616   -2.6805 C   0  0  0  0  0  0  0  0  0  0  0  0
    7.3716    1.8657   -2.7632 C   0  0  0  0  0  0  0  0  0  0  0  0
    7.0205    0.5417   -2.5138 C   0  0  0  0  0  0  0  0  0  0  0  0
    8.2171   -0.6914   -2.6172 Cl  0  0  0  0  0  0  0  0  0  0  0  0
    5.7072    0.2053   -2.1821 C   0  0  0  0  0  0  0  0  0  0  0  0
    3.0353    0.1126   -0.5870 C   0  0  0  0  0  0  0  0  0  0  0  0
    1.7178   -0.2198   -0.2556 C   0  0  0  0  0  0  0  0  0  0  0  0
   -3.0471    4.5921    3.6650 H   0  0  0  0  0  0  0  0  0  0  0  0
   -2.9553    4.2058    1.9368 H   0  0  0  0  0  0  0  0  0  0  0  0
   -3.9268    3.1958    3.0162 H   0  0  0  0  0  0  0  0  0  0  0  0
   -0.8647    3.4865    3.1511 H   0  0  0  0  0  0  0  0  0  0  0  0
   -1.8327    2.4813    4.2266 H   0  0  0  0  0  0  0  0  0  0  0  0
    0.1514    2.7054   -0.1063 H   0  0  0  0  0  0  0  0  0  0  0  0
   -3.3275   -0.6376    3.4246 H   0  0  0  0  0  0  0  0  0  0  0  0
   -5.9882   -2.5971    0.0920 H   0  0  0  0  0  0  0  0  0  0  0  0
   -6.0363   -0.8006    0.2305 H   0  0  0  0  0  0  0  0  0  0  0  0
   -6.4557   -1.8229    1.6193 H   0  0  0  0  0  0  0  0  0  0  0  0
   -1.0542   -2.4508    2.4991 H   0  0  0  0  0  0  0  0  0  0  0  0
   -2.6643   -3.0806    2.2437 H   0  0  0  0  0  0  0  0  0  0  0  0
   -1.5374   -4.8832    1.4011 H   0  0  0  0  0  0  0  0  0  0  0  0
   -0.0786   -3.9529    1.1020 H   0  0  0  0  0  0  0  0  0  0  0  0
   -0.9743   -4.7751   -1.0330 H   0  0  0  0  0  0  0  0  0  0  0  0
   -2.5421   -4.0598   -0.6942 H   0  0  0  0  0  0  0  0  0  0  0  0
    0.0173   -2.7536   -1.5798 H   0  0  0  0  0  0  0  0  0  0  0  0
   -1.6334   -2.4092   -2.0798 H   0  0  0  0  0  0  0  0  0  0  0  0
   -1.4784    0.0971   -1.5544 H   0  0  0  0  0  0  0  0  0  0  0  0
    0.1342    1.2229   -2.8985 H   0  0  0  0  0  0  0  0  0  0  0  0
    2.4429    1.7960   -3.4786 H   0  0  0  0  0  0  0  0  0  0  0  0
    4.3445    3.3228   -2.2779 H   0  0  0  0  0  0  0  0  0  0  0  0
    6.6673    3.8986   -2.8697 H   0  0  0  0  0  0  0  0  0  0  0  0
    8.3946    2.1265   -3.0201 H   0  0  0  0  0  0  0  0  0  0  0  0
    5.4518   -0.8366   -2.0014 H   0  0  0  0  0  0  0  0  0  0  0  0
    3.8355   -0.2008    0.0808 H   0  0  0  0  0  0  0  0  0  0  0  0
    1.5262   -0.7858    0.6549 H   0  0  0  0  0  0  0  0  0  0  0  0
  1  2  1  0
  2  3  1  0
  3  4  1  0
  4  5  1  0
  4  6  2  0
  6  7  1  0
  7  8  2  0
  8  9  1  0
  7 10  1  0
 10 11  1  0
 11 12  2  0
 11 13  1  0
 13 14  1  0
 10 15  1  0
 15 16  1  0
 16 17  1  0
 17 18  1  0
 18 19  1  0
 19 20  1  0
 20 21  1  0
 21 22  2  0
 22 23  1  0
 23 24  2  0
 24 25  1  0
 25 26  2  0
 26 27  1  0
 27 28  2  0
 28 29  1  0
 29 30  1  0
 29 31  2  0
 24 32  1  0
 32 33  2  0
  8  3  1  0
 19 10  1  0
 33 21  1  0
 20  6  1  0
 31 25  1  0
  1 34  1  0
  1 35  1  0
  1 36  1  0
  2 37  1  0
  2 38  1  0
  5 39  1  0
  9 40  1  0
 14 41  1  0
 14 42  1  0
 14 43  1  0
 15 44  1  0
 15 45  1  0
 16 46  1  0
 16 47  1  0
 17 48  1  0
 17 49  1  0
 18 50  1  0
 18 51  1  0
 20 52  1  0
 22 53  1  0
 23 54  1  0
 26 55  1  0
 27 56  1  0
 28 57  1  0
 31 58  1  0
 32 59  1  0
 33 60  1  0
M  END
$$$$
