
     RDKit          3D

 33 36  0  0  0  0  0  0  0  0999 V2000
    6.8607   -0.0233   -0.9448 C   0  0  0  0  0  0  0  0  0  0  0  0
    5.3962    0.0727   -0.6351 C   0  0  0  0  0  0  0  0  0  0  0  0
    4.4515   -0.5047   -1.4903 C   0  0  0  0  0  0  0  0  0  0  0  0
    3.0878   -0.4427   -1.1859 C   0  0  0  0  0  0  0  0  0  0  0  0
    2.6441    0.1884   -0.0158 C   0  0  0  0  0  0  0  0  0  0  0  0
    1.2212    0.2571    0.3087 C   0  0  0  0  0  0  0  0  0  0  0  0
    0.7602    0.8749    1.4687 N   0  0  0  0  0  0  0  0  0  0  0  0
   -0.5262    0.7132    1.3645 C   0  0  0  0  0  0  0  0  0  0  0  0
   -1.8819    1.1113    2.3285 S   0  0  0  0  0  0  0  0  0  0  0  0
   -2.9548    0.3958    1.1116 C   0  0  0  0  0  0  0  0  0  0  0  0
   -4.2843    0.4358    1.2839 C   0  0  0  0  0  0  0  0  0  0  0  0
   -5.2318   -0.0276    0.3358 C   0  0  0  0  0  0  0  0  0  0  0  0
   -6.4652   -0.6271    0.5661 C   0  0  0  0  0  0  0  0  0  0  0  0
   -7.0660   -0.8831   -0.6896 C   0  0  0  0  0  0  0  0  0  0  0  0
   -6.1851   -0.4098   -1.6270 C   0  0  0  0  0  0  0  0  0  0  0  0
   -5.0959    0.1217   -1.0233 O   0  0  0  0  0  0  0  0  0  0  0  0
   -2.1779   -0.2184   -0.0225 C   0  0  0  0  0  0  0  0  0  0  0  0
   -2.5354   -0.8784   -0.9783 O   0  0  0  0  0  0  0  0  0  0  0  0
   -0.8503    0.0551    0.2373 N   0  0  0  0  0  0  0  0  0  0  0  0
    0.2474   -0.2662   -0.4697 N   0  0  0  0  0  0  0  0  0  0  0  0
    3.5950    0.7526    0.8451 C   0  0  0  0  0  0  0  0  0  0  0  0
    4.9589    0.6909    0.5412 C   0  0  0  0  0  0  0  0  0  0  0  0
    7.0313   -0.0352   -2.0264 H   0  0  0  0  0  0  0  0  0  0  0  0
    7.4027    0.8380   -0.5404 H   0  0  0  0  0  0  0  0  0  0  0  0
    7.2756   -0.9382   -0.5108 H   0  0  0  0  0  0  0  0  0  0  0  0
    4.7681   -1.0073   -2.4017 H   0  0  0  0  0  0  0  0  0  0  0  0
    2.3733   -0.8954   -1.8714 H   0  0  0  0  0  0  0  0  0  0  0  0
   -4.6958    0.8639    2.1949 H   0  0  0  0  0  0  0  0  0  0  0  0
   -6.8772   -0.8634    1.5378 H   0  0  0  0  0  0  0  0  0  0  0  0
   -8.0196   -1.3520   -0.8860 H   0  0  0  0  0  0  0  0  0  0  0  0
   -6.1834   -0.3737   -2.7075 H   0  0  0  0  0  0  0  0  0  0  0  0
    3.2809    1.2442    1.7639 H   0  0  0  0  0  0  0  0  0  0  0  0
    5.6760    1.1307    1.2309 H   0  0  0  0  0  0  0  0  0  0  0  0
  1  2  1  0
  2  3  2  0
  3  4  1  0
  4  5  2  0
  5  6  1  0
  6  7  1  0
  7  8  2  0
  8  9  1  0
  9 10  1  0
 10 11  2  3
 11 12  1  0
 12 13  2  0
 13 14  1  0
 14 15  2  0
 15 16  1  0
 10 17  1  0
 17 18  2  0
 17 19  1  0
 19 20  1  0
  5 21  1  0
 21 22  2  0
 22  2  1  0
 20  6  2  0
 19  8  1  0
 16 12  1  0
  1 23  1  0
  1 24  1  0
  1 25  1  0
  3 26  1  0
  4 27  1  0
 11 28  1  0
 13 29  1  0
 14 30  1  0
 15 31  1  0
 21 32  1  0
 22 33  1  0
M  END
$$$$
