
     RDKit          3D

 53 56  0  0  0  0  0  0  0  0999 V2000
   -6.7617    3.3729    1.8138 C   0  0  0  0  0  0  0  0  0  0  0  0
   -5.5842    2.5834    1.3260 C   0  0  0  0  0  0  0  0  0  0  0  0
   -5.6250    1.1856    1.3072 C   0  0  0  0  0  0  0  0  0  0  0  0
   -4.5175    0.4452    0.8777 C   0  0  0  0  0  0  0  0  0  0  0  0
   -3.3558    1.0906    0.4541 C   0  0  0  0  0  0  0  0  0  0  0  0
   -2.1862    0.4123    0.0465 N   0  0  0  0  0  0  0  0  0  0  0  0
   -2.0175   -0.8560   -0.4924 C   0  0  0  0  0  0  0  0  0  0  0  0
   -3.2030   -1.6308   -1.4089 S   0  0  0  0  0  0  0  0  0  0  0  0
   -0.7217   -1.3855   -0.2542 N   0  0  0  0  0  0  0  0  0  0  0  0
   -0.2438   -2.6091   -0.9332 C   0  0  0  0  0  0  0  0  0  0  0  0
   -0.0769   -3.7637    0.0174 C   0  0  0  0  0  0  0  0  0  0  0  0
    1.0815   -4.4640    0.3029 C   0  0  0  0  0  0  0  0  0  0  0  0
    0.8701   -5.5085    1.2481 C   0  0  0  0  0  0  0  0  0  0  0  0
   -0.4453   -5.5834    1.6448 C   0  0  0  0  0  0  0  0  0  0  0  0
   -1.4159   -4.4069    0.8751 S   0  0  0  0  0  0  0  0  0  0  0  0
    0.1724   -0.8216    0.7812 C   0  0  0  0  0  0  0  0  0  0  0  0
    1.3948   -0.1944    0.1732 C   0  0  0  0  0  0  0  0  0  0  0  0
    2.6087   -0.7732    0.1976 C   0  0  0  0  0  0  0  0  0  0  0  0
    3.7743   -0.1178   -0.3957 C   0  0  0  0  0  0  0  0  0  0  0  0
    5.0266   -0.7363   -0.3867 C   0  0  0  0  0  0  0  0  0  0  0  0
    6.1228   -0.0952   -0.9615 C   0  0  0  0  0  0  0  0  0  0  0  0
    5.9723    1.1638   -1.5461 C   0  0  0  0  0  0  0  0  0  0  0  0
    4.7232    1.8033   -1.5660 C   0  0  0  0  0  0  0  0  0  0  0  0
    4.6007    3.1591   -2.2015 C   0  0  0  0  0  0  0  0  0  0  0  0
    3.6259    1.1483   -0.9827 C   0  0  0  0  0  0  0  0  0  0  0  0
    2.3556    1.7440   -0.9642 N   0  0  0  0  0  0  0  0  0  0  0  0
    1.2455    1.1705   -0.4082 C   0  0  0  0  0  0  0  0  0  0  0  0
    0.1709    1.7660   -0.3851 O   0  0  0  0  0  0  0  0  0  0  0  0
   -3.2995    2.4872    0.5157 C   0  0  0  0  0  0  0  0  0  0  0  0
   -4.4049    3.2288    0.9435 C   0  0  0  0  0  0  0  0  0  0  0  0
   -7.6998    2.8549    1.5876 H   0  0  0  0  0  0  0  0  0  0  0  0
   -6.6911    3.5213    2.8957 H   0  0  0  0  0  0  0  0  0  0  0  0
   -6.8054    4.3513    1.3243 H   0  0  0  0  0  0  0  0  0  0  0  0
   -6.5180    0.6567    1.6322 H   0  0  0  0  0  0  0  0  0  0  0  0
   -4.5799   -0.6376    0.9149 H   0  0  0  0  0  0  0  0  0  0  0  0
   -1.3798    1.0218   -0.1038 H   0  0  0  0  0  0  0  0  0  0  0  0
   -0.8897   -2.9116   -1.7607 H   0  0  0  0  0  0  0  0  0  0  0  0
    0.7197   -2.3686   -1.3979 H   0  0  0  0  0  0  0  0  0  0  0  0
    2.0401   -4.2398   -0.1493 H   0  0  0  0  0  0  0  0  0  0  0  0
    1.6405   -6.1766    1.6130 H   0  0  0  0  0  0  0  0  0  0  0  0
   -0.8893   -6.2783    2.3443 H   0  0  0  0  0  0  0  0  0  0  0  0
    0.4534   -1.6304    1.4655 H   0  0  0  0  0  0  0  0  0  0  0  0
   -0.3453   -0.1000    1.4208 H   0  0  0  0  0  0  0  0  0  0  0  0
    2.7535   -1.7482    0.6510 H   0  0  0  0  0  0  0  0  0  0  0  0
    5.1622   -1.7159    0.0643 H   0  0  0  0  0  0  0  0  0  0  0  0
    7.0984   -0.5759   -0.9550 H   0  0  0  0  0  0  0  0  0  0  0  0
    6.8433    1.6443   -1.9881 H   0  0  0  0  0  0  0  0  0  0  0  0
    3.8760    3.1303   -3.0216 H   0  0  0  0  0  0  0  0  0  0  0  0
    5.5554    3.4968   -2.6186 H   0  0  0  0  0  0  0  0  0  0  0  0
    4.2842    3.8986   -1.4591 H   0  0  0  0  0  0  0  0  0  0  0  0
    2.2173    2.6631   -1.3601 H   0  0  0  0  0  0  0  0  0  0  0  0
   -2.3961    3.0157    0.2198 H   0  0  0  0  0  0  0  0  0  0  0  0
   -4.3360    4.3135    0.9733 H   0  0  0  0  0  0  0  0  0  0  0  0
  1  2  1  0
  2  3  2  0
  3  4  1  0
  4  5  2  0
  5  6  1  0
  6  7  1  0
  7  8  2  0
  7  9  1  0
  9 10  1  0
 10 11  1  0
 11 12  2  0
 12 13  1  0
 13 14  2  0
 14 15  1  0
  9 16  1  0
 16 17  1  0
 17 18  2  0
 18 19  1  0
 19 20  2  0
 20 21  1  0
 21 22  2  0
 22 23  1  0
 23 24  1  0
 23 25  2  0
 25 26  1  0
 26 27  1  0
 27 28  2  0
  5 29  1  0
 29 30  2  0
 30  2  1  0
 15 11  1  0
 27 17  1  0
 25 19  1  0
  1 31  1  0
  1 32  1  0
  1 33  1  0
  3 34  1  0
  4 35  1  0
  6 36  1  0
 10 37  1  0
 10 38  1  0
 12 39  1  0
 13 40  1  0
 14 41  1  0
 16 42  1  0
 16 43  1  0
 18 44  1  0
 20 45  1  0
 21 46  1  0
 22 47  1  0
 24 48  1  0
 24 49  1  0
 24 50  1  0
 26 51  1  0
 29 52  1  0
 30 53  1  0
M  END
$$$$
