
     RDKit          3D

 58 60  0  0  0  0  0  0  0  0999 V2000
   -5.4288    1.2581    2.9656 C   0  0  0  0  0  0  0  0  0  0  0  0
   -6.0047    0.9175    1.7102 O   0  0  0  0  0  0  0  0  0  0  0  0
   -5.3368    0.0236    0.9136 C   0  0  0  0  0  0  0  0  0  0  0  0
   -4.0735   -0.5087    1.2087 C   0  0  0  0  0  0  0  0  0  0  0  0
   -3.4667   -1.4124    0.3308 C   0  0  0  0  0  0  0  0  0  0  0  0
   -2.2339   -1.9900    0.5125 O   0  0  0  0  0  0  0  0  0  0  0  0
   -1.4352   -1.5033    1.5874 C   0  0  0  0  0  0  0  0  0  0  0  0
   -4.1355   -1.7908   -0.8475 C   0  0  0  0  0  0  0  0  0  0  0  0
   -3.4807   -2.6872   -1.7530 N   0  0  0  0  0  0  0  0  0  0  0  0
   -2.9520   -2.0775   -3.2388 S   0  0  0  0  0  6  0  0  0  0  0  0
   -1.9981   -3.0281   -3.7680 O   0  0  0  0  0  0  0  0  0  0  0  0
   -4.0997   -1.6519   -4.0102 O   0  0  0  0  0  0  0  0  0  0  0  0
   -2.0330   -0.6215   -2.7832 C   0  0  0  0  0  0  0  0  0  0  0  0
   -2.5603    0.6477   -3.0309 C   0  0  0  0  0  0  0  0  0  0  0  0
   -1.8410    1.7780   -2.6356 C   0  0  0  0  0  0  0  0  0  0  0  0
   -0.5967    1.6462   -2.0038 C   0  0  0  0  0  0  0  0  0  0  0  0
    0.1733    3.0982   -1.4785 Cl  0  0  0  0  0  0  0  0  0  0  0  0
   -0.0621    0.3697   -1.7861 C   0  0  0  0  0  0  0  0  0  0  0  0
    1.2211    0.1286   -1.1019 C   0  0  0  0  0  0  0  0  0  0  0  0
    1.3536   -0.6987   -0.2142 O   0  0  0  0  0  0  0  0  0  0  0  0
    2.2005    0.8505   -1.6896 O   0  0  0  0  0  0  0  0  0  0  0  0
    3.4963    0.6805   -1.0986 C   0  0  0  0  0  0  0  0  0  0  0  0
    4.4826    1.4301   -1.9901 C   0  0  0  0  0  0  0  0  0  0  0  0
    3.5829    1.2512    0.3355 C   0  0  0  0  0  0  0  0  0  0  0  0
    2.8158    2.1377    0.7201 O   0  0  0  0  0  0  0  0  0  0  0  0
    4.5729    0.7542    1.1581 N   0  0  0  0  0  0  0  0  0  0  0  0
    5.4600   -0.3694    0.9014 C   0  0  0  0  0  0  0  0  0  0  0  0
    6.4645   -0.3180    2.0437 C   0  0  0  0  0  0  0  0  0  0  0  0
    5.6341    0.2283    3.1977 C   0  0  0  0  0  0  0  0  0  0  0  0
    4.7275    1.2455    2.5170 C   0  0  0  0  0  0  0  0  0  0  0  0
   -0.7817   -0.7690   -2.1787 C   0  0  0  0  0  0  0  0  0  0  0  0
   -5.3876   -1.2678   -1.1528 C   0  0  0  0  0  0  0  0  0  0  0  0
   -5.9837   -0.3626   -0.2750 C   0  0  0  0  0  0  0  0  0  0  0  0
   -7.5384    0.2672   -0.6991 Cl  0  0  0  0  0  0  0  0  0  0  0  0
   -4.4794    1.7887    2.8319 H   0  0  0  0  0  0  0  0  0  0  0  0
   -5.3024    0.3724    3.5963 H   0  0  0  0  0  0  0  0  0  0  0  0
   -6.1197    1.9352    3.4785 H   0  0  0  0  0  0  0  0  0  0  0  0
   -3.5653   -0.2199    2.1196 H   0  0  0  0  0  0  0  0  0  0  0  0
   -1.2591   -0.4259    1.4944 H   0  0  0  0  0  0  0  0  0  0  0  0
   -0.4650   -2.0060    1.5355 H   0  0  0  0  0  0  0  0  0  0  0  0
   -1.8884   -1.7498    2.5538 H   0  0  0  0  0  0  0  0  0  0  0  0
   -2.7487   -3.2522   -1.3150 H   0  0  0  0  0  0  0  0  0  0  0  0
   -3.5296    0.7674   -3.5121 H   0  0  0  0  0  0  0  0  0  0  0  0
   -2.2647    2.7655   -2.8110 H   0  0  0  0  0  0  0  0  0  0  0  0
    3.7435   -0.3872   -1.1052 H   0  0  0  0  0  0  0  0  0  0  0  0
    4.2384    2.4994   -2.0242 H   0  0  0  0  0  0  0  0  0  0  0  0
    5.5137    1.3360   -1.6395 H   0  0  0  0  0  0  0  0  0  0  0  0
    4.4263    1.0600   -3.0211 H   0  0  0  0  0  0  0  0  0  0  0  0
    5.9368   -0.2927   -0.0778 H   0  0  0  0  0  0  0  0  0  0  0  0
    4.8603   -1.2856    0.9383 H   0  0  0  0  0  0  0  0  0  0  0  0
    6.9124   -1.2923    2.2592 H   0  0  0  0  0  0  0  0  0  0  0  0
    7.2709    0.3863    1.8023 H   0  0  0  0  0  0  0  0  0  0  0  0
    5.0335   -0.5784    3.6364 H   0  0  0  0  0  0  0  0  0  0  0  0
    6.2430    0.6731    3.9909 H   0  0  0  0  0  0  0  0  0  0  0  0
    3.7588    1.3450    3.0174 H   0  0  0  0  0  0  0  0  0  0  0  0
    5.2034    2.2306    2.4619 H   0  0  0  0  0  0  0  0  0  0  0  0
   -0.3737   -1.7621   -1.9939 H   0  0  0  0  0  0  0  0  0  0  0  0
   -5.9004   -1.5636   -2.0651 H   0  0  0  0  0  0  0  0  0  0  0  0
  1  2  1  0
  2  3  1  0
  3  4  2  0
  4  5  1  0
  5  6  1  0
  6  7  1  0
  5  8  2  0
  8  9  1  0
  9 10  1  0
 10 11  2  0
 10 12  2  0
 10 13  1  0
 13 14  2  0
 14 15  1  0
 15 16  2  0
 16 17  1  0
 16 18  1  0
 18 19  1  0
 19 20  2  0
 19 21  1  0
 21 22  1  0
 22 23  1  0
 22 24  1  0
 24 25  2  0
 24 26  1  0
 26 27  1  0
 27 28  1  0
 28 29  1  0
 29 30  1  0
 18 31  2  0
  8 32  1  0
 32 33  2  0
 33 34  1  0
 33  3  1  0
 31 13  1  0
 30 26  1  0
  1 35  1  0
  1 36  1  0
  1 37  1  0
  4 38  1  0
  7 39  1  0
  7 40  1  0
  7 41  1  0
  9 42  1  0
 14 43  1  0
 15 44  1  0
 22 45  1  0
 23 46  1  0
 23 47  1  0
 23 48  1  0
 27 49  1  0
 27 50  1  0
 28 51  1  0
 28 52  1  0
 29 53  1  0
 29 54  1  0
 30 55  1  0
 30 56  1  0
 31 57  1  0
 32 58  1  0
M  END
$$$$
