
     RDKit          3D

 33 35  0  0  0  0  0  0  0  0999 V2000
    4.6737   -1.3566   -0.9083 O   0  0  0  0  0  0  0  0  0  0  0  0
    4.2334   -1.4928    0.4407 C   0  0  0  0  0  0  0  0  0  0  0  0
    2.7433   -1.1529    0.5296 C   0  0  0  0  0  0  0  0  0  0  0  0
    2.5673    0.2157    0.0634 N   0  0  0  0  0  0  0  0  0  0  0  0
    1.4201    0.7630   -0.1254 C   0  0  0  0  0  0  0  0  0  0  0  0
    1.4255    2.2050   -0.6475 C   0  0  0  0  0  0  0  0  0  0  0  0
    0.2751    2.4597   -1.6265 C   0  0  0  0  0  0  0  0  0  0  0  0
   -1.0877    2.1764   -0.9812 C   0  0  0  0  0  0  0  0  0  0  0  0
   -1.0748    0.8562   -0.2817 C   0  0  0  0  0  0  0  0  0  0  0  0
    0.0960    0.2169    0.1095 C   0  0  0  0  0  0  0  0  0  0  0  0
   -0.2824   -0.9469    0.7275 N   0  0  0  0  0  0  0  0  0  0  0  0
   -1.6540   -1.0758    0.7394 C   0  0  0  0  0  0  0  0  0  0  0  0
   -2.4567   -2.0976    1.2612 C   0  0  0  0  0  0  0  0  0  0  0  0
   -3.8423   -1.9594    1.1325 C   0  0  0  0  0  0  0  0  0  0  0  0
   -4.3911   -0.8422    0.5079 C   0  0  0  0  0  0  0  0  0  0  0  0
   -6.1029   -0.7041    0.3685 Cl  0  0  0  0  0  0  0  0  0  0  0  0
   -3.5784    0.1716   -0.0083 C   0  0  0  0  0  0  0  0  0  0  0  0
   -2.1799    0.0503    0.1096 C   0  0  0  0  0  0  0  0  0  0  0  0
    4.3028   -0.4996   -1.1991 H   0  0  0  0  0  0  0  0  0  0  0  0
    4.8302   -0.8188    1.0639 H   0  0  0  0  0  0  0  0  0  0  0  0
    4.4162   -2.5222    0.7619 H   0  0  0  0  0  0  0  0  0  0  0  0
    2.4207   -1.2564    1.5702 H   0  0  0  0  0  0  0  0  0  0  0  0
    2.1912   -1.8470   -0.1134 H   0  0  0  0  0  0  0  0  0  0  0  0
    2.3825    2.4065   -1.1424 H   0  0  0  0  0  0  0  0  0  0  0  0
    1.3498    2.8772    0.2157 H   0  0  0  0  0  0  0  0  0  0  0  0
    0.4015    1.8117   -2.5038 H   0  0  0  0  0  0  0  0  0  0  0  0
    0.3067    3.4956   -1.9819 H   0  0  0  0  0  0  0  0  0  0  0  0
   -1.3212    2.9617   -0.2521 H   0  0  0  0  0  0  0  0  0  0  0  0
   -1.8674    2.1969   -1.7507 H   0  0  0  0  0  0  0  0  0  0  0  0
    0.3389   -1.6261    1.1379 H   0  0  0  0  0  0  0  0  0  0  0  0
   -2.0277   -2.9675    1.7484 H   0  0  0  0  0  0  0  0  0  0  0  0
   -4.4923   -2.7368    1.5273 H   0  0  0  0  0  0  0  0  0  0  0  0
   -4.0164    1.0384   -0.4928 H   0  0  0  0  0  0  0  0  0  0  0  0
  1  2  1  0
  2  3  1  0
  3  4  1  0
  4  5  2  3
  5  6  1  0
  6  7  1  0
  7  8  1  0
  8  9  1  0
  9 10  2  0
 10 11  1  0
 11 12  1  0
 12 13  2  0
 13 14  1  0
 14 15  2  0
 15 16  1  0
 15 17  1  0
 17 18  2  0
 10  5  1  0
 18 12  1  0
 18  9  1  0
  1 19  1  0
  2 20  1  0
  2 21  1  0
  3 22  1  0
  3 23  1  0
  6 24  1  0
  6 25  1  0
  7 26  1  0
  7 27  1  0
  8 28  1  0
  8 29  1  0
 11 30  1  0
 13 31  1  0
 14 32  1  0
 17 33  1  0
M  END
$$$$
