
     RDKit          3D

 39 41  0  0  0  0  0  0  0  0999 V2000
    4.0025   -1.5121    2.1312 C   0  0  0  0  0  0  0  0  0  0  0  0
    4.4135   -0.8283    0.8795 C   0  0  0  0  0  0  0  0  0  0  0  0
    5.6653   -0.9619    0.4213 N   0  0  0  0  0  0  0  0  0  0  0  0
    5.6779   -0.2337   -0.7082 N   0  0  0  0  0  0  0  0  0  0  0  0
    6.8888   -0.1549   -1.4877 C   0  0  0  0  0  0  0  0  0  0  0  0
    4.4867    0.3643   -0.9817 C   0  0  0  0  0  0  0  0  0  0  0  0
    3.6266    0.0025    0.0359 C   0  0  0  0  0  0  0  0  0  0  0  0
    2.2426    0.3871    0.1932 C   0  0  0  0  0  0  0  0  0  0  0  0
    1.7005    1.1556   -0.6970 N   0  0  0  0  0  0  0  0  0  0  0  0
    0.3716    1.4863   -0.5555 N   0  0  0  0  0  0  0  0  0  0  0  0
   -0.6221    0.6539   -0.0406 C   0  0  0  0  0  0  0  0  0  0  0  0
   -0.4129   -0.4589    0.4343 O   0  0  0  0  0  0  0  0  0  0  0  0
   -1.9852    1.2047   -0.1447 C   0  0  0  0  0  0  0  0  0  0  0  0
   -2.2777    2.5578   -0.2407 C   0  0  0  0  0  0  0  0  0  0  0  0
   -3.9497    2.8847   -0.3757 S   0  0  0  0  0  0  0  0  0  0  0  0
   -4.3287    1.2342   -0.2820 C   0  0  0  0  0  0  0  0  0  0  0  0
   -3.2108    0.4333   -0.1303 C   0  0  0  0  0  0  0  0  0  0  0  0
   -3.3289   -1.0649   -0.0276 C   0  0  0  0  0  0  0  0  0  0  0  0
   -4.7720   -1.5197    0.2440 C   0  0  0  0  0  0  0  0  0  0  0  0
   -5.7848   -0.7581   -0.6190 C   0  0  0  0  0  0  0  0  0  0  0  0
   -5.7451    0.7486   -0.3296 C   0  0  0  0  0  0  0  0  0  0  0  0
    3.6928   -0.7779    2.8817 H   0  0  0  0  0  0  0  0  0  0  0  0
    4.8201   -2.1045    2.5549 H   0  0  0  0  0  0  0  0  0  0  0  0
    3.1618   -2.1863    1.9386 H   0  0  0  0  0  0  0  0  0  0  0  0
    7.6729    0.2810   -0.8636 H   0  0  0  0  0  0  0  0  0  0  0  0
    6.7172    0.4742   -2.3647 H   0  0  0  0  0  0  0  0  0  0  0  0
    7.1634   -1.1652   -1.8013 H   0  0  0  0  0  0  0  0  0  0  0  0
    4.3388    0.9845   -1.8549 H   0  0  0  0  0  0  0  0  0  0  0  0
    1.7279    0.0239    1.0972 H   0  0  0  0  0  0  0  0  0  0  0  0
    0.0775    2.2123   -1.2000 H   0  0  0  0  0  0  0  0  0  0  0  0
   -1.5937    3.3953   -0.2304 H   0  0  0  0  0  0  0  0  0  0  0  0
   -2.6901   -1.4484    0.7747 H   0  0  0  0  0  0  0  0  0  0  0  0
   -2.9809   -1.5050   -0.9702 H   0  0  0  0  0  0  0  0  0  0  0  0
   -4.8556   -2.5966    0.0590 H   0  0  0  0  0  0  0  0  0  0  0  0
   -5.0124   -1.3584    1.3028 H   0  0  0  0  0  0  0  0  0  0  0  0
   -5.5616   -0.9373   -1.6786 H   0  0  0  0  0  0  0  0  0  0  0  0
   -6.7957   -1.1390   -0.4353 H   0  0  0  0  0  0  0  0  0  0  0  0
   -6.3194    1.2807   -1.0966 H   0  0  0  0  0  0  0  0  0  0  0  0
   -6.2213    0.9462    0.6387 H   0  0  0  0  0  0  0  0  0  0  0  0
  1  2  1  0
  2  3  2  0
  3  4  1  0
  4  5  1  0
  4  6  1  0
  6  7  2  0
  7  8  1  0
  8  9  2  3
  9 10  1  0
 10 11  1  0
 11 12  2  0
 11 13  1  0
 13 14  2  0
 14 15  1  0
 15 16  1  0
 16 17  2  0
 17 18  1  0
 18 19  1  0
 19 20  1  0
 20 21  1  0
  7  2  1  0
 17 13  1  0
 21 16  1  0
  1 22  1  0
  1 23  1  0
  1 24  1  0
  5 25  1  0
  5 26  1  0
  5 27  1  0
  6 28  1  0
  8 29  1  0
 10 30  1  0
 14 31  1  0
 18 32  1  0
 18 33  1  0
 19 34  1  0
 19 35  1  0
 20 36  1  0
 20 37  1  0
 21 38  1  0
 21 39  1  0
M  END
$$$$
