
     RDKit          3D

 45 47  0  0  0  0  0  0  0  0999 V2000
    1.6004   -3.1741    1.5836 C   0  0  0  0  0  0  0  0  0  0  0  0
    2.5472   -2.0084    1.5279 C   0  0  0  0  0  0  0  0  0  0  0  0
    3.8842   -2.1980    1.9302 C   0  0  0  0  0  0  0  0  0  0  0  0
    4.8045   -1.1543    1.9028 C   0  0  0  0  0  0  0  0  0  0  0  0
    4.4263    0.1184    1.4751 C   0  0  0  0  0  0  0  0  0  0  0  0
    3.0960    0.3119    1.0724 C   0  0  0  0  0  0  0  0  0  0  0  0
    2.3383    1.7516    0.5155 S   0  0  0  0  0  0  0  0  0  0  0  0
    0.8719    0.9009    0.2773 C   0  0  0  0  0  0  0  0  0  0  0  0
   -0.2818    1.5624   -0.1409 N   0  0  0  0  0  0  0  0  0  0  0  0
   -1.5899    1.0178    0.2409 C   0  0  0  0  0  0  0  0  0  0  0  0
   -2.1515    0.1067   -0.8531 C   0  0  0  0  0  0  0  0  0  0  0  0
   -3.5630   -0.4002   -0.5339 C   0  0  0  0  0  0  0  0  0  0  0  0
   -3.6827   -1.1087    0.7502 N   0  0  0  0  0  0  0  0  0  0  0  0
   -5.0923   -1.3815    1.0441 C   0  0  0  0  0  0  0  0  0  0  0  0
   -2.9244   -2.3623    0.7602 C   0  0  0  0  0  0  0  0  0  0  0  0
   -0.2751    2.7467   -0.8931 C   0  0  0  0  0  0  0  0  0  0  0  0
   -1.1774    3.5774   -0.7584 O   0  0  0  0  0  0  0  0  0  0  0  0
    0.7409    2.9530   -1.9231 C   0  0  0  0  0  0  0  0  0  0  0  0
    1.3430    4.1510   -2.2724 C   0  0  0  0  0  0  0  0  0  0  0  0
    2.2515    4.0067   -3.3631 C   0  0  0  0  0  0  0  0  0  0  0  0
    2.2637    2.7166   -3.8243 C   0  0  0  0  0  0  0  0  0  0  0  0
    3.2025    2.1027   -5.1241 Cl  0  0  0  0  0  0  0  0  0  0  0  0
    1.2068    1.6905   -2.9944 S   0  0  0  0  0  0  0  0  0  0  0  0
    0.8870   -0.3543    0.6618 N   0  0  0  0  0  0  0  0  0  0  0  0
    2.1557   -0.7193    1.0884 C   0  0  0  0  0  0  0  0  0  0  0  0
    0.6016   -2.9000    1.2313 H   0  0  0  0  0  0  0  0  0  0  0  0
    1.5085   -3.5343    2.6132 H   0  0  0  0  0  0  0  0  0  0  0  0
    1.9688   -3.9882    0.9512 H   0  0  0  0  0  0  0  0  0  0  0  0
    4.2090   -3.1799    2.2714 H   0  0  0  0  0  0  0  0  0  0  0  0
    5.8300   -1.3315    2.2204 H   0  0  0  0  0  0  0  0  0  0  0  0
    5.1419    0.9346    1.4566 H   0  0  0  0  0  0  0  0  0  0  0  0
   -1.4894    0.4839    1.1932 H   0  0  0  0  0  0  0  0  0  0  0  0
   -2.2885    1.8431    0.4212 H   0  0  0  0  0  0  0  0  0  0  0  0
   -1.4707   -0.7336   -1.0319 H   0  0  0  0  0  0  0  0  0  0  0  0
   -2.1935    0.6602   -1.8001 H   0  0  0  0  0  0  0  0  0  0  0  0
   -3.9075   -1.0371   -1.3593 H   0  0  0  0  0  0  0  0  0  0  0  0
   -4.2249    0.4760   -0.5193 H   0  0  0  0  0  0  0  0  0  0  0  0
   -5.6630   -0.4476    1.0977 H   0  0  0  0  0  0  0  0  0  0  0  0
   -5.1957   -1.8651    2.0220 H   0  0  0  0  0  0  0  0  0  0  0  0
   -5.5548   -2.0269    0.2884 H   0  0  0  0  0  0  0  0  0  0  0  0
   -3.0531   -2.8812    1.7171 H   0  0  0  0  0  0  0  0  0  0  0  0
   -3.2371   -3.0404   -0.0419 H   0  0  0  0  0  0  0  0  0  0  0  0
   -1.8505   -2.1772    0.6614 H   0  0  0  0  0  0  0  0  0  0  0  0
    1.1423    5.0838   -1.7568 H   0  0  0  0  0  0  0  0  0  0  0  0
    2.8446    4.8079   -3.7857 H   0  0  0  0  0  0  0  0  0  0  0  0
  1  2  1  0
  2  3  2  0
  3  4  1  0
  4  5  2  0
  5  6  1  0
  6  7  1  0
  7  8  1  0
  8  9  1  0
  9 10  1  0
 10 11  1  0
 11 12  1  0
 12 13  1  0
 13 14  1  0
 13 15  1  0
  9 16  1  0
 16 17  2  0
 16 18  1  0
 18 19  2  0
 19 20  1  0
 20 21  2  0
 21 22  1  0
 21 23  1  0
  8 24  2  0
 24 25  1  0
 25  2  1  0
 25  6  2  0
 23 18  1  0
  1 26  1  0
  1 27  1  0
  1 28  1  0
  3 29  1  0
  4 30  1  0
  5 31  1  0
 10 32  1  0
 10 33  1  0
 11 34  1  0
 11 35  1  0
 12 36  1  0
 12 37  1  0
 14 38  1  0
 14 39  1  0
 14 40  1  0
 15 41  1  0
 15 42  1  0
 15 43  1  0
 19 44  1  0
 20 45  1  0
M  END
$$$$
