
     RDKit          3D

 48 50  0  0  0  0  0  0  0  0999 V2000
    4.7560    3.0001   -1.1169 C   0  0  0  0  0  0  0  0  0  0  0  0
    3.4672    2.2766   -0.9165 C   0  0  0  0  0  0  0  0  0  0  0  0
    2.2845    2.8101   -0.4448 C   0  0  0  0  0  0  0  0  0  0  0  0
    1.3425    1.7638   -0.2958 C   0  0  0  0  0  0  0  0  0  0  0  0
   -0.0107    1.9224    0.2093 C   0  0  0  0  0  0  0  0  0  0  0  0
   -0.7670    0.8927    0.3997 N   0  0  0  0  0  0  0  0  0  0  0  0
   -2.0169    1.1443    0.8856 N   0  0  0  0  0  0  0  0  0  0  0  0
   -2.8988    0.0846    1.1045 C   0  0  0  0  0  0  0  0  0  0  0  0
   -2.6250   -1.0924    0.8994 O   0  0  0  0  0  0  0  0  0  0  0  0
   -4.2212    0.5853    1.6572 C   0  0  0  0  0  0  0  0  0  0  0  0
   -5.3267   -0.4648    1.7620 C   0  0  0  0  0  0  0  0  0  0  0  0
   -6.5720    0.1855    2.3787 C   0  0  0  0  0  0  0  0  0  0  0  0
   -4.9446   -1.5470    2.6166 O   0  0  0  0  0  0  0  0  0  0  0  0
   -5.4204   -2.7168    1.9513 C   0  0  0  0  0  0  0  0  0  0  0  0
   -5.4247   -2.3472    0.4903 C   0  0  0  0  0  0  0  0  0  0  0  0
   -5.7193   -0.9487    0.4701 O   0  0  0  0  0  0  0  0  0  0  0  0
    1.9640    0.6022   -0.7447 C   0  0  0  0  0  0  0  0  0  0  0  0
    1.3513   -0.7523   -0.9390 C   0  0  0  0  0  0  0  0  0  0  0  0
    3.2864    0.9049   -1.0724 N   0  0  0  0  0  0  0  0  0  0  0  0
    4.2886   -0.0302   -1.4667 C   0  0  0  0  0  0  0  0  0  0  0  0
    5.1316    0.2489   -2.5478 C   0  0  0  0  0  0  0  0  0  0  0  0
    6.1147   -0.6713   -2.9219 C   0  0  0  0  0  0  0  0  0  0  0  0
    6.2637   -1.8703   -2.2186 C   0  0  0  0  0  0  0  0  0  0  0  0
    7.5022   -2.9569   -2.7382 Cl  0  0  0  0  0  0  0  0  0  0  0  0
    5.4225   -2.1507   -1.1364 C   0  0  0  0  0  0  0  0  0  0  0  0
    5.5560   -3.6070   -0.2153 Cl  0  0  0  0  0  0  0  0  0  0  0  0
    4.4352   -1.2327   -0.7616 C   0  0  0  0  0  0  0  0  0  0  0  0
    5.6071    2.4282   -0.7353 H   0  0  0  0  0  0  0  0  0  0  0  0
    4.9135    3.2265   -2.1754 H   0  0  0  0  0  0  0  0  0  0  0  0
    4.7457    3.9541   -0.5779 H   0  0  0  0  0  0  0  0  0  0  0  0
    2.1321    3.8539   -0.1980 H   0  0  0  0  0  0  0  0  0  0  0  0
   -0.3426    2.9519    0.4315 H   0  0  0  0  0  0  0  0  0  0  0  0
   -2.2974    2.0987    1.0780 H   0  0  0  0  0  0  0  0  0  0  0  0
   -4.0048    0.9933    2.6529 H   0  0  0  0  0  0  0  0  0  0  0  0
   -4.5579    1.4028    1.0068 H   0  0  0  0  0  0  0  0  0  0  0  0
   -6.9331    1.0168    1.7637 H   0  0  0  0  0  0  0  0  0  0  0  0
   -7.3922   -0.5381    2.4520 H   0  0  0  0  0  0  0  0  0  0  0  0
   -6.3710    0.5480    3.3925 H   0  0  0  0  0  0  0  0  0  0  0  0
   -4.7845   -3.5767    2.1768 H   0  0  0  0  0  0  0  0  0  0  0  0
   -6.4343   -2.9225    2.3111 H   0  0  0  0  0  0  0  0  0  0  0  0
   -4.4477   -2.5051    0.0258 H   0  0  0  0  0  0  0  0  0  0  0  0
   -6.1711   -2.9016   -0.0850 H   0  0  0  0  0  0  0  0  0  0  0  0
    1.8798   -1.3464   -1.6899 H   0  0  0  0  0  0  0  0  0  0  0  0
    1.3369   -1.3040    0.0058 H   0  0  0  0  0  0  0  0  0  0  0  0
    0.3236   -0.6658   -1.3057 H   0  0  0  0  0  0  0  0  0  0  0  0
    5.0119    1.1526   -3.1397 H   0  0  0  0  0  0  0  0  0  0  0  0
    6.7572   -0.4506   -3.7714 H   0  0  0  0  0  0  0  0  0  0  0  0
    3.8098   -1.4490    0.1020 H   0  0  0  0  0  0  0  0  0  0  0  0
  1  2  1  0
  2  3  2  0
  3  4  1  0
  4  5  1  0
  5  6  2  3
  6  7  1  0
  7  8  1  0
  8  9  2  0
  8 10  1  0
 10 11  1  0
 11 12  1  0
 11 13  1  0
 13 14  1  0
 14 15  1  0
 15 16  1  0
  4 17  2  0
 17 18  1  0
 17 19  1  0
 19 20  1  0
 20 21  2  0
 21 22  1  0
 22 23  2  0
 23 24  1  0
 23 25  1  0
 25 26  1  0
 25 27  2  0
 19  2  1  0
 27 20  1  0
 16 11  1  0
  1 28  1  0
  1 29  1  0
  1 30  1  0
  3 31  1  0
  5 32  1  0
  7 33  1  0
 10 34  1  0
 10 35  1  0
 12 36  1  0
 12 37  1  0
 12 38  1  0
 14 39  1  0
 14 40  1  0
 15 41  1  0
 15 42  1  0
 18 43  1  0
 18 44  1  0
 18 45  1  0
 21 46  1  0
 22 47  1  0
 27 48  1  0
M  END
$$$$
