
     RDKit          3D

 47 49  0  0  0  0  0  0  0  0999 V2000
    6.2623   -2.3169    1.3895 C   0  0  0  0  0  0  0  0  0  0  0  0
    5.1055   -2.2979    0.3958 C   0  0  0  0  0  0  0  0  0  0  0  0
    3.8119   -2.0944    1.0574 N   0  0  0  0  0  0  0  0  0  0  0  0
    2.7057   -2.5184    0.1720 C   0  0  0  0  0  0  0  0  0  0  0  0
    1.3327   -1.9268    0.5593 C   0  0  0  0  0  0  0  0  0  0  0  0
    1.3330   -0.4464    0.4728 N   0  0  0  0  0  0  0  0  0  0  0  0
    0.1685    0.3095    0.2455 C   0  0  0  0  0  0  0  0  0  0  0  0
   -1.0818   -0.1919    0.3534 C   0  0  0  0  0  0  0  0  0  0  0  0
   -2.2839    0.5860    0.1007 C   0  0  0  0  0  0  0  0  0  0  0  0
   -3.4482   -0.0108   -0.2107 C   0  0  0  0  0  0  0  0  0  0  0  0
   -4.6266    0.7384   -0.6508 C   0  0  0  0  0  0  0  0  0  0  0  0
   -5.8806    0.2225   -0.6479 C   0  0  0  0  0  0  0  0  0  0  0  0
   -6.9963    0.9726   -1.1221 C   0  0  0  0  0  0  0  0  0  0  0  0
   -7.8961    1.5934   -1.5121 N   0  0  0  0  0  0  0  0  0  0  0  0
   -6.1570   -1.0921   -0.1678 C   0  0  0  0  0  0  0  0  0  0  0  0
   -6.3702   -2.1656    0.2188 N   0  0  0  0  0  0  0  0  0  0  0  0
   -4.2823    2.1301   -1.1655 C   0  0  0  0  0  0  0  0  0  0  0  0
   -3.3805    2.8726   -0.1841 C   0  0  0  0  0  0  0  0  0  0  0  0
   -2.1072    2.0878    0.1648 C   0  0  0  0  0  0  0  0  0  0  0  0
   -0.9131    2.4533   -0.7172 C   0  0  0  0  0  0  0  0  0  0  0  0
    0.3534    1.7677   -0.1809 C   0  0  0  0  0  0  0  0  0  0  0  0
    2.6720    0.1643    0.6430 C   0  0  0  0  0  0  0  0  0  0  0  0
    3.6006   -0.7065    1.5227 C   0  0  0  0  0  0  0  0  0  0  0  0
    7.1948   -2.5617    0.8701 H   0  0  0  0  0  0  0  0  0  0  0  0
    6.1024   -3.0753    2.1635 H   0  0  0  0  0  0  0  0  0  0  0  0
    6.4035   -1.3501    1.8809 H   0  0  0  0  0  0  0  0  0  0  0  0
    5.2811   -1.5386   -0.3762 H   0  0  0  0  0  0  0  0  0  0  0  0
    5.1077   -3.2728   -0.1087 H   0  0  0  0  0  0  0  0  0  0  0  0
    2.6392   -3.6125    0.1949 H   0  0  0  0  0  0  0  0  0  0  0  0
    2.9167   -2.2275   -0.8667 H   0  0  0  0  0  0  0  0  0  0  0  0
    0.5915   -2.3465   -0.1308 H   0  0  0  0  0  0  0  0  0  0  0  0
    1.0590   -2.2313    1.5766 H   0  0  0  0  0  0  0  0  0  0  0  0
   -1.2313   -1.2340    0.6184 H   0  0  0  0  0  0  0  0  0  0  0  0
   -3.5057   -1.0987   -0.1964 H   0  0  0  0  0  0  0  0  0  0  0  0
   -5.1725    2.7430   -1.3395 H   0  0  0  0  0  0  0  0  0  0  0  0
   -3.7762    2.0360   -2.1353 H   0  0  0  0  0  0  0  0  0  0  0  0
   -3.1312    3.8645   -0.5789 H   0  0  0  0  0  0  0  0  0  0  0  0
   -3.9479    3.0470    0.7409 H   0  0  0  0  0  0  0  0  0  0  0  0
   -1.8512    2.3614    1.1994 H   0  0  0  0  0  0  0  0  0  0  0  0
   -0.7548    3.5381   -0.7300 H   0  0  0  0  0  0  0  0  0  0  0  0
   -1.0915    2.1446   -1.7559 H   0  0  0  0  0  0  0  0  0  0  0  0
    0.7090    2.3371    0.6873 H   0  0  0  0  0  0  0  0  0  0  0  0
    1.1262    1.8353   -0.9562 H   0  0  0  0  0  0  0  0  0  0  0  0
    3.1254    0.3191   -0.3434 H   0  0  0  0  0  0  0  0  0  0  0  0
    2.5873    1.1420    1.1298 H   0  0  0  0  0  0  0  0  0  0  0  0
    4.5474   -0.1743    1.6650 H   0  0  0  0  0  0  0  0  0  0  0  0
    3.1491   -0.7755    2.5213 H   0  0  0  0  0  0  0  0  0  0  0  0
  1  2  1  0
  2  3  1  0
  3  4  1  0
  4  5  1  0
  5  6  1  0
  6  7  1  0
  7  8  2  0
  8  9  1  0
  9 10  2  0
 10 11  1  0
 11 12  2  3
 12 13  1  0
 13 14  3  0
 12 15  1  0
 15 16  3  0
 11 17  1  0
 17 18  1  0
 18 19  1  0
 19 20  1  0
 20 21  1  0
  6 22  1  0
 22 23  1  0
 23  3  1  0
 21  7  1  0
 19  9  1  0
  1 24  1  0
  1 25  1  0
  1 26  1  0
  2 27  1  0
  2 28  1  0
  4 29  1  0
  4 30  1  0
  5 31  1  0
  5 32  1  0
  8 33  1  0
 10 34  1  0
 17 35  1  0
 17 36  1  0
 18 37  1  0
 18 38  1  0
 19 39  1  0
 20 40  1  0
 20 41  1  0
 21 42  1  0
 21 43  1  0
 22 44  1  0
 22 45  1  0
 23 46  1  0
 23 47  1  0
M  END
$$$$
