
     RDKit          3D

 51 54  0  0  0  0  0  0  0  0999 V2000
    6.5656   -4.0920    0.7556 C   0  0  0  0  0  0  0  0  0  0  0  0
    5.5654   -2.9918    0.5573 C   0  0  0  0  0  0  0  0  0  0  0  0
    4.2048   -3.2866    0.4160 C   0  0  0  0  0  0  0  0  0  0  0  0
    3.2683   -2.2610    0.2622 C   0  0  0  0  0  0  0  0  0  0  0  0
    3.6763   -0.9210    0.2624 C   0  0  0  0  0  0  0  0  0  0  0  0
    2.6774    0.1953    0.0843 C   0  0  0  0  0  0  0  0  0  0  0  0
    2.8384    0.8316   -1.2152 N   0  0  0  0  0  0  0  0  0  0  0  0
    2.0905    2.2891   -1.5224 S   0  0  0  0  0  6  0  0  0  0  0  0
    2.3169    2.5897   -2.9181 O   0  0  0  0  0  0  0  0  0  0  0  0
    2.4546    3.2123   -0.4711 O   0  0  0  0  0  0  0  0  0  0  0  0
    0.3690    1.8882   -1.3330 C   0  0  0  0  0  0  0  0  0  0  0  0
   -0.3136    2.2652   -0.1662 C   0  0  0  0  0  0  0  0  0  0  0  0
   -1.6723    1.9567   -0.0097 C   0  0  0  0  0  0  0  0  0  0  0  0
   -2.3300    1.2777   -1.0218 C   0  0  0  0  0  0  0  0  0  0  0  0
   -1.6402    0.9398   -2.1951 C   0  0  0  0  0  0  0  0  0  0  0  0
   -0.2937    1.2299   -2.3697 C   0  0  0  0  0  0  0  0  0  0  0  0
   -2.5256    0.2237   -3.1656 C   0  0  0  0  0  0  0  0  0  0  0  0
   -3.8947    0.3898   -2.5087 C   0  0  0  0  0  0  0  0  0  0  0  0
   -3.6686    0.8619   -1.1338 N   0  0  0  0  0  0  0  0  0  0  0  0
   -4.7417    0.8949   -0.2486 C   0  0  0  0  0  0  0  0  0  0  0  0
   -5.8785    0.6189   -0.6679 O   0  0  0  0  0  0  0  0  0  0  0  0
   -4.5086    1.2202    1.2431 C   0  0  0  0  0  0  0  0  0  0  0  0
   -3.7119    0.1910    2.1019 C   0  0  0  0  0  0  0  0  0  0  0  0
   -4.6503    0.5306    3.2726 C   0  0  0  0  0  0  0  0  0  0  0  0
   -5.6948    0.9361    2.2198 C   0  0  0  0  0  0  0  0  0  0  0  0
    5.0386   -0.6278    0.4131 C   0  0  0  0  0  0  0  0  0  0  0  0
    5.9735   -1.6537    0.5661 C   0  0  0  0  0  0  0  0  0  0  0  0
    7.5422   -3.8104    0.3481 H   0  0  0  0  0  0  0  0  0  0  0  0
    6.2498   -5.0047    0.2394 H   0  0  0  0  0  0  0  0  0  0  0  0
    6.6763   -4.3090    1.8225 H   0  0  0  0  0  0  0  0  0  0  0  0
    3.8654   -4.3203    0.4234 H   0  0  0  0  0  0  0  0  0  0  0  0
    2.2184   -2.5205    0.1461 H   0  0  0  0  0  0  0  0  0  0  0  0
    2.8098    0.9185    0.8966 H   0  0  0  0  0  0  0  0  0  0  0  0
    1.6634   -0.2111    0.1669 H   0  0  0  0  0  0  0  0  0  0  0  0
    3.0231    0.2465   -2.0268 H   0  0  0  0  0  0  0  0  0  0  0  0
    0.2028    2.8092    0.6234 H   0  0  0  0  0  0  0  0  0  0  0  0
   -2.1613    2.2914    0.8932 H   0  0  0  0  0  0  0  0  0  0  0  0
    0.2219    0.9585   -3.2867 H   0  0  0  0  0  0  0  0  0  0  0  0
   -2.2433   -0.8325   -3.2236 H   0  0  0  0  0  0  0  0  0  0  0  0
   -2.5017    0.6695   -4.1639 H   0  0  0  0  0  0  0  0  0  0  0  0
   -4.4952    1.1467   -3.0287 H   0  0  0  0  0  0  0  0  0  0  0  0
   -4.4619   -0.5478   -2.5045 H   0  0  0  0  0  0  0  0  0  0  0  0
   -4.1829    2.2601    1.3785 H   0  0  0  0  0  0  0  0  0  0  0  0
   -3.7973   -0.8449    1.7519 H   0  0  0  0  0  0  0  0  0  0  0  0
   -2.6578    0.4128    2.2834 H   0  0  0  0  0  0  0  0  0  0  0  0
   -4.9252   -0.3047    3.9211 H   0  0  0  0  0  0  0  0  0  0  0  0
   -4.3001    1.3648    3.8912 H   0  0  0  0  0  0  0  0  0  0  0  0
   -6.3514    0.1115    1.9178 H   0  0  0  0  0  0  0  0  0  0  0  0
   -6.3113    1.8009    2.4797 H   0  0  0  0  0  0  0  0  0  0  0  0
    5.3776    0.4070    0.4093 H   0  0  0  0  0  0  0  0  0  0  0  0
    7.0242   -1.4000    0.6891 H   0  0  0  0  0  0  0  0  0  0  0  0
  1  2  1  0
  2  3  2  0
  3  4  1  0
  4  5  2  0
  5  6  1  0
  6  7  1  0
  7  8  1  0
  8  9  2  0
  8 10  2  0
  8 11  1  0
 11 12  2  0
 12 13  1  0
 13 14  2  0
 14 15  1  0
 15 16  2  0
 15 17  1  0
 17 18  1  0
 18 19  1  0
 19 20  1  0
 20 21  2  0
 20 22  1  0
 22 23  1  0
 23 24  1  0
 24 25  1  0
  5 26  1  0
 26 27  2  0
 27  2  1  0
 16 11  1  0
 25 22  1  0
 19 14  1  0
  1 28  1  0
  1 29  1  0
  1 30  1  0
  3 31  1  0
  4 32  1  0
  6 33  1  0
  6 34  1  0
  7 35  1  0
 12 36  1  0
 13 37  1  0
 16 38  1  0
 17 39  1  0
 17 40  1  0
 18 41  1  0
 18 42  1  0
 22 43  1  0
 23 44  1  0
 23 45  1  0
 24 46  1  0
 24 47  1  0
 25 48  1  0
 25 49  1  0
 26 50  1  0
 27 51  1  0
M  END
$$$$
