
     RDKit          3D

 41 42  0  0  0  0  0  0  0  0999 V2000
   -2.5143    1.6816    2.7195 C   0  0  0  0  0  0  0  0  0  0  0  0
   -2.7730    1.7110    1.2202 C   0  0  0  0  0  0  0  0  0  0  0  0
   -2.5812    0.3723    0.6254 N   0  0  0  0  0  0  0  0  0  0  0  0
   -3.8301   -0.4095    0.5287 C   0  0  0  0  0  0  0  0  0  0  0  0
   -4.5504   -0.1180   -0.7800 C   0  0  0  0  0  0  0  0  0  0  0  0
   -1.3171   -0.1322    0.2377 C   0  0  0  0  0  0  0  0  0  0  0  0
   -0.1565    0.5441    0.3904 C   0  0  0  0  0  0  0  0  0  0  0  0
    1.1647    0.0315    0.0535 C   0  0  0  0  0  0  0  0  0  0  0  0
    2.2496    0.8282    0.1052 C   0  0  0  0  0  0  0  0  0  0  0  0
    3.6120    0.3762   -0.2017 C   0  0  0  0  0  0  0  0  0  0  0  0
    4.6723    1.2211   -0.2760 C   0  0  0  0  0  0  0  0  0  0  0  0
    5.9880    0.7422   -0.5478 C   0  0  0  0  0  0  0  0  0  0  0  0
    7.0538    0.3391   -0.7683 N   0  0  0  0  0  0  0  0  0  0  0  0
    4.5424    2.6278   -0.0780 C   0  0  0  0  0  0  0  0  0  0  0  0
    4.4257    3.7707    0.0879 N   0  0  0  0  0  0  0  0  0  0  0  0
    3.7430   -1.1270   -0.4169 C   0  0  0  0  0  0  0  0  0  0  0  0
    2.5304   -1.7125   -1.1385 C   0  0  0  0  0  0  0  0  0  0  0  0
    1.2461   -1.4217   -0.3538 C   0  0  0  0  0  0  0  0  0  0  0  0
    0.0172   -1.8150   -1.1711 C   0  0  0  0  0  0  0  0  0  0  0  0
   -1.2677   -1.5216   -0.3939 C   0  0  0  0  0  0  0  0  0  0  0  0
   -2.6772    2.6744    3.1504 H   0  0  0  0  0  0  0  0  0  0  0  0
   -3.1872    0.9788    3.2217 H   0  0  0  0  0  0  0  0  0  0  0  0
   -1.4878    1.3784    2.9469 H   0  0  0  0  0  0  0  0  0  0  0  0
   -2.1324    2.4535    0.7317 H   0  0  0  0  0  0  0  0  0  0  0  0
   -3.7986    2.0604    1.0475 H   0  0  0  0  0  0  0  0  0  0  0  0
   -3.6391   -1.4836    0.6249 H   0  0  0  0  0  0  0  0  0  0  0  0
   -4.4946   -0.1605    1.3656 H   0  0  0  0  0  0  0  0  0  0  0  0
   -3.9254   -0.3541   -1.6465 H   0  0  0  0  0  0  0  0  0  0  0  0
   -4.8285    0.9384   -0.8523 H   0  0  0  0  0  0  0  0  0  0  0  0
   -5.4661   -0.7136   -0.8478 H   0  0  0  0  0  0  0  0  0  0  0  0
   -0.1689    1.5442    0.8114 H   0  0  0  0  0  0  0  0  0  0  0  0
    2.1089    1.8710    0.3885 H   0  0  0  0  0  0  0  0  0  0  0  0
    3.8559   -1.6130    0.5611 H   0  0  0  0  0  0  0  0  0  0  0  0
    4.6321   -1.3812   -1.0038 H   0  0  0  0  0  0  0  0  0  0  0  0
    2.6579   -2.7956   -1.2537 H   0  0  0  0  0  0  0  0  0  0  0  0
    2.4683   -1.2907   -2.1509 H   0  0  0  0  0  0  0  0  0  0  0  0
    1.2598   -2.0250    0.5656 H   0  0  0  0  0  0  0  0  0  0  0  0
    0.0524   -2.8812   -1.4256 H   0  0  0  0  0  0  0  0  0  0  0  0
   -0.0005   -1.2636   -2.1212 H   0  0  0  0  0  0  0  0  0  0  0  0
   -2.0964   -1.6571   -1.0963 H   0  0  0  0  0  0  0  0  0  0  0  0
   -1.3872   -2.2679    0.4018 H   0  0  0  0  0  0  0  0  0  0  0  0
  1  2  1  0
  2  3  1  0
  3  4  1  0
  4  5  1  0
  3  6  1  0
  6  7  2  0
  7  8  1  0
  8  9  2  0
  9 10  1  0
 10 11  2  3
 11 12  1  0
 12 13  3  0
 11 14  1  0
 14 15  3  0
 10 16  1  0
 16 17  1  0
 17 18  1  0
 18 19  1  0
 19 20  1  0
 20  6  1  0
 18  8  1  0
  1 21  1  0
  1 22  1  0
  1 23  1  0
  2 24  1  0
  2 25  1  0
  4 26  1  0
  4 27  1  0
  5 28  1  0
  5 29  1  0
  5 30  1  0
  7 31  1  0
  9 32  1  0
 16 33  1  0
 16 34  1  0
 17 35  1  0
 17 36  1  0
 18 37  1  0
 19 38  1  0
 19 39  1  0
 20 40  1  0
 20 41  1  0
M  END
$$$$
