
     RDKit          3D

 51 54  0  0  0  0  0  0  0  0999 V2000
    1.2985   -1.5062    2.5935 O   0  0  0  0  0  0  0  0  0  0  0  0
    1.3856   -0.9534    1.4972 C   0  0  0  0  0  0  0  0  0  0  0  0
    2.6692   -0.5396    0.9665 C   0  0  0  0  0  0  0  0  0  0  0  0
    3.6750   -1.3389    0.4596 C   0  0  0  0  0  0  0  0  0  0  0  0
    4.8149   -0.5798    0.0562 C   0  0  0  0  0  0  0  0  0  0  0  0
    4.6311    0.7684    0.2989 C   0  0  0  0  0  0  0  0  0  0  0  0
    3.1266    1.1089    1.0172 S   0  0  0  0  0  0  0  0  0  0  0  0
    5.6430    1.8390    0.0288 C   0  0  0  0  0  0  0  0  0  0  0  0
    6.7450    1.3140   -0.9054 C   0  0  0  0  0  0  0  0  0  0  0  0
    7.2160   -0.0907   -0.5000 C   0  0  0  0  0  0  0  0  0  0  0  0
    6.0708   -1.1138   -0.5636 C   0  0  0  0  0  0  0  0  0  0  0  0
    0.2529   -0.7571    0.6956 N   0  0  0  0  0  0  0  0  0  0  0  0
   -1.0598   -0.8919    1.3331 C   0  0  0  0  0  0  0  0  0  0  0  0
   -2.1555   -1.3512    0.3601 C   0  0  0  0  0  0  0  0  0  0  0  0
   -2.1728   -0.5646   -0.9136 N   0  0  0  0  0  0  0  0  0  0  0  0
   -2.9645    0.9419   -0.8956 S   0  0  0  0  0  6  0  0  0  0  0  0
   -2.4937    1.6777    0.2502 O   0  0  0  0  0  0  0  0  0  0  0  0
   -2.8645    1.5100   -2.2233 O   0  0  0  0  0  0  0  0  0  0  0  0
   -4.6728    0.4683   -0.6725 C   0  0  0  0  0  0  0  0  0  0  0  0
   -5.2747   -0.1677   -1.7749 C   0  0  0  0  0  0  0  0  0  0  0  0
   -6.6090   -0.5629   -1.7241 C   0  0  0  0  0  0  0  0  0  0  0  0
   -7.3542   -0.3219   -0.5768 C   0  0  0  0  0  0  0  0  0  0  0  0
   -6.7644    0.3133    0.5182 C   0  0  0  0  0  0  0  0  0  0  0  0
   -5.4131    0.7224    0.4960 C   0  0  0  0  0  0  0  0  0  0  0  0
   -4.8457    1.3921    1.7245 C   0  0  0  0  0  0  0  0  0  0  0  0
   -4.4814    2.6821    1.5174 F   0  0  0  0  0  0  0  0  0  0  0  0
   -3.7791    0.7240    2.2401 F   0  0  0  0  0  0  0  0  0  0  0  0
   -5.7473    1.4428    2.7520 F   0  0  0  0  0  0  0  0  0  0  0  0
   -0.8157   -0.5550   -1.5420 C   0  0  0  0  0  0  0  0  0  0  0  0
    0.2620   -0.0336   -0.5833 C   0  0  0  0  0  0  0  0  0  0  0  0
    3.5904   -2.4165    0.3817 H   0  0  0  0  0  0  0  0  0  0  0  0
    6.0927    2.1503    0.9798 H   0  0  0  0  0  0  0  0  0  0  0  0
    5.1734    2.7210   -0.4212 H   0  0  0  0  0  0  0  0  0  0  0  0
    7.5915    2.0098   -0.8981 H   0  0  0  0  0  0  0  0  0  0  0  0
    6.3673    1.2806   -1.9356 H   0  0  0  0  0  0  0  0  0  0  0  0
    8.0326   -0.4156   -1.1545 H   0  0  0  0  0  0  0  0  0  0  0  0
    7.6184   -0.0527    0.5205 H   0  0  0  0  0  0  0  0  0  0  0  0
    5.8627   -1.3607   -1.6121 H   0  0  0  0  0  0  0  0  0  0  0  0
    6.3783   -2.0394   -0.0638 H   0  0  0  0  0  0  0  0  0  0  0  0
   -1.3000    0.0828    1.7691 H   0  0  0  0  0  0  0  0  0  0  0  0
   -1.0102   -1.6026    2.1651 H   0  0  0  0  0  0  0  0  0  0  0  0
   -3.1352   -1.3288    0.8452 H   0  0  0  0  0  0  0  0  0  0  0  0
   -1.9791   -2.3997    0.0870 H   0  0  0  0  0  0  0  0  0  0  0  0
   -4.7014   -0.3534   -2.6829 H   0  0  0  0  0  0  0  0  0  0  0  0
   -7.0664   -1.0518   -2.5810 H   0  0  0  0  0  0  0  0  0  0  0  0
   -8.3984   -0.6244   -0.5327 H   0  0  0  0  0  0  0  0  0  0  0  0
   -7.3771    0.4910    1.4031 H   0  0  0  0  0  0  0  0  0  0  0  0
   -0.8204    0.0265   -2.4693 H   0  0  0  0  0  0  0  0  0  0  0  0
   -0.5812   -1.5871   -1.8331 H   0  0  0  0  0  0  0  0  0  0  0  0
    1.2333   -0.1333   -1.0752 H   0  0  0  0  0  0  0  0  0  0  0  0
    0.1065    1.0275   -0.3596 H   0  0  0  0  0  0  0  0  0  0  0  0
  1  2  2  0
  2  3  1  0
  3  4  2  0
  4  5  1  0
  5  6  2  0
  6  7  1  0
  6  8  1  0
  8  9  1  0
  9 10  1  0
 10 11  1  0
  2 12  1  0
 12 13  1  0
 13 14  1  0
 14 15  1  0
 15 16  1  0
 16 17  2  0
 16 18  2  0
 16 19  1  0
 19 20  2  0
 20 21  1  0
 21 22  2  0
 22 23  1  0
 23 24  2  0
 24 25  1  0
 25 26  1  0
 25 27  1  0
 25 28  1  0
 15 29  1  0
 29 30  1  0
  7  3  1  0
 30 12  1  0
 11  5  1  0
 24 19  1  0
  4 31  1  0
  8 32  1  0
  8 33  1  0
  9 34  1  0
  9 35  1  0
 10 36  1  0
 10 37  1  0
 11 38  1  0
 11 39  1  0
 13 40  1  0
 13 41  1  0
 14 42  1  0
 14 43  1  0
 20 44  1  0
 21 45  1  0
 22 46  1  0
 23 47  1  0
 29 48  1  0
 29 49  1  0
 30 50  1  0
 30 51  1  0
M  END
$$$$
