
     RDKit          3D

 39 40  0  0  0  0  0  0  0  0999 V2000
    7.4786   -1.2313   -0.0439 C   0  0  0  0  0  0  0  0  0  0  0  0
    6.7956   -0.1139    0.5098 O   0  0  0  0  0  0  0  0  0  0  0  0
    5.4503   -0.0350    0.2760 C   0  0  0  0  0  0  0  0  0  0  0  0
    4.6866   -0.9517   -0.4458 C   0  0  0  0  0  0  0  0  0  0  0  0
    3.3117   -0.7486   -0.6087 C   0  0  0  0  0  0  0  0  0  0  0  0
    2.6846    0.3748   -0.0554 C   0  0  0  0  0  0  0  0  0  0  0  0
    1.2008    0.5743   -0.2169 C   0  0  0  0  0  0  0  0  0  0  0  0
    0.4045   -0.1672    0.8556 C   0  0  0  0  0  0  0  0  0  0  0  0
   -1.0043    0.0770    0.6952 O   0  0  0  0  0  0  0  0  0  0  0  0
   -1.6347   -0.7149   -0.2058 C   0  0  0  0  0  0  0  0  0  0  0  0
   -1.1136   -1.5779   -0.8930 O   0  0  0  0  0  0  0  0  0  0  0  0
   -3.0844   -0.3829   -0.2674 C   0  0  0  0  0  0  0  0  0  0  0  0
   -3.8869   -1.0916   -1.1688 C   0  0  0  0  0  0  0  0  0  0  0  0
   -5.2572   -0.8217   -1.2680 C   0  0  0  0  0  0  0  0  0  0  0  0
   -5.8590    0.1872   -0.5035 C   0  0  0  0  0  0  0  0  0  0  0  0
   -7.2579    0.3025   -0.5546 N   0  0  0  0  0  0  0  0  0  0  0  0
   -5.0479    0.8553    0.4357 C   0  0  0  0  0  0  0  0  0  0  0  0
   -5.6148    1.8754    1.3194 N   0  0  0  0  0  4  0  0  0  0  0  0
   -6.5697    2.5452    0.8950 O   0  0  0  0  0  0  0  0  0  0  0  0
   -5.0878    2.0245    2.4315 O   0  0  0  0  0  1  0  0  0  0  0  0
   -3.6697    0.5919    0.5463 C   0  0  0  0  0  0  0  0  0  0  0  0
    3.4532    1.2890    0.6721 C   0  0  0  0  0  0  0  0  0  0  0  0
    4.8254    1.0831    0.8327 C   0  0  0  0  0  0  0  0  0  0  0  0
    8.5353   -1.1448    0.2270 H   0  0  0  0  0  0  0  0  0  0  0  0
    7.4142   -1.2318   -1.1370 H   0  0  0  0  0  0  0  0  0  0  0  0
    7.1035   -2.1707    0.3755 H   0  0  0  0  0  0  0  0  0  0  0  0
    5.1264   -1.8358   -0.8947 H   0  0  0  0  0  0  0  0  0  0  0  0
    2.7313   -1.4768   -1.1729 H   0  0  0  0  0  0  0  0  0  0  0  0
    0.8929    0.2504   -1.2189 H   0  0  0  0  0  0  0  0  0  0  0  0
    0.9566    1.6440   -0.1843 H   0  0  0  0  0  0  0  0  0  0  0  0
    0.6127   -1.2446    0.8548 H   0  0  0  0  0  0  0  0  0  0  0  0
    0.6763    0.2014    1.8514 H   0  0  0  0  0  0  0  0  0  0  0  0
   -3.4533   -1.8728   -1.7927 H   0  0  0  0  0  0  0  0  0  0  0  0
   -5.8564   -1.4186   -1.9536 H   0  0  0  0  0  0  0  0  0  0  0  0
   -7.6761    0.0380   -1.4424 H   0  0  0  0  0  0  0  0  0  0  0  0
   -7.6093    1.2094   -0.2328 H   0  0  0  0  0  0  0  0  0  0  0  0
   -3.0665    1.1402    1.2674 H   0  0  0  0  0  0  0  0  0  0  0  0
    2.9941    2.1678    1.1188 H   0  0  0  0  0  0  0  0  0  0  0  0
    5.4145    1.8012    1.3980 H   0  0  0  0  0  0  0  0  0  0  0  0
  1  2  1  0
  2  3  1  0
  3  4  2  0
  4  5  1  0
  5  6  2  0
  6  7  1  0
  7  8  1  0
  8  9  1  0
  9 10  1  0
 10 11  2  0
 10 12  1  0
 12 13  2  0
 13 14  1  0
 14 15  2  0
 15 16  1  0
 15 17  1  0
 17 18  1  0
 18 19  2  0
 18 20  1  0
 17 21  2  0
  6 22  1  0
 22 23  2  0
 23  3  1  0
 21 12  1  0
  1 24  1  0
  1 25  1  0
  1 26  1  0
  4 27  1  0
  5 28  1  0
  7 29  1  0
  7 30  1  0
  8 31  1  0
  8 32  1  0
 13 33  1  0
 14 34  1  0
 16 35  1  0
 16 36  1  0
 21 37  1  0
 22 38  1  0
 23 39  1  0
M  CHG  2  18   1  20  -1
M  END
$$$$
