
     RDKit          3D

 69 73  0  0  0  0  0  0  0  0999 V2000
   -0.8353   -6.6577    2.2878 C   0  0  0  0  0  0  0  0  0  0  0  0
   -1.0898   -6.5160    0.8957 O   0  0  0  0  0  0  0  0  0  0  0  0
   -1.6327   -5.3297    0.4825 C   0  0  0  0  0  0  0  0  0  0  0  0
   -1.8778   -5.2476   -0.8914 C   0  0  0  0  0  0  0  0  0  0  0  0
   -2.4278   -4.0933   -1.4496 C   0  0  0  0  0  0  0  0  0  0  0  0
   -2.7358   -3.0080   -0.6317 C   0  0  0  0  0  0  0  0  0  0  0  0
   -2.4984   -3.0753    0.7469 C   0  0  0  0  0  0  0  0  0  0  0  0
   -2.8082   -1.9271    1.6020 C   0  0  0  0  0  0  0  0  0  0  0  0
   -4.2271   -1.9798    2.5528 S   0  0  0  0  0  0  0  0  0  0  0  0
   -3.9484   -0.4159    3.2131 C   0  0  0  0  0  0  0  0  0  0  0  0
   -4.7648    0.2583    4.1499 C   0  0  0  0  0  0  0  0  0  0  0  0
   -4.3923    1.5317    4.5916 C   0  0  0  0  0  0  0  0  0  0  0  0
   -5.1036    2.2863    5.4891 O   0  0  0  0  0  0  0  0  0  0  0  0
   -6.2222    1.6741    6.1166 C   0  0  0  0  0  0  0  0  0  0  0  0
   -3.2278    2.1140    4.0879 C   0  0  0  0  0  0  0  0  0  0  0  0
   -2.8373    3.3463    4.5531 O   0  0  0  0  0  0  0  0  0  0  0  0
   -2.9848    4.3393    3.5402 C   0  0  0  0  0  0  0  0  0  0  0  0
   -2.4114    1.4367    3.1741 C   0  0  0  0  0  0  0  0  0  0  0  0
   -2.7754    0.1492    2.7095 C   0  0  0  0  0  0  0  0  0  0  0  0
   -2.1208   -0.7375    1.7749 C   0  0  0  0  0  0  0  0  0  0  0  0
   -0.8756   -0.4677    1.0676 C   0  0  0  0  0  0  0  0  0  0  0  0
   -0.8698    0.3817   -0.0438 C   0  0  0  0  0  0  0  0  0  0  0  0
    0.3237    0.6409   -0.7271 C   0  0  0  0  0  0  0  0  0  0  0  0
    1.5174    0.0558   -0.3012 C   0  0  0  0  0  0  0  0  0  0  0  0
    2.7464    0.2227   -0.8767 O   0  0  0  0  0  0  0  0  0  0  0  0
    2.8113    1.0458   -2.0464 C   0  0  0  0  0  0  0  0  0  0  0  0
    4.2733    1.0820   -2.5210 C   0  0  0  0  0  0  0  0  0  0  0  0
    4.5170    1.9962   -3.6554 N   0  0  0  0  0  0  0  0  0  0  0  0
    3.9185    1.4903   -4.9026 C   0  0  0  0  0  0  0  0  0  0  0  0
    4.1471    2.4611   -6.0627 C   0  0  0  0  0  0  0  0  0  0  0  0
    5.6291    2.7558   -6.2600 C   0  0  0  0  0  0  0  0  0  0  0  0
    6.2594    3.2009   -4.9465 C   0  0  0  0  0  0  0  0  0  0  0  0
    5.9665    2.2034   -3.8250 C   0  0  0  0  0  0  0  0  0  0  0  0
    1.5075   -0.7852    0.8151 C   0  0  0  0  0  0  0  0  0  0  0  0
    0.3190   -1.0485    1.4998 C   0  0  0  0  0  0  0  0  0  0  0  0
   -1.9437   -4.2411    1.2994 C   0  0  0  0  0  0  0  0  0  0  0  0
   -0.4187   -7.6558    2.4499 H   0  0  0  0  0  0  0  0  0  0  0  0
   -0.0944   -5.9268    2.6294 H   0  0  0  0  0  0  0  0  0  0  0  0
   -1.7605   -6.5850    2.8683 H   0  0  0  0  0  0  0  0  0  0  0  0
   -1.6356   -6.0924   -1.5316 H   0  0  0  0  0  0  0  0  0  0  0  0
   -2.6122   -4.0408   -2.5193 H   0  0  0  0  0  0  0  0  0  0  0  0
   -3.1610   -2.1093   -1.0728 H   0  0  0  0  0  0  0  0  0  0  0  0
   -5.6640   -0.2325    4.5051 H   0  0  0  0  0  0  0  0  0  0  0  0
   -5.9246    0.7775    6.6714 H   0  0  0  0  0  0  0  0  0  0  0  0
   -7.0084    1.4445    5.3885 H   0  0  0  0  0  0  0  0  0  0  0  0
   -6.6347    2.3889    6.8352 H   0  0  0  0  0  0  0  0  0  0  0  0
   -2.1253    4.3207    2.8613 H   0  0  0  0  0  0  0  0  0  0  0  0
   -3.9191    4.2226    2.9762 H   0  0  0  0  0  0  0  0  0  0  0  0
   -3.0083    5.3183    4.0306 H   0  0  0  0  0  0  0  0  0  0  0  0
   -1.4880    1.8953    2.8304 H   0  0  0  0  0  0  0  0  0  0  0  0
   -1.7929    0.8431   -0.3886 H   0  0  0  0  0  0  0  0  0  0  0  0
    0.2846    1.3038   -1.5853 H   0  0  0  0  0  0  0  0  0  0  0  0
    2.1707    0.6196   -2.8263 H   0  0  0  0  0  0  0  0  0  0  0  0
    2.4855    2.0647   -1.8036 H   0  0  0  0  0  0  0  0  0  0  0  0
    4.6114    0.0629   -2.7527 H   0  0  0  0  0  0  0  0  0  0  0  0
    4.8765    1.4015   -1.6601 H   0  0  0  0  0  0  0  0  0  0  0  0
    2.8359    1.3724   -4.7877 H   0  0  0  0  0  0  0  0  0  0  0  0
    4.3291    0.5049   -5.1594 H   0  0  0  0  0  0  0  0  0  0  0  0
    3.6098    3.3980   -5.8665 H   0  0  0  0  0  0  0  0  0  0  0  0
    3.7283    2.0407   -6.9844 H   0  0  0  0  0  0  0  0  0  0  0  0
    6.1364    1.8538   -6.6239 H   0  0  0  0  0  0  0  0  0  0  0  0
    5.7628    3.5306   -7.0233 H   0  0  0  0  0  0  0  0  0  0  0  0
    7.3426    3.3069   -5.0732 H   0  0  0  0  0  0  0  0  0  0  0  0
    5.8722    4.1897   -4.6701 H   0  0  0  0  0  0  0  0  0  0  0  0
    6.3958    2.6030   -2.8978 H   0  0  0  0  0  0  0  0  0  0  0  0
    6.4737    1.2523   -4.0346 H   0  0  0  0  0  0  0  0  0  0  0  0
    2.4343   -1.2407    1.1556 H   0  0  0  0  0  0  0  0  0  0  0  0
    0.3345   -1.7053    2.3653 H   0  0  0  0  0  0  0  0  0  0  0  0
   -1.7621   -4.2691    2.3691 H   0  0  0  0  0  0  0  0  0  0  0  0
  1  2  1  0
  2  3  1  0
  3  4  2  0
  4  5  1  0
  5  6  2  0
  6  7  1  0
  7  8  1  0
  8  9  1  0
  9 10  1  0
 10 11  2  0
 11 12  1  0
 12 13  1  0
 13 14  1  0
 12 15  2  0
 15 16  1  0
 16 17  1  0
 15 18  1  0
 18 19  2  0
 19 20  1  0
 20 21  1  0
 21 22  2  0
 22 23  1  0
 23 24  2  0
 24 25  1  0
 25 26  1  0
 26 27  1  0
 27 28  1  0
 28 29  1  0
 29 30  1  0
 30 31  1  0
 31 32  1  0
 32 33  1  0
 24 34  1  0
 34 35  2  0
  7 36  2  0
 36  3  1  0
 20  8  2  0
 35 21  1  0
 19 10  1  0
 33 28  1  0
  1 37  1  0
  1 38  1  0
  1 39  1  0
  4 40  1  0
  5 41  1  0
  6 42  1  0
 11 43  1  0
 14 44  1  0
 14 45  1  0
 14 46  1  0
 17 47  1  0
 17 48  1  0
 17 49  1  0
 18 50  1  0
 22 51  1  0
 23 52  1  0
 26 53  1  0
 26 54  1  0
 27 55  1  0
 27 56  1  0
 29 57  1  0
 29 58  1  0
 30 59  1  0
 30 60  1  0
 31 61  1  0
 31 62  1  0
 32 63  1  0
 32 64  1  0
 33 65  1  0
 33 66  1  0
 34 67  1  0
 35 68  1  0
 36 69  1  0
M  END
$$$$
