
     RDKit          3D

 50 52  0  0  0  0  0  0  0  0999 V2000
    6.4436    0.0760   -4.2727 C   0  0  0  0  0  0  0  0  0  0  0  0
    5.6405   -0.2852   -3.0587 C   0  0  0  0  0  0  0  0  0  0  0  0
    5.4201    0.6553   -2.0471 C   0  0  0  0  0  0  0  0  0  0  0  0
    4.6405    0.3281   -0.9341 C   0  0  0  0  0  0  0  0  0  0  0  0
    4.0532   -0.9358   -0.8261 C   0  0  0  0  0  0  0  0  0  0  0  0
    3.0848   -1.3114    0.6240 S   0  0  0  0  0  0  0  0  0  0  0  0
    1.5109   -1.8641   -0.1224 C   0  0  0  0  0  0  0  0  0  0  0  0
    0.8673   -0.7617   -0.9543 C   0  0  0  0  0  0  0  0  0  0  0  0
    1.0324   -0.7665   -2.1788 O   0  0  0  0  0  0  0  0  0  0  0  0
    0.0969    0.2242   -0.3281 N   0  0  0  0  0  0  0  0  0  0  0  0
   -0.0882    0.3162    1.1306 C   0  0  0  0  0  0  0  0  0  0  0  0
   -1.3922   -0.2620    1.5545 C   0  0  0  0  0  0  0  0  0  0  0  0
   -2.4347    0.3263    2.0966 N   0  0  0  0  0  0  0  0  0  0  0  0
   -3.3182   -0.7209    2.2662 C   0  0  0  0  0  0  0  0  0  0  0  0
   -4.6478   -0.5335    2.8381 C   0  0  0  0  0  0  0  0  0  0  0  0
   -5.0735    0.7439    3.2331 C   0  0  0  0  0  0  0  0  0  0  0  0
   -6.3448    0.9340    3.7814 C   0  0  0  0  0  0  0  0  0  0  0  0
   -7.2047   -0.1507    3.9407 C   0  0  0  0  0  0  0  0  0  0  0  0
   -6.7962   -1.4251    3.5527 C   0  0  0  0  0  0  0  0  0  0  0  0
   -5.5249   -1.6162    3.0043 C   0  0  0  0  0  0  0  0  0  0  0  0
   -2.8323   -1.9069    1.8618 N   0  0  0  0  0  0  0  0  0  0  0  0
   -1.5594   -1.6040    1.3903 O   0  0  0  0  0  0  0  0  0  0  0  0
   -0.3811    1.3409   -1.1769 C   0  0  0  0  0  0  0  0  0  0  0  0
   -1.7537    1.8966   -0.7938 C   0  0  0  0  0  0  0  0  0  0  0  0
    0.6628    2.4614   -1.2166 C   0  0  0  0  0  0  0  0  0  0  0  0
    4.2741   -1.8770   -1.8340 C   0  0  0  0  0  0  0  0  0  0  0  0
    5.0533   -1.5503   -2.9480 C   0  0  0  0  0  0  0  0  0  0  0  0
    5.7880    0.4884   -5.0458 H   0  0  0  0  0  0  0  0  0  0  0  0
    6.9584   -0.8025   -4.6758 H   0  0  0  0  0  0  0  0  0  0  0  0
    7.2113    0.8174   -4.0272 H   0  0  0  0  0  0  0  0  0  0  0  0
    5.8540    1.6500   -2.1177 H   0  0  0  0  0  0  0  0  0  0  0  0
    4.4915    1.0741   -0.1577 H   0  0  0  0  0  0  0  0  0  0  0  0
    1.6820   -2.7355   -0.7627 H   0  0  0  0  0  0  0  0  0  0  0  0
    0.8356   -2.2007    0.6663 H   0  0  0  0  0  0  0  0  0  0  0  0
   -0.0206    1.3671    1.4303 H   0  0  0  0  0  0  0  0  0  0  0  0
    0.7089   -0.2012    1.6647 H   0  0  0  0  0  0  0  0  0  0  0  0
   -4.4158    1.6031    3.1158 H   0  0  0  0  0  0  0  0  0  0  0  0
   -6.6621    1.9290    4.0831 H   0  0  0  0  0  0  0  0  0  0  0  0
   -8.1938   -0.0029    4.3669 H   0  0  0  0  0  0  0  0  0  0  0  0
   -7.4663   -2.2723    3.6757 H   0  0  0  0  0  0  0  0  0  0  0  0
   -5.2270   -2.6201    2.7075 H   0  0  0  0  0  0  0  0  0  0  0  0
   -0.4840    0.9653   -2.2023 H   0  0  0  0  0  0  0  0  0  0  0  0
   -2.5057    1.1011   -0.7768 H   0  0  0  0  0  0  0  0  0  0  0  0
   -1.7434    2.3856    0.1851 H   0  0  0  0  0  0  0  0  0  0  0  0
   -2.0806    2.6433   -1.5261 H   0  0  0  0  0  0  0  0  0  0  0  0
    0.8118    2.9052   -0.2266 H   0  0  0  0  0  0  0  0  0  0  0  0
    0.3535    3.2578   -1.9016 H   0  0  0  0  0  0  0  0  0  0  0  0
    1.6323    2.0823   -1.5575 H   0  0  0  0  0  0  0  0  0  0  0  0
    3.8462   -2.8734   -1.7706 H   0  0  0  0  0  0  0  0  0  0  0  0
    5.1973   -2.2928   -3.7297 H   0  0  0  0  0  0  0  0  0  0  0  0
  1  2  1  0
  2  3  2  0
  3  4  1  0
  4  5  2  0
  5  6  1  0
  6  7  1  0
  7  8  1  0
  8  9  2  0
  8 10  1  0
 10 11  1  0
 11 12  1  0
 12 13  2  0
 13 14  1  0
 14 15  1  0
 15 16  2  0
 16 17  1  0
 17 18  2  0
 18 19  1  0
 19 20  2  0
 14 21  2  0
 21 22  1  0
 10 23  1  0
 23 24  1  0
 23 25  1  0
  5 26  1  0
 26 27  2  0
 27  2  1  0
 22 12  1  0
 20 15  1  0
  1 28  1  0
  1 29  1  0
  1 30  1  0
  3 31  1  0
  4 32  1  0
  7 33  1  0
  7 34  1  0
 11 35  1  0
 11 36  1  0
 16 37  1  0
 17 38  1  0
 18 39  1  0
 19 40  1  0
 20 41  1  0
 23 42  1  0
 24 43  1  0
 24 44  1  0
 24 45  1  0
 25 46  1  0
 25 47  1  0
 25 48  1  0
 26 49  1  0
 27 50  1  0
M  END
$$$$
