
     RDKit          3D

 39 40  0  0  0  0  0  0  0  0999 V2000
    6.5168    0.9711    1.3796 C   0  0  0  0  0  0  0  0  0  0  0  0
    5.8020    0.0118    0.6001 O   0  0  0  0  0  0  0  0  0  0  0  0
    4.9052    0.5581   -0.2562 C   0  0  0  0  0  0  0  0  0  0  0  0
    4.6903    1.7531   -0.3896 O   0  0  0  0  0  0  0  0  0  0  0  0
    4.2782   -0.4392   -0.9342 N   0  0  0  0  0  0  0  0  0  0  0  0
    3.1641   -0.1987   -1.8129 C   0  0  0  0  0  0  0  0  0  0  0  0
    1.8557   -0.4661   -1.1117 C   0  0  0  0  0  0  0  0  0  0  0  0
    1.1978   -1.6962   -1.2692 C   0  0  0  0  0  0  0  0  0  0  0  0
   -0.0011   -1.9494   -0.5997 C   0  0  0  0  0  0  0  0  0  0  0  0
   -0.5416   -0.9685    0.2345 C   0  0  0  0  0  0  0  0  0  0  0  0
   -2.0648   -1.2680    1.0942 S   0  0  0  0  0  6  0  0  0  0  0  0
   -2.5801   -2.5575    0.6840 O   0  0  0  0  0  0  0  0  0  0  0  0
   -1.8382   -0.9584    2.4894 O   0  0  0  0  0  0  0  0  0  0  0  0
   -3.1026   -0.0756    0.4467 N   0  0  0  0  0  0  0  0  0  0  0  0
   -3.4200   -0.2368   -1.0097 C   0  0  0  0  0  0  0  0  0  0  0  0
   -4.2655    0.9520   -1.4819 C   0  0  0  0  0  0  0  0  0  0  0  0
   -5.4823    1.0559   -0.7284 O   0  0  0  0  0  0  0  0  0  0  0  0
   -5.1924    1.2373    0.6660 C   0  0  0  0  0  0  0  0  0  0  0  0
   -4.3784    0.0642    1.2232 C   0  0  0  0  0  0  0  0  0  0  0  0
    0.1071    0.2553    0.4155 C   0  0  0  0  0  0  0  0  0  0  0  0
    1.3032    0.5031   -0.2583 C   0  0  0  0  0  0  0  0  0  0  0  0
    7.1001    1.6338    0.7325 H   0  0  0  0  0  0  0  0  0  0  0  0
    5.8281    1.5468    2.0059 H   0  0  0  0  0  0  0  0  0  0  0  0
    7.2073    0.4300    2.0325 H   0  0  0  0  0  0  0  0  0  0  0  0
    4.4751   -1.3763   -0.6155 H   0  0  0  0  0  0  0  0  0  0  0  0
    3.2787   -0.8648   -2.6751 H   0  0  0  0  0  0  0  0  0  0  0  0
    3.1847    0.8294   -2.1923 H   0  0  0  0  0  0  0  0  0  0  0  0
    1.6183   -2.4671   -1.9121 H   0  0  0  0  0  0  0  0  0  0  0  0
   -0.4987   -2.9082   -0.7285 H   0  0  0  0  0  0  0  0  0  0  0  0
   -3.9809   -1.1667   -1.1585 H   0  0  0  0  0  0  0  0  0  0  0  0
   -2.5006   -0.2718   -1.6003 H   0  0  0  0  0  0  0  0  0  0  0  0
   -4.5380    0.8197   -2.5336 H   0  0  0  0  0  0  0  0  0  0  0  0
   -3.7094    1.8931   -1.3950 H   0  0  0  0  0  0  0  0  0  0  0  0
   -4.6599    2.1867    0.7986 H   0  0  0  0  0  0  0  0  0  0  0  0
   -6.1473    1.3122    1.1955 H   0  0  0  0  0  0  0  0  0  0  0  0
   -4.9561   -0.8635    1.1362 H   0  0  0  0  0  0  0  0  0  0  0  0
   -4.1593    0.2558    2.2782 H   0  0  0  0  0  0  0  0  0  0  0  0
   -0.3095    1.0094    1.0798 H   0  0  0  0  0  0  0  0  0  0  0  0
    1.8138    1.4543   -0.1096 H   0  0  0  0  0  0  0  0  0  0  0  0
  1  2  1  0
  2  3  1  0
  3  4  2  0
  3  5  1  0
  5  6  1  0
  6  7  1  0
  7  8  2  0
  8  9  1  0
  9 10  2  0
 10 11  1  0
 11 12  2  0
 11 13  2  0
 11 14  1  0
 14 15  1  0
 15 16  1  0
 16 17  1  0
 17 18  1  0
 18 19  1  0
 10 20  1  0
 20 21  2  0
 21  7  1  0
 19 14  1  0
  1 22  1  0
  1 23  1  0
  1 24  1  0
  5 25  1  0
  6 26  1  0
  6 27  1  0
  8 28  1  0
  9 29  1  0
 15 30  1  0
 15 31  1  0
 16 32  1  0
 16 33  1  0
 18 34  1  0
 18 35  1  0
 19 36  1  0
 19 37  1  0
 20 38  1  0
 21 39  1  0
M  END
$$$$
