
     RDKit          3D

 57 60  0  0  0  0  0  0  0  0999 V2000
    8.0016    1.8957    0.0354 C   0  0  0  0  0  0  0  0  0  0  0  0
    6.7992    1.9606   -0.8883 C   0  0  0  0  0  0  0  0  0  0  0  0
    5.6759    1.3046   -0.2806 O   0  0  0  0  0  0  0  0  0  0  0  0
    5.5831   -0.0366   -0.4989 C   0  0  0  0  0  0  0  0  0  0  0  0
    6.3691   -0.7024   -1.1597 O   0  0  0  0  0  0  0  0  0  0  0  0
    4.3799   -0.6234    0.2086 C   0  0  0  0  0  0  0  0  0  0  0  0
    3.0751    0.0349   -0.2647 C   0  0  0  0  0  0  0  0  0  0  0  0
    2.2683    0.6098    0.8952 C   0  0  0  0  0  0  0  0  0  0  0  0
    2.0750   -0.4645    1.8957 N   0  0  0  0  0  0  0  0  0  0  0  0
    0.8337   -0.2089    3.0423 S   0  0  0  0  0  6  0  0  0  0  0  0
    1.0142    1.1224    3.5811 O   0  0  0  0  0  0  0  0  0  0  0  0
    0.7738   -1.3719    3.9029 O   0  0  0  0  0  0  0  0  0  0  0  0
   -0.6294   -0.2291    2.0358 C   0  0  0  0  0  0  0  0  0  0  0  0
   -1.3967    0.9370    1.8838 C   0  0  0  0  0  0  0  0  0  0  0  0
   -2.5443    0.9194    1.0832 C   0  0  0  0  0  0  0  0  0  0  0  0
   -2.9062   -0.2660    0.4604 C   0  0  0  0  0  0  0  0  0  0  0  0
   -2.1414   -1.4236    0.6289 C   0  0  0  0  0  0  0  0  0  0  0  0
   -0.9976   -1.4264    1.4130 C   0  0  0  0  0  0  0  0  0  0  0  0
   -2.7083   -2.5715   -0.1409 C   0  0  0  0  0  0  0  0  0  0  0  0
   -3.9879   -1.9626   -0.7271 C   0  0  0  0  0  0  0  0  0  0  0  0
   -4.0061   -0.5328   -0.3771 N   0  0  0  0  0  0  0  0  0  0  0  0
   -4.9667    0.3871   -0.7883 C   0  0  0  0  0  0  0  0  0  0  0  0
   -4.9302    1.5836   -0.4759 O   0  0  0  0  0  0  0  0  0  0  0  0
   -6.1064   -0.1841   -1.6829 C   0  0  0  0  0  0  0  0  0  0  0  0
   -5.8510   -0.2297   -3.2159 C   0  0  0  0  0  0  0  0  0  0  0  0
   -7.3411    0.1054   -3.4113 C   0  0  0  0  0  0  0  0  0  0  0  0
   -7.3042    0.7547   -2.0162 C   0  0  0  0  0  0  0  0  0  0  0  0
    3.3364   -0.9883    2.4887 C   0  0  0  0  0  0  0  0  0  0  0  0
    4.5759   -0.5379    1.7237 C   0  0  0  0  0  0  0  0  0  0  0  0
    7.7617    2.3316    1.0114 H   0  0  0  0  0  0  0  0  0  0  0  0
    8.3036    0.8582    0.2153 H   0  0  0  0  0  0  0  0  0  0  0  0
    8.8498    2.4361   -0.3943 H   0  0  0  0  0  0  0  0  0  0  0  0
    7.0263    1.5340   -1.8717 H   0  0  0  0  0  0  0  0  0  0  0  0
    6.5119    3.0050   -1.0483 H   0  0  0  0  0  0  0  0  0  0  0  0
    4.3416   -1.6846   -0.0748 H   0  0  0  0  0  0  0  0  0  0  0  0
    3.2508    0.8171   -1.0123 H   0  0  0  0  0  0  0  0  0  0  0  0
    2.4687   -0.7297   -0.7687 H   0  0  0  0  0  0  0  0  0  0  0  0
    2.7751    1.4709    1.3445 H   0  0  0  0  0  0  0  0  0  0  0  0
    1.3078    0.9556    0.5024 H   0  0  0  0  0  0  0  0  0  0  0  0
   -1.1093    1.8603    2.3830 H   0  0  0  0  0  0  0  0  0  0  0  0
   -3.1292    1.8267    0.9728 H   0  0  0  0  0  0  0  0  0  0  0  0
   -0.4040   -2.3275    1.5412 H   0  0  0  0  0  0  0  0  0  0  0  0
   -2.0226   -2.8838   -0.9353 H   0  0  0  0  0  0  0  0  0  0  0  0
   -2.9351   -3.4242    0.5070 H   0  0  0  0  0  0  0  0  0  0  0  0
   -4.8780   -2.4381   -0.2994 H   0  0  0  0  0  0  0  0  0  0  0  0
   -4.0261   -2.0782   -1.8150 H   0  0  0  0  0  0  0  0  0  0  0  0
   -6.4866   -1.1423   -1.2991 H   0  0  0  0  0  0  0  0  0  0  0  0
   -5.5339   -1.1950   -3.6191 H   0  0  0  0  0  0  0  0  0  0  0  0
   -5.1707    0.5488   -3.5811 H   0  0  0  0  0  0  0  0  0  0  0  0
   -7.9870   -0.7780   -3.4706 H   0  0  0  0  0  0  0  0  0  0  0  0
   -7.5707    0.7738   -4.2456 H   0  0  0  0  0  0  0  0  0  0  0  0
   -8.2022    0.6108   -1.4087 H   0  0  0  0  0  0  0  0  0  0  0  0
   -7.0609    1.8233   -2.0383 H   0  0  0  0  0  0  0  0  0  0  0  0
    3.4405   -0.6746    3.5337 H   0  0  0  0  0  0  0  0  0  0  0  0
    3.2760   -2.0829    2.4725 H   0  0  0  0  0  0  0  0  0  0  0  0
    4.8203    0.4914    2.0181 H   0  0  0  0  0  0  0  0  0  0  0  0
    5.4389   -1.1425    2.0295 H   0  0  0  0  0  0  0  0  0  0  0  0
  1  2  1  0
  2  3  1  0
  3  4  1  0
  4  5  2  0
  4  6  1  0
  6  7  1  0
  7  8  1  0
  8  9  1  0
  9 10  1  0
 10 11  2  0
 10 12  2  0
 10 13  1  0
 13 14  2  0
 14 15  1  0
 15 16  2  0
 16 17  1  0
 17 18  2  0
 17 19  1  0
 19 20  1  0
 20 21  1  0
 21 22  1  0
 22 23  2  0
 22 24  1  0
 24 25  1  0
 25 26  1  0
 26 27  1  0
  9 28  1  0
 28 29  1  0
 29  6  1  0
 18 13  1  0
 27 24  1  0
 21 16  1  0
  1 30  1  0
  1 31  1  0
  1 32  1  0
  2 33  1  0
  2 34  1  0
  6 35  1  0
  7 36  1  0
  7 37  1  0
  8 38  1  0
  8 39  1  0
 14 40  1  0
 15 41  1  0
 18 42  1  0
 19 43  1  0
 19 44  1  0
 20 45  1  0
 20 46  1  0
 24 47  1  0
 25 48  1  0
 25 49  1  0
 26 50  1  0
 26 51  1  0
 27 52  1  0
 27 53  1  0
 28 54  1  0
 28 55  1  0
 29 56  1  0
 29 57  1  0
M  END
$$$$
