
     RDKit          3D

 40 41  0  0  0  0  0  0  0  0999 V2000
    4.5034    2.9072   -0.4595 C   0  0  0  0  0  0  0  0  0  0  0  0
    4.2891    1.4863    0.0247 C   0  0  0  0  0  0  0  0  0  0  0  0
    2.9397    1.1146   -0.2736 O   0  0  0  0  0  0  0  0  0  0  0  0
    2.6025   -0.1525    0.1078 C   0  0  0  0  0  0  0  0  0  0  0  0
    3.3846   -0.9179    0.6625 O   0  0  0  0  0  0  0  0  0  0  0  0
    1.2127   -0.5056   -0.2029 C   0  0  0  0  0  0  0  0  0  0  0  0
    0.2699    0.2602   -0.8908 C   0  0  0  0  0  0  0  0  0  0  0  0
    0.4110    1.6193   -1.4988 C   0  0  0  0  0  0  0  0  0  0  0  0
   -0.9146   -0.4563   -0.9241 N   0  0  0  0  0  0  0  0  0  0  0  0
   -2.1581   -0.0089   -1.5469 C   0  0  0  0  0  0  0  0  0  0  0  0
   -2.6585    1.1508   -0.8798 O   0  0  0  0  0  0  0  0  0  0  0  0
   -3.3294    0.8328    0.3394 C   0  0  0  0  0  0  0  0  0  0  0  0
   -3.8423    2.1193    0.9753 C   0  0  0  0  0  0  0  0  0  0  0  0
   -4.5625    1.8247    2.1644 O   0  0  0  0  0  0  0  0  0  0  0  0
   -0.7543   -1.6806   -0.3006 C   0  0  0  0  0  0  0  0  0  0  0  0
   -1.6561   -2.7417   -0.0921 C   0  0  0  0  0  0  0  0  0  0  0  0
   -1.2055   -3.8757    0.5881 C   0  0  0  0  0  0  0  0  0  0  0  0
    0.0985   -3.9468    1.0461 C   0  0  0  0  0  0  0  0  0  0  0  0
    0.4797   -5.0805    1.7040 O   0  0  0  0  0  0  0  0  0  0  0  0
    0.9936   -2.8971    0.8450 C   0  0  0  0  0  0  0  0  0  0  0  0
    0.5646   -1.7366    0.1573 C   0  0  0  0  0  0  0  0  0  0  0  0
    5.5246    3.2398   -0.2538 H   0  0  0  0  0  0  0  0  0  0  0  0
    3.8028    3.5912    0.0308 H   0  0  0  0  0  0  0  0  0  0  0  0
    4.3175    2.9795   -1.5362 H   0  0  0  0  0  0  0  0  0  0  0  0
    4.4574    1.4352    1.1062 H   0  0  0  0  0  0  0  0  0  0  0  0
    4.9822    0.8121   -0.4906 H   0  0  0  0  0  0  0  0  0  0  0  0
   -0.4505    1.9190   -2.0995 H   0  0  0  0  0  0  0  0  0  0  0  0
    0.5441    2.3701   -0.7132 H   0  0  0  0  0  0  0  0  0  0  0  0
    1.2799    1.6492   -2.1643 H   0  0  0  0  0  0  0  0  0  0  0  0
   -1.9226    0.2512   -2.5840 H   0  0  0  0  0  0  0  0  0  0  0  0
   -2.9010   -0.8103   -1.5645 H   0  0  0  0  0  0  0  0  0  0  0  0
   -2.6511    0.3279    1.0363 H   0  0  0  0  0  0  0  0  0  0  0  0
   -4.1699    0.1571    0.1406 H   0  0  0  0  0  0  0  0  0  0  0  0
   -3.0057    2.7837    1.2168 H   0  0  0  0  0  0  0  0  0  0  0  0
   -4.5012    2.6528    0.2821 H   0  0  0  0  0  0  0  0  0  0  0  0
   -4.8324    2.6765    2.5493 H   0  0  0  0  0  0  0  0  0  0  0  0
   -2.6835   -2.7022   -0.4382 H   0  0  0  0  0  0  0  0  0  0  0  0
   -1.8830   -4.7076    0.7617 H   0  0  0  0  0  0  0  0  0  0  0  0
    1.4102   -4.9812    1.9661 H   0  0  0  0  0  0  0  0  0  0  0  0
    2.0142   -2.9590    1.2091 H   0  0  0  0  0  0  0  0  0  0  0  0
  1  2  1  0
  2  3  1  0
  3  4  1  0
  4  5  2  0
  4  6  1  0
  6  7  2  0
  7  8  1  0
  7  9  1  0
  9 10  1  0
 10 11  1  0
 11 12  1  0
 12 13  1  0
 13 14  1  0
  9 15  1  0
 15 16  2  0
 16 17  1  0
 17 18  2  0
 18 19  1  0
 18 20  1  0
 20 21  2  0
 21  6  1  0
 21 15  1  0
  1 22  1  0
  1 23  1  0
  1 24  1  0
  2 25  1  0
  2 26  1  0
  8 27  1  0
  8 28  1  0
  8 29  1  0
 10 30  1  0
 10 31  1  0
 12 32  1  0
 12 33  1  0
 13 34  1  0
 13 35  1  0
 14 36  1  0
 16 37  1  0
 17 38  1  0
 19 39  1  0
 20 40  1  0
M  END
$$$$
