
     RDKit          3D

 48 49  0  0  0  0  0  0  0  0999 V2000
    0.9642   -1.4431    2.5759 C   0  0  0  0  0  0  0  0  0  0  0  0
    1.6471   -0.8712    1.4670 O   0  0  0  0  0  0  0  0  0  0  0  0
    0.8704   -0.3614    0.4584 C   0  0  0  0  0  0  0  0  0  0  0  0
   -0.4852   -0.6572    0.2795 C   0  0  0  0  0  0  0  0  0  0  0  0
   -1.2237   -0.0770   -0.7682 C   0  0  0  0  0  0  0  0  0  0  0  0
   -2.6891   -0.4129   -0.9445 C   0  0  0  0  0  0  0  0  0  0  0  0
   -3.4480   -0.0298    0.2392 N   0  0  0  0  0  0  0  0  0  0  0  0
   -4.8752   -0.4095    0.2652 C   0  0  0  0  0  0  0  0  0  0  0  0
   -5.6093   -0.0547   -1.0412 C   0  0  0  0  0  0  0  0  0  0  0  0
   -5.0126   -1.9147    0.5442 C   0  0  0  0  0  0  0  0  0  0  0  0
   -5.5267    0.3684    1.4471 C   0  0  0  0  0  0  0  0  0  0  0  0
   -5.3930    1.7824    1.2798 O   0  0  0  0  0  0  0  0  0  0  0  0
   -0.5827    0.8078   -1.6447 C   0  0  0  0  0  0  0  0  0  0  0  0
    0.7736    1.0982   -1.4835 C   0  0  0  0  0  0  0  0  0  0  0  0
    1.5825    2.3049   -2.7060 Br  0  0  0  0  0  0  0  0  0  0  0  0
    1.5058    0.4994   -0.4515 C   0  0  0  0  0  0  0  0  0  0  0  0
    2.8318    0.8267   -0.2922 O   0  0  0  0  0  0  0  0  0  0  0  0
    3.6713   -0.2290   -0.7675 C   0  0  0  0  0  0  0  0  0  0  0  0
    5.0833    0.3006   -0.8402 C   0  0  0  0  0  0  0  0  0  0  0  0
    5.9018    0.2901    0.2991 C   0  0  0  0  0  0  0  0  0  0  0  0
    7.2021    0.7963    0.2412 C   0  0  0  0  0  0  0  0  0  0  0  0
    7.6861    1.3242   -0.9538 C   0  0  0  0  0  0  0  0  0  0  0  0
    9.2883    1.9482   -1.0257 Cl  0  0  0  0  0  0  0  0  0  0  0  0
    6.8799    1.3551   -2.0898 C   0  0  0  0  0  0  0  0  0  0  0  0
    5.5795    0.8486   -2.0320 C   0  0  0  0  0  0  0  0  0  0  0  0
    0.5049   -2.3977    2.3001 H   0  0  0  0  0  0  0  0  0  0  0  0
    0.2233   -0.7519    2.9919 H   0  0  0  0  0  0  0  0  0  0  0  0
    1.7052   -1.6450    3.3555 H   0  0  0  0  0  0  0  0  0  0  0  0
   -1.0070   -1.3352    0.9498 H   0  0  0  0  0  0  0  0  0  0  0  0
   -2.7603   -1.4892   -1.1373 H   0  0  0  0  0  0  0  0  0  0  0  0
   -3.0716    0.1050   -1.8311 H   0  0  0  0  0  0  0  0  0  0  0  0
   -3.3814    0.9839    0.3742 H   0  0  0  0  0  0  0  0  0  0  0  0
   -6.6902   -0.2011   -0.9324 H   0  0  0  0  0  0  0  0  0  0  0  0
   -5.2829   -0.6859   -1.8753 H   0  0  0  0  0  0  0  0  0  0  0  0
   -5.4450    0.9897   -1.3288 H   0  0  0  0  0  0  0  0  0  0  0  0
   -6.0650   -2.1935    0.6720 H   0  0  0  0  0  0  0  0  0  0  0  0
   -4.6131   -2.5220   -0.2749 H   0  0  0  0  0  0  0  0  0  0  0  0
   -4.4835   -2.2001    1.4610 H   0  0  0  0  0  0  0  0  0  0  0  0
   -5.0453    0.1059    2.3964 H   0  0  0  0  0  0  0  0  0  0  0  0
   -6.5930    0.1332    1.5433 H   0  0  0  0  0  0  0  0  0  0  0  0
   -6.0281    2.0577    0.5977 H   0  0  0  0  0  0  0  0  0  0  0  0
   -1.1427    1.2733   -2.4525 H   0  0  0  0  0  0  0  0  0  0  0  0
    3.3559   -0.5728   -1.7621 H   0  0  0  0  0  0  0  0  0  0  0  0
    3.6440   -1.0903   -0.0895 H   0  0  0  0  0  0  0  0  0  0  0  0
    5.5226   -0.1052    1.2395 H   0  0  0  0  0  0  0  0  0  0  0  0
    7.8260    0.7822    1.1305 H   0  0  0  0  0  0  0  0  0  0  0  0
    7.2531    1.7770   -3.0188 H   0  0  0  0  0  0  0  0  0  0  0  0
    4.9516    0.8915   -2.9194 H   0  0  0  0  0  0  0  0  0  0  0  0
  1  2  1  0
  2  3  1  0
  3  4  2  0
  4  5  1  0
  5  6  1  0
  6  7  1  0
  7  8  1  0
  8  9  1  0
  8 10  1  0
  8 11  1  0
 11 12  1  0
  5 13  2  0
 13 14  1  0
 14 15  1  0
 14 16  2  0
 16 17  1  0
 17 18  1  0
 18 19  1  0
 19 20  2  0
 20 21  1  0
 21 22  2  0
 22 23  1  0
 22 24  1  0
 24 25  2  0
 16  3  1  0
 25 19  1  0
  1 26  1  0
  1 27  1  0
  1 28  1  0
  4 29  1  0
  6 30  1  0
  6 31  1  0
  7 32  1  0
  9 33  1  0
  9 34  1  0
  9 35  1  0
 10 36  1  0
 10 37  1  0
 10 38  1  0
 11 39  1  0
 11 40  1  0
 12 41  1  0
 13 42  1  0
 18 43  1  0
 18 44  1  0
 20 45  1  0
 21 46  1  0
 24 47  1  0
 25 48  1  0
M  END
$$$$
