
     RDKit          3D

 47 49  0  0  0  0  0  0  0  0999 V2000
   -8.2847   -1.3520   -0.4204 C   0  0  0  0  0  0  0  0  0  0  0  0
   -7.8017   -0.0691   -1.0826 C   0  0  0  0  0  0  0  0  0  0  0  0
   -7.4508    1.0147   -0.0637 C   0  0  0  0  0  0  0  0  0  0  0  0
   -6.4347    0.5838    0.8414 O   0  0  0  0  0  0  0  0  0  0  0  0
   -5.1242    0.7613    0.5011 C   0  0  0  0  0  0  0  0  0  0  0  0
   -4.6408    1.2512   -0.7116 C   0  0  0  0  0  0  0  0  0  0  0  0
   -3.2621    1.3744   -0.9211 C   0  0  0  0  0  0  0  0  0  0  0  0
   -2.3560    0.9963    0.0762 C   0  0  0  0  0  0  0  0  0  0  0  0
   -0.8973    1.1448   -0.1929 C   0  0  0  0  0  0  0  0  0  0  0  0
   -0.5303    2.0772   -0.8978 O   0  0  0  0  0  0  0  0  0  0  0  0
   -0.0997    0.1637    0.3682 N   0  0  0  0  0  0  0  0  0  0  0  0
    1.3061    0.0696    0.3128 C   0  0  0  0  0  0  0  0  0  0  0  0
    1.8969   -1.0588    0.8902 C   0  0  0  0  0  0  0  0  0  0  0  0
    3.2883   -1.2283    0.8836 C   0  0  0  0  0  0  0  0  0  0  0  0
    4.1144   -0.2713    0.2979 C   0  0  0  0  0  0  0  0  0  0  0  0
    5.5216   -0.3547    0.2474 N   0  0  0  0  0  0  0  0  0  0  0  0
    6.3329   -1.3926    0.6884 C   0  0  0  0  0  0  0  0  0  0  0  0
    5.9050   -2.4426    1.1595 O   0  0  0  0  0  0  0  0  0  0  0  0
    7.7651   -1.1295    0.5237 C   0  0  0  0  0  0  0  0  0  0  0  0
    8.4485    0.0656    0.3623 C   0  0  0  0  0  0  0  0  0  0  0  0
    9.8576   -0.1184    0.2305 C   0  0  0  0  0  0  0  0  0  0  0  0
   10.2125   -1.4449    0.3039 C   0  0  0  0  0  0  0  0  0  0  0  0
    8.8580   -2.4578    0.5385 S   0  0  0  0  0  0  0  0  0  0  0  0
    3.5226    0.8605   -0.2739 C   0  0  0  0  0  0  0  0  0  0  0  0
    2.1316    1.0304   -0.2663 C   0  0  0  0  0  0  0  0  0  0  0  0
   -2.8379    0.5189    1.2990 C   0  0  0  0  0  0  0  0  0  0  0  0
   -4.2159    0.3986    1.5012 C   0  0  0  0  0  0  0  0  0  0  0  0
   -7.5047   -1.7941    0.2073 H   0  0  0  0  0  0  0  0  0  0  0  0
   -8.5606   -2.0883   -1.1819 H   0  0  0  0  0  0  0  0  0  0  0  0
   -9.1641   -1.1639    0.2036 H   0  0  0  0  0  0  0  0  0  0  0  0
   -8.5830    0.3073   -1.7522 H   0  0  0  0  0  0  0  0  0  0  0  0
   -6.9294   -0.3094   -1.6995 H   0  0  0  0  0  0  0  0  0  0  0  0
   -8.3376    1.2258    0.5459 H   0  0  0  0  0  0  0  0  0  0  0  0
   -7.1961    1.9645   -0.5476 H   0  0  0  0  0  0  0  0  0  0  0  0
   -5.3020    1.5448   -1.5196 H   0  0  0  0  0  0  0  0  0  0  0  0
   -2.8957    1.7639   -1.8695 H   0  0  0  0  0  0  0  0  0  0  0  0
   -0.5708   -0.6133    0.8128 H   0  0  0  0  0  0  0  0  0  0  0  0
    1.2897   -1.8308    1.3561 H   0  0  0  0  0  0  0  0  0  0  0  0
    3.6876   -2.1235    1.3498 H   0  0  0  0  0  0  0  0  0  0  0  0
    5.9828    0.4143   -0.2159 H   0  0  0  0  0  0  0  0  0  0  0  0
    7.9791    1.0412    0.3551 H   0  0  0  0  0  0  0  0  0  0  0  0
   10.5745    0.6830    0.0973 H   0  0  0  0  0  0  0  0  0  0  0  0
   11.2044   -1.8715    0.2398 H   0  0  0  0  0  0  0  0  0  0  0  0
    4.1279    1.6348   -0.7386 H   0  0  0  0  0  0  0  0  0  0  0  0
    1.7277    1.9296   -0.7208 H   0  0  0  0  0  0  0  0  0  0  0  0
   -2.1648    0.2654    2.1129 H   0  0  0  0  0  0  0  0  0  0  0  0
   -4.5899    0.0292    2.4539 H   0  0  0  0  0  0  0  0  0  0  0  0
  1  2  1  0
  2  3  1  0
  3  4  1  0
  4  5  1  0
  5  6  2  0
  6  7  1  0
  7  8  2  0
  8  9  1  0
  9 10  2  0
  9 11  1  0
 11 12  1  0
 12 13  2  0
 13 14  1  0
 14 15  2  0
 15 16  1  0
 16 17  1  0
 17 18  2  0
 17 19  1  0
 19 20  2  0
 20 21  1  0
 21 22  2  0
 22 23  1  0
 15 24  1  0
 24 25  2  0
  8 26  1  0
 26 27  2  0
 27  5  1  0
 25 12  1  0
 23 19  1  0
  1 28  1  0
  1 29  1  0
  1 30  1  0
  2 31  1  0
  2 32  1  0
  3 33  1  0
  3 34  1  0
  6 35  1  0
  7 36  1  0
 11 37  1  0
 13 38  1  0
 14 39  1  0
 16 40  1  0
 20 41  1  0
 21 42  1  0
 22 43  1  0
 24 44  1  0
 25 45  1  0
 26 46  1  0
 27 47  1  0
M  END
$$$$
