
     RDKit          3D

 39 41  0  0  0  0  0  0  0  0999 V2000
    0.2508    4.0652   -2.3662 C   0  0  0  0  0  0  0  0  0  0  0  0
   -0.5409    4.2970   -1.0906 C   0  0  0  0  0  0  0  0  0  0  0  0
   -1.9478    3.1428   -0.9628 S   0  0  0  0  0  0  0  0  0  0  0  0
   -1.1070    1.6311   -0.5114 C   0  0  0  0  0  0  0  0  0  0  0  0
   -1.6701    0.4275   -0.8798 C   0  0  0  0  0  0  0  0  0  0  0  0
   -1.0236   -0.7260   -0.4887 C   0  0  0  0  0  0  0  0  0  0  0  0
   -1.4983   -1.9713   -0.8191 N   0  0  0  0  0  0  0  0  0  0  0  0
   -2.8706   -2.2587   -1.2152 C   0  0  0  0  0  0  0  0  0  0  0  0
   -3.0571   -3.7357   -0.8661 C   0  0  0  0  0  0  0  0  0  0  0  0
   -1.6470   -4.3000   -0.9380 C   0  0  0  0  0  0  0  0  0  0  0  0
   -0.8026   -3.1676   -0.3610 C   0  0  0  0  0  0  0  0  0  0  0  0
    0.1171   -0.6533    0.2182 N   0  0  0  0  0  0  0  0  0  0  0  0
    0.6022    0.5630    0.5301 C   0  0  0  0  0  0  0  0  0  0  0  0
    1.8048    0.6014    1.3709 C   0  0  0  0  0  0  0  0  0  0  0  0
    1.8684   -0.2303    2.5114 C   0  0  0  0  0  0  0  0  0  0  0  0
    2.9759   -0.2284    3.3637 C   0  0  0  0  0  0  0  0  0  0  0  0
    4.0546    0.6045    3.0933 C   0  0  0  0  0  0  0  0  0  0  0  0
    4.0262    1.4262    1.9682 C   0  0  0  0  0  0  0  0  0  0  0  0
    2.9152    1.4248    1.1110 C   0  0  0  0  0  0  0  0  0  0  0  0
    3.0253    2.4384   -0.2895 Cl  0  0  0  0  0  0  0  0  0  0  0  0
    0.0183    1.7232    0.2082 N   0  0  0  0  0  0  0  0  0  0  0  0
    1.0735    4.7853   -2.4281 H   0  0  0  0  0  0  0  0  0  0  0  0
    0.6862    3.0620   -2.4039 H   0  0  0  0  0  0  0  0  0  0  0  0
   -0.3750    4.2031   -3.2545 H   0  0  0  0  0  0  0  0  0  0  0  0
   -0.9546    5.3109   -1.1094 H   0  0  0  0  0  0  0  0  0  0  0  0
    0.1017    4.2348   -0.2075 H   0  0  0  0  0  0  0  0  0  0  0  0
   -2.5790    0.4000   -1.4643 H   0  0  0  0  0  0  0  0  0  0  0  0
   -2.9872   -2.0977   -2.2926 H   0  0  0  0  0  0  0  0  0  0  0  0
   -3.6087   -1.6517   -0.6795 H   0  0  0  0  0  0  0  0  0  0  0  0
   -3.7534   -4.2403   -1.5417 H   0  0  0  0  0  0  0  0  0  0  0  0
   -3.4438   -3.8314    0.1559 H   0  0  0  0  0  0  0  0  0  0  0  0
   -1.5330   -5.2342   -0.3815 H   0  0  0  0  0  0  0  0  0  0  0  0
   -1.3705   -4.4836   -1.9833 H   0  0  0  0  0  0  0  0  0  0  0  0
    0.2271   -3.2214   -0.7303 H   0  0  0  0  0  0  0  0  0  0  0  0
   -0.7991   -3.2180    0.7347 H   0  0  0  0  0  0  0  0  0  0  0  0
    1.0312   -0.8895    2.7415 H   0  0  0  0  0  0  0  0  0  0  0  0
    2.9908   -0.8777    4.2357 H   0  0  0  0  0  0  0  0  0  0  0  0
    4.9196    0.6105    3.7515 H   0  0  0  0  0  0  0  0  0  0  0  0
    4.8802    2.0652    1.7552 H   0  0  0  0  0  0  0  0  0  0  0  0
  1  2  1  0
  2  3  1  0
  3  4  1  0
  4  5  2  0
  5  6  1  0
  6  7  1  0
  7  8  1  0
  8  9  1  0
  9 10  1  0
 10 11  1  0
  6 12  2  0
 12 13  1  0
 13 14  1  0
 14 15  2  0
 15 16  1  0
 16 17  2  0
 17 18  1  0
 18 19  2  0
 19 20  1  0
 13 21  2  0
 21  4  1  0
 11  7  1  0
 19 14  1  0
  1 22  1  0
  1 23  1  0
  1 24  1  0
  2 25  1  0
  2 26  1  0
  5 27  1  0
  8 28  1  0
  8 29  1  0
  9 30  1  0
  9 31  1  0
 10 32  1  0
 10 33  1  0
 11 34  1  0
 11 35  1  0
 15 36  1  0
 16 37  1  0
 17 38  1  0
 18 39  1  0
M  END
$$$$
