
     RDKit          3D

 52 55  0  0  0  0  0  0  0  0999 V2000
    3.6487   -0.1836    2.2474 O   0  0  0  0  0  0  0  0  0  0  0  0
    3.4869   -0.2973    1.0351 C   0  0  0  0  0  0  0  0  0  0  0  0
    2.4337   -0.9703    0.4300 N   0  0  0  0  0  0  0  0  0  0  0  0
    1.3889   -1.4216    1.2676 N   0  0  0  0  0  0  0  0  0  0  0  0
    0.1020   -1.0730    0.8134 C   0  0  0  0  0  0  0  0  0  0  0  0
   -0.2247    0.2353    0.5295 C   0  0  0  0  0  0  0  0  0  0  0  0
   -1.5157    0.4943    0.1255 C   0  0  0  0  0  0  0  0  0  0  0  0
   -1.9364    1.7622   -0.1972 N   0  0  0  0  0  0  0  0  0  0  0  0
   -1.2085    2.9922    0.0829 C   0  0  0  0  0  0  0  0  0  0  0  0
   -2.2905    4.0743    0.0765 C   0  0  0  0  0  0  0  0  0  0  0  0
   -3.3731    3.4979   -0.8249 C   0  0  0  0  0  0  0  0  0  0  0  0
   -3.3461    2.0129   -0.4774 C   0  0  0  0  0  0  0  0  0  0  0  0
   -2.4012   -0.5127    0.0175 N   0  0  0  0  0  0  0  0  0  0  0  0
   -2.0251   -1.7645    0.3174 C   0  0  0  0  0  0  0  0  0  0  0  0
   -2.9425   -2.7862    0.1932 N   0  0  0  0  0  0  0  0  0  0  0  0
   -2.6449   -4.0565    0.8373 C   0  0  0  0  0  0  0  0  0  0  0  0
   -3.9906   -4.7758    0.8239 C   0  0  0  0  0  0  0  0  0  0  0  0
   -4.9719   -3.6381    1.0520 C   0  0  0  0  0  0  0  0  0  0  0  0
   -4.3622   -2.4670    0.2674 C   0  0  0  0  0  0  0  0  0  0  0  0
   -0.7808   -2.0726    0.7062 N   0  0  0  0  0  0  0  0  0  0  0  0
    4.4536    0.3587    0.1084 C   0  0  0  0  0  0  0  0  0  0  0  0
    5.1295    1.5024    0.5650 C   0  0  0  0  0  0  0  0  0  0  0  0
    6.0573    2.1555   -0.2540 C   0  0  0  0  0  0  0  0  0  0  0  0
    6.3133    1.6528   -1.5360 C   0  0  0  0  0  0  0  0  0  0  0  0
    7.2863    2.3326   -2.4025 N   0  0  0  0  0  4  0  0  0  0  0  0
    7.5123    1.8365   -3.5163 O   0  0  0  0  0  0  0  0  0  0  0  0
    7.8209    3.3659   -1.9726 O   0  0  0  0  0  1  0  0  0  0  0  0
    5.6533    0.5044   -1.9996 C   0  0  0  0  0  0  0  0  0  0  0  0
    4.7244   -0.1451   -1.1731 C   0  0  0  0  0  0  0  0  0  0  0  0
    2.1998   -0.8451   -0.5509 H   0  0  0  0  0  0  0  0  0  0  0  0
    1.3877   -2.4374    1.3805 H   0  0  0  0  0  0  0  0  0  0  0  0
    0.5130    1.0184    0.6356 H   0  0  0  0  0  0  0  0  0  0  0  0
   -0.6994    2.9810    1.0530 H   0  0  0  0  0  0  0  0  0  0  0  0
   -0.4738    3.1734   -0.7098 H   0  0  0  0  0  0  0  0  0  0  0  0
   -2.6872    4.2107    1.0901 H   0  0  0  0  0  0  0  0  0  0  0  0
   -1.9130    5.0385   -0.2736 H   0  0  0  0  0  0  0  0  0  0  0  0
   -3.1053    3.6424   -1.8806 H   0  0  0  0  0  0  0  0  0  0  0  0
   -4.3564    3.9512   -0.6515 H   0  0  0  0  0  0  0  0  0  0  0  0
   -3.9576    1.8185    0.4145 H   0  0  0  0  0  0  0  0  0  0  0  0
   -3.7285    1.4114   -1.3117 H   0  0  0  0  0  0  0  0  0  0  0  0
   -1.8791   -4.6231    0.2962 H   0  0  0  0  0  0  0  0  0  0  0  0
   -2.3171   -3.9124    1.8754 H   0  0  0  0  0  0  0  0  0  0  0  0
   -4.1680   -5.2345   -0.1557 H   0  0  0  0  0  0  0  0  0  0  0  0
   -4.0518   -5.5548    1.5901 H   0  0  0  0  0  0  0  0  0  0  0  0
   -5.0129   -3.3896    2.1218 H   0  0  0  0  0  0  0  0  0  0  0  0
   -5.9882   -3.8806    0.7213 H   0  0  0  0  0  0  0  0  0  0  0  0
   -4.7873   -2.4216   -0.7416 H   0  0  0  0  0  0  0  0  0  0  0  0
   -4.5864   -1.5271    0.7839 H   0  0  0  0  0  0  0  0  0  0  0  0
    4.9321    1.8863    1.5671 H   0  0  0  0  0  0  0  0  0  0  0  0
    6.5665    3.0398    0.1258 H   0  0  0  0  0  0  0  0  0  0  0  0
    5.8648    0.0941   -2.9866 H   0  0  0  0  0  0  0  0  0  0  0  0
    4.2511   -1.0528   -1.5358 H   0  0  0  0  0  0  0  0  0  0  0  0
  1  2  2  0
  2  3  1  0
  3  4  1  0
  4  5  1  0
  5  6  2  0
  6  7  1  0
  7  8  1  0
  8  9  1  0
  9 10  1  0
 10 11  1  0
 11 12  1  0
  7 13  2  0
 13 14  1  0
 14 15  1  0
 15 16  1  0
 16 17  1  0
 17 18  1  0
 18 19  1  0
 14 20  2  0
  2 21  1  0
 21 22  2  0
 22 23  1  0
 23 24  2  0
 24 25  1  0
 25 26  2  0
 25 27  1  0
 24 28  1  0
 28 29  2  0
 20  5  1  0
 29 21  1  0
 12  8  1  0
 19 15  1  0
  3 30  1  0
  4 31  1  0
  6 32  1  0
  9 33  1  0
  9 34  1  0
 10 35  1  0
 10 36  1  0
 11 37  1  0
 11 38  1  0
 12 39  1  0
 12 40  1  0
 16 41  1  0
 16 42  1  0
 17 43  1  0
 17 44  1  0
 18 45  1  0
 18 46  1  0
 19 47  1  0
 19 48  1  0
 22 49  1  0
 23 50  1  0
 28 51  1  0
 29 52  1  0
M  CHG  2  25   1  27  -1
M  END
$$$$
